
     RDKit          3D

 74 77  0  0  0  0  0  0  0  0999 V2000
   47.8651    7.6227   17.6544 N   0  0  0  0  0  0  0  0  0  0  0  0
   48.7516    9.6830   18.7548 C   0  0  0  0  0  0  0  0  0  0  0  0
   48.7752    4.8335   18.6211 C   0  0  0  0  0  0  0  0  0  0  0  0
   49.0251    8.4917   17.8672 C   0  0  0  0  0  0  0  0  0  0  0  0
   47.3732    6.9651   18.8733 C   0  0  0  0  0  0  0  0  0  0  0  0
   48.3279    5.9527   19.5335 C   0  0  0  0  0  0  0  0  0  0  0  0
   47.8501    3.9082   18.1167 C   0  0  0  0  0  0  0  0  0  0  0  0
   50.1256    4.7021   18.2685 C   0  0  0  0  0  0  0  0  0  0  0  0
   47.7262   10.5873   18.4399 C   0  0  0  0  0  0  0  0  0  0  0  0
   49.5312    9.9147   19.8978 C   0  0  0  0  0  0  0  0  0  0  0  0
   48.2653    2.8803   17.2684 C   0  0  0  0  0  0  0  0  0  0  0  0
   50.5389    3.6720   17.4221 C   0  0  0  0  0  0  0  0  0  0  0  0
   47.4787   11.6924   19.2554 C   0  0  0  0  0  0  0  0  0  0  0  0
   49.2838   11.0220   20.7119 C   0  0  0  0  0  0  0  0  0  0  0  0
   49.6095    2.7628   16.9208 C   0  0  0  0  0  0  0  0  0  0  0  0
   48.2569   11.9083   20.3917 C   0  0  0  0  0  0  0  0  0  0  0  0
   50.4200    5.2582   17.7188 N   0  0  0  0  0  0  0  0  0  0  0  0
   49.9681    5.8284   18.9986 C   0  0  1  0  0  0  0  0  0  0  0  0
   50.1211    6.3816   17.0054 C   0  0  0  0  0  0  0  0  0  0  0  0
   49.9518    7.2139   18.2967 C   0  0  1  0  0  0  0  0  0  0  0  0
   49.9040    3.9461   17.3466 C   0  0  2  0  0  0  0  0  0  0  0  0
   48.3484    5.0239   19.3331 S   0  0  0  0  0  0  0  0  0  0  0  0
   48.4605    3.8451   17.9037 C   0  0  0  0  0  0  0  0  0  0  0  0
   48.7134    8.0305   18.3938 N   0  0  0  0  0  0  0  0  0  0  0  0
   50.8462    2.8406   17.8340 C   0  0  0  0  0  0  0  0  0  0  0  0
   48.3864    8.6723   19.5703 C   0  0  0  0  0  0  0  0  0  0  0  0
   49.9486    6.5527   15.8213 O   0  0  0  0  0  0  0  0  0  0  0  0
   50.7543    1.6532   17.5510 O   0  0  0  0  0  0  0  0  0  0  0  0
   49.0889    8.5813   20.5754 O   0  0  0  0  0  0  0  0  0  0  0  0
   47.0996    9.4758   19.5218 C   0  0  0  0  0  0  0  0  0  0  0  0
   51.8318    3.2473   18.6611 O   0  0  0  0  0  0  0  0  0  0  0  0
   47.4337    4.3026   16.8522 C   0  0  0  0  0  0  0  0  0  0  0  0
   48.0426    2.4596   18.4119 C   0  0  0  0  0  0  0  0  0  0  0  0
   47.3257   10.9515   19.7379 C   0  0  0  0  0  0  0  0  0  0  0  0
   47.4384   11.4660   21.0379 C   0  0  0  0  0  0  0  0  0  0  0  0
   47.4505   11.8258   18.6490 C   0  0  0  0  0  0  0  0  0  0  0  0
   47.6540   12.8297   21.2457 C   0  0  0  0  0  0  0  0  0  0  0  0
   47.6666   13.1905   18.8590 C   0  0  0  0  0  0  0  0  0  0  0  0
   47.7659   13.6920   20.1568 C   0  0  0  0  0  0  0  0  0  0  0  0
   48.1321    6.8972   16.9872 H   0  0  0  0  0  0  0  0  0  0  0  0
   49.3442    8.8794   16.8917 H   0  0  0  0  0  0  0  0  0  0  0  0
   49.8758    7.9135   18.2434 H   0  0  0  0  0  0  0  0  0  0  0  0
   46.4452    6.4487   18.5999 H   0  0  0  0  0  0  0  0  0  0  0  0
   47.0725    7.7121   19.6169 H   0  0  0  0  0  0  0  0  0  0  0  0
   47.8227    5.5025   20.3980 H   0  0  0  0  0  0  0  0  0  0  0  0
   49.2003    6.4749   19.9449 H   0  0  0  0  0  0  0  0  0  0  0  0
   46.7976    3.9821   18.3815 H   0  0  0  0  0  0  0  0  0  0  0  0
   50.8675    5.4009   18.6500 H   0  0  0  0  0  0  0  0  0  0  0  0
   47.1095   10.4198   17.5585 H   0  0  0  0  0  0  0  0  0  0  0  0
   50.3354    9.2321   20.1626 H   0  0  0  0  0  0  0  0  0  0  0  0
   47.5394    2.1722   16.8770 H   0  0  0  0  0  0  0  0  0  0  0  0
   51.5876    3.5785   17.1545 H   0  0  0  0  0  0  0  0  0  0  0  0
   46.6749   12.3793   19.0061 H   0  0  0  0  0  0  0  0  0  0  0  0
   49.8907   11.1911   21.5981 H   0  0  0  0  0  0  0  0  0  0  0  0
   49.9333    1.9624   16.2608 H   0  0  0  0  0  0  0  0  0  0  0  0
   48.0615   12.7674   21.0278 H   0  0  0  0  0  0  0  0  0  0  0  0
   50.7059    5.7209   19.7992 H   0  0  0  0  0  0  0  0  0  0  0  0
   50.8394    7.8277   18.4988 H   0  0  0  0  0  0  0  0  0  0  0  0
   49.9106    3.8808   16.2506 H   0  0  0  0  0  0  0  0  0  0  0  0
   48.1268    8.1507   17.5750 H   0  0  0  0  0  0  0  0  0  0  0  0
   46.4251    9.0802   20.2922 H   0  0  0  0  0  0  0  0  0  0  0  0
   46.5821    9.3165   18.5679 H   0  0  0  0  0  0  0  0  0  0  0  0
   52.3302    2.4292   18.8661 H   0  0  0  0  0  0  0  0  0  0  0  0
   46.4075    4.2378   17.2334 H   0  0  0  0  0  0  0  0  0  0  0  0
   47.5952    5.3336   16.5238 H   0  0  0  0  0  0  0  0  0  0  0  0
   47.4877    3.6646   15.9620 H   0  0  0  0  0  0  0  0  0  0  0  0
   48.6744    2.1085   19.2357 H   0  0  0  0  0  0  0  0  0  0  0  0
   48.0943    1.7182   17.6062 H   0  0  0  0  0  0  0  0  0  0  0  0
   47.0083    2.4576   18.7775 H   0  0  0  0  0  0  0  0  0  0  0  0
   47.3679   10.8027   21.8984 H   0  0  0  0  0  0  0  0  0  0  0  0
   47.3777   11.4542   17.6291 H   0  0  0  0  0  0  0  0  0  0  0  0
   47.7401   13.2163   22.2588 H   0  0  0  0  0  0  0  0  0  0  0  0
   47.7590   13.8624   18.0087 H   0  0  0  0  0  0  0  0  0  0  0  0
   47.9356   14.7535   20.3208 H   0  0  0  0  0  0  0  0  0  0  0  0
  2  4  1  0
  3  6  1  0
  4  1  1  0
  5  1  1  0
  6  5  1  0
  7  3  2  0
  8  3  1  0
  9  2  2  0
 10  2  1  0
 11  7  1  0
 12  8  2  0
 13  9  1  0
 14 10  2  0
 15 12  1  0
 16 14  1  0
 13 16  2  0
 11 15  2  0
 18 17  1  0
 19 17  1  0
 20 19  1  0
 21 17  1  0
 18 22  1  0
 23 21  1  0
 20 24  1  0
 21 25  1  0
 26 24  1  0
 27 19  2  0
 28 25  2  0
 29 26  2  0
 30 26  1  0
 31 25  1  0
 32 23  1  0
 33 23  1  0
 34 30  1  0
 35 34  2  0
 36 34  1  0
 37 35  1  0
 38 36  2  0
 39 38  1  0
 22 23  1  0
 18 20  1  0
 37 39  2  0
  1 40  1  0
  4 41  1  0
  4 42  1  0
  5 43  1  0
  5 44  1  0
  6 45  1  0
  6 46  1  0
  7 47  1  0
  8 48  1  0
  9 49  1  0
 10 50  1  0
 11 51  1  0
 12 52  1  0
 13 53  1  0
 14 54  1  0
 15 55  1  0
 16 56  1  0
 18 57  1  1
 20 58  1  1
 21 59  1  6
 24 60  1  0
 30 61  1  0
 30 62  1  0
 31 63  1  0
 32 64  1  0
 32 65  1  0
 32 66  1  0
 33 67  1  0
 33 68  1  0
 33 69  1  0
 35 70  1  0
 36 71  1  0
 37 72  1  0
 38 73  1  0
 39 74  1  0
M  END
> <Uni-Dock RESULT> 
ENERGY=   -6.169  LOWER_BOUND=    0.000  UPPER_BOUND=    0.000
INTER + INTRA:          -6.169
INTER:                  -6.169
INTRA:                   0.000
UNBOUND:                 0.000

$$$$

     RDKit          3D

 74 77  0  0  0  0  0  0  0  0999 V2000
   47.3782    8.8891   18.3026 N   0  0  0  0  0  0  0  0  0  0  0  0
   48.0444    6.5744   18.9658 C   0  0  0  0  0  0  0  0  0  0  0  0
   48.9914   11.3194   19.3194 C   0  0  0  0  0  0  0  0  0  0  0  0
   47.4609    7.9037   19.3835 C   0  0  0  0  0  0  0  0  0  0  0  0
   48.6814    9.3043   17.7649 C   0  0  0  0  0  0  0  0  0  0  0  0
   49.6048   10.0688   18.7318 C   0  0  0  0  0  0  0  0  0  0  0  0
   48.6512   12.4037   18.4981 C   0  0  0  0  0  0  0  0  0  0  0  0
   48.7571   11.4143   20.6983 C   0  0  0  0  0  0  0  0  0  0  0  0
   47.4768    5.8460   17.9097 C   0  0  0  0  0  0  0  0  0  0  0  0
   49.1514    6.0380   19.6401 C   0  0  0  0  0  0  0  0  0  0  0  0
   48.0781   13.5541   19.0429 C   0  0  0  0  0  0  0  0  0  0  0  0
   48.1861   12.5665   21.2413 C   0  0  0  0  0  0  0  0  0  0  0  0
   48.0108    4.6141   17.5291 C   0  0  0  0  0  0  0  0  0  0  0  0
   49.6835    4.8043   19.2596 C   0  0  0  0  0  0  0  0  0  0  0  0
   47.8452   13.6349   20.4143 C   0  0  0  0  0  0  0  0  0  0  0  0
   49.1147    4.0947   18.2035 C   0  0  0  0  0  0  0  0  0  0  0  0
   48.1160   10.9687   20.9959 N   0  0  0  0  0  0  0  0  0  0  0  0
   49.2085   10.1730   20.4123 C   0  0  1  0  0  0  0  0  0  0  0  0
   47.1548   10.0547   20.6781 C   0  0  0  0  0  0  0  0  0  0  0  0
   48.2170    8.9786   20.3575 C   0  0  1  0  0  0  0  0  0  0  0  0
   48.0144   12.3676   20.5971 C   0  0  2  0  0  0  0  0  0  0  0  0
   49.6170   11.0143   18.8286 S   0  0  0  0  0  0  0  0  0  0  0  0
   48.4940   12.4619   19.1256 C   0  0  0  0  0  0  0  0  0  0  0  0
   48.0573    8.2634   19.0641 N   0  0  0  0  0  0  0  0  0  0  0  0
   48.7896   13.2612   21.5709 C   0  0  0  0  0  0  0  0  0  0  0  0
   49.0408    7.4104   18.6078 C   0  0  0  0  0  0  0  0  0  0  0  0
   45.9542   10.1589   20.5844 O   0  0  0  0  0  0  0  0  0  0  0  0
   48.7721   14.4851   21.5791 O   0  0  0  0  0  0  0  0  0  0  0  0
   50.0807    7.2241   19.2371 O   0  0  0  0  0  0  0  0  0  0  0  0
   48.7394    6.7434   17.2780 C   0  0  0  0  0  0  0  0  0  0  0  0
   49.5625   12.6064   22.4624 O   0  0  0  0  0  0  0  0  0  0  0  0
   47.3085   12.3279   18.1529 C   0  0  0  0  0  0  0  0  0  0  0  0
   49.2714   13.7334   18.7630 C   0  0  0  0  0  0  0  0  0  0  0  0
   48.6358    5.2426   17.3893 C   0  0  0  0  0  0  0  0  0  0  0  0
   49.7935    4.4510   17.3696 C   0  0  0  0  0  0  0  0  0  0  0  0
   47.3893    4.6180   17.5379 C   0  0  0  0  0  0  0  0  0  0  0  0
   49.7060    3.0619   17.4785 C   0  0  0  0  0  0  0  0  0  0  0  0
   47.3037    3.2274   17.6470 C   0  0  0  0  0  0  0  0  0  0  0  0
   48.4614    2.4500   17.6150 C   0  0  0  0  0  0  0  0  0  0  0  0
   46.9055    9.7180   18.6664 H   0  0  0  0  0  0  0  0  0  0  0  0
   46.4443    7.7122   19.7488 H   0  0  0  0  0  0  0  0  0  0  0  0
   48.0055    8.3158   20.2397 H   0  0  0  0  0  0  0  0  0  0  0  0
   48.4751    9.9411   16.8961 H   0  0  0  0  0  0  0  0  0  0  0  0
   49.2216    8.4407   17.3603 H   0  0  0  0  0  0  0  0  0  0  0  0
   50.5164   10.3602   18.1937 H   0  0  0  0  0  0  0  0  0  0  0  0
   49.9408    9.4010   19.5344 H   0  0  0  0  0  0  0  0  0  0  0  0
   48.8305   12.3596   17.4260 H   0  0  0  0  0  0  0  0  0  0  0  0
   49.0171   10.5917   21.3617 H   0  0  0  0  0  0  0  0  0  0  0  0
   46.6198    6.2500   17.3735 H   0  0  0  0  0  0  0  0  0  0  0  0
   49.6080    6.5796   20.4654 H   0  0  0  0  0  0  0  0  0  0  0  0
   47.8115   14.3866   18.3968 H   0  0  0  0  0  0  0  0  0  0  0  0
   48.0083   12.6306   22.3110 H   0  0  0  0  0  0  0  0  0  0  0  0
   47.5683    4.0649   16.7027 H   0  0  0  0  0  0  0  0  0  0  0  0
   50.5443    4.3986   19.7856 H   0  0  0  0  0  0  0  0  0  0  0  0
   47.3994   14.5305   20.8389 H   0  0  0  0  0  0  0  0  0  0  0  0
   49.5318    3.1368   17.9045 H   0  0  0  0  0  0  0  0  0  0  0  0
   50.0551   10.0442   21.0932 H   0  0  0  0  0  0  0  0  0  0  0  0
   48.3299    8.2658   21.1848 H   0  0  0  0  0  0  0  0  0  0  0  0
   46.9625   12.6682   20.6905 H   0  0  0  0  0  0  0  0  0  0  0  0
   47.1991    8.3715   18.5342 H   0  0  0  0  0  0  0  0  0  0  0  0
   49.5372    7.0158   16.5751 H   0  0  0  0  0  0  0  0  0  0  0  0
   47.8159    7.1470   16.8455 H   0  0  0  0  0  0  0  0  0  0  0  0
   49.9729   13.3175   22.9969 H   0  0  0  0  0  0  0  0  0  0  0  0
   47.6334   12.3913   17.1075 H   0  0  0  0  0  0  0  0  0  0  0  0
   46.7696   11.3831   18.2703 H   0  0  0  0  0  0  0  0  0  0  0  0
   46.5868   13.1373   18.3158 H   0  0  0  0  0  0  0  0  0  0  0  0
   50.1883   13.8452   19.3528 H   0  0  0  0  0  0  0  0  0  0  0  0
   48.6547   14.6252   18.9240 H   0  0  0  0  0  0  0  0  0  0  0  0
   49.5667   13.7398   17.7065 H   0  0  0  0  0  0  0  0  0  0  0  0
   50.7741    4.9154   17.2784 H   0  0  0  0  0  0  0  0  0  0  0  0
   46.4748    5.2066   17.5667 H   0  0  0  0  0  0  0  0  0  0  0  0
   50.6113    2.4592   17.4623 H   0  0  0  0  0  0  0  0  0  0  0  0
   46.3325    2.7507   17.7586 H   0  0  0  0  0  0  0  0  0  0  0  0
   48.3956    1.3680   17.7013 H   0  0  0  0  0  0  0  0  0  0  0  0
  2  4  1  0
  3  6  1  0
  4  1  1  0
  5  1  1  0
  6  5  1  0
  7  3  2  0
  8  3  1  0
  9  2  2  0
 10  2  1  0
 11  7  1  0
 12  8  2  0
 13  9  1  0
 14 10  2  0
 15 12  1  0
 16 14  1  0
 13 16  2  0
 11 15  2  0
 18 17  1  0
 19 17  1  0
 20 19  1  0
 21 17  1  0
 18 22  1  0
 23 21  1  0
 20 24  1  0
 21 25  1  0
 26 24  1  0
 27 19  2  0
 28 25  2  0
 29 26  2  0
 30 26  1  0
 31 25  1  0
 32 23  1  0
 33 23  1  0
 34 30  1  0
 35 34  2  0
 36 34  1  0
 37 35  1  0
 38 36  2  0
 39 38  1  0
 22 23  1  0
 18 20  1  0
 37 39  2  0
  1 40  1  0
  4 41  1  0
  4 42  1  0
  5 43  1  0
  5 44  1  0
  6 45  1  0
  6 46  1  0
  7 47  1  0
  8 48  1  0
  9 49  1  0
 10 50  1  0
 11 51  1  0
 12 52  1  0
 13 53  1  0
 14 54  1  0
 15 55  1  0
 16 56  1  0
 18 57  1  1
 20 58  1  1
 21 59  1  6
 24 60  1  0
 30 61  1  0
 30 62  1  0
 31 63  1  0
 32 64  1  0
 32 65  1  0
 32 66  1  0
 33 67  1  0
 33 68  1  0
 33 69  1  0
 35 70  1  0
 36 71  1  0
 37 72  1  0
 38 73  1  0
 39 74  1  0
M  END
> <Uni-Dock RESULT> 
ENERGY=   -5.492  LOWER_BOUND=    2.027  UPPER_BOUND=    7.638
INTER + INTRA:          -5.492
INTER:                  -5.492
INTRA:                   0.000
UNBOUND:                 0.000

$$$$

     RDKit          3D

 74 77  0  0  0  0  0  0  0  0999 V2000
   47.7315    8.7673   12.3530 N   0  0  0  0  0  0  0  0  0  0  0  0
   46.5391    6.8054   13.3382 C   0  0  0  0  0  0  0  0  0  0  0  0
   50.8116    8.9477   12.5056 C   0  0  0  0  0  0  0  0  0  0  0  0
   47.3345    8.0672   13.5771 C   0  0  0  0  0  0  0  0  0  0  0  0
   48.6513    8.0067   11.4953 C   0  0  0  0  0  0  0  0  0  0  0  0
   50.0454    7.7154   12.0816 C   0  0  0  0  0  0  0  0  0  0  0  0
   51.2087    9.9041   11.5602 C   0  0  0  0  0  0  0  0  0  0  0  0
   51.1403    9.1501   13.8532 C   0  0  0  0  0  0  0  0  0  0  0  0
   45.3535    6.8400   12.5889 C   0  0  0  0  0  0  0  0  0  0  0  0
   46.9632    5.5821   13.8781 C   0  0  0  0  0  0  0  0  0  0  0  0
   51.9096   11.0446   11.9560 C   0  0  0  0  0  0  0  0  0  0  0  0
   51.8434   10.2900   14.2465 C   0  0  0  0  0  0  0  0  0  0  0  0
   44.6144    5.6758   12.3751 C   0  0  0  0  0  0  0  0  0  0  0  0
   46.2216    4.4182   13.6650 C   0  0  0  0  0  0  0  0  0  0  0  0
   52.2263   11.2375   13.2992 C   0  0  0  0  0  0  0  0  0  0  0  0
   45.0497    4.4653   12.9122 C   0  0  0  0  0  0  0  0  0  0  0  0
   50.5130    9.3756   14.3570 N   0  0  0  0  0  0  0  0  0  0  0  0
   50.3730    8.0426   13.7482 C   0  0  1  0  0  0  0  0  0  0  0  0
   49.1675    9.5861   14.4311 C   0  0  0  0  0  0  0  0  0  0  0  0
   48.8706    8.0978   14.1386 C   0  0  1  0  0  0  0  0  0  0  0  0
   51.4088   10.3233   13.7043 C   0  0  2  0  0  0  0  0  0  0  0  0
   50.8018    8.2810   11.9756 S   0  0  0  0  0  0  0  0  0  0  0  0
   51.3404   10.0454   12.1804 C   0  0  0  0  0  0  0  0  0  0  0  0
   47.8642    7.8251   13.0791 N   0  0  0  0  0  0  0  0  0  0  0  0
   52.8174   10.2278   14.2995 C   0  0  0  0  0  0  0  0  0  0  0  0
   47.6533    6.5393   12.6256 C   0  0  0  0  0  0  0  0  0  0  0  0
   48.5243   10.6019   14.5557 O   0  0  0  0  0  0  0  0  0  0  0  0
   53.7441   10.9899   14.0566 O   0  0  0  0  0  0  0  0  0  0  0  0
   48.2930    5.5846   13.0629 O   0  0  0  0  0  0  0  0  0  0  0  0
   46.5912    6.4092   11.5491 C   0  0  0  0  0  0  0  0  0  0  0  0
   53.0192    9.1899   15.1378 O   0  0  0  0  0  0  0  0  0  0  0  0
   50.2741   10.9297   11.5092 C   0  0  0  0  0  0  0  0  0  0  0  0
   52.6588   10.2191   11.4160 C   0  0  0  0  0  0  0  0  0  0  0  0
   45.4169    5.5701   11.9878 C   0  0  0  0  0  0  0  0  0  0  0  0
   45.4782    4.1713   11.9057 C   0  0  0  0  0  0  0  0  0  0  0  0
   44.2595    6.1694   12.5048 C   0  0  0  0  0  0  0  0  0  0  0  0
   44.3978    3.3878   12.3158 C   0  0  0  0  0  0  0  0  0  0  0  0
   43.1792    5.3835   12.9150 C   0  0  0  0  0  0  0  0  0  0  0  0
   43.2478    3.9936   12.8182 C   0  0  0  0  0  0  0  0  0  0  0  0
   48.1938    9.6371   12.6224 H   0  0  0  0  0  0  0  0  0  0  0  0
   46.7028    8.7431   14.1668 H   0  0  0  0  0  0  0  0  0  0  0  0
   48.2084    7.8632   14.2049 H   0  0  0  0  0  0  0  0  0  0  0  0
   48.7708    8.5850   10.5711 H   0  0  0  0  0  0  0  0  0  0  0  0
   48.1901    7.0635   11.1807 H   0  0  0  0  0  0  0  0  0  0  0  0
   50.6434    7.1888   11.3263 H   0  0  0  0  0  0  0  0  0  0  0  0
   49.9586    7.0176   12.9233 H   0  0  0  0  0  0  0  0  0  0  0  0
   50.9741    9.7672   10.5068 H   0  0  0  0  0  0  0  0  0  0  0  0
   50.8517    8.4218   14.6086 H   0  0  0  0  0  0  0  0  0  0  0  0
   45.0126    7.7807   12.1597 H   0  0  0  0  0  0  0  0  0  0  0  0
   47.8762    5.5277   14.4667 H   0  0  0  0  0  0  0  0  0  0  0  0
   52.2069   11.7836   11.2165 H   0  0  0  0  0  0  0  0  0  0  0  0
   52.0934   10.4381   15.2932 H   0  0  0  0  0  0  0  0  0  0  0  0
   43.7035    5.7144   11.7842 H   0  0  0  0  0  0  0  0  0  0  0  0
   46.5605    3.4739   14.0841 H   0  0  0  0  0  0  0  0  0  0  0  0
   52.7723   12.1249   13.6078 H   0  0  0  0  0  0  0  0  0  0  0  0
   44.4751    3.5587   12.7426 H   0  0  0  0  0  0  0  0  0  0  0  0
   50.9592    7.2743   14.2609 H   0  0  0  0  0  0  0  0  0  0  0  0
   48.6271    7.5481   15.0572 H   0  0  0  0  0  0  0  0  0  0  0  0
   51.0550   11.3360   13.9382 H   0  0  0  0  0  0  0  0  0  0  0  0
   47.2984    8.5854   12.7176 H   0  0  0  0  0  0  0  0  0  0  0  0
   47.0618    5.9659   10.6622 H   0  0  0  0  0  0  0  0  0  0  0  0
   46.2409    7.3992   11.2324 H   0  0  0  0  0  0  0  0  0  0  0  0
   53.9520    9.2843   15.4216 H   0  0  0  0  0  0  0  0  0  0  0  0
   50.2136   10.7426   10.4303 H   0  0  0  0  0  0  0  0  0  0  0  0
   49.2737   10.7745   11.9238 H   0  0  0  0  0  0  0  0  0  0  0  0
   50.5199   11.9904   11.6390 H   0  0  0  0  0  0  0  0  0  0  0  0
   53.4435    9.5449   11.7778 H   0  0  0  0  0  0  0  0  0  0  0  0
   53.0279   11.2473   11.5064 H   0  0  0  0  0  0  0  0  0  0  0  0
   52.5344   10.0208   10.3443 H   0  0  0  0  0  0  0  0  0  0  0  0
   46.3754    3.6826   11.5292 H   0  0  0  0  0  0  0  0  0  0  0  0
   44.1869    7.2515   12.5900 H   0  0  0  0  0  0  0  0  0  0  0  0
   44.4580    2.3039   12.2474 H   0  0  0  0  0  0  0  0  0  0  0  0
   42.2838    5.8565   13.3118 H   0  0  0  0  0  0  0  0  0  0  0  0
   42.4081    3.3815   13.1385 H   0  0  0  0  0  0  0  0  0  0  0  0
  2  4  1  0
  3  6  1  0
  4  1  1  0
  5  1  1  0
  6  5  1  0
  7  3  2  0
  8  3  1  0
  9  2  2  0
 10  2  1  0
 11  7  1  0
 12  8  2  0
 13  9  1  0
 14 10  2  0
 15 12  1  0
 16 14  1  0
 13 16  2  0
 11 15  2  0
 18 17  1  0
 19 17  1  0
 20 19  1  0
 21 17  1  0
 18 22  1  0
 23 21  1  0
 20 24  1  0
 21 25  1  0
 26 24  1  0
 27 19  2  0
 28 25  2  0
 29 26  2  0
 30 26  1  0
 31 25  1  0
 32 23  1  0
 33 23  1  0
 34 30  1  0
 35 34  2  0
 36 34  1  0
 37 35  1  0
 38 36  2  0
 39 38  1  0
 22 23  1  0
 18 20  1  0
 37 39  2  0
  1 40  1  0
  4 41  1  0
  4 42  1  0
  5 43  1  0
  5 44  1  0
  6 45  1  0
  6 46  1  0
  7 47  1  0
  8 48  1  0
  9 49  1  0
 10 50  1  0
 11 51  1  0
 12 52  1  0
 13 53  1  0
 14 54  1  0
 15 55  1  0
 16 56  1  0
 18 57  1  1
 20 58  1  1
 21 59  1  6
 24 60  1  0
 30 61  1  0
 30 62  1  0
 31 63  1  0
 32 64  1  0
 32 65  1  0
 32 66  1  0
 33 67  1  0
 33 68  1  0
 33 69  1  0
 35 70  1  0
 36 71  1  0
 37 72  1  0
 38 73  1  0
 39 74  1  0
M  END
> <Uni-Dock RESULT> 
ENERGY=   -5.181  LOWER_BOUND=    5.520  UPPER_BOUND=    8.550
INTER + INTRA:          -5.181
INTER:                  -5.181
INTRA:                   0.000
UNBOUND:                 0.000

$$$$

     RDKit          3D

 74 77  0  0  0  0  0  0  0  0999 V2000
   49.2033    6.2040   18.4698 N   0  0  0  0  0  0  0  0  0  0  0  0
   50.8380    4.4672   19.2129 C   0  0  0  0  0  0  0  0  0  0  0  0
   49.2774    9.0342   19.7055 C   0  0  0  0  0  0  0  0  0  0  0  0
   49.6310    5.3108   19.5493 C   0  0  0  0  0  0  0  0  0  0  0  0
   50.1867    7.2380   18.1181 C   0  0  0  0  0  0  0  0  0  0  0  0
   50.4917    8.2857   19.2051 C   0  0  0  0  0  0  0  0  0  0  0  0
   48.5480    9.8700   18.8477 C   0  0  0  0  0  0  0  0  0  0  0  0
   48.8644    8.9061   21.0391 C   0  0  0  0  0  0  0  0  0  0  0  0
   50.8328    3.6306   18.0867 C   0  0  0  0  0  0  0  0  0  0  0  0
   51.9764    4.4923   20.0322 C   0  0  0  0  0  0  0  0  0  0  0  0
   47.4228   10.5540   19.3110 C   0  0  0  0  0  0  0  0  0  0  0  0
   47.7404    9.5929   21.5009 C   0  0  0  0  0  0  0  0  0  0  0  0
   51.9448    2.8450   17.7804 C   0  0  0  0  0  0  0  0  0  0  0  0
   53.0877    3.7042   19.7258 C   0  0  0  0  0  0  0  0  0  0  0  0
   47.0190   10.4148   20.6373 C   0  0  0  0  0  0  0  0  0  0  0  0
   53.0722    2.8834   18.5995 C   0  0  0  0  0  0  0  0  0  0  0  0
   48.4956    8.1850   21.2442 N   0  0  0  0  0  0  0  0  0  0  0  0
   49.8987    8.0655   20.8150 C   0  0  1  0  0  0  0  0  0  0  0  0
   48.1544    6.9434   20.7945 C   0  0  0  0  0  0  0  0  0  0  0  0
   49.6381    6.5466   20.6210 C   0  0  1  0  0  0  0  0  0  0  0  0
   47.7669    9.3813   20.8387 C   0  0  2  0  0  0  0  0  0  0  0  0
   50.0254    9.1078   19.3050 S   0  0  0  0  0  0  0  0  0  0  0  0
   48.3091    9.8001   19.4477 C   0  0  0  0  0  0  0  0  0  0  0  0
   50.0062    5.9369   19.3162 N   0  0  0  0  0  0  0  0  0  0  0  0
   47.8798   10.4685   21.9123 C   0  0  0  0  0  0  0  0  0  0  0  0
   51.3285    5.7054   18.9979 C   0  0  0  0  0  0  0  0  0  0  0  0
   47.0789    6.4558   20.5362 O   0  0  0  0  0  0  0  0  0  0  0  0
   47.2613   11.5249   21.9210 O   0  0  0  0  0  0  0  0  0  0  0  0
   52.2419    6.0058   19.7642 O   0  0  0  0  0  0  0  0  0  0  0  0
   51.5551    5.0711   17.6376 C   0  0  0  0  0  0  0  0  0  0  0  0
   48.7625   10.2126   22.9004 O   0  0  0  0  0  0  0  0  0  0  0  0
   47.4685    9.1741   18.3203 C   0  0  0  0  0  0  0  0  0  0  0  0
   48.3968   11.3110   19.1990 C   0  0  0  0  0  0  0  0  0  0  0  0
   52.1911    3.7064   17.7299 C   0  0  0  0  0  0  0  0  0  0  0  0
   53.5814    3.5827   17.8682 C   0  0  0  0  0  0  0  0  0  0  0  0
   51.4059    2.5451   17.7034 C   0  0  0  0  0  0  0  0  0  0  0  0
   54.1766    2.3232   17.9606 C   0  0  0  0  0  0  0  0  0  0  0  0
   52.0035    1.2852   17.7962 C   0  0  0  0  0  0  0  0  0  0  0  0
   53.3883    1.1747   17.9224 C   0  0  0  0  0  0  0  0  0  0  0  0
   48.3444    6.6698   18.7669 H   0  0  0  0  0  0  0  0  0  0  0  0
   48.8051    4.6233   19.7703 H   0  0  0  0  0  0  0  0  0  0  0  0
   49.7959    5.8748   20.4735 H   0  0  0  0  0  0  0  0  0  0  0  0
   49.7988    7.7528   17.2307 H   0  0  0  0  0  0  0  0  0  0  0  0
   51.1257    6.7778   17.7899 H   0  0  0  0  0  0  0  0  0  0  0  0
   51.1983    9.0211   18.7988 H   0  0  0  0  0  0  0  0  0  0  0  0
   51.0146    7.8118   20.0448 H   0  0  0  0  0  0  0  0  0  0  0  0
   48.8519    9.9941   17.8105 H   0  0  0  0  0  0  0  0  0  0  0  0
   49.4146    8.2702   21.7299 H   0  0  0  0  0  0  0  0  0  0  0  0
   49.9587    3.6023   17.4383 H   0  0  0  0  0  0  0  0  0  0  0  0
   52.0054    5.1283   20.9140 H   0  0  0  0  0  0  0  0  0  0  0  0
   46.8601   11.1941   18.6364 H   0  0  0  0  0  0  0  0  0  0  0  0
   47.4283    9.4871   22.5359 H   0  0  0  0  0  0  0  0  0  0  0  0
   51.9319    2.2093   16.8996 H   0  0  0  0  0  0  0  0  0  0  0  0
   53.9672    3.7335   20.3646 H   0  0  0  0  0  0  0  0  0  0  0  0
   46.1433   10.9475   20.9986 H   0  0  0  0  0  0  0  0  0  0  0  0
   53.9388    2.2737   18.3586 H   0  0  0  0  0  0  0  0  0  0  0  0
   50.6111    8.3181   21.6060 H   0  0  0  0  0  0  0  0  0  0  0  0
   49.9878    5.9232   21.4542 H   0  0  0  0  0  0  0  0  0  0  0  0
   46.7008    9.1239   20.7867 H   0  0  0  0  0  0  0  0  0  0  0  0
   49.2761    5.6500   18.6731 H   0  0  0  0  0  0  0  0  0  0  0  0
   52.1926    5.7461   17.0522 H   0  0  0  0  0  0  0  0  0  0  0  0
   50.6115    5.0029   17.0827 H   0  0  0  0  0  0  0  0  0  0  0  0
   48.7028   10.9941   23.4881 H   0  0  0  0  0  0  0  0  0  0  0  0
   47.8419    9.4608   17.3299 H   0  0  0  0  0  0  0  0  0  0  0  0
   47.4549    8.0808   18.3599 H   0  0  0  0  0  0  0  0  0  0  0  0
   46.4285    9.5156   18.3840 H   0  0  0  0  0  0  0  0  0  0  0  0
   49.0624   11.8137   19.9100 H   0  0  0  0  0  0  0  0  0  0  0  0
   47.4070   11.7756   19.2755 H   0  0  0  0  0  0  0  0  0  0  0  0
   48.7740   11.5345   18.1934 H   0  0  0  0  0  0  0  0  0  0  0  0
   54.2092    4.4711   17.9144 H   0  0  0  0  0  0  0  0  0  0  0  0
   50.3242    2.6099   17.6071 H   0  0  0  0  0  0  0  0  0  0  0  0
   55.2559    2.2407   18.0681 H   0  0  0  0  0  0  0  0  0  0  0  0
   51.3874    0.3892   17.7715 H   0  0  0  0  0  0  0  0  0  0  0  0
   53.8538    0.1947   17.9962 H   0  0  0  0  0  0  0  0  0  0  0  0
  2  4  1  0
  3  6  1  0
  4  1  1  0
  5  1  1  0
  6  5  1  0
  7  3  2  0
  8  3  1  0
  9  2  2  0
 10  2  1  0
 11  7  1  0
 12  8  2  0
 13  9  1  0
 14 10  2  0
 15 12  1  0
 16 14  1  0
 13 16  2  0
 11 15  2  0
 18 17  1  0
 19 17  1  0
 20 19  1  0
 21 17  1  0
 18 22  1  0
 23 21  1  0
 20 24  1  0
 21 25  1  0
 26 24  1  0
 27 19  2  0
 28 25  2  0
 29 26  2  0
 30 26  1  0
 31 25  1  0
 32 23  1  0
 33 23  1  0
 34 30  1  0
 35 34  2  0
 36 34  1  0
 37 35  1  0
 38 36  2  0
 39 38  1  0
 22 23  1  0
 18 20  1  0
 37 39  2  0
  1 40  1  0
  4 41  1  0
  4 42  1  0
  5 43  1  0
  5 44  1  0
  6 45  1  0
  6 46  1  0
  7 47  1  0
  8 48  1  0
  9 49  1  0
 10 50  1  0
 11 51  1  0
 12 52  1  0
 13 53  1  0
 14 54  1  0
 15 55  1  0
 16 56  1  0
 18 57  1  1
 20 58  1  1
 21 59  1  6
 24 60  1  0
 30 61  1  0
 30 62  1  0
 31 63  1  0
 32 64  1  0
 32 65  1  0
 32 66  1  0
 33 67  1  0
 33 68  1  0
 33 69  1  0
 35 70  1  0
 36 71  1  0
 37 72  1  0
 38 73  1  0
 39 74  1  0
M  END
> <Uni-Dock RESULT> 
ENERGY=   -5.076  LOWER_BOUND=    2.207  UPPER_BOUND=    7.520
INTER + INTRA:          -5.076
INTER:                  -5.076
INTRA:                   0.000
UNBOUND:                 0.000

$$$$

     RDKit          3D

 74 77  0  0  0  0  0  0  0  0999 V2000
   48.7947    8.3294   20.2514 N   0  0  0  0  0  0  0  0  0  0  0  0
   49.2514    6.7473   18.3726 C   0  0  0  0  0  0  0  0  0  0  0  0
   47.9740   11.2477   19.6576 C   0  0  0  0  0  0  0  0  0  0  0  0
   49.6942    7.9610   19.1553 C   0  0  0  0  0  0  0  0  0  0  0  0
   47.4529    8.7424   19.8167 C   0  0  0  0  0  0  0  0  0  0  0  0
   47.3751   10.0349   18.9826 C   0  0  0  0  0  0  0  0  0  0  0  0
   47.4150   11.7593   20.8375 C   0  0  0  0  0  0  0  0  0  0  0  0
   49.0977   11.8822   19.1099 C   0  0  0  0  0  0  0  0  0  0  0  0
   49.0185    5.5255   19.0214 C   0  0  0  0  0  0  0  0  0  0  0  0
   49.0848    6.8177   16.9815 C   0  0  0  0  0  0  0  0  0  0  0  0
   47.9750   12.8749   21.4623 C   0  0  0  0  0  0  0  0  0  0  0  0
   49.6546   12.9991   19.7350 C   0  0  0  0  0  0  0  0  0  0  0  0
   48.6173    4.4020   18.2972 C   0  0  0  0  0  0  0  0  0  0  0  0
   48.6852    5.6922   16.2577 C   0  0  0  0  0  0  0  0  0  0  0  0
   49.0950   13.4941   20.9112 C   0  0  0  0  0  0  0  0  0  0  0  0
   48.4496    4.4865   16.9160 C   0  0  0  0  0  0  0  0  0  0  0  0
   49.8266   11.4830   19.1964 N   0  0  0  0  0  0  0  0  0  0  0  0
   48.8215   10.7737   18.3877 C   0  0  1  0  0  0  0  0  0  0  0  0
   50.4208   10.3358   19.6337 C   0  0  0  0  0  0  0  0  0  0  0  0
   49.6762    9.4905   18.5754 C   0  0  1  0  0  0  0  0  0  0  0  0
   49.3486   12.5062   20.1189 C   0  0  2  0  0  0  0  0  0  0  0  0
   47.2586   10.9043   19.3485 S   0  0  0  0  0  0  0  0  0  0  0  0
   47.9578   12.0500   20.6305 C   0  0  0  0  0  0  0  0  0  0  0  0
   48.9961    8.2660   19.0732 N   0  0  0  0  0  0  0  0  0  0  0  0
   49.3515   13.8815   19.4437 C   0  0  0  0  0  0  0  0  0  0  0  0
   48.1662    7.5385   18.2455 C   0  0  0  0  0  0  0  0  0  0  0  0
   51.1456   10.1221   20.5771 O   0  0  0  0  0  0  0  0  0  0  0  0
   49.1397   14.9486   20.0050 O   0  0  0  0  0  0  0  0  0  0  0  0
   47.9471    7.8797   17.0847 O   0  0  0  0  0  0  0  0  0  0  0  0
   47.5468    6.3090   18.8848 C   0  0  0  0  0  0  0  0  0  0  0  0
   49.5876   13.8702   18.1152 O   0  0  0  0  0  0  0  0  0  0  0  0
   48.0904   11.2474   21.9373 C   0  0  0  0  0  0  0  0  0  0  0  0
   46.9356   13.1709   20.8571 C   0  0  0  0  0  0  0  0  0  0  0  0
   47.9775    5.0262   18.2182 C   0  0  0  0  0  0  0  0  0  0  0  0
   47.3296    4.5816   17.0564 C   0  0  0  0  0  0  0  0  0  0  0  0
   49.0427    4.2728   18.7316 C   0  0  0  0  0  0  0  0  0  0  0  0
   47.7269    3.3986   16.4302 C   0  0  0  0  0  0  0  0  0  0  0  0
   49.4391    3.0891   18.1033 C   0  0  0  0  0  0  0  0  0  0  0  0
   48.7798    2.6514   16.9546 C   0  0  0  0  0  0  0  0  0  0  0  0
   49.2181    9.1076   20.7595 H   0  0  0  0  0  0  0  0  0  0  0  0
   50.6775    7.7306   19.5839 H   0  0  0  0  0  0  0  0  0  0  0  0
   49.8595    8.8146   18.4891 H   0  0  0  0  0  0  0  0  0  0  0  0
   46.8535    8.8724   20.7259 H   0  0  0  0  0  0  0  0  0  0  0  0
   46.9614    7.9310   19.2678 H   0  0  0  0  0  0  0  0  0  0  0  0
   46.3209   10.2538   18.7678 H   0  0  0  0  0  0  0  0  0  0  0  0
   47.8455    9.8774   18.0044 H   0  0  0  0  0  0  0  0  0  0  0  0
   46.5378   11.2912   21.2789 H   0  0  0  0  0  0  0  0  0  0  0  0
   49.5491   11.5121   18.1914 H   0  0  0  0  0  0  0  0  0  0  0  0
   49.1395    5.4550   20.1011 H   0  0  0  0  0  0  0  0  0  0  0  0
   49.2631    7.7512   16.4527 H   0  0  0  0  0  0  0  0  0  0  0  0
   47.5384   13.2597   22.3804 H   0  0  0  0  0  0  0  0  0  0  0  0
   50.5254   13.4838   19.3029 H   0  0  0  0  0  0  0  0  0  0  0  0
   48.4301    3.4645   18.8132 H   0  0  0  0  0  0  0  0  0  0  0  0
   48.5546    5.7575   15.1803 H   0  0  0  0  0  0  0  0  0  0  0  0
   49.5310   14.3629   21.3971 H   0  0  0  0  0  0  0  0  0  0  0  0
   48.1342    3.6120   16.3532 H   0  0  0  0  0  0  0  0  0  0  0  0
   48.7590   11.1452   17.3606 H   0  0  0  0  0  0  0  0  0  0  0  0
   50.3234    9.2556   17.7202 H   0  0  0  0  0  0  0  0  0  0  0  0
   50.0696   12.5781   20.9439 H   0  0  0  0  0  0  0  0  0  0  0  0
   49.1779    7.9400   20.0164 H   0  0  0  0  0  0  0  0  0  0  0  0
   46.4555    6.4143   18.8317 H   0  0  0  0  0  0  0  0  0  0  0  0
   47.7867    6.2690   19.9543 H   0  0  0  0  0  0  0  0  0  0  0  0
   49.5581   14.8143   17.8550 H   0  0  0  0  0  0  0  0  0  0  0  0
   47.1136   10.9167   22.3102 H   0  0  0  0  0  0  0  0  0  0  0  0
   48.7153   10.3564   21.8249 H   0  0  0  0  0  0  0  0  0  0  0  0
   48.5424   11.8659   22.7218 H   0  0  0  0  0  0  0  0  0  0  0  0
   46.7156   13.7277   19.9391 H   0  0  0  0  0  0  0  0  0  0  0  0
   47.2999   13.8836   21.6061 H   0  0  0  0  0  0  0  0  0  0  0  0
   45.9816   12.7791   21.2312 H   0  0  0  0  0  0  0  0  0  0  0  0
   46.5150    5.1620   16.6262 H   0  0  0  0  0  0  0  0  0  0  0  0
   49.5709    4.5979   19.6254 H   0  0  0  0  0  0  0  0  0  0  0  0
   47.2166    3.0648   15.5294 H   0  0  0  0  0  0  0  0  0  0  0  0
   50.2643    2.5089   18.5100 H   0  0  0  0  0  0  0  0  0  0  0  0
   49.0887    1.7313   16.4644 H   0  0  0  0  0  0  0  0  0  0  0  0
  2  4  1  0
  3  6  1  0
  4  1  1  0
  5  1  1  0
  6  5  1  0
  7  3  2  0
  8  3  1  0
  9  2  2  0
 10  2  1  0
 11  7  1  0
 12  8  2  0
 13  9  1  0
 14 10  2  0
 15 12  1  0
 16 14  1  0
 13 16  2  0
 11 15  2  0
 18 17  1  0
 19 17  1  0
 20 19  1  0
 21 17  1  0
 18 22  1  0
 23 21  1  0
 20 24  1  0
 21 25  1  0
 26 24  1  0
 27 19  2  0
 28 25  2  0
 29 26  2  0
 30 26  1  0
 31 25  1  0
 32 23  1  0
 33 23  1  0
 34 30  1  0
 35 34  2  0
 36 34  1  0
 37 35  1  0
 38 36  2  0
 39 38  1  0
 22 23  1  0
 18 20  1  0
 37 39  2  0
  1 40  1  0
  4 41  1  0
  4 42  1  0
  5 43  1  0
  5 44  1  0
  6 45  1  0
  6 46  1  0
  7 47  1  0
  8 48  1  0
  9 49  1  0
 10 50  1  0
 11 51  1  0
 12 52  1  0
 13 53  1  0
 14 54  1  0
 15 55  1  0
 16 56  1  0
 18 57  1  1
 20 58  1  1
 21 59  1  6
 24 60  1  0
 30 61  1  0
 30 62  1  0
 31 63  1  0
 32 64  1  0
 32 65  1  0
 32 66  1  0
 33 67  1  0
 33 68  1  0
 33 69  1  0
 35 70  1  0
 36 71  1  0
 37 72  1  0
 38 73  1  0
 39 74  1  0
M  END
> <Uni-Dock RESULT> 
ENERGY=   -5.048  LOWER_BOUND=    2.188  UPPER_BOUND=    7.607
INTER + INTRA:          -5.048
INTER:                  -5.048
INTRA:                   0.000
UNBOUND:                 0.000

$$$$

     RDKit          3D

 74 77  0  0  0  0  0  0  0  0999 V2000
   42.4822   12.6219   12.3388 N   0  0  0  0  0  0  0  0  0  0  0  0
   43.0448   13.1473    9.9621 C   0  0  0  0  0  0  0  0  0  0  0  0
   39.6509   13.2044   13.4283 C   0  0  0  0  0  0  0  0  0  0  0  0
   42.7250   13.6688   11.3432 C   0  0  0  0  0  0  0  0  0  0  0  0
   41.3003   11.7924   12.0649 C   0  0  0  0  0  0  0  0  0  0  0  0
   39.9382   12.5095   12.1169 C   0  0  0  0  0  0  0  0  0  0  0  0
   39.5135   12.4678   14.6135 C   0  0  0  0  0  0  0  0  0  0  0  0
   39.5135   14.5986   13.4774 C   0  0  0  0  0  0  0  0  0  0  0  0
   44.1140   12.2610    9.7636 C   0  0  0  0  0  0  0  0  0  0  0  0
   42.2896   13.5562    8.8529 C   0  0  0  0  0  0  0  0  0  0  0  0
   39.2556   13.1132   15.8241 C   0  0  0  0  0  0  0  0  0  0  0  0
   39.2532   15.2418   14.6886 C   0  0  0  0  0  0  0  0  0  0  0  0
   44.4146   11.7855    8.4864 C   0  0  0  0  0  0  0  0  0  0  0  0
   42.5927   13.0812    7.5751 C   0  0  0  0  0  0  0  0  0  0  0  0
   39.1261   14.5001   15.8614 C   0  0  0  0  0  0  0  0  0  0  0  0
   43.6528   12.1950    7.3932 C   0  0  0  0  0  0  0  0  0  0  0  0
   40.2177   15.0424   13.4048 N   0  0  0  0  0  0  0  0  0  0  0  0
   39.8676   14.2343   12.2251 C   0  0  1  0  0  0  0  0  0  0  0  0
   41.5599   14.9678   13.1740 C   0  0  0  0  0  0  0  0  0  0  0  0
   41.3320   14.4268   11.7442 C   0  0  1  0  0  0  0  0  0  0  0  0
   39.6306   14.6574   14.6829 C   0  0  2  0  0  0  0  0  0  0  0  0
   39.4012   12.5871   12.8972 S   0  0  0  0  0  0  0  0  0  0  0  0
   39.4844   13.1138   14.6751 C   0  0  0  0  0  0  0  0  0  0  0  0
   42.1078   13.2155   11.3692 N   0  0  0  0  0  0  0  0  0  0  0  0
   38.3193   15.4133   14.9209 C   0  0  0  0  0  0  0  0  0  0  0  0
   41.8521   12.5573   10.1841 C   0  0  0  0  0  0  0  0  0  0  0  0
   42.5065   15.1516   13.9029 O   0  0  0  0  0  0  0  0  0  0  0  0
   37.6751   15.4076   15.9618 O   0  0  0  0  0  0  0  0  0  0  0  0
   40.9731   12.9327    9.4106 O   0  0  0  0  0  0  0  0  0  0  0  0
   42.7256   11.3425    9.9282 C   0  0  0  0  0  0  0  0  0  0  0  0
   37.8575   16.1122   13.8630 O   0  0  0  0  0  0  0  0  0  0  0  0
   40.7239   12.4424   15.2933 C   0  0  0  0  0  0  0  0  0  0  0  0
   38.2383   12.5634   15.3801 C   0  0  0  0  0  0  0  0  0  0  0  0
   43.5935   11.4965    8.7041 C   0  0  0  0  0  0  0  0  0  0  0  0
   43.0738   11.2221    7.4305 C   0  0  0  0  0  0  0  0  0  0  0  0
   44.9198   11.9372    8.8151 C   0  0  0  0  0  0  0  0  0  0  0  0
   43.8691   11.3684    6.2924 C   0  0  0  0  0  0  0  0  0  0  0  0
   45.7143   12.0833    7.6748 C   0  0  0  0  0  0  0  0  0  0  0  0
   45.1895   11.7967    6.4145 C   0  0  0  0  0  0  0  0  0  0  0  0
   42.3511   13.0728   13.2457 H   0  0  0  0  0  0  0  0  0  0  0  0
   43.5869   14.2613   11.6748 H   0  0  0  0  0  0  0  0  0  0  0  0
   41.8848   14.3705   11.3093 H   0  0  0  0  0  0  0  0  0  0  0  0
   41.3030   10.9854   12.8075 H   0  0  0  0  0  0  0  0  0  0  0  0
   41.4029   11.2869   11.0978 H   0  0  0  0  0  0  0  0  0  0  0  0
   39.1437   11.7717   11.9441 H   0  0  0  0  0  0  0  0  0  0  0  0
   39.8593   13.2227   11.2873 H   0  0  0  0  0  0  0  0  0  0  0  0
   39.6068   11.3840   14.6020 H   0  0  0  0  0  0  0  0  0  0  0  0
   39.6080   15.1961   12.5727 H   0  0  0  0  0  0  0  0  0  0  0  0
   44.7076   11.9309   10.6144 H   0  0  0  0  0  0  0  0  0  0  0  0
   41.4582   14.2462    8.9777 H   0  0  0  0  0  0  0  0  0  0  0  0
   39.1577   12.5339   16.7387 H   0  0  0  0  0  0  0  0  0  0  0  0
   39.1484   16.3226   14.7165 H   0  0  0  0  0  0  0  0  0  0  0  0
   45.2387   11.0914    8.3478 H   0  0  0  0  0  0  0  0  0  0  0  0
   41.9990   13.4006    6.7220 H   0  0  0  0  0  0  0  0  0  0  0  0
   38.9248   15.0030   16.8036 H   0  0  0  0  0  0  0  0  0  0  0  0
   43.8856   11.8219    6.3994 H   0  0  0  0  0  0  0  0  0  0  0  0
   39.1057   14.7037   11.5958 H   0  0  0  0  0  0  0  0  0  0  0  0
   41.4550   15.2161   10.9911 H   0  0  0  0  0  0  0  0  0  0  0  0
   40.3122   14.9863   15.4785 H   0  0  0  0  0  0  0  0  0  0  0  0
   42.8599   12.8960   11.9703 H   0  0  0  0  0  0  0  0  0  0  0  0
   42.0677   10.4709    9.8176 H   0  0  0  0  0  0  0  0  0  0  0  0
   43.3529   11.1286   10.8021 H   0  0  0  0  0  0  0  0  0  0  0  0
   37.0317   16.5274   14.1876 H   0  0  0  0  0  0  0  0  0  0  0  0
   40.6348   11.3494   15.2930 H   0  0  0  0  0  0  0  0  0  0  0  0
   41.6488   12.6945   14.7660 H   0  0  0  0  0  0  0  0  0  0  0  0
   40.8479   12.7554   16.3369 H   0  0  0  0  0  0  0  0  0  0  0  0
   37.3080   12.9244   14.9270 H   0  0  0  0  0  0  0  0  0  0  0  0
   38.2324   12.8492   16.4383 H   0  0  0  0  0  0  0  0  0  0  0  0
   38.2063   11.4673   15.3485 H   0  0  0  0  0  0  0  0  0  0  0  0
   42.0397   10.9008    7.3176 H   0  0  0  0  0  0  0  0  0  0  0  0
   45.3473   12.1674    9.7887 H   0  0  0  0  0  0  0  0  0  0  0  0
   43.4541   11.1528    5.3103 H   0  0  0  0  0  0  0  0  0  0  0  0
   46.7433   12.4225    7.7701 H   0  0  0  0  0  0  0  0  0  0  0  0
   45.8067   11.9116    5.5266 H   0  0  0  0  0  0  0  0  0  0  0  0
  2  4  1  0
  3  6  1  0
  4  1  1  0
  5  1  1  0
  6  5  1  0
  7  3  2  0
  8  3  1  0
  9  2  2  0
 10  2  1  0
 11  7  1  0
 12  8  2  0
 13  9  1  0
 14 10  2  0
 15 12  1  0
 16 14  1  0
 13 16  2  0
 11 15  2  0
 18 17  1  0
 19 17  1  0
 20 19  1  0
 21 17  1  0
 18 22  1  0
 23 21  1  0
 20 24  1  0
 21 25  1  0
 26 24  1  0
 27 19  2  0
 28 25  2  0
 29 26  2  0
 30 26  1  0
 31 25  1  0
 32 23  1  0
 33 23  1  0
 34 30  1  0
 35 34  2  0
 36 34  1  0
 37 35  1  0
 38 36  2  0
 39 38  1  0
 22 23  1  0
 18 20  1  0
 37 39  2  0
  1 40  1  0
  4 41  1  0
  4 42  1  0
  5 43  1  0
  5 44  1  0
  6 45  1  0
  6 46  1  0
  7 47  1  0
  8 48  1  0
  9 49  1  0
 10 50  1  0
 11 51  1  0
 12 52  1  0
 13 53  1  0
 14 54  1  0
 15 55  1  0
 16 56  1  0
 18 57  1  1
 20 58  1  1
 21 59  1  6
 24 60  1  0
 30 61  1  0
 30 62  1  0
 31 63  1  0
 32 64  1  0
 32 65  1  0
 32 66  1  0
 33 67  1  0
 33 68  1  0
 33 69  1  0
 35 70  1  0
 36 71  1  0
 37 72  1  0
 38 73  1  0
 39 74  1  0
M  END
> <Uni-Dock RESULT> 
ENERGY=   -4.687  LOWER_BOUND=   11.027  UPPER_BOUND=   13.546
INTER + INTRA:          -4.687
INTER:                  -4.687
INTRA:                   0.000
UNBOUND:                 0.000

$$$$

     RDKit          3D

 74 77  0  0  0  0  0  0  0  0999 V2000
   48.5754    8.5093   18.0671 N   0  0  0  0  0  0  0  0  0  0  0  0
   49.1349    7.6138   20.3312 C   0  0  0  0  0  0  0  0  0  0  0  0
   50.0012    7.3968   15.5627 C   0  0  0  0  0  0  0  0  0  0  0  0
   49.5736    8.4269   19.1361 C   0  0  0  0  0  0  0  0  0  0  0  0
   48.2601    7.2198   17.4363 C   0  0  0  0  0  0  0  0  0  0  0  0
   49.4053    6.5438   16.6593 C   0  0  0  0  0  0  0  0  0  0  0  0
   49.2311    7.7790   14.4549 C   0  0  0  0  0  0  0  0  0  0  0  0
   51.3370    7.8157   15.6361 C   0  0  0  0  0  0  0  0  0  0  0  0
   47.9543    7.9341   21.0180 C   0  0  0  0  0  0  0  0  0  0  0  0
   49.9112    6.5372   20.7851 C   0  0  0  0  0  0  0  0  0  0  0  0
   49.7822    8.5730   13.4476 C   0  0  0  0  0  0  0  0  0  0  0  0
   51.8867    8.6076   14.6265 C   0  0  0  0  0  0  0  0  0  0  0  0
   47.5531    7.1880   22.1270 C   0  0  0  0  0  0  0  0  0  0  0  0
   49.5097    5.7926   21.8962 C   0  0  0  0  0  0  0  0  0  0  0  0
   51.1098    8.9875   13.5340 C   0  0  0  0  0  0  0  0  0  0  0  0
   48.3305    6.1168   22.5646 C   0  0  0  0  0  0  0  0  0  0  0  0
   51.5051    8.4203   16.1878 N   0  0  0  0  0  0  0  0  0  0  0  0
   51.0169    7.1614   16.7744 C   0  0  1  0  0  0  0  0  0  0  0  0
   50.9832    9.1949   17.1817 C   0  0  0  0  0  0  0  0  0  0  0  0
   50.7276    7.9597   18.0750 C   0  0  1  0  0  0  0  0  0  0  0  0
   51.2109    8.6662   14.7809 C   0  0  2  0  0  0  0  0  0  0  0  0
   49.5793    6.6772   15.7345 S   0  0  0  0  0  0  0  0  0  0  0  0
   49.8333    8.0214   14.4800 C   0  0  0  0  0  0  0  0  0  0  0  0
   49.3708    7.8513   18.6727 N   0  0  0  0  0  0  0  0  0  0  0  0
   52.3526    8.1547   13.8963 C   0  0  0  0  0  0  0  0  0  0  0  0
   48.9884    6.7076   19.3426 C   0  0  0  0  0  0  0  0  0  0  0  0
   50.7316   10.3764   17.2239 O   0  0  0  0  0  0  0  0  0  0  0  0
   52.4576    8.3452   12.6916 O   0  0  0  0  0  0  0  0  0  0  0  0
   49.7394    5.7404   19.4552 O   0  0  0  0  0  0  0  0  0  0  0  0
   47.5799    6.7404   19.9074 C   0  0  0  0  0  0  0  0  0  0  0  0
   53.2870    7.4171   14.5315 O   0  0  0  0  0  0  0  0  0  0  0  0
   48.6971    9.0428   14.6680 C   0  0  0  0  0  0  0  0  0  0  0  0
   49.6870    7.3910   13.0894 C   0  0  0  0  0  0  0  0  0  0  0  0
   47.5534    6.6451   21.4127 C   0  0  0  0  0  0  0  0  0  0  0  0
   47.6312    5.3944   22.0428 C   0  0  0  0  0  0  0  0  0  0  0  0
   47.4755    7.7999   22.2040 C   0  0  0  0  0  0  0  0  0  0  0  0
   47.6137    5.2987   23.4356 C   0  0  0  0  0  0  0  0  0  0  0  0
   47.4583    7.7021   23.5979 C   0  0  0  0  0  0  0  0  0  0  0  0
   47.5251    6.4519   24.2129 C   0  0  0  0  0  0  0  0  0  0  0  0
   48.9357    9.1365   17.3461 H   0  0  0  0  0  0  0  0  0  0  0  0
   49.7768    9.4446   19.4921 H   0  0  0  0  0  0  0  0  0  0  0  0
   50.5280    8.0591   18.7445 H   0  0  0  0  0  0  0  0  0  0  0  0
   47.4257    7.4015   16.7482 H   0  0  0  0  0  0  0  0  0  0  0  0
   47.8662    6.5164   18.1788 H   0  0  0  0  0  0  0  0  0  0  0  0
   49.0251    5.6214   16.2011 H   0  0  0  0  0  0  0  0  0  0  0  0
   50.1900    6.2220   17.3547 H   0  0  0  0  0  0  0  0  0  0  0  0
   48.1945    7.4604   14.3688 H   0  0  0  0  0  0  0  0  0  0  0  0
   51.9611    7.5290   16.4802 H   0  0  0  0  0  0  0  0  0  0  0  0
   47.3384    8.7643   20.6763 H   0  0  0  0  0  0  0  0  0  0  0  0
   50.8334    6.2700   20.2740 H   0  0  0  0  0  0  0  0  0  0  0  0
   49.1750    8.8697   12.5963 H   0  0  0  0  0  0  0  0  0  0  0  0
   52.9228    8.9273   14.6925 H   0  0  0  0  0  0  0  0  0  0  0  0
   46.6314    7.4400   22.6437 H   0  0  0  0  0  0  0  0  0  0  0  0
   50.1160    4.9572   22.2381 H   0  0  0  0  0  0  0  0  0  0  0  0
   51.5393    9.6052   12.7499 H   0  0  0  0  0  0  0  0  0  0  0  0
   48.0159    5.5345   23.4264 H   0  0  0  0  0  0  0  0  0  0  0  0
   51.7965    6.3987   16.8602 H   0  0  0  0  0  0  0  0  0  0  0  0
   51.5019    7.8538   18.8460 H   0  0  0  0  0  0  0  0  0  0  0  0
   51.1808    9.7532   14.6288 H   0  0  0  0  0  0  0  0  0  0  0  0
   48.7369    8.6417   18.6238 H   0  0  0  0  0  0  0  0  0  0  0  0
   47.0196    5.9060   19.4662 H   0  0  0  0  0  0  0  0  0  0  0  0
   47.0570    7.6490   19.5849 H   0  0  0  0  0  0  0  0  0  0  0  0
   53.9295    7.1822   13.8302 H   0  0  0  0  0  0  0  0  0  0  0  0
   47.7158    8.5997   14.4598 H   0  0  0  0  0  0  0  0  0  0  0  0
   48.6610    9.4538   15.6813 H   0  0  0  0  0  0  0  0  0  0  0  0
   48.8229    9.8860   13.9784 H   0  0  0  0  0  0  0  0  0  0  0  0
   50.4061    6.5815   12.9198 H   0  0  0  0  0  0  0  0  0  0  0  0
   49.8323    8.1426   12.3047 H   0  0  0  0  0  0  0  0  0  0  0  0
   48.6861    6.9676   12.9402 H   0  0  0  0  0  0  0  0  0  0  0  0
   47.7157    4.4855   21.4495 H   0  0  0  0  0  0  0  0  0  0  0  0
   47.4241    8.7843   21.7437 H   0  0  0  0  0  0  0  0  0  0  0  0
   47.6751    4.3229   23.9123 H   0  0  0  0  0  0  0  0  0  0  0  0
   47.3943    8.6027   24.2043 H   0  0  0  0  0  0  0  0  0  0  0  0
   47.5133    6.3752   25.2976 H   0  0  0  0  0  0  0  0  0  0  0  0
  2  4  1  0
  3  6  1  0
  4  1  1  0
  5  1  1  0
  6  5  1  0
  7  3  2  0
  8  3  1  0
  9  2  2  0
 10  2  1  0
 11  7  1  0
 12  8  2  0
 13  9  1  0
 14 10  2  0
 15 12  1  0
 16 14  1  0
 13 16  2  0
 11 15  2  0
 18 17  1  0
 19 17  1  0
 20 19  1  0
 21 17  1  0
 18 22  1  0
 23 21  1  0
 20 24  1  0
 21 25  1  0
 26 24  1  0
 27 19  2  0
 28 25  2  0
 29 26  2  0
 30 26  1  0
 31 25  1  0
 32 23  1  0
 33 23  1  0
 34 30  1  0
 35 34  2  0
 36 34  1  0
 37 35  1  0
 38 36  2  0
 39 38  1  0
 22 23  1  0
 18 20  1  0
 37 39  2  0
  1 40  1  0
  4 41  1  0
  4 42  1  0
  5 43  1  0
  5 44  1  0
  6 45  1  0
  6 46  1  0
  7 47  1  0
  8 48  1  0
  9 49  1  0
 10 50  1  0
 11 51  1  0
 12 52  1  0
 13 53  1  0
 14 54  1  0
 15 55  1  0
 16 56  1  0
 18 57  1  1
 20 58  1  1
 21 59  1  6
 24 60  1  0
 30 61  1  0
 30 62  1  0
 31 63  1  0
 32 64  1  0
 32 65  1  0
 32 66  1  0
 33 67  1  0
 33 68  1  0
 33 69  1  0
 35 70  1  0
 36 71  1  0
 37 72  1  0
 38 73  1  0
 39 74  1  0
M  END
> <Uni-Dock RESULT> 
ENERGY=   -4.661  LOWER_BOUND=    3.197  UPPER_BOUND=    5.077
INTER + INTRA:          -4.661
INTER:                  -4.661
INTRA:                   0.000
UNBOUND:                 0.000

$$$$

     RDKit          3D

 74 77  0  0  0  0  0  0  0  0999 V2000
   48.6090    9.5703   16.2084 N   0  0  0  0  0  0  0  0  0  0  0  0
   49.1362    9.1934   18.6211 C   0  0  0  0  0  0  0  0  0  0  0  0
   50.1410    8.0136   14.0238 C   0  0  0  0  0  0  0  0  0  0  0  0
   49.5796    9.7539   17.2903 C   0  0  0  0  0  0  0  0  0  0  0  0
   48.3560    8.1657   15.8578 C   0  0  0  0  0  0  0  0  0  0  0  0
   49.5448    7.3872   15.2638 C   0  0  0  0  0  0  0  0  0  0  0  0
   49.3893    8.1238   12.8453 C   0  0  0  0  0  0  0  0  0  0  0  0
   51.4591    8.4910   14.0336 C   0  0  0  0  0  0  0  0  0  0  0  0
   47.9268    9.6040   19.2014 C   0  0  0  0  0  0  0  0  0  0  0  0
   49.9364    8.2677   19.3072 C   0  0  0  0  0  0  0  0  0  0  0  0
   49.9403    8.7095   11.7043 C   0  0  0  0  0  0  0  0  0  0  0  0
   52.0090    9.0741   12.8908 C   0  0  0  0  0  0  0  0  0  0  0  0
   47.5210    9.0923   20.4347 C   0  0  0  0  0  0  0  0  0  0  0  0
   49.5302    7.7580   20.5423 C   0  0  0  0  0  0  0  0  0  0  0  0
   51.2499    9.1850   11.7275 C   0  0  0  0  0  0  0  0  0  0  0  0
   48.3225    8.1686   21.1037 C   0  0  0  0  0  0  0  0  0  0  0  0
   51.5910    9.2041   14.4485 N   0  0  0  0  0  0  0  0  0  0  0  0
   51.1304    8.0784   15.2778 C   0  0  1  0  0  0  0  0  0  0  0  0
   51.0154   10.1491   15.2461 C   0  0  0  0  0  0  0  0  0  0  0  0
   50.7779    9.1201   16.3747 C   0  0  1  0  0  0  0  0  0  0  0  0
   51.3275    9.1371   13.0159 C   0  0  2  0  0  0  0  0  0  0  0  0
   49.7396    7.3301   14.3352 S   0  0  0  0  0  0  0  0  0  0  0  0
   49.9817    8.3896   12.8306 C   0  0  0  0  0  0  0  0  0  0  0  0
   49.4096    9.0862   16.9549 N   0  0  0  0  0  0  0  0  0  0  0  0
   52.5101    8.4967   12.2819 C   0  0  0  0  0  0  0  0  0  0  0  0
   49.0485    8.0946   17.8434 C   0  0  0  0  0  0  0  0  0  0  0  0
   50.7222   11.3023   15.0330 O   0  0  0  0  0  0  0  0  0  0  0  0
   52.6418    8.4338   11.0665 O   0  0  0  0  0  0  0  0  0  0  0  0
   49.8289    7.2031   18.1723 O   0  0  0  0  0  0  0  0  0  0  0  0
   47.6246    8.1897   18.3605 C   0  0  0  0  0  0  0  0  0  0  0  0
   53.4515    7.9465   13.0768 O   0  0  0  0  0  0  0  0  0  0  0  0
   48.8063    9.3820   12.7764 C   0  0  0  0  0  0  0  0  0  0  0  0
   49.8958    7.4758   11.6018 C   0  0  0  0  0  0  0  0  0  0  0  0
   47.5598    8.4118   19.8511 C   0  0  0  0  0  0  0  0  0  0  0  0
   47.6632    7.3256   20.7325 C   0  0  0  0  0  0  0  0  0  0  0  0
   47.4202    9.7031   20.3792 C   0  0  0  0  0  0  0  0  0  0  0  0
   47.6105    7.5241   22.1135 C   0  0  0  0  0  0  0  0  0  0  0  0
   47.3679    9.8999   21.7618 C   0  0  0  0  0  0  0  0  0  0  0  0
   47.4607    8.8104   22.6280 C   0  0  0  0  0  0  0  0  0  0  0  0
   48.9674   10.0457   15.3786 H   0  0  0  0  0  0  0  0  0  0  0  0
   49.7377   10.8309   17.4274 H   0  0  0  0  0  0  0  0  0  0  0  0
   50.5566    9.3500   17.0040 H   0  0  0  0  0  0  0  0  0  0  0  0
   47.5352    8.1655   15.1305 H   0  0  0  0  0  0  0  0  0  0  0  0
   47.9661    7.6189   16.7241 H   0  0  0  0  0  0  0  0  0  0  0  0
   49.2094    6.3748   15.0031 H   0  0  0  0  0  0  0  0  0  0  0  0
   50.3206    7.2500   16.0268 H   0  0  0  0  0  0  0  0  0  0  0  0
   48.3670    7.7535   12.8079 H   0  0  0  0  0  0  0  0  0  0  0  0
   52.0692    8.4129   14.9314 H   0  0  0  0  0  0  0  0  0  0  0  0
   47.2923   10.3188   18.6801 H   0  0  0  0  0  0  0  0  0  0  0  0
   50.8809    7.9358   18.8824 H   0  0  0  0  0  0  0  0  0  0  0  0
   49.3470    8.7965   10.7977 H   0  0  0  0  0  0  0  0  0  0  0  0
   53.0312    9.4412   12.9082 H   0  0  0  0  0  0  0  0  0  0  0  0
   46.5772    9.4107   20.8682 H   0  0  0  0  0  0  0  0  0  0  0  0
   50.1552    7.0377   21.0647 H   0  0  0  0  0  0  0  0  0  0  0  0
   51.6794    9.6406   10.8394 H   0  0  0  0  0  0  0  0  0  0  0  0
   48.0044    7.7683   22.0627 H   0  0  0  0  0  0  0  0  0  0  0  0
   51.9331    7.3821   15.5381 H   0  0  0  0  0  0  0  0  0  0  0  0
   51.5338    9.2092   17.1658 H   0  0  0  0  0  0  0  0  0  0  0  0
   51.2642   10.1658   12.6373 H   0  0  0  0  0  0  0  0  0  0  0  0
   48.7505    9.8230   16.7277 H   0  0  0  0  0  0  0  0  0  0  0  0
   47.1058    7.2598   18.0943 H   0  0  0  0  0  0  0  0  0  0  0  0
   47.0798    8.9889   17.8432 H   0  0  0  0  0  0  0  0  0  0  0  0
   54.1209    7.5951   12.4537 H   0  0  0  0  0  0  0  0  0  0  0  0
   47.8470    8.8666   12.6470 H   0  0  0  0  0  0  0  0  0  0  0  0
   48.7281    9.9950   13.6792 H   0  0  0  0  0  0  0  0  0  0  0  0
   48.9220   10.0658   11.9270 H   0  0  0  0  0  0  0  0  0  0  0  0
   50.6467    6.6778   11.6211 H   0  0  0  0  0  0  0  0  0  0  0  0
   50.0368    8.0508   10.6792 H   0  0  0  0  0  0  0  0  0  0  0  0
   48.9146    6.9913   11.5255 H   0  0  0  0  0  0  0  0  0  0  0  0
   47.7953    6.3163   20.3461 H   0  0  0  0  0  0  0  0  0  0  0  0
   47.3478   10.5660   19.7206 H   0  0  0  0  0  0  0  0  0  0  0  0
   47.6922    6.6734   22.7864 H   0  0  0  0  0  0  0  0  0  0  0  0
   47.2561   10.9046   22.1631 H   0  0  0  0  0  0  0  0  0  0  0  0
   47.4216    8.9630   23.7040 H   0  0  0  0  0  0  0  0  0  0  0  0
  2  4  1  0
  3  6  1  0
  4  1  1  0
  5  1  1  0
  6  5  1  0
  7  3  2  0
  8  3  1  0
  9  2  2  0
 10  2  1  0
 11  7  1  0
 12  8  2  0
 13  9  1  0
 14 10  2  0
 15 12  1  0
 16 14  1  0
 13 16  2  0
 11 15  2  0
 18 17  1  0
 19 17  1  0
 20 19  1  0
 21 17  1  0
 18 22  1  0
 23 21  1  0
 20 24  1  0
 21 25  1  0
 26 24  1  0
 27 19  2  0
 28 25  2  0
 29 26  2  0
 30 26  1  0
 31 25  1  0
 32 23  1  0
 33 23  1  0
 34 30  1  0
 35 34  2  0
 36 34  1  0
 37 35  1  0
 38 36  2  0
 39 38  1  0
 22 23  1  0
 18 20  1  0
 37 39  2  0
  1 40  1  0
  4 41  1  0
  4 42  1  0
  5 43  1  0
  5 44  1  0
  6 45  1  0
  6 46  1  0
  7 47  1  0
  8 48  1  0
  9 49  1  0
 10 50  1  0
 11 51  1  0
 12 52  1  0
 13 53  1  0
 14 54  1  0
 15 55  1  0
 16 56  1  0
 18 57  1  1
 20 58  1  1
 21 59  1  6
 24 60  1  0
 30 61  1  0
 30 62  1  0
 31 63  1  0
 32 64  1  0
 32 65  1  0
 32 66  1  0
 33 67  1  0
 33 68  1  0
 33 69  1  0
 35 70  1  0
 36 71  1  0
 37 72  1  0
 38 73  1  0
 39 74  1  0
M  END
> <Uni-Dock RESULT> 
ENERGY=   -4.638  LOWER_BOUND=    3.617  UPPER_BOUND=    5.246
INTER + INTRA:          -4.638
INTER:                  -4.638
INTRA:                   0.000
UNBOUND:                 0.000

$$$$

     RDKit          3D

 74 77  0  0  0  0  0  0  0  0999 V2000
   48.2978    6.3515   17.4385 N   0  0  0  0  0  0  0  0  0  0  0  0
   49.8936    6.9090   15.5989 C   0  0  0  0  0  0  0  0  0  0  0  0
   49.0275    6.9886   20.3717 C   0  0  0  0  0  0  0  0  0  0  0  0
   49.5750    6.0394   16.7922 C   0  0  0  0  0  0  0  0  0  0  0  0
   48.2371    7.6926   18.0367 C   0  0  0  0  0  0  0  0  0  0  0  0
   49.1879    7.9542   19.2197 C   0  0  0  0  0  0  0  0  0  0  0  0
   47.8336    6.9417   21.1055 C   0  0  0  0  0  0  0  0  0  0  0  0
   50.0747    6.1266   20.7262 C   0  0  0  0  0  0  0  0  0  0  0  0
   49.0007    6.9961   14.5204 C   0  0  0  0  0  0  0  0  0  0  0  0
   51.0966    7.6284   15.5416 C   0  0  0  0  0  0  0  0  0  0  0  0
   47.6861    6.0437   22.1640 C   0  0  0  0  0  0  0  0  0  0  0  0
   49.9260    5.2311   21.7865 C   0  0  0  0  0  0  0  0  0  0  0  0
   49.2987    7.7932   13.4143 C   0  0  0  0  0  0  0  0  0  0  0  0
   51.3945    8.4239   14.4332 C   0  0  0  0  0  0  0  0  0  0  0  0
   48.7321    5.1882   22.5039 C   0  0  0  0  0  0  0  0  0  0  0  0
   50.4949    8.5076   13.3721 C   0  0  0  0  0  0  0  0  0  0  0  0
   50.2119    5.4811   20.2136 N   0  0  0  0  0  0  0  0  0  0  0  0
   50.4226    6.8082   19.6123 C   0  0  1  0  0  0  0  0  0  0  0  0
   49.8474    4.9011   19.0342 C   0  0  0  0  0  0  0  0  0  0  0  0
   50.3616    6.1132   18.2246 C   0  0  1  0  0  0  0  0  0  0  0  0
   49.3723    5.4067   21.4036 C   0  0  2  0  0  0  0  0  0  0  0  0
   48.9655    7.8033   20.1314 S   0  0  0  0  0  0  0  0  0  0  0  0
   48.2846    6.5033   21.2678 C   0  0  0  0  0  0  0  0  0  0  0  0
   49.4292    6.6666   17.2077 N   0  0  0  0  0  0  0  0  0  0  0  0
   50.2260    5.5196   22.6709 C   0  0  0  0  0  0  0  0  0  0  0  0
   49.7226    7.8458   16.5545 C   0  0  0  0  0  0  0  0  0  0  0  0
   49.2421    3.8814   18.7998 O   0  0  0  0  0  0  0  0  0  0  0  0
   49.8248    5.3498   23.8149 O   0  0  0  0  0  0  0  0  0  0  0  0
   50.7450    8.4843   16.7972 O   0  0  0  0  0  0  0  0  0  0  0  0
   48.6854    8.2863   15.5376 C   0  0  0  0  0  0  0  0  0  0  0  0
   51.5160    5.8594   22.4678 O   0  0  0  0  0  0  0  0  0  0  0  0
   47.0151    5.9374   20.6064 C   0  0  0  0  0  0  0  0  0  0  0  0
   47.8772    7.1969   22.5738 C   0  0  0  0  0  0  0  0  0  0  0  0
   49.2295    8.3282   14.1313 C   0  0  0  0  0  0  0  0  0  0  0  0
   49.9458    9.4480   13.6839 C   0  0  0  0  0  0  0  0  0  0  0  0
   49.0506    7.2446   13.2596 C   0  0  0  0  0  0  0  0  0  0  0  0
   50.4579    9.4913   12.3858 C   0  0  0  0  0  0  0  0  0  0  0  0
   49.5641    7.2897   11.9607 C   0  0  0  0  0  0  0  0  0  0  0  0
   50.2653    8.4136   11.5237 C   0  0  0  0  0  0  0  0  0  0  0  0
   48.1426    5.6656   18.1790 H   0  0  0  0  0  0  0  0  0  0  0  0
   49.5328    5.0023   16.4369 H   0  0  0  0  0  0  0  0  0  0  0  0
   50.3919    6.0647   17.5213 H   0  0  0  0  0  0  0  0  0  0  0  0
   47.2042    7.8402   18.3746 H   0  0  0  0  0  0  0  0  0  0  0  0
   48.3966    8.4609   17.2715 H   0  0  0  0  0  0  0  0  0  0  0  0
   49.0072    8.9679   19.6008 H   0  0  0  0  0  0  0  0  0  0  0  0
   50.2277    7.9549   18.8706 H   0  0  0  0  0  0  0  0  0  0  0  0
   47.0084    7.6057   20.8571 H   0  0  0  0  0  0  0  0  0  0  0  0
   51.0156    6.1450   20.1796 H   0  0  0  0  0  0  0  0  0  0  0  0
   48.0610    6.4472   14.5509 H   0  0  0  0  0  0  0  0  0  0  0  0
   51.8088    7.5752   16.3618 H   0  0  0  0  0  0  0  0  0  0  0  0
   46.7540    6.0102   22.7223 H   0  0  0  0  0  0  0  0  0  0  0  0
   50.7432    4.5670   22.0535 H   0  0  0  0  0  0  0  0  0  0  0  0
   48.5939    7.8601   12.5903 H   0  0  0  0  0  0  0  0  0  0  0  0
   52.3276    8.9811   14.3997 H   0  0  0  0  0  0  0  0  0  0  0  0
   48.6179    4.4892   23.3281 H   0  0  0  0  0  0  0  0  0  0  0  0
   50.7248    9.1304   12.5117 H   0  0  0  0  0  0  0  0  0  0  0  0
   51.3911    7.2464   19.8711 H   0  0  0  0  0  0  0  0  0  0  0  0
   51.3459    5.9126   17.7816 H   0  0  0  0  0  0  0  0  0  0  0  0
   48.9229    4.4054   21.4358 H   0  0  0  0  0  0  0  0  0  0  0  0
   48.5913    6.1501   16.9621 H   0  0  0  0  0  0  0  0  0  0  0  0
   48.3240    9.2799   15.8325 H   0  0  0  0  0  0  0  0  0  0  0  0
   47.8068    7.6307   15.5751 H   0  0  0  0  0  0  0  0  0  0  0  0
   51.9061    5.8811   23.3662 H   0  0  0  0  0  0  0  0  0  0  0  0
   46.2370    6.7031   20.5025 H   0  0  0  0  0  0  0  0  0  0  0  0
   47.2041    5.5271   19.6100 H   0  0  0  0  0  0  0  0  0  0  0  0
   46.5932    5.1300   21.2168 H   0  0  0  0  0  0  0  0  0  0  0  0
   48.7181    7.7096   23.0546 H   0  0  0  0  0  0  0  0  0  0  0  0
   47.4698    6.4721   23.2881 H   0  0  0  0  0  0  0  0  0  0  0  0
   47.0963    7.9489   22.4063 H   0  0  0  0  0  0  0  0  0  0  0  0
   50.1173   10.2917   14.3505 H   0  0  0  0  0  0  0  0  0  0  0  0
   48.5080    6.3584   13.5818 H   0  0  0  0  0  0  0  0  0  0  0  0
   51.0121   10.3655   12.0511 H   0  0  0  0  0  0  0  0  0  0  0  0
   49.4179    6.4462   11.2898 H   0  0  0  0  0  0  0  0  0  0  0  0
   50.6664    8.4487   10.5136 H   0  0  0  0  0  0  0  0  0  0  0  0
  2  4  1  0
  3  6  1  0
  4  1  1  0
  5  1  1  0
  6  5  1  0
  7  3  2  0
  8  3  1  0
  9  2  2  0
 10  2  1  0
 11  7  1  0
 12  8  2  0
 13  9  1  0
 14 10  2  0
 15 12  1  0
 16 14  1  0
 13 16  2  0
 11 15  2  0
 18 17  1  0
 19 17  1  0
 20 19  1  0
 21 17  1  0
 18 22  1  0
 23 21  1  0
 20 24  1  0
 21 25  1  0
 26 24  1  0
 27 19  2  0
 28 25  2  0
 29 26  2  0
 30 26  1  0
 31 25  1  0
 32 23  1  0
 33 23  1  0
 34 30  1  0
 35 34  2  0
 36 34  1  0
 37 35  1  0
 38 36  2  0
 39 38  1  0
 22 23  1  0
 18 20  1  0
 37 39  2  0
  1 40  1  0
  4 41  1  0
  4 42  1  0
  5 43  1  0
  5 44  1  0
  6 45  1  0
  6 46  1  0
  7 47  1  0
  8 48  1  0
  9 49  1  0
 10 50  1  0
 11 51  1  0
 12 52  1  0
 13 53  1  0
 14 54  1  0
 15 55  1  0
 16 56  1  0
 18 57  1  1
 20 58  1  1
 21 59  1  6
 24 60  1  0
 30 61  1  0
 30 62  1  0
 31 63  1  0
 32 64  1  0
 32 65  1  0
 32 66  1  0
 33 67  1  0
 33 68  1  0
 33 69  1  0
 35 70  1  0
 36 71  1  0
 37 72  1  0
 38 73  1  0
 39 74  1  0
M  END
> <Uni-Dock RESULT> 
ENERGY=   -4.511  LOWER_BOUND=    3.019  UPPER_BOUND=    5.390
INTER + INTRA:          -4.511
INTER:                  -4.511
INTRA:                   0.000
UNBOUND:                 0.000

$$$$
