
     RDKit          3D

 74 77  0  0  0  0  0  0  0  0999 V2000
   46.6568    6.4764   13.0389 N   0  0  0  0  0  0  0  0  0  0  0  0
   45.1095    5.1784   11.6591 C   0  0  0  0  0  0  0  0  0  0  0  0
   50.0858    8.1780   12.7418 C   0  0  0  0  0  0  0  0  0  0  0  0
   46.1309    6.2918   11.6879 C   0  0  0  0  0  0  0  0  0  0  0  0
   47.6789    7.5244   13.1126 C   0  0  0  0  0  0  0  0  0  0  0  0
   49.0545    7.0869   12.5846 C   0  0  0  0  0  0  0  0  0  0  0  0
   50.2729    9.1299   11.7301 C   0  0  0  0  0  0  0  0  0  0  0  0
   50.8499    8.2697   13.9128 C   0  0  0  0  0  0  0  0  0  0  0  0
   45.3905    3.9620   11.0202 C   0  0  0  0  0  0  0  0  0  0  0  0
   43.8652    5.3421   12.2867 C   0  0  0  0  0  0  0  0  0  0  0  0
   51.2125   10.1506   11.8828 C   0  0  0  0  0  0  0  0  0  0  0  0
   51.7900    9.2902   14.0640 C   0  0  0  0  0  0  0  0  0  0  0  0
   44.4420    2.9372   11.0006 C   0  0  0  0  0  0  0  0  0  0  0  0
   42.9184    4.3176   12.2652 C   0  0  0  0  0  0  0  0  0  0  0  0
   51.9713   10.2290   13.0493 C   0  0  0  0  0  0  0  0  0  0  0  0
   43.2068    3.1158   11.6214 C   0  0  0  0  0  0  0  0  0  0  0  0
   45.5771    5.2706   13.1671 N   0  0  0  0  0  0  0  0  0  0  0  0
   45.8775    6.6688   12.7928 C   0  0  1  0  0  0  0  0  0  0  0  0
   46.8553    5.0153   13.5796 C   0  0  0  0  0  0  0  0  0  0  0  0
   47.2413    6.5085   13.5075 C   0  0  1  0  0  0  0  0  0  0  0  0
   44.9667    4.4092   12.1518 C   0  0  2  0  0  0  0  0  0  0  0  0
   45.8352    6.6325   10.9531 S   0  0  0  0  0  0  0  0  0  0  0  0
   44.5390    5.3019   10.9692 C   0  0  0  0  0  0  0  0  0  0  0  0
   48.4719    6.8313   12.7404 N   0  0  0  0  0  0  0  0  0  0  0  0
   43.8214    3.6083   12.7588 C   0  0  0  0  0  0  0  0  0  0  0  0
   48.7813    8.1382   12.4285 C   0  0  0  0  0  0  0  0  0  0  0  0
   47.4383    3.9729   13.7763 O   0  0  0  0  0  0  0  0  0  0  0  0
   43.1896    3.8637   13.7715 O   0  0  0  0  0  0  0  0  0  0  0  0
   48.0512    9.0744   12.7483 O   0  0  0  0  0  0  0  0  0  0  0  0
   50.0825    8.3211   11.6700 C   0  0  0  0  0  0  0  0  0  0  0  0
   43.5001    2.5231   12.0211 O   0  0  0  0  0  0  0  0  0  0  0  0
   43.1691    5.9713   11.1437 C   0  0  0  0  0  0  0  0  0  0  0  0
   44.5973    4.5563    9.6335 C   0  0  0  0  0  0  0  0  0  0  0  0
   51.1687    8.9268   12.5243 C   0  0  0  0  0  0  0  0  0  0  0  0
   52.1290    8.1184   13.1469 C   0  0  0  0  0  0  0  0  0  0  0  0
   51.2135   10.3152   12.7260 C   0  0  0  0  0  0  0  0  0  0  0  0
   53.1246    8.6925   13.9419 C   0  0  0  0  0  0  0  0  0  0  0  0
   52.2103   10.8865   13.5194 C   0  0  0  0  0  0  0  0  0  0  0  0
   53.1673   10.0752   14.1248 C   0  0  0  0  0  0  0  0  0  0  0  0
   47.0307    5.5913   13.3780 H   0  0  0  0  0  0  0  0  0  0  0  0
   46.9353    6.0607   10.9804 H   0  0  0  0  0  0  0  0  0  0  0  0
   45.6497    7.2124   11.3346 H   0  0  0  0  0  0  0  0  0  0  0  0
   47.3322    8.4309   12.6003 H   0  0  0  0  0  0  0  0  0  0  0  0
   47.7782    7.8016   14.1696 H   0  0  0  0  0  0  0  0  0  0  0  0
   48.9972    6.8059   11.5259 H   0  0  0  0  0  0  0  0  0  0  0  0
   49.3935    6.1882   13.1163 H   0  0  0  0  0  0  0  0  0  0  0  0
   49.6856    9.0835   10.8165 H   0  0  0  0  0  0  0  0  0  0  0  0
   50.7168    7.5475   14.7156 H   0  0  0  0  0  0  0  0  0  0  0  0
   46.3496    3.8042   10.5324 H   0  0  0  0  0  0  0  0  0  0  0  0
   43.6378    6.2735   12.8020 H   0  0  0  0  0  0  0  0  0  0  0  0
   51.3503   10.8853   11.0942 H   0  0  0  0  0  0  0  0  0  0  0  0
   52.3791    9.3541   14.9756 H   0  0  0  0  0  0  0  0  0  0  0  0
   44.6688    1.9985   10.5018 H   0  0  0  0  0  0  0  0  0  0  0  0
   41.9589    4.4579   12.7557 H   0  0  0  0  0  0  0  0  0  0  0  0
   52.7026   11.0236   13.1708 H   0  0  0  0  0  0  0  0  0  0  0  0
   42.4702    2.3170   11.6075 H   0  0  0  0  0  0  0  0  0  0  0  0
   45.1909    7.3842   13.2560 H   0  0  0  0  0  0  0  0  0  0  0  0
   47.2785    6.9628   14.5061 H   0  0  0  0  0  0  0  0  0  0  0  0
   45.7289    3.6825   11.8358 H   0  0  0  0  0  0  0  0  0  0  0  0
   49.1263    6.0925   12.5071 H   0  0  0  0  0  0  0  0  0  0  0  0
   50.4193    7.3637   11.2540 H   0  0  0  0  0  0  0  0  0  0  0  0
   49.8801    8.9633   10.8028 H   0  0  0  0  0  0  0  0  0  0  0  0
   42.7874    2.0862   12.5354 H   0  0  0  0  0  0  0  0  0  0  0  0
   42.3635    5.2307   11.1205 H   0  0  0  0  0  0  0  0  0  0  0  0
   42.9656    6.6855   10.3378 H   0  0  0  0  0  0  0  0  0  0  0  0
   43.0895    6.5082   12.0938 H   0  0  0  0  0  0  0  0  0  0  0  0
   43.8656    3.7410    9.6088 H   0  0  0  0  0  0  0  0  0  0  0  0
   45.5852    4.1143    9.4579 H   0  0  0  0  0  0  0  0  0  0  0  0
   44.3682    5.2181    8.7906 H   0  0  0  0  0  0  0  0  0  0  0  0
   52.1136    7.0374   13.0209 H   0  0  0  0  0  0  0  0  0  0  0  0
   50.4632   10.9594   12.2711 H   0  0  0  0  0  0  0  0  0  0  0  0
   53.8681    8.0606   14.4209 H   0  0  0  0  0  0  0  0  0  0  0  0
   52.2358   11.9645   13.6681 H   0  0  0  0  0  0  0  0  0  0  0  0
   53.9421   10.5202   14.7445 H   0  0  0  0  0  0  0  0  0  0  0  0
  2  4  1  0
  3  6  1  0
  4  1  1  0
  5  1  1  0
  6  5  1  0
  7  3  2  0
  8  3  1  0
  9  2  2  0
 10  2  1  0
 11  7  1  0
 12  8  2  0
 13  9  1  0
 14 10  2  0
 15 12  1  0
 16 14  1  0
 13 16  2  0
 11 15  2  0
 18 17  1  0
 19 17  1  0
 20 19  1  0
 21 17  1  0
 18 22  1  0
 23 21  1  0
 20 24  1  0
 21 25  1  0
 26 24  1  0
 27 19  2  0
 28 25  2  0
 29 26  2  0
 30 26  1  0
 31 25  1  0
 32 23  1  0
 33 23  1  0
 34 30  1  0
 35 34  2  0
 36 34  1  0
 37 35  1  0
 38 36  2  0
 39 38  1  0
 22 23  1  0
 18 20  1  0
 37 39  2  0
  1 40  1  0
  4 41  1  0
  4 42  1  0
  5 43  1  0
  5 44  1  0
  6 45  1  0
  6 46  1  0
  7 47  1  0
  8 48  1  0
  9 49  1  0
 10 50  1  0
 11 51  1  0
 12 52  1  0
 13 53  1  0
 14 54  1  0
 15 55  1  0
 16 56  1  0
 18 57  1  1
 20 58  1  1
 21 59  1  6
 24 60  1  0
 30 61  1  0
 30 62  1  0
 31 63  1  0
 32 64  1  0
 32 65  1  0
 32 66  1  0
 33 67  1  0
 33 68  1  0
 33 69  1  0
 35 70  1  0
 36 71  1  0
 37 72  1  0
 38 73  1  0
 39 74  1  0
M  END
> <Uni-Dock RESULT> 
ENERGY=   -6.390  LOWER_BOUND=    0.000  UPPER_BOUND=    0.000
INTER + INTRA:          -6.390
INTER:                  -6.390
INTRA:                   0.000
UNBOUND:                 0.000

$$$$

     RDKit          3D

 74 77  0  0  0  0  0  0  0  0999 V2000
   48.8990    7.3875   13.8600 N   0  0  0  0  0  0  0  0  0  0  0  0
   49.5689    9.4743   14.9462 C   0  0  0  0  0  0  0  0  0  0  0  0
   45.7117    5.6740   12.5767 C   0  0  0  0  0  0  0  0  0  0  0  0
   48.6260    8.8196   13.9633 C   0  0  0  0  0  0  0  0  0  0  0  0
   47.9860    6.6997   12.9427 C   0  0  0  0  0  0  0  0  0  0  0  0
   46.5914    6.4403   13.5347 C   0  0  0  0  0  0  0  0  0  0  0  0
   44.9193    6.3534   11.6412 C   0  0  0  0  0  0  0  0  0  0  0  0
   45.6971    4.2729   12.5919 C   0  0  0  0  0  0  0  0  0  0  0  0
   49.1027    9.9528   16.1792 C   0  0  0  0  0  0  0  0  0  0  0  0
   50.9331    9.6000   14.6429 C   0  0  0  0  0  0  0  0  0  0  0  0
   44.1205    5.6452   10.7422 C   0  0  0  0  0  0  0  0  0  0  0  0
   44.8971    3.5657   11.6931 C   0  0  0  0  0  0  0  0  0  0  0  0
   49.9812   10.5541   17.0830 C   0  0  0  0  0  0  0  0  0  0  0  0
   51.8092   10.2020   15.5466 C   0  0  0  0  0  0  0  0  0  0  0  0
   44.1090    4.2518   10.7699 C   0  0  0  0  0  0  0  0  0  0  0  0
   51.3328   10.6796   16.7659 C   0  0  0  0  0  0  0  0  0  0  0  0
   49.9842    7.9483   14.9297 N   0  0  0  0  0  0  0  0  0  0  0  0
   49.3996    7.9972   13.5728 C   0  0  1  0  0  0  0  0  0  0  0  0
   49.1622    6.9362   15.3411 C   0  0  0  0  0  0  0  0  0  0  0  0
   48.6605    6.6780   13.9039 C   0  0  1  0  0  0  0  0  0  0  0  0
   50.0266    9.1940   15.6989 C   0  0  2  0  0  0  0  0  0  0  0  0
   48.4442    9.5704   13.5803 S   0  0  0  0  0  0  0  0  0  0  0  0
   49.6615   10.3508   14.7466 C   0  0  0  0  0  0  0  0  0  0  0  0
   47.1867    6.6403   13.7208 N   0  0  0  0  0  0  0  0  0  0  0  0
   51.3874    9.3566   16.3649 C   0  0  0  0  0  0  0  0  0  0  0  0
   46.6370    6.6388   12.4564 C   0  0  0  0  0  0  0  0  0  0  0  0
   48.8788    6.5370   16.4480 O   0  0  0  0  0  0  0  0  0  0  0  0
   52.4390    8.8237   16.0487 O   0  0  0  0  0  0  0  0  0  0  0  0
   47.3325    6.6903   11.4437 O   0  0  0  0  0  0  0  0  0  0  0  0
   45.1219    6.5667   12.4206 C   0  0  0  0  0  0  0  0  0  0  0  0
   51.3591   10.2308   17.3945 O   0  0  0  0  0  0  0  0  0  0  0  0
   50.8385   10.8870   13.9206 C   0  0  0  0  0  0  0  0  0  0  0  0
   48.9608   11.4994   15.4768 C   0  0  0  0  0  0  0  0  0  0  0  0
   44.6185    5.2210   11.9600 C   0  0  0  0  0  0  0  0  0  0  0  0
   44.2278    4.2439   12.8852 C   0  0  0  0  0  0  0  0  0  0  0  0
   44.5599    4.9229   10.5896 C   0  0  0  0  0  0  0  0  0  0  0  0
   43.7711    2.9990   12.4444 C   0  0  0  0  0  0  0  0  0  0  0  0
   44.1016    3.6789   10.1516 C   0  0  0  0  0  0  0  0  0  0  0  0
   43.7046    2.7183   11.0791 C   0  0  0  0  0  0  0  0  0  0  0  0
   48.8526    6.9686   14.7876 H   0  0  0  0  0  0  0  0  0  0  0  0
   47.5927    9.0015   14.2798 H   0  0  0  0  0  0  0  0  0  0  0  0
   48.7511    9.3051   12.9873 H   0  0  0  0  0  0  0  0  0  0  0  0
   47.9140    7.2480   11.9948 H   0  0  0  0  0  0  0  0  0  0  0  0
   48.4482    5.7364   12.6927 H   0  0  0  0  0  0  0  0  0  0  0  0
   46.0936    7.3828   13.7934 H   0  0  0  0  0  0  0  0  0  0  0  0
   46.6796    5.8791   14.4741 H   0  0  0  0  0  0  0  0  0  0  0  0
   44.9210    7.4398   11.6055 H   0  0  0  0  0  0  0  0  0  0  0  0
   46.3099    3.7231   13.3031 H   0  0  0  0  0  0  0  0  0  0  0  0
   48.0519    9.8616   16.4443 H   0  0  0  0  0  0  0  0  0  0  0  0
   51.3145    9.2181   13.6976 H   0  0  0  0  0  0  0  0  0  0  0  0
   43.5103    6.1797   10.0192 H   0  0  0  0  0  0  0  0  0  0  0  0
   44.8911    2.4786   11.7116 H   0  0  0  0  0  0  0  0  0  0  0  0
   49.6101   10.9229   18.0357 H   0  0  0  0  0  0  0  0  0  0  0  0
   52.8635   10.2924   15.2988 H   0  0  0  0  0  0  0  0  0  0  0  0
   43.4887    3.6983   10.0700 H   0  0  0  0  0  0  0  0  0  0  0  0
   52.0161   11.1456   17.4708 H   0  0  0  0  0  0  0  0  0  0  0  0
   50.1570    7.9214   12.7863 H   0  0  0  0  0  0  0  0  0  0  0  0
   49.1264    5.7838   13.4701 H   0  0  0  0  0  0  0  0  0  0  0  0
   49.2867    9.1065   16.5075 H   0  0  0  0  0  0  0  0  0  0  0  0
   46.5827    6.5419   14.5294 H   0  0  0  0  0  0  0  0  0  0  0  0
   44.7052    6.8085   13.4061 H   0  0  0  0  0  0  0  0  0  0  0  0
   44.7623    7.3563   11.7479 H   0  0  0  0  0  0  0  0  0  0  0  0
   52.2740   10.2126   17.7495 H   0  0  0  0  0  0  0  0  0  0  0  0
   51.5690   11.3933   14.5593 H   0  0  0  0  0  0  0  0  0  0  0  0
   50.5062   11.6201   13.1770 H   0  0  0  0  0  0  0  0  0  0  0  0
   51.3682   10.0899   13.3901 H   0  0  0  0  0  0  0  0  0  0  0  0
   49.6358   11.9731   16.1985 H   0  0  0  0  0  0  0  0  0  0  0  0
   48.0813   11.1514   16.0314 H   0  0  0  0  0  0  0  0  0  0  0  0
   48.6348   12.2814   14.7817 H   0  0  0  0  0  0  0  0  0  0  0  0
   44.2739    4.4394   13.9550 H   0  0  0  0  0  0  0  0  0  0  0  0
   44.8811    5.6589    9.8546 H   0  0  0  0  0  0  0  0  0  0  0  0
   43.4675    2.2455   13.1666 H   0  0  0  0  0  0  0  0  0  0  0  0
   44.0596    3.4591    9.0863 H   0  0  0  0  0  0  0  0  0  0  0  0
   43.3500    1.7488   10.7378 H   0  0  0  0  0  0  0  0  0  0  0  0
  2  4  1  0
  3  6  1  0
  4  1  1  0
  5  1  1  0
  6  5  1  0
  7  3  2  0
  8  3  1  0
  9  2  2  0
 10  2  1  0
 11  7  1  0
 12  8  2  0
 13  9  1  0
 14 10  2  0
 15 12  1  0
 16 14  1  0
 13 16  2  0
 11 15  2  0
 18 17  1  0
 19 17  1  0
 20 19  1  0
 21 17  1  0
 18 22  1  0
 23 21  1  0
 20 24  1  0
 21 25  1  0
 26 24  1  0
 27 19  2  0
 28 25  2  0
 29 26  2  0
 30 26  1  0
 31 25  1  0
 32 23  1  0
 33 23  1  0
 34 30  1  0
 35 34  2  0
 36 34  1  0
 37 35  1  0
 38 36  2  0
 39 38  1  0
 22 23  1  0
 18 20  1  0
 37 39  2  0
  1 40  1  0
  4 41  1  0
  4 42  1  0
  5 43  1  0
  5 44  1  0
  6 45  1  0
  6 46  1  0
  7 47  1  0
  8 48  1  0
  9 49  1  0
 10 50  1  0
 11 51  1  0
 12 52  1  0
 13 53  1  0
 14 54  1  0
 15 55  1  0
 16 56  1  0
 18 57  1  1
 20 58  1  1
 21 59  1  6
 24 60  1  0
 30 61  1  0
 30 62  1  0
 31 63  1  0
 32 64  1  0
 32 65  1  0
 32 66  1  0
 33 67  1  0
 33 68  1  0
 33 69  1  0
 35 70  1  0
 36 71  1  0
 37 72  1  0
 38 73  1  0
 39 74  1  0
M  END
> <Uni-Dock RESULT> 
ENERGY=   -5.551  LOWER_BOUND=    2.379  UPPER_BOUND=    7.918
INTER + INTRA:          -5.551
INTER:                  -5.551
INTRA:                   0.000
UNBOUND:                 0.000

$$$$

     RDKit          3D

 74 77  0  0  0  0  0  0  0  0999 V2000
   48.5208    9.3001   18.4604 N   0  0  0  0  0  0  0  0  0  0  0  0
   48.0778   11.1547   19.9924 C   0  0  0  0  0  0  0  0  0  0  0  0
   49.3586    5.5556   18.5981 C   0  0  0  0  0  0  0  0  0  0  0  0
   47.9249    9.6722   19.7420 C   0  0  0  0  0  0  0  0  0  0  0  0
   48.4288    7.8631   18.1868 C   0  0  0  0  0  0  0  0  0  0  0  0
   49.4513    7.0175   18.9628 C   0  0  0  0  0  0  0  0  0  0  0  0
   48.4914    4.7030   19.2951 C   0  0  0  0  0  0  0  0  0  0  0  0
   50.1177    5.0380   17.5401 C   0  0  0  0  0  0  0  0  0  0  0  0
   48.9419   11.6294   20.9898 C   0  0  0  0  0  0  0  0  0  0  0  0
   47.3644   12.0813   19.2171 C   0  0  0  0  0  0  0  0  0  0  0  0
   48.3907    3.3555   18.9460 C   0  0  0  0  0  0  0  0  0  0  0  0
   50.0169    3.6901   17.1925 C   0  0  0  0  0  0  0  0  0  0  0  0
   49.0794   13.0011   21.2129 C   0  0  0  0  0  0  0  0  0  0  0  0
   47.5022   13.4514   19.4421 C   0  0  0  0  0  0  0  0  0  0  0  0
   49.1547    2.8499   17.8957 C   0  0  0  0  0  0  0  0  0  0  0  0
   48.3589   13.9107   20.4405 C   0  0  0  0  0  0  0  0  0  0  0  0
   48.7500   10.9027   18.5831 N   0  0  0  0  0  0  0  0  0  0  0  0
   47.8206    9.7535   18.5546 C   0  0  1  0  0  0  0  0  0  0  0  0
   49.8578   10.1221   18.4022 C   0  0  0  0  0  0  0  0  0  0  0  0
   49.0028    8.8808   18.0677 C   0  0  1  0  0  0  0  0  0  0  0  0
   48.6879   11.8012   19.7383 C   0  0  2  0  0  0  0  0  0  0  0  0
   47.2770    9.6057   20.3068 S   0  0  0  0  0  0  0  0  0  0  0  0
   47.4271   11.4412   20.5503 C   0  0  0  0  0  0  0  0  0  0  0  0
   49.3158    7.6444   18.8295 N   0  0  0  0  0  0  0  0  0  0  0  0
   48.7255   13.2536   19.2795 C   0  0  0  0  0  0  0  0  0  0  0  0
   48.4763    6.5524   18.7698 C   0  0  0  0  0  0  0  0  0  0  0  0
   51.0326   10.3472   18.5867 O   0  0  0  0  0  0  0  0  0  0  0  0
   48.4441   13.6930   18.1760 O   0  0  0  0  0  0  0  0  0  0  0  0
   47.4380    6.5644   18.1112 O   0  0  0  0  0  0  0  0  0  0  0  0
   48.9369    5.3501   19.5724 C   0  0  0  0  0  0  0  0  0  0  0  0
   49.0881   14.1000   20.2682 O   0  0  0  0  0  0  0  0  0  0  0  0
   46.1368   12.0979   20.0415 C   0  0  0  0  0  0  0  0  0  0  0  0
   47.6066   11.7157   22.0456 C   0  0  0  0  0  0  0  0  0  0  0  0
   49.4343    4.2270   18.6962 C   0  0  0  0  0  0  0  0  0  0  0  0
   50.8032    4.0614   18.4467 C   0  0  0  0  0  0  0  0  0  0  0  0
   48.5216    3.3447   18.0969 C   0  0  0  0  0  0  0  0  0  0  0  0
   51.2489    3.0214   17.6267 C   0  0  0  0  0  0  0  0  0  0  0  0
   48.9697    2.3054   17.2793 C   0  0  0  0  0  0  0  0  0  0  0  0
   50.3335    2.1423   17.0467 C   0  0  0  0  0  0  0  0  0  0  0  0
   49.4933    9.6036   18.4409 H   0  0  0  0  0  0  0  0  0  0  0  0
   48.3873    9.1182   20.5667 H   0  0  0  0  0  0  0  0  0  0  0  0
   46.8554    9.4276   19.7529 H   0  0  0  0  0  0  0  0  0  0  0  0
   47.4069    7.5059   18.3671 H   0  0  0  0  0  0  0  0  0  0  0  0
   48.6034    7.7295   17.1118 H   0  0  0  0  0  0  0  0  0  0  0  0
   49.3051    7.1209   20.0450 H   0  0  0  0  0  0  0  0  0  0  0  0
   50.4684    7.3778   18.7610 H   0  0  0  0  0  0  0  0  0  0  0  0
   47.8866    5.0842   20.1140 H   0  0  0  0  0  0  0  0  0  0  0  0
   50.7915    5.6820   16.9788 H   0  0  0  0  0  0  0  0  0  0  0  0
   49.5133   10.9344   21.6006 H   0  0  0  0  0  0  0  0  0  0  0  0
   46.7028   11.7302   18.4273 H   0  0  0  0  0  0  0  0  0  0  0  0
   47.7149    2.7017   19.4906 H   0  0  0  0  0  0  0  0  0  0  0  0
   50.6096    3.2963   16.3705 H   0  0  0  0  0  0  0  0  0  0  0  0
   49.7508   13.3592   21.9890 H   0  0  0  0  0  0  0  0  0  0  0  0
   46.9438   14.1579   18.8337 H   0  0  0  0  0  0  0  0  0  0  0  0
   49.0769    1.8012   17.6214 H   0  0  0  0  0  0  0  0  0  0  0  0
   48.4682   14.9780   20.6134 H   0  0  0  0  0  0  0  0  0  0  0  0
   47.0110    9.8862   17.8302 H   0  0  0  0  0  0  0  0  0  0  0  0
   48.9937    8.6778   16.9890 H   0  0  0  0  0  0  0  0  0  0  0  0
   49.5964   11.6336   20.3344 H   0  0  0  0  0  0  0  0  0  0  0  0
   50.1898    7.5766   19.3394 H   0  0  0  0  0  0  0  0  0  0  0  0
   49.7152    5.6442   20.2872 H   0  0  0  0  0  0  0  0  0  0  0  0
   48.0912    5.0080   20.1832 H   0  0  0  0  0  0  0  0  0  0  0  0
   49.1075   14.9804   19.8348 H   0  0  0  0  0  0  0  0  0  0  0  0
   46.1582   13.1809   20.1986 H   0  0  0  0  0  0  0  0  0  0  0  0
   45.2566   11.7183   20.5726 H   0  0  0  0  0  0  0  0  0  0  0  0
   45.9806   11.9279   18.9719 H   0  0  0  0  0  0  0  0  0  0  0  0
   47.7276   12.7884   22.2341 H   0  0  0  0  0  0  0  0  0  0  0  0
   48.4931   11.2111   22.4476 H   0  0  0  0  0  0  0  0  0  0  0  0
   46.7371   11.3847   22.6247 H   0  0  0  0  0  0  0  0  0  0  0  0
   51.5352    4.7367   18.8858 H   0  0  0  0  0  0  0  0  0  0  0  0
   47.4524    3.4698   18.2582 H   0  0  0  0  0  0  0  0  0  0  0  0
   52.3121    2.8967   17.4382 H   0  0  0  0  0  0  0  0  0  0  0  0
   48.2528    1.6268   16.8206 H   0  0  0  0  0  0  0  0  0  0  0  0
   50.6819    1.3343   16.4081 H   0  0  0  0  0  0  0  0  0  0  0  0
  2  4  1  0
  3  6  1  0
  4  1  1  0
  5  1  1  0
  6  5  1  0
  7  3  2  0
  8  3  1  0
  9  2  2  0
 10  2  1  0
 11  7  1  0
 12  8  2  0
 13  9  1  0
 14 10  2  0
 15 12  1  0
 16 14  1  0
 13 16  2  0
 11 15  2  0
 18 17  1  0
 19 17  1  0
 20 19  1  0
 21 17  1  0
 18 22  1  0
 23 21  1  0
 20 24  1  0
 21 25  1  0
 26 24  1  0
 27 19  2  0
 28 25  2  0
 29 26  2  0
 30 26  1  0
 31 25  1  0
 32 23  1  0
 33 23  1  0
 34 30  1  0
 35 34  2  0
 36 34  1  0
 37 35  1  0
 38 36  2  0
 39 38  1  0
 22 23  1  0
 18 20  1  0
 37 39  2  0
  1 40  1  0
  4 41  1  0
  4 42  1  0
  5 43  1  0
  5 44  1  0
  6 45  1  0
  6 46  1  0
  7 47  1  0
  8 48  1  0
  9 49  1  0
 10 50  1  0
 11 51  1  0
 12 52  1  0
 13 53  1  0
 14 54  1  0
 15 55  1  0
 16 56  1  0
 18 57  1  1
 20 58  1  1
 21 59  1  6
 24 60  1  0
 30 61  1  0
 30 62  1  0
 31 63  1  0
 32 64  1  0
 32 65  1  0
 32 66  1  0
 33 67  1  0
 33 68  1  0
 33 69  1  0
 35 70  1  0
 36 71  1  0
 37 72  1  0
 38 73  1  0
 39 74  1  0
M  END
> <Uni-Dock RESULT> 
ENERGY=   -5.503  LOWER_BOUND=    6.694  UPPER_BOUND=    9.731
INTER + INTRA:          -5.503
INTER:                  -5.503
INTRA:                   0.000
UNBOUND:                 0.000

$$$$

     RDKit          3D

 74 77  0  0  0  0  0  0  0  0999 V2000
   49.2564    8.1745   16.4642 N   0  0  0  0  0  0  0  0  0  0  0  0
   48.4423    8.2134   14.1579 C   0  0  0  0  0  0  0  0  0  0  0  0
   48.1536    6.8961   19.9125 C   0  0  0  0  0  0  0  0  0  0  0  0
   48.5045    7.4354   15.4520 C   0  0  0  0  0  0  0  0  0  0  0  0
   49.3157    7.4755   17.7511 C   0  0  0  0  0  0  0  0  0  0  0  0
   48.0195    7.5755   18.5712 C   0  0  0  0  0  0  0  0  0  0  0  0
   47.8484    5.5353   20.0533 C   0  0  0  0  0  0  0  0  0  0  0  0
   48.6114    7.6102   21.0279 C   0  0  0  0  0  0  0  0  0  0  0  0
   47.2362    8.7753   13.7148 C   0  0  0  0  0  0  0  0  0  0  0  0
   49.5992    8.3970   13.3854 C   0  0  0  0  0  0  0  0  0  0  0  0
   47.9906    4.9016   21.2887 C   0  0  0  0  0  0  0  0  0  0  0  0
   48.7522    6.9757   22.2630 C   0  0  0  0  0  0  0  0  0  0  0  0
   47.1879    9.4952   12.5191 C   0  0  0  0  0  0  0  0  0  0  0  0
   49.5489    9.1156   12.1905 C   0  0  0  0  0  0  0  0  0  0  0  0
   48.4411    5.6228   22.3929 C   0  0  0  0  0  0  0  0  0  0  0  0
   48.3431    9.6636   11.7574 C   0  0  0  0  0  0  0  0  0  0  0  0
   49.2849    9.1188   15.1436 N   0  0  0  0  0  0  0  0  0  0  0  0
   49.5875    7.8190   15.7795 C   0  0  1  0  0  0  0  0  0  0  0  0
   48.7787    9.6607   16.2922 C   0  0  0  0  0  0  0  0  0  0  0  0
   49.2935    8.4824   17.1468 C   0  0  1  0  0  0  0  0  0  0  0  0
   48.4614    9.1098   13.9324 C   0  0  2  0  0  0  0  0  0  0  0  0
   48.3262    6.6905   15.0562 S   0  0  0  0  0  0  0  0  0  0  0  0
   48.3255    7.6469   13.4636 C   0  0  0  0  0  0  0  0  0  0  0  0
   48.2965    7.8328   18.0362 N   0  0  0  0  0  0  0  0  0  0  0  0
   49.0598   10.0357   12.8807 C   0  0  0  0  0  0  0  0  0  0  0  0
   48.5908    6.6436   18.6688 C   0  0  0  0  0  0  0  0  0  0  0  0
   48.0802   10.6318   16.4773 O   0  0  0  0  0  0  0  0  0  0  0  0
   50.2124   10.4306   12.8062 O   0  0  0  0  0  0  0  0  0  0  0  0
   49.6658    6.0690   18.5080 O   0  0  0  0  0  0  0  0  0  0  0  0
   47.4918    6.1126   19.5700 C   0  0  0  0  0  0  0  0  0  0  0  0
   48.1635   10.3938   11.9354 O   0  0  0  0  0  0  0  0  0  0  0  0
   49.4942    7.1456   12.6046 C   0  0  0  0  0  0  0  0  0  0  0  0
   46.9959    7.3916   12.7490 C   0  0  0  0  0  0  0  0  0  0  0  0
   47.8284    6.2506   21.0343 C   0  0  0  0  0  0  0  0  0  0  0  0
   47.3478    7.3325   21.7840 C   0  0  0  0  0  0  0  0  0  0  0  0
   48.6539    5.3027   21.6591 C   0  0  0  0  0  0  0  0  0  0  0  0
   47.6743    7.4518   23.1375 C   0  0  0  0  0  0  0  0  0  0  0  0
   48.9773    5.4234   23.0120 C   0  0  0  0  0  0  0  0  0  0  0  0
   48.4850    6.4964   23.7515 C   0  0  0  0  0  0  0  0  0  0  0  0
   48.8441    9.0989   16.5809 H   0  0  0  0  0  0  0  0  0  0  0  0
   47.4852    7.2246   15.7947 H   0  0  0  0  0  0  0  0  0  0  0  0
   48.9806    6.4674   15.2516 H   0  0  0  0  0  0  0  0  0  0  0  0
   49.6059    6.4277   17.6021 H   0  0  0  0  0  0  0  0  0  0  0  0
   50.1329    7.9299   18.3253 H   0  0  0  0  0  0  0  0  0  0  0  0
   47.1777    7.1257   18.0307 H   0  0  0  0  0  0  0  0  0  0  0  0
   47.7508    8.6289   18.7236 H   0  0  0  0  0  0  0  0  0  0  0  0
   47.4996    4.9592   19.2000 H   0  0  0  0  0  0  0  0  0  0  0  0
   48.8627    8.6653   20.9414 H   0  0  0  0  0  0  0  0  0  0  0  0
   46.3255    8.6557   14.2971 H   0  0  0  0  0  0  0  0  0  0  0  0
   50.5470    7.9824   13.7238 H   0  0  0  0  0  0  0  0  0  0  0  0
   47.7531    3.8460   21.3889 H   0  0  0  0  0  0  0  0  0  0  0  0
   49.1077    7.5371   23.1236 H   0  0  0  0  0  0  0  0  0  0  0  0
   46.2481    9.9259   12.1835 H   0  0  0  0  0  0  0  0  0  0  0  0
   50.4527    9.2504   11.6024 H   0  0  0  0  0  0  0  0  0  0  0  0
   48.5538    5.1311   23.3554 H   0  0  0  0  0  0  0  0  0  0  0  0
   48.3050   10.2258   10.8281 H   0  0  0  0  0  0  0  0  0  0  0  0
   50.6259    7.5085   15.6267 H   0  0  0  0  0  0  0  0  0  0  0  0
   50.1930    8.7587   17.7120 H   0  0  0  0  0  0  0  0  0  0  0  0
   47.4794    9.5263   14.1993 H   0  0  0  0  0  0  0  0  0  0  0  0
   47.4209    8.3033   18.2369 H   0  0  0  0  0  0  0  0  0  0  0  0
   46.5425    6.6171   19.3517 H   0  0  0  0  0  0  0  0  0  0  0  0
   47.3284    5.0568   19.3167 H   0  0  0  0  0  0  0  0  0  0  0  0
   48.6613   11.0079   11.3536 H   0  0  0  0  0  0  0  0  0  0  0  0
   49.5151    7.6521   11.6346 H   0  0  0  0  0  0  0  0  0  0  0  0
   49.4104    6.0724   12.3994 H   0  0  0  0  0  0  0  0  0  0  0  0
   50.4629    7.3195   13.0828 H   0  0  0  0  0  0  0  0  0  0  0  0
   46.9395    7.9601   11.8139 H   0  0  0  0  0  0  0  0  0  0  0  0
   46.1397    7.6903   13.3653 H   0  0  0  0  0  0  0  0  0  0  0  0
   46.8731    6.3341   12.4890 H   0  0  0  0  0  0  0  0  0  0  0  0
   46.7164    8.0913   21.3256 H   0  0  0  0  0  0  0  0  0  0  0  0
   49.0575    4.4675   21.0895 H   0  0  0  0  0  0  0  0  0  0  0  0
   47.2970    8.2921   23.7146 H   0  0  0  0  0  0  0  0  0  0  0  0
   49.6176    4.6818   23.4863 H   0  0  0  0  0  0  0  0  0  0  0  0
   48.7389    6.5913   24.8045 H   0  0  0  0  0  0  0  0  0  0  0  0
  2  4  1  0
  3  6  1  0
  4  1  1  0
  5  1  1  0
  6  5  1  0
  7  3  2  0
  8  3  1  0
  9  2  2  0
 10  2  1  0
 11  7  1  0
 12  8  2  0
 13  9  1  0
 14 10  2  0
 15 12  1  0
 16 14  1  0
 13 16  2  0
 11 15  2  0
 18 17  1  0
 19 17  1  0
 20 19  1  0
 21 17  1  0
 18 22  1  0
 23 21  1  0
 20 24  1  0
 21 25  1  0
 26 24  1  0
 27 19  2  0
 28 25  2  0
 29 26  2  0
 30 26  1  0
 31 25  1  0
 32 23  1  0
 33 23  1  0
 34 30  1  0
 35 34  2  0
 36 34  1  0
 37 35  1  0
 38 36  2  0
 39 38  1  0
 22 23  1  0
 18 20  1  0
 37 39  2  0
  1 40  1  0
  4 41  1  0
  4 42  1  0
  5 43  1  0
  5 44  1  0
  6 45  1  0
  6 46  1  0
  7 47  1  0
  8 48  1  0
  9 49  1  0
 10 50  1  0
 11 51  1  0
 12 52  1  0
 13 53  1  0
 14 54  1  0
 15 55  1  0
 16 56  1  0
 18 57  1  1
 20 58  1  1
 21 59  1  6
 24 60  1  0
 30 61  1  0
 30 62  1  0
 31 63  1  0
 32 64  1  0
 32 65  1  0
 32 66  1  0
 33 67  1  0
 33 68  1  0
 33 69  1  0
 35 70  1  0
 36 71  1  0
 37 72  1  0
 38 73  1  0
 39 74  1  0
M  END
> <Uni-Dock RESULT> 
ENERGY=   -5.446  LOWER_BOUND=    5.434  UPPER_BOUND=    7.766
INTER + INTRA:          -5.446
INTER:                  -5.446
INTRA:                   0.000
UNBOUND:                 0.000

$$$$

     RDKit          3D

 74 77  0  0  0  0  0  0  0  0999 V2000
   42.8257   11.2595   10.7277 N   0  0  0  0  0  0  0  0  0  0  0  0
   40.4687   11.7270   11.1849 C   0  0  0  0  0  0  0  0  0  0  0  0
   45.7469    9.2935   12.2585 C   0  0  0  0  0  0  0  0  0  0  0  0
   41.5846   10.7116   11.2714 C   0  0  0  0  0  0  0  0  0  0  0  0
   43.9492   10.3228   10.8208 C   0  0  0  0  0  0  0  0  0  0  0  0
   44.5550   10.2195   12.2297 C   0  0  0  0  0  0  0  0  0  0  0  0
   45.5763    7.9230   12.4976 C   0  0  0  0  0  0  0  0  0  0  0  0
   47.0362    9.7876   12.0190 C   0  0  0  0  0  0  0  0  0  0  0  0
   39.9530   12.3280   12.3423 C   0  0  0  0  0  0  0  0  0  0  0  0
   39.9405   12.0946    9.9380 C   0  0  0  0  0  0  0  0  0  0  0  0
   46.6754    7.0629   12.5052 C   0  0  0  0  0  0  0  0  0  0  0  0
   48.1347    8.9268   12.0278 C   0  0  0  0  0  0  0  0  0  0  0  0
   38.9236   13.2675   12.2534 C   0  0  0  0  0  0  0  0  0  0  0  0
   38.9112   13.0326    9.8511 C   0  0  0  0  0  0  0  0  0  0  0  0
   47.9541    7.5660   12.2716 C   0  0  0  0  0  0  0  0  0  0  0  0
   38.4026   13.6180   11.0089 C   0  0  0  0  0  0  0  0  0  0  0  0
   41.7303   12.4458   10.5579 N   0  0  0  0  0  0  0  0  0  0  0  0
   42.1480   11.0561   10.2758 C   0  0  1  0  0  0  0  0  0  0  0  0
   42.8647   12.7351   11.2641 C   0  0  0  0  0  0  0  0  0  0  0  0
   43.5513   11.4278   10.8131 C   0  0  1  0  0  0  0  0  0  0  0  0
   40.4234   12.6504   11.1869 C   0  0  2  0  0  0  0  0  0  0  0  0
   41.0313   10.0541   11.3420 S   0  0  0  0  0  0  0  0  0  0  0  0
   39.6699   11.3051   11.1606 C   0  0  0  0  0  0  0  0  0  0  0  0
   44.1300   10.5854   11.8914 N   0  0  0  0  0  0  0  0  0  0  0  0
   39.6762   13.7833   10.4942 C   0  0  0  0  0  0  0  0  0  0  0  0
   44.5643    9.3045   11.6238 C   0  0  0  0  0  0  0  0  0  0  0  0
   43.1164   13.6288   12.0406 O   0  0  0  0  0  0  0  0  0  0  0  0
   39.8634   14.2202    9.3700 O   0  0  0  0  0  0  0  0  0  0  0  0
   44.4716    8.8060   10.5037 O   0  0  0  0  0  0  0  0  0  0  0  0
   45.1605    8.5730   12.8118 C   0  0  0  0  0  0  0  0  0  0  0  0
   38.6849   14.2930   11.2576 O   0  0  0  0  0  0  0  0  0  0  0  0
   38.9298   11.0189    9.8471 C   0  0  0  0  0  0  0  0  0  0  0  0
   38.7164   11.1550   12.3488 C   0  0  0  0  0  0  0  0  0  0  0  0
   46.6590    8.4301   12.7093 C   0  0  0  0  0  0  0  0  0  0  0  0
   47.5136    9.3277   13.3630 C   0  0  0  0  0  0  0  0  0  0  0  0
   47.2166    7.4034   11.9312 C   0  0  0  0  0  0  0  0  0  0  0  0
   48.8996    9.1880   13.2526 C   0  0  0  0  0  0  0  0  0  0  0  0
   48.6018    7.2649   11.8240 C   0  0  0  0  0  0  0  0  0  0  0  0
   49.4429    8.1556   12.4870 C   0  0  0  0  0  0  0  0  0  0  0  0
   43.0482   12.1297   11.2087 H   0  0  0  0  0  0  0  0  0  0  0  0
   41.7134   10.4063   12.3160 H   0  0  0  0  0  0  0  0  0  0  0  0
   41.2831    9.8171   10.7122 H   0  0  0  0  0  0  0  0  0  0  0  0
   43.6525    9.3342   10.4480 H   0  0  0  0  0  0  0  0  0  0  0  0
   44.7225   10.6799   10.1292 H   0  0  0  0  0  0  0  0  0  0  0  0
   43.8114    9.8594   12.9511 H   0  0  0  0  0  0  0  0  0  0  0  0
   44.8595   11.2135   12.5824 H   0  0  0  0  0  0  0  0  0  0  0  0
   44.5845    7.5159   12.6776 H   0  0  0  0  0  0  0  0  0  0  0  0
   47.1929   10.8462   11.8226 H   0  0  0  0  0  0  0  0  0  0  0  0
   40.3486   12.0682   13.3215 H   0  0  0  0  0  0  0  0  0  0  0  0
   40.3413   11.6506    9.0287 H   0  0  0  0  0  0  0  0  0  0  0  0
   46.5342    6.0015   12.6900 H   0  0  0  0  0  0  0  0  0  0  0  0
   49.1318    9.3182   11.8415 H   0  0  0  0  0  0  0  0  0  0  0  0
   38.5298   13.7269   13.1563 H   0  0  0  0  0  0  0  0  0  0  0  0
   38.5119   13.3083    8.8788 H   0  0  0  0  0  0  0  0  0  0  0  0
   48.8112    6.8979   12.2758 H   0  0  0  0  0  0  0  0  0  0  0  0
   37.6031   14.3508   10.9405 H   0  0  0  0  0  0  0  0  0  0  0  0
   42.1074   10.8137    9.2093 H   0  0  0  0  0  0  0  0  0  0  0  0
   44.2953   11.6147   10.0280 H   0  0  0  0  0  0  0  0  0  0  0  0
   40.6038   12.9759   12.2215 H   0  0  0  0  0  0  0  0  0  0  0  0
   44.2735   10.9802   12.8144 H   0  0  0  0  0  0  0  0  0  0  0  0
   44.8928    9.0813   13.7463 H   0  0  0  0  0  0  0  0  0  0  0  0
   44.6887    7.5833   12.8701 H   0  0  0  0  0  0  0  0  0  0  0  0
   38.3176   15.0246   10.7162 H   0  0  0  0  0  0  0  0  0  0  0  0
   38.0897   11.7070    9.7109 H   0  0  0  0  0  0  0  0  0  0  0  0
   38.5140   10.0051    9.8331 H   0  0  0  0  0  0  0  0  0  0  0  0
   39.5811   11.1248    8.9742 H   0  0  0  0  0  0  0  0  0  0  0  0
   37.9094   11.8946   12.2980 H   0  0  0  0  0  0  0  0  0  0  0  0
   39.2330   11.3000   13.3049 H   0  0  0  0  0  0  0  0  0  0  0  0
   38.2442   10.1662   12.3660 H   0  0  0  0  0  0  0  0  0  0  0  0
   47.1124   10.1423   13.9631 H   0  0  0  0  0  0  0  0  0  0  0  0
   46.5709    6.7095   11.3958 H   0  0  0  0  0  0  0  0  0  0  0  0
   49.5578    9.8862   13.7635 H   0  0  0  0  0  0  0  0  0  0  0  0
   49.0230    6.4644   11.2185 H   0  0  0  0  0  0  0  0  0  0  0  0
   50.5216    8.0489   12.4014 H   0  0  0  0  0  0  0  0  0  0  0  0
  2  4  1  0
  3  6  1  0
  4  1  1  0
  5  1  1  0
  6  5  1  0
  7  3  2  0
  8  3  1  0
  9  2  2  0
 10  2  1  0
 11  7  1  0
 12  8  2  0
 13  9  1  0
 14 10  2  0
 15 12  1  0
 16 14  1  0
 13 16  2  0
 11 15  2  0
 18 17  1  0
 19 17  1  0
 20 19  1  0
 21 17  1  0
 18 22  1  0
 23 21  1  0
 20 24  1  0
 21 25  1  0
 26 24  1  0
 27 19  2  0
 28 25  2  0
 29 26  2  0
 30 26  1  0
 31 25  1  0
 32 23  1  0
 33 23  1  0
 34 30  1  0
 35 34  2  0
 36 34  1  0
 37 35  1  0
 38 36  2  0
 39 38  1  0
 22 23  1  0
 18 20  1  0
 37 39  2  0
  1 40  1  0
  4 41  1  0
  4 42  1  0
  5 43  1  0
  5 44  1  0
  6 45  1  0
  6 46  1  0
  7 47  1  0
  8 48  1  0
  9 49  1  0
 10 50  1  0
 11 51  1  0
 12 52  1  0
 13 53  1  0
 14 54  1  0
 15 55  1  0
 16 56  1  0
 18 57  1  1
 20 58  1  1
 21 59  1  6
 24 60  1  0
 30 61  1  0
 30 62  1  0
 31 63  1  0
 32 64  1  0
 32 65  1  0
 32 66  1  0
 33 67  1  0
 33 68  1  0
 33 69  1  0
 35 70  1  0
 36 71  1  0
 37 72  1  0
 38 73  1  0
 39 74  1  0
M  END
> <Uni-Dock RESULT> 
ENERGY=   -5.415  LOWER_BOUND=    5.738  UPPER_BOUND=    7.524
INTER + INTRA:          -5.415
INTER:                  -5.415
INTRA:                   0.000
UNBOUND:                 0.000

$$$$

     RDKit          3D

 74 77  0  0  0  0  0  0  0  0999 V2000
   44.3861   10.1123   11.3494 N   0  0  0  0  0  0  0  0  0  0  0  0
   45.7057   12.1232   10.9044 C   0  0  0  0  0  0  0  0  0  0  0  0
   44.8279    6.2985   11.3916 C   0  0  0  0  0  0  0  0  0  0  0  0
   45.7121   10.7171   11.4583 C   0  0  0  0  0  0  0  0  0  0  0  0
   44.3486    8.7326   11.8427 C   0  0  0  0  0  0  0  0  0  0  0  0
   44.9490    7.7086   10.8663 C   0  0  0  0  0  0  0  0  0  0  0  0
   45.8347    5.7524   12.1994 C   0  0  0  0  0  0  0  0  0  0  0  0
   43.6946    5.5273   11.1012 C   0  0  0  0  0  0  0  0  0  0  0  0
   46.3738   12.4277    9.7095 C   0  0  0  0  0  0  0  0  0  0  0  0
   45.0159   13.1452   11.5740 C   0  0  0  0  0  0  0  0  0  0  0  0
   45.7146    4.4557   12.7015 C   0  0  0  0  0  0  0  0  0  0  0  0
   43.5760    4.2304   11.6030 C   0  0  0  0  0  0  0  0  0  0  0  0
   46.3607   13.7290    9.2031 C   0  0  0  0  0  0  0  0  0  0  0  0
   45.0047   14.4451   11.0672 C   0  0  0  0  0  0  0  0  0  0  0  0
   44.5857    3.6953   12.4017 C   0  0  0  0  0  0  0  0  0  0  0  0
   45.6778   14.7367    9.8824 C   0  0  0  0  0  0  0  0  0  0  0  0
   44.2213   11.6052   10.7327 N   0  0  0  0  0  0  0  0  0  0  0  0
   44.5911   10.7375   11.8709 C   0  0  1  0  0  0  0  0  0  0  0  0
   43.8753   10.5530    9.9312 C   0  0  0  0  0  0  0  0  0  0  0  0
   43.9463    9.5554   11.1074 C   0  0  1  0  0  0  0  0  0  0  0  0
   45.2169   12.5693   10.2588 C   0  0  2  0  0  0  0  0  0  0  0  0
   46.4269   10.8616   11.9183 S   0  0  0  0  0  0  0  0  0  0  0  0
   46.3651   12.6079   11.2877 C   0  0  0  0  0  0  0  0  0  0  0  0
   44.7683    8.3379   10.8858 N   0  0  0  0  0  0  0  0  0  0  0  0
   44.5653   13.9255   10.0187 C   0  0  0  0  0  0  0  0  0  0  0  0
   45.0774    7.4998   11.9360 C   0  0  0  0  0  0  0  0  0  0  0  0
   43.7213   10.4782    8.7329 O   0  0  0  0  0  0  0  0  0  0  0  0
   43.5197   14.3426   10.4904 O   0  0  0  0  0  0  0  0  0  0  0  0
   44.7099    7.7335   13.0858 O   0  0  0  0  0  0  0  0  0  0  0  0
   45.8962    6.2798   11.5575 C   0  0  0  0  0  0  0  0  0  0  0  0
   45.3009   14.7174    9.2081 O   0  0  0  0  0  0  0  0  0  0  0  0
   46.1149   13.5387   12.4818 C   0  0  0  0  0  0  0  0  0  0  0  0
   47.7120   12.9328   10.6366 C   0  0  0  0  0  0  0  0  0  0  0  0
   45.0882    5.0063   11.5991 C   0  0  0  0  0  0  0  0  0  0  0  0
   44.5241    4.4738   10.4321 C   0  0  0  0  0  0  0  0  0  0  0  0
   44.8703    4.3505   12.8209 C   0  0  0  0  0  0  0  0  0  0  0  0
   43.7713    3.2979   10.4869 C   0  0  0  0  0  0  0  0  0  0  0  0
   44.1191    3.1748   12.8727 C   0  0  0  0  0  0  0  0  0  0  0  0
   43.5722    2.6472   11.7051 C   0  0  0  0  0  0  0  0  0  0  0  0
   44.0775   10.1510   10.3791 H   0  0  0  0  0  0  0  0  0  0  0  0
   46.4611   10.1227   10.9230 H   0  0  0  0  0  0  0  0  0  0  0  0
   46.0290   10.7598   12.5079 H   0  0  0  0  0  0  0  0  0  0  0  0
   44.8311    8.6667   12.8262 H   0  0  0  0  0  0  0  0  0  0  0  0
   43.2941    8.4817   12.0133 H   0  0  0  0  0  0  0  0  0  0  0  0
   46.0073    7.9235   10.6742 H   0  0  0  0  0  0  0  0  0  0  0  0
   44.4466    7.7773    9.8927 H   0  0  0  0  0  0  0  0  0  0  0  0
   46.7190    6.3351   12.4448 H   0  0  0  0  0  0  0  0  0  0  0  0
   42.8960    5.9325   10.4833 H   0  0  0  0  0  0  0  0  0  0  0  0
   46.9100   11.6538    9.1652 H   0  0  0  0  0  0  0  0  0  0  0  0
   44.4776   12.9221   12.4934 H   0  0  0  0  0  0  0  0  0  0  0  0
   46.4991    4.0404   13.3283 H   0  0  0  0  0  0  0  0  0  0  0  0
   42.6935    3.6384   11.3727 H   0  0  0  0  0  0  0  0  0  0  0  0
   46.8824   13.9553    8.2769 H   0  0  0  0  0  0  0  0  0  0  0  0
   44.4659   15.2268   11.5960 H   0  0  0  0  0  0  0  0  0  0  0  0
   44.4896    2.6858   12.7925 H   0  0  0  0  0  0  0  0  0  0  0  0
   45.6663   15.7486    9.4864 H   0  0  0  0  0  0  0  0  0  0  0  0
   44.0854   11.0234   12.7985 H   0  0  0  0  0  0  0  0  0  0  0  0
   42.9447    9.2849   11.4661 H   0  0  0  0  0  0  0  0  0  0  0  0
   45.5795   12.2149    9.2832 H   0  0  0  0  0  0  0  0  0  0  0  0
   45.0432    8.0824    9.9437 H   0  0  0  0  0  0  0  0  0  0  0  0
   46.3410    6.4123   10.5636 H   0  0  0  0  0  0  0  0  0  0  0  0
   46.7438    6.2135   12.2522 H   0  0  0  0  0  0  0  0  0  0  0  0
   44.7582   15.5293    9.1094 H   0  0  0  0  0  0  0  0  0  0  0  0
   46.1085   14.5874   12.1686 H   0  0  0  0  0  0  0  0  0  0  0  0
   46.9002   13.4396   13.2397 H   0  0  0  0  0  0  0  0  0  0  0  0
   45.1550   13.3389   12.9675 H   0  0  0  0  0  0  0  0  0  0  0  0
   47.7117   13.9480   10.2240 H   0  0  0  0  0  0  0  0  0  0  0  0
   47.9415   12.2457    9.8137 H   0  0  0  0  0  0  0  0  0  0  0  0
   48.5337   12.8811   11.3598 H   0  0  0  0  0  0  0  0  0  0  0  0
   44.6636    4.9657    9.4713 H   0  0  0  0  0  0  0  0  0  0  0  0
   45.2793    4.7599   13.7429 H   0  0  0  0  0  0  0  0  0  0  0  0
   43.3377    2.8883    9.5781 H   0  0  0  0  0  0  0  0  0  0  0  0
   43.9575    2.6743   13.8257 H   0  0  0  0  0  0  0  0  0  0  0  0
   42.9853    1.7328   11.7461 H   0  0  0  0  0  0  0  0  0  0  0  0
  2  4  1  0
  3  6  1  0
  4  1  1  0
  5  1  1  0
  6  5  1  0
  7  3  2  0
  8  3  1  0
  9  2  2  0
 10  2  1  0
 11  7  1  0
 12  8  2  0
 13  9  1  0
 14 10  2  0
 15 12  1  0
 16 14  1  0
 13 16  2  0
 11 15  2  0
 18 17  1  0
 19 17  1  0
 20 19  1  0
 21 17  1  0
 18 22  1  0
 23 21  1  0
 20 24  1  0
 21 25  1  0
 26 24  1  0
 27 19  2  0
 28 25  2  0
 29 26  2  0
 30 26  1  0
 31 25  1  0
 32 23  1  0
 33 23  1  0
 34 30  1  0
 35 34  2  0
 36 34  1  0
 37 35  1  0
 38 36  2  0
 39 38  1  0
 22 23  1  0
 18 20  1  0
 37 39  2  0
  1 40  1  0
  4 41  1  0
  4 42  1  0
  5 43  1  0
  5 44  1  0
  6 45  1  0
  6 46  1  0
  7 47  1  0
  8 48  1  0
  9 49  1  0
 10 50  1  0
 11 51  1  0
 12 52  1  0
 13 53  1  0
 14 54  1  0
 15 55  1  0
 16 56  1  0
 18 57  1  1
 20 58  1  1
 21 59  1  6
 24 60  1  0
 30 61  1  0
 30 62  1  0
 31 63  1  0
 32 64  1  0
 32 65  1  0
 32 66  1  0
 33 67  1  0
 33 68  1  0
 33 69  1  0
 35 70  1  0
 36 71  1  0
 37 72  1  0
 38 73  1  0
 39 74  1  0
M  END
> <Uni-Dock RESULT> 
ENERGY=   -5.374  LOWER_BOUND=    4.442  UPPER_BOUND=    8.210
INTER + INTRA:          -5.374
INTER:                  -5.374
INTRA:                   0.000
UNBOUND:                 0.000

$$$$

     RDKit          3D

 74 77  0  0  0  0  0  0  0  0999 V2000
   48.6458   11.1522   17.2432 N   0  0  0  0  0  0  0  0  0  0  0  0
   47.9859   11.0211   19.5949 C   0  0  0  0  0  0  0  0  0  0  0  0
   50.0838    8.8840   14.4992 C   0  0  0  0  0  0  0  0  0  0  0  0
   48.0624   10.2939   18.2723 C   0  0  0  0  0  0  0  0  0  0  0  0
   48.7737   10.4792   15.9475 C   0  0  0  0  0  0  0  0  0  0  0  0
   49.9570    9.5011   15.8711 C   0  0  0  0  0  0  0  0  0  0  0  0
   49.4018    7.7000   14.1869 C   0  0  0  0  0  0  0  0  0  0  0  0
   50.8627    9.5019   13.5117 C   0  0  0  0  0  0  0  0  0  0  0  0
   48.8106   10.6509   20.6670 C   0  0  0  0  0  0  0  0  0  0  0  0
   47.0942   12.0912   19.7644 C   0  0  0  0  0  0  0  0  0  0  0  0
   49.5029    7.1392   12.9129 C   0  0  0  0  0  0  0  0  0  0  0  0
   50.9639    8.9397   12.2383 C   0  0  0  0  0  0  0  0  0  0  0  0
   48.7355   11.3299   21.8850 C   0  0  0  0  0  0  0  0  0  0  0  0
   47.0197   12.7678   20.9823 C   0  0  0  0  0  0  0  0  0  0  0  0
   50.2851    7.7590   11.9400 C   0  0  0  0  0  0  0  0  0  0  0  0
   47.8398   12.3863   22.0424 C   0  0  0  0  0  0  0  0  0  0  0  0
   48.6187   12.0629   18.5871 N   0  0  0  0  0  0  0  0  0  0  0  0
   47.8871   11.2567   17.5871 C   0  0  1  0  0  0  0  0  0  0  0  0
   49.8276   11.8839   17.9742 C   0  0  0  0  0  0  0  0  0  0  0  0
   49.1689   11.2712   16.7194 C   0  0  1  0  0  0  0  0  0  0  0  0
   48.4700   11.6980   19.9978 C   0  0  2  0  0  0  0  0  0  0  0  0
   47.4628    9.7217   18.5097 S   0  0  0  0  0  0  0  0  0  0  0  0
   47.3262   10.6687   20.1021 C   0  0  0  0  0  0  0  0  0  0  0  0
   49.7155    9.9676   16.2623 N   0  0  0  0  0  0  0  0  0  0  0  0
   48.2493   12.9450   20.8449 C   0  0  0  0  0  0  0  0  0  0  0  0
   49.0616    9.2331   15.2959 C   0  0  0  0  0  0  0  0  0  0  0  0
   50.9584   12.0404   18.3766 O   0  0  0  0  0  0  0  0  0  0  0  0
   47.8457   14.0353   20.4730 O   0  0  0  0  0  0  0  0  0  0  0  0
   48.0034    9.6103   14.7961 O   0  0  0  0  0  0  0  0  0  0  0  0
   49.7501    7.9389   14.9049 C   0  0  0  0  0  0  0  0  0  0  0  0
   48.5192   12.7377   22.1523 O   0  0  0  0  0  0  0  0  0  0  0  0
   45.9229   11.2859   20.1722 C   0  0  0  0  0  0  0  0  0  0  0  0
   47.5334    9.6922   21.2627 C   0  0  0  0  0  0  0  0  0  0  0  0
   50.3780    8.0099   13.5349 C   0  0  0  0  0  0  0  0  0  0  0  0
   51.7415    8.2950   13.3824 C   0  0  0  0  0  0  0  0  0  0  0  0
   49.5912    7.8144   12.3890 C   0  0  0  0  0  0  0  0  0  0  0  0
   52.3079    8.3655   12.1069 C   0  0  0  0  0  0  0  0  0  0  0  0
   50.1600    7.8837   11.1158 C   0  0  0  0  0  0  0  0  0  0  0  0
   51.5189    8.1564   10.9752 C   0  0  0  0  0  0  0  0  0  0  0  0
   49.5542   11.4875   17.5603 H   0  0  0  0  0  0  0  0  0  0  0  0
   48.6488    9.3769   18.3991 H   0  0  0  0  0  0  0  0  0  0  0  0
   47.0484    9.9875   17.9864 H   0  0  0  0  0  0  0  0  0  0  0  0
   47.8333    9.9786   15.6840 H   0  0  0  0  0  0  0  0  0  0  0  0
   48.9137   11.2624   15.1918 H   0  0  0  0  0  0  0  0  0  0  0  0
   49.8503    8.6979   16.6104 H   0  0  0  0  0  0  0  0  0  0  0  0
   50.8911   10.0197   16.1231 H   0  0  0  0  0  0  0  0  0  0  0  0
   48.7850    7.2076   14.9344 H   0  0  0  0  0  0  0  0  0  0  0  0
   51.3946   10.4261   13.7277 H   0  0  0  0  0  0  0  0  0  0  0  0
   49.5167    9.8305   20.5617 H   0  0  0  0  0  0  0  0  0  0  0  0
   46.4595   12.4026   18.9368 H   0  0  0  0  0  0  0  0  0  0  0  0
   48.9697    6.2218   12.6786 H   0  0  0  0  0  0  0  0  0  0  0  0
   51.5707    9.4252   11.4779 H   0  0  0  0  0  0  0  0  0  0  0  0
   49.3781   11.0348   22.7104 H   0  0  0  0  0  0  0  0  0  0  0  0
   46.3248   13.5950   21.0995 H   0  0  0  0  0  0  0  0  0  0  0  0
   50.3643    7.3247   10.9469 H   0  0  0  0  0  0  0  0  0  0  0  0
   47.7836   12.9155   22.9899 H   0  0  0  0  0  0  0  0  0  0  0  0
   47.0315   11.7907   17.1619 H   0  0  0  0  0  0  0  0  0  0  0  0
   49.1389   11.9894   15.8899 H   0  0  0  0  0  0  0  0  0  0  0  0
   49.4223   11.2568   20.3255 H   0  0  0  0  0  0  0  0  0  0  0  0
   50.6133    9.6498   16.6106 H   0  0  0  0  0  0  0  0  0  0  0  0
   50.5054    7.6677   15.6528 H   0  0  0  0  0  0  0  0  0  0  0  0
   49.0024    7.1356   14.9378 H   0  0  0  0  0  0  0  0  0  0  0  0
   48.3743   13.6145   22.5689 H   0  0  0  0  0  0  0  0  0  0  0  0
   45.7767   11.8247   21.1136 H   0  0  0  0  0  0  0  0  0  0  0  0
   45.1433   10.5173   20.1231 H   0  0  0  0  0  0  0  0  0  0  0  0
   45.7429   11.9965   19.3599 H   0  0  0  0  0  0  0  0  0  0  0  0
   47.4887   10.2141   22.2252 H   0  0  0  0  0  0  0  0  0  0  0  0
   48.5088    9.1947   21.2056 H   0  0  0  0  0  0  0  0  0  0  0  0
   46.7589    8.9171   21.2822 H   0  0  0  0  0  0  0  0  0  0  0  0
   52.3757    8.4645   14.2505 H   0  0  0  0  0  0  0  0  0  0  0  0
   48.5253    7.6154   12.4839 H   0  0  0  0  0  0  0  0  0  0  0  0
   53.3666    8.5851   11.9947 H   0  0  0  0  0  0  0  0  0  0  0  0
   49.5403    7.7295   10.2342 H   0  0  0  0  0  0  0  0  0  0  0  0
   51.9610    8.2126    9.9834 H   0  0  0  0  0  0  0  0  0  0  0  0
  2  4  1  0
  3  6  1  0
  4  1  1  0
  5  1  1  0
  6  5  1  0
  7  3  2  0
  8  3  1  0
  9  2  2  0
 10  2  1  0
 11  7  1  0
 12  8  2  0
 13  9  1  0
 14 10  2  0
 15 12  1  0
 16 14  1  0
 13 16  2  0
 11 15  2  0
 18 17  1  0
 19 17  1  0
 20 19  1  0
 21 17  1  0
 18 22  1  0
 23 21  1  0
 20 24  1  0
 21 25  1  0
 26 24  1  0
 27 19  2  0
 28 25  2  0
 29 26  2  0
 30 26  1  0
 31 25  1  0
 32 23  1  0
 33 23  1  0
 34 30  1  0
 35 34  2  0
 36 34  1  0
 37 35  1  0
 38 36  2  0
 39 38  1  0
 22 23  1  0
 18 20  1  0
 37 39  2  0
  1 40  1  0
  4 41  1  0
  4 42  1  0
  5 43  1  0
  5 44  1  0
  6 45  1  0
  6 46  1  0
  7 47  1  0
  8 48  1  0
  9 49  1  0
 10 50  1  0
 11 51  1  0
 12 52  1  0
 13 53  1  0
 14 54  1  0
 15 55  1  0
 16 56  1  0
 18 57  1  1
 20 58  1  1
 21 59  1  6
 24 60  1  0
 30 61  1  0
 30 62  1  0
 31 63  1  0
 32 64  1  0
 32 65  1  0
 32 66  1  0
 33 67  1  0
 33 68  1  0
 33 69  1  0
 35 70  1  0
 36 71  1  0
 37 72  1  0
 38 73  1  0
 39 74  1  0
M  END
> <Uni-Dock RESULT> 
ENERGY=   -5.257  LOWER_BOUND=    5.782  UPPER_BOUND=    8.411
INTER + INTRA:          -5.257
INTER:                  -5.257
INTRA:                   0.000
UNBOUND:                 0.000

$$$$

     RDKit          3D

 74 77  0  0  0  0  0  0  0  0999 V2000
   49.0497    9.8698   19.2047 N   0  0  0  0  0  0  0  0  0  0  0  0
   48.7531   11.5493   20.9581 C   0  0  0  0  0  0  0  0  0  0  0  0
   48.6281    6.0863   18.7056 C   0  0  0  0  0  0  0  0  0  0  0  0
   48.2395   10.2617   20.3562 C   0  0  0  0  0  0  0  0  0  0  0  0
   48.6119    8.6058   18.6057 C   0  0  0  0  0  0  0  0  0  0  0  0
   49.0468    7.3615   19.3965 C   0  0  0  0  0  0  0  0  0  0  0  0
   47.3758    5.5140   18.9682 C   0  0  0  0  0  0  0  0  0  0  0  0
   49.4747    5.4733   17.7722 C   0  0  0  0  0  0  0  0  0  0  0  0
   49.3795   11.5562   22.2128 C   0  0  0  0  0  0  0  0  0  0  0  0
   48.6222   12.7593   20.2598 C   0  0  0  0  0  0  0  0  0  0  0  0
   46.9799    4.3457   18.3155 C   0  0  0  0  0  0  0  0  0  0  0  0
   49.0782    4.3043   17.1209 C   0  0  0  0  0  0  0  0  0  0  0  0
   49.8537   12.7500   22.7606 C   0  0  0  0  0  0  0  0  0  0  0  0
   49.0956   13.9514   20.8091 C   0  0  0  0  0  0  0  0  0  0  0  0
   47.8322    3.7410   17.3932 C   0  0  0  0  0  0  0  0  0  0  0  0
   49.7104   13.9463   22.0596 C   0  0  0  0  0  0  0  0  0  0  0  0
   49.7072   11.2580   19.7308 N   0  0  0  0  0  0  0  0  0  0  0  0
   48.5261   10.5256   19.2269 C   0  0  1  0  0  0  0  0  0  0  0  0
   50.5259   10.1660   19.6517 C   0  0  0  0  0  0  0  0  0  0  0  0
   49.4759    9.3610   18.8559 C   0  0  1  0  0  0  0  0  0  0  0  0
   49.5775   11.9650   21.0070 C   0  0  2  0  0  0  0  0  0  0  0  0
   47.4639   10.3572   20.7205 S   0  0  0  0  0  0  0  0  0  0  0  0
   48.0844   11.9737   21.3934 C   0  0  0  0  0  0  0  0  0  0  0  0
   49.1548    8.0073   19.3769 N   0  0  0  0  0  0  0  0  0  0  0  0
   50.1905   13.3561   20.9042 C   0  0  0  0  0  0  0  0  0  0  0  0
   48.0817    7.3001   18.8777 C   0  0  0  0  0  0  0  0  0  0  0  0
   51.6014    9.9354   20.1570 O   0  0  0  0  0  0  0  0  0  0  0  0
   50.4006   14.0036   19.8910 O   0  0  0  0  0  0  0  0  0  0  0  0
   47.3440    7.7625   18.0095 O   0  0  0  0  0  0  0  0  0  0  0  0
   47.8921    5.9206   19.4802 C   0  0  0  0  0  0  0  0  0  0  0  0
   50.4789   13.8858   22.1130 O   0  0  0  0  0  0  0  0  0  0  0  0
   47.2699   13.1037   20.7493 C   0  0  0  0  0  0  0  0  0  0  0  0
   47.8815   11.9737   22.9107 C   0  0  0  0  0  0  0  0  0  0  0  0
   48.2634    4.8159   18.5220 C   0  0  0  0  0  0  0  0  0  0  0  0
   49.5257    4.2101   18.5769 C   0  0  0  0  0  0  0  0  0  0  0  0
   47.3498    4.3978   17.5417 C   0  0  0  0  0  0  0  0  0  0  0  0
   49.8588    3.1935   17.6778 C   0  0  0  0  0  0  0  0  0  0  0  0
   47.6844    3.3807   16.6457 C   0  0  0  0  0  0  0  0  0  0  0  0
   48.9378    2.7768   16.7158 C   0  0  0  0  0  0  0  0  0  0  0  0
   50.0271    9.8095   19.4862 H   0  0  0  0  0  0  0  0  0  0  0  0
   48.2418    9.4796   21.1238 H   0  0  0  0  0  0  0  0  0  0  0  0
   47.1948   10.4120   20.0566 H   0  0  0  0  0  0  0  0  0  0  0  0
   47.5252    8.6133   18.4526 H   0  0  0  0  0  0  0  0  0  0  0  0
   49.0517    8.5575   17.6016 H   0  0  0  0  0  0  0  0  0  0  0  0
   48.6214    7.3707   20.4075 H   0  0  0  0  0  0  0  0  0  0  0  0
   50.1365    7.3613   19.5288 H   0  0  0  0  0  0  0  0  0  0  0  0
   46.6991    5.9766   19.6821 H   0  0  0  0  0  0  0  0  0  0  0  0
   50.4480    5.9032   17.5455 H   0  0  0  0  0  0  0  0  0  0  0  0
   49.5018   10.6321   22.7730 H   0  0  0  0  0  0  0  0  0  0  0  0
   48.1542   12.7688   19.2771 H   0  0  0  0  0  0  0  0  0  0  0  0
   46.0068    3.9094   18.5238 H   0  0  0  0  0  0  0  0  0  0  0  0
   49.7411    3.8347   16.3982 H   0  0  0  0  0  0  0  0  0  0  0  0
   50.3368   12.7452   23.7342 H   0  0  0  0  0  0  0  0  0  0  0  0
   48.9879   14.8812   20.2570 H   0  0  0  0  0  0  0  0  0  0  0  0
   47.5255    2.8319   16.8829 H   0  0  0  0  0  0  0  0  0  0  0  0
   50.0816   14.8745   22.4857 H   0  0  0  0  0  0  0  0  0  0  0  0
   48.0516   11.0274   18.3778 H   0  0  0  0  0  0  0  0  0  0  0  0
   49.7296    9.3138   17.7890 H   0  0  0  0  0  0  0  0  0  0  0  0
   50.1693   11.4122   21.7507 H   0  0  0  0  0  0  0  0  0  0  0  0
   49.7715    7.5702   20.0530 H   0  0  0  0  0  0  0  0  0  0  0  0
   48.4708    5.8265   20.4073 H   0  0  0  0  0  0  0  0  0  0  0  0
   46.8401    5.8248   19.7796 H   0  0  0  0  0  0  0  0  0  0  0  0
   50.8940   14.7501   21.9031 H   0  0  0  0  0  0  0  0  0  0  0  0
   47.5711   14.0795   21.1429 H   0  0  0  0  0  0  0  0  0  0  0  0
   46.1993   12.9955   20.9567 H   0  0  0  0  0  0  0  0  0  0  0  0
   47.3978   13.1380   19.6631 H   0  0  0  0  0  0  0  0  0  0  0  0
   48.2604   12.9007   23.3556 H   0  0  0  0  0  0  0  0  0  0  0  0
   48.4092   11.1412   23.3909 H   0  0  0  0  0  0  0  0  0  0  0  0
   46.8210   11.9006   23.1769 H   0  0  0  0  0  0  0  0  0  0  0  0
   50.2611    4.5208   19.3167 H   0  0  0  0  0  0  0  0  0  0  0  0
   46.3725    4.8713   17.4662 H   0  0  0  0  0  0  0  0  0  0  0  0
   50.8388    2.7259   17.7262 H   0  0  0  0  0  0  0  0  0  0  0  0
   46.9676    3.0640   15.8902 H   0  0  0  0  0  0  0  0  0  0  0  0
   49.1989    1.9864   16.0163 H   0  0  0  0  0  0  0  0  0  0  0  0
  2  4  1  0
  3  6  1  0
  4  1  1  0
  5  1  1  0
  6  5  1  0
  7  3  2  0
  8  3  1  0
  9  2  2  0
 10  2  1  0
 11  7  1  0
 12  8  2  0
 13  9  1  0
 14 10  2  0
 15 12  1  0
 16 14  1  0
 13 16  2  0
 11 15  2  0
 18 17  1  0
 19 17  1  0
 20 19  1  0
 21 17  1  0
 18 22  1  0
 23 21  1  0
 20 24  1  0
 21 25  1  0
 26 24  1  0
 27 19  2  0
 28 25  2  0
 29 26  2  0
 30 26  1  0
 31 25  1  0
 32 23  1  0
 33 23  1  0
 34 30  1  0
 35 34  2  0
 36 34  1  0
 37 35  1  0
 38 36  2  0
 39 38  1  0
 22 23  1  0
 18 20  1  0
 37 39  2  0
  1 40  1  0
  4 41  1  0
  4 42  1  0
  5 43  1  0
  5 44  1  0
  6 45  1  0
  6 46  1  0
  7 47  1  0
  8 48  1  0
  9 49  1  0
 10 50  1  0
 11 51  1  0
 12 52  1  0
 13 53  1  0
 14 54  1  0
 15 55  1  0
 16 56  1  0
 18 57  1  1
 20 58  1  1
 21 59  1  6
 24 60  1  0
 30 61  1  0
 30 62  1  0
 31 63  1  0
 32 64  1  0
 32 65  1  0
 32 66  1  0
 33 67  1  0
 33 68  1  0
 33 69  1  0
 35 70  1  0
 36 71  1  0
 37 72  1  0
 38 73  1  0
 39 74  1  0
M  END
> <Uni-Dock RESULT> 
ENERGY=   -5.004  LOWER_BOUND=    7.097  UPPER_BOUND=   10.472
INTER + INTRA:          -5.004
INTER:                  -5.004
INTRA:                   0.000
UNBOUND:                 0.000

$$$$

     RDKit          3D

 74 77  0  0  0  0  0  0  0  0999 V2000
   43.3787   13.0271    7.6674 N   0  0  0  0  0  0  0  0  0  0  0  0
   45.7254   13.1147    6.9828 C   0  0  0  0  0  0  0  0  0  0  0  0
   41.2273   11.5449   10.4810 C   0  0  0  0  0  0  0  0  0  0  0  0
   44.7590   13.0868    8.1443 C   0  0  0  0  0  0  0  0  0  0  0  0
   42.4026   12.9631    8.7589 C   0  0  0  0  0  0  0  0  0  0  0  0
   42.2894   11.5747    9.4086 C   0  0  0  0  0  0  0  0  0  0  0  0
   41.5468   11.8691   11.8067 C   0  0  0  0  0  0  0  0  0  0  0  0
   39.9026   11.2199   10.1599 C   0  0  0  0  0  0  0  0  0  0  0  0
   46.5493   12.0138    6.7072 C   0  0  0  0  0  0  0  0  0  0  0  0
   45.8017   14.2426    6.1517 C   0  0  0  0  0  0  0  0  0  0  0  0
   40.5617   11.8608   12.7952 C   0  0  0  0  0  0  0  0  0  0  0  0
   38.9184   11.2108   11.1494 C   0  0  0  0  0  0  0  0  0  0  0  0
   47.4377   12.0467    5.6303 C   0  0  0  0  0  0  0  0  0  0  0  0
   46.6906   14.2742    5.0768 C   0  0  0  0  0  0  0  0  0  0  0  0
   39.2483   11.5302   12.4658 C   0  0  0  0  0  0  0  0  0  0  0  0
   47.5089   13.1765    4.8170 C   0  0  0  0  0  0  0  0  0  0  0  0
   44.2888   13.0624    6.3233 N   0  0  0  0  0  0  0  0  0  0  0  0
   43.8859   13.6926    7.5984 C   0  0  1  0  0  0  0  0  0  0  0  0
   43.4268   12.0115    6.4704 C   0  0  0  0  0  0  0  0  0  0  0  0
   42.7105   12.6871    7.6596 C   0  0  1  0  0  0  0  0  0  0  0  0
   45.7140   12.7960    6.1151 C   0  0  2  0  0  0  0  0  0  0  0  0
   45.3436   13.4140    8.6871 S   0  0  0  0  0  0  0  0  0  0  0  0
   46.4975   13.5113    7.2344 C   0  0  0  0  0  0  0  0  0  0  0  0
   42.5605   11.8648    8.8877 N   0  0  0  0  0  0  0  0  0  0  0  0
   46.1301   13.2184    4.7115 C   0  0  0  0  0  0  0  0  0  0  0  0
   42.1401   12.4385   10.0688 C   0  0  0  0  0  0  0  0  0  0  0  0
   43.3856   10.9300    5.9285 O   0  0  0  0  0  0  0  0  0  0  0  0
   45.5656   14.0115    3.9751 O   0  0  0  0  0  0  0  0  0  0  0  0
   41.8970   13.6404   10.1588 O   0  0  0  0  0  0  0  0  0  0  0  0
   42.0022   11.4739   11.2318 C   0  0  0  0  0  0  0  0  0  0  0  0
   47.2821   12.6347    4.3149 O   0  0  0  0  0  0  0  0  0  0  0  0
   46.7914   14.9915    6.9558 C   0  0  0  0  0  0  0  0  0  0  0  0
   47.7896   12.7741    7.5954 C   0  0  0  0  0  0  0  0  0  0  0  0
   40.5616   11.1955   11.5835 C   0  0  0  0  0  0  0  0  0  0  0  0
   39.9110   10.0526   11.0996 C   0  0  0  0  0  0  0  0  0  0  0  0
   39.8454   12.0986   12.3846 C   0  0  0  0  0  0  0  0  0  0  0  0
   38.5740    9.8116   11.4270 C   0  0  0  0  0  0  0  0  0  0  0  0
   38.5101   11.8546   12.7116 C   0  0  0  0  0  0  0  0  0  0  0  0
   37.8756   10.7097   12.2350 C   0  0  0  0  0  0  0  0  0  0  0  0
   43.2715   12.2254    7.0478 H   0  0  0  0  0  0  0  0  0  0  0  0
   44.9914   12.2291    8.7855 H   0  0  0  0  0  0  0  0  0  0  0  0
   44.9172   13.9891    8.7483 H   0  0  0  0  0  0  0  0  0  0  0  0
   42.6217   13.7315    9.5112 H   0  0  0  0  0  0  0  0  0  0  0  0
   41.4282   13.2346    8.3339 H   0  0  0  0  0  0  0  0  0  0  0  0
   43.2455   11.2693    9.8509 H   0  0  0  0  0  0  0  0  0  0  0  0
   42.0560   10.8201    8.6462 H   0  0  0  0  0  0  0  0  0  0  0  0
   42.5661   12.1326   12.0776 H   0  0  0  0  0  0  0  0  0  0  0  0
   39.6285   10.9729    9.1364 H   0  0  0  0  0  0  0  0  0  0  0  0
   46.5058   11.1232    7.3298 H   0  0  0  0  0  0  0  0  0  0  0  0
   45.1567   15.0987    6.3412 H   0  0  0  0  0  0  0  0  0  0  0  0
   40.8176   12.1147   13.8203 H   0  0  0  0  0  0  0  0  0  0  0  0
   37.8929   10.9571   10.8920 H   0  0  0  0  0  0  0  0  0  0  0  0
   48.0729   11.1889    5.4255 H   0  0  0  0  0  0  0  0  0  0  0  0
   46.7389   15.1542    4.4410 H   0  0  0  0  0  0  0  0  0  0  0  0
   38.4794   11.5243   13.2337 H   0  0  0  0  0  0  0  0  0  0  0  0
   48.1990   13.2004    3.9779 H   0  0  0  0  0  0  0  0  0  0  0  0
   43.5956   14.7407    7.4755 H   0  0  0  0  0  0  0  0  0  0  0  0
   41.7438   13.1110    7.3584 H   0  0  0  0  0  0  0  0  0  0  0  0
   45.8570   11.7074    6.1737 H   0  0  0  0  0  0  0  0  0  0  0  0
   42.6983   10.8612    8.8398 H   0  0  0  0  0  0  0  0  0  0  0  0
   42.5255   10.5351   11.0127 H   0  0  0  0  0  0  0  0  0  0  0  0
   42.5256   11.9078   12.0939 H   0  0  0  0  0  0  0  0  0  0  0  0
   47.4116   12.9590    3.3977 H   0  0  0  0  0  0  0  0  0  0  0  0
   47.5007   15.1030    6.1297 H   0  0  0  0  0  0  0  0  0  0  0  0
   47.2400   15.4827    7.8267 H   0  0  0  0  0  0  0  0  0  0  0  0
   45.8888   15.5484    6.6864 H   0  0  0  0  0  0  0  0  0  0  0  0
   48.4920   12.7818    6.7543 H   0  0  0  0  0  0  0  0  0  0  0  0
   47.6004   11.7254    7.8535 H   0  0  0  0  0  0  0  0  0  0  0  0
   48.3001   13.2443    8.4435 H   0  0  0  0  0  0  0  0  0  0  0  0
   40.4347    9.3398   10.4654 H   0  0  0  0  0  0  0  0  0  0  0  0
   40.3246   13.0046   12.7514 H   0  0  0  0  0  0  0  0  0  0  0  0
   38.0749    8.9224   11.0503 H   0  0  0  0  0  0  0  0  0  0  0  0
   37.9649   12.5616   13.3343 H   0  0  0  0  0  0  0  0  0  0  0  0
   36.8351   10.5212   12.4879 H   0  0  0  0  0  0  0  0  0  0  0  0
  2  4  1  0
  3  6  1  0
  4  1  1  0
  5  1  1  0
  6  5  1  0
  7  3  2  0
  8  3  1  0
  9  2  2  0
 10  2  1  0
 11  7  1  0
 12  8  2  0
 13  9  1  0
 14 10  2  0
 15 12  1  0
 16 14  1  0
 13 16  2  0
 11 15  2  0
 18 17  1  0
 19 17  1  0
 20 19  1  0
 21 17  1  0
 18 22  1  0
 23 21  1  0
 20 24  1  0
 21 25  1  0
 26 24  1  0
 27 19  2  0
 28 25  2  0
 29 26  2  0
 30 26  1  0
 31 25  1  0
 32 23  1  0
 33 23  1  0
 34 30  1  0
 35 34  2  0
 36 34  1  0
 37 35  1  0
 38 36  2  0
 39 38  1  0
 22 23  1  0
 18 20  1  0
 37 39  2  0
  1 40  1  0
  4 41  1  0
  4 42  1  0
  5 43  1  0
  5 44  1  0
  6 45  1  0
  6 46  1  0
  7 47  1  0
  8 48  1  0
  9 49  1  0
 10 50  1  0
 11 51  1  0
 12 52  1  0
 13 53  1  0
 14 54  1  0
 15 55  1  0
 16 56  1  0
 18 57  1  1
 20 58  1  1
 21 59  1  6
 24 60  1  0
 30 61  1  0
 30 62  1  0
 31 63  1  0
 32 64  1  0
 32 65  1  0
 32 66  1  0
 33 67  1  0
 33 68  1  0
 33 69  1  0
 35 70  1  0
 36 71  1  0
 37 72  1  0
 38 73  1  0
 39 74  1  0
M  END
> <Uni-Dock RESULT> 
ENERGY=   -4.960  LOWER_BOUND=    7.782  UPPER_BOUND=   10.928
INTER + INTRA:          -4.960
INTER:                  -4.960
INTRA:                   0.000
UNBOUND:                 0.000

$$$$
