
     RDKit          3D

 74 77  0  0  0  0  0  0  0  0999 V2000
   47.6013    9.1636   12.8097 N   0  0  0  0  0  0  0  0  0  0  0  0
   48.6692   11.3598   13.0032 C   0  0  0  0  0  0  0  0  0  0  0  0
   45.3666    6.1429   12.2171 C   0  0  0  0  0  0  0  0  0  0  0  0
   47.5082   10.5757   12.4381 C   0  0  0  0  0  0  0  0  0  0  0  0
   46.4394    8.4154   12.3231 C   0  0  0  0  0  0  0  0  0  0  0  0
   46.5573    6.9336   12.7034 C   0  0  0  0  0  0  0  0  0  0  0  0
   44.2442    5.9698   13.0381 C   0  0  0  0  0  0  0  0  0  0  0  0
   45.3555    5.5995   10.9256 C   0  0  0  0  0  0  0  0  0  0  0  0
   49.9676   11.1575   12.5119 C   0  0  0  0  0  0  0  0  0  0  0  0
   48.4726   12.2942   14.0298 C   0  0  0  0  0  0  0  0  0  0  0  0
   43.1343    5.2588   12.5782 C   0  0  0  0  0  0  0  0  0  0  0  0
   44.2440    4.8896   10.4674 C   0  0  0  0  0  0  0  0  0  0  0  0
   51.0440   11.8806   13.0281 C   0  0  0  0  0  0  0  0  0  0  0  0
   49.5504   13.0171   14.5454 C   0  0  0  0  0  0  0  0  0  0  0  0
   43.1338    4.7194   11.2935 C   0  0  0  0  0  0  0  0  0  0  0  0
   50.8348   12.8106   14.0440 C   0  0  0  0  0  0  0  0  0  0  0  0
   49.1505    9.7116   14.0787 N   0  0  0  0  0  0  0  0  0  0  0  0
   48.9199    9.0756   12.7644 C   0  0  1  0  0  0  0  0  0  0  0  0
   48.2100    8.9449   14.7119 C   0  0  0  0  0  0  0  0  0  0  0  0
   48.0558    8.0156   13.4885 C   0  0  1  0  0  0  0  0  0  0  0  0
   49.0392   11.1715   14.1607 C   0  0  2  0  0  0  0  0  0  0  0  0
   48.0776   10.3914   11.7964 S   0  0  0  0  0  0  0  0  0  0  0  0
   48.9978   11.7164   12.7166 C   0  0  0  0  0  0  0  0  0  0  0  0
   46.6674    7.8042   13.0030 N   0  0  0  0  0  0  0  0  0  0  0  0
   50.1323   11.8149   15.0110 C   0  0  0  0  0  0  0  0  0  0  0  0
   46.4331    7.1709   11.8022 C   0  0  0  0  0  0  0  0  0  0  0  0
   47.6438    9.0913   15.7710 O   0  0  0  0  0  0  0  0  0  0  0  0
   50.2289   13.0085   15.2543 O   0  0  0  0  0  0  0  0  0  0  0  0
   47.3495    6.7598   11.0926 O   0  0  0  0  0  0  0  0  0  0  0  0
   44.9680    7.0199   11.4392 C   0  0  0  0  0  0  0  0  0  0  0  0
   51.0559   10.9589   15.4893 O   0  0  0  0  0  0  0  0  0  0  0  0
   50.3794   11.8797   12.0661 C   0  0  0  0  0  0  0  0  0  0  0  0
   48.2049   13.0212   12.6130 C   0  0  0  0  0  0  0  0  0  0  0  0
   44.4867    5.5959   11.5604 C   0  0  0  0  0  0  0  0  0  0  0  0
   44.7377    4.6763   10.5308 C   0  0  0  0  0  0  0  0  0  0  0  0
   43.8061    5.1640   12.7085 C   0  0  0  0  0  0  0  0  0  0  0  0
   44.3041    3.3537   10.6400 C   0  0  0  0  0  0  0  0  0  0  0  0
   43.3733    3.8400   12.8153 C   0  0  0  0  0  0  0  0  0  0  0  0
   43.6199    2.9362   11.7810 C   0  0  0  0  0  0  0  0  0  0  0  0
   47.6553    9.0985   13.8256 H   0  0  0  0  0  0  0  0  0  0  0  0
   47.5132   10.6879   11.3466 H   0  0  0  0  0  0  0  0  0  0  0  0
   46.5656   11.0041   12.8019 H   0  0  0  0  0  0  0  0  0  0  0  0
   46.3699    8.5062   11.2318 H   0  0  0  0  0  0  0  0  0  0  0  0
   45.5178    8.8329   12.7482 H   0  0  0  0  0  0  0  0  0  0  0  0
   47.4750    6.5041   12.2808 H   0  0  0  0  0  0  0  0  0  0  0  0
   46.6459    6.8240   13.7921 H   0  0  0  0  0  0  0  0  0  0  0  0
   44.2281    6.3865   14.0424 H   0  0  0  0  0  0  0  0  0  0  0  0
   46.2135    5.7284   10.2687 H   0  0  0  0  0  0  0  0  0  0  0  0
   50.1399   10.4250   11.7264 H   0  0  0  0  0  0  0  0  0  0  0  0
   47.4786   12.4657   14.4357 H   0  0  0  0  0  0  0  0  0  0  0  0
   42.2698    5.1270   13.2239 H   0  0  0  0  0  0  0  0  0  0  0  0
   44.2443    4.4702    9.4646 H   0  0  0  0  0  0  0  0  0  0  0  0
   52.0451   11.7156   12.6389 H   0  0  0  0  0  0  0  0  0  0  0  0
   49.3881   13.7417   15.3390 H   0  0  0  0  0  0  0  0  0  0  0  0
   42.2692    4.1658   10.9359 H   0  0  0  0  0  0  0  0  0  0  0  0
   51.6732   13.3730   14.4462 H   0  0  0  0  0  0  0  0  0  0  0  0
   49.8429    8.6950   12.3169 H   0  0  0  0  0  0  0  0  0  0  0  0
   48.5643    7.0563   13.6453 H   0  0  0  0  0  0  0  0  0  0  0  0
   48.0953   11.3981   14.6779 H   0  0  0  0  0  0  0  0  0  0  0  0
   45.8843    8.0434   13.6020 H   0  0  0  0  0  0  0  0  0  0  0  0
   44.3521    7.6796   12.0626 H   0  0  0  0  0  0  0  0  0  0  0  0
   44.8348    7.3787   10.4108 H   0  0  0  0  0  0  0  0  0  0  0  0
   51.6593   11.5151   16.0252 H   0  0  0  0  0  0  0  0  0  0  0  0
   50.9940   10.9767   12.1588 H   0  0  0  0  0  0  0  0  0  0  0  0
   50.2956   12.1187   10.9991 H   0  0  0  0  0  0  0  0  0  0  0  0
   50.9395   12.7000   12.5306 H   0  0  0  0  0  0  0  0  0  0  0  0
   48.7235   13.8336   13.1306 H   0  0  0  0  0  0  0  0  0  0  0  0
   48.0748   13.3349   11.5712 H   0  0  0  0  0  0  0  0  0  0  0  0
   47.2109   12.9311   13.0635 H   0  0  0  0  0  0  0  0  0  0  0  0
   45.2819    4.9854    9.6398 H   0  0  0  0  0  0  0  0  0  0  0  0
   43.6052    5.8523   13.5281 H   0  0  0  0  0  0  0  0  0  0  0  0
   44.5047    2.6497    9.8349 H   0  0  0  0  0  0  0  0  0  0  0  0
   42.8444    3.5113   13.7066 H   0  0  0  0  0  0  0  0  0  0  0  0
   43.2834    1.9052   11.8660 H   0  0  0  0  0  0  0  0  0  0  0  0
  2  4  1  0
  3  6  1  0
  4  1  1  0
  5  1  1  0
  6  5  1  0
  7  3  2  0
  8  3  1  0
  9  2  2  0
 10  2  1  0
 11  7  1  0
 12  8  2  0
 13  9  1  0
 14 10  2  0
 15 12  1  0
 16 14  1  0
 13 16  2  0
 11 15  2  0
 18 17  1  0
 19 17  1  0
 20 19  1  0
 21 17  1  0
 18 22  1  0
 23 21  1  0
 20 24  1  0
 21 25  1  0
 26 24  1  0
 27 19  2  0
 28 25  2  0
 29 26  2  0
 30 26  1  0
 31 25  1  0
 32 23  1  0
 33 23  1  0
 34 30  1  0
 35 34  2  0
 36 34  1  0
 37 35  1  0
 38 36  2  0
 39 38  1  0
 22 23  1  0
 18 20  1  0
 37 39  2  0
  1 40  1  0
  4 41  1  0
  4 42  1  0
  5 43  1  0
  5 44  1  0
  6 45  1  0
  6 46  1  0
  7 47  1  0
  8 48  1  0
  9 49  1  0
 10 50  1  0
 11 51  1  0
 12 52  1  0
 13 53  1  0
 14 54  1  0
 15 55  1  0
 16 56  1  0
 18 57  1  1
 20 58  1  1
 21 59  1  6
 24 60  1  0
 30 61  1  0
 30 62  1  0
 31 63  1  0
 32 64  1  0
 32 65  1  0
 32 66  1  0
 33 67  1  0
 33 68  1  0
 33 69  1  0
 35 70  1  0
 36 71  1  0
 37 72  1  0
 38 73  1  0
 39 74  1  0
M  END
> <Uni-Dock RESULT> 
ENERGY=   -6.147  LOWER_BOUND=    0.000  UPPER_BOUND=    0.000
INTER + INTRA:          -6.147
INTER:                  -6.147
INTRA:                   0.000
UNBOUND:                 0.000

$$$$

     RDKit          3D

 74 77  0  0  0  0  0  0  0  0999 V2000
   48.2315    8.0362   13.9940 N   0  0  0  0  0  0  0  0  0  0  0  0
   49.4010    9.9144   15.0457 C   0  0  0  0  0  0  0  0  0  0  0  0
   45.8040    5.5554   12.4374 C   0  0  0  0  0  0  0  0  0  0  0  0
   48.1133    9.4306   14.4214 C   0  0  0  0  0  0  0  0  0  0  0  0
   46.9618    7.5437   13.4537 C   0  0  0  0  0  0  0  0  0  0  0  0
   47.1034    6.0870   12.9930 C   0  0  0  0  0  0  0  0  0  0  0  0
   44.8874    4.9027   13.2725 C   0  0  0  0  0  0  0  0  0  0  0  0
   45.4835    5.7373   11.0855 C   0  0  0  0  0  0  0  0  0  0  0  0
   50.5480   10.0924   14.2576 C   0  0  0  0  0  0  0  0  0  0  0  0
   49.4755   10.1856   16.4191 C   0  0  0  0  0  0  0  0  0  0  0  0
   43.6758    4.4329   12.7624 C   0  0  0  0  0  0  0  0  0  0  0  0
   44.2707    5.2674   10.5776 C   0  0  0  0  0  0  0  0  0  0  0  0
   51.7400   10.5416   14.8280 C   0  0  0  0  0  0  0  0  0  0  0  0
   50.6688   10.6349   16.9886 C   0  0  0  0  0  0  0  0  0  0  0  0
   43.3673    4.6156   11.4159 C   0  0  0  0  0  0  0  0  0  0  0  0
   51.7996   10.8133   16.1930 C   0  0  0  0  0  0  0  0  0  0  0  0
   50.0453    7.9939   15.0036 N   0  0  0  0  0  0  0  0  0  0  0  0
   49.5022    8.0898   13.6321 C   0  0  1  0  0  0  0  0  0  0  0  0
   49.2405    6.9397   15.3417 C   0  0  0  0  0  0  0  0  0  0  0  0
   48.7807    6.7436   13.8808 C   0  0  1  0  0  0  0  0  0  0  0  0
   50.0125    9.1996   15.8377 C   0  0  2  0  0  0  0  0  0  0  0  0
   48.5173    9.6410   13.6714 S   0  0  0  0  0  0  0  0  0  0  0  0
   49.6711   10.3920   14.9181 C   0  0  0  0  0  0  0  0  0  0  0  0
   47.3117    6.6941   13.6622 N   0  0  0  0  0  0  0  0  0  0  0  0
   51.2922    9.4133   16.6429 C   0  0  0  0  0  0  0  0  0  0  0  0
   46.7905    6.7348   12.3876 C   0  0  0  0  0  0  0  0  0  0  0  0
   48.9312    6.4867   16.4201 O   0  0  0  0  0  0  0  0  0  0  0  0
   51.4875   10.3255   17.4323 O   0  0  0  0  0  0  0  0  0  0  0  0
   47.5084    6.8122   11.3922 O   0  0  0  0  0  0  0  0  0  0  0  0
   45.2766    6.6694   12.3183 C   0  0  0  0  0  0  0  0  0  0  0  0
   52.2650    8.5106   16.4114 O   0  0  0  0  0  0  0  0  0  0  0  0
   50.8779   10.9715   14.1653 C   0  0  0  0  0  0  0  0  0  0  0  0
   48.9269   11.5026   15.6628 C   0  0  0  0  0  0  0  0  0  0  0  0
   44.7790    5.3445   11.7976 C   0  0  0  0  0  0  0  0  0  0  0  0
   44.7574    5.0918   10.4176 C   0  0  0  0  0  0  0  0  0  0  0  0
   44.3555    4.3400   12.6805 C   0  0  0  0  0  0  0  0  0  0  0  0
   44.3076    3.8641    9.9282 C   0  0  0  0  0  0  0  0  0  0  0  0
   43.9058    3.1123   12.1884 C   0  0  0  0  0  0  0  0  0  0  0  0
   43.8795    2.8753   10.8134 C   0  0  0  0  0  0  0  0  0  0  0  0
   48.5084    7.4732   14.7975 H   0  0  0  0  0  0  0  0  0  0  0  0
   47.8789   10.0770   13.5662 H   0  0  0  0  0  0  0  0  0  0  0  0
   47.2933    9.5399   15.1424 H   0  0  0  0  0  0  0  0  0  0  0  0
   46.6540    8.1656   12.6037 H   0  0  0  0  0  0  0  0  0  0  0  0
   46.1755    7.6145   14.2160 H   0  0  0  0  0  0  0  0  0  0  0  0
   47.8860    6.0043   12.2275 H   0  0  0  0  0  0  0  0  0  0  0  0
   47.4285    5.4518   13.8272 H   0  0  0  0  0  0  0  0  0  0  0  0
   45.1124    4.7543   14.3260 H   0  0  0  0  0  0  0  0  0  0  0  0
   46.1776    6.2481   10.4210 H   0  0  0  0  0  0  0  0  0  0  0  0
   50.5117    9.8716   13.1931 H   0  0  0  0  0  0  0  0  0  0  0  0
   48.6047   10.0486   17.0557 H   0  0  0  0  0  0  0  0  0  0  0  0
   42.9728    3.9248   13.4174 H   0  0  0  0  0  0  0  0  0  0  0  0
   44.0307    5.4115    9.5273 H   0  0  0  0  0  0  0  0  0  0  0  0
   52.6217   10.6764   14.2072 H   0  0  0  0  0  0  0  0  0  0  0  0
   50.7163   10.8457   18.0537 H   0  0  0  0  0  0  0  0  0  0  0  0
   42.4236    4.2495   11.0192 H   0  0  0  0  0  0  0  0  0  0  0  0
   52.7281   11.1624   16.6370 H   0  0  0  0  0  0  0  0  0  0  0  0
   50.2863    8.0621   12.8695 H   0  0  0  0  0  0  0  0  0  0  0  0
   49.2733    5.8805   13.4163 H   0  0  0  0  0  0  0  0  0  0  0  0
   49.2175    9.0580   16.5846 H   0  0  0  0  0  0  0  0  0  0  0  0
   46.6922    6.5351   14.4497 H   0  0  0  0  0  0  0  0  0  0  0  0
   44.8418    6.8734   13.3044 H   0  0  0  0  0  0  0  0  0  0  0  0
   44.9313    7.4850   11.6705 H   0  0  0  0  0  0  0  0  0  0  0  0
   52.9941    8.7681   17.0136 H   0  0  0  0  0  0  0  0  0  0  0  0
   51.4617   10.1975   13.6536 H   0  0  0  0  0  0  0  0  0  0  0  0
   50.5674   11.7074   13.4139 H   0  0  0  0  0  0  0  0  0  0  0  0
   51.5593   11.4885   14.8514 H   0  0  0  0  0  0  0  0  0  0  0  0
   49.5795   11.9828   16.3979 H   0  0  0  0  0  0  0  0  0  0  0  0
   48.5799   12.2863   14.9802 H   0  0  0  0  0  0  0  0  0  0  0  0
   48.0559   11.1180   16.2036 H   0  0  0  0  0  0  0  0  0  0  0  0
   45.1006    5.8502    9.7156 H   0  0  0  0  0  0  0  0  0  0  0  0
   44.3698    4.5033   13.7571 H   0  0  0  0  0  0  0  0  0  0  0  0
   44.2955    3.6799    8.8559 H   0  0  0  0  0  0  0  0  0  0  0  0
   43.5768    2.3382   12.8774 H   0  0  0  0  0  0  0  0  0  0  0  0
   43.5303    1.9185   10.4316 H   0  0  0  0  0  0  0  0  0  0  0  0
  2  4  1  0
  3  6  1  0
  4  1  1  0
  5  1  1  0
  6  5  1  0
  7  3  2  0
  8  3  1  0
  9  2  2  0
 10  2  1  0
 11  7  1  0
 12  8  2  0
 13  9  1  0
 14 10  2  0
 15 12  1  0
 16 14  1  0
 13 16  2  0
 11 15  2  0
 18 17  1  0
 19 17  1  0
 20 19  1  0
 21 17  1  0
 18 22  1  0
 23 21  1  0
 20 24  1  0
 21 25  1  0
 26 24  1  0
 27 19  2  0
 28 25  2  0
 29 26  2  0
 30 26  1  0
 31 25  1  0
 32 23  1  0
 33 23  1  0
 34 30  1  0
 35 34  2  0
 36 34  1  0
 37 35  1  0
 38 36  2  0
 39 38  1  0
 22 23  1  0
 18 20  1  0
 37 39  2  0
  1 40  1  0
  4 41  1  0
  4 42  1  0
  5 43  1  0
  5 44  1  0
  6 45  1  0
  6 46  1  0
  7 47  1  0
  8 48  1  0
  9 49  1  0
 10 50  1  0
 11 51  1  0
 12 52  1  0
 13 53  1  0
 14 54  1  0
 15 55  1  0
 16 56  1  0
 18 57  1  1
 20 58  1  1
 21 59  1  6
 24 60  1  0
 30 61  1  0
 30 62  1  0
 31 63  1  0
 32 64  1  0
 32 65  1  0
 32 66  1  0
 33 67  1  0
 33 68  1  0
 33 69  1  0
 35 70  1  0
 36 71  1  0
 37 72  1  0
 38 73  1  0
 39 74  1  0
M  END
> <Uni-Dock RESULT> 
ENERGY=   -5.961  LOWER_BOUND=    1.667  UPPER_BOUND=    2.061
INTER + INTRA:          -5.961
INTER:                  -5.961
INTRA:                   0.000
UNBOUND:                 0.000

$$$$

     RDKit          3D

 74 77  0  0  0  0  0  0  0  0999 V2000
   48.5323    9.5305   18.9334 N   0  0  0  0  0  0  0  0  0  0  0  0
   48.0783   11.7880   19.7692 C   0  0  0  0  0  0  0  0  0  0  0  0
   48.6322    5.8334   18.0435 C   0  0  0  0  0  0  0  0  0  0  0  0
   47.5695   10.3710   19.6456 C   0  0  0  0  0  0  0  0  0  0  0  0
   48.0731    8.1404   18.8752 C   0  0  0  0  0  0  0  0  0  0  0  0
   49.0821    7.2731   18.1110 C   0  0  0  0  0  0  0  0  0  0  0  0
   49.0251    4.9185   19.0296 C   0  0  0  0  0  0  0  0  0  0  0  0
   47.7889    5.4015   17.0113 C   0  0  0  0  0  0  0  0  0  0  0  0
   48.1841   12.6050   18.6335 C   0  0  0  0  0  0  0  0  0  0  0  0
   48.4597   12.3079   21.0141 C   0  0  0  0  0  0  0  0  0  0  0  0
   48.5888    3.5934   18.9790 C   0  0  0  0  0  0  0  0  0  0  0  0
   47.3531    4.0758   16.9632 C   0  0  0  0  0  0  0  0  0  0  0  0
   48.6510   13.9158   18.7415 C   0  0  0  0  0  0  0  0  0  0  0  0
   48.9268   13.6196   21.1208 C   0  0  0  0  0  0  0  0  0  0  0  0
   47.7528    3.1722   17.9468 C   0  0  0  0  0  0  0  0  0  0  0  0
   49.0214   14.4227   19.9851 C   0  0  0  0  0  0  0  0  0  0  0  0
   49.8608   11.1197   19.0758 N   0  0  0  0  0  0  0  0  0  0  0  0
   48.9670   10.4607   18.1001 C   0  0  1  0  0  0  0  0  0  0  0  0
   50.4179    9.9410   19.4925 C   0  0  0  0  0  0  0  0  0  0  0  0
   49.7544    9.1510   18.3437 C   0  0  1  0  0  0  0  0  0  0  0  0
   49.2499   12.0012   20.0758 C   0  0  2  0  0  0  0  0  0  0  0  0
   47.3019   10.6446   18.8559 S   0  0  0  0  0  0  0  0  0  0  0  0
   47.7899   12.2549   19.6420 C   0  0  0  0  0  0  0  0  0  0  0  0
   48.9851    7.9442   18.7436 N   0  0  0  0  0  0  0  0  0  0  0  0
   50.0365   13.2892   20.3084 C   0  0  0  0  0  0  0  0  0  0  0  0
   48.1838    7.2899   17.8338 C   0  0  0  0  0  0  0  0  0  0  0  0
   51.0520    9.6662   20.4855 O   0  0  0  0  0  0  0  0  0  0  0  0
   49.7459   14.1598   21.1152 O   0  0  0  0  0  0  0  0  0  0  0  0
   48.0736    7.6713   16.6699 O   0  0  0  0  0  0  0  0  0  0  0  0
   47.4650    6.0716   18.3815 C   0  0  0  0  0  0  0  0  0  0  0  0
   51.1169   13.4440   19.5188 O   0  0  0  0  0  0  0  0  0  0  0  0
   47.6291   13.3669   18.5949 C   0  0  0  0  0  0  0  0  0  0  0  0
   46.8679   12.5129   20.8359 C   0  0  0  0  0  0  0  0  0  0  0  0
   48.0350    4.7790   17.8537 C   0  0  0  0  0  0  0  0  0  0  0  0
   47.6624    4.3096   16.5850 C   0  0  0  0  0  0  0  0  0  0  0  0
   48.9603    4.0422   18.6078 C   0  0  0  0  0  0  0  0  0  0  0  0
   48.1933    3.1190   16.0853 C   0  0  0  0  0  0  0  0  0  0  0  0
   49.4902    2.8511   18.1055 C   0  0  0  0  0  0  0  0  0  0  0  0
   49.1052    2.3885   16.8464 C   0  0  0  0  0  0  0  0  0  0  0  0
   49.4275    9.5801   19.4187 H   0  0  0  0  0  0  0  0  0  0  0  0
   46.6099   10.3928   19.1139 H   0  0  0  0  0  0  0  0  0  0  0  0
   47.3747    9.9636   20.6458 H   0  0  0  0  0  0  0  0  0  0  0  0
   47.0985    8.0922   18.3732 H   0  0  0  0  0  0  0  0  0  0  0  0
   47.9411    7.7447   19.8903 H   0  0  0  0  0  0  0  0  0  0  0  0
   49.2201    7.6581   17.0922 H   0  0  0  0  0  0  0  0  0  0  0  0
   50.0690    7.3232   18.5892 H   0  0  0  0  0  0  0  0  0  0  0  0
   49.6752    5.2321   19.8429 H   0  0  0  0  0  0  0  0  0  0  0  0
   47.4657    6.0971   16.2394 H   0  0  0  0  0  0  0  0  0  0  0  0
   47.9072   12.2121   17.6577 H   0  0  0  0  0  0  0  0  0  0  0  0
   48.3963   11.6949   21.9099 H   0  0  0  0  0  0  0  0  0  0  0  0
   48.9017    2.8903   19.7467 H   0  0  0  0  0  0  0  0  0  0  0  0
   46.7001    3.7488   16.1581 H   0  0  0  0  0  0  0  0  0  0  0  0
   48.7279   14.5393   17.8548 H   0  0  0  0  0  0  0  0  0  0  0  0
   49.2173   14.0152   22.0904 H   0  0  0  0  0  0  0  0  0  0  0  0
   47.4135    2.1401   17.9079 H   0  0  0  0  0  0  0  0  0  0  0  0
   49.3855   15.4432   20.0688 H   0  0  0  0  0  0  0  0  0  0  0  0
   49.0644   10.8805   17.0945 H   0  0  0  0  0  0  0  0  0  0  0  0
   50.4751    8.9095   17.5526 H   0  0  0  0  0  0  0  0  0  0  0  0
   49.2716   11.4678   21.0375 H   0  0  0  0  0  0  0  0  0  0  0  0
   49.1226    7.5441   19.6656 H   0  0  0  0  0  0  0  0  0  0  0  0
   47.4927    6.0751   19.4780 H   0  0  0  0  0  0  0  0  0  0  0  0
   46.4041    6.1551   18.1141 H   0  0  0  0  0  0  0  0  0  0  0  0
   51.5181   14.2906   19.8064 H   0  0  0  0  0  0  0  0  0  0  0  0
   48.3064   13.2389   17.7425 H   0  0  0  0  0  0  0  0  0  0  0  0
   46.6049   13.4066   18.2048 H   0  0  0  0  0  0  0  0  0  0  0  0
   47.8402   14.3512   19.0295 H   0  0  0  0  0  0  0  0  0  0  0  0
   47.1132   13.4635   21.3184 H   0  0  0  0  0  0  0  0  0  0  0  0
   45.8168   12.5683   20.5317 H   0  0  0  0  0  0  0  0  0  0  0  0
   46.9570   11.7300   21.5963 H   0  0  0  0  0  0  0  0  0  0  0  0
   46.9610    4.8762   15.9747 H   0  0  0  0  0  0  0  0  0  0  0  0
   49.2759    4.3862   19.5917 H   0  0  0  0  0  0  0  0  0  0  0  0
   47.8967    2.7651   15.1000 H   0  0  0  0  0  0  0  0  0  0  0  0
   50.2056    2.2831   18.6954 H   0  0  0  0  0  0  0  0  0  0  0  0
   49.5195    1.4616   16.4560 H   0  0  0  0  0  0  0  0  0  0  0  0
  2  4  1  0
  3  6  1  0
  4  1  1  0
  5  1  1  0
  6  5  1  0
  7  3  2  0
  8  3  1  0
  9  2  2  0
 10  2  1  0
 11  7  1  0
 12  8  2  0
 13  9  1  0
 14 10  2  0
 15 12  1  0
 16 14  1  0
 13 16  2  0
 11 15  2  0
 18 17  1  0
 19 17  1  0
 20 19  1  0
 21 17  1  0
 18 22  1  0
 23 21  1  0
 20 24  1  0
 21 25  1  0
 26 24  1  0
 27 19  2  0
 28 25  2  0
 29 26  2  0
 30 26  1  0
 31 25  1  0
 32 23  1  0
 33 23  1  0
 34 30  1  0
 35 34  2  0
 36 34  1  0
 37 35  1  0
 38 36  2  0
 39 38  1  0
 22 23  1  0
 18 20  1  0
 37 39  2  0
  1 40  1  0
  4 41  1  0
  4 42  1  0
  5 43  1  0
  5 44  1  0
  6 45  1  0
  6 46  1  0
  7 47  1  0
  8 48  1  0
  9 49  1  0
 10 50  1  0
 11 51  1  0
 12 52  1  0
 13 53  1  0
 14 54  1  0
 15 55  1  0
 16 56  1  0
 18 57  1  1
 20 58  1  1
 21 59  1  6
 24 60  1  0
 30 61  1  0
 30 62  1  0
 31 63  1  0
 32 64  1  0
 32 65  1  0
 32 66  1  0
 33 67  1  0
 33 68  1  0
 33 69  1  0
 35 70  1  0
 36 71  1  0
 37 72  1  0
 38 73  1  0
 39 74  1  0
M  END
> <Uni-Dock RESULT> 
ENERGY=   -5.486  LOWER_BOUND=    5.552  UPPER_BOUND=    6.733
INTER + INTRA:          -5.486
INTER:                  -5.486
INTRA:                   0.000
UNBOUND:                 0.000

$$$$

     RDKit          3D

 74 77  0  0  0  0  0  0  0  0999 V2000
   42.2929   11.0791   10.9861 N   0  0  0  0  0  0  0  0  0  0  0  0
   40.0727   12.1142   11.0072 C   0  0  0  0  0  0  0  0  0  0  0  0
   45.7213    9.5928   11.6979 C   0  0  0  0  0  0  0  0  0  0  0  0
   41.2002   11.5485   11.8383 C   0  0  0  0  0  0  0  0  0  0  0  0
   43.4167   10.5960   11.7924 C   0  0  0  0  0  0  0  0  0  0  0  0
   44.5483   10.0904   10.8879 C   0  0  0  0  0  0  0  0  0  0  0  0
   46.7679   10.4593   12.0406 C   0  0  0  0  0  0  0  0  0  0  0  0
   45.7622    8.2656   12.1454 C   0  0  0  0  0  0  0  0  0  0  0  0
   39.2899   11.2697   10.2056 C   0  0  0  0  0  0  0  0  0  0  0  0
   39.7941   13.4882   11.0153 C   0  0  0  0  0  0  0  0  0  0  0  0
   47.8401   10.0038   12.8099 C   0  0  0  0  0  0  0  0  0  0  0  0
   46.8351    7.8124   12.9155 C   0  0  0  0  0  0  0  0  0  0  0  0
   38.2451   11.7859    9.4374 C   0  0  0  0  0  0  0  0  0  0  0  0
   38.7485   14.0034   10.2462 C   0  0  0  0  0  0  0  0  0  0  0  0
   47.8736    8.6813   13.2477 C   0  0  0  0  0  0  0  0  0  0  0  0
   37.9745   13.1523    9.4586 C   0  0  0  0  0  0  0  0  0  0  0  0
   41.3033   11.9870    9.4026 N   0  0  0  0  0  0  0  0  0  0  0  0
   41.5402   10.6500    9.9872 C   0  0  1  0  0  0  0  0  0  0  0  0
   42.6243   12.3407    9.4580 C   0  0  0  0  0  0  0  0  0  0  0  0
   43.0572   10.9025    9.8157 C   0  0  1  0  0  0  0  0  0  0  0  0
   40.3153   12.8528   10.0544 C   0  0  2  0  0  0  0  0  0  0  0  0
   40.8062   10.7834   11.6669 S   0  0  0  0  0  0  0  0  0  0  0  0
   39.5269   11.9846   11.0587 C   0  0  0  0  0  0  0  0  0  0  0  0
   43.9228   10.7630   11.0154 N   0  0  0  0  0  0  0  0  0  0  0  0
   39.4145   13.5924    9.0679 C   0  0  0  0  0  0  0  0  0  0  0  0
   44.1923    9.5202   11.5452 C   0  0  0  0  0  0  0  0  0  0  0  0
   43.1631   13.4222    9.3958 O   0  0  0  0  0  0  0  0  0  0  0  0
   38.5424   14.3935    9.3697 O   0  0  0  0  0  0  0  0  0  0  0  0
   43.7349    8.4895   11.0545 O   0  0  0  0  0  0  0  0  0  0  0  0
   45.0949    9.5317   12.7643 C   0  0  0  0  0  0  0  0  0  0  0  0
   39.6196   13.2848    7.7726 O   0  0  0  0  0  0  0  0  0  0  0  0
   38.3777   11.1826   10.4302 C   0  0  0  0  0  0  0  0  0  0  0  0
   39.0169   12.7974   12.2508 C   0  0  0  0  0  0  0  0  0  0  0  0
   46.4758    9.0044   12.4656 C   0  0  0  0  0  0  0  0  0  0  0  0
   46.7094    7.6215   12.4245 C   0  0  0  0  0  0  0  0  0  0  0  0
   47.5372    9.8826   12.2010 C   0  0  0  0  0  0  0  0  0  0  0  0
   47.9828    7.1256   12.1387 C   0  0  0  0  0  0  0  0  0  0  0  0
   48.8105    9.3839   11.9152 C   0  0  0  0  0  0  0  0  0  0  0  0
   49.0338    8.0066   11.8866 C   0  0  0  0  0  0  0  0  0  0  0  0
   42.5972   11.8513   10.3942 H   0  0  0  0  0  0  0  0  0  0  0  0
   40.8035   10.7246   12.4449 H   0  0  0  0  0  0  0  0  0  0  0  0
   41.5623   12.3158   12.5343 H   0  0  0  0  0  0  0  0  0  0  0  0
   43.0815    9.7806   12.4456 H   0  0  0  0  0  0  0  0  0  0  0  0
   43.7917   11.4016   12.4366 H   0  0  0  0  0  0  0  0  0  0  0  0
   44.1854    9.2816   10.2405 H   0  0  0  0  0  0  0  0  0  0  0  0
   44.8851   10.8889   10.2140 H   0  0  0  0  0  0  0  0  0  0  0  0
   46.7555   11.4948   11.7087 H   0  0  0  0  0  0  0  0  0  0  0  0
   44.9562    7.5778   11.8971 H   0  0  0  0  0  0  0  0  0  0  0  0
   39.5026   10.2034   10.1757 H   0  0  0  0  0  0  0  0  0  0  0  0
   40.3895   14.1675   11.6204 H   0  0  0  0  0  0  0  0  0  0  0  0
   48.6490   10.6827   13.0677 H   0  0  0  0  0  0  0  0  0  0  0  0
   46.8595    6.7808   13.2573 H   0  0  0  0  0  0  0  0  0  0  0  0
   37.6453   11.1218    8.8210 H   0  0  0  0  0  0  0  0  0  0  0  0
   38.5378   15.0694   10.2611 H   0  0  0  0  0  0  0  0  0  0  0  0
   48.7089    8.3272   13.8466 H   0  0  0  0  0  0  0  0  0  0  0  0
   37.1614   13.5540    8.8598 H   0  0  0  0  0  0  0  0  0  0  0  0
   41.1308    9.8455    9.3691 H   0  0  0  0  0  0  0  0  0  0  0  0
   43.5006   10.3895    8.9533 H   0  0  0  0  0  0  0  0  0  0  0  0
   40.8712   13.6379   10.5878 H   0  0  0  0  0  0  0  0  0  0  0  0
   44.3944   11.5786   11.3916 H   0  0  0  0  0  0  0  0  0  0  0  0
   45.1606   10.5451   13.1790 H   0  0  0  0  0  0  0  0  0  0  0  0
   44.6183    8.9252   13.5448 H   0  0  0  0  0  0  0  0  0  0  0  0
   38.9927   13.8529    7.2779 H   0  0  0  0  0  0  0  0  0  0  0  0
   38.6965   10.6198    9.5451 H   0  0  0  0  0  0  0  0  0  0  0  0
   37.9486   10.4687   11.1435 H   0  0  0  0  0  0  0  0  0  0  0  0
   37.5616   11.8438   10.1152 H   0  0  0  0  0  0  0  0  0  0  0  0
   38.2471   13.5082   11.9361 H   0  0  0  0  0  0  0  0  0  0  0  0
   38.5680   12.1555   13.0169 H   0  0  0  0  0  0  0  0  0  0  0  0
   39.8185   13.3747   12.7234 H   0  0  0  0  0  0  0  0  0  0  0  0
   45.8952    6.9220   12.6070 H   0  0  0  0  0  0  0  0  0  0  0  0
   47.3843   10.9608   12.2161 H   0  0  0  0  0  0  0  0  0  0  0  0
   48.1516    6.0510   12.1097 H   0  0  0  0  0  0  0  0  0  0  0  0
   49.6300   10.0693   11.7130 H   0  0  0  0  0  0  0  0  0  0  0  0
   50.0254    7.6195   11.6627 H   0  0  0  0  0  0  0  0  0  0  0  0
  2  4  1  0
  3  6  1  0
  4  1  1  0
  5  1  1  0
  6  5  1  0
  7  3  2  0
  8  3  1  0
  9  2  2  0
 10  2  1  0
 11  7  1  0
 12  8  2  0
 13  9  1  0
 14 10  2  0
 15 12  1  0
 16 14  1  0
 13 16  2  0
 11 15  2  0
 18 17  1  0
 19 17  1  0
 20 19  1  0
 21 17  1  0
 18 22  1  0
 23 21  1  0
 20 24  1  0
 21 25  1  0
 26 24  1  0
 27 19  2  0
 28 25  2  0
 29 26  2  0
 30 26  1  0
 31 25  1  0
 32 23  1  0
 33 23  1  0
 34 30  1  0
 35 34  2  0
 36 34  1  0
 37 35  1  0
 38 36  2  0
 39 38  1  0
 22 23  1  0
 18 20  1  0
 37 39  2  0
  1 40  1  0
  4 41  1  0
  4 42  1  0
  5 43  1  0
  5 44  1  0
  6 45  1  0
  6 46  1  0
  7 47  1  0
  8 48  1  0
  9 49  1  0
 10 50  1  0
 11 51  1  0
 12 52  1  0
 13 53  1  0
 14 54  1  0
 15 55  1  0
 16 56  1  0
 18 57  1  1
 20 58  1  1
 21 59  1  6
 24 60  1  0
 30 61  1  0
 30 62  1  0
 31 63  1  0
 32 64  1  0
 32 65  1  0
 32 66  1  0
 33 67  1  0
 33 68  1  0
 33 69  1  0
 35 70  1  0
 36 71  1  0
 37 72  1  0
 38 73  1  0
 39 74  1  0
M  END
> <Uni-Dock RESULT> 
ENERGY=   -5.163  LOWER_BOUND=    6.007  UPPER_BOUND=    8.263
INTER + INTRA:          -5.163
INTER:                  -5.163
INTRA:                   0.000
UNBOUND:                 0.000

$$$$

     RDKit          3D

 74 77  0  0  0  0  0  0  0  0999 V2000
   46.8041    6.6188   12.1601 N   0  0  0  0  0  0  0  0  0  0  0  0
   44.9974    5.2884   11.1768 C   0  0  0  0  0  0  0  0  0  0  0  0
   49.8868    8.6891   12.9853 C   0  0  0  0  0  0  0  0  0  0  0  0
   46.2128    6.1445   10.9087 C   0  0  0  0  0  0  0  0  0  0  0  0
   48.0236    7.3897   11.9052 C   0  0  0  0  0  0  0  0  0  0  0  0
   48.6241    7.8962   13.2232 C   0  0  0  0  0  0  0  0  0  0  0  0
   51.1365    8.0551   12.9907 C   0  0  0  0  0  0  0  0  0  0  0  0
   49.8221   10.0641   12.7235 C   0  0  0  0  0  0  0  0  0  0  0  0
   43.8255    5.8624   11.6920 C   0  0  0  0  0  0  0  0  0  0  0  0
   45.0206    3.9095   10.9243 C   0  0  0  0  0  0  0  0  0  0  0  0
   52.3011    8.7853   12.7468 C   0  0  0  0  0  0  0  0  0  0  0  0
   50.9881   10.7923   12.4790 C   0  0  0  0  0  0  0  0  0  0  0  0
   42.6984    5.0772   11.9395 C   0  0  0  0  0  0  0  0  0  0  0  0
   43.8922    3.1250   11.1724 C   0  0  0  0  0  0  0  0  0  0  0  0
   52.2271   10.1530   12.4906 C   0  0  0  0  0  0  0  0  0  0  0  0
   42.7320    3.7092   11.6788 C   0  0  0  0  0  0  0  0  0  0  0  0
   45.5090    5.3229   13.1369 N   0  0  0  0  0  0  0  0  0  0  0  0
   45.6706    6.7591   12.8265 C   0  0  1  0  0  0  0  0  0  0  0  0
   46.8018    5.1806   13.5631 C   0  0  0  0  0  0  0  0  0  0  0  0
   47.0392    6.7062   13.5466 C   0  0  1  0  0  0  0  0  0  0  0  0
   45.0192    4.4437   12.0703 C   0  0  2  0  0  0  0  0  0  0  0  0
   45.6395    6.8039   10.9894 S   0  0  0  0  0  0  0  0  0  0  0  0
   44.4936    5.3435   10.9309 C   0  0  0  0  0  0  0  0  0  0  0  0
   48.2351    7.1704   12.7967 N   0  0  0  0  0  0  0  0  0  0  0  0
   43.9883    3.4251   12.5513 C   0  0  0  0  0  0  0  0  0  0  0  0
   48.4253    8.5105   12.5397 C   0  0  0  0  0  0  0  0  0  0  0  0
   47.4851    4.1948   13.7212 O   0  0  0  0  0  0  0  0  0  0  0  0
   43.4639    2.5673   11.8567 O   0  0  0  0  0  0  0  0  0  0  0  0
   47.6254    9.3658   12.9148 O   0  0  0  0  0  0  0  0  0  0  0  0
   49.6920    8.8361   11.7713 C   0  0  0  0  0  0  0  0  0  0  0  0
   43.6429    3.5375   13.8485 O   0  0  0  0  0  0  0  0  0  0  0  0
   43.0596    5.8515   11.1412 C   0  0  0  0  0  0  0  0  0  0  0  0
   44.6246    4.6767    9.5597 C   0  0  0  0  0  0  0  0  0  0  0  0
   50.7351    9.5020   12.6331 C   0  0  0  0  0  0  0  0  0  0  0  0
   50.6573   10.8774   12.8992 C   0  0  0  0  0  0  0  0  0  0  0  0
   51.7800    8.7568   13.1995 C   0  0  0  0  0  0  0  0  0  0  0  0
   51.6135   11.4993   13.7042 C   0  0  0  0  0  0  0  0  0  0  0  0
   52.7356    9.3813   14.0048 C   0  0  0  0  0  0  0  0  0  0  0  0
   52.6539   10.7519   14.2549 C   0  0  0  0  0  0  0  0  0  0  0  0
   47.0198    5.8111   12.7435 H   0  0  0  0  0  0  0  0  0  0  0  0
   45.9081    6.9915   10.2813 H   0  0  0  0  0  0  0  0  0  0  0  0
   46.9482    5.5664   10.3348 H   0  0  0  0  0  0  0  0  0  0  0  0
   47.7934    8.2453   11.2579 H   0  0  0  0  0  0  0  0  0  0  0  0
   48.7595    6.7674   11.3799 H   0  0  0  0  0  0  0  0  0  0  0  0
   47.8974    8.5228   13.7564 H   0  0  0  0  0  0  0  0  0  0  0  0
   48.8448    7.0539   13.8917 H   0  0  0  0  0  0  0  0  0  0  0  0
   51.2109    6.9881   13.1867 H   0  0  0  0  0  0  0  0  0  0  0  0
   48.8614   10.5750   12.7071 H   0  0  0  0  0  0  0  0  0  0  0  0
   43.7958    6.9280   11.9083 H   0  0  0  0  0  0  0  0  0  0  0  0
   45.9177    3.4361   10.5329 H   0  0  0  0  0  0  0  0  0  0  0  0
   53.2662    8.2852   12.7565 H   0  0  0  0  0  0  0  0  0  0  0  0
   50.9290   11.8589   12.2781 H   0  0  0  0  0  0  0  0  0  0  0  0
   41.7961    5.5333   12.3379 H   0  0  0  0  0  0  0  0  0  0  0  0
   43.9183    2.0575   10.9707 H   0  0  0  0  0  0  0  0  0  0  0  0
   53.1344   10.7211   12.3008 H   0  0  0  0  0  0  0  0  0  0  0  0
   41.8545    3.0979   11.8722 H   0  0  0  0  0  0  0  0  0  0  0  0
   44.9131    7.3797   13.3144 H   0  0  0  0  0  0  0  0  0  0  0  0
   47.0271    7.1263   14.5600 H   0  0  0  0  0  0  0  0  0  0  0  0
   45.8753    3.8493   11.7187 H   0  0  0  0  0  0  0  0  0  0  0  0
   48.9636    6.5075   12.5536 H   0  0  0  0  0  0  0  0  0  0  0  0
   50.1044    7.9275   11.3158 H   0  0  0  0  0  0  0  0  0  0  0  0
   49.4211    9.4888   10.9318 H   0  0  0  0  0  0  0  0  0  0  0  0
   43.0058    2.8088   14.0021 H   0  0  0  0  0  0  0  0  0  0  0  0
   42.9159    6.2982   12.1320 H   0  0  0  0  0  0  0  0  0  0  0  0
   42.7860    6.6046   10.3924 H   0  0  0  0  0  0  0  0  0  0  0  0
   42.3342    5.0346   11.0476 H   0  0  0  0  0  0  0  0  0  0  0  0
   43.9513    3.8183    9.4788 H   0  0  0  0  0  0  0  0  0  0  0  0
   44.3666    5.3656    8.7476 H   0  0  0  0  0  0  0  0  0  0  0  0
   45.6409    4.3107    9.3798 H   0  0  0  0  0  0  0  0  0  0  0  0
   49.8432   11.4709   12.4860 H   0  0  0  0  0  0  0  0  0  0  0  0
   51.8612    7.6859   13.0188 H   0  0  0  0  0  0  0  0  0  0  0  0
   51.5426   12.5667   13.9034 H   0  0  0  0  0  0  0  0  0  0  0  0
   53.5444    8.7991   14.4395 H   0  0  0  0  0  0  0  0  0  0  0  0
   53.3979   11.2367   14.8831 H   0  0  0  0  0  0  0  0  0  0  0  0
  2  4  1  0
  3  6  1  0
  4  1  1  0
  5  1  1  0
  6  5  1  0
  7  3  2  0
  8  3  1  0
  9  2  2  0
 10  2  1  0
 11  7  1  0
 12  8  2  0
 13  9  1  0
 14 10  2  0
 15 12  1  0
 16 14  1  0
 13 16  2  0
 11 15  2  0
 18 17  1  0
 19 17  1  0
 20 19  1  0
 21 17  1  0
 18 22  1  0
 23 21  1  0
 20 24  1  0
 21 25  1  0
 26 24  1  0
 27 19  2  0
 28 25  2  0
 29 26  2  0
 30 26  1  0
 31 25  1  0
 32 23  1  0
 33 23  1  0
 34 30  1  0
 35 34  2  0
 36 34  1  0
 37 35  1  0
 38 36  2  0
 39 38  1  0
 22 23  1  0
 18 20  1  0
 37 39  2  0
  1 40  1  0
  4 41  1  0
  4 42  1  0
  5 43  1  0
  5 44  1  0
  6 45  1  0
  6 46  1  0
  7 47  1  0
  8 48  1  0
  9 49  1  0
 10 50  1  0
 11 51  1  0
 12 52  1  0
 13 53  1  0
 14 54  1  0
 15 55  1  0
 16 56  1  0
 18 57  1  1
 20 58  1  1
 21 59  1  6
 24 60  1  0
 30 61  1  0
 30 62  1  0
 31 63  1  0
 32 64  1  0
 32 65  1  0
 32 66  1  0
 33 67  1  0
 33 68  1  0
 33 69  1  0
 35 70  1  0
 36 71  1  0
 37 72  1  0
 38 73  1  0
 39 74  1  0
M  END
> <Uni-Dock RESULT> 
ENERGY=   -5.139  LOWER_BOUND=    2.232  UPPER_BOUND=    8.100
INTER + INTRA:          -5.139
INTER:                  -5.139
INTRA:                   0.000
UNBOUND:                 0.000

$$$$

     RDKit          3D

 74 77  0  0  0  0  0  0  0  0999 V2000
   48.9442    7.7800   15.9239 N   0  0  0  0  0  0  0  0  0  0  0  0
   48.6513    8.2069   13.5295 C   0  0  0  0  0  0  0  0  0  0  0  0
   48.7909    6.6775   19.5614 C   0  0  0  0  0  0  0  0  0  0  0  0
   48.2280    7.3719   14.7151 C   0  0  0  0  0  0  0  0  0  0  0  0
   48.4834    7.0199   17.0886 C   0  0  0  0  0  0  0  0  0  0  0  0
   49.2538    7.4441   18.3458 C   0  0  0  0  0  0  0  0  0  0  0  0
   47.7621    7.1794   20.3696 C   0  0  0  0  0  0  0  0  0  0  0  0
   49.3623    5.4379   19.8782 C   0  0  0  0  0  0  0  0  0  0  0  0
   49.9417    8.0759   12.9946 C   0  0  0  0  0  0  0  0  0  0  0  0
   47.7693    9.1295   12.9495 C   0  0  0  0  0  0  0  0  0  0  0  0
   47.3188    6.4579   21.4795 C   0  0  0  0  0  0  0  0  0  0  0  0
   48.9167    4.7177   20.9882 C   0  0  0  0  0  0  0  0  0  0  0  0
   50.3380    8.8427   11.8977 C   0  0  0  0  0  0  0  0  0  0  0  0
   48.1670    9.8961   11.8521 C   0  0  0  0  0  0  0  0  0  0  0  0
   47.8952    5.2275   21.7885 C   0  0  0  0  0  0  0  0  0  0  0  0
   49.4503    9.7518   11.3266 C   0  0  0  0  0  0  0  0  0  0  0  0
   49.6453    9.4000   14.8309 N   0  0  0  0  0  0  0  0  0  0  0  0
   50.0884    8.0827   15.3342 C   0  0  1  0  0  0  0  0  0  0  0  0
   49.1155    9.7787   16.0347 C   0  0  0  0  0  0  0  0  0  0  0  0
   49.7513    8.5744   16.7622 C   0  0  1  0  0  0  0  0  0  0  0  0
   48.7837    9.4240   13.6445 C   0  0  2  0  0  0  0  0  0  0  0  0
   48.9424    6.9048   14.5114 S   0  0  0  0  0  0  0  0  0  0  0  0
   48.8061    8.0099   13.0250 C   0  0  0  0  0  0  0  0  0  0  0  0
   48.8272    7.7465   17.5800 N   0  0  0  0  0  0  0  0  0  0  0  0
   49.1568   10.5190   12.6477 C   0  0  0  0  0  0  0  0  0  0  0  0
   49.2394    6.5377   18.0965 C   0  0  0  0  0  0  0  0  0  0  0  0
   48.3259   10.6501   16.3193 O   0  0  0  0  0  0  0  0  0  0  0  0
   48.5661   10.7578   11.6049 O   0  0  0  0  0  0  0  0  0  0  0  0
   50.3727    6.0999   17.9056 O   0  0  0  0  0  0  0  0  0  0  0  0
   48.1924    5.8069   18.9155 C   0  0  0  0  0  0  0  0  0  0  0  0
   50.2478   11.2374   12.9769 O   0  0  0  0  0  0  0  0  0  0  0  0
   50.0142    7.7405   12.1158 C   0  0  0  0  0  0  0  0  0  0  0  0
   47.5049    7.6792   12.2904 C   0  0  0  0  0  0  0  0  0  0  0  0
   48.4991    5.8233   20.3919 C   0  0  0  0  0  0  0  0  0  0  0  0
   49.4192    4.9119   20.9317 C   0  0  0  0  0  0  0  0  0  0  0  0
   47.8917    6.7610   21.2404 C   0  0  0  0  0  0  0  0  0  0  0  0
   49.7158    4.9273   22.2958 C   0  0  0  0  0  0  0  0  0  0  0  0
   48.1902    6.7745   22.6050 C   0  0  0  0  0  0  0  0  0  0  0  0
   49.0996    5.8569   23.1328 C   0  0  0  0  0  0  0  0  0  0  0  0
   48.7853    8.7756   16.0744 H   0  0  0  0  0  0  0  0  0  0  0  0
   48.4290    6.3178   14.4856 H   0  0  0  0  0  0  0  0  0  0  0  0
   47.1449    7.4688   14.8628 H   0  0  0  0  0  0  0  0  0  0  0  0
   48.6337    5.9469   16.9148 H   0  0  0  0  0  0  0  0  0  0  0  0
   47.4088    7.1816   17.2426 H   0  0  0  0  0  0  0  0  0  0  0  0
   50.3307    7.2840   18.2044 H   0  0  0  0  0  0  0  0  0  0  0  0
   49.1294    8.5199   18.5258 H   0  0  0  0  0  0  0  0  0  0  0  0
   47.3003    8.1369   20.1406 H   0  0  0  0  0  0  0  0  0  0  0  0
   50.1574    5.0261   19.2597 H   0  0  0  0  0  0  0  0  0  0  0  0
   50.6437    7.3761   13.4424 H   0  0  0  0  0  0  0  0  0  0  0  0
   46.7660    9.2582   13.3484 H   0  0  0  0  0  0  0  0  0  0  0  0
   46.5224    6.8572   22.1024 H   0  0  0  0  0  0  0  0  0  0  0  0
   49.3665    3.7575   21.2276 H   0  0  0  0  0  0  0  0  0  0  0  0
   51.3399    8.7319   11.4917 H   0  0  0  0  0  0  0  0  0  0  0  0
   47.4755   10.6065   11.4071 H   0  0  0  0  0  0  0  0  0  0  0  0
   47.5497    4.6663   22.6530 H   0  0  0  0  0  0  0  0  0  0  0  0
   49.7593   10.3492   10.4730 H   0  0  0  0  0  0  0  0  0  0  0  0
   51.1503    7.8990   15.1452 H   0  0  0  0  0  0  0  0  0  0  0  0
   50.6277    8.8758   17.3492 H   0  0  0  0  0  0  0  0  0  0  0  0
   47.7674    9.6722   13.9843 H   0  0  0  0  0  0  0  0  0  0  0  0
   47.9182    8.1155   17.8384 H   0  0  0  0  0  0  0  0  0  0  0  0
   47.1995    6.2356   18.7326 H   0  0  0  0  0  0  0  0  0  0  0  0
   48.1378    4.7732   18.5513 H   0  0  0  0  0  0  0  0  0  0  0  0
   50.3348   11.9024   12.2623 H   0  0  0  0  0  0  0  0  0  0  0  0
   50.9641    8.0069   12.5938 H   0  0  0  0  0  0  0  0  0  0  0  0
   50.0710    6.6846   11.8251 H   0  0  0  0  0  0  0  0  0  0  0  0
   49.9464    8.3207   11.1878 H   0  0  0  0  0  0  0  0  0  0  0  0
   47.3946    8.2999   11.3963 H   0  0  0  0  0  0  0  0  0  0  0  0
   47.4792    6.6343   11.9618 H   0  0  0  0  0  0  0  0  0  0  0  0
   46.6258    7.8557   12.9190 H   0  0  0  0  0  0  0  0  0  0  0  0
   49.9172    4.1888   20.2877 H   0  0  0  0  0  0  0  0  0  0  0  0
   47.1808    7.4872   20.8488 H   0  0  0  0  0  0  0  0  0  0  0  0
   50.4311    4.2154   22.7028 H   0  0  0  0  0  0  0  0  0  0  0  0
   47.7148    7.5022   23.2582 H   0  0  0  0  0  0  0  0  0  0  0  0
   49.3321    5.8693   24.1954 H   0  0  0  0  0  0  0  0  0  0  0  0
  2  4  1  0
  3  6  1  0
  4  1  1  0
  5  1  1  0
  6  5  1  0
  7  3  2  0
  8  3  1  0
  9  2  2  0
 10  2  1  0
 11  7  1  0
 12  8  2  0
 13  9  1  0
 14 10  2  0
 15 12  1  0
 16 14  1  0
 13 16  2  0
 11 15  2  0
 18 17  1  0
 19 17  1  0
 20 19  1  0
 21 17  1  0
 18 22  1  0
 23 21  1  0
 20 24  1  0
 21 25  1  0
 26 24  1  0
 27 19  2  0
 28 25  2  0
 29 26  2  0
 30 26  1  0
 31 25  1  0
 32 23  1  0
 33 23  1  0
 34 30  1  0
 35 34  2  0
 36 34  1  0
 37 35  1  0
 38 36  2  0
 39 38  1  0
 22 23  1  0
 18 20  1  0
 37 39  2  0
  1 40  1  0
  4 41  1  0
  4 42  1  0
  5 43  1  0
  5 44  1  0
  6 45  1  0
  6 46  1  0
  7 47  1  0
  8 48  1  0
  9 49  1  0
 10 50  1  0
 11 51  1  0
 12 52  1  0
 13 53  1  0
 14 54  1  0
 15 55  1  0
 16 56  1  0
 18 57  1  1
 20 58  1  1
 21 59  1  6
 24 60  1  0
 30 61  1  0
 30 62  1  0
 31 63  1  0
 32 64  1  0
 32 65  1  0
 32 66  1  0
 33 67  1  0
 33 68  1  0
 33 69  1  0
 35 70  1  0
 36 71  1  0
 37 72  1  0
 38 73  1  0
 39 74  1  0
M  END
> <Uni-Dock RESULT> 
ENERGY=   -4.806  LOWER_BOUND=    4.668  UPPER_BOUND=    6.977
INTER + INTRA:          -4.806
INTER:                  -4.806
INTRA:                   0.000
UNBOUND:                 0.000

$$$$

     RDKit          3D

 74 77  0  0  0  0  0  0  0  0999 V2000
   49.2945    7.9935   15.9811 N   0  0  0  0  0  0  0  0  0  0  0  0
   49.2314    8.7967   13.6676 C   0  0  0  0  0  0  0  0  0  0  0  0
   48.7634    7.1554   19.6533 C   0  0  0  0  0  0  0  0  0  0  0  0
   48.4887    8.6914   14.9789 C   0  0  0  0  0  0  0  0  0  0  0  0
   48.6052    7.9534   17.2733 C   0  0  0  0  0  0  0  0  0  0  0  0
   49.4519    7.2040   18.3105 C   0  0  0  0  0  0  0  0  0  0  0  0
   48.9944    8.1550   20.6078 C   0  0  0  0  0  0  0  0  0  0  0  0
   47.8591    6.1270   19.9499 C   0  0  0  0  0  0  0  0  0  0  0  0
   49.4751    7.6500   12.8968 C   0  0  0  0  0  0  0  0  0  0  0  0
   49.6956   10.0352   13.2028 C   0  0  0  0  0  0  0  0  0  0  0  0
   48.3388    8.1217   21.8398 C   0  0  0  0  0  0  0  0  0  0  0  0
   47.2038    6.0961   21.1825 C   0  0  0  0  0  0  0  0  0  0  0  0
   50.1585    7.7410   11.6832 C   0  0  0  0  0  0  0  0  0  0  0  0
   50.3792   10.1249   11.9884 C   0  0  0  0  0  0  0  0  0  0  0  0
   47.4436    7.0933   22.1270 C   0  0  0  0  0  0  0  0  0  0  0  0
   50.6094    8.9784   11.2292 C   0  0  0  0  0  0  0  0  0  0  0  0
   50.8742    8.1173   14.6395 N   0  0  0  0  0  0  0  0  0  0  0  0
   49.8815    7.1485   15.1504 C   0  0  1  0  0  0  0  0  0  0  0  0
   51.2223    8.5518   15.8898 C   0  0  0  0  0  0  0  0  0  0  0  0
   50.4342    7.4124   16.5715 C   0  0  1  0  0  0  0  0  0  0  0  0
   50.4221    9.1034   13.6528 C   0  0  2  0  0  0  0  0  0  0  0  0
   48.2718    7.8973   14.6749 S   0  0  0  0  0  0  0  0  0  0  0  0
   49.0268    8.6622   13.1603 C   0  0  0  0  0  0  0  0  0  0  0  0
   49.4705    7.8269   17.6238 N   0  0  0  0  0  0  0  0  0  0  0  0
   51.4166    9.3202   12.5144 C   0  0  0  0  0  0  0  0  0  0  0  0
   48.5697    6.9242   18.1449 C   0  0  0  0  0  0  0  0  0  0  0  0
   51.8001    9.5502   16.2546 O   0  0  0  0  0  0  0  0  0  0  0  0
   51.2784   10.1140   11.5957 O   0  0  0  0  0  0  0  0  0  0  0  0
   48.5263    5.7548   17.7667 O   0  0  0  0  0  0  0  0  0  0  0  0
   47.6537    7.4869   19.2151 C   0  0  0  0  0  0  0  0  0  0  0  0
   52.5077    8.5313   12.5571 O   0  0  0  0  0  0  0  0  0  0  0  0
   49.0580    7.5994   12.0521 C   0  0  0  0  0  0  0  0  0  0  0  0
   48.1620    9.8500   12.7322 C   0  0  0  0  0  0  0  0  0  0  0  0
   47.9953    6.9786   20.5932 C   0  0  0  0  0  0  0  0  0  0  0  0
   47.5485    5.7156   21.0103 C   0  0  0  0  0  0  0  0  0  0  0  0
   48.7815    7.7453   21.4662 C   0  0  0  0  0  0  0  0  0  0  0  0
   47.8690    5.2339   22.2808 C   0  0  0  0  0  0  0  0  0  0  0  0
   49.1009    7.2610   22.7370 C   0  0  0  0  0  0  0  0  0  0  0  0
   48.6430    6.0075   23.1450 C   0  0  0  0  0  0  0  0  0  0  0  0
   50.1849    8.4804   16.0778 H   0  0  0  0  0  0  0  0  0  0  0  0
   47.5470    8.1569   14.8015 H   0  0  0  0  0  0  0  0  0  0  0  0
   48.2271    9.6966   15.3329 H   0  0  0  0  0  0  0  0  0  0  0  0
   47.6367    7.4496   17.1619 H   0  0  0  0  0  0  0  0  0  0  0  0
   48.4075    8.9735   17.6264 H   0  0  0  0  0  0  0  0  0  0  0  0
   49.6537    6.1803   17.9691 H   0  0  0  0  0  0  0  0  0  0  0  0
   50.4328    7.6840   18.4225 H   0  0  0  0  0  0  0  0  0  0  0  0
   49.6883    8.9657   20.3981 H   0  0  0  0  0  0  0  0  0  0  0  0
   47.6592    5.3447   19.2203 H   0  0  0  0  0  0  0  0  0  0  0  0
   49.1355    6.6791   13.2505 H   0  0  0  0  0  0  0  0  0  0  0  0
   49.5284   10.9393   13.7832 H   0  0  0  0  0  0  0  0  0  0  0  0
   48.5272    8.8999   22.5750 H   0  0  0  0  0  0  0  0  0  0  0  0
   46.5048    5.2939   21.4049 H   0  0  0  0  0  0  0  0  0  0  0  0
   50.3406    6.8460   11.0945 H   0  0  0  0  0  0  0  0  0  0  0  0
   50.7326   11.0897   11.6344 H   0  0  0  0  0  0  0  0  0  0  0  0
   46.9334    7.0678   23.0867 H   0  0  0  0  0  0  0  0  0  0  0  0
   51.1421    9.0489   10.2846 H   0  0  0  0  0  0  0  0  0  0  0  0
   50.0492    6.1374   14.7675 H   0  0  0  0  0  0  0  0  0  0  0  0
   51.1034    6.6266   16.9433 H   0  0  0  0  0  0  0  0  0  0  0  0
   50.3524   10.0725   14.1684 H   0  0  0  0  0  0  0  0  0  0  0  0
   49.5376    8.7548   18.0285 H   0  0  0  0  0  0  0  0  0  0  0  0
   47.6813    8.5833   19.2009 H   0  0  0  0  0  0  0  0  0  0  0  0
   46.6226    7.2155   18.9560 H   0  0  0  0  0  0  0  0  0  0  0  0
   53.0472    8.8082   11.7872 H   0  0  0  0  0  0  0  0  0  0  0  0
   49.7038    6.7506   12.3056 H   0  0  0  0  0  0  0  0  0  0  0  0
   48.0556    7.2061   11.8440 H   0  0  0  0  0  0  0  0  0  0  0  0
   49.4336    8.0208   11.1120 H   0  0  0  0  0  0  0  0  0  0  0  0
   48.5655   10.3199   11.8305 H   0  0  0  0  0  0  0  0  0  0  0  0
   47.1357    9.5423   12.5029 H   0  0  0  0  0  0  0  0  0  0  0  0
   48.1162   10.6214   13.5080 H   0  0  0  0  0  0  0  0  0  0  0  0
   46.9540    5.0956   20.3411 H   0  0  0  0  0  0  0  0  0  0  0  0
   49.1508    8.7252   21.1670 H   0  0  0  0  0  0  0  0  0  0  0  0
   47.5167    4.2528   22.5929 H   0  0  0  0  0  0  0  0  0  0  0  0
   49.7088    7.8606   23.4102 H   0  0  0  0  0  0  0  0  0  0  0  0
   48.8934    5.6310   24.1344 H   0  0  0  0  0  0  0  0  0  0  0  0
  2  4  1  0
  3  6  1  0
  4  1  1  0
  5  1  1  0
  6  5  1  0
  7  3  2  0
  8  3  1  0
  9  2  2  0
 10  2  1  0
 11  7  1  0
 12  8  2  0
 13  9  1  0
 14 10  2  0
 15 12  1  0
 16 14  1  0
 13 16  2  0
 11 15  2  0
 18 17  1  0
 19 17  1  0
 20 19  1  0
 21 17  1  0
 18 22  1  0
 23 21  1  0
 20 24  1  0
 21 25  1  0
 26 24  1  0
 27 19  2  0
 28 25  2  0
 29 26  2  0
 30 26  1  0
 31 25  1  0
 32 23  1  0
 33 23  1  0
 34 30  1  0
 35 34  2  0
 36 34  1  0
 37 35  1  0
 38 36  2  0
 39 38  1  0
 22 23  1  0
 18 20  1  0
 37 39  2  0
  1 40  1  0
  4 41  1  0
  4 42  1  0
  5 43  1  0
  5 44  1  0
  6 45  1  0
  6 46  1  0
  7 47  1  0
  8 48  1  0
  9 49  1  0
 10 50  1  0
 11 51  1  0
 12 52  1  0
 13 53  1  0
 14 54  1  0
 15 55  1  0
 16 56  1  0
 18 57  1  1
 20 58  1  1
 21 59  1  6
 24 60  1  0
 30 61  1  0
 30 62  1  0
 31 63  1  0
 32 64  1  0
 32 65  1  0
 32 66  1  0
 33 67  1  0
 33 68  1  0
 33 69  1  0
 35 70  1  0
 36 71  1  0
 37 72  1  0
 38 73  1  0
 39 74  1  0
M  END
> <Uni-Dock RESULT> 
ENERGY=   -4.788  LOWER_BOUND=    4.618  UPPER_BOUND=    7.075
INTER + INTRA:          -4.788
INTER:                  -4.788
INTRA:                   0.000
UNBOUND:                 0.000

$$$$

     RDKit          3D

 74 77  0  0  0  0  0  0  0  0999 V2000
   48.9439    8.9753   15.9888 N   0  0  0  0  0  0  0  0  0  0  0  0
   48.8091    8.9582   13.5428 C   0  0  0  0  0  0  0  0  0  0  0  0
   48.3993    8.9988   19.7535 C   0  0  0  0  0  0  0  0  0  0  0  0
   48.0505    8.8145   14.8413 C   0  0  0  0  0  0  0  0  0  0  0  0
   48.1979    8.9074   17.2479 C   0  0  0  0  0  0  0  0  0  0  0  0
   49.1476    9.0595   18.4435 C   0  0  0  0  0  0  0  0  0  0  0  0
   47.9174   10.1705   20.3523 C   0  0  0  0  0  0  0  0  0  0  0  0
   48.1487    7.7662   20.3708 C   0  0  0  0  0  0  0  0  0  0  0  0
   49.7375    7.9816   13.1522 C   0  0  0  0  0  0  0  0  0  0  0  0
   48.6061   10.0690   12.7119 C   0  0  0  0  0  0  0  0  0  0  0  0
   47.2049   10.1106   21.5513 C   0  0  0  0  0  0  0  0  0  0  0  0
   47.4351    7.7085   21.5695 C   0  0  0  0  0  0  0  0  0  0  0  0
   50.4396    8.1073   11.9525 C   0  0  0  0  0  0  0  0  0  0  0  0
   49.3093   10.1936   11.5118 C   0  0  0  0  0  0  0  0  0  0  0  0
   46.9633    8.8804   22.1594 C   0  0  0  0  0  0  0  0  0  0  0  0
   50.2247    9.2128   11.1326 C   0  0  0  0  0  0  0  0  0  0  0  0
   50.3947    9.5878   14.6357 N   0  0  0  0  0  0  0  0  0  0  0  0
   50.0067    8.4105   15.4411 C   0  0  1  0  0  0  0  0  0  0  0  0
   50.2670   10.4566   15.6856 C   0  0  0  0  0  0  0  0  0  0  0  0
   50.1149    9.3030   16.7006 C   0  0  1  0  0  0  0  0  0  0  0  0
   49.6404    9.8541   13.4067 C   0  0  2  0  0  0  0  0  0  0  0  0
   48.3377    7.9864   14.7988 S   0  0  0  0  0  0  0  0  0  0  0  0
   48.7859    8.6038   13.1056 C   0  0  0  0  0  0  0  0  0  0  0  0
   48.9341    9.3788   17.5995 N   0  0  0  0  0  0  0  0  0  0  0  0
   50.5237   10.2710   12.2329 C   0  0  0  0  0  0  0  0  0  0  0  0
   48.5860    8.3072   18.3922 C   0  0  0  0  0  0  0  0  0  0  0  0
   50.1627   11.6616   15.7150 O   0  0  0  0  0  0  0  0  0  0  0  0
   50.1231   10.5769   11.1197 O   0  0  0  0  0  0  0  0  0  0  0  0
   49.2286    7.2587   18.3893 O   0  0  0  0  0  0  0  0  0  0  0  0
   47.3635    8.5312   19.2619 C   0  0  0  0  0  0  0  0  0  0  0  0
   51.8464   10.2618   12.4876 O   0  0  0  0  0  0  0  0  0  0  0  0
   49.5429    7.4860   12.3733 C   0  0  0  0  0  0  0  0  0  0  0  0
   47.4969    8.9504   12.3570 C   0  0  0  0  0  0  0  0  0  0  0  0
   47.7130    8.6856   20.7207 C   0  0  0  0  0  0  0  0  0  0  0  0
   47.9507    7.5524   21.5131 C   0  0  0  0  0  0  0  0  0  0  0  0
   47.8299    9.9581   21.2995 C   0  0  0  0  0  0  0  0  0  0  0  0
   48.2845    7.6875   22.8620 C   0  0  0  0  0  0  0  0  0  0  0  0
   48.1641   10.0907   22.6495 C   0  0  0  0  0  0  0  0  0  0  0  0
   48.3888    8.9563   23.4307 C   0  0  0  0  0  0  0  0  0  0  0  0
   49.4123    9.8774   15.9112 H   0  0  0  0  0  0  0  0  0  0  0  0
   47.5766    7.8250   14.8577 H   0  0  0  0  0  0  0  0  0  0  0  0
   47.2447    9.5585   14.8785 H   0  0  0  0  0  0  0  0  0  0  0  0
   47.6756    7.9450   17.3186 H   0  0  0  0  0  0  0  0  0  0  0  0
   47.4376    9.6983   17.2782 H   0  0  0  0  0  0  0  0  0  0  0  0
   49.9115    8.2712   18.4253 H   0  0  0  0  0  0  0  0  0  0  0  0
   49.6929   10.0102   18.3804 H   0  0  0  0  0  0  0  0  0  0  0  0
   48.0956   11.1381   19.8891 H   0  0  0  0  0  0  0  0  0  0  0  0
   48.5074    6.8434   19.9191 H   0  0  0  0  0  0  0  0  0  0  0  0
   49.9184    7.1213   13.7928 H   0  0  0  0  0  0  0  0  0  0  0  0
   47.8991   10.8456   12.9932 H   0  0  0  0  0  0  0  0  0  0  0  0
   46.8381   11.0254   22.0098 H   0  0  0  0  0  0  0  0  0  0  0  0
   47.2464    6.7481   22.0424 H   0  0  0  0  0  0  0  0  0  0  0  0
   51.1557    7.3439   11.6602 H   0  0  0  0  0  0  0  0  0  0  0  0
   49.1432   11.0566   10.8724 H   0  0  0  0  0  0  0  0  0  0  0  0
   46.4085    8.8344   23.0932 H   0  0  0  0  0  0  0  0  0  0  0  0
   50.7720    9.3108   10.1989 H   0  0  0  0  0  0  0  0  0  0  0  0
   50.7417    7.6024   15.3804 H   0  0  0  0  0  0  0  0  0  0  0  0
   51.0352    9.1510   17.2779 H   0  0  0  0  0  0  0  0  0  0  0  0
   48.9896   10.7186   13.6042 H   0  0  0  0  0  0  0  0  0  0  0  0
   48.4358   10.2567   17.7006 H   0  0  0  0  0  0  0  0  0  0  0  0
   46.8051    9.4088   18.9137 H   0  0  0  0  0  0  0  0  0  0  0  0
   46.6873    7.6783   19.1224 H   0  0  0  0  0  0  0  0  0  0  0  0
   52.2636   10.5732   11.6572 H   0  0  0  0  0  0  0  0  0  0  0  0
   50.4950    7.2398   12.8577 H   0  0  0  0  0  0  0  0  0  0  0  0
   48.9479    6.5664   12.3190 H   0  0  0  0  0  0  0  0  0  0  0  0
   49.7719    7.7757   11.3408 H   0  0  0  0  0  0  0  0  0  0  0  0
   47.7177    9.3041   11.3456 H   0  0  0  0  0  0  0  0  0  0  0  0
   46.8396    8.0795   12.2569 H   0  0  0  0  0  0  0  0  0  0  0  0
   46.9324    9.7414   12.8619 H   0  0  0  0  0  0  0  0  0  0  0  0
   47.8850    6.5559   21.0791 H   0  0  0  0  0  0  0  0  0  0  0  0
   47.6608   10.8563   20.7074 H   0  0  0  0  0  0  0  0  0  0  0  0
   48.4664    6.8011   23.4664 H   0  0  0  0  0  0  0  0  0  0  0  0
   48.2513   11.0795   23.0933 H   0  0  0  0  0  0  0  0  0  0  0  0
   48.6502    9.0610   24.4814 H   0  0  0  0  0  0  0  0  0  0  0  0
  2  4  1  0
  3  6  1  0
  4  1  1  0
  5  1  1  0
  6  5  1  0
  7  3  2  0
  8  3  1  0
  9  2  2  0
 10  2  1  0
 11  7  1  0
 12  8  2  0
 13  9  1  0
 14 10  2  0
 15 12  1  0
 16 14  1  0
 13 16  2  0
 11 15  2  0
 18 17  1  0
 19 17  1  0
 20 19  1  0
 21 17  1  0
 18 22  1  0
 23 21  1  0
 20 24  1  0
 21 25  1  0
 26 24  1  0
 27 19  2  0
 28 25  2  0
 29 26  2  0
 30 26  1  0
 31 25  1  0
 32 23  1  0
 33 23  1  0
 34 30  1  0
 35 34  2  0
 36 34  1  0
 37 35  1  0
 38 36  2  0
 39 38  1  0
 22 23  1  0
 18 20  1  0
 37 39  2  0
  1 40  1  0
  4 41  1  0
  4 42  1  0
  5 43  1  0
  5 44  1  0
  6 45  1  0
  6 46  1  0
  7 47  1  0
  8 48  1  0
  9 49  1  0
 10 50  1  0
 11 51  1  0
 12 52  1  0
 13 53  1  0
 14 54  1  0
 15 55  1  0
 16 56  1  0
 18 57  1  1
 20 58  1  1
 21 59  1  6
 24 60  1  0
 30 61  1  0
 30 62  1  0
 31 63  1  0
 32 64  1  0
 32 65  1  0
 32 66  1  0
 33 67  1  0
 33 68  1  0
 33 69  1  0
 35 70  1  0
 36 71  1  0
 37 72  1  0
 38 73  1  0
 39 74  1  0
M  END
> <Uni-Dock RESULT> 
ENERGY=   -4.768  LOWER_BOUND=    4.403  UPPER_BOUND=    7.332
INTER + INTRA:          -4.768
INTER:                  -4.768
INTRA:                   0.000
UNBOUND:                 0.000

$$$$

     RDKit          3D

 74 77  0  0  0  0  0  0  0  0999 V2000
   51.1794    8.6198   12.3416 N   0  0  0  0  0  0  0  0  0  0  0  0
   49.4287    9.2893   13.9190 C   0  0  0  0  0  0  0  0  0  0  0  0
   53.3679    7.1197    9.6158 C   0  0  0  0  0  0  0  0  0  0  0  0
   49.7543    8.5229   12.6585 C   0  0  0  0  0  0  0  0  0  0  0  0
   51.5097    7.8188   11.1601 C   0  0  0  0  0  0  0  0  0  0  0  0
   53.0025    7.9427   10.8277 C   0  0  0  0  0  0  0  0  0  0  0  0
   53.8022    5.7952    9.7600 C   0  0  0  0  0  0  0  0  0  0  0  0
   53.2458    7.6598    8.3286 C   0  0  0  0  0  0  0  0  0  0  0  0
   49.4938   10.6907   13.9335 C   0  0  0  0  0  0  0  0  0  0  0  0
   49.0647    8.6171   15.0942 C   0  0  0  0  0  0  0  0  0  0  0  0
   54.1167    5.0278    8.6370 C   0  0  0  0  0  0  0  0  0  0  0  0
   53.5601    6.8901    7.2069 C   0  0  0  0  0  0  0  0  0  0  0  0
   49.1918   11.4046   15.0942 C   0  0  0  0  0  0  0  0  0  0  0  0
   48.7627    9.3325   16.2548 C   0  0  0  0  0  0  0  0  0  0  0  0
   53.9953    5.5746    7.3611 C   0  0  0  0  0  0  0  0  0  0  0  0
   48.8256   10.7253   16.2539 C   0  0  0  0  0  0  0  0  0  0  0  0
   51.4232    9.5005   14.2060 N   0  0  0  0  0  0  0  0  0  0  0  0
   51.3527    9.8576   12.7732 C   0  0  1  0  0  0  0  0  0  0  0  0
   52.3094    8.4787   13.9968 C   0  0  0  0  0  0  0  0  0  0  0  0
   52.5465    8.9032   12.5313 C   0  0  1  0  0  0  0  0  0  0  0  0
   50.1650    9.2091   14.9006 C   0  0  2  0  0  0  0  0  0  0  0  0
   49.6690    9.3100   12.2801 S   0  0  0  0  0  0  0  0  0  0  0  0
   49.0104    9.6616   13.9806 C   0  0  0  0  0  0  0  0  0  0  0  0
   52.3842    7.8357   11.5104 N   0  0  0  0  0  0  0  0  0  0  0  0
   50.0898    9.8199   16.2981 C   0  0  0  0  0  0  0  0  0  0  0  0
   52.3638    8.1459   10.1683 C   0  0  0  0  0  0  0  0  0  0  0  0
   52.6223    7.5398   14.6928 O   0  0  0  0  0  0  0  0  0  0  0  0
   49.1596    9.6868   17.0794 O   0  0  0  0  0  0  0  0  0  0  0  0
   52.4777    9.3020    9.7650 O   0  0  0  0  0  0  0  0  0  0  0  0
   52.1984    6.9548    9.2437 C   0  0  0  0  0  0  0  0  0  0  0  0
   51.1481   10.5788   16.6427 O   0  0  0  0  0  0  0  0  0  0  0  0
   48.6868   11.1604   14.0682 C   0  0  0  0  0  0  0  0  0  0  0  0
   47.7423    8.8316   14.1926 C   0  0  0  0  0  0  0  0  0  0  0  0
   53.4668    6.6207    8.4996 C   0  0  0  0  0  0  0  0  0  0  0  0
   53.8213    7.3425    7.3498 C   0  0  0  0  0  0  0  0  0  0  0  0
   54.3203    5.6055    8.9565 C   0  0  0  0  0  0  0  0  0  0  0  0
   54.9989    7.0459    6.6611 C   0  0  0  0  0  0  0  0  0  0  0  0
   55.4983    5.3106    8.2657 C   0  0  0  0  0  0  0  0  0  0  0  0
   55.8361    6.0284    7.1176 C   0  0  0  0  0  0  0  0  0  0  0  0
   51.7134    8.2899   13.1449 H   0  0  0  0  0  0  0  0  0  0  0  0
   49.1489    8.9307   11.8392 H   0  0  0  0  0  0  0  0  0  0  0  0
   49.4622    7.4725   12.7832 H   0  0  0  0  0  0  0  0  0  0  0  0
   50.9166    8.1604   10.3024 H   0  0  0  0  0  0  0  0  0  0  0  0
   51.2576    6.7654   11.3369 H   0  0  0  0  0  0  0  0  0  0  0  0
   53.2660    8.9928   10.6459 H   0  0  0  0  0  0  0  0  0  0  0  0
   53.6126    7.6217   11.6820 H   0  0  0  0  0  0  0  0  0  0  0  0
   53.9000    5.3532   10.7487 H   0  0  0  0  0  0  0  0  0  0  0  0
   52.9032    8.6837    8.1934 H   0  0  0  0  0  0  0  0  0  0  0  0
   49.7898   11.2271   13.0347 H   0  0  0  0  0  0  0  0  0  0  0  0
   49.0140    7.5311   15.1145 H   0  0  0  0  0  0  0  0  0  0  0  0
   54.4561    4.0024    8.7593 H   0  0  0  0  0  0  0  0  0  0  0  0
   53.4639    7.3173    6.2120 H   0  0  0  0  0  0  0  0  0  0  0  0
   49.2451   12.4900   15.0930 H   0  0  0  0  0  0  0  0  0  0  0  0
   48.4784    8.8031   17.1603 H   0  0  0  0  0  0  0  0  0  0  0  0
   54.2405    4.9764    6.4870 H   0  0  0  0  0  0  0  0  0  0  0  0
   48.5911   11.2814   17.1577 H   0  0  0  0  0  0  0  0  0  0  0  0
   51.5620   10.9168   12.5960 H   0  0  0  0  0  0  0  0  0  0  0  0
   53.5097    9.4143   12.4112 H   0  0  0  0  0  0  0  0  0  0  0  0
   50.1218    8.1209   15.0546 H   0  0  0  0  0  0  0  0  0  0  0  0
   52.3823    6.8626   11.7976 H   0  0  0  0  0  0  0  0  0  0  0  0
   51.8521    6.0805    9.8084 H   0  0  0  0  0  0  0  0  0  0  0  0
   51.3928    7.1849    8.5351 H   0  0  0  0  0  0  0  0  0  0  0  0
   50.9604   10.8688   17.5599 H   0  0  0  0  0  0  0  0  0  0  0  0
   49.5801   11.7872   13.9637 H   0  0  0  0  0  0  0  0  0  0  0  0
   47.9733   11.4635   13.2926 H   0  0  0  0  0  0  0  0  0  0  0  0
   48.2294   11.4092   15.0332 H   0  0  0  0  0  0  0  0  0  0  0  0
   47.3128    9.0230   15.1804 H   0  0  0  0  0  0  0  0  0  0  0  0
   46.9706    9.0746   13.4537 H   0  0  0  0  0  0  0  0  0  0  0  0
   47.9429    7.7570   14.1282 H   0  0  0  0  0  0  0  0  0  0  0  0
   53.1833    8.1479    6.9893 H   0  0  0  0  0  0  0  0  0  0  0  0
   54.0767    5.0346    9.8513 H   0  0  0  0  0  0  0  0  0  0  0  0
   55.2631    7.6126    5.7706 H   0  0  0  0  0  0  0  0  0  0  0  0
   56.1550    4.5212    8.6233 H   0  0  0  0  0  0  0  0  0  0  0  0
   56.7542    5.7986    6.5813 H   0  0  0  0  0  0  0  0  0  0  0  0
  2  4  1  0
  3  6  1  0
  4  1  1  0
  5  1  1  0
  6  5  1  0
  7  3  2  0
  8  3  1  0
  9  2  2  0
 10  2  1  0
 11  7  1  0
 12  8  2  0
 13  9  1  0
 14 10  2  0
 15 12  1  0
 16 14  1  0
 13 16  2  0
 11 15  2  0
 18 17  1  0
 19 17  1  0
 20 19  1  0
 21 17  1  0
 18 22  1  0
 23 21  1  0
 20 24  1  0
 21 25  1  0
 26 24  1  0
 27 19  2  0
 28 25  2  0
 29 26  2  0
 30 26  1  0
 31 25  1  0
 32 23  1  0
 33 23  1  0
 34 30  1  0
 35 34  2  0
 36 34  1  0
 37 35  1  0
 38 36  2  0
 39 38  1  0
 22 23  1  0
 18 20  1  0
 37 39  2  0
  1 40  1  0
  4 41  1  0
  4 42  1  0
  5 43  1  0
  5 44  1  0
  6 45  1  0
  6 46  1  0
  7 47  1  0
  8 48  1  0
  9 49  1  0
 10 50  1  0
 11 51  1  0
 12 52  1  0
 13 53  1  0
 14 54  1  0
 15 55  1  0
 16 56  1  0
 18 57  1  1
 20 58  1  1
 21 59  1  6
 24 60  1  0
 30 61  1  0
 30 62  1  0
 31 63  1  0
 32 64  1  0
 32 65  1  0
 32 66  1  0
 33 67  1  0
 33 68  1  0
 33 69  1  0
 35 70  1  0
 36 71  1  0
 37 72  1  0
 38 73  1  0
 39 74  1  0
M  END
> <Uni-Dock RESULT> 
ENERGY=   -4.757  LOWER_BOUND=    4.865  UPPER_BOUND=    6.974
INTER + INTRA:          -4.757
INTER:                  -4.757
INTRA:                   0.000
UNBOUND:                 0.000

$$$$
