
     RDKit          3D

 74 77  0  0  0  0  0  0  0  0999 V2000
   49.5128    7.0080   19.1350 N   0  0  0  0  0  0  0  0  0  0  0  0
   49.0659    5.2720   17.3957 C   0  0  0  0  0  0  0  0  0  0  0  0
   47.7265    9.5122   19.3103 C   0  0  0  0  0  0  0  0  0  0  0  0
   49.5433    6.6709   17.7097 C   0  0  0  0  0  0  0  0  0  0  0  0
   48.1658    7.0225   19.7233 C   0  0  0  0  0  0  0  0  0  0  0  0
   47.2023    8.0997   19.1906 C   0  0  0  0  0  0  0  0  0  0  0  0
   47.9898   10.2721   18.1619 C   0  0  0  0  0  0  0  0  0  0  0  0
   47.9616   10.0832   20.5685 C   0  0  0  0  0  0  0  0  0  0  0  0
   49.6451    4.1602   18.0258 C   0  0  0  0  0  0  0  0  0  0  0  0
   48.0454    5.0627   16.4558 C   0  0  0  0  0  0  0  0  0  0  0  0
   48.4885   11.5717   18.2709 C   0  0  0  0  0  0  0  0  0  0  0  0
   48.4605   11.3822   20.6754 C   0  0  0  0  0  0  0  0  0  0  0  0
   49.2040    2.8687   17.7345 C   0  0  0  0  0  0  0  0  0  0  0  0
   47.6074    3.7697   16.1630 C   0  0  0  0  0  0  0  0  0  0  0  0
   48.7260   12.1252   19.5272 C   0  0  0  0  0  0  0  0  0  0  0  0
   48.1831    2.6751   16.8049 C   0  0  0  0  0  0  0  0  0  0  0  0
   50.4633    5.4369   17.4688 N   0  0  0  0  0  0  0  0  0  0  0  0
   49.9618    5.9936   18.7393 C   0  0  1  0  0  0  0  0  0  0  0  0
   50.2333    6.5850   16.7692 C   0  0  0  0  0  0  0  0  0  0  0  0
   50.0072    7.3943   18.0671 C   0  0  1  0  0  0  0  0  0  0  0  0
   49.9071    4.1600   17.0384 C   0  0  2  0  0  0  0  0  0  0  0  0
   48.3079    5.2242   18.9849 S   0  0  0  0  0  0  0  0  0  0  0  0
   48.4444    4.0854   17.5311 C   0  0  0  0  0  0  0  0  0  0  0  0
   48.7758    8.2276   18.0981 N   0  0  0  0  0  0  0  0  0  0  0  0
   50.8039    3.0553   17.5901 C   0  0  0  0  0  0  0  0  0  0  0  0
   48.3550    8.8209   19.2703 C   0  0  0  0  0  0  0  0  0  0  0  0
   50.1301    6.7873   15.5814 O   0  0  0  0  0  0  0  0  0  0  0  0
   51.4544    3.0698   18.6234 O   0  0  0  0  0  0  0  0  0  0  0  0
   48.9703    8.6843   20.3253 O   0  0  0  0  0  0  0  0  0  0  0  0
   47.0773    9.6320   19.1468 C   0  0  0  0  0  0  0  0  0  0  0  0
   50.8124    1.9560   16.8036 O   0  0  0  0  0  0  0  0  0  0  0  0
   47.9810    2.6909   17.9729 C   0  0  0  0  0  0  0  0  0  0  0  0
   47.4747    4.6005   16.4550 C   0  0  0  0  0  0  0  0  0  0  0  0
   47.2843   11.0964   19.4469 C   0  0  0  0  0  0  0  0  0  0  0  0
   47.4980   12.0178   18.4107 C   0  0  0  0  0  0  0  0  0  0  0  0
   47.2865   11.5528   20.7742 C   0  0  0  0  0  0  0  0  0  0  0  0
   47.6952   13.3713   18.6981 C   0  0  0  0  0  0  0  0  0  0  0  0
   47.4816   12.9064   21.0589 C   0  0  0  0  0  0  0  0  0  0  0  0
   47.6830   13.8155   20.0210 C   0  0  0  0  0  0  0  0  0  0  0  0
   49.9207    7.9366   19.2493 H   0  0  0  0  0  0  0  0  0  0  0  0
   48.9875    7.4133   17.1261 H   0  0  0  0  0  0  0  0  0  0  0  0
   50.5820    6.7452   17.3637 H   0  0  0  0  0  0  0  0  0  0  0  0
   47.6942    6.0381   19.6236 H   0  0  0  0  0  0  0  0  0  0  0  0
   48.2956    7.1691   20.8026 H   0  0  0  0  0  0  0  0  0  0  0  0
   46.9433    7.8805   18.1479 H   0  0  0  0  0  0  0  0  0  0  0  0
   46.2571    8.0397   19.7458 H   0  0  0  0  0  0  0  0  0  0  0  0
   47.8127    9.8572   17.1725 H   0  0  0  0  0  0  0  0  0  0  0  0
   47.7607    9.5193   21.4766 H   0  0  0  0  0  0  0  0  0  0  0  0
   50.4331    4.3035   18.7627 H   0  0  0  0  0  0  0  0  0  0  0  0
   47.5809    5.9052   15.9494 H   0  0  0  0  0  0  0  0  0  0  0  0
   48.6955   12.1518   17.3738 H   0  0  0  0  0  0  0  0  0  0  0  0
   48.6446   11.8130   21.6547 H   0  0  0  0  0  0  0  0  0  0  0  0
   49.6493    2.0182   18.2409 H   0  0  0  0  0  0  0  0  0  0  0  0
   46.8108    3.6167   15.4391 H   0  0  0  0  0  0  0  0  0  0  0  0
   49.1182   13.1352   19.6116 H   0  0  0  0  0  0  0  0  0  0  0  0
   47.8363    1.6696   16.5820 H   0  0  0  0  0  0  0  0  0  0  0  0
   50.6605    5.8532   19.5694 H   0  0  0  0  0  0  0  0  0  0  0  0
   50.8893    7.9912   18.3314 H   0  0  0  0  0  0  0  0  0  0  0  0
   49.9661    4.1158   15.9438 H   0  0  0  0  0  0  0  0  0  0  0  0
   48.2771    8.4148   17.2363 H   0  0  0  0  0  0  0  0  0  0  0  0
   46.3364    9.2023   19.8340 H   0  0  0  0  0  0  0  0  0  0  0  0
   46.6464    9.5214   18.1434 H   0  0  0  0  0  0  0  0  0  0  0  0
   51.4170    1.3369   17.2626 H   0  0  0  0  0  0  0  0  0  0  0  0
   48.0552    1.9764   17.1445 H   0  0  0  0  0  0  0  0  0  0  0  0
   48.5716    2.2987   18.8081 H   0  0  0  0  0  0  0  0  0  0  0  0
   46.9321    2.6978   18.2938 H   0  0  0  0  0  0  0  0  0  0  0  0
   47.6960    5.6265   16.1428 H   0  0  0  0  0  0  0  0  0  0  0  0
   47.5261    3.9698   15.5590 H   0  0  0  0  0  0  0  0  0  0  0  0
   46.4350    4.5790   16.8041 H   0  0  0  0  0  0  0  0  0  0  0  0
   47.5114   11.6904   17.3720 H   0  0  0  0  0  0  0  0  0  0  0  0
   47.1441   10.8521   21.5962 H   0  0  0  0  0  0  0  0  0  0  0  0
   47.8600   14.0810   17.8914 H   0  0  0  0  0  0  0  0  0  0  0  0
   47.4819   13.2483   22.0929 H   0  0  0  0  0  0  0  0  0  0  0  0
   47.8358   14.8694   20.2434 H   0  0  0  0  0  0  0  0  0  0  0  0
  2  4  1  0
  3  6  1  0
  4  1  1  0
  5  1  1  0
  6  5  1  0
  7  3  2  0
  8  3  1  0
  9  2  2  0
 10  2  1  0
 11  7  1  0
 12  8  2  0
 13  9  1  0
 14 10  2  0
 15 12  1  0
 16 14  1  0
 13 16  2  0
 11 15  2  0
 18 17  1  0
 19 17  1  0
 20 19  1  0
 21 17  1  0
 18 22  1  0
 23 21  1  0
 20 24  1  0
 21 25  1  0
 26 24  1  0
 27 19  2  0
 28 25  2  0
 29 26  2  0
 30 26  1  0
 31 25  1  0
 32 23  1  0
 33 23  1  0
 34 30  1  0
 35 34  2  0
 36 34  1  0
 37 35  1  0
 38 36  2  0
 39 38  1  0
 22 23  1  0
 18 20  1  0
 37 39  2  0
  1 40  1  0
  4 41  1  0
  4 42  1  0
  5 43  1  0
  5 44  1  0
  6 45  1  0
  6 46  1  0
  7 47  1  0
  8 48  1  0
  9 49  1  0
 10 50  1  0
 11 51  1  0
 12 52  1  0
 13 53  1  0
 14 54  1  0
 15 55  1  0
 16 56  1  0
 18 57  1  1
 20 58  1  6
 21 59  1  6
 24 60  1  0
 30 61  1  0
 30 62  1  0
 31 63  1  0
 32 64  1  0
 32 65  1  0
 32 66  1  0
 33 67  1  0
 33 68  1  0
 33 69  1  0
 35 70  1  0
 36 71  1  0
 37 72  1  0
 38 73  1  0
 39 74  1  0
M  END
> <Uni-Dock RESULT> 
ENERGY=   -6.613  LOWER_BOUND=    0.000  UPPER_BOUND=    0.000
INTER + INTRA:          -6.613
INTER:                  -6.613
INTRA:                   0.000
UNBOUND:                 0.000

$$$$

     RDKit          3D

 74 77  0  0  0  0  0  0  0  0999 V2000
   48.5595    7.6928   12.9485 N   0  0  0  0  0  0  0  0  0  0  0  0
   49.1013    8.8518   15.0937 C   0  0  0  0  0  0  0  0  0  0  0  0
   45.7788    6.4320   12.5354 C   0  0  0  0  0  0  0  0  0  0  0  0
   48.8253    7.5478   14.3818 C   0  0  0  0  0  0  0  0  0  0  0  0
   47.3441    8.4575   12.6343 C   0  0  0  0  0  0  0  0  0  0  0  0
   46.0100    7.8253   13.0736 C   0  0  0  0  0  0  0  0  0  0  0  0
   45.7029    5.3369   13.4075 C   0  0  0  0  0  0  0  0  0  0  0  0
   45.6408    6.2115   11.1582 C   0  0  0  0  0  0  0  0  0  0  0  0
   50.1111    9.7142   14.6409 C   0  0  0  0  0  0  0  0  0  0  0  0
   48.3611    9.2127   16.2297 C   0  0  0  0  0  0  0  0  0  0  0  0
   45.5046    4.0474   12.9103 C   0  0  0  0  0  0  0  0  0  0  0  0
   45.4431    4.9217   10.6631 C   0  0  0  0  0  0  0  0  0  0  0  0
   50.3656   10.9178   15.2995 C   0  0  0  0  0  0  0  0  0  0  0  0
   48.6191   10.4158   16.8895 C   0  0  0  0  0  0  0  0  0  0  0  0
   45.3773    3.8400   11.5386 C   0  0  0  0  0  0  0  0  0  0  0  0
   49.6170   11.2687   16.4221 C   0  0  0  0  0  0  0  0  0  0  0  0
   50.2386    8.1060   14.7255 N   0  0  0  0  0  0  0  0  0  0  0  0
   49.4634    8.2320   13.4770 C   0  0  1  0  0  0  0  0  0  0  0  0
   49.5201    7.0358   15.1713 C   0  0  0  0  0  0  0  0  0  0  0  0
   48.8619    6.8328   13.7870 C   0  0  1  0  0  0  0  0  0  0  0  0
   50.3930    9.3085   15.5350 C   0  0  2  0  0  0  0  0  0  0  0  0
   48.3770    9.6966   13.7282 S   0  0  0  0  0  0  0  0  0  0  0  0
   49.1246   10.1725   15.3542 C   0  0  0  0  0  0  0  0  0  0  0  0
   47.3814    6.6915   13.7942 N   0  0  0  0  0  0  0  0  0  0  0  0
   51.6810    9.9994   15.0963 C   0  0  0  0  0  0  0  0  0  0  0  0
   46.6643    6.7218   12.6162 C   0  0  0  0  0  0  0  0  0  0  0  0
   49.3957    6.5647   16.2780 O   0  0  0  0  0  0  0  0  0  0  0  0
   52.1871    9.9964   13.9851 O   0  0  0  0  0  0  0  0  0  0  0  0
   47.2114    6.8685   11.5257 O   0  0  0  0  0  0  0  0  0  0  0  0
   45.1623    6.5748   12.7847 C   0  0  0  0  0  0  0  0  0  0  0  0
   52.2620   10.6942   16.0997 O   0  0  0  0  0  0  0  0  0  0  0  0
   49.3702   11.6871   15.3407 C   0  0  0  0  0  0  0  0  0  0  0  0
   48.0859    9.8592   16.4435 C   0  0  0  0  0  0  0  0  0  0  0  0
   44.6193    5.3330   12.1214 C   0  0  0  0  0  0  0  0  0  0  0  0
   44.4160    4.1565   12.8583 C   0  0  0  0  0  0  0  0  0  0  0  0
   44.3295    5.3340   10.7480 C   0  0  0  0  0  0  0  0  0  0  0  0
   43.9186    3.0090   12.2345 C   0  0  0  0  0  0  0  0  0  0  0  0
   43.8304    4.1865   10.1272 C   0  0  0  0  0  0  0  0  0  0  0  0
   43.6224    3.0254   10.8708 C   0  0  0  0  0  0  0  0  0  0  0  0
   48.4609    6.7588   12.5489 H   0  0  0  0  0  0  0  0  0  0  0  0
   48.0121    7.0002   14.8711 H   0  0  0  0  0  0  0  0  0  0  0  0
   49.7155    6.9174   14.5016 H   0  0  0  0  0  0  0  0  0  0  0  0
   47.4132    9.4714   13.0446 H   0  0  0  0  0  0  0  0  0  0  0  0
   47.3289    8.5904   11.5455 H   0  0  0  0  0  0  0  0  0  0  0  0
   45.9454    7.8225   14.1682 H   0  0  0  0  0  0  0  0  0  0  0  0
   45.1833    8.4627   12.7333 H   0  0  0  0  0  0  0  0  0  0  0  0
   45.8017    5.4781   14.4812 H   0  0  0  0  0  0  0  0  0  0  0  0
   45.6894    7.0430   10.4586 H   0  0  0  0  0  0  0  0  0  0  0  0
   50.6909    9.4543   13.7572 H   0  0  0  0  0  0  0  0  0  0  0  0
   47.5750    8.5623   16.6052 H   0  0  0  0  0  0  0  0  0  0  0  0
   45.4530    3.2027   13.5946 H   0  0  0  0  0  0  0  0  0  0  0  0
   45.3433    4.7611    9.5941 H   0  0  0  0  0  0  0  0  0  0  0  0
   51.1387   11.5838   14.9295 H   0  0  0  0  0  0  0  0  0  0  0  0
   48.0357   10.6916   17.7646 H   0  0  0  0  0  0  0  0  0  0  0  0
   45.2272    2.8356   11.1516 H   0  0  0  0  0  0  0  0  0  0  0  0
   49.8119   12.2084   16.9318 H   0  0  0  0  0  0  0  0  0  0  0  0
   50.0973    8.2790   12.5866 H   0  0  0  0  0  0  0  0  0  0  0  0
   49.3299    6.0096   13.2324 H   0  0  0  0  0  0  0  0  0  0  0  0
   50.5244    8.9999   16.5796 H   0  0  0  0  0  0  0  0  0  0  0  0
   46.9013    6.5060   14.6669 H   0  0  0  0  0  0  0  0  0  0  0  0
   44.6859    7.4711   12.3658 H   0  0  0  0  0  0  0  0  0  0  0  0
   44.8930    6.5690   13.8488 H   0  0  0  0  0  0  0  0  0  0  0  0
   53.0650   11.0792   15.6918 H   0  0  0  0  0  0  0  0  0  0  0  0
   49.8248   12.0153   16.2830 H   0  0  0  0  0  0  0  0  0  0  0  0
   50.0312   11.9967   14.5237 H   0  0  0  0  0  0  0  0  0  0  0  0
   48.4332   12.2461   15.2280 H   0  0  0  0  0  0  0  0  0  0  0  0
   47.7999    8.8023   16.4634 H   0  0  0  0  0  0  0  0  0  0  0  0
   48.4837   10.1071   17.4352 H   0  0  0  0  0  0  0  0  0  0  0  0
   47.1692   10.4463   16.3087 H   0  0  0  0  0  0  0  0  0  0  0  0
   44.6415    4.1237   13.9234 H   0  0  0  0  0  0  0  0  0  0  0  0
   44.4998    6.2295   10.1514 H   0  0  0  0  0  0  0  0  0  0  0  0
   43.7627    2.1002   12.8102 H   0  0  0  0  0  0  0  0  0  0  0  0
   43.6101    4.1994    9.0607 H   0  0  0  0  0  0  0  0  0  0  0  0
   43.2346    2.1319   10.3866 H   0  0  0  0  0  0  0  0  0  0  0  0
  2  4  1  0
  3  6  1  0
  4  1  1  0
  5  1  1  0
  6  5  1  0
  7  3  2  0
  8  3  1  0
  9  2  2  0
 10  2  1  0
 11  7  1  0
 12  8  2  0
 13  9  1  0
 14 10  2  0
 15 12  1  0
 16 14  1  0
 13 16  2  0
 11 15  2  0
 18 17  1  0
 19 17  1  0
 20 19  1  0
 21 17  1  0
 18 22  1  0
 23 21  1  0
 20 24  1  0
 21 25  1  0
 26 24  1  0
 27 19  2  0
 28 25  2  0
 29 26  2  0
 30 26  1  0
 31 25  1  0
 32 23  1  0
 33 23  1  0
 34 30  1  0
 35 34  2  0
 36 34  1  0
 37 35  1  0
 38 36  2  0
 39 38  1  0
 22 23  1  0
 18 20  1  0
 37 39  2  0
  1 40  1  0
  4 41  1  0
  4 42  1  0
  5 43  1  0
  5 44  1  0
  6 45  1  0
  6 46  1  0
  7 47  1  0
  8 48  1  0
  9 49  1  0
 10 50  1  0
 11 51  1  0
 12 52  1  0
 13 53  1  0
 14 54  1  0
 15 55  1  0
 16 56  1  0
 18 57  1  1
 20 58  1  6
 21 59  1  6
 24 60  1  0
 30 61  1  0
 30 62  1  0
 31 63  1  0
 32 64  1  0
 32 65  1  0
 32 66  1  0
 33 67  1  0
 33 68  1  0
 33 69  1  0
 35 70  1  0
 36 71  1  0
 37 72  1  0
 38 73  1  0
 39 74  1  0
M  END
> <Uni-Dock RESULT> 
ENERGY=   -5.899  LOWER_BOUND=    4.416  UPPER_BOUND=    8.294
INTER + INTRA:          -5.899
INTER:                  -5.899
INTRA:                   0.000
UNBOUND:                 0.000

$$$$

     RDKit          3D

 74 77  0  0  0  0  0  0  0  0999 V2000
   49.9275    7.1753   16.7970 N   0  0  0  0  0  0  0  0  0  0  0  0
   49.0022    8.3797   14.8141 C   0  0  0  0  0  0  0  0  0  0  0  0
   48.1302    6.6072   19.2342 C   0  0  0  0  0  0  0  0  0  0  0  0
   49.4364    8.4466   16.2599 C   0  0  0  0  0  0  0  0  0  0  0  0
   48.9158    6.1100   16.8472 C   0  0  0  0  0  0  0  0  0  0  0  0
   47.7292    6.3431   17.8012 C   0  0  0  0  0  0  0  0  0  0  0  0
   47.8614    7.8474   19.8303 C   0  0  0  0  0  0  0  0  0  0  0  0
   48.7799    5.6203   19.9882 C   0  0  0  0  0  0  0  0  0  0  0  0
   49.8766    7.9023   13.8261 C   0  0  0  0  0  0  0  0  0  0  0  0
   47.7216    8.8096   14.4352 C   0  0  0  0  0  0  0  0  0  0  0  0
   48.2450    8.0979   21.1492 C   0  0  0  0  0  0  0  0  0  0  0  0
   49.1630    5.8728   21.3063 C   0  0  0  0  0  0  0  0  0  0  0  0
   49.4749    7.8416   12.4911 C   0  0  0  0  0  0  0  0  0  0  0  0
   47.3223    8.7513   13.0986 C   0  0  0  0  0  0  0  0  0  0  0  0
   48.8977    7.1117   21.8857 C   0  0  0  0  0  0  0  0  0  0  0  0
   48.1964    8.2639   12.1290 C   0  0  0  0  0  0  0  0  0  0  0  0
   50.2990    8.8831   15.0383 N   0  0  0  0  0  0  0  0  0  0  0  0
   50.2783    7.5931   15.7533 C   0  0  1  0  0  0  0  0  0  0  0  0
   49.7154    9.5656   16.0648 C   0  0  0  0  0  0  0  0  0  0  0  0
   49.9354    8.3890   17.0435 C   0  0  1  0  0  0  0  0  0  0  0  0
   49.7368    8.9055   13.6935 C   0  0  2  0  0  0  0  0  0  0  0  0
   48.9228    6.6267   14.9678 S   0  0  0  0  0  0  0  0  0  0  0  0
   48.5900    7.8713   13.6376 C   0  0  0  0  0  0  0  0  0  0  0  0
   48.7418    7.9739   17.8276 N   0  0  0  0  0  0  0  0  0  0  0  0
   50.8719    8.6256   12.7127 C   0  0  0  0  0  0  0  0  0  0  0  0
   48.7540    6.8097   18.5675 C   0  0  0  0  0  0  0  0  0  0  0  0
   49.1448   10.6315   16.0905 O   0  0  0  0  0  0  0  0  0  0  0  0
   51.8663    7.9418   12.8991 O   0  0  0  0  0  0  0  0  0  0  0  0
   49.7378    6.0744   18.6063 O   0  0  0  0  0  0  0  0  0  0  0  0
   47.4603    6.5146   19.3058 C   0  0  0  0  0  0  0  0  0  0  0  0
   50.6751    9.2161   11.5128 O   0  0  0  0  0  0  0  0  0  0  0  0
   48.4595    7.1214   12.3052 C   0  0  0  0  0  0  0  0  0  0  0  0
   47.2385    8.5309   13.9573 C   0  0  0  0  0  0  0  0  0  0  0  0
   47.6349    6.4954   20.8045 C   0  0  0  0  0  0  0  0  0  0  0  0
   47.3492    7.6329   21.5746 C   0  0  0  0  0  0  0  0  0  0  0  0
   48.1075    5.3403   21.4467 C   0  0  0  0  0  0  0  0  0  0  0  0
   47.5199    7.6084   22.9616 C   0  0  0  0  0  0  0  0  0  0  0  0
   48.2752    5.3175   22.8333 C   0  0  0  0  0  0  0  0  0  0  0  0
   47.9787    6.4501   23.5906 C   0  0  0  0  0  0  0  0  0  0  0  0
   50.2630    7.3414   17.7466 H   0  0  0  0  0  0  0  0  0  0  0  0
   48.6346    8.8472   16.8903 H   0  0  0  0  0  0  0  0  0  0  0  0
   50.2504    9.1800   16.3213 H   0  0  0  0  0  0  0  0  0  0  0  0
   48.5325    5.8989   15.8423 H   0  0  0  0  0  0  0  0  0  0  0  0
   49.4379    5.1946   17.1519 H   0  0  0  0  0  0  0  0  0  0  0  0
   47.1092    7.1655   17.4252 H   0  0  0  0  0  0  0  0  0  0  0  0
   47.0804    5.4575   17.7875 H   0  0  0  0  0  0  0  0  0  0  0  0
   47.3546    8.6305   19.2713 H   0  0  0  0  0  0  0  0  0  0  0  0
   48.9959    4.6469   19.5537 H   0  0  0  0  0  0  0  0  0  0  0  0
   50.8715    7.5579   14.1022 H   0  0  0  0  0  0  0  0  0  0  0  0
   47.0243    9.1876   15.1788 H   0  0  0  0  0  0  0  0  0  0  0  0
   48.0374    9.0657   21.6015 H   0  0  0  0  0  0  0  0  0  0  0  0
   49.6708    5.1035   21.8796 H   0  0  0  0  0  0  0  0  0  0  0  0
   50.1552    7.4551   11.7388 H   0  0  0  0  0  0  0  0  0  0  0  0
   46.3254    9.0792   12.8144 H   0  0  0  0  0  0  0  0  0  0  0  0
   49.2000    7.3085   22.9109 H   0  0  0  0  0  0  0  0  0  0  0  0
   47.8821    8.2117   11.0902 H   0  0  0  0  0  0  0  0  0  0  0  0
   51.2524    7.0951   15.7589 H   0  0  0  0  0  0  0  0  0  0  0  0
   50.7939    8.5661   17.7037 H   0  0  0  0  0  0  0  0  0  0  0  0
   49.3730    9.9212   13.4946 H   0  0  0  0  0  0  0  0  0  0  0  0
   47.9349    8.5850   17.8708 H   0  0  0  0  0  0  0  0  0  0  0  0
   47.0831    5.5456   18.9528 H   0  0  0  0  0  0  0  0  0  0  0  0
   46.6877    7.2463   19.0366 H   0  0  0  0  0  0  0  0  0  0  0  0
   51.4627    8.9629   10.9884 H   0  0  0  0  0  0  0  0  0  0  0  0
   48.2725    7.8214   11.4823 H   0  0  0  0  0  0  0  0  0  0  0  0
   49.3590    6.5466   12.0587 H   0  0  0  0  0  0  0  0  0  0  0  0
   47.6193    6.4165   12.3203 H   0  0  0  0  0  0  0  0  0  0  0  0
   47.2295    9.0237   14.9352 H   0  0  0  0  0  0  0  0  0  0  0  0
   46.9970    9.2934   13.2068 H   0  0  0  0  0  0  0  0  0  0  0  0
   46.4202    7.8005   13.9487 H   0  0  0  0  0  0  0  0  0  0  0  0
   46.9906    8.5463   21.1021 H   0  0  0  0  0  0  0  0  0  0  0  0
   48.3563    4.4523   20.8668 H   0  0  0  0  0  0  0  0  0  0  0  0
   47.2968    8.4923   23.5535 H   0  0  0  0  0  0  0  0  0  0  0  0
   48.6433    4.4154   23.3201 H   0  0  0  0  0  0  0  0  0  0  0  0
   48.1103    6.4320   24.6703 H   0  0  0  0  0  0  0  0  0  0  0  0
  2  4  1  0
  3  6  1  0
  4  1  1  0
  5  1  1  0
  6  5  1  0
  7  3  2  0
  8  3  1  0
  9  2  2  0
 10  2  1  0
 11  7  1  0
 12  8  2  0
 13  9  1  0
 14 10  2  0
 15 12  1  0
 16 14  1  0
 13 16  2  0
 11 15  2  0
 18 17  1  0
 19 17  1  0
 20 19  1  0
 21 17  1  0
 18 22  1  0
 23 21  1  0
 20 24  1  0
 21 25  1  0
 26 24  1  0
 27 19  2  0
 28 25  2  0
 29 26  2  0
 30 26  1  0
 31 25  1  0
 32 23  1  0
 33 23  1  0
 34 30  1  0
 35 34  2  0
 36 34  1  0
 37 35  1  0
 38 36  2  0
 39 38  1  0
 22 23  1  0
 18 20  1  0
 37 39  2  0
  1 40  1  0
  4 41  1  0
  4 42  1  0
  5 43  1  0
  5 44  1  0
  6 45  1  0
  6 46  1  0
  7 47  1  0
  8 48  1  0
  9 49  1  0
 10 50  1  0
 11 51  1  0
 12 52  1  0
 13 53  1  0
 14 54  1  0
 15 55  1  0
 16 56  1  0
 18 57  1  1
 20 58  1  6
 21 59  1  6
 24 60  1  0
 30 61  1  0
 30 62  1  0
 31 63  1  0
 32 64  1  0
 32 65  1  0
 32 66  1  0
 33 67  1  0
 33 68  1  0
 33 69  1  0
 35 70  1  0
 36 71  1  0
 37 72  1  0
 38 73  1  0
 39 74  1  0
M  END
> <Uni-Dock RESULT> 
ENERGY=   -5.311  LOWER_BOUND=    3.145  UPPER_BOUND=    5.199
INTER + INTRA:          -5.311
INTER:                  -5.311
INTRA:                   0.000
UNBOUND:                 0.000

$$$$

     RDKit          3D

 74 77  0  0  0  0  0  0  0  0999 V2000
   49.4993    8.4731   20.8182 N   0  0  0  0  0  0  0  0  0  0  0  0
   48.1512   10.5205   21.2972 C   0  0  0  0  0  0  0  0  0  0  0  0
   48.7497    6.6512   18.4494 C   0  0  0  0  0  0  0  0  0  0  0  0
   48.2223    9.0111   21.2934 C   0  0  0  0  0  0  0  0  0  0  0  0
   49.7983    8.7809   19.4123 C   0  0  0  0  0  0  0  0  0  0  0  0
   48.8581    8.1563   18.3643 C   0  0  0  0  0  0  0  0  0  0  0  0
   47.5304    6.0443   18.7822 C   0  0  0  0  0  0  0  0  0  0  0  0
   49.8648    5.8391   18.2016 C   0  0  0  0  0  0  0  0  0  0  0  0
   49.1184   11.2805   21.9720 C   0  0  0  0  0  0  0  0  0  0  0  0
   47.1059   11.1851   20.6381 C   0  0  0  0  0  0  0  0  0  0  0  0
   47.4328    4.6547   18.8760 C   0  0  0  0  0  0  0  0  0  0  0  0
   49.7653    4.4502   18.2963 C   0  0  0  0  0  0  0  0  0  0  0  0
   49.0513   12.6743   21.9754 C   0  0  0  0  0  0  0  0  0  0  0  0
   47.0384   12.5796   20.6452 C   0  0  0  0  0  0  0  0  0  0  0  0
   48.5505    3.8585   18.6355 C   0  0  0  0  0  0  0  0  0  0  0  0
   48.0123   13.3228   21.3093 C   0  0  0  0  0  0  0  0  0  0  0  0
   48.4519    9.9216   22.5366 N   0  0  0  0  0  0  0  0  0  0  0  0
   49.4404    9.3488   21.6036 C   0  0  1  0  0  0  0  0  0  0  0  0
   47.4772    9.0308   22.1949 C   0  0  0  0  0  0  0  0  0  0  0  0
   48.4870    8.1316   21.4447 C   0  0  1  0  0  0  0  0  0  0  0  0
   48.2267   11.3600   22.4639 C   0  0  2  0  0  0  0  0  0  0  0  0
   49.5329   10.5417   20.2049 S   0  0  0  0  0  0  0  0  0  0  0  0
   48.4326   11.8026   20.9978 C   0  0  0  0  0  0  0  0  0  0  0  0
   48.0889    7.7269   20.0701 N   0  0  0  0  0  0  0  0  0  0  0  0
   49.1786   12.0278   23.4523 C   0  0  0  0  0  0  0  0  0  0  0  0
   48.9907    7.1109   19.2273 C   0  0  0  0  0  0  0  0  0  0  0  0
   46.2777    9.0661   22.3435 O   0  0  0  0  0  0  0  0  0  0  0  0
   50.2863   11.6450   23.7949 O   0  0  0  0  0  0  0  0  0  0  0  0
   50.1470    6.8771   19.5714 O   0  0  0  0  0  0  0  0  0  0  0  0
   48.4414    6.7664   17.8542 C   0  0  0  0  0  0  0  0  0  0  0  0
   48.6814   13.1829   23.9480 O   0  0  0  0  0  0  0  0  0  0  0  0
   49.0844   13.1808   20.8236 C   0  0  0  0  0  0  0  0  0  0  0  0
   47.1013   11.7949   20.2289 C   0  0  0  0  0  0  0  0  0  0  0  0
   48.4322    5.2817   17.5849 C   0  0  0  0  0  0  0  0  0  0  0  0
   47.2735    4.5206   17.8007 C   0  0  0  0  0  0  0  0  0  0  0  0
   49.5947    4.6378   17.1331 C   0  0  0  0  0  0  0  0  0  0  0  0
   47.2758    3.1448   17.5547 C   0  0  0  0  0  0  0  0  0  0  0  0
   49.5939    3.2629   16.8859 C   0  0  0  0  0  0  0  0  0  0  0  0
   48.4341    2.5174   17.0939 C   0  0  0  0  0  0  0  0  0  0  0  0
   49.4742    7.4582   20.9241 H   0  0  0  0  0  0  0  0  0  0  0  0
   47.3885    8.5822   20.7263 H   0  0  0  0  0  0  0  0  0  0  0  0
   48.0749    8.6762   22.3280 H   0  0  0  0  0  0  0  0  0  0  0  0
   49.8379    9.8653   19.2581 H   0  0  0  0  0  0  0  0  0  0  0  0
   50.8197    8.4280   19.2235 H   0  0  0  0  0  0  0  0  0  0  0  0
   47.8635    8.6113   18.4428 H   0  0  0  0  0  0  0  0  0  0  0  0
   49.2198    8.4149   17.3605 H   0  0  0  0  0  0  0  0  0  0  0  0
   46.6472    6.6487   18.9752 H   0  0  0  0  0  0  0  0  0  0  0  0
   50.8218    6.2821   17.9355 H   0  0  0  0  0  0  0  0  0  0  0  0
   49.9404   10.7826   22.4829 H   0  0  0  0  0  0  0  0  0  0  0  0
   46.3405   10.6218   20.1101 H   0  0  0  0  0  0  0  0  0  0  0  0
   46.4837    4.1929   19.1408 H   0  0  0  0  0  0  0  0  0  0  0  0
   50.6365    3.8306   18.1081 H   0  0  0  0  0  0  0  0  0  0  0  0
   49.8150   13.2512   22.4876 H   0  0  0  0  0  0  0  0  0  0  0  0
   46.2295   13.0872   20.1255 H   0  0  0  0  0  0  0  0  0  0  0  0
   48.4752    2.7771   18.7128 H   0  0  0  0  0  0  0  0  0  0  0  0
   47.9632   14.4083   21.3078 H   0  0  0  0  0  0  0  0  0  0  0  0
   50.3991    9.1293   22.0829 H   0  0  0  0  0  0  0  0  0  0  0  0
   48.7721    7.2564   22.0422 H   0  0  0  0  0  0  0  0  0  0  0  0
   47.2036   11.5610   22.8053 H   0  0  0  0  0  0  0  0  0  0  0  0
   47.1277    7.8460   19.7726 H   0  0  0  0  0  0  0  0  0  0  0  0
   49.0530    7.2867   17.1052 H   0  0  0  0  0  0  0  0  0  0  0  0
   47.4263    7.1665   17.7340 H   0  0  0  0  0  0  0  0  0  0  0  0
   49.3774   13.5012   24.5593 H   0  0  0  0  0  0  0  0  0  0  0  0
   48.4718   13.9618   21.2894 H   0  0  0  0  0  0  0  0  0  0  0  0
   50.0848   13.2298   21.2675 H   0  0  0  0  0  0  0  0  0  0  0  0
   49.1873   13.4467   19.7645 H   0  0  0  0  0  0  0  0  0  0  0  0
   46.6110   10.8158   20.2423 H   0  0  0  0  0  0  0  0  0  0  0  0
   46.4006   12.5154   20.6683 H   0  0  0  0  0  0  0  0  0  0  0  0
   47.2394   12.0801   19.1787 H   0  0  0  0  0  0  0  0  0  0  0  0
   46.3599    4.9919   18.1604 H   0  0  0  0  0  0  0  0  0  0  0  0
   50.5121    5.2048   16.9792 H   0  0  0  0  0  0  0  0  0  0  0  0
   46.3752    2.5598   17.7233 H   0  0  0  0  0  0  0  0  0  0  0  0
   50.5024    2.7745   16.5362 H   0  0  0  0  0  0  0  0  0  0  0  0
   48.4344    1.4466   16.9020 H   0  0  0  0  0  0  0  0  0  0  0  0
  2  4  1  0
  3  6  1  0
  4  1  1  0
  5  1  1  0
  6  5  1  0
  7  3  2  0
  8  3  1  0
  9  2  2  0
 10  2  1  0
 11  7  1  0
 12  8  2  0
 13  9  1  0
 14 10  2  0
 15 12  1  0
 16 14  1  0
 13 16  2  0
 11 15  2  0
 18 17  1  0
 19 17  1  0
 20 19  1  0
 21 17  1  0
 18 22  1  0
 23 21  1  0
 20 24  1  0
 21 25  1  0
 26 24  1  0
 27 19  2  0
 28 25  2  0
 29 26  2  0
 30 26  1  0
 31 25  1  0
 32 23  1  0
 33 23  1  0
 34 30  1  0
 35 34  2  0
 36 34  1  0
 37 35  1  0
 38 36  2  0
 39 38  1  0
 22 23  1  0
 18 20  1  0
 37 39  2  0
  1 40  1  0
  4 41  1  0
  4 42  1  0
  5 43  1  0
  5 44  1  0
  6 45  1  0
  6 46  1  0
  7 47  1  0
  8 48  1  0
  9 49  1  0
 10 50  1  0
 11 51  1  0
 12 52  1  0
 13 53  1  0
 14 54  1  0
 15 55  1  0
 16 56  1  0
 18 57  1  1
 20 58  1  6
 21 59  1  6
 24 60  1  0
 30 61  1  0
 30 62  1  0
 31 63  1  0
 32 64  1  0
 32 65  1  0
 32 66  1  0
 33 67  1  0
 33 68  1  0
 33 69  1  0
 35 70  1  0
 36 71  1  0
 37 72  1  0
 38 73  1  0
 39 74  1  0
M  END
> <Uni-Dock RESULT> 
ENERGY=   -5.299  LOWER_BOUND=    2.199  UPPER_BOUND=    7.656
INTER + INTRA:          -5.299
INTER:                  -5.299
INTRA:                   0.000
UNBOUND:                 0.000

$$$$

     RDKit          3D

 74 77  0  0  0  0  0  0  0  0999 V2000
   48.9397    8.6714   17.8026 N   0  0  0  0  0  0  0  0  0  0  0  0
   48.6513   10.5519   19.4209 C   0  0  0  0  0  0  0  0  0  0  0  0
   49.7522    5.8766   18.8135 C   0  0  0  0  0  0  0  0  0  0  0  0
   49.5976    9.6053   18.7196 C   0  0  0  0  0  0  0  0  0  0  0  0
   48.0199    7.7298   18.4569 C   0  0  0  0  0  0  0  0  0  0  0  0
   48.6583    6.7191   19.4282 C   0  0  0  0  0  0  0  0  0  0  0  0
   51.0736    5.9851   19.2694 C   0  0  0  0  0  0  0  0  0  0  0  0
   49.4652    4.9780   17.7770 C   0  0  0  0  0  0  0  0  0  0  0  0
   47.7676   11.3557   18.6849 C   0  0  0  0  0  0  0  0  0  0  0  0
   48.6534   10.6530   20.8203 C   0  0  0  0  0  0  0  0  0  0  0  0
   52.0876    5.2185   18.6920 C   0  0  0  0  0  0  0  0  0  0  0  0
   50.4804    4.2129   17.2008 C   0  0  0  0  0  0  0  0  0  0  0  0
   46.8947   12.2301   19.3335 C   0  0  0  0  0  0  0  0  0  0  0  0
   47.7816   11.5307   21.4676 C   0  0  0  0  0  0  0  0  0  0  0  0
   51.7913    4.3347   17.6566 C   0  0  0  0  0  0  0  0  0  0  0  0
   46.9008   12.3146   20.7251 C   0  0  0  0  0  0  0  0  0  0  0  0
   49.3085   11.0745   18.2894 N   0  0  0  0  0  0  0  0  0  0  0  0
   48.6927    9.8229   17.8098 C   0  0  1  0  0  0  0  0  0  0  0  0
   50.4067   10.4463   18.7990 C   0  0  0  0  0  0  0  0  0  0  0  0
   50.0597    9.1294   18.0667 C   0  0  1  0  0  0  0  0  0  0  0  0
   48.4815   11.9477   19.1131 C   0  0  2  0  0  0  0  0  0  0  0  0
   47.3277    9.4711   18.9934 S   0  0  0  0  0  0  0  0  0  0  0  0
   47.5115   11.0606   19.9256 C   0  0  0  0  0  0  0  0  0  0  0  0
   50.0772    7.9030   18.9078 N   0  0  0  0  0  0  0  0  0  0  0  0
   47.7849   12.9373   18.1835 C   0  0  0  0  0  0  0  0  0  0  0  0
   49.5800    6.7099   18.4255 C   0  0  0  0  0  0  0  0  0  0  0  0
   51.2239   10.8061   19.6145 O   0  0  0  0  0  0  0  0  0  0  0  0
   47.4389   12.7562   17.0265 O   0  0  0  0  0  0  0  0  0  0  0  0
   49.1048    6.6128   17.2965 O   0  0  0  0  0  0  0  0  0  0  0  0
   49.6575    5.5501   19.4025 C   0  0  0  0  0  0  0  0  0  0  0  0
   47.5334   14.1215   18.7848 O   0  0  0  0  0  0  0  0  0  0  0  0
   46.1124   11.6551   20.1345 C   0  0  0  0  0  0  0  0  0  0  0  0
   48.1030   10.7167   21.3024 C   0  0  0  0  0  0  0  0  0  0  0  0
   50.5416    4.4305   18.9106 C   0  0  0  0  0  0  0  0  0  0  0  0
   51.8816    4.3431   19.3172 C   0  0  0  0  0  0  0  0  0  0  0  0
   50.0372    3.4706   18.0193 C   0  0  0  0  0  0  0  0  0  0  0  0
   52.6952    3.3065   18.8516 C   0  0  0  0  0  0  0  0  0  0  0  0
   50.8517    2.4342   17.5570 C   0  0  0  0  0  0  0  0  0  0  0  0
   52.1792    2.3506   17.9753 C   0  0  0  0  0  0  0  0  0  0  0  0
   49.6639    8.1314   17.3274 H   0  0  0  0  0  0  0  0  0  0  0  0
   50.2157    9.0631   19.4440 H   0  0  0  0  0  0  0  0  0  0  0  0
   50.2983   10.2177   18.1381 H   0  0  0  0  0  0  0  0  0  0  0  0
   47.2225    8.2730   18.9769 H   0  0  0  0  0  0  0  0  0  0  0  0
   47.5137    7.1769   17.6561 H   0  0  0  0  0  0  0  0  0  0  0  0
   49.0388    7.2456   20.3115 H   0  0  0  0  0  0  0  0  0  0  0  0
   47.8789    6.0430   19.8036 H   0  0  0  0  0  0  0  0  0  0  0  0
   51.3253    6.6705   20.0753 H   0  0  0  0  0  0  0  0  0  0  0  0
   48.4482    4.8685   17.4073 H   0  0  0  0  0  0  0  0  0  0  0  0
   47.7469   11.2858   17.5989 H   0  0  0  0  0  0  0  0  0  0  0  0
   49.3298   10.0451   21.4160 H   0  0  0  0  0  0  0  0  0  0  0  0
   53.1115    5.3138   19.0484 H   0  0  0  0  0  0  0  0  0  0  0  0
   50.2484    3.5240   16.3945 H   0  0  0  0  0  0  0  0  0  0  0  0
   46.2047   12.8345   18.7533 H   0  0  0  0  0  0  0  0  0  0  0  0
   47.7842   11.5973   22.5529 H   0  0  0  0  0  0  0  0  0  0  0  0
   52.5815    3.7413   17.2044 H   0  0  0  0  0  0  0  0  0  0  0  0
   46.2173   12.9918   21.2302 H   0  0  0  0  0  0  0  0  0  0  0  0
   48.3874    9.8749   16.7605 H   0  0  0  0  0  0  0  0  0  0  0  0
   50.6711    8.9935   17.1656 H   0  0  0  0  0  0  0  0  0  0  0  0
   49.1454   12.5241   19.7693 H   0  0  0  0  0  0  0  0  0  0  0  0
   50.5177    7.9285   19.8198 H   0  0  0  0  0  0  0  0  0  0  0  0
   48.6366    5.1835   19.5735 H   0  0  0  0  0  0  0  0  0  0  0  0
   50.0139    5.8946   20.3818 H   0  0  0  0  0  0  0  0  0  0  0  0
   47.0947   14.6552   18.0903 H   0  0  0  0  0  0  0  0  0  0  0  0
   46.1717   12.6074   20.6747 H   0  0  0  0  0  0  0  0  0  0  0  0
   45.5898   11.8377   19.1891 H   0  0  0  0  0  0  0  0  0  0  0  0
   45.4770   10.9897   20.7317 H   0  0  0  0  0  0  0  0  0  0  0  0
   49.0739   10.2152   21.2320 H   0  0  0  0  0  0  0  0  0  0  0  0
   48.2500   11.6281   21.8949 H   0  0  0  0  0  0  0  0  0  0  0  0
   47.4353   10.0635   21.8774 H   0  0  0  0  0  0  0  0  0  0  0  0
   52.3026    5.0797   20.0002 H   0  0  0  0  0  0  0  0  0  0  0  0
   49.0060    3.5308   17.6731 H   0  0  0  0  0  0  0  0  0  0  0  0
   53.7325    3.2432   19.1701 H   0  0  0  0  0  0  0  0  0  0  0  0
   50.4490    1.6958   16.8652 H   0  0  0  0  0  0  0  0  0  0  0  0
   52.8132    1.5437   17.6143 H   0  0  0  0  0  0  0  0  0  0  0  0
  2  4  1  0
  3  6  1  0
  4  1  1  0
  5  1  1  0
  6  5  1  0
  7  3  2  0
  8  3  1  0
  9  2  2  0
 10  2  1  0
 11  7  1  0
 12  8  2  0
 13  9  1  0
 14 10  2  0
 15 12  1  0
 16 14  1  0
 13 16  2  0
 11 15  2  0
 18 17  1  0
 19 17  1  0
 20 19  1  0
 21 17  1  0
 18 22  1  0
 23 21  1  0
 20 24  1  0
 21 25  1  0
 26 24  1  0
 27 19  2  0
 28 25  2  0
 29 26  2  0
 30 26  1  0
 31 25  1  0
 32 23  1  0
 33 23  1  0
 34 30  1  0
 35 34  2  0
 36 34  1  0
 37 35  1  0
 38 36  2  0
 39 38  1  0
 22 23  1  0
 18 20  1  0
 37 39  2  0
  1 40  1  0
  4 41  1  0
  4 42  1  0
  5 43  1  0
  5 44  1  0
  6 45  1  0
  6 46  1  0
  7 47  1  0
  8 48  1  0
  9 49  1  0
 10 50  1  0
 11 51  1  0
 12 52  1  0
 13 53  1  0
 14 54  1  0
 15 55  1  0
 16 56  1  0
 18 57  1  1
 20 58  1  6
 21 59  1  6
 24 60  1  0
 30 61  1  0
 30 62  1  0
 31 63  1  0
 32 64  1  0
 32 65  1  0
 32 66  1  0
 33 67  1  0
 33 68  1  0
 33 69  1  0
 35 70  1  0
 36 71  1  0
 37 72  1  0
 38 73  1  0
 39 74  1  0
M  END
> <Uni-Dock RESULT> 
ENERGY=   -5.100  LOWER_BOUND=    2.008  UPPER_BOUND=    7.488
INTER + INTRA:          -5.100
INTER:                  -5.100
INTRA:                   0.000
UNBOUND:                 0.000

$$$$

     RDKit          3D

 74 77  0  0  0  0  0  0  0  0999 V2000
   49.3929    9.0946   19.8355 N   0  0  0  0  0  0  0  0  0  0  0  0
   48.2252   11.2731   19.4766 C   0  0  0  0  0  0  0  0  0  0  0  0
   48.9492    6.7638   17.8700 C   0  0  0  0  0  0  0  0  0  0  0  0
   48.1170    9.8141   19.8546 C   0  0  0  0  0  0  0  0  0  0  0  0
   50.0153    9.0044   18.5069 C   0  0  0  0  0  0  0  0  0  0  0  0
   49.2498    8.1846   17.4513 C   0  0  0  0  0  0  0  0  0  0  0  0
   47.6244    6.3399   18.0453 C   0  0  0  0  0  0  0  0  0  0  0  0
   49.9878    5.8496   18.0935 C   0  0  0  0  0  0  0  0  0  0  0  0
   49.1115   12.1239   20.1543 C   0  0  0  0  0  0  0  0  0  0  0  0
   47.4279   11.8033   18.4510 C   0  0  0  0  0  0  0  0  0  0  0  0
   47.3461    5.0320   18.4468 C   0  0  0  0  0  0  0  0  0  0  0  0
   49.7075    4.5427   18.4953 C   0  0  0  0  0  0  0  0  0  0  0  0
   49.2100   13.4713   19.8049 C   0  0  0  0  0  0  0  0  0  0  0  0
   47.5254   13.1524   18.1047 C   0  0  0  0  0  0  0  0  0  0  0  0
   48.3874    4.1348   18.6740 C   0  0  0  0  0  0  0  0  0  0  0  0
   48.4183   13.9837   18.7779 C   0  0  0  0  0  0  0  0  0  0  0  0
   48.1856   11.0032   20.8589 N   0  0  0  0  0  0  0  0  0  0  0  0
   49.2737   10.1474   20.3497 C   0  0  1  0  0  0  0  0  0  0  0  0
   47.2066   10.1143   20.5248 C   0  0  0  0  0  0  0  0  0  0  0  0
   48.2384    8.9908   20.2716 C   0  0  1  0  0  0  0  0  0  0  0  0
   48.1519   12.3831   20.3901 C   0  0  2  0  0  0  0  0  0  0  0  0
   49.7985   10.9240   18.7656 S   0  0  0  0  0  0  0  0  0  0  0  0
   48.7125   12.4126   18.9504 C   0  0  0  0  0  0  0  0  0  0  0  0
   48.0937    8.2646   18.9818 N   0  0  0  0  0  0  0  0  0  0  0  0
   48.9464   13.2282   21.3818 C   0  0  0  0  0  0  0  0  0  0  0  0
   49.0736    7.3961   18.5477 C   0  0  0  0  0  0  0  0  0  0  0  0
   46.0153   10.2594   20.3759 O   0  0  0  0  0  0  0  0  0  0  0  0
   49.9042   12.8827   22.0558 O   0  0  0  0  0  0  0  0  0  0  0  0
   50.0957    7.1915   19.1986 O   0  0  0  0  0  0  0  0  0  0  0  0
   48.7889    6.7373   17.2096 C   0  0  0  0  0  0  0  0  0  0  0  0
   48.4957   14.5006   21.4532 O   0  0  0  0  0  0  0  0  0  0  0  0
   49.5442   13.6551   18.6054 C   0  0  0  0  0  0  0  0  0  0  0  0
   47.5815   12.2836   17.9170 C   0  0  0  0  0  0  0  0  0  0  0  0
   48.6616    5.2372   17.3128 C   0  0  0  0  0  0  0  0  0  0  0  0
   47.4020    4.6304   17.4293 C   0  0  0  0  0  0  0  0  0  0  0  0
   49.8089    4.4286   17.3146 C   0  0  0  0  0  0  0  0  0  0  0  0
   47.2937    3.2407   17.5309 C   0  0  0  0  0  0  0  0  0  0  0  0
   49.6981    3.0397   17.4141 C   0  0  0  0  0  0  0  0  0  0  0  0
   48.4409    2.4459   17.5192 C   0  0  0  0  0  0  0  0  0  0  0  0
   49.2266    8.1464   20.1748 H   0  0  0  0  0  0  0  0  0  0  0  0
   47.3767    9.3025   19.2295 H   0  0  0  0  0  0  0  0  0  0  0  0
   47.7168    9.7717   20.8755 H   0  0  0  0  0  0  0  0  0  0  0  0
   50.2141   10.0060   18.1088 H   0  0  0  0  0  0  0  0  0  0  0  0
   51.0046    8.5536   18.6530 H   0  0  0  0  0  0  0  0  0  0  0  0
   48.3217    8.7032   17.1828 H   0  0  0  0  0  0  0  0  0  0  0  0
   49.8426    8.1486   16.5279 H   0  0  0  0  0  0  0  0  0  0  0  0
   46.7979    7.0257   17.8746 H   0  0  0  0  0  0  0  0  0  0  0  0
   51.0248    6.1489   17.9594 H   0  0  0  0  0  0  0  0  0  0  0  0
   49.7429   11.7289   20.9479 H   0  0  0  0  0  0  0  0  0  0  0  0
   46.7298   11.1684   17.9111 H   0  0  0  0  0  0  0  0  0  0  0  0
   46.3147    4.7137   18.5861 H   0  0  0  0  0  0  0  0  0  0  0  0
   50.5196    3.8442   18.6715 H   0  0  0  0  0  0  0  0  0  0  0  0
   49.9113   14.1152   20.3261 H   0  0  0  0  0  0  0  0  0  0  0  0
   46.9095   13.5536   17.3035 H   0  0  0  0  0  0  0  0  0  0  0  0
   48.1706    3.1181   18.9907 H   0  0  0  0  0  0  0  0  0  0  0  0
   48.4989   15.0317   18.5026 H   0  0  0  0  0  0  0  0  0  0  0  0
   50.0773   10.0040   21.0782 H   0  0  0  0  0  0  0  0  0  0  0  0
   48.2861    8.2874   21.1125 H   0  0  0  0  0  0  0  0  0  0  0  0
   47.1109   12.7277   20.4239 H   0  0  0  0  0  0  0  0  0  0  0  0
   47.2376    8.3590   18.4483 H   0  0  0  0  0  0  0  0  0  0  0  0
   49.6015    7.0052   16.5212 H   0  0  0  0  0  0  0  0  0  0  0  0
   47.8763    7.1521   16.7625 H   0  0  0  0  0  0  0  0  0  0  0  0
   49.0800   14.9256   22.1145 H   0  0  0  0  0  0  0  0  0  0  0  0
   48.9437   14.5663   18.7121 H   0  0  0  0  0  0  0  0  0  0  0  0
   50.4274   13.7585   19.2453 H   0  0  0  0  0  0  0  0  0  0  0  0
   49.8984   13.6273   17.5676 H   0  0  0  0  0  0  0  0  0  0  0  0
   46.9874   11.3736   18.0519 H   0  0  0  0  0  0  0  0  0  0  0  0
   46.8940   13.1349   17.9929 H   0  0  0  0  0  0  0  0  0  0  0  0
   47.9702   12.2746   16.8913 H   0  0  0  0  0  0  0  0  0  0  0  0
   46.4952    5.2336   17.4407 H   0  0  0  0  0  0  0  0  0  0  0  0
   50.7985    4.8792   17.2469 H   0  0  0  0  0  0  0  0  0  0  0  0
   46.3153    2.7757   17.6207 H   0  0  0  0  0  0  0  0  0  0  0  0
   50.5957    2.4229   17.4151 H   0  0  0  0  0  0  0  0  0  0  0  0
   48.3552    1.3643   17.5975 H   0  0  0  0  0  0  0  0  0  0  0  0
  2  4  1  0
  3  6  1  0
  4  1  1  0
  5  1  1  0
  6  5  1  0
  7  3  2  0
  8  3  1  0
  9  2  2  0
 10  2  1  0
 11  7  1  0
 12  8  2  0
 13  9  1  0
 14 10  2  0
 15 12  1  0
 16 14  1  0
 13 16  2  0
 11 15  2  0
 18 17  1  0
 19 17  1  0
 20 19  1  0
 21 17  1  0
 18 22  1  0
 23 21  1  0
 20 24  1  0
 21 25  1  0
 26 24  1  0
 27 19  2  0
 28 25  2  0
 29 26  2  0
 30 26  1  0
 31 25  1  0
 32 23  1  0
 33 23  1  0
 34 30  1  0
 35 34  2  0
 36 34  1  0
 37 35  1  0
 38 36  2  0
 39 38  1  0
 22 23  1  0
 18 20  1  0
 37 39  2  0
  1 40  1  0
  4 41  1  0
  4 42  1  0
  5 43  1  0
  5 44  1  0
  6 45  1  0
  6 46  1  0
  7 47  1  0
  8 48  1  0
  9 49  1  0
 10 50  1  0
 11 51  1  0
 12 52  1  0
 13 53  1  0
 14 54  1  0
 15 55  1  0
 16 56  1  0
 18 57  1  1
 20 58  1  6
 21 59  1  6
 24 60  1  0
 30 61  1  0
 30 62  1  0
 31 63  1  0
 32 64  1  0
 32 65  1  0
 32 66  1  0
 33 67  1  0
 33 68  1  0
 33 69  1  0
 35 70  1  0
 36 71  1  0
 37 72  1  0
 38 73  1  0
 39 74  1  0
M  END
> <Uni-Dock RESULT> 
ENERGY=   -5.097  LOWER_BOUND=    2.049  UPPER_BOUND=    7.602
INTER + INTRA:          -5.097
INTER:                  -5.097
INTRA:                   0.000
UNBOUND:                 0.000

$$$$

     RDKit          3D

 74 77  0  0  0  0  0  0  0  0999 V2000
   47.9025    9.1902   19.3862 N   0  0  0  0  0  0  0  0  0  0  0  0
   49.2235   10.6566   20.9169 C   0  0  0  0  0  0  0  0  0  0  0  0
   48.3780    6.1461   19.3741 C   0  0  0  0  0  0  0  0  0  0  0  0
   49.2120    9.7709   19.6927 C   0  0  0  0  0  0  0  0  0  0  0  0
   47.3943    8.2705   20.4142 C   0  0  0  0  0  0  0  0  0  0  0  0
   48.1995    6.9746   20.6255 C   0  0  0  0  0  0  0  0  0  0  0  0
   49.6552    5.9433   18.8324 C   0  0  0  0  0  0  0  0  0  0  0  0
   47.2718    5.5716   18.7333 C   0  0  0  0  0  0  0  0  0  0  0  0
   48.3331   11.7353   21.0278 C   0  0  0  0  0  0  0  0  0  0  0  0
   50.1372   10.4227   21.9556 C   0  0  0  0  0  0  0  0  0  0  0  0
   49.8197    5.1909   17.6678 C   0  0  0  0  0  0  0  0  0  0  0  0
   47.4384    4.8202   17.5690 C   0  0  0  0  0  0  0  0  0  0  0  0
   48.3451   12.5530   22.1585 C   0  0  0  0  0  0  0  0  0  0  0  0
   50.1502   11.2437   23.0848 C   0  0  0  0  0  0  0  0  0  0  0  0
   48.7114    4.6319   17.0354 C   0  0  0  0  0  0  0  0  0  0  0  0
   49.2524   12.3045   23.1876 C   0  0  0  0  0  0  0  0  0  0  0  0
   49.1262   11.3264   19.6811 N   0  0  0  0  0  0  0  0  0  0  0  0
   48.0382   10.3311   19.6449 C   0  0  1  0  0  0  0  0  0  0  0  0
   50.0765   10.4374   19.2726 C   0  0  0  0  0  0  0  0  0  0  0  0
   49.0064    9.3986   18.8647 C   0  0  1  0  0  0  0  0  0  0  0  0
   49.2820   12.0948   20.9101 C   0  0  2  0  0  0  0  0  0  0  0  0
   47.7005    9.9196   21.4069 S   0  0  0  0  0  0  0  0  0  0  0  0
   48.8521   11.1975   22.0925 C   0  0  0  0  0  0  0  0  0  0  0  0
   49.2202    8.0200   19.3801 N   0  0  0  0  0  0  0  0  0  0  0  0
   48.4551   13.3693   20.7668 C   0  0  0  0  0  0  0  0  0  0  0  0
   48.2324    7.0636   19.2668 C   0  0  0  0  0  0  0  0  0  0  0  0
   51.2827   10.4669   19.3536 O   0  0  0  0  0  0  0  0  0  0  0  0
   47.4234   13.5209   20.1316 O   0  0  0  0  0  0  0  0  0  0  0  0
   47.1471    7.3087   18.7452 O   0  0  0  0  0  0  0  0  0  0  0  0
   48.5936    5.7078   19.8473 C   0  0  0  0  0  0  0  0  0  0  0  0
   48.9721   14.4020   21.4694 O   0  0  0  0  0  0  0  0  0  0  0  0
   48.1285   11.9298   23.2304 C   0  0  0  0  0  0  0  0  0  0  0  0
   50.0596   10.4530   22.6853 C   0  0  0  0  0  0  0  0  0  0  0  0
   48.6227    4.6160   18.8060 C   0  0  0  0  0  0  0  0  0  0  0  0
   49.8294    4.2340   18.2006 C   0  0  0  0  0  0  0  0  0  0  0  0
   47.4340    3.9812   18.4137 C   0  0  0  0  0  0  0  0  0  0  0  0
   49.8462    3.2262   17.2324 C   0  0  0  0  0  0  0  0  0  0  0  0
   47.4536    2.9726   17.4473 C   0  0  0  0  0  0  0  0  0  0  0  0
   48.6596    2.5935   16.8591 C   0  0  0  0  0  0  0  0  0  0  0  0
   47.9823    8.6749   18.5087 H   0  0  0  0  0  0  0  0  0  0  0  0
   49.9727    8.9861   19.7712 H   0  0  0  0  0  0  0  0  0  0  0  0
   49.5183   10.3905   18.8403 H   0  0  0  0  0  0  0  0  0  0  0  0
   47.2906    8.7892   21.3740 H   0  0  0  0  0  0  0  0  0  0  0  0
   46.3712    8.0052   20.1207 H   0  0  0  0  0  0  0  0  0  0  0  0
   49.1764    7.2139   21.0621 H   0  0  0  0  0  0  0  0  0  0  0  0
   47.6886    6.3544   21.3737 H   0  0  0  0  0  0  0  0  0  0  0  0
   50.5324    6.3729   19.3103 H   0  0  0  0  0  0  0  0  0  0  0  0
   46.2700    5.7072   19.1344 H   0  0  0  0  0  0  0  0  0  0  0  0
   47.6125   11.9278   20.2352 H   0  0  0  0  0  0  0  0  0  0  0  0
   50.8412    9.5964   21.8952 H   0  0  0  0  0  0  0  0  0  0  0  0
   50.8144    5.0439   17.2514 H   0  0  0  0  0  0  0  0  0  0  0  0
   46.5742    4.3844   17.0773 H   0  0  0  0  0  0  0  0  0  0  0  0
   47.6402   13.3743   22.2393 H   0  0  0  0  0  0  0  0  0  0  0  0
   50.8563   11.0510   23.8888 H   0  0  0  0  0  0  0  0  0  0  0  0
   48.8394    4.0499   16.1265 H   0  0  0  0  0  0  0  0  0  0  0  0
   49.2581   12.9383   24.0702 H   0  0  0  0  0  0  0  0  0  0  0  0
   47.1669   10.6750   19.0795 H   0  0  0  0  0  0  0  0  0  0  0  0
   48.8439    9.3888   17.7794 H   0  0  0  0  0  0  0  0  0  0  0  0
   50.3346   12.3929   20.9928 H   0  0  0  0  0  0  0  0  0  0  0  0
   50.1237    7.7627   19.7594 H   0  0  0  0  0  0  0  0  0  0  0  0
   47.8615    5.4694   20.6303 H   0  0  0  0  0  0  0  0  0  0  0  0
   49.5647    5.7534   20.3570 H   0  0  0  0  0  0  0  0  0  0  0  0
   48.3582   15.1444   21.2920 H   0  0  0  0  0  0  0  0  0  0  0  0
   48.7700   12.7074   23.6617 H   0  0  0  0  0  0  0  0  0  0  0  0
   47.2004   12.4072   22.8973 H   0  0  0  0  0  0  0  0  0  0  0  0
   47.8653   11.2457   24.0464 H   0  0  0  0  0  0  0  0  0  0  0  0
   50.5849    9.8418   21.9440 H   0  0  0  0  0  0  0  0  0  0  0  0
   50.7868   11.1657   23.0933 H   0  0  0  0  0  0  0  0  0  0  0  0
   49.7621    9.7908   23.5077 H   0  0  0  0  0  0  0  0  0  0  0  0
   50.7657    4.7162   18.4782 H   0  0  0  0  0  0  0  0  0  0  0  0
   46.4824    4.2762   18.8544 H   0  0  0  0  0  0  0  0  0  0  0  0
   50.7839    2.9339   16.7667 H   0  0  0  0  0  0  0  0  0  0  0  0
   46.5245    2.4880   17.1507 H   0  0  0  0  0  0  0  0  0  0  0  0
   48.6742    1.8086   16.1060 H   0  0  0  0  0  0  0  0  0  0  0  0
  2  4  1  0
  3  6  1  0
  4  1  1  0
  5  1  1  0
  6  5  1  0
  7  3  2  0
  8  3  1  0
  9  2  2  0
 10  2  1  0
 11  7  1  0
 12  8  2  0
 13  9  1  0
 14 10  2  0
 15 12  1  0
 16 14  1  0
 13 16  2  0
 11 15  2  0
 18 17  1  0
 19 17  1  0
 20 19  1  0
 21 17  1  0
 18 22  1  0
 23 21  1  0
 20 24  1  0
 21 25  1  0
 26 24  1  0
 27 19  2  0
 28 25  2  0
 29 26  2  0
 30 26  1  0
 31 25  1  0
 32 23  1  0
 33 23  1  0
 34 30  1  0
 35 34  2  0
 36 34  1  0
 37 35  1  0
 38 36  2  0
 39 38  1  0
 22 23  1  0
 18 20  1  0
 37 39  2  0
  1 40  1  0
  4 41  1  0
  4 42  1  0
  5 43  1  0
  5 44  1  0
  6 45  1  0
  6 46  1  0
  7 47  1  0
  8 48  1  0
  9 49  1  0
 10 50  1  0
 11 51  1  0
 12 52  1  0
 13 53  1  0
 14 54  1  0
 15 55  1  0
 16 56  1  0
 18 57  1  1
 20 58  1  6
 21 59  1  6
 24 60  1  0
 30 61  1  0
 30 62  1  0
 31 63  1  0
 32 64  1  0
 32 65  1  0
 32 66  1  0
 33 67  1  0
 33 68  1  0
 33 69  1  0
 35 70  1  0
 36 71  1  0
 37 72  1  0
 38 73  1  0
 39 74  1  0
M  END
> <Uni-Dock RESULT> 
ENERGY=   -5.075  LOWER_BOUND=    2.257  UPPER_BOUND=    7.613
INTER + INTRA:          -5.075
INTER:                  -5.075
INTRA:                   0.000
UNBOUND:                 0.000

$$$$

     RDKit          3D

 74 77  0  0  0  0  0  0  0  0999 V2000
   44.5934   12.3642   11.8499 N   0  0  0  0  0  0  0  0  0  0  0  0
   46.5151   13.0963   10.4324 C   0  0  0  0  0  0  0  0  0  0  0  0
   42.0323   11.2705   10.5318 C   0  0  0  0  0  0  0  0  0  0  0  0
   45.1038   13.3594   10.9038 C   0  0  0  0  0  0  0  0  0  0  0  0
   44.4649   11.0105   11.2915 C   0  0  0  0  0  0  0  0  0  0  0  0
   43.4318   10.8355   10.1626 C   0  0  0  0  0  0  0  0  0  0  0  0
   41.4277   12.3517    9.8752 C   0  0  0  0  0  0  0  0  0  0  0  0
   41.3187   10.6044   11.5375 C   0  0  0  0  0  0  0  0  0  0  0  0
   47.5586   12.9308   11.3557 C   0  0  0  0  0  0  0  0  0  0  0  0
   46.8065   13.0294    9.0615 C   0  0  0  0  0  0  0  0  0  0  0  0
   40.1408   12.7641   10.2259 C   0  0  0  0  0  0  0  0  0  0  0  0
   40.0325   11.0185   11.8869 C   0  0  0  0  0  0  0  0  0  0  0  0
   48.8617   12.6887   10.9192 C   0  0  0  0  0  0  0  0  0  0  0  0
   48.1114   12.7903    8.6264 C   0  0  0  0  0  0  0  0  0  0  0  0
   39.4447   12.0992   11.2330 C   0  0  0  0  0  0  0  0  0  0  0  0
   49.1363   12.6159    9.5542 C   0  0  0  0  0  0  0  0  0  0  0  0
   46.3859   14.0356   11.4746 N   0  0  0  0  0  0  0  0  0  0  0  0
   45.6621   12.8463   11.9617 C   0  0  1  0  0  0  0  0  0  0  0  0
   45.3260   14.4976   10.7512 C   0  0  0  0  0  0  0  0  0  0  0  0
   44.3567   13.5082   11.4387 C   0  0  1  0  0  0  0  0  0  0  0  0
   47.6882   13.8135   10.8582 C   0  0  2  0  0  0  0  0  0  0  0  0
   46.3438   11.4360   10.9951 S   0  0  0  0  0  0  0  0  0  0  0  0
   47.6562   12.4374   10.1561 C   0  0  0  0  0  0  0  0  0  0  0  0
   43.4880   12.7201   10.5243 N   0  0  0  0  0  0  0  0  0  0  0  0
   48.7440   13.9256   11.9543 C   0  0  0  0  0  0  0  0  0  0  0  0
   42.7425   11.6607   10.9986 C   0  0  0  0  0  0  0  0  0  0  0  0
   45.2679   15.2903    9.8399 O   0  0  0  0  0  0  0  0  0  0  0  0
   48.6229   13.6473   13.1371 O   0  0  0  0  0  0  0  0  0  0  0  0
   42.7675   11.3260   12.1807 O   0  0  0  0  0  0  0  0  0  0  0  0
   41.9133   10.9475    9.9452 C   0  0  0  0  0  0  0  0  0  0  0  0
   49.9313   14.3689   11.4843 O   0  0  0  0  0  0  0  0  0  0  0  0
   48.9708   11.6484   10.2191 C   0  0  0  0  0  0  0  0  0  0  0  0
   47.2473   12.5818    8.6811 C   0  0  0  0  0  0  0  0  0  0  0  0
   40.4304   11.0394   10.2090 C   0  0  0  0  0  0  0  0  0  0  0  0
   39.6503   12.0242    9.5844 C   0  0  0  0  0  0  0  0  0  0  0  0
   39.8147   10.1495   11.1028 C   0  0  0  0  0  0  0  0  0  0  0  0
   38.2786   12.1061    9.8393 C   0  0  0  0  0  0  0  0  0  0  0  0
   38.4431   10.2319   11.3544 C   0  0  0  0  0  0  0  0  0  0  0  0
   37.6750   11.2079   10.7207 C   0  0  0  0  0  0  0  0  0  0  0  0
   43.6708   12.6690   12.1628 H   0  0  0  0  0  0  0  0  0  0  0  0
   44.4217   13.4677   10.0531 H   0  0  0  0  0  0  0  0  0  0  0  0
   45.1048   14.3363   11.4038 H   0  0  0  0  0  0  0  0  0  0  0  0
   45.4389   10.6449   10.9467 H   0  0  0  0  0  0  0  0  0  0  0  0
   44.1909   10.3514   12.1245 H   0  0  0  0  0  0  0  0  0  0  0  0
   43.7693   11.3707    9.2670 H   0  0  0  0  0  0  0  0  0  0  0  0
   43.3937    9.7769    9.8740 H   0  0  0  0  0  0  0  0  0  0  0  0
   41.9554   12.8847    9.0877 H   0  0  0  0  0  0  0  0  0  0  0  0
   41.7602    9.7586   12.0596 H   0  0  0  0  0  0  0  0  0  0  0  0
   47.3503   12.9725   12.4232 H   0  0  0  0  0  0  0  0  0  0  0  0
   46.0186   13.1574    8.3235 H   0  0  0  0  0  0  0  0  0  0  0  0
   39.6819   13.6082    9.7147 H   0  0  0  0  0  0  0  0  0  0  0  0
   39.4906   10.4993   12.6714 H   0  0  0  0  0  0  0  0  0  0  0  0
   49.6570   12.5463   11.6440 H   0  0  0  0  0  0  0  0  0  0  0  0
   48.3274   12.7322    7.5624 H   0  0  0  0  0  0  0  0  0  0  0  0
   38.4447   12.4231   11.5088 H   0  0  0  0  0  0  0  0  0  0  0  0
   50.1502   12.4222    9.2148 H   0  0  0  0  0  0  0  0  0  0  0  0
   45.7211   12.7286   13.0478 H   0  0  0  0  0  0  0  0  0  0  0  0
   43.7595   14.0005   12.2167 H   0  0  0  0  0  0  0  0  0  0  0  0
   47.8683   14.6262   10.1435 H   0  0  0  0  0  0  0  0  0  0  0  0
   43.3927   13.0046    9.5566 H   0  0  0  0  0  0  0  0  0  0  0  0
   42.2321    9.8971    9.9183 H   0  0  0  0  0  0  0  0  0  0  0  0
   42.1329   11.3470    8.9467 H   0  0  0  0  0  0  0  0  0  0  0  0
   50.5078   14.3965   12.2757 H   0  0  0  0  0  0  0  0  0  0  0  0
   49.7836   12.2093    9.7427 H   0  0  0  0  0  0  0  0  0  0  0  0
   49.2756   11.4243   11.2472 H   0  0  0  0  0  0  0  0  0  0  0  0
   48.8919   10.6912    9.6894 H   0  0  0  0  0  0  0  0  0  0  0  0
   46.2748   13.0698    8.5580 H   0  0  0  0  0  0  0  0  0  0  0  0
   47.9846   13.1840    8.1362 H   0  0  0  0  0  0  0  0  0  0  0  0
   47.1935   11.6078    8.1794 H   0  0  0  0  0  0  0  0  0  0  0  0
   40.1030   12.7344    8.8937 H   0  0  0  0  0  0  0  0  0  0  0  0
   40.4043    9.3905   11.6158 H   0  0  0  0  0  0  0  0  0  0  0  0
   37.6788   12.8708    9.3525 H   0  0  0  0  0  0  0  0  0  0  0  0
   37.9769    9.5362   12.0506 H   0  0  0  0  0  0  0  0  0  0  0  0
   36.6071   11.2722   10.9176 H   0  0  0  0  0  0  0  0  0  0  0  0
  2  4  1  0
  3  6  1  0
  4  1  1  0
  5  1  1  0
  6  5  1  0
  7  3  2  0
  8  3  1  0
  9  2  2  0
 10  2  1  0
 11  7  1  0
 12  8  2  0
 13  9  1  0
 14 10  2  0
 15 12  1  0
 16 14  1  0
 13 16  2  0
 11 15  2  0
 18 17  1  0
 19 17  1  0
 20 19  1  0
 21 17  1  0
 18 22  1  0
 23 21  1  0
 20 24  1  0
 21 25  1  0
 26 24  1  0
 27 19  2  0
 28 25  2  0
 29 26  2  0
 30 26  1  0
 31 25  1  0
 32 23  1  0
 33 23  1  0
 34 30  1  0
 35 34  2  0
 36 34  1  0
 37 35  1  0
 38 36  2  0
 39 38  1  0
 22 23  1  0
 18 20  1  0
 37 39  2  0
  1 40  1  0
  4 41  1  0
  4 42  1  0
  5 43  1  0
  5 44  1  0
  6 45  1  0
  6 46  1  0
  7 47  1  0
  8 48  1  0
  9 49  1  0
 10 50  1  0
 11 51  1  0
 12 52  1  0
 13 53  1  0
 14 54  1  0
 15 55  1  0
 16 56  1  0
 18 57  1  1
 20 58  1  6
 21 59  1  6
 24 60  1  0
 30 61  1  0
 30 62  1  0
 31 63  1  0
 32 64  1  0
 32 65  1  0
 32 66  1  0
 33 67  1  0
 33 68  1  0
 33 69  1  0
 35 70  1  0
 36 71  1  0
 37 72  1  0
 38 73  1  0
 39 74  1  0
M  END
> <Uni-Dock RESULT> 
ENERGY=   -4.765  LOWER_BOUND=    9.468  UPPER_BOUND=   11.480
INTER + INTRA:          -4.765
INTER:                  -4.765
INTRA:                   0.000
UNBOUND:                 0.000

$$$$

     RDKit          3D

 74 77  0  0  0  0  0  0  0  0999 V2000
   48.2226    8.8310   14.8328 N   0  0  0  0  0  0  0  0  0  0  0  0
   49.1759    9.1397   12.5449 C   0  0  0  0  0  0  0  0  0  0  0  0
   49.2383    6.5456   16.6322 C   0  0  0  0  0  0  0  0  0  0  0  0
   48.3214    8.3040   13.4695 C   0  0  0  0  0  0  0  0  0  0  0  0
   49.4980    8.8590   15.5631 C   0  0  0  0  0  0  0  0  0  0  0  0
   50.1369    7.4913   15.8691 C   0  0  0  0  0  0  0  0  0  0  0  0
   48.8021    5.3499   16.0441 C   0  0  0  0  0  0  0  0  0  0  0  0
   48.8236    6.8494   17.9361 C   0  0  0  0  0  0  0  0  0  0  0  0
   48.9132   10.5066   12.3684 C   0  0  0  0  0  0  0  0  0  0  0  0
   50.2367    8.5565   11.8356 C   0  0  0  0  0  0  0  0  0  0  0  0
   47.9596    4.4828   16.7425 C   0  0  0  0  0  0  0  0  0  0  0  0
   47.9810    5.9815   18.6323 C   0  0  0  0  0  0  0  0  0  0  0  0
   49.7026   11.2771   11.5137 C   0  0  0  0  0  0  0  0  0  0  0  0
   51.0236    9.3281   10.9783 C   0  0  0  0  0  0  0  0  0  0  0  0
   47.5475    4.7999   18.0349 C   0  0  0  0  0  0  0  0  0  0  0  0
   50.7592   10.6872   10.8214 C   0  0  0  0  0  0  0  0  0  0  0  0
   47.7863    9.3518   12.4482 N   0  0  0  0  0  0  0  0  0  0  0  0
   48.0826    9.5145   13.8840 C   0  0  1  0  0  0  0  0  0  0  0  0
   47.7052    7.9925   12.5253 C   0  0  0  0  0  0  0  0  0  0  0  0
   47.6662    8.0287   14.0707 C   0  0  1  0  0  0  0  0  0  0  0  0
   48.6855   10.0076   11.5066 C   0  0  2  0  0  0  0  0  0  0  0  0
   49.8788    9.9084   13.9654 S   0  0  0  0  0  0  0  0  0  0  0  0
   50.0991   10.0278   12.1306 C   0  0  0  0  0  0  0  0  0  0  0  0
   48.6166    7.1149   14.7587 N   0  0  0  0  0  0  0  0  0  0  0  0
   48.1178   11.3934   11.2134 C   0  0  0  0  0  0  0  0  0  0  0  0
   48.8277    7.2106   16.1186 C   0  0  0  0  0  0  0  0  0  0  0  0
   47.7768    7.1401   11.6706 O   0  0  0  0  0  0  0  0  0  0  0  0
   47.4640   12.1044   11.9605 O   0  0  0  0  0  0  0  0  0  0  0  0
   48.2493    8.0466   16.8090 O   0  0  0  0  0  0  0  0  0  0  0  0
   49.8324    6.2174   16.6753 C   0  0  0  0  0  0  0  0  0  0  0  0
   48.4339   11.8293    9.9735 O   0  0  0  0  0  0  0  0  0  0  0  0
   50.9207   11.2884   11.8302 C   0  0  0  0  0  0  0  0  0  0  0  0
   50.9133    8.8011   11.6877 C   0  0  0  0  0  0  0  0  0  0  0  0
   49.2197    5.2632   17.6709 C   0  0  0  0  0  0  0  0  0  0  0  0
   48.7836    3.9911   17.2707 C   0  0  0  0  0  0  0  0  0  0  0  0
   49.0588    5.6468   19.0114 C   0  0  0  0  0  0  0  0  0  0  0  0
   48.2113    3.1161   18.1982 C   0  0  0  0  0  0  0  0  0  0  0  0
   48.4886    4.7698   19.9371 C   0  0  0  0  0  0  0  0  0  0  0  0
   48.0677    3.5039   19.5311 C   0  0  0  0  0  0  0  0  0  0  0  0
   47.5702    8.2429   15.3528 H   0  0  0  0  0  0  0  0  0  0  0  0
   48.6629    7.2630   13.4825 H   0  0  0  0  0  0  0  0  0  0  0  0
   47.3115    8.2749   13.0410 H   0  0  0  0  0  0  0  0  0  0  0  0
   50.2266    9.4859   15.0365 H   0  0  0  0  0  0  0  0  0  0  0  0
   49.3065    9.3778   16.5105 H   0  0  0  0  0  0  0  0  0  0  0  0
   50.4717    7.0231   14.9358 H   0  0  0  0  0  0  0  0  0  0  0  0
   51.0479    7.6470   16.4616 H   0  0  0  0  0  0  0  0  0  0  0  0
   49.1114    5.0855   15.0356 H   0  0  0  0  0  0  0  0  0  0  0  0
   49.1512    7.7669   18.4196 H   0  0  0  0  0  0  0  0  0  0  0  0
   48.0989   10.9778   12.9156 H   0  0  0  0  0  0  0  0  0  0  0  0
   50.4611    7.4989   11.9499 H   0  0  0  0  0  0  0  0  0  0  0  0
   47.6214    3.5598   16.2755 H   0  0  0  0  0  0  0  0  0  0  0  0
   47.6610    6.2291   19.6396 H   0  0  0  0  0  0  0  0  0  0  0  0
   49.4989   12.3370   11.3985 H   0  0  0  0  0  0  0  0  0  0  0  0
   51.8486    8.8701   10.4382 H   0  0  0  0  0  0  0  0  0  0  0  0
   46.8883    4.1268   18.5766 H   0  0  0  0  0  0  0  0  0  0  0  0
   51.3768   11.2886   10.1598 H   0  0  0  0  0  0  0  0  0  0  0  0
   47.4306   10.2452   14.3718 H   0  0  0  0  0  0  0  0  0  0  0  0
   46.6469    7.8924   14.4537 H   0  0  0  0  0  0  0  0  0  0  0  0
   48.6676    9.4394   10.5683 H   0  0  0  0  0  0  0  0  0  0  0  0
   49.0645    6.3724   14.2345 H   0  0  0  0  0  0  0  0  0  0  0  0
   50.6467    6.7866   17.1430 H   0  0  0  0  0  0  0  0  0  0  0  0
   50.3012    5.6474   15.8628 H   0  0  0  0  0  0  0  0  0  0  0  0
   48.0141   12.7124    9.9151 H   0  0  0  0  0  0  0  0  0  0  0  0
   51.0679   11.4080   10.7503 H   0  0  0  0  0  0  0  0  0  0  0  0
   50.4423   12.1993   12.2065 H   0  0  0  0  0  0  0  0  0  0  0  0
   51.9183   11.2365   12.2833 H   0  0  0  0  0  0  0  0  0  0  0  0
   50.4233    7.8549   11.9403 H   0  0  0  0  0  0  0  0  0  0  0  0
   51.0606    8.8109   10.6008 H   0  0  0  0  0  0  0  0  0  0  0  0
   51.9092    8.7897   12.1472 H   0  0  0  0  0  0  0  0  0  0  0  0
   48.8867    3.6704   16.2350 H   0  0  0  0  0  0  0  0  0  0  0  0
   49.3703    6.6376   19.3404 H   0  0  0  0  0  0  0  0  0  0  0  0
   47.8754    2.1316   17.8829 H   0  0  0  0  0  0  0  0  0  0  0  0
   48.3684    5.0792   20.9743 H   0  0  0  0  0  0  0  0  0  0  0  0
   47.6230    2.8216   20.2523 H   0  0  0  0  0  0  0  0  0  0  0  0
  2  4  1  0
  3  6  1  0
  4  1  1  0
  5  1  1  0
  6  5  1  0
  7  3  2  0
  8  3  1  0
  9  2  2  0
 10  2  1  0
 11  7  1  0
 12  8  2  0
 13  9  1  0
 14 10  2  0
 15 12  1  0
 16 14  1  0
 13 16  2  0
 11 15  2  0
 18 17  1  0
 19 17  1  0
 20 19  1  0
 21 17  1  0
 18 22  1  0
 23 21  1  0
 20 24  1  0
 21 25  1  0
 26 24  1  0
 27 19  2  0
 28 25  2  0
 29 26  2  0
 30 26  1  0
 31 25  1  0
 32 23  1  0
 33 23  1  0
 34 30  1  0
 35 34  2  0
 36 34  1  0
 37 35  1  0
 38 36  2  0
 39 38  1  0
 22 23  1  0
 18 20  1  0
 37 39  2  0
  1 40  1  0
  4 41  1  0
  4 42  1  0
  5 43  1  0
  5 44  1  0
  6 45  1  0
  6 46  1  0
  7 47  1  0
  8 48  1  0
  9 49  1  0
 10 50  1  0
 11 51  1  0
 12 52  1  0
 13 53  1  0
 14 54  1  0
 15 55  1  0
 16 56  1  0
 18 57  1  1
 20 58  1  6
 21 59  1  6
 24 60  1  0
 30 61  1  0
 30 62  1  0
 31 63  1  0
 32 64  1  0
 32 65  1  0
 32 66  1  0
 33 67  1  0
 33 68  1  0
 33 69  1  0
 35 70  1  0
 36 71  1  0
 37 72  1  0
 38 73  1  0
 39 74  1  0
M  END
> <Uni-Dock RESULT> 
ENERGY=   -4.728  LOWER_BOUND=    4.470  UPPER_BOUND=    7.422
INTER + INTRA:          -4.728
INTER:                  -4.728
INTRA:                   0.000
UNBOUND:                 0.000

$$$$
