
     RDKit          3D

 74 77  0  0  0  0  0  0  0  0999 V2000
   49.3338    7.5444   18.7490 N   0  0  0  0  0  0  0  0  0  0  0  0
   48.8801    9.9896   18.8086 C   0  0  0  0  0  0  0  0  0  0  0  0
   48.3456    4.5210   18.3477 C   0  0  0  0  0  0  0  0  0  0  0  0
   49.5272    8.8332   18.0831 C   0  0  0  0  0  0  0  0  0  0  0  0
   47.9636    7.0354   18.6114 C   0  0  0  0  0  0  0  0  0  0  0  0
   47.8098    5.6311   19.2216 C   0  0  0  0  0  0  0  0  0  0  0  0
   47.4765    3.7631   17.5502 C   0  0  0  0  0  0  0  0  0  0  0  0
   49.7176    4.2385   18.3123 C   0  0  0  0  0  0  0  0  0  0  0  0
   47.6945   10.5623   18.3263 C   0  0  0  0  0  0  0  0  0  0  0  0
   49.4474   10.4975   19.9873 C   0  0  0  0  0  0  0  0  0  0  0  0
   47.9699    2.7392   16.7397 C   0  0  0  0  0  0  0  0  0  0  0  0
   50.2105    3.2154   17.5006 C   0  0  0  0  0  0  0  0  0  0  0  0
   47.0909   11.6216   19.0066 C   0  0  0  0  0  0  0  0  0  0  0  0
   48.8427   11.5578   20.6652 C   0  0  0  0  0  0  0  0  0  0  0  0
   49.3367    2.4662   16.7152 C   0  0  0  0  0  0  0  0  0  0  0  0
   47.6651   12.1188   20.1748 C   0  0  0  0  0  0  0  0  0  0  0  0
   50.3261    5.3349   17.4898 N   0  0  0  0  0  0  0  0  0  0  0  0
   50.0137    5.9235   18.8051 C   0  0  1  0  0  0  0  0  0  0  0  0
   49.9717    6.4582   16.8004 C   0  0  0  0  0  0  0  0  0  0  0  0
   49.9403    7.3049   18.0958 C   0  0  1  0  0  0  0  0  0  0  0  0
   49.7422    4.0321   17.1895 C   0  0  2  0  0  0  0  0  0  0  0  0
   48.4244    5.1448   19.3135 S   0  0  0  0  0  0  0  0  0  0  0  0
   48.3705    3.9505   17.8978 C   0  0  0  0  0  0  0  0  0  0  0  0
   48.7208    8.1308   18.2984 N   0  0  0  0  0  0  0  0  0  0  0  0
   50.7366    2.9660   17.6418 C   0  0  0  0  0  0  0  0  0  0  0  0
   48.4567    8.7090   19.5205 C   0  0  0  0  0  0  0  0  0  0  0  0
   49.6787    6.6204   15.6390 O   0  0  0  0  0  0  0  0  0  0  0  0
   51.5402    3.0396   18.5599 O   0  0  0  0  0  0  0  0  0  0  0  0
   49.2242    8.5939   20.4740 O   0  0  0  0  0  0  0  0  0  0  0  0
   47.1524    9.4823   19.5877 C   0  0  0  0  0  0  0  0  0  0  0  0
   50.6418    1.8261   16.9189 O   0  0  0  0  0  0  0  0  0  0  0  0
   48.0111    2.5686   18.4597 C   0  0  0  0  0  0  0  0  0  0  0  0
   47.2370    4.3997   16.9603 C   0  0  0  0  0  0  0  0  0  0  0  0
   47.3600   10.9557   19.8331 C   0  0  0  0  0  0  0  0  0  0  0  0
   47.3987   11.8628   18.7639 C   0  0  0  0  0  0  0  0  0  0  0  0
   47.5406   11.4354   21.1392 C   0  0  0  0  0  0  0  0  0  0  0  0
   47.5983   13.2255   19.0001 C   0  0  0  0  0  0  0  0  0  0  0  0
   47.7383   12.7980   21.3741 C   0  0  0  0  0  0  0  0  0  0  0  0
   47.7663   13.6923   20.3043 C   0  0  0  0  0  0  0  0  0  0  0  0
   49.5625    7.6401   19.7368 H   0  0  0  0  0  0  0  0  0  0  0  0
   49.1887    8.7857   17.0405 H   0  0  0  0  0  0  0  0  0  0  0  0
   50.6052    9.0299   18.0220 H   0  0  0  0  0  0  0  0  0  0  0  0
   47.2734    7.7056   19.1379 H   0  0  0  0  0  0  0  0  0  0  0  0
   47.6665    7.0146   17.5561 H   0  0  0  0  0  0  0  0  0  0  0  0
   46.7434    5.4474   19.4071 H   0  0  0  0  0  0  0  0  0  0  0  0
   48.2863    5.5804   20.2094 H   0  0  0  0  0  0  0  0  0  0  0  0
   46.4084    3.9669   17.5544 H   0  0  0  0  0  0  0  0  0  0  0  0
   50.4109    4.8236   18.9123 H   0  0  0  0  0  0  0  0  0  0  0  0
   47.2325   10.1823   17.4177 H   0  0  0  0  0  0  0  0  0  0  0  0
   50.3671   10.0705   20.3812 H   0  0  0  0  0  0  0  0  0  0  0  0
   47.2880    2.1563   16.1266 H   0  0  0  0  0  0  0  0  0  0  0  0
   51.2766    3.0077   17.4797 H   0  0  0  0  0  0  0  0  0  0  0  0
   46.1709   12.0573   18.6260 H   0  0  0  0  0  0  0  0  0  0  0  0
   49.2910   11.9467   21.5755 H   0  0  0  0  0  0  0  0  0  0  0  0
   49.7206    1.6695   16.0841 H   0  0  0  0  0  0  0  0  0  0  0  0
   47.1950   12.9442   20.7030 H   0  0  0  0  0  0  0  0  0  0  0  0
   50.8291    5.8154   19.5270 H   0  0  0  0  0  0  0  0  0  0  0  0
   50.8462    7.9139   18.2067 H   0  0  0  0  0  0  0  0  0  0  0  0
   49.6415    3.9504   16.0996 H   0  0  0  0  0  0  0  0  0  0  0  0
   48.0882    8.2897   17.5223 H   0  0  0  0  0  0  0  0  0  0  0  0
   46.5419    9.0453   20.3892 H   0  0  0  0  0  0  0  0  0  0  0  0
   46.5721    9.3396   18.6667 H   0  0  0  0  0  0  0  0  0  0  0  0
   51.3180    1.2361   17.3134 H   0  0  0  0  0  0  0  0  0  0  0  0
   48.7286    2.2229   19.2110 H   0  0  0  0  0  0  0  0  0  0  0  0
   47.9786    1.8218   17.6579 H   0  0  0  0  0  0  0  0  0  0  0  0
   47.0209    2.5714   18.9333 H   0  0  0  0  0  0  0  0  0  0  0  0
   47.4107    5.3925   16.5326 H   0  0  0  0  0  0  0  0  0  0  0  0
   46.2733    4.4352   17.4789 H   0  0  0  0  0  0  0  0  0  0  0  0
   47.1272    3.6980   16.1276 H   0  0  0  0  0  0  0  0  0  0  0  0
   47.2737   11.5197   17.7392 H   0  0  0  0  0  0  0  0  0  0  0  0
   47.5389   10.7442   21.9807 H   0  0  0  0  0  0  0  0  0  0  0  0
   47.6265   13.9238   18.1650 H   0  0  0  0  0  0  0  0  0  0  0  0
   47.8769   13.1597   22.3916 H   0  0  0  0  0  0  0  0  0  0  0  0
   47.9241   14.7525   20.4862 H   0  0  0  0  0  0  0  0  0  0  0  0
  2  4  1  0
  3  6  1  0
  4  1  1  0
  5  1  1  0
  6  5  1  0
  7  3  2  0
  8  3  1  0
  9  2  2  0
 10  2  1  0
 11  7  1  0
 12  8  2  0
 13  9  1  0
 14 10  2  0
 15 12  1  0
 16 14  1  0
 13 16  2  0
 11 15  2  0
 18 17  1  0
 19 17  1  0
 20 19  1  0
 21 17  1  0
 18 22  1  0
 23 21  1  0
 20 24  1  0
 21 25  1  0
 26 24  1  0
 27 19  2  0
 28 25  2  0
 29 26  2  0
 30 26  1  0
 31 25  1  0
 32 23  1  0
 33 23  1  0
 34 30  1  0
 35 34  2  0
 36 34  1  0
 37 35  1  0
 38 36  2  0
 39 38  1  0
 22 23  1  0
 18 20  1  0
 37 39  2  0
  1 40  1  0
  4 41  1  0
  4 42  1  0
  5 43  1  0
  5 44  1  0
  6 45  1  0
  6 46  1  0
  7 47  1  0
  8 48  1  0
  9 49  1  0
 10 50  1  0
 11 51  1  0
 12 52  1  0
 13 53  1  0
 14 54  1  0
 15 55  1  0
 16 56  1  0
 18 57  1  6
 20 58  1  1
 21 59  1  1
 24 60  1  0
 30 61  1  0
 30 62  1  0
 31 63  1  0
 32 64  1  0
 32 65  1  0
 32 66  1  0
 33 67  1  0
 33 68  1  0
 33 69  1  0
 35 70  1  0
 36 71  1  0
 37 72  1  0
 38 73  1  0
 39 74  1  0
M  END
> <Uni-Dock RESULT> 
ENERGY=   -6.813  LOWER_BOUND=    0.000  UPPER_BOUND=    0.000
INTER + INTRA:          -6.813
INTER:                  -6.813
INTRA:                   0.000
UNBOUND:                 0.000

$$$$

     RDKit          3D

 74 77  0  0  0  0  0  0  0  0999 V2000
   49.7636    8.5372   18.3336 N   0  0  0  0  0  0  0  0  0  0  0  0
   51.2675    6.5587   18.4434 C   0  0  0  0  0  0  0  0  0  0  0  0
   47.5677   10.4635   19.6550 C   0  0  0  0  0  0  0  0  0  0  0  0
   51.1454    8.0644   18.4279 C   0  0  0  0  0  0  0  0  0  0  0  0
   49.0167    8.3579   19.5847 C   0  0  0  0  0  0  0  0  0  0  0  0
   47.6034    8.9609   19.5001 C   0  0  0  0  0  0  0  0  0  0  0  0
   47.2374   11.0422   20.8887 C   0  0  0  0  0  0  0  0  0  0  0  0
   47.8736   11.3008   18.5740 C   0  0  0  0  0  0  0  0  0  0  0  0
   51.5536    5.8772   19.6350 C   0  0  0  0  0  0  0  0  0  0  0  0
   51.0791    5.8171   17.2671 C   0  0  0  0  0  0  0  0  0  0  0  0
   47.2071   12.4302   21.0348 C   0  0  0  0  0  0  0  0  0  0  0  0
   47.8444   12.6886   18.7212 C   0  0  0  0  0  0  0  0  0  0  0  0
   51.6518    4.4846   19.6492 C   0  0  0  0  0  0  0  0  0  0  0  0
   51.1791    4.4246   17.2835 C   0  0  0  0  0  0  0  0  0  0  0  0
   47.5108   13.2525   19.9510 C   0  0  0  0  0  0  0  0  0  0  0  0
   51.4650    3.7593   18.4742 C   0  0  0  0  0  0  0  0  0  0  0  0
   49.3652   11.2361   18.4333 N   0  0  0  0  0  0  0  0  0  0  0  0
   48.8394    9.9678   17.8955 C   0  0  1  0  0  0  0  0  0  0  0  0
   50.4550   10.6475   19.0064 C   0  0  0  0  0  0  0  0  0  0  0  0
   50.2194    9.3324   18.2248 C   0  0  1  0  0  0  0  0  0  0  0  0
   48.4437   12.0636   19.2042 C   0  0  2  0  0  0  0  0  0  0  0  0
   47.4227    9.5343   18.9890 S   0  0  0  0  0  0  0  0  0  0  0  0
   47.4623   11.1234   19.9411 C   0  0  0  0  0  0  0  0  0  0  0  0
   50.2397    8.0864   19.0355 N   0  0  0  0  0  0  0  0  0  0  0  0
   47.7665   13.0269   18.2329 C   0  0  0  0  0  0  0  0  0  0  0  0
   49.7821    6.8975   18.5115 C   0  0  0  0  0  0  0  0  0  0  0  0
   51.1944   11.0256   19.8847 O   0  0  0  0  0  0  0  0  0  0  0  0
   47.5224   12.8413   17.0496 O   0  0  0  0  0  0  0  0  0  0  0  0
   49.3720    6.8112   17.3558 O   0  0  0  0  0  0  0  0  0  0  0  0
   49.8211    5.7237   19.4730 C   0  0  0  0  0  0  0  0  0  0  0  0
   47.3945   14.1858   18.8241 O   0  0  0  0  0  0  0  0  0  0  0  0
   46.0229   11.6441   20.0504 C   0  0  0  0  0  0  0  0  0  0  0  0
   47.9666   10.7985   21.3572 C   0  0  0  0  0  0  0  0  0  0  0  0
   50.7641    4.6350   19.0261 C   0  0  0  0  0  0  0  0  0  0  0  0
   52.0796    4.5818   19.5100 C   0  0  0  0  0  0  0  0  0  0  0  0
   50.3408    3.6710   18.0987 C   0  0  0  0  0  0  0  0  0  0  0  0
   52.9485    3.5733   19.0853 C   0  0  0  0  0  0  0  0  0  0  0  0
   51.2098    2.6624   17.6762 C   0  0  0  0  0  0  0  0  0  0  0  0
   52.5131    2.6139   18.1705 C   0  0  0  0  0  0  0  0  0  0  0  0
   49.2900    8.0400   17.5815 H   0  0  0  0  0  0  0  0  0  0  0  0
   51.6485    8.5076   19.2965 H   0  0  0  0  0  0  0  0  0  0  0  0
   51.6978    8.4419   17.5578 H   0  0  0  0  0  0  0  0  0  0  0  0
   48.9106    7.2865   19.7931 H   0  0  0  0  0  0  0  0  0  0  0  0
   49.5608    8.8074   20.4239 H   0  0  0  0  0  0  0  0  0  0  0  0
   46.9861    8.5123   20.2894 H   0  0  0  0  0  0  0  0  0  0  0  0
   47.1147    8.6793   18.5581 H   0  0  0  0  0  0  0  0  0  0  0  0
   47.0027   10.4144   21.7450 H   0  0  0  0  0  0  0  0  0  0  0  0
   48.1463   10.8725   17.6122 H   0  0  0  0  0  0  0  0  0  0  0  0
   51.6982    6.4295   20.5609 H   0  0  0  0  0  0  0  0  0  0  0  0
   50.8567    6.3229   16.3299 H   0  0  0  0  0  0  0  0  0  0  0  0
   46.9481   12.8691   21.9945 H   0  0  0  0  0  0  0  0  0  0  0  0
   48.0861   13.3273   17.8763 H   0  0  0  0  0  0  0  0  0  0  0  0
   51.8717    3.9654   20.5783 H   0  0  0  0  0  0  0  0  0  0  0  0
   51.0349    3.8589   16.3670 H   0  0  0  0  0  0  0  0  0  0  0  0
   47.4874   14.3327   20.0650 H   0  0  0  0  0  0  0  0  0  0  0  0
   51.5427    2.6754   18.4861 H   0  0  0  0  0  0  0  0  0  0  0  0
   48.5963   10.0228   16.8298 H   0  0  0  0  0  0  0  0  0  0  0  0
   50.8902    9.2461   17.3608 H   0  0  0  0  0  0  0  0  0  0  0  0
   49.0359   12.6634   19.9071 H   0  0  0  0  0  0  0  0  0  0  0  0
   50.6161    8.1067   19.9767 H   0  0  0  0  0  0  0  0  0  0  0  0
   48.8004    5.3290   19.5653 H   0  0  0  0  0  0  0  0  0  0  0  0
   50.0971    6.0605   20.4809 H   0  0  0  0  0  0  0  0  0  0  0  0
   46.9732   14.6979   18.1021 H   0  0  0  0  0  0  0  0  0  0  0  0
   45.5619   11.8084   19.0710 H   0  0  0  0  0  0  0  0  0  0  0  0
   45.9957   12.5933   20.5978 H   0  0  0  0  0  0  0  0  0  0  0  0
   45.3811   10.9417   20.5977 H   0  0  0  0  0  0  0  0  0  0  0  0
   48.9861   10.3995   21.3617 H   0  0  0  0  0  0  0  0  0  0  0  0
   47.3285   10.0606   21.8544 H   0  0  0  0  0  0  0  0  0  0  0  0
   47.9630   11.6976   21.9813 H   0  0  0  0  0  0  0  0  0  0  0  0
   52.4406    5.3219   20.2209 H   0  0  0  0  0  0  0  0  0  0  0  0
   49.3313    3.7096   17.6920 H   0  0  0  0  0  0  0  0  0  0  0  0
   53.9682    3.5381   19.4659 H   0  0  0  0  0  0  0  0  0  0  0  0
   50.8710    1.9191   16.9565 H   0  0  0  0  0  0  0  0  0  0  0  0
   53.1913    1.8314   17.8390 H   0  0  0  0  0  0  0  0  0  0  0  0
  2  4  1  0
  3  6  1  0
  4  1  1  0
  5  1  1  0
  6  5  1  0
  7  3  2  0
  8  3  1  0
  9  2  2  0
 10  2  1  0
 11  7  1  0
 12  8  2  0
 13  9  1  0
 14 10  2  0
 15 12  1  0
 16 14  1  0
 13 16  2  0
 11 15  2  0
 18 17  1  0
 19 17  1  0
 20 19  1  0
 21 17  1  0
 18 22  1  0
 23 21  1  0
 20 24  1  0
 21 25  1  0
 26 24  1  0
 27 19  2  0
 28 25  2  0
 29 26  2  0
 30 26  1  0
 31 25  1  0
 32 23  1  0
 33 23  1  0
 34 30  1  0
 35 34  2  0
 36 34  1  0
 37 35  1  0
 38 36  2  0
 39 38  1  0
 22 23  1  0
 18 20  1  0
 37 39  2  0
  1 40  1  0
  4 41  1  0
  4 42  1  0
  5 43  1  0
  5 44  1  0
  6 45  1  0
  6 46  1  0
  7 47  1  0
  8 48  1  0
  9 49  1  0
 10 50  1  0
 11 51  1  0
 12 52  1  0
 13 53  1  0
 14 54  1  0
 15 55  1  0
 16 56  1  0
 18 57  1  6
 20 58  1  1
 21 59  1  1
 24 60  1  0
 30 61  1  0
 30 62  1  0
 31 63  1  0
 32 64  1  0
 32 65  1  0
 32 66  1  0
 33 67  1  0
 33 68  1  0
 33 69  1  0
 35 70  1  0
 36 71  1  0
 37 72  1  0
 38 73  1  0
 39 74  1  0
M  END
> <Uni-Dock RESULT> 
ENERGY=   -5.205  LOWER_BOUND=    2.074  UPPER_BOUND=    7.660
INTER + INTRA:          -5.205
INTER:                  -5.205
INTRA:                   0.000
UNBOUND:                 0.000

$$$$

     RDKit          3D

 74 77  0  0  0  0  0  0  0  0999 V2000
   48.8001    8.9867   18.2718 N   0  0  0  0  0  0  0  0  0  0  0  0
   49.3493    6.5875   17.9101 C   0  0  0  0  0  0  0  0  0  0  0  0
   47.7186   11.3632   20.1323 C   0  0  0  0  0  0  0  0  0  0  0  0
   49.8631    7.9951   18.1029 C   0  0  0  0  0  0  0  0  0  0  0  0
   48.1506    8.9030   19.5858 C   0  0  0  0  0  0  0  0  0  0  0  0
   47.1140   10.0226   19.7852 C   0  0  0  0  0  0  0  0  0  0  0  0
   47.7602   11.7998   21.4640 C   0  0  0  0  0  0  0  0  0  0  0  0
   48.2558   12.1851   19.1326 C   0  0  0  0  0  0  0  0  0  0  0  0
   49.4221    5.6513   18.9514 C   0  0  0  0  0  0  0  0  0  0  0  0
   48.7748    6.2004   16.6898 C   0  0  0  0  0  0  0  0  0  0  0  0
   48.3213   13.0365   21.7871 C   0  0  0  0  0  0  0  0  0  0  0  0
   48.8180   13.4210   19.4566 C   0  0  0  0  0  0  0  0  0  0  0  0
   48.9336    4.3554   18.7751 C   0  0  0  0  0  0  0  0  0  0  0  0
   48.2881    4.9035   16.5153 C   0  0  0  0  0  0  0  0  0  0  0  0
   48.8502   13.8462   20.7832 C   0  0  0  0  0  0  0  0  0  0  0  0
   48.3675    3.9821   17.5579 C   0  0  0  0  0  0  0  0  0  0  0  0
   49.5688   11.5586   18.7687 N   0  0  0  0  0  0  0  0  0  0  0  0
   48.5217   10.7194   18.1576 C   0  0  1  0  0  0  0  0  0  0  0  0
   50.3581   10.4950   19.0976 C   0  0  0  0  0  0  0  0  0  0  0  0
   49.5346    9.5409   18.1989 C   0  0  1  0  0  0  0  0  0  0  0  0
   49.1405   12.5352   19.7641 C   0  0  2  0  0  0  0  0  0  0  0  0
   47.1470   10.7004   19.3826 S   0  0  0  0  0  0  0  0  0  0  0  0
   47.9206   11.9495   20.5117 C   0  0  0  0  0  0  0  0  0  0  0  0
   49.1012    8.2685   18.8341 N   0  0  0  0  0  0  0  0  0  0  0  0
   48.8483   13.8422   19.0316 C   0  0  0  0  0  0  0  0  0  0  0  0
   48.1499    7.4712   18.2366 C   0  0  0  0  0  0  0  0  0  0  0  0
   51.2564   10.3878   19.8991 O   0  0  0  0  0  0  0  0  0  0  0  0
   48.4539   13.9793   17.8828 O   0  0  0  0  0  0  0  0  0  0  0  0
   47.6486    7.7588   17.1515 O   0  0  0  0  0  0  0  0  0  0  0  0
   47.7757    6.2301   19.0261 C   0  0  0  0  0  0  0  0  0  0  0  0
   49.0410   14.9304   19.8124 O   0  0  0  0  0  0  0  0  0  0  0  0
   46.8419   12.9714   20.8948 C   0  0  0  0  0  0  0  0  0  0  0  0
   48.3576   11.2084   21.7865 C   0  0  0  0  0  0  0  0  0  0  0  0
   48.1412    4.9528   18.3123 C   0  0  0  0  0  0  0  0  0  0  0  0
   49.3502    4.2973   18.5884 C   0  0  0  0  0  0  0  0  0  0  0  0
   47.2817    4.4151   17.3424 C   0  0  0  0  0  0  0  0  0  0  0  0
   49.6838    3.1179   17.9175 C   0  0  0  0  0  0  0  0  0  0  0  0
   47.6156    3.2352   16.6737 C   0  0  0  0  0  0  0  0  0  0  0  0
   48.8163    2.5869   16.9622 C   0  0  0  0  0  0  0  0  0  0  0  0
   48.1033    8.8587   17.5402 H   0  0  0  0  0  0  0  0  0  0  0  0
   50.5736    8.0422   18.9377 H   0  0  0  0  0  0  0  0  0  0  0  0
   50.4497    8.2679   17.2162 H   0  0  0  0  0  0  0  0  0  0  0  0
   47.6262    7.9436   19.6705 H   0  0  0  0  0  0  0  0  0  0  0  0
   48.8986    8.9447   20.3866 H   0  0  0  0  0  0  0  0  0  0  0  0
   46.4325    9.7257   20.5932 H   0  0  0  0  0  0  0  0  0  0  0  0
   46.4777   10.1282   18.8967 H   0  0  0  0  0  0  0  0  0  0  0  0
   47.3563   11.1776   22.2592 H   0  0  0  0  0  0  0  0  0  0  0  0
   48.2467   11.8594   18.0950 H   0  0  0  0  0  0  0  0  0  0  0  0
   49.8580    5.9293   19.9086 H   0  0  0  0  0  0  0  0  0  0  0  0
   48.7074    6.9084   15.8666 H   0  0  0  0  0  0  0  0  0  0  0  0
   48.3471   13.3667   22.8220 H   0  0  0  0  0  0  0  0  0  0  0  0
   49.2337   14.0482   18.6730 H   0  0  0  0  0  0  0  0  0  0  0  0
   48.9926    3.6376   19.5891 H   0  0  0  0  0  0  0  0  0  0  0  0
   47.8479    4.6117   15.5657 H   0  0  0  0  0  0  0  0  0  0  0  0
   49.2871   14.8086   21.0349 H   0  0  0  0  0  0  0  0  0  0  0  0
   47.9884    2.9727   17.4214 H   0  0  0  0  0  0  0  0  0  0  0  0
   48.2377   11.0521   17.1544 H   0  0  0  0  0  0  0  0  0  0  0  0
   50.0362    9.3477   17.2424 H   0  0  0  0  0  0  0  0  0  0  0  0
   49.9834   12.7171   20.4431 H   0  0  0  0  0  0  0  0  0  0  0  0
   49.5271    7.9723   19.7052 H   0  0  0  0  0  0  0  0  0  0  0  0
   46.6945    6.2640   19.2157 H   0  0  0  0  0  0  0  0  0  0  0  0
   48.2476    6.2473   20.0172 H   0  0  0  0  0  0  0  0  0  0  0  0
   48.8134   15.6855   19.2301 H   0  0  0  0  0  0  0  0  0  0  0  0
   46.4129   13.4741   20.0219 H   0  0  0  0  0  0  0  0  0  0  0  0
   47.2562   13.7414   21.5557 H   0  0  0  0  0  0  0  0  0  0  0  0
   46.0131   12.4980   21.4368 H   0  0  0  0  0  0  0  0  0  0  0  0
   49.1158   10.4430   21.5916 H   0  0  0  0  0  0  0  0  0  0  0  0
   47.5133   10.7103   22.2743 H   0  0  0  0  0  0  0  0  0  0  0  0
   48.7787   11.9104   22.5129 H   0  0  0  0  0  0  0  0  0  0  0  0
   50.0426    4.6960   19.3267 H   0  0  0  0  0  0  0  0  0  0  0  0
   46.3502    4.9223   17.0957 H   0  0  0  0  0  0  0  0  0  0  0  0
   50.6239    2.6142   18.1376 H   0  0  0  0  0  0  0  0  0  0  0  0
   46.9413    2.8263   15.9231 H   0  0  0  0  0  0  0  0  0  0  0  0
   49.0786    1.6706   16.4392 H   0  0  0  0  0  0  0  0  0  0  0  0
  2  4  1  0
  3  6  1  0
  4  1  1  0
  5  1  1  0
  6  5  1  0
  7  3  2  0
  8  3  1  0
  9  2  2  0
 10  2  1  0
 11  7  1  0
 12  8  2  0
 13  9  1  0
 14 10  2  0
 15 12  1  0
 16 14  1  0
 13 16  2  0
 11 15  2  0
 18 17  1  0
 19 17  1  0
 20 19  1  0
 21 17  1  0
 18 22  1  0
 23 21  1  0
 20 24  1  0
 21 25  1  0
 26 24  1  0
 27 19  2  0
 28 25  2  0
 29 26  2  0
 30 26  1  0
 31 25  1  0
 32 23  1  0
 33 23  1  0
 34 30  1  0
 35 34  2  0
 36 34  1  0
 37 35  1  0
 38 36  2  0
 39 38  1  0
 22 23  1  0
 18 20  1  0
 37 39  2  0
  1 40  1  0
  4 41  1  0
  4 42  1  0
  5 43  1  0
  5 44  1  0
  6 45  1  0
  6 46  1  0
  7 47  1  0
  8 48  1  0
  9 49  1  0
 10 50  1  0
 11 51  1  0
 12 52  1  0
 13 53  1  0
 14 54  1  0
 15 55  1  0
 16 56  1  0
 18 57  1  6
 20 58  1  1
 21 59  1  1
 24 60  1  0
 30 61  1  0
 30 62  1  0
 31 63  1  0
 32 64  1  0
 32 65  1  0
 32 66  1  0
 33 67  1  0
 33 68  1  0
 33 69  1  0
 35 70  1  0
 36 71  1  0
 37 72  1  0
 38 73  1  0
 39 74  1  0
M  END
> <Uni-Dock RESULT> 
ENERGY=   -5.179  LOWER_BOUND=    2.075  UPPER_BOUND=    7.774
INTER + INTRA:          -5.179
INTER:                  -5.179
INTRA:                   0.000
UNBOUND:                 0.000

$$$$

     RDKit          3D

 74 77  0  0  0  0  0  0  0  0999 V2000
   48.2851    7.6057   13.1902 N   0  0  0  0  0  0  0  0  0  0  0  0
   45.9257    6.8708   12.9049 C   0  0  0  0  0  0  0  0  0  0  0  0
   50.9526    8.9679   12.0467 C   0  0  0  0  0  0  0  0  0  0  0  0
   46.8864    7.8421   13.5499 C   0  0  0  0  0  0  0  0  0  0  0  0
   48.5926    8.0119   11.8133 C   0  0  0  0  0  0  0  0  0  0  0  0
   50.0896    7.8589   11.4912 C   0  0  0  0  0  0  0  0  0  0  0  0
   51.3597   10.0292   11.2259 C   0  0  0  0  0  0  0  0  0  0  0  0
   51.3504    8.9591   13.3902 C   0  0  0  0  0  0  0  0  0  0  0  0
   45.1226    7.2696   11.8269 C   0  0  0  0  0  0  0  0  0  0  0  0
   45.8351    5.5480   13.3645 C   0  0  0  0  0  0  0  0  0  0  0  0
   52.1543   11.0565   11.7379 C   0  0  0  0  0  0  0  0  0  0  0  0
   52.1438    9.9873   13.9018 C   0  0  0  0  0  0  0  0  0  0  0  0
   44.2459    6.3659   11.2235 C   0  0  0  0  0  0  0  0  0  0  0  0
   44.9568    4.6464   12.7604 C   0  0  0  0  0  0  0  0  0  0  0  0
   52.5456   11.0350   13.0757 C   0  0  0  0  0  0  0  0  0  0  0  0
   44.1631    5.0557   11.6904 C   0  0  0  0  0  0  0  0  0  0  0  0
   50.1323    9.3631   14.1659 N   0  0  0  0  0  0  0  0  0  0  0  0
   49.9148    7.9672   13.7438 C   0  0  1  0  0  0  0  0  0  0  0  0
   48.8292    9.7207   13.9742 C   0  0  0  0  0  0  0  0  0  0  0  0
   48.3884    8.2420   13.8507 C   0  0  1  0  0  0  0  0  0  0  0  0
   51.2293   10.0857   13.5315 C   0  0  2  0  0  0  0  0  0  0  0  0
   50.6414    7.8583   12.0553 S   0  0  0  0  0  0  0  0  0  0  0  0
   51.3705    9.5615   12.0840 C   0  0  0  0  0  0  0  0  0  0  0  0
   47.5358    7.9179   12.6767 N   0  0  0  0  0  0  0  0  0  0  0  0
   52.4749    9.8782   14.3891 C   0  0  0  0  0  0  0  0  0  0  0  0
   47.3066    6.6093   12.3125 C   0  0  0  0  0  0  0  0  0  0  0  0
   48.3138   10.8046   13.8312 O   0  0  0  0  0  0  0  0  0  0  0  0
   52.7478    8.9095   15.0828 O   0  0  0  0  0  0  0  0  0  0  0  0
   47.7657    5.6659   12.9532 O   0  0  0  0  0  0  0  0  0  0  0  0
   46.4569    6.4372   11.0666 C   0  0  0  0  0  0  0  0  0  0  0  0
   53.3457   10.9101   14.2999 O   0  0  0  0  0  0  0  0  0  0  0  0
   52.8117    9.4667   11.5655 C   0  0  0  0  0  0  0  0  0  0  0  0
   50.5605   10.4250   11.1023 C   0  0  0  0  0  0  0  0  0  0  0  0
   45.1435    5.7510   11.3468 C   0  0  0  0  0  0  0  0  0  0  0  0
   43.9779    6.4976   11.5737 C   0  0  0  0  0  0  0  0  0  0  0  0
   45.0770    4.3507   11.4063 C   0  0  0  0  0  0  0  0  0  0  0  0
   42.7667    5.8535   11.8391 C   0  0  0  0  0  0  0  0  0  0  0  0
   43.8653    3.7081   11.6701 C   0  0  0  0  0  0  0  0  0  0  0  0
   42.7106    4.4601   11.8856 C   0  0  0  0  0  0  0  0  0  0  0  0
   48.4988    6.6169   13.3079 H   0  0  0  0  0  0  0  0  0  0  0  0
   46.6002    8.8789   13.3333 H   0  0  0  0  0  0  0  0  0  0  0  0
   46.7903    7.7436   14.6388 H   0  0  0  0  0  0  0  0  0  0  0  0
   48.0343    7.3770   11.1148 H   0  0  0  0  0  0  0  0  0  0  0  0
   48.2815    9.0491   11.6410 H   0  0  0  0  0  0  0  0  0  0  0  0
   50.2098    7.8341   10.4002 H   0  0  0  0  0  0  0  0  0  0  0  0
   50.4678    6.8904   11.8442 H   0  0  0  0  0  0  0  0  0  0  0  0
   51.0587   10.0631   10.1815 H   0  0  0  0  0  0  0  0  0  0  0  0
   51.0339    8.1526   14.0477 H   0  0  0  0  0  0  0  0  0  0  0  0
   45.1789    8.2881   11.4490 H   0  0  0  0  0  0  0  0  0  0  0  0
   46.4474    5.2148   14.1997 H   0  0  0  0  0  0  0  0  0  0  0  0
   52.4662   11.8737   11.0933 H   0  0  0  0  0  0  0  0  0  0  0  0
   52.4435    9.9707   14.9459 H   0  0  0  0  0  0  0  0  0  0  0  0
   43.6292    6.6840   10.3871 H   0  0  0  0  0  0  0  0  0  0  0  0
   44.8909    3.6250   13.1252 H   0  0  0  0  0  0  0  0  0  0  0  0
   53.1638   11.8347   13.4741 H   0  0  0  0  0  0  0  0  0  0  0  0
   43.4796    4.3533   11.2207 H   0  0  0  0  0  0  0  0  0  0  0  0
   50.3060    7.2376   14.4596 H   0  0  0  0  0  0  0  0  0  0  0  0
   47.9311    7.8743   14.7778 H   0  0  0  0  0  0  0  0  0  0  0  0
   50.9862   11.1558   13.5536 H   0  0  0  0  0  0  0  0  0  0  0  0
   47.0991    8.6674   12.1519 H   0  0  0  0  0  0  0  0  0  0  0  0
   47.0404    5.8592   10.3375 H   0  0  0  0  0  0  0  0  0  0  0  0
   46.2717    7.4085   10.5896 H   0  0  0  0  0  0  0  0  0  0  0  0
   54.0889   10.6465   14.8824 H   0  0  0  0  0  0  0  0  0  0  0  0
   53.4279    8.7880   12.1641 H   0  0  0  0  0  0  0  0  0  0  0  0
   53.2914   10.4522   11.5748 H   0  0  0  0  0  0  0  0  0  0  0  0
   52.8440    9.1060   10.5293 H   0  0  0  0  0  0  0  0  0  0  0  0
   49.5098   10.5237   11.3938 H   0  0  0  0  0  0  0  0  0  0  0  0
   50.5772   10.0094   10.0894 H   0  0  0  0  0  0  0  0  0  0  0  0
   50.9808   11.4337   11.0418 H   0  0  0  0  0  0  0  0  0  0  0  0
   44.0001    7.5849   11.5457 H   0  0  0  0  0  0  0  0  0  0  0  0
   45.9757    3.7538   11.2578 H   0  0  0  0  0  0  0  0  0  0  0  0
   41.8657    6.4399   12.0137 H   0  0  0  0  0  0  0  0  0  0  0  0
   43.8247    2.6210   11.7137 H   0  0  0  0  0  0  0  0  0  0  0  0
   41.7679    3.9605   12.0949 H   0  0  0  0  0  0  0  0  0  0  0  0
  2  4  1  0
  3  6  1  0
  4  1  1  0
  5  1  1  0
  6  5  1  0
  7  3  2  0
  8  3  1  0
  9  2  2  0
 10  2  1  0
 11  7  1  0
 12  8  2  0
 13  9  1  0
 14 10  2  0
 15 12  1  0
 16 14  1  0
 13 16  2  0
 11 15  2  0
 18 17  1  0
 19 17  1  0
 20 19  1  0
 21 17  1  0
 18 22  1  0
 23 21  1  0
 20 24  1  0
 21 25  1  0
 26 24  1  0
 27 19  2  0
 28 25  2  0
 29 26  2  0
 30 26  1  0
 31 25  1  0
 32 23  1  0
 33 23  1  0
 34 30  1  0
 35 34  2  0
 36 34  1  0
 37 35  1  0
 38 36  2  0
 39 38  1  0
 22 23  1  0
 18 20  1  0
 37 39  2  0
  1 40  1  0
  4 41  1  0
  4 42  1  0
  5 43  1  0
  5 44  1  0
  6 45  1  0
  6 46  1  0
  7 47  1  0
  8 48  1  0
  9 49  1  0
 10 50  1  0
 11 51  1  0
 12 52  1  0
 13 53  1  0
 14 54  1  0
 15 55  1  0
 16 56  1  0
 18 57  1  6
 20 58  1  1
 21 59  1  1
 24 60  1  0
 30 61  1  0
 30 62  1  0
 31 63  1  0
 32 64  1  0
 32 65  1  0
 32 66  1  0
 33 67  1  0
 33 68  1  0
 33 69  1  0
 35 70  1  0
 36 71  1  0
 37 72  1  0
 38 73  1  0
 39 74  1  0
M  END
> <Uni-Dock RESULT> 
ENERGY=   -5.033  LOWER_BOUND=    5.803  UPPER_BOUND=    8.796
INTER + INTRA:          -5.033
INTER:                  -5.033
INTRA:                   0.000
UNBOUND:                 0.000

$$$$

     RDKit          3D

 74 77  0  0  0  0  0  0  0  0999 V2000
   49.3306   10.0597   16.4880 N   0  0  0  0  0  0  0  0  0  0  0  0
   48.6319   11.5093   18.3851 C   0  0  0  0  0  0  0  0  0  0  0  0
   48.6650    7.8704   14.2424 C   0  0  0  0  0  0  0  0  0  0  0  0
   49.0590   11.4254   16.9384 C   0  0  0  0  0  0  0  0  0  0  0  0
   48.1073    9.2678   16.3098 C   0  0  0  0  0  0  0  0  0  0  0  0
   48.4061    7.8736   15.7310 C   0  0  0  0  0  0  0  0  0  0  0  0
   47.6476    7.5143   13.3458 C   0  0  0  0  0  0  0  0  0  0  0  0
   49.9197    8.2325   13.7345 C   0  0  0  0  0  0  0  0  0  0  0  0
   47.2903   11.7389   18.7220 C   0  0  0  0  0  0  0  0  0  0  0  0
   49.5701   11.3411   19.4150 C   0  0  0  0  0  0  0  0  0  0  0  0
   47.8838    7.5139   11.9699 C   0  0  0  0  0  0  0  0  0  0  0  0
   50.1547    8.2332   12.3586 C   0  0  0  0  0  0  0  0  0  0  0  0
   46.8961   11.8017   20.0599 C   0  0  0  0  0  0  0  0  0  0  0  0
   49.1737   11.4056   20.7522 C   0  0  0  0  0  0  0  0  0  0  0  0
   49.1371    7.8736   11.4772 C   0  0  0  0  0  0  0  0  0  0  0  0
   47.8373   11.6356   21.0737 C   0  0  0  0  0  0  0  0  0  0  0  0
   49.9803    9.7258   13.8576 N   0  0  0  0  0  0  0  0  0  0  0  0
   50.1746    9.1864   15.2161 C   0  0  1  0  0  0  0  0  0  0  0  0
   49.2279   10.7812   14.2850 C   0  0  0  0  0  0  0  0  0  0  0  0
   49.6330   10.5386   15.7591 C   0  0  1  0  0  0  0  0  0  0  0  0
   49.4980    8.8005   12.8381 C   0  0  2  0  0  0  0  0  0  0  0  0
   49.0598    7.7242   15.3151 S   0  0  0  0  0  0  0  0  0  0  0  0
   48.5725    7.7722   13.5281 C   0  0  0  0  0  0  0  0  0  0  0  0
   48.5152   10.5011   16.7386 N   0  0  0  0  0  0  0  0  0  0  0  0
   50.7190    8.1798   12.1643 C   0  0  0  0  0  0  0  0  0  0  0  0
   48.7151   10.0313   18.0180 C   0  0  0  0  0  0  0  0  0  0  0  0
   48.4570   11.5006   13.6941 O   0  0  0  0  0  0  0  0  0  0  0  0
   51.8164    7.9702   12.6602 O   0  0  0  0  0  0  0  0  0  0  0  0
   49.8193    9.6574   18.4085 O   0  0  0  0  0  0  0  0  0  0  0  0
   47.4711   10.0094   18.8873 C   0  0  0  0  0  0  0  0  0  0  0  0
   50.4781    7.8178   10.8830 O   0  0  0  0  0  0  0  0  0  0  0  0
   48.6635    6.3435   12.9756 C   0  0  0  0  0  0  0  0  0  0  0  0
   47.1030    8.2214   13.4642 C   0  0  0  0  0  0  0  0  0  0  0  0
   47.5702   10.9390   20.0707 C   0  0  0  0  0  0  0  0  0  0  0  0
   47.0398   12.2362   20.0106 C   0  0  0  0  0  0  0  0  0  0  0  0
   48.2178   10.5224   21.2436 C   0  0  0  0  0  0  0  0  0  0  0  0
   47.1421   13.0931   21.1095 C   0  0  0  0  0  0  0  0  0  0  0  0
   48.3179   11.3794   22.3420 C   0  0  0  0  0  0  0  0  0  0  0  0
   47.7792   12.6641   22.2744 C   0  0  0  0  0  0  0  0  0  0  0  0
   49.9377    9.5988   17.1633 H   0  0  0  0  0  0  0  0  0  0  0  0
   48.3240   11.9106   16.2839 H   0  0  0  0  0  0  0  0  0  0  0  0
   49.9768   12.0154   16.8195 H   0  0  0  0  0  0  0  0  0  0  0  0
   47.6210    9.1282   17.2828 H   0  0  0  0  0  0  0  0  0  0  0  0
   47.4008    9.7951   15.6578 H   0  0  0  0  0  0  0  0  0  0  0  0
   47.5492    7.2197   15.9392 H   0  0  0  0  0  0  0  0  0  0  0  0
   49.2549    7.4092   16.2502 H   0  0  0  0  0  0  0  0  0  0  0  0
   46.6631    7.2360   13.7141 H   0  0  0  0  0  0  0  0  0  0  0  0
   50.7186    8.5258   14.4117 H   0  0  0  0  0  0  0  0  0  0  0  0
   46.5435   11.8668   17.9414 H   0  0  0  0  0  0  0  0  0  0  0  0
   50.6169   11.1623   19.1792 H   0  0  0  0  0  0  0  0  0  0  0  0
   47.0893    7.2346   11.2832 H   0  0  0  0  0  0  0  0  0  0  0  0
   51.1310    8.5184   11.9768 H   0  0  0  0  0  0  0  0  0  0  0  0
   45.8534   11.9780   20.3108 H   0  0  0  0  0  0  0  0  0  0  0  0
   49.9077   11.2775   21.5431 H   0  0  0  0  0  0  0  0  0  0  0  0
   49.3207    7.8735   10.4063 H   0  0  0  0  0  0  0  0  0  0  0  0
   47.5295   11.6857   22.1149 H   0  0  0  0  0  0  0  0  0  0  0  0
   51.2239    8.9799   15.4486 H   0  0  0  0  0  0  0  0  0  0  0  0
   50.4150   11.2350   16.0868 H   0  0  0  0  0  0  0  0  0  0  0  0
   48.9614    9.3841   12.0791 H   0  0  0  0  0  0  0  0  0  0  0  0
   47.6009   10.8467   16.4695 H   0  0  0  0  0  0  0  0  0  0  0  0
   47.3147    8.9766   19.2267 H   0  0  0  0  0  0  0  0  0  0  0  0
   46.5821   10.2604   18.2940 H   0  0  0  0  0  0  0  0  0  0  0  0
   51.3274    7.4333   10.5797 H   0  0  0  0  0  0  0  0  0  0  0  0
   49.6678    5.9192   13.0761 H   0  0  0  0  0  0  0  0  0  0  0  0
   48.3948    6.3221   11.9131 H   0  0  0  0  0  0  0  0  0  0  0  0
   47.9716    5.6666   13.4933 H   0  0  0  0  0  0  0  0  0  0  0  0
   46.9516    9.2300   13.8625 H   0  0  0  0  0  0  0  0  0  0  0  0
   46.4496    7.5491   14.0298 H   0  0  0  0  0  0  0  0  0  0  0  0
   46.7461    8.2198   12.4296 H   0  0  0  0  0  0  0  0  0  0  0  0
   46.5424   12.5920   19.1109 H   0  0  0  0  0  0  0  0  0  0  0  0
   48.6581    9.5281   21.3014 H   0  0  0  0  0  0  0  0  0  0  0  0
   46.7273   14.0986   21.0556 H   0  0  0  0  0  0  0  0  0  0  0  0
   48.8221   11.0459   23.2475 H   0  0  0  0  0  0  0  0  0  0  0  0
   47.8603   13.3330   23.1277 H   0  0  0  0  0  0  0  0  0  0  0  0
  2  4  1  0
  3  6  1  0
  4  1  1  0
  5  1  1  0
  6  5  1  0
  7  3  2  0
  8  3  1  0
  9  2  2  0
 10  2  1  0
 11  7  1  0
 12  8  2  0
 13  9  1  0
 14 10  2  0
 15 12  1  0
 16 14  1  0
 13 16  2  0
 11 15  2  0
 18 17  1  0
 19 17  1  0
 20 19  1  0
 21 17  1  0
 18 22  1  0
 23 21  1  0
 20 24  1  0
 21 25  1  0
 26 24  1  0
 27 19  2  0
 28 25  2  0
 29 26  2  0
 30 26  1  0
 31 25  1  0
 32 23  1  0
 33 23  1  0
 34 30  1  0
 35 34  2  0
 36 34  1  0
 37 35  1  0
 38 36  2  0
 39 38  1  0
 22 23  1  0
 18 20  1  0
 37 39  2  0
  1 40  1  0
  4 41  1  0
  4 42  1  0
  5 43  1  0
  5 44  1  0
  6 45  1  0
  6 46  1  0
  7 47  1  0
  8 48  1  0
  9 49  1  0
 10 50  1  0
 11 51  1  0
 12 52  1  0
 13 53  1  0
 14 54  1  0
 15 55  1  0
 16 56  1  0
 18 57  1  6
 20 58  1  1
 21 59  1  1
 24 60  1  0
 30 61  1  0
 30 62  1  0
 31 63  1  0
 32 64  1  0
 32 65  1  0
 32 66  1  0
 33 67  1  0
 33 68  1  0
 33 69  1  0
 35 70  1  0
 36 71  1  0
 37 72  1  0
 38 73  1  0
 39 74  1  0
M  END
> <Uni-Dock RESULT> 
ENERGY=   -5.024  LOWER_BOUND=    3.686  UPPER_BOUND=    4.604
INTER + INTRA:          -5.024
INTER:                  -5.024
INTRA:                   0.000
UNBOUND:                 0.000

$$$$

     RDKit          3D

 74 77  0  0  0  0  0  0  0  0999 V2000
   48.7351    8.4023   19.7497 N   0  0  0  0  0  0  0  0  0  0  0  0
   48.1034    6.0686   19.1642 C   0  0  0  0  0  0  0  0  0  0  0  0
   48.9158   11.5207   19.0271 C   0  0  0  0  0  0  0  0  0  0  0  0
   47.8198    7.2899   20.0070 C   0  0  0  0  0  0  0  0  0  0  0  0
   48.4745    9.0654   18.4660 C   0  0  0  0  0  0  0  0  0  0  0  0
   49.3728   10.2986   18.2650 C   0  0  0  0  0  0  0  0  0  0  0  0
   48.1824   12.5265   18.3818 C   0  0  0  0  0  0  0  0  0  0  0  0
   49.2076   11.6633   20.3901 C   0  0  0  0  0  0  0  0  0  0  0  0
   47.2825    5.7460   18.0742 C   0  0  0  0  0  0  0  0  0  0  0  0
   49.2048    5.2470   19.4496 C   0  0  0  0  0  0  0  0  0  0  0  0
   47.7564   13.6547   19.0848 C   0  0  0  0  0  0  0  0  0  0  0  0
   48.7801   12.7911   21.0928 C   0  0  0  0  0  0  0  0  0  0  0  0
   47.5554    4.6247   17.2884 C   0  0  0  0  0  0  0  0  0  0  0  0
   49.4749    4.1254   18.6631 C   0  0  0  0  0  0  0  0  0  0  0  0
   48.0553   13.7862   20.4400 C   0  0  0  0  0  0  0  0  0  0  0  0
   48.6505    3.8152   17.5832 C   0  0  0  0  0  0  0  0  0  0  0  0
   48.2681   10.7312   21.0954 N   0  0  0  0  0  0  0  0  0  0  0  0
   49.3154    9.8889   20.4888 C   0  0  1  0  0  0  0  0  0  0  0  0
   47.2692    9.8397   20.8311 C   0  0  0  0  0  0  0  0  0  0  0  0
   48.2861    8.7239   20.4893 C   0  0  1  0  0  0  0  0  0  0  0  0
   48.1953   12.1203   20.6557 C   0  0  2  0  0  0  0  0  0  0  0  0
   49.6948   10.6856   18.8726 S   0  0  0  0  0  0  0  0  0  0  0  0
   48.6334   12.1742   19.1741 C   0  0  0  0  0  0  0  0  0  0  0  0
   48.0476    8.0013   19.2121 N   0  0  0  0  0  0  0  0  0  0  0  0
   49.0740   12.9466   21.5913 C   0  0  0  0  0  0  0  0  0  0  0  0
   49.0177    7.1858   18.6723 C   0  0  0  0  0  0  0  0  0  0  0  0
   46.0701    9.9811   20.7746 O   0  0  0  0  0  0  0  0  0  0  0  0
   50.0788   12.5816   22.1841 O   0  0  0  0  0  0  0  0  0  0  0  0
   50.0959    6.9989   19.2326 O   0  0  0  0  0  0  0  0  0  0  0  0
   48.6475    6.5541   17.3428 C   0  0  0  0  0  0  0  0  0  0  0  0
   48.6504   14.2264   21.7075 O   0  0  0  0  0  0  0  0  0  0  0  0
   49.4419   13.4177   18.7809 C   0  0  0  0  0  0  0  0  0  0  0  0
   47.4196   12.0712   18.2351 C   0  0  0  0  0  0  0  0  0  0  0  0
   48.5559    5.0506   17.4171 C   0  0  0  0  0  0  0  0  0  0  0  0
   47.3224    4.4163   17.6263 C   0  0  0  0  0  0  0  0  0  0  0  0
   49.7131    4.2660   17.2998 C   0  0  0  0  0  0  0  0  0  0  0  0
   47.2478    3.0230   17.7004 C   0  0  0  0  0  0  0  0  0  0  0  0
   49.6370    2.8732   17.3724 C   0  0  0  0  0  0  0  0  0  0  0  0
   48.4040    2.2525   17.5719 C   0  0  0  0  0  0  0  0  0  0  0  0
   49.6934    8.0581   19.7653 H   0  0  0  0  0  0  0  0  0  0  0  0
   46.7769    7.6113   19.8929 H   0  0  0  0  0  0  0  0  0  0  0  0
   47.9140    7.0045   21.0627 H   0  0  0  0  0  0  0  0  0  0  0  0
   48.6810    8.3650   17.6478 H   0  0  0  0  0  0  0  0  0  0  0  0
   47.4207    9.3597   18.3935 H   0  0  0  0  0  0  0  0  0  0  0  0
   49.3957   10.5413   17.1945 H   0  0  0  0  0  0  0  0  0  0  0  0
   50.4135   10.0708   18.5306 H   0  0  0  0  0  0  0  0  0  0  0  0
   47.9370   12.4364   17.3263 H   0  0  0  0  0  0  0  0  0  0  0  0
   49.7629   10.8882   20.9133 H   0  0  0  0  0  0  0  0  0  0  0  0
   46.4261    6.3707   17.8296 H   0  0  0  0  0  0  0  0  0  0  0  0
   49.8562    5.4759   20.2902 H   0  0  0  0  0  0  0  0  0  0  0  0
   47.1903   14.4296   18.5753 H   0  0  0  0  0  0  0  0  0  0  0  0
   49.0103   12.8891   22.1500 H   0  0  0  0  0  0  0  0  0  0  0  0
   46.9143    4.3844   16.4444 H   0  0  0  0  0  0  0  0  0  0  0  0
   50.3280    3.4931   18.8936 H   0  0  0  0  0  0  0  0  0  0  0  0
   47.7235   14.6643   20.9871 H   0  0  0  0  0  0  0  0  0  0  0  0
   48.8614    2.9420   16.9715 H   0  0  0  0  0  0  0  0  0  0  0  0
   50.1805    9.7440   21.1432 H   0  0  0  0  0  0  0  0  0  0  0  0
   48.4101    8.0172   21.3195 H   0  0  0  0  0  0  0  0  0  0  0  0
   47.1603   12.4617   20.7855 H   0  0  0  0  0  0  0  0  0  0  0  0
   47.1524    8.0912   18.7448 H   0  0  0  0  0  0  0  0  0  0  0  0
   49.4039    6.8533   16.6048 H   0  0  0  0  0  0  0  0  0  0  0  0
   47.6988    6.9640   16.9725 H   0  0  0  0  0  0  0  0  0  0  0  0
   49.2973   14.6375   22.3187 H   0  0  0  0  0  0  0  0  0  0  0  0
   50.3754   13.5058   19.3461 H   0  0  0  0  0  0  0  0  0  0  0  0
   48.8578   14.3291   18.9534 H   0  0  0  0  0  0  0  0  0  0  0  0
   49.7070   13.4056   17.7158 H   0  0  0  0  0  0  0  0  0  0  0  0
   46.8002   11.1920   18.4399 H   0  0  0  0  0  0  0  0  0  0  0  0
   47.7244   12.0144   17.1850 H   0  0  0  0  0  0  0  0  0  0  0  0
   46.7806   12.9539   18.3361 H   0  0  0  0  0  0  0  0  0  0  0  0
   46.4093    4.9981   17.7327 H   0  0  0  0  0  0  0  0  0  0  0  0
   50.6837    4.7403   17.1620 H   0  0  0  0  0  0  0  0  0  0  0  0
   46.2864    2.5377   17.8623 H   0  0  0  0  0  0  0  0  0  0  0  0
   50.5411    2.2738   17.2797 H   0  0  0  0  0  0  0  0  0  0  0  0
   48.3446    1.1686   17.6325 H   0  0  0  0  0  0  0  0  0  0  0  0
  2  4  1  0
  3  6  1  0
  4  1  1  0
  5  1  1  0
  6  5  1  0
  7  3  2  0
  8  3  1  0
  9  2  2  0
 10  2  1  0
 11  7  1  0
 12  8  2  0
 13  9  1  0
 14 10  2  0
 15 12  1  0
 16 14  1  0
 13 16  2  0
 11 15  2  0
 18 17  1  0
 19 17  1  0
 20 19  1  0
 21 17  1  0
 18 22  1  0
 23 21  1  0
 20 24  1  0
 21 25  1  0
 26 24  1  0
 27 19  2  0
 28 25  2  0
 29 26  2  0
 30 26  1  0
 31 25  1  0
 32 23  1  0
 33 23  1  0
 34 30  1  0
 35 34  2  0
 36 34  1  0
 37 35  1  0
 38 36  2  0
 39 38  1  0
 22 23  1  0
 18 20  1  0
 37 39  2  0
  1 40  1  0
  4 41  1  0
  4 42  1  0
  5 43  1  0
  5 44  1  0
  6 45  1  0
  6 46  1  0
  7 47  1  0
  8 48  1  0
  9 49  1  0
 10 50  1  0
 11 51  1  0
 12 52  1  0
 13 53  1  0
 14 54  1  0
 15 55  1  0
 16 56  1  0
 18 57  1  6
 20 58  1  1
 21 59  1  1
 24 60  1  0
 30 61  1  0
 30 62  1  0
 31 63  1  0
 32 64  1  0
 32 65  1  0
 32 66  1  0
 33 67  1  0
 33 68  1  0
 33 69  1  0
 35 70  1  0
 36 71  1  0
 37 72  1  0
 38 73  1  0
 39 74  1  0
M  END
> <Uni-Dock RESULT> 
ENERGY=   -5.017  LOWER_BOUND=    1.974  UPPER_BOUND=    7.755
INTER + INTRA:          -5.017
INTER:                  -5.017
INTRA:                   0.000
UNBOUND:                 0.000

$$$$

     RDKit          3D

 74 77  0  0  0  0  0  0  0  0999 V2000
   49.8494    7.7609   16.9500 N   0  0  0  0  0  0  0  0  0  0  0  0
   49.2340    7.7657   19.3603 C   0  0  0  0  0  0  0  0  0  0  0  0
   49.0373    7.8903   13.8512 C   0  0  0  0  0  0  0  0  0  0  0  0
   49.8707    8.5075   18.2085 C   0  0  0  0  0  0  0  0  0  0  0  0
   48.5121    7.7049   16.3468 C   0  0  0  0  0  0  0  0  0  0  0  0
   48.5317    7.0127   14.9725 C   0  0  0  0  0  0  0  0  0  0  0  0
   48.1355    8.5377   12.9947 C   0  0  0  0  0  0  0  0  0  0  0  0
   50.4119    8.0794   13.6561 C   0  0  0  0  0  0  0  0  0  0  0  0
   47.9619    8.1267   19.8269 C   0  0  0  0  0  0  0  0  0  0  0  0
   49.8997    6.6913   19.9700 C   0  0  0  0  0  0  0  0  0  0  0  0
   48.6006    9.3515   11.9602 C   0  0  0  0  0  0  0  0  0  0  0  0
   50.8762    8.8944   12.6224 C   0  0  0  0  0  0  0  0  0  0  0  0
   47.3699    7.4302   20.8822 C   0  0  0  0  0  0  0  0  0  0  0  0
   49.3062    5.9971   21.0260 C   0  0  0  0  0  0  0  0  0  0  0  0
   49.9706    9.5296   11.7749 C   0  0  0  0  0  0  0  0  0  0  0  0
   48.0419    6.3667   21.4812 C   0  0  0  0  0  0  0  0  0  0  0  0
   50.8393    9.0226   14.7408 N   0  0  0  0  0  0  0  0  0  0  0  0
   50.6443    7.7093   15.3821 C   0  0  1  0  0  0  0  0  0  0  0  0
   50.3270    9.7175   15.7978 C   0  0  0  0  0  0  0  0  0  0  0  0
   50.3896    8.4708   16.7132 C   0  0  1  0  0  0  0  0  0  0  0  0
   50.3176    9.1854   13.3882 C   0  0  2  0  0  0  0  0  0  0  0  0
   49.1857    6.9731   14.5329 S   0  0  0  0  0  0  0  0  0  0  0  0
   49.0489    8.3116   13.2588 C   0  0  0  0  0  0  0  0  0  0  0  0
   49.1473    8.1612   17.4690 N   0  0  0  0  0  0  0  0  0  0  0  0
   51.4317    8.8066   12.4158 C   0  0  0  0  0  0  0  0  0  0  0  0
   48.9898    6.9457   18.0977 C   0  0  0  0  0  0  0  0  0  0  0  0
   49.8875   10.8409   15.8744 O   0  0  0  0  0  0  0  0  0  0  0  0
   52.3313    7.9983   12.5932 O   0  0  0  0  0  0  0  0  0  0  0  0
   49.8712    6.0887   18.0868 O   0  0  0  0  0  0  0  0  0  0  0  0
   47.6512    6.7573   18.7879 C   0  0  0  0  0  0  0  0  0  0  0  0
   51.3327    9.4559   11.2328 O   0  0  0  0  0  0  0  0  0  0  0  0
   48.8576    7.6432   11.8908 C   0  0  0  0  0  0  0  0  0  0  0  0
   47.7833    9.1243   13.5799 C   0  0  0  0  0  0  0  0  0  0  0  0
   47.7816    6.6113   20.2832 C   0  0  0  0  0  0  0  0  0  0  0  0
   47.6288    7.7202   21.1286 C   0  0  0  0  0  0  0  0  0  0  0  0
   48.0814    5.3620   20.8472 C   0  0  0  0  0  0  0  0  0  0  0  0
   47.7580    7.5770   22.5124 C   0  0  0  0  0  0  0  0  0  0  0  0
   48.2086    5.2198   22.2309 C   0  0  0  0  0  0  0  0  0  0  0  0
   48.0461    6.3275   23.0627 C   0  0  0  0  0  0  0  0  0  0  0  0
   50.1864    6.8143   17.1163 H   0  0  0  0  0  0  0  0  0  0  0  0
   49.4151    9.4973   18.0799 H   0  0  0  0  0  0  0  0  0  0  0  0
   50.9172    8.7095   18.4705 H   0  0  0  0  0  0  0  0  0  0  0  0
   47.8436    7.1313   16.9999 H   0  0  0  0  0  0  0  0  0  0  0  0
   48.0941    8.7137   16.2467 H   0  0  0  0  0  0  0  0  0  0  0  0
   47.5105    6.6895   14.7314 H   0  0  0  0  0  0  0  0  0  0  0  0
   49.1244    6.0893   15.0090 H   0  0  0  0  0  0  0  0  0  0  0  0
   47.0637    8.4129   13.1292 H   0  0  0  0  0  0  0  0  0  0  0  0
   51.1283    7.5979   14.3179 H   0  0  0  0  0  0  0  0  0  0  0  0
   47.4235    8.9524   19.3668 H   0  0  0  0  0  0  0  0  0  0  0  0
   50.8876    6.3924   19.6262 H   0  0  0  0  0  0  0  0  0  0  0  0
   47.8938    9.8475   11.3006 H   0  0  0  0  0  0  0  0  0  0  0  0
   51.9443    9.0353   12.4829 H   0  0  0  0  0  0  0  0  0  0  0  0
   46.3826    7.7163   21.2353 H   0  0  0  0  0  0  0  0  0  0  0  0
   49.8307    5.1686   21.4942 H   0  0  0  0  0  0  0  0  0  0  0  0
   50.3324   10.1632   10.9698 H   0  0  0  0  0  0  0  0  0  0  0  0
   47.5806    5.8258   22.3033 H   0  0  0  0  0  0  0  0  0  0  0  0
   51.5452    7.0881   15.3680 H   0  0  0  0  0  0  0  0  0  0  0  0
   51.2568    8.5014   17.3846 H   0  0  0  0  0  0  0  0  0  0  0  0
   50.0944   10.2495   13.2382 H   0  0  0  0  0  0  0  0  0  0  0  0
   48.4174    8.8610   17.5423 H   0  0  0  0  0  0  0  0  0  0  0  0
   47.1726    5.8668   18.3588 H   0  0  0  0  0  0  0  0  0  0  0  0
   46.9773    7.5924   18.5558 H   0  0  0  0  0  0  0  0  0  0  0  0
   52.0911    9.1187   10.7110 H   0  0  0  0  0  0  0  0  0  0  0  0
   49.6818    6.9693   11.6355 H   0  0  0  0  0  0  0  0  0  0  0  0
   48.7831    8.3975   11.0991 H   0  0  0  0  0  0  0  0  0  0  0  0
   47.9328    7.0528   11.8569 H   0  0  0  0  0  0  0  0  0  0  0  0
   47.8342    9.6179   14.5559 H   0  0  0  0  0  0  0  0  0  0  0  0
   46.8879    8.4941   13.5828 H   0  0  0  0  0  0  0  0  0  0  0  0
   47.6254    9.9020   12.8263 H   0  0  0  0  0  0  0  0  0  0  0  0
   47.4077    8.7040   20.7202 H   0  0  0  0  0  0  0  0  0  0  0  0
   48.2286    4.4939   20.2064 H   0  0  0  0  0  0  0  0  0  0  0  0
   47.6373    8.4424   23.1624 H   0  0  0  0  0  0  0  0  0  0  0  0
   48.4411    4.2458   22.6581 H   0  0  0  0  0  0  0  0  0  0  0  0
   48.1489    6.2182   24.1396 H   0  0  0  0  0  0  0  0  0  0  0  0
  2  4  1  0
  3  6  1  0
  4  1  1  0
  5  1  1  0
  6  5  1  0
  7  3  2  0
  8  3  1  0
  9  2  2  0
 10  2  1  0
 11  7  1  0
 12  8  2  0
 13  9  1  0
 14 10  2  0
 15 12  1  0
 16 14  1  0
 13 16  2  0
 11 15  2  0
 18 17  1  0
 19 17  1  0
 20 19  1  0
 21 17  1  0
 18 22  1  0
 23 21  1  0
 20 24  1  0
 21 25  1  0
 26 24  1  0
 27 19  2  0
 28 25  2  0
 29 26  2  0
 30 26  1  0
 31 25  1  0
 32 23  1  0
 33 23  1  0
 34 30  1  0
 35 34  2  0
 36 34  1  0
 37 35  1  0
 38 36  2  0
 39 38  1  0
 22 23  1  0
 18 20  1  0
 37 39  2  0
  1 40  1  0
  4 41  1  0
  4 42  1  0
  5 43  1  0
  5 44  1  0
  6 45  1  0
  6 46  1  0
  7 47  1  0
  8 48  1  0
  9 49  1  0
 10 50  1  0
 11 51  1  0
 12 52  1  0
 13 53  1  0
 14 54  1  0
 15 55  1  0
 16 56  1  0
 18 57  1  6
 20 58  1  1
 21 59  1  1
 24 60  1  0
 30 61  1  0
 30 62  1  0
 31 63  1  0
 32 64  1  0
 32 65  1  0
 32 66  1  0
 33 67  1  0
 33 68  1  0
 33 69  1  0
 35 70  1  0
 36 71  1  0
 37 72  1  0
 38 73  1  0
 39 74  1  0
M  END
> <Uni-Dock RESULT> 
ENERGY=   -4.777  LOWER_BOUND=    3.440  UPPER_BOUND=    5.603
INTER + INTRA:          -4.777
INTER:                  -4.777
INTRA:                   0.000
UNBOUND:                 0.000

$$$$

     RDKit          3D

 74 77  0  0  0  0  0  0  0  0999 V2000
   49.8849    8.6757   17.0218 N   0  0  0  0  0  0  0  0  0  0  0  0
   49.0640    9.2181   19.3065 C   0  0  0  0  0  0  0  0  0  0  0  0
   49.3457    8.1099   13.9124 C   0  0  0  0  0  0  0  0  0  0  0  0
   49.8120    9.6843   18.0795 C   0  0  0  0  0  0  0  0  0  0  0  0
   48.6037    8.4860   16.3303 C   0  0  0  0  0  0  0  0  0  0  0  0
   48.7283    7.5046   15.1516 C   0  0  0  0  0  0  0  0  0  0  0  0
   48.5339    8.5494   12.8571 C   0  0  0  0  0  0  0  0  0  0  0  0
   50.7354    8.2512   13.8025 C   0  0  0  0  0  0  0  0  0  0  0  0
   47.7637    9.6737   19.5669 C   0  0  0  0  0  0  0  0  0  0  0  0
   49.6538    8.3072   20.1963 C   0  0  0  0  0  0  0  0  0  0  0  0
   49.1021    9.1120   11.7129 C   0  0  0  0  0  0  0  0  0  0  0  0
   51.3028    8.8150   12.6586 C   0  0  0  0  0  0  0  0  0  0  0  0
   47.0695    9.2301   20.6941 C   0  0  0  0  0  0  0  0  0  0  0  0
   48.9580    7.8660   21.3235 C   0  0  0  0  0  0  0  0  0  0  0  0
   50.4862    9.2447   11.6144 C   0  0  0  0  0  0  0  0  0  0  0  0
   47.6666    8.3274   21.5715 C   0  0  0  0  0  0  0  0  0  0  0  0
   51.0858    9.4129   14.6837 N   0  0  0  0  0  0  0  0  0  0  0  0
   50.8109    8.2757   15.5811 C   0  0  1  0  0  0  0  0  0  0  0  0
   50.4978   10.3260   15.5101 C   0  0  0  0  0  0  0  0  0  0  0  0
   50.4571    9.3151   16.6817 C   0  0  1  0  0  0  0  0  0  0  0  0
   50.6861    9.2694   13.2880 C   0  0  2  0  0  0  0  0  0  0  0  0
   49.4170    7.3680   14.7913 S   0  0  0  0  0  0  0  0  0  0  0  0
   49.4165    8.3883   13.2446 C   0  0  0  0  0  0  0  0  0  0  0  0
   49.1485    9.1815   17.3746 N   0  0  0  0  0  0  0  0  0  0  0  0
   51.8723    8.6836   12.5266 C   0  0  0  0  0  0  0  0  0  0  0  0
   48.9139    8.1369   18.2414 C   0  0  0  0  0  0  0  0  0  0  0  0
   50.0752   11.4379   15.2959 O   0  0  0  0  0  0  0  0  0  0  0  0
   52.7374    7.9356   12.9582 O   0  0  0  0  0  0  0  0  0  0  0  0
   49.7761    7.2995   18.4993 O   0  0  0  0  0  0  0  0  0  0  0  0
   47.5173    8.1069   18.8351 C   0  0  0  0  0  0  0  0  0  0  0  0
   51.8883    9.0524   11.2249 O   0  0  0  0  0  0  0  0  0  0  0  0
   49.3310    7.4314   12.0481 C   0  0  0  0  0  0  0  0  0  0  0  0
   48.1439    9.2517   13.2638 C   0  0  0  0  0  0  0  0  0  0  0  0
   47.5154    8.2984   20.3310 C   0  0  0  0  0  0  0  0  0  0  0  0
   47.3118    9.5679   20.8917 C   0  0  0  0  0  0  0  0  0  0  0  0
   47.7412    7.2066   21.1829 C   0  0  0  0  0  0  0  0  0  0  0  0
   47.3183    9.7372   22.2786 C   0  0  0  0  0  0  0  0  0  0  0  0
   47.7458    7.3769   22.5692 C   0  0  0  0  0  0  0  0  0  0  0  0
   47.5336    8.6422   23.1162 C   0  0  0  0  0  0  0  0  0  0  0  0
   50.1879    7.7903   17.4235 H   0  0  0  0  0  0  0  0  0  0  0  0
   49.3884   10.6204   17.6943 H   0  0  0  0  0  0  0  0  0  0  0  0
   50.8357    9.9402   18.3815 H   0  0  0  0  0  0  0  0  0  0  0  0
   47.8704    8.0724   17.0329 H   0  0  0  0  0  0  0  0  0  0  0  0
   48.2155    9.4468   15.9719 H   0  0  0  0  0  0  0  0  0  0  0  0
   47.7257    7.1353   14.8991 H   0  0  0  0  0  0  0  0  0  0  0  0
   49.2978    6.6128   15.4447 H   0  0  0  0  0  0  0  0  0  0  0  0
   47.4523    8.4574   12.9207 H   0  0  0  0  0  0  0  0  0  0  0  0
   51.3826    7.9298   14.6154 H   0  0  0  0  0  0  0  0  0  0  0  0
   47.2831   10.3757   18.8890 H   0  0  0  0  0  0  0  0  0  0  0  0
   50.6617    7.9395   20.0163 H   0  0  0  0  0  0  0  0  0  0  0  0
   48.4646    9.4479   10.8996 H   0  0  0  0  0  0  0  0  0  0  0  0
   52.3815    8.9216   12.5862 H   0  0  0  0  0  0  0  0  0  0  0  0
   46.0612    9.5875   20.8861 H   0  0  0  0  0  0  0  0  0  0  0  0
   49.4240    7.1631   22.0088 H   0  0  0  0  0  0  0  0  0  0  0  0
   50.9283    9.6828   10.7238 H   0  0  0  0  0  0  0  0  0  0  0  0
   47.1257    7.9835   22.4492 H   0  0  0  0  0  0  0  0  0  0  0  0
   51.6974    7.6674   15.7853 H   0  0  0  0  0  0  0  0  0  0  0  0
   51.2636    9.4951   17.4035 H   0  0  0  0  0  0  0  0  0  0  0  0
   50.4972   10.2731   12.8860 H   0  0  0  0  0  0  0  0  0  0  0  0
   48.4287    9.8797   17.2257 H   0  0  0  0  0  0  0  0  0  0  0  0
   47.0604    7.1429   18.5742 H   0  0  0  0  0  0  0  0  0  0  0  0
   46.8823    8.8689   18.3645 H   0  0  0  0  0  0  0  0  0  0  0  0
   52.6822    8.6075   10.8603 H   0  0  0  0  0  0  0  0  0  0  0  0
   50.1609    6.7178   12.0228 H   0  0  0  0  0  0  0  0  0  0  0  0
   49.3397    7.9899   11.1050 H   0  0  0  0  0  0  0  0  0  0  0  0
   48.4013    6.8480   12.0646 H   0  0  0  0  0  0  0  0  0  0  0  0
   48.1200    9.9508   14.1061 H   0  0  0  0  0  0  0  0  0  0  0  0
   47.2395    8.6377   13.3275 H   0  0  0  0  0  0  0  0  0  0  0  0
   48.0667    9.8415   12.3451 H   0  0  0  0  0  0  0  0  0  0  0  0
   47.1458   10.4356   20.2569 H   0  0  0  0  0  0  0  0  0  0  0  0
   47.9262    6.2174   20.7667 H   0  0  0  0  0  0  0  0  0  0  0  0
   47.1589   10.7258   22.7066 H   0  0  0  0  0  0  0  0  0  0  0  0
   47.9216    6.5229   23.2212 H   0  0  0  0  0  0  0  0  0  0  0  0
   47.5410    8.7760   24.1952 H   0  0  0  0  0  0  0  0  0  0  0  0
  2  4  1  0
  3  6  1  0
  4  1  1  0
  5  1  1  0
  6  5  1  0
  7  3  2  0
  8  3  1  0
  9  2  2  0
 10  2  1  0
 11  7  1  0
 12  8  2  0
 13  9  1  0
 14 10  2  0
 15 12  1  0
 16 14  1  0
 13 16  2  0
 11 15  2  0
 18 17  1  0
 19 17  1  0
 20 19  1  0
 21 17  1  0
 18 22  1  0
 23 21  1  0
 20 24  1  0
 21 25  1  0
 26 24  1  0
 27 19  2  0
 28 25  2  0
 29 26  2  0
 30 26  1  0
 31 25  1  0
 32 23  1  0
 33 23  1  0
 34 30  1  0
 35 34  2  0
 36 34  1  0
 37 35  1  0
 38 36  2  0
 39 38  1  0
 22 23  1  0
 18 20  1  0
 37 39  2  0
  1 40  1  0
  4 41  1  0
  4 42  1  0
  5 43  1  0
  5 44  1  0
  6 45  1  0
  6 46  1  0
  7 47  1  0
  8 48  1  0
  9 49  1  0
 10 50  1  0
 11 51  1  0
 12 52  1  0
 13 53  1  0
 14 54  1  0
 15 55  1  0
 16 56  1  0
 18 57  1  6
 20 58  1  1
 21 59  1  1
 24 60  1  0
 30 61  1  0
 30 62  1  0
 31 63  1  0
 32 64  1  0
 32 65  1  0
 32 66  1  0
 33 67  1  0
 33 68  1  0
 33 69  1  0
 35 70  1  0
 36 71  1  0
 37 72  1  0
 38 73  1  0
 39 74  1  0
M  END
> <Uni-Dock RESULT> 
ENERGY=   -4.770  LOWER_BOUND=    3.442  UPPER_BOUND=    5.159
INTER + INTRA:          -4.770
INTER:                  -4.770
INTRA:                   0.000
UNBOUND:                 0.000

$$$$

     RDKit          3D

 74 77  0  0  0  0  0  0  0  0999 V2000
   48.7059    8.4244   17.9311 N   0  0  0  0  0  0  0  0  0  0  0  0
   49.7246    8.9058   15.7132 C   0  0  0  0  0  0  0  0  0  0  0  0
   48.0032    6.3924   20.3093 C   0  0  0  0  0  0  0  0  0  0  0  0
   49.7953    9.0856   17.2115 C   0  0  0  0  0  0  0  0  0  0  0  0
   48.8547    6.9643   17.9670 C   0  0  0  0  0  0  0  0  0  0  0  0
   47.7616    6.2976   18.8207 C   0  0  0  0  0  0  0  0  0  0  0  0
   48.5581    5.3112   21.0086 C   0  0  0  0  0  0  0  0  0  0  0  0
   47.6874    7.5631   21.0113 C   0  0  0  0  0  0  0  0  0  0  0  0
   50.5915    8.0196   15.0581 C   0  0  0  0  0  0  0  0  0  0  0  0
   48.7770    9.6110   14.9556 C   0  0  0  0  0  0  0  0  0  0  0  0
   48.7852    5.3979   22.3832 C   0  0  0  0  0  0  0  0  0  0  0  0
   47.9160    7.6496   22.3856 C   0  0  0  0  0  0  0  0  0  0  0  0
   50.5144    7.8447   13.6751 C   0  0  0  0  0  0  0  0  0  0  0  0
   48.7026    9.4355   13.5724 C   0  0  0  0  0  0  0  0  0  0  0  0
   48.4642    6.5672   23.0708 C   0  0  0  0  0  0  0  0  0  0  0  0
   49.5709    8.5525   12.9333 C   0  0  0  0  0  0  0  0  0  0  0  0
   48.7686    8.5402   20.6578 N   0  0  0  0  0  0  0  0  0  0  0  0
   47.8806    8.4568   19.4837 C   0  0  1  0  0  0  0  0  0  0  0  0
   49.9047    8.6315   19.9070 C   0  0  0  0  0  0  0  0  0  0  0  0
   49.0919    8.9047   18.6183 C   0  0  1  0  0  0  0  0  0  0  0  0
   48.6071    7.5188   21.6868 C   0  0  2  0  0  0  0  0  0  0  0  0
   47.3770    6.6882   19.3882 S   0  0  0  0  0  0  0  0  0  0  0  0
   48.1707    6.2083   20.9923 C   0  0  0  0  0  0  0  0  0  0  0  0
   49.4530    8.0751   17.4386 N   0  0  0  0  0  0  0  0  0  0  0  0
   47.5986    8.0452   22.7045 C   0  0  0  0  0  0  0  0  0  0  0  0
   48.6362    8.0335   16.3302 C   0  0  0  0  0  0  0  0  0  0  0  0
   51.0628    8.4286   20.1872 O   0  0  0  0  0  0  0  0  0  0  0  0
   46.6682    8.8117   22.5021 O   0  0  0  0  0  0  0  0  0  0  0  0
   47.6034    8.6964   16.2580 O   0  0  0  0  0  0  0  0  0  0  0  0
   49.1118    7.1066   15.2263 C   0  0  0  0  0  0  0  0  0  0  0  0
   47.7995    7.5417   23.9443 O   0  0  0  0  0  0  0  0  0  0  0  0
   47.1649    5.3592   21.7811 C   0  0  0  0  0  0  0  0  0  0  0  0
   49.3872    5.3286   20.6582 C   0  0  0  0  0  0  0  0  0  0  0  0
   49.4559    7.8420   13.9554 C   0  0  0  0  0  0  0  0  0  0  0  0
   50.7782    8.2218   13.6816 C   0  0  0  0  0  0  0  0  0  0  0  0
   48.4482    8.1765   13.0382 C   0  0  0  0  0  0  0  0  0  0  0  0
   51.0869    8.9088   12.5047 C   0  0  0  0  0  0  0  0  0  0  0  0
   48.7584    8.8618   11.8613 C   0  0  0  0  0  0  0  0  0  0  0  0
   50.0779    9.2269   11.5950 C   0  0  0  0  0  0  0  0  0  0  0  0
   47.8195    8.6643   17.4909 H   0  0  0  0  0  0  0  0  0  0  0  0
   50.7692    8.7619   17.5997 H   0  0  0  0  0  0  0  0  0  0  0  0
   49.7474   10.1606   17.4281 H   0  0  0  0  0  0  0  0  0  0  0  0
   48.7719    6.5663   16.9485 H   0  0  0  0  0  0  0  0  0  0  0  0
   49.8438    6.6890   18.3521 H   0  0  0  0  0  0  0  0  0  0  0  0
   47.7012    5.2373   18.5422 H   0  0  0  0  0  0  0  0  0  0  0  0
   46.7735    6.7137   18.5841 H   0  0  0  0  0  0  0  0  0  0  0  0
   48.8184    4.3939   20.4857 H   0  0  0  0  0  0  0  0  0  0  0  0
   47.2694    8.4186   20.4857 H   0  0  0  0  0  0  0  0  0  0  0  0
   51.3308    7.4573   15.6244 H   0  0  0  0  0  0  0  0  0  0  0  0
   48.0937   10.3048   15.4407 H   0  0  0  0  0  0  0  0  0  0  0  0
   49.2139    4.5538   22.9165 H   0  0  0  0  0  0  0  0  0  0  0  0
   47.6694    8.5636   22.9185 H   0  0  0  0  0  0  0  0  0  0  0  0
   51.1894    7.1538   13.1768 H   0  0  0  0  0  0  0  0  0  0  0  0
   47.9679    9.9884   12.9935 H   0  0  0  0  0  0  0  0  0  0  0  0
   48.6413    6.6346   24.1407 H   0  0  0  0  0  0  0  0  0  0  0  0
   49.5124    8.4164   11.8566 H   0  0  0  0  0  0  0  0  0  0  0  0
   47.0504    9.1688   19.5235 H   0  0  0  0  0  0  0  0  0  0  0  0
   49.0866    9.9706   18.3581 H   0  0  0  0  0  0  0  0  0  0  0  0
   49.5691    7.4038   22.2024 H   0  0  0  0  0  0  0  0  0  0  0  0
   50.3215    7.5522   17.4403 H   0  0  0  0  0  0  0  0  0  0  0  0
   48.3181    6.3714   15.0375 H   0  0  0  0  0  0  0  0  0  0  0  0
   49.9788    6.5221   15.5610 H   0  0  0  0  0  0  0  0  0  0  0  0
   47.0906    7.9489   24.4853 H   0  0  0  0  0  0  0  0  0  0  0  0
   46.2282    5.8921   21.9742 H   0  0  0  0  0  0  0  0  0  0  0  0
   47.5861    5.0596   22.7476 H   0  0  0  0  0  0  0  0  0  0  0  0
   46.9089    4.4364   21.2448 H   0  0  0  0  0  0  0  0  0  0  0  0
   50.1457    5.8602   20.0744 H   0  0  0  0  0  0  0  0  0  0  0  0
   49.0997    4.4421   20.0835 H   0  0  0  0  0  0  0  0  0  0  0  0
   49.8676    4.9740   21.5754 H   0  0  0  0  0  0  0  0  0  0  0  0
   51.5795    7.9870   14.3790 H   0  0  0  0  0  0  0  0  0  0  0  0
   47.4119    7.9128   13.2441 H   0  0  0  0  0  0  0  0  0  0  0  0
   52.1159    9.1997   12.2987 H   0  0  0  0  0  0  0  0  0  0  0  0
   47.9688    9.1161   11.1561 H   0  0  0  0  0  0  0  0  0  0  0  0
   50.3193    9.7638   10.6809 H   0  0  0  0  0  0  0  0  0  0  0  0
  2  4  1  0
  3  6  1  0
  4  1  1  0
  5  1  1  0
  6  5  1  0
  7  3  2  0
  8  3  1  0
  9  2  2  0
 10  2  1  0
 11  7  1  0
 12  8  2  0
 13  9  1  0
 14 10  2  0
 15 12  1  0
 16 14  1  0
 13 16  2  0
 11 15  2  0
 18 17  1  0
 19 17  1  0
 20 19  1  0
 21 17  1  0
 18 22  1  0
 23 21  1  0
 20 24  1  0
 21 25  1  0
 26 24  1  0
 27 19  2  0
 28 25  2  0
 29 26  2  0
 30 26  1  0
 31 25  1  0
 32 23  1  0
 33 23  1  0
 34 30  1  0
 35 34  2  0
 36 34  1  0
 37 35  1  0
 38 36  2  0
 39 38  1  0
 22 23  1  0
 18 20  1  0
 37 39  2  0
  1 40  1  0
  4 41  1  0
  4 42  1  0
  5 43  1  0
  5 44  1  0
  6 45  1  0
  6 46  1  0
  7 47  1  0
  8 48  1  0
  9 49  1  0
 10 50  1  0
 11 51  1  0
 12 52  1  0
 13 53  1  0
 14 54  1  0
 15 55  1  0
 16 56  1  0
 18 57  1  6
 20 58  1  1
 21 59  1  1
 24 60  1  0
 30 61  1  0
 30 62  1  0
 31 63  1  0
 32 64  1  0
 32 65  1  0
 32 66  1  0
 33 67  1  0
 33 68  1  0
 33 69  1  0
 35 70  1  0
 36 71  1  0
 37 72  1  0
 38 73  1  0
 39 74  1  0
M  END
> <Uni-Dock RESULT> 
ENERGY=   -4.702  LOWER_BOUND=    3.189  UPPER_BOUND=    5.881
INTER + INTRA:          -4.702
INTER:                  -4.702
INTRA:                   0.000
UNBOUND:                 0.000

$$$$
