
     RDKit          3D

 74 77  0  0  0  0  0  0  0  0999 V2000
   48.7984    8.2052   17.8810 N   0  0  0  0  0  0  0  0  0  0  0  0
   49.3851    5.7978   17.5839 C   0  0  0  0  0  0  0  0  0  0  0  0
   47.6772   10.5416   19.5731 C   0  0  0  0  0  0  0  0  0  0  0  0
   49.8737    7.2210   17.7192 C   0  0  0  0  0  0  0  0  0  0  0  0
   48.1096    8.0615   19.1722 C   0  0  0  0  0  0  0  0  0  0  0  0
   47.0674    9.1713   19.3889 C   0  0  0  0  0  0  0  0  0  0  0  0
   47.6856   11.4626   18.5172 C   0  0  0  0  0  0  0  0  0  0  0  0
   48.2602   10.9021   20.7959 C   0  0  0  0  0  0  0  0  0  0  0  0
   49.8460    4.7997   18.4545 C   0  0  0  0  0  0  0  0  0  0  0  0
   48.4738    5.4482   16.5768 C   0  0  0  0  0  0  0  0  0  0  0  0
   48.2676   12.7198   18.6805 C   0  0  0  0  0  0  0  0  0  0  0  0
   48.8405   12.1610   20.9575 C   0  0  0  0  0  0  0  0  0  0  0  0
   49.3978    3.4834   18.3249 C   0  0  0  0  0  0  0  0  0  0  0  0
   48.0268    4.1324   16.4484 C   0  0  0  0  0  0  0  0  0  0  0  0
   48.8451   13.0681   19.9000 C   0  0  0  0  0  0  0  0  0  0  0  0
   48.4884    3.1505   17.3231 C   0  0  0  0  0  0  0  0  0  0  0  0
   49.0613   10.8918   17.9093 N   0  0  0  0  0  0  0  0  0  0  0  0
   48.1098    9.7972   17.6568 C   0  0  1  0  0  0  0  0  0  0  0  0
   50.1073   10.0493   18.1533 C   0  0  0  0  0  0  0  0  0  0  0  0
   49.3368    8.8481   17.5553 C   0  0  1  0  0  0  0  0  0  0  0  0
   48.6579   11.9254   18.8587 C   0  0  2  0  0  0  0  0  0  0  0  0
   47.0815    9.7030   19.1799 S   0  0  0  0  0  0  0  0  0  0  0  0
   47.7916   11.2381   19.9458 C   0  0  0  0  0  0  0  0  0  0  0  0
   49.3229    7.6034   18.3678 N   0  0  0  0  0  0  0  0  0  0  0  0
   47.9577   13.0775   18.1299 C   0  0  0  0  0  0  0  0  0  0  0  0
   48.4789    6.5644   18.0435 C   0  0  0  0  0  0  0  0  0  0  0  0
   51.1498   10.2201   18.7399 O   0  0  0  0  0  0  0  0  0  0  0  0
   47.6197   14.1392   18.6369 O   0  0  0  0  0  0  0  0  0  0  0  0
   47.7000    6.6312   17.0949 O   0  0  0  0  0  0  0  0  0  0  0  0
   48.5901    5.3475   18.9433 C   0  0  0  0  0  0  0  0  0  0  0  0
   47.6955   12.8580   16.8237 O   0  0  0  0  0  0  0  0  0  0  0  0
   48.6580   10.7997   21.1398 C   0  0  0  0  0  0  0  0  0  0  0  0
   46.6200   12.0686   20.4847 C   0  0  0  0  0  0  0  0  0  0  0  0
   49.1814    4.1560   18.2312 C   0  0  0  0  0  0  0  0  0  0  0  0
   48.3641    3.3285   17.4463 C   0  0  0  0  0  0  0  0  0  0  0  0
   50.5522    3.8736   18.3172 C   0  0  0  0  0  0  0  0  0  0  0  0
   48.9034    2.2306   16.7743 C   0  0  0  0  0  0  0  0  0  0  0  0
   51.0902    2.7748   17.6425 C   0  0  0  0  0  0  0  0  0  0  0  0
   50.2660    1.9530   16.8733 C   0  0  0  0  0  0  0  0  0  0  0  0
   49.2155    9.1362   17.8440 H   0  0  0  0  0  0  0  0  0  0  0  0
   50.4302    7.4648   16.8057 H   0  0  0  0  0  0  0  0  0  0  0  0
   50.5929    7.3123   18.5432 H   0  0  0  0  0  0  0  0  0  0  0  0
   48.8362    8.0721   19.9942 H   0  0  0  0  0  0  0  0  0  0  0  0
   47.5807    7.1020   19.2044 H   0  0  0  0  0  0  0  0  0  0  0  0
   46.3534    9.1845   18.5556 H   0  0  0  0  0  0  0  0  0  0  0  0
   46.4740    8.9360   20.2819 H   0  0  0  0  0  0  0  0  0  0  0  0
   47.2391   11.2026   17.5595 H   0  0  0  0  0  0  0  0  0  0  0  0
   48.2633   10.2044   21.6305 H   0  0  0  0  0  0  0  0  0  0  0  0
   50.5546    5.0419   19.2429 H   0  0  0  0  0  0  0  0  0  0  0  0
   48.1015    6.2115   15.8964 H   0  0  0  0  0  0  0  0  0  0  0  0
   48.2691   13.4275   17.8559 H   0  0  0  0  0  0  0  0  0  0  0  0
   49.2882   12.4360   21.9091 H   0  0  0  0  0  0  0  0  0  0  0  0
   49.7564    2.7178   19.0084 H   0  0  0  0  0  0  0  0  0  0  0  0
   47.3146    3.8774   15.6693 H   0  0  0  0  0  0  0  0  0  0  0  0
   49.2957   14.0485   20.0285 H   0  0  0  0  0  0  0  0  0  0  0  0
   48.1378    2.1268   17.2250 H   0  0  0  0  0  0  0  0  0  0  0  0
   47.5438    9.9251   16.7296 H   0  0  0  0  0  0  0  0  0  0  0  0
   49.6558    8.6364   16.5265 H   0  0  0  0  0  0  0  0  0  0  0  0
   49.5695   12.3555   19.2923 H   0  0  0  0  0  0  0  0  0  0  0  0
   49.9852    7.4918   19.1267 H   0  0  0  0  0  0  0  0  0  0  0  0
   47.5843    5.1086   19.3121 H   0  0  0  0  0  0  0  0  0  0  0  0
   49.1836    5.5826   19.8360 H   0  0  0  0  0  0  0  0  0  0  0  0
   47.2629   13.6820   16.5169 H   0  0  0  0  0  0  0  0  0  0  0  0
   49.4765   10.1340   20.8446 H   0  0  0  0  0  0  0  0  0  0  0  0
   48.0662   10.2751   21.9019 H   0  0  0  0  0  0  0  0  0  0  0  0
   49.1087   11.6741   21.6266 H   0  0  0  0  0  0  0  0  0  0  0  0
   46.0668   11.5269   21.2625 H   0  0  0  0  0  0  0  0  0  0  0  0
   46.9801   12.9974   20.9427 H   0  0  0  0  0  0  0  0  0  0  0  0
   45.8995   12.3326   19.7020 H   0  0  0  0  0  0  0  0  0  0  0  0
   47.3006    3.5429   17.3470 H   0  0  0  0  0  0  0  0  0  0  0  0
   51.2138    4.5037   18.9077 H   0  0  0  0  0  0  0  0  0  0  0  0
   48.2601    1.5969   16.1677 H   0  0  0  0  0  0  0  0  0  0  0  0
   52.1551    2.5615   17.7159 H   0  0  0  0  0  0  0  0  0  0  0  0
   50.6855    1.1000   16.3464 H   0  0  0  0  0  0  0  0  0  0  0  0
  2  4  1  0
  3  6  1  0
  4  1  1  0
  5  1  1  0
  6  5  1  0
  7  3  2  0
  8  3  1  0
  9  2  2  0
 10  2  1  0
 11  7  1  0
 12  8  2  0
 13  9  1  0
 14 10  2  0
 15 12  1  0
 16 14  1  0
 13 16  2  0
 11 15  2  0
 18 17  1  0
 19 17  1  0
 20 19  1  0
 21 17  1  0
 18 22  1  0
 23 21  1  0
 20 24  1  0
 21 25  1  0
 26 24  1  0
 27 19  2  0
 28 25  2  0
 29 26  2  0
 30 26  1  0
 31 25  1  0
 32 23  1  0
 33 23  1  0
 34 30  1  0
 35 34  2  0
 36 34  1  0
 37 35  1  0
 38 36  2  0
 39 38  1  0
 22 23  1  0
 18 20  1  0
 37 39  2  0
  1 40  1  0
  4 41  1  0
  4 42  1  0
  5 43  1  0
  5 44  1  0
  6 45  1  0
  6 46  1  0
  7 47  1  0
  8 48  1  0
  9 49  1  0
 10 50  1  0
 11 51  1  0
 12 52  1  0
 13 53  1  0
 14 54  1  0
 15 55  1  0
 16 56  1  0
 18 57  1  1
 20 58  1  1
 21 59  1  6
 24 60  1  0
 30 61  1  0
 30 62  1  0
 31 63  1  0
 32 64  1  0
 32 65  1  0
 32 66  1  0
 33 67  1  0
 33 68  1  0
 33 69  1  0
 35 70  1  0
 36 71  1  0
 37 72  1  0
 38 73  1  0
 39 74  1  0
M  END
> <Uni-Dock RESULT> 
ENERGY=   -5.391  LOWER_BOUND=    0.000  UPPER_BOUND=    0.000
INTER + INTRA:          -5.391
INTER:                  -5.391
INTRA:                   0.000
UNBOUND:                 0.000

$$$$

     RDKit          3D

 74 77  0  0  0  0  0  0  0  0999 V2000
   49.3866    7.4588   16.9583 N   0  0  0  0  0  0  0  0  0  0  0  0
   48.8712    7.0233   19.3609 C   0  0  0  0  0  0  0  0  0  0  0  0
   48.5778    7.5175   13.9713 C   0  0  0  0  0  0  0  0  0  0  0  0
   49.1854    8.0409   18.2893 C   0  0  0  0  0  0  0  0  0  0  0  0
   48.1425    6.9020   16.4065 C   0  0  0  0  0  0  0  0  0  0  0  0
   48.3310    6.4049   14.9636 C   0  0  0  0  0  0  0  0  0  0  0  0
   49.8733    7.7798   13.5066 C   0  0  0  0  0  0  0  0  0  0  0  0
   47.5174    8.3146   13.5183 C   0  0  0  0  0  0  0  0  0  0  0  0
   47.7099    7.1416   20.1382 C   0  0  0  0  0  0  0  0  0  0  0  0
   49.7423    5.9518   19.6059 C   0  0  0  0  0  0  0  0  0  0  0  0
   50.1044    8.8207   12.6071 C   0  0  0  0  0  0  0  0  0  0  0  0
   47.7506    9.3545   12.6172 C   0  0  0  0  0  0  0  0  0  0  0  0
   47.4234    6.2033   21.1321 C   0  0  0  0  0  0  0  0  0  0  0  0
   49.4547    5.0150   20.5995 C   0  0  0  0  0  0  0  0  0  0  0  0
   49.0434    9.6077   12.1633 C   0  0  0  0  0  0  0  0  0  0  0  0
   48.2948    5.1406   21.3618 C   0  0  0  0  0  0  0  0  0  0  0  0
   50.2172    8.7538   14.7400 N   0  0  0  0  0  0  0  0  0  0  0  0
   50.1357    7.4296   15.3781 C   0  0  1  0  0  0  0  0  0  0  0  0
   49.6788    9.4052   15.8119 C   0  0  0  0  0  0  0  0  0  0  0  0
   49.8836    8.1703   16.7214 C   0  0  1  0  0  0  0  0  0  0  0  0
   49.6663    8.8847   13.3939 C   0  0  2  0  0  0  0  0  0  0  0  0
   48.6997    6.6049   14.5755 S   0  0  0  0  0  0  0  0  0  0  0  0
   48.4459    7.9322   13.3022 C   0  0  0  0  0  0  0  0  0  0  0  0
   48.7140    7.7519   17.5379 N   0  0  0  0  0  0  0  0  0  0  0  0
   50.7512    8.6220   12.3438 C   0  0  0  0  0  0  0  0  0  0  0  0
   48.7147    6.5405   18.1936 C   0  0  0  0  0  0  0  0  0  0  0  0
   49.1434   10.4846   15.9036 O   0  0  0  0  0  0  0  0  0  0  0  0
   50.6256    8.7792   11.1364 O   0  0  0  0  0  0  0  0  0  0  0  0
   49.6602    5.7591   18.1150 O   0  0  0  0  0  0  0  0  0  0  0  0
   47.4672    6.2562   19.0096 C   0  0  0  0  0  0  0  0  0  0  0  0
   51.9250    8.1652   12.8303 O   0  0  0  0  0  0  0  0  0  0  0  0
   47.1454    8.6729   13.6606 C   0  0  0  0  0  0  0  0  0  0  0  0
   48.2442    7.2397   11.9485 C   0  0  0  0  0  0  0  0  0  0  0  0
   47.7364    6.2593   20.4942 C   0  0  0  0  0  0  0  0  0  0  0  0
   48.2399    5.1090   21.1204 C   0  0  0  0  0  0  0  0  0  0  0  0
   47.5170    7.4113   21.2630 C   0  0  0  0  0  0  0  0  0  0  0  0
   48.5030    5.1052   22.4910 C   0  0  0  0  0  0  0  0  0  0  0  0
   47.7824    7.4055   22.6347 C   0  0  0  0  0  0  0  0  0  0  0  0
   48.2732    6.2528   23.2483 C   0  0  0  0  0  0  0  0  0  0  0  0
   49.7075    8.2011   16.3352 H   0  0  0  0  0  0  0  0  0  0  0  0
   50.1091    8.5537   18.5850 H   0  0  0  0  0  0  0  0  0  0  0  0
   48.4108    8.8172   18.2461 H   0  0  0  0  0  0  0  0  0  0  0  0
   47.3434    7.6533   16.4364 H   0  0  0  0  0  0  0  0  0  0  0  0
   47.8206    6.0459   17.0106 H   0  0  0  0  0  0  0  0  0  0  0  0
   49.1480    5.6733   14.9217 H   0  0  0  0  0  0  0  0  0  0  0  0
   47.4307    5.8596   14.6521 H   0  0  0  0  0  0  0  0  0  0  0  0
   50.7108    7.1735   13.8463 H   0  0  0  0  0  0  0  0  0  0  0  0
   46.5028    8.1281   13.8635 H   0  0  0  0  0  0  0  0  0  0  0  0
   47.0179    7.9636   19.9716 H   0  0  0  0  0  0  0  0  0  0  0  0
   50.6448    5.8418   19.0079 H   0  0  0  0  0  0  0  0  0  0  0  0
   51.1126    9.0163   12.2520 H   0  0  0  0  0  0  0  0  0  0  0  0
   46.9238    9.9670   12.2669 H   0  0  0  0  0  0  0  0  0  0  0  0
   46.5176    6.3002   21.7255 H   0  0  0  0  0  0  0  0  0  0  0  0
   50.1339    4.1855   20.7728 H   0  0  0  0  0  0  0  0  0  0  0  0
   49.2225   10.4164   11.4601 H   0  0  0  0  0  0  0  0  0  0  0  0
   48.0695    4.4094   22.1332 H   0  0  0  0  0  0  0  0  0  0  0  0
   51.0734    6.8689   15.3259 H   0  0  0  0  0  0  0  0  0  0  0  0
   50.7776    8.2760   17.3496 H   0  0  0  0  0  0  0  0  0  0  0  0
   49.3636    9.9304   13.2566 H   0  0  0  0  0  0  0  0  0  0  0  0
   47.9374    8.3901   17.6667 H   0  0  0  0  0  0  0  0  0  0  0  0
   47.0758    5.2797   18.6968 H   0  0  0  0  0  0  0  0  0  0  0  0
   46.6783    6.9807   18.7706 H   0  0  0  0  0  0  0  0  0  0  0  0
   52.4958    8.0612   12.0405 H   0  0  0  0  0  0  0  0  0  0  0  0
   47.1820    9.1314   14.6549 H   0  0  0  0  0  0  0  0  0  0  0  0
   46.2756    8.0027   13.6395 H   0  0  0  0  0  0  0  0  0  0  0  0
   46.9514    9.4762   12.9384 H   0  0  0  0  0  0  0  0  0  0  0  0
   47.3526    6.5996   11.9527 H   0  0  0  0  0  0  0  0  0  0  0  0
   48.0981    7.9786   11.1518 H   0  0  0  0  0  0  0  0  0  0  0  0
   49.0944    6.6055   11.6723 H   0  0  0  0  0  0  0  0  0  0  0  0
   48.4394    4.2101   20.5380 H   0  0  0  0  0  0  0  0  0  0  0  0
   47.1389    8.3223   20.8043 H   0  0  0  0  0  0  0  0  0  0  0  0
   48.8946    4.2078   22.9652 H   0  0  0  0  0  0  0  0  0  0  0  0
   47.6077    8.3035   23.2247 H   0  0  0  0  0  0  0  0  0  0  0  0
   48.4822    6.2498   24.3150 H   0  0  0  0  0  0  0  0  0  0  0  0
  2  4  1  0
  3  6  1  0
  4  1  1  0
  5  1  1  0
  6  5  1  0
  7  3  2  0
  8  3  1  0
  9  2  2  0
 10  2  1  0
 11  7  1  0
 12  8  2  0
 13  9  1  0
 14 10  2  0
 15 12  1  0
 16 14  1  0
 13 16  2  0
 11 15  2  0
 18 17  1  0
 19 17  1  0
 20 19  1  0
 21 17  1  0
 18 22  1  0
 23 21  1  0
 20 24  1  0
 21 25  1  0
 26 24  1  0
 27 19  2  0
 28 25  2  0
 29 26  2  0
 30 26  1  0
 31 25  1  0
 32 23  1  0
 33 23  1  0
 34 30  1  0
 35 34  2  0
 36 34  1  0
 37 35  1  0
 38 36  2  0
 39 38  1  0
 22 23  1  0
 18 20  1  0
 37 39  2  0
  1 40  1  0
  4 41  1  0
  4 42  1  0
  5 43  1  0
  5 44  1  0
  6 45  1  0
  6 46  1  0
  7 47  1  0
  8 48  1  0
  9 49  1  0
 10 50  1  0
 11 51  1  0
 12 52  1  0
 13 53  1  0
 14 54  1  0
 15 55  1  0
 16 56  1  0
 18 57  1  1
 20 58  1  1
 21 59  1  6
 24 60  1  0
 30 61  1  0
 30 62  1  0
 31 63  1  0
 32 64  1  0
 32 65  1  0
 32 66  1  0
 33 67  1  0
 33 68  1  0
 33 69  1  0
 35 70  1  0
 36 71  1  0
 37 72  1  0
 38 73  1  0
 39 74  1  0
M  END
> <Uni-Dock RESULT> 
ENERGY=   -5.361  LOWER_BOUND=    3.518  UPPER_BOUND=    5.688
INTER + INTRA:          -5.361
INTER:                  -5.361
INTRA:                   0.000
UNBOUND:                 0.000

$$$$

     RDKit          3D

 74 77  0  0  0  0  0  0  0  0999 V2000
   48.1353    7.9458   13.1371 N   0  0  0  0  0  0  0  0  0  0  0  0
   46.0204    6.7057   12.6708 C   0  0  0  0  0  0  0  0  0  0  0  0
   50.7990    9.2223   12.2124 C   0  0  0  0  0  0  0  0  0  0  0  0
   46.6708    8.0046   13.0861 C   0  0  0  0  0  0  0  0  0  0  0  0
   48.7277    7.7949   11.7997 C   0  0  0  0  0  0  0  0  0  0  0  0
   50.2634    7.8577   11.8459 C   0  0  0  0  0  0  0  0  0  0  0  0
   51.2602    9.4787   13.5105 C   0  0  0  0  0  0  0  0  0  0  0  0
   50.8227   10.2551   11.2649 C   0  0  0  0  0  0  0  0  0  0  0  0
   45.1439    6.6647   11.5769 C   0  0  0  0  0  0  0  0  0  0  0  0
   46.2711    5.5224   13.3807 C   0  0  0  0  0  0  0  0  0  0  0  0
   51.7346   10.7446   13.8549 C   0  0  0  0  0  0  0  0  0  0  0  0
   51.2991   11.5203   11.6112 C   0  0  0  0  0  0  0  0  0  0  0  0
   44.5391    5.4645   11.1974 C   0  0  0  0  0  0  0  0  0  0  0  0
   45.6660    4.3237   13.0005 C   0  0  0  0  0  0  0  0  0  0  0  0
   51.7533   11.7646   12.9056 C   0  0  0  0  0  0  0  0  0  0  0  0
   44.8008    4.2950   11.9083 C   0  0  0  0  0  0  0  0  0  0  0  0
   49.7961    9.8672   14.0524 N   0  0  0  0  0  0  0  0  0  0  0  0
   49.6819    8.4211   13.8012 C   0  0  1  0  0  0  0  0  0  0  0  0
   48.5129   10.1285   13.6672 C   0  0  0  0  0  0  0  0  0  0  0  0
   48.1431    8.6272   13.7244 C   0  0  1  0  0  0  0  0  0  0  0  0
   50.9400   10.5613   13.4673 C   0  0  2  0  0  0  0  0  0  0  0  0
   50.5856    8.1420   12.2226 S   0  0  0  0  0  0  0  0  0  0  0  0
   51.2536    9.8710   12.1145 C   0  0  0  0  0  0  0  0  0  0  0  0
   47.4257    8.0796   12.5432 N   0  0  0  0  0  0  0  0  0  0  0  0
   52.1144   10.5815   14.4519 C   0  0  0  0  0  0  0  0  0  0  0  0
   47.2621    6.7205   12.3909 C   0  0  0  0  0  0  0  0  0  0  0  0
   47.9807   11.1512   13.3051 O   0  0  0  0  0  0  0  0  0  0  0  0
   53.1620   11.1954   14.2970 O   0  0  0  0  0  0  0  0  0  0  0  0
   47.7134    5.9161   13.2034 O   0  0  0  0  0  0  0  0  0  0  0  0
   46.4885    6.3058   11.1530 C   0  0  0  0  0  0  0  0  0  0  0  0
   51.9464    9.8348   15.5641 O   0  0  0  0  0  0  0  0  0  0  0  0
   50.5234   10.5764   10.9580 C   0  0  0  0  0  0  0  0  0  0  0  0
   52.7400    9.7689   11.7499 C   0  0  0  0  0  0  0  0  0  0  0  0
   45.1398    5.7173   11.4862 C   0  0  0  0  0  0  0  0  0  0  0  0
   45.0304    4.3635   11.8384 C   0  0  0  0  0  0  0  0  0  0  0  0
   43.9853    6.5132   11.4778 C   0  0  0  0  0  0  0  0  0  0  0  0
   43.7891    3.8122   12.1595 C   0  0  0  0  0  0  0  0  0  0  0  0
   42.7440    5.9595   11.8009 C   0  0  0  0  0  0  0  0  0  0  0  0
   42.6459    4.6097   12.1396 C   0  0  0  0  0  0  0  0  0  0  0  0
   48.4719    8.8223   13.5378 H   0  0  0  0  0  0  0  0  0  0  0  0
   46.3001    8.2509   14.0889 H   0  0  0  0  0  0  0  0  0  0  0  0
   46.3508    8.8290   12.4361 H   0  0  0  0  0  0  0  0  0  0  0  0
   48.3468    8.5718   11.1251 H   0  0  0  0  0  0  0  0  0  0  0  0
   48.4502    6.8210   11.3801 H   0  0  0  0  0  0  0  0  0  0  0  0
   50.6499    7.1011   12.5406 H   0  0  0  0  0  0  0  0  0  0  0  0
   50.6629    7.5847   10.8606 H   0  0  0  0  0  0  0  0  0  0  0  0
   51.2497    8.6912   14.2614 H   0  0  0  0  0  0  0  0  0  0  0  0
   50.4719   10.0787   10.2504 H   0  0  0  0  0  0  0  0  0  0  0  0
   44.9295    7.5674   11.0099 H   0  0  0  0  0  0  0  0  0  0  0  0
   46.9533    5.5352   14.2285 H   0  0  0  0  0  0  0  0  0  0  0  0
   52.0905   10.9338   14.8640 H   0  0  0  0  0  0  0  0  0  0  0  0
   51.3182   12.3163   10.8712 H   0  0  0  0  0  0  0  0  0  0  0  0
   43.8657    5.4417   10.3443 H   0  0  0  0  0  0  0  0  0  0  0  0
   45.8757    3.4133   13.5540 H   0  0  0  0  0  0  0  0  0  0  0  0
   52.1259   12.7498   13.1726 H   0  0  0  0  0  0  0  0  0  0  0  0
   44.3322    3.3611   11.6104 H   0  0  0  0  0  0  0  0  0  0  0  0
   50.0273    7.8105   14.6404 H   0  0  0  0  0  0  0  0  0  0  0  0
   47.6107    8.3782   14.6516 H   0  0  0  0  0  0  0  0  0  0  0  0
   50.6549   11.6105   13.3198 H   0  0  0  0  0  0  0  0  0  0  0  0
   46.9968    8.7128   11.8782 H   0  0  0  0  0  0  0  0  0  0  0  0
   47.0969    5.5747   10.6051 H   0  0  0  0  0  0  0  0  0  0  0  0
   46.3673    7.1581   10.4722 H   0  0  0  0  0  0  0  0  0  0  0  0
   52.7713    9.9661   16.0766 H   0  0  0  0  0  0  0  0  0  0  0  0
   49.4390   10.6190   11.1080 H   0  0  0  0  0  0  0  0  0  0  0  0
   50.7028   10.0757    9.9971 H   0  0  0  0  0  0  0  0  0  0  0  0
   50.8789   11.6096   10.8548 H   0  0  0  0  0  0  0  0  0  0  0  0
   52.8828    9.2890   10.7732 H   0  0  0  0  0  0  0  0  0  0  0  0
   53.1927   10.7651   11.6810 H   0  0  0  0  0  0  0  0  0  0  0  0
   53.3110    9.1857   12.4815 H   0  0  0  0  0  0  0  0  0  0  0  0
   45.9178    3.7324   11.8737 H   0  0  0  0  0  0  0  0  0  0  0  0
   44.0395    7.5689   11.2209 H   0  0  0  0  0  0  0  0  0  0  0  0
   43.7169    2.7616   12.4324 H   0  0  0  0  0  0  0  0  0  0  0  0
   41.8522    6.5838   11.7903 H   0  0  0  0  0  0  0  0  0  0  0  0
   41.6803    4.1801   12.3936 H   0  0  0  0  0  0  0  0  0  0  0  0
  2  4  1  0
  3  6  1  0
  4  1  1  0
  5  1  1  0
  6  5  1  0
  7  3  2  0
  8  3  1  0
  9  2  2  0
 10  2  1  0
 11  7  1  0
 12  8  2  0
 13  9  1  0
 14 10  2  0
 15 12  1  0
 16 14  1  0
 13 16  2  0
 11 15  2  0
 18 17  1  0
 19 17  1  0
 20 19  1  0
 21 17  1  0
 18 22  1  0
 23 21  1  0
 20 24  1  0
 21 25  1  0
 26 24  1  0
 27 19  2  0
 28 25  2  0
 29 26  2  0
 30 26  1  0
 31 25  1  0
 32 23  1  0
 33 23  1  0
 34 30  1  0
 35 34  2  0
 36 34  1  0
 37 35  1  0
 38 36  2  0
 39 38  1  0
 22 23  1  0
 18 20  1  0
 37 39  2  0
  1 40  1  0
  4 41  1  0
  4 42  1  0
  5 43  1  0
  5 44  1  0
  6 45  1  0
  6 46  1  0
  7 47  1  0
  8 48  1  0
  9 49  1  0
 10 50  1  0
 11 51  1  0
 12 52  1  0
 13 53  1  0
 14 54  1  0
 15 55  1  0
 16 56  1  0
 18 57  1  1
 20 58  1  1
 21 59  1  6
 24 60  1  0
 30 61  1  0
 30 62  1  0
 31 63  1  0
 32 64  1  0
 32 65  1  0
 32 66  1  0
 33 67  1  0
 33 68  1  0
 33 69  1  0
 35 70  1  0
 36 71  1  0
 37 72  1  0
 38 73  1  0
 39 74  1  0
M  END
> <Uni-Dock RESULT> 
ENERGY=   -5.325  LOWER_BOUND=    5.587  UPPER_BOUND=    7.320
INTER + INTRA:          -5.325
INTER:                  -5.325
INTRA:                   0.000
UNBOUND:                 0.000

$$$$

     RDKit          3D

 74 77  0  0  0  0  0  0  0  0999 V2000
   48.9843    8.7085   18.6708 N   0  0  0  0  0  0  0  0  0  0  0  0
   48.9287    6.2926   18.0477 C   0  0  0  0  0  0  0  0  0  0  0  0
   47.8644   11.1438   20.2182 C   0  0  0  0  0  0  0  0  0  0  0  0
   49.6559    7.4079   18.7617 C   0  0  0  0  0  0  0  0  0  0  0  0
   47.7177    8.7281   19.4174 C   0  0  0  0  0  0  0  0  0  0  0  0
   47.0799   10.1274   19.4215 C   0  0  0  0  0  0  0  0  0  0  0  0
   48.6809   12.0785   19.5679 C   0  0  0  0  0  0  0  0  0  0  0  0
   47.8014   11.1521   21.6186 C   0  0  0  0  0  0  0  0  0  0  0  0
   48.5648    5.1247   18.7334 C   0  0  0  0  0  0  0  0  0  0  0  0
   48.6180    6.4005   16.6843 C   0  0  0  0  0  0  0  0  0  0  0  0
   49.4219   13.0031   20.3043 C   0  0  0  0  0  0  0  0  0  0  0  0
   48.5424   12.0790   22.3532 C   0  0  0  0  0  0  0  0  0  0  0  0
   47.8974    4.0922   18.0709 C   0  0  0  0  0  0  0  0  0  0  0  0
   47.9511    5.3679   16.0235 C   0  0  0  0  0  0  0  0  0  0  0  0
   49.3527   13.0025   21.6961 C   0  0  0  0  0  0  0  0  0  0  0  0
   47.5903    4.2144   16.7173 C   0  0  0  0  0  0  0  0  0  0  0  0
   49.9437   11.0828   19.5256 N   0  0  0  0  0  0  0  0  0  0  0  0
   48.9973   10.4555   18.5884 C   0  0  1  0  0  0  0  0  0  0  0  0
   50.4210    9.8895   19.9858 C   0  0  0  0  0  0  0  0  0  0  0  0
   49.7699    9.1247   18.8089 C   0  0  1  0  0  0  0  0  0  0  0  0
   49.4186   12.1081   20.4231 C   0  0  2  0  0  0  0  0  0  0  0  0
   47.3506   10.6297   19.3909 S   0  0  0  0  0  0  0  0  0  0  0  0
   47.9606   11.7110   20.7715 C   0  0  0  0  0  0  0  0  0  0  0  0
   48.9835    7.9143   19.1640 N   0  0  0  0  0  0  0  0  0  0  0  0
   49.5595   13.4966   19.7898 C   0  0  0  0  0  0  0  0  0  0  0  0
   48.1769    7.3036   18.2293 C   0  0  0  0  0  0  0  0  0  0  0  0
   51.0051    9.6027   21.0039 O   0  0  0  0  0  0  0  0  0  0  0  0
   49.3248   14.5603   20.3483 O   0  0  0  0  0  0  0  0  0  0  0  0
   48.0608    7.7401   17.0861 O   0  0  0  0  0  0  0  0  0  0  0  0
   47.4539    6.0640   18.7229 C   0  0  0  0  0  0  0  0  0  0  0  0
   49.9643   13.5038   18.5017 O   0  0  0  0  0  0  0  0  0  0  0  0
   47.9144   10.8781   22.0648 C   0  0  0  0  0  0  0  0  0  0  0  0
   46.9720   12.8747   20.9167 C   0  0  0  0  0  0  0  0  0  0  0  0
   47.9625    4.8021   18.0709 C   0  0  0  0  0  0  0  0  0  0  0  0
   47.4766    4.4150   16.8127 C   0  0  0  0  0  0  0  0  0  0  0  0
   48.9427    4.0153   18.6927 C   0  0  0  0  0  0  0  0  0  0  0  0
   47.9490    3.2556   16.1960 C   0  0  0  0  0  0  0  0  0  0  0  0
   49.4151    2.8558   18.0728 C   0  0  0  0  0  0  0  0  0  0  0  0
   48.9171    2.4754   16.8264 C   0  0  0  0  0  0  0  0  0  0  0  0
   49.6039    9.4118   19.0755 H   0  0  0  0  0  0  0  0  0  0  0  0
   50.6481    7.4989   18.3026 H   0  0  0  0  0  0  0  0  0  0  0  0
   49.8336    7.1502   19.8137 H   0  0  0  0  0  0  0  0  0  0  0  0
   47.8794    8.3934   20.4497 H   0  0  0  0  0  0  0  0  0  0  0  0
   47.0024    8.0413   18.9503 H   0  0  0  0  0  0  0  0  0  0  0  0
   46.9409   10.4802   18.3916 H   0  0  0  0  0  0  0  0  0  0  0  0
   46.0710   10.0599   19.8487 H   0  0  0  0  0  0  0  0  0  0  0  0
   48.7447   12.0888   18.4817 H   0  0  0  0  0  0  0  0  0  0  0  0
   47.1726   10.4375   22.1450 H   0  0  0  0  0  0  0  0  0  0  0  0
   48.7952    5.0131   19.7903 H   0  0  0  0  0  0  0  0  0  0  0  0
   48.8878    7.3024   16.1385 H   0  0  0  0  0  0  0  0  0  0  0  0
   50.0521   13.7244   19.7911 H   0  0  0  0  0  0  0  0  0  0  0  0
   48.4870   12.0827   23.4388 H   0  0  0  0  0  0  0  0  0  0  0  0
   47.6143    3.1932   18.6126 H   0  0  0  0  0  0  0  0  0  0  0  0
   47.7094    5.4683   14.9696 H   0  0  0  0  0  0  0  0  0  0  0  0
   49.9273   13.7247   22.2699 H   0  0  0  0  0  0  0  0  0  0  0  0
   47.0683    3.4118   16.2035 H   0  0  0  0  0  0  0  0  0  0  0  0
   49.0590   10.8660   17.5764 H   0  0  0  0  0  0  0  0  0  0  0  0
   50.5014    8.8956   18.0230 H   0  0  0  0  0  0  0  0  0  0  0  0
   50.0502   12.1227   21.3202 H   0  0  0  0  0  0  0  0  0  0  0  0
   49.0915    7.4965   20.0810 H   0  0  0  0  0  0  0  0  0  0  0  0
   46.3839    6.1937   18.5158 H   0  0  0  0  0  0  0  0  0  0  0  0
   47.5354    5.9807   19.8142 H   0  0  0  0  0  0  0  0  0  0  0  0
   50.0087   14.4530   18.2622 H   0  0  0  0  0  0  0  0  0  0  0  0
   48.5387    9.9795   22.0098 H   0  0  0  0  0  0  0  0  0  0  0  0
   46.8927   10.5544   22.3048 H   0  0  0  0  0  0  0  0  0  0  0  0
   48.2728   11.4722   22.9152 H   0  0  0  0  0  0  0  0  0  0  0  0
   45.9683   12.5193   21.1832 H   0  0  0  0  0  0  0  0  0  0  0  0
   47.2878   13.5557   21.7159 H   0  0  0  0  0  0  0  0  0  0  0  0
   46.8726   13.4568   19.9934 H   0  0  0  0  0  0  0  0  0  0  0  0
   46.7318    5.0238   16.3013 H   0  0  0  0  0  0  0  0  0  0  0  0
   49.3480    4.2957   19.6626 H   0  0  0  0  0  0  0  0  0  0  0  0
   47.5658    2.9664   15.2198 H   0  0  0  0  0  0  0  0  0  0  0  0
   50.1749    2.2497   18.5630 H   0  0  0  0  0  0  0  0  0  0  0  0
   49.2870    1.5747   16.3433 H   0  0  0  0  0  0  0  0  0  0  0  0
  2  4  1  0
  3  6  1  0
  4  1  1  0
  5  1  1  0
  6  5  1  0
  7  3  2  0
  8  3  1  0
  9  2  2  0
 10  2  1  0
 11  7  1  0
 12  8  2  0
 13  9  1  0
 14 10  2  0
 15 12  1  0
 16 14  1  0
 13 16  2  0
 11 15  2  0
 18 17  1  0
 19 17  1  0
 20 19  1  0
 21 17  1  0
 18 22  1  0
 23 21  1  0
 20 24  1  0
 21 25  1  0
 26 24  1  0
 27 19  2  0
 28 25  2  0
 29 26  2  0
 30 26  1  0
 31 25  1  0
 32 23  1  0
 33 23  1  0
 34 30  1  0
 35 34  2  0
 36 34  1  0
 37 35  1  0
 38 36  2  0
 39 38  1  0
 22 23  1  0
 18 20  1  0
 37 39  2  0
  1 40  1  0
  4 41  1  0
  4 42  1  0
  5 43  1  0
  5 44  1  0
  6 45  1  0
  6 46  1  0
  7 47  1  0
  8 48  1  0
  9 49  1  0
 10 50  1  0
 11 51  1  0
 12 52  1  0
 13 53  1  0
 14 54  1  0
 15 55  1  0
 16 56  1  0
 18 57  1  1
 20 58  1  1
 21 59  1  6
 24 60  1  0
 30 61  1  0
 30 62  1  0
 31 63  1  0
 32 64  1  0
 32 65  1  0
 32 66  1  0
 33 67  1  0
 33 68  1  0
 33 69  1  0
 35 70  1  0
 36 71  1  0
 37 72  1  0
 38 73  1  0
 39 74  1  0
M  END
> <Uni-Dock RESULT> 
ENERGY=   -5.301  LOWER_BOUND=    1.253  UPPER_BOUND=    1.522
INTER + INTRA:          -5.301
INTER:                  -5.301
INTRA:                   0.000
UNBOUND:                 0.000

$$$$

     RDKit          3D

 74 77  0  0  0  0  0  0  0  0999 V2000
   48.0711    7.2845   13.3795 N   0  0  0  0  0  0  0  0  0  0  0  0
   46.2895    5.7311   12.5792 C   0  0  0  0  0  0  0  0  0  0  0  0
   48.9788    9.8709   14.8169 C   0  0  0  0  0  0  0  0  0  0  0  0
   47.4486    5.9640   13.5198 C   0  0  0  0  0  0  0  0  0  0  0  0
   47.1778    8.3648   13.8235 C   0  0  0  0  0  0  0  0  0  0  0  0
   47.8782    9.7335   13.7906 C   0  0  0  0  0  0  0  0  0  0  0  0
   50.3221    9.7476   14.4380 C   0  0  0  0  0  0  0  0  0  0  0  0
   48.6698   10.1035   16.1643 C   0  0  0  0  0  0  0  0  0  0  0  0
   45.0302    5.3650   13.0761 C   0  0  0  0  0  0  0  0  0  0  0  0
   46.4569    5.8631   11.1930 C   0  0  0  0  0  0  0  0  0  0  0  0
   51.3373    9.8531   15.3890 C   0  0  0  0  0  0  0  0  0  0  0  0
   49.6871   10.2102   17.1137 C   0  0  0  0  0  0  0  0  0  0  0  0
   43.9609    5.1447   12.2052 C   0  0  0  0  0  0  0  0  0  0  0  0
   45.3875    5.6425   10.3238 C   0  0  0  0  0  0  0  0  0  0  0  0
   51.0194   10.0837   16.7261 C   0  0  0  0  0  0  0  0  0  0  0  0
   44.1396    5.2842   10.8304 C   0  0  0  0  0  0  0  0  0  0  0  0
   50.3171    8.1474   14.6039 N   0  0  0  0  0  0  0  0  0  0  0  0
   49.4488    8.3606   13.4343 C   0  0  1  0  0  0  0  0  0  0  0  0
   49.5879    7.0907   15.0676 C   0  0  0  0  0  0  0  0  0  0  0  0
   48.8378    6.9602   13.7207 C   0  0  1  0  0  0  0  0  0  0  0  0
   50.6183    9.3090   15.4361 C   0  0  2  0  0  0  0  0  0  0  0  0
   48.4360    9.8370   13.8593 S   0  0  0  0  0  0  0  0  0  0  0  0
   49.3663   10.2238   15.4189 C   0  0  0  0  0  0  0  0  0  0  0  0
   47.3575    6.8496   13.7987 N   0  0  0  0  0  0  0  0  0  0  0  0
   51.9042    9.9914   14.9570 C   0  0  0  0  0  0  0  0  0  0  0  0
   46.5855    6.9662   12.6640 C   0  0  0  0  0  0  0  0  0  0  0  0
   49.5145    6.5923   16.1660 O   0  0  0  0  0  0  0  0  0  0  0  0
   52.4768   10.9107   15.5276 O   0  0  0  0  0  0  0  0  0  0  0  0
   47.0806    7.1832   11.5601 O   0  0  0  0  0  0  0  0  0  0  0  0
   45.0931    6.8063   12.8885 C   0  0  0  0  0  0  0  0  0  0  0  0
   52.4082    9.5204   13.7963 O   0  0  0  0  0  0  0  0  0  0  0  0
   48.4368    9.9018   16.6025 C   0  0  0  0  0  0  0  0  0  0  0  0
   49.6455   11.7320   15.4269 C   0  0  0  0  0  0  0  0  0  0  0  0
   44.5500    5.5403   12.2733 C   0  0  0  0  0  0  0  0  0  0  0  0
   44.2079    5.5096   10.9128 C   0  0  0  0  0  0  0  0  0  0  0  0
   44.4057    4.3733   13.0372 C   0  0  0  0  0  0  0  0  0  0  0  0
   43.7154    4.3403   10.3315 C   0  0  0  0  0  0  0  0  0  0  0  0
   43.9138    3.2035   12.4528 C   0  0  0  0  0  0  0  0  0  0  0  0
   43.5672    3.1877   11.1015 C   0  0  0  0  0  0  0  0  0  0  0  0
   48.9077    7.3019   13.9644 H   0  0  0  0  0  0  0  0  0  0  0  0
   48.2058    5.2005   13.3022 H   0  0  0  0  0  0  0  0  0  0  0  0
   47.1470    5.8002   14.5623 H   0  0  0  0  0  0  0  0  0  0  0  0
   46.8109    8.1624   14.8375 H   0  0  0  0  0  0  0  0  0  0  0  0
   46.3089    8.4232   13.1579 H   0  0  0  0  0  0  0  0  0  0  0  0
   48.2723    9.9300   12.7854 H   0  0  0  0  0  0  0  0  0  0  0  0
   47.1355   10.5204   13.9752 H   0  0  0  0  0  0  0  0  0  0  0  0
   50.5837    9.5661   13.3974 H   0  0  0  0  0  0  0  0  0  0  0  0
   47.6342   10.2051   16.4813 H   0  0  0  0  0  0  0  0  0  0  0  0
   44.8725    5.2531   14.1461 H   0  0  0  0  0  0  0  0  0  0  0  0
   47.4258    6.1523   10.7910 H   0  0  0  0  0  0  0  0  0  0  0  0
   52.3762    9.7563   15.0856 H   0  0  0  0  0  0  0  0  0  0  0  0
   49.4414   10.3938   18.1566 H   0  0  0  0  0  0  0  0  0  0  0  0
   42.9870    4.8670   12.6004 H   0  0  0  0  0  0  0  0  0  0  0  0
   45.5291    5.7565    9.2532 H   0  0  0  0  0  0  0  0  0  0  0  0
   51.8100   10.1692   17.4665 H   0  0  0  0  0  0  0  0  0  0  0  0
   43.3063    5.1156   10.1538 H   0  0  0  0  0  0  0  0  0  0  0  0
   50.0045    8.4415   12.4956 H   0  0  0  0  0  0  0  0  0  0  0  0
   49.2552    6.1542   13.1032 H   0  0  0  0  0  0  0  0  0  0  0  0
   50.8309    8.9478   16.4501 H   0  0  0  0  0  0  0  0  0  0  0  0
   46.9168    6.6217   14.6824 H   0  0  0  0  0  0  0  0  0  0  0  0
   44.5922    7.6829   12.4579 H   0  0  0  0  0  0  0  0  0  0  0  0
   44.8611    6.8309   13.9609 H   0  0  0  0  0  0  0  0  0  0  0  0
   53.2178   10.0515   13.6451 H   0  0  0  0  0  0  0  0  0  0  0  0
   48.1263    8.8513   16.6207 H   0  0  0  0  0  0  0  0  0  0  0  0
   47.5251   10.5138   16.5829 H   0  0  0  0  0  0  0  0  0  0  0  0
   48.9437   10.1082   17.5538 H   0  0  0  0  0  0  0  0  0  0  0  0
   48.7148   12.3137   15.4347 H   0  0  0  0  0  0  0  0  0  0  0  0
   50.2043   12.0191   16.3255 H   0  0  0  0  0  0  0  0  0  0  0  0
   50.2200   12.0557   14.5514 H   0  0  0  0  0  0  0  0  0  0  0  0
   44.3337    6.3983   10.2954 H   0  0  0  0  0  0  0  0  0  0  0  0
   44.6739    4.3620   14.0914 H   0  0  0  0  0  0  0  0  0  0  0  0
   43.4548    4.3282    9.2754 H   0  0  0  0  0  0  0  0  0  0  0  0
   43.8031    2.3022   13.0532 H   0  0  0  0  0  0  0  0  0  0  0  0
   43.1872    2.2765   10.6467 H   0  0  0  0  0  0  0  0  0  0  0  0
  2  4  1  0
  3  6  1  0
  4  1  1  0
  5  1  1  0
  6  5  1  0
  7  3  2  0
  8  3  1  0
  9  2  2  0
 10  2  1  0
 11  7  1  0
 12  8  2  0
 13  9  1  0
 14 10  2  0
 15 12  1  0
 16 14  1  0
 13 16  2  0
 11 15  2  0
 18 17  1  0
 19 17  1  0
 20 19  1  0
 21 17  1  0
 18 22  1  0
 23 21  1  0
 20 24  1  0
 21 25  1  0
 26 24  1  0
 27 19  2  0
 28 25  2  0
 29 26  2  0
 30 26  1  0
 31 25  1  0
 32 23  1  0
 33 23  1  0
 34 30  1  0
 35 34  2  0
 36 34  1  0
 37 35  1  0
 38 36  2  0
 39 38  1  0
 22 23  1  0
 18 20  1  0
 37 39  2  0
  1 40  1  0
  4 41  1  0
  4 42  1  0
  5 43  1  0
  5 44  1  0
  6 45  1  0
  6 46  1  0
  7 47  1  0
  8 48  1  0
  9 49  1  0
 10 50  1  0
 11 51  1  0
 12 52  1  0
 13 53  1  0
 14 54  1  0
 15 55  1  0
 16 56  1  0
 18 57  1  1
 20 58  1  1
 21 59  1  6
 24 60  1  0
 30 61  1  0
 30 62  1  0
 31 63  1  0
 32 64  1  0
 32 65  1  0
 32 66  1  0
 33 67  1  0
 33 68  1  0
 33 69  1  0
 35 70  1  0
 36 71  1  0
 37 72  1  0
 38 73  1  0
 39 74  1  0
M  END
> <Uni-Dock RESULT> 
ENERGY=   -5.271  LOWER_BOUND=    4.551  UPPER_BOUND=    6.145
INTER + INTRA:          -5.271
INTER:                  -5.271
INTRA:                   0.000
UNBOUND:                 0.000

$$$$

     RDKit          3D

 74 77  0  0  0  0  0  0  0  0999 V2000
   47.3038    7.3699   13.0955 N   0  0  0  0  0  0  0  0  0  0  0  0
   48.5610    8.8054   14.7038 C   0  0  0  0  0  0  0  0  0  0  0  0
   45.4375    4.9822   12.4666 C   0  0  0  0  0  0  0  0  0  0  0  0
   47.4258    8.6945   13.7131 C   0  0  0  0  0  0  0  0  0  0  0  0
   46.8811    6.3472   14.0638 C   0  0  0  0  0  0  0  0  0  0  0  0
   46.6357    4.9882   13.3873 C   0  0  0  0  0  0  0  0  0  0  0  0
   45.6086    5.0652   11.0784 C   0  0  0  0  0  0  0  0  0  0  0  0
   44.1388    4.9139   12.9899 C   0  0  0  0  0  0  0  0  0  0  0  0
   48.3201    9.2230   16.0207 C   0  0  0  0  0  0  0  0  0  0  0  0
   49.8762    8.5064   14.3194 C   0  0  0  0  0  0  0  0  0  0  0  0
   44.5017    5.0813   10.2295 C   0  0  0  0  0  0  0  0  0  0  0  0
   43.0329    4.9287   12.1387 C   0  0  0  0  0  0  0  0  0  0  0  0
   49.3711    9.3303   16.9341 C   0  0  0  0  0  0  0  0  0  0  0  0
   50.9256    8.6142   15.2332 C   0  0  0  0  0  0  0  0  0  0  0  0
   43.2148    5.0136   10.7599 C   0  0  0  0  0  0  0  0  0  0  0  0
   50.6725    9.0254   16.5405 C   0  0  0  0  0  0  0  0  0  0  0  0
   45.6405    6.6736   11.0864 N   0  0  0  0  0  0  0  0  0  0  0  0
   46.8995    6.3153   11.7600 C   0  0  1  0  0  0  0  0  0  0  0  0
   45.4307    7.7753   11.8647 C   0  0  0  0  0  0  0  0  0  0  0  0
   46.8861    7.7371   12.3884 C   0  0  1  0  0  0  0  0  0  0  0  0
   44.6364    5.6235   10.9388 C   0  0  2  0  0  0  0  0  0  0  0  0
   46.4666    4.8966   12.8492 S   0  0  0  0  0  0  0  0  0  0  0  0
   44.7430    4.7072   12.1853 C   0  0  0  0  0  0  0  0  0  0  0  0
   47.0600    7.8490   13.8604 N   0  0  0  0  0  0  0  0  0  0  0  0
   44.8174    4.8942    9.6030 C   0  0  0  0  0  0  0  0  0  0  0  0
   48.2812    7.5913   14.4432 C   0  0  0  0  0  0  0  0  0  0  0  0
   44.4267    8.4034   12.1050 O   0  0  0  0  0  0  0  0  0  0  0  0
   44.0555    4.0541    9.1423 O   0  0  0  0  0  0  0  0  0  0  0  0
   49.2571    7.2439   13.7816 O   0  0  0  0  0  0  0  0  0  0  0  0
   48.3194    7.7699   15.9497 C   0  0  0  0  0  0  0  0  0  0  0  0
   45.9307    5.2229    8.9135 O   0  0  0  0  0  0  0  0  0  0  0  0
   43.7712    5.1663   13.2868 C   0  0  0  0  0  0  0  0  0  0  0  0
   44.5080    3.2126   11.9330 C   0  0  0  0  0  0  0  0  0  0  0  0
   49.1622    8.9489   16.3693 C   0  0  0  0  0  0  0  0  0  0  0  0
   50.5535    8.8119   16.4895 C   0  0  0  0  0  0  0  0  0  0  0  0
   48.5781   10.1995   16.6165 C   0  0  0  0  0  0  0  0  0  0  0  0
   51.3433    9.8994   16.8658 C   0  0  0  0  0  0  0  0  0  0  0  0
   49.3709   11.2870   16.9917 C   0  0  0  0  0  0  0  0  0  0  0  0
   50.7520   11.1364   17.1181 C   0  0  0  0  0  0  0  0  0  0  0  0
   46.5948    7.4279   12.3632 H   0  0  0  0  0  0  0  0  0  0  0  0
   47.6101    9.4296   12.9198 H   0  0  0  0  0  0  0  0  0  0  0  0
   46.4726    8.9825   14.1746 H   0  0  0  0  0  0  0  0  0  0  0  0
   45.9710    6.6697   14.5848 H   0  0  0  0  0  0  0  0  0  0  0  0
   47.6652    6.2038   14.8162 H   0  0  0  0  0  0  0  0  0  0  0  0
   47.5336    4.6727   12.8408 H   0  0  0  0  0  0  0  0  0  0  0  0
   46.4786    4.2259   14.1613 H   0  0  0  0  0  0  0  0  0  0  0  0
   46.6081    5.1199   10.6515 H   0  0  0  0  0  0  0  0  0  0  0  0
   43.9817    4.8465   14.0642 H   0  0  0  0  0  0  0  0  0  0  0  0
   47.3106    9.4635   16.3454 H   0  0  0  0  0  0  0  0  0  0  0  0
   50.0800    8.1753   13.3031 H   0  0  0  0  0  0  0  0  0  0  0  0
   44.6443    5.1456    9.1542 H   0  0  0  0  0  0  0  0  0  0  0  0
   42.0284    4.8721   12.5502 H   0  0  0  0  0  0  0  0  0  0  0  0
   49.1733    9.6492   17.9544 H   0  0  0  0  0  0  0  0  0  0  0  0
   51.9380    8.3715   14.9243 H   0  0  0  0  0  0  0  0  0  0  0  0
   42.3525    5.0229   10.0988 H   0  0  0  0  0  0  0  0  0  0  0  0
   51.4891    9.1062   17.2527 H   0  0  0  0  0  0  0  0  0  0  0  0
   47.7203    6.1234   11.0630 H   0  0  0  0  0  0  0  0  0  0  0  0
   47.5217    8.4640   11.8661 H   0  0  0  0  0  0  0  0  0  0  0  0
   43.6527    6.1065   10.8854 H   0  0  0  0  0  0  0  0  0  0  0  0
   46.2924    8.1806   14.4330 H   0  0  0  0  0  0  0  0  0  0  0  0
   48.7153    6.8449   16.3883 H   0  0  0  0  0  0  0  0  0  0  0  0
   47.3030    7.8749   16.3502 H   0  0  0  0  0  0  0  0  0  0  0  0
   45.8850    4.6814    8.0981 H   0  0  0  0  0  0  0  0  0  0  0  0
   43.9302    6.2096   13.5808 H   0  0  0  0  0  0  0  0  0  0  0  0
   43.8623    4.5520   14.1926 H   0  0  0  0  0  0  0  0  0  0  0  0
   42.7331    5.0798   12.9412 H   0  0  0  0  0  0  0  0  0  0  0  0
   44.5790    2.6316   12.8614 H   0  0  0  0  0  0  0  0  0  0  0  0
   43.5035    3.0398   11.5289 H   0  0  0  0  0  0  0  0  0  0  0  0
   45.2346    2.7876   11.2310 H   0  0  0  0  0  0  0  0  0  0  0  0
   51.0307    7.8553   16.2798 H   0  0  0  0  0  0  0  0  0  0  0  0
   47.5038   10.3404   16.5197 H   0  0  0  0  0  0  0  0  0  0  0  0
   52.4211    9.7815   16.9545 H   0  0  0  0  0  0  0  0  0  0  0  0
   48.9094   12.2541   17.1836 H   0  0  0  0  0  0  0  0  0  0  0  0
   51.3686   11.9835   17.4073 H   0  0  0  0  0  0  0  0  0  0  0  0
  2  4  1  0
  3  6  1  0
  4  1  1  0
  5  1  1  0
  6  5  1  0
  7  3  2  0
  8  3  1  0
  9  2  2  0
 10  2  1  0
 11  7  1  0
 12  8  2  0
 13  9  1  0
 14 10  2  0
 15 12  1  0
 16 14  1  0
 13 16  2  0
 11 15  2  0
 18 17  1  0
 19 17  1  0
 20 19  1  0
 21 17  1  0
 18 22  1  0
 23 21  1  0
 20 24  1  0
 21 25  1  0
 26 24  1  0
 27 19  2  0
 28 25  2  0
 29 26  2  0
 30 26  1  0
 31 25  1  0
 32 23  1  0
 33 23  1  0
 34 30  1  0
 35 34  2  0
 36 34  1  0
 37 35  1  0
 38 36  2  0
 39 38  1  0
 22 23  1  0
 18 20  1  0
 37 39  2  0
  1 40  1  0
  4 41  1  0
  4 42  1  0
  5 43  1  0
  5 44  1  0
  6 45  1  0
  6 46  1  0
  7 47  1  0
  8 48  1  0
  9 49  1  0
 10 50  1  0
 11 51  1  0
 12 52  1  0
 13 53  1  0
 14 54  1  0
 15 55  1  0
 16 56  1  0
 18 57  1  1
 20 58  1  1
 21 59  1  6
 24 60  1  0
 30 61  1  0
 30 62  1  0
 31 63  1  0
 32 64  1  0
 32 65  1  0
 32 66  1  0
 33 67  1  0
 33 68  1  0
 33 69  1  0
 35 70  1  0
 36 71  1  0
 37 72  1  0
 38 73  1  0
 39 74  1  0
M  END
> <Uni-Dock RESULT> 
ENERGY=   -5.170  LOWER_BOUND=    5.059  UPPER_BOUND=    8.559
INTER + INTRA:          -5.170
INTER:                  -5.170
INTRA:                   0.000
UNBOUND:                 0.000

$$$$

     RDKit          3D

 74 77  0  0  0  0  0  0  0  0999 V2000
   41.8084   12.1701   10.4837 N   0  0  0  0  0  0  0  0  0  0  0  0
   40.5168   12.3694   12.6098 C   0  0  0  0  0  0  0  0  0  0  0  0
   43.6558   13.3583    8.3032 C   0  0  0  0  0  0  0  0  0  0  0  0
   41.6861   11.7474   11.8827 C   0  0  0  0  0  0  0  0  0  0  0  0
   42.1772   13.5888   10.3669 C   0  0  0  0  0  0  0  0  0  0  0  0
   42.4244   13.9951    8.9046 C   0  0  0  0  0  0  0  0  0  0  0  0
   43.5380   12.2597    7.4416 C   0  0  0  0  0  0  0  0  0  0  0  0
   44.9328   13.8454    8.6151 C   0  0  0  0  0  0  0  0  0  0  0  0
   40.7156   13.0852   13.7992 C   0  0  0  0  0  0  0  0  0  0  0  0
   39.2119   12.2292   12.1153 C   0  0  0  0  0  0  0  0  0  0  0  0
   44.6759   11.6583    6.9034 C   0  0  0  0  0  0  0  0  0  0  0  0
   46.0697   13.2431    8.0743 C   0  0  0  0  0  0  0  0  0  0  0  0
   39.6333   13.6550   14.4732 C   0  0  0  0  0  0  0  0  0  0  0  0
   38.1312   12.7991   12.7899 C   0  0  0  0  0  0  0  0  0  0  0  0
   45.9408   12.1498    7.2203 C   0  0  0  0  0  0  0  0  0  0  0  0
   38.3425   13.5125   13.9683 C   0  0  0  0  0  0  0  0  0  0  0  0
   43.5333   11.1968    8.6492 N   0  0  0  0  0  0  0  0  0  0  0  0
   42.2441   11.8885    8.8134 C   0  0  1  0  0  0  0  0  0  0  0  0
   43.7327   11.0551    9.9922 C   0  0  0  0  0  0  0  0  0  0  0  0
   42.2583   11.4146   10.2939 C   0  0  1  0  0  0  0  0  0  0  0  0
   44.5241   11.8229    7.7781 C   0  0  2  0  0  0  0  0  0  0  0  0
   42.6119   13.6606    8.4808 S   0  0  0  0  0  0  0  0  0  0  0  0
   44.3556   13.3579    7.9191 C   0  0  0  0  0  0  0  0  0  0  0  0
   42.0316   12.4330   11.3527 N   0  0  0  0  0  0  0  0  0  0  0  0
   44.3806   11.3021    6.3438 C   0  0  0  0  0  0  0  0  0  0  0  0
   40.7854   12.9915   11.5323 C   0  0  0  0  0  0  0  0  0  0  0  0
   44.7375   10.8570   10.6334 O   0  0  0  0  0  0  0  0  0  0  0  0
   45.1446   11.5455    5.4189 O   0  0  0  0  0  0  0  0  0  0  0  0
   39.8290   12.6897   10.8216 O   0  0  0  0  0  0  0  0  0  0  0  0
   40.6942   13.9967   12.6655 C   0  0  0  0  0  0  0  0  0  0  0  0
   43.2994   10.5254    6.1185 O   0  0  0  0  0  0  0  0  0  0  0  0
   45.2933   13.9140    9.0053 C   0  0  0  0  0  0  0  0  0  0  0  0
   44.5743   14.1707    6.6369 C   0  0  0  0  0  0  0  0  0  0  0  0
   39.8565   13.4945   13.8155 C   0  0  0  0  0  0  0  0  0  0  0  0
   38.4596   13.6208   13.7763 C   0  0  0  0  0  0  0  0  0  0  0  0
   40.4523   12.8720   14.9218 C   0  0  0  0  0  0  0  0  0  0  0  0
   37.6750   13.1491   14.8298 C   0  0  0  0  0  0  0  0  0  0  0  0
   39.6647   12.3994   15.9746 C   0  0  0  0  0  0  0  0  0  0  0  0
   38.2774   12.5396   15.9293 C   0  0  0  0  0  0  0  0  0  0  0  0
   42.5450   11.6124   10.0495 H   0  0  0  0  0  0  0  0  0  0  0  0
   41.5440   10.6597   11.9035 H   0  0  0  0  0  0  0  0  0  0  0  0
   42.6262   11.9383   12.4159 H   0  0  0  0  0  0  0  0  0  0  0  0
   43.0727   13.7994   10.9648 H   0  0  0  0  0  0  0  0  0  0  0  0
   41.3633   14.2152   10.7498 H   0  0  0  0  0  0  0  0  0  0  0  0
   41.5422   13.7612    8.2951 H   0  0  0  0  0  0  0  0  0  0  0  0
   42.5396   15.0854    8.8503 H   0  0  0  0  0  0  0  0  0  0  0  0
   42.5562   11.8654    7.1872 H   0  0  0  0  0  0  0  0  0  0  0  0
   45.0486   14.6987    9.2798 H   0  0  0  0  0  0  0  0  0  0  0  0
   41.7163   13.2076   14.2067 H   0  0  0  0  0  0  0  0  0  0  0  0
   39.0405   11.6819   11.1905 H   0  0  0  0  0  0  0  0  0  0  0  0
   44.5745   10.8069    6.2359 H   0  0  0  0  0  0  0  0  0  0  0  0
   47.0571   13.6273    8.3172 H   0  0  0  0  0  0  0  0  0  0  0  0
   39.7983   14.2132   15.3913 H   0  0  0  0  0  0  0  0  0  0  0  0
   37.1271   12.6898   12.3912 H   0  0  0  0  0  0  0  0  0  0  0  0
   46.8272   11.6836    6.7987 H   0  0  0  0  0  0  0  0  0  0  0  0
   37.5014   13.9589   14.4917 H   0  0  0  0  0  0  0  0  0  0  0  0
   41.4466   11.4631    8.1974 H   0  0  0  0  0  0  0  0  0  0  0  0
   41.6551   10.5171   10.4831 H   0  0  0  0  0  0  0  0  0  0  0  0
   45.5172   11.5009    8.1156 H   0  0  0  0  0  0  0  0  0  0  0  0
   42.7829   12.6706   11.9900 H   0  0  0  0  0  0  0  0  0  0  0  0
   40.2665   14.9228   12.2603 H   0  0  0  0  0  0  0  0  0  0  0  0
   41.6966   14.2660   13.0220 H   0  0  0  0  0  0  0  0  0  0  0  0
   43.3662   10.2775    5.1728 H   0  0  0  0  0  0  0  0  0  0  0  0
   45.1413   13.4349    9.9788 H   0  0  0  0  0  0  0  0  0  0  0  0
   45.1581   14.9947    9.1462 H   0  0  0  0  0  0  0  0  0  0  0  0
   46.3419   13.7539    8.7237 H   0  0  0  0  0  0  0  0  0  0  0  0
   44.4589   15.2471    6.8179 H   0  0  0  0  0  0  0  0  0  0  0  0
   45.5900   14.0229    6.2515 H   0  0  0  0  0  0  0  0  0  0  0  0
   43.8672   13.9001    5.8443 H   0  0  0  0  0  0  0  0  0  0  0  0
   37.9743   14.0804   12.9160 H   0  0  0  0  0  0  0  0  0  0  0  0
   41.5317   12.7482   14.9758 H   0  0  0  0  0  0  0  0  0  0  0  0
   36.5928   13.2514   14.7875 H   0  0  0  0  0  0  0  0  0  0  0  0
   40.1352   11.9188   16.8306 H   0  0  0  0  0  0  0  0  0  0  0  0
   37.6650   12.1692   16.7473 H   0  0  0  0  0  0  0  0  0  0  0  0
  2  4  1  0
  3  6  1  0
  4  1  1  0
  5  1  1  0
  6  5  1  0
  7  3  2  0
  8  3  1  0
  9  2  2  0
 10  2  1  0
 11  7  1  0
 12  8  2  0
 13  9  1  0
 14 10  2  0
 15 12  1  0
 16 14  1  0
 13 16  2  0
 11 15  2  0
 18 17  1  0
 19 17  1  0
 20 19  1  0
 21 17  1  0
 18 22  1  0
 23 21  1  0
 20 24  1  0
 21 25  1  0
 26 24  1  0
 27 19  2  0
 28 25  2  0
 29 26  2  0
 30 26  1  0
 31 25  1  0
 32 23  1  0
 33 23  1  0
 34 30  1  0
 35 34  2  0
 36 34  1  0
 37 35  1  0
 38 36  2  0
 39 38  1  0
 22 23  1  0
 18 20  1  0
 37 39  2  0
  1 40  1  0
  4 41  1  0
  4 42  1  0
  5 43  1  0
  5 44  1  0
  6 45  1  0
  6 46  1  0
  7 47  1  0
  8 48  1  0
  9 49  1  0
 10 50  1  0
 11 51  1  0
 12 52  1  0
 13 53  1  0
 14 54  1  0
 15 55  1  0
 16 56  1  0
 18 57  1  1
 20 58  1  1
 21 59  1  6
 24 60  1  0
 30 61  1  0
 30 62  1  0
 31 63  1  0
 32 64  1  0
 32 65  1  0
 32 66  1  0
 33 67  1  0
 33 68  1  0
 33 69  1  0
 35 70  1  0
 36 71  1  0
 37 72  1  0
 38 73  1  0
 39 74  1  0
M  END
> <Uni-Dock RESULT> 
ENERGY=   -5.111  LOWER_BOUND=   10.444  UPPER_BOUND=   12.780
INTER + INTRA:          -5.111
INTER:                  -5.111
INTRA:                   0.000
UNBOUND:                 0.000

$$$$

     RDKit          3D

 74 77  0  0  0  0  0  0  0  0999 V2000
   48.6956    8.5662   19.5764 N   0  0  0  0  0  0  0  0  0  0  0  0
   48.5043    6.2261   18.7304 C   0  0  0  0  0  0  0  0  0  0  0  0
   49.0289   11.6076   19.1091 C   0  0  0  0  0  0  0  0  0  0  0  0
   47.8303    7.3934   19.4129 C   0  0  0  0  0  0  0  0  0  0  0  0
   49.0216    9.1944   18.2875 C   0  0  0  0  0  0  0  0  0  0  0  0
   49.8255   10.4922   18.4729 C   0  0  0  0  0  0  0  0  0  0  0  0
   49.1959   11.9147   20.4659 C   0  0  0  0  0  0  0  0  0  0  0  0
   48.0980   12.3361   18.3555 C   0  0  0  0  0  0  0  0  0  0  0  0
   47.9482    5.6573   17.5755 C   0  0  0  0  0  0  0  0  0  0  0  0
   49.6891    5.6830   19.2482 C   0  0  0  0  0  0  0  0  0  0  0  0
   48.4450   12.9301   21.0585 C   0  0  0  0  0  0  0  0  0  0  0  0
   47.3489   13.3525   18.9500 C   0  0  0  0  0  0  0  0  0  0  0  0
   48.5693    4.5749   16.9486 C   0  0  0  0  0  0  0  0  0  0  0  0
   50.3087    4.6013   18.6208 C   0  0  0  0  0  0  0  0  0  0  0  0
   47.5218   13.6479   20.3007 C   0  0  0  0  0  0  0  0  0  0  0  0
   49.7489    4.0481   17.4706 C   0  0  0  0  0  0  0  0  0  0  0  0
   48.1147   10.8221   20.9406 N   0  0  0  0  0  0  0  0  0  0  0  0
   49.2231    9.9931   20.4393 C   0  0  1  0  0  0  0  0  0  0  0  0
   47.1506    9.9628   20.4985 C   0  0  0  0  0  0  0  0  0  0  0  0
   48.1923    8.8420   20.2692 C   0  0  1  0  0  0  0  0  0  0  0  0
   48.1192   12.2373   20.5799 C   0  0  2  0  0  0  0  0  0  0  0  0
   49.8048   10.8498   18.9181 S   0  0  0  0  0  0  0  0  0  0  0  0
   48.7352   12.3480   19.1611 C   0  0  0  0  0  0  0  0  0  0  0  0
   48.1351    8.1475   18.9561 N   0  0  0  0  0  0  0  0  0  0  0  0
   48.8471   13.0595   21.6490 C   0  0  0  0  0  0  0  0  0  0  0  0
   49.1537    7.3079   18.5627 C   0  0  0  0  0  0  0  0  0  0  0  0
   45.9756   10.1299   20.2713 O   0  0  0  0  0  0  0  0  0  0  0  0
   48.9055   14.2815   21.6892 O   0  0  0  0  0  0  0  0  0  0  0  0
   50.1462    7.1174   19.2623 O   0  0  0  0  0  0  0  0  0  0  0  0
   48.9501    6.6475   17.2116 C   0  0  0  0  0  0  0  0  0  0  0  0
   49.4771   12.3380   22.6006 O   0  0  0  0  0  0  0  0  0  0  0  0
   47.6373   12.3108   18.0833 C   0  0  0  0  0  0  0  0  0  0  0  0
   49.6090   13.5835   18.9110 C   0  0  0  0  0  0  0  0  0  0  0  0
   48.7207    5.1606   17.3256 C   0  0  0  0  0  0  0  0  0  0  0  0
   49.8130    4.2864   17.4329 C   0  0  0  0  0  0  0  0  0  0  0  0
   47.4219    4.6329   17.3548 C   0  0  0  0  0  0  0  0  0  0  0  0
   49.6112    2.9104   17.5503 C   0  0  0  0  0  0  0  0  0  0  0  0
   47.2222    3.2553   17.4738 C   0  0  0  0  0  0  0  0  0  0  0  0
   48.3161    2.3947   17.5695 C   0  0  0  0  0  0  0  0  0  0  0  0
   48.1955    9.2495   20.1467 H   0  0  0  0  0  0  0  0  0  0  0  0
   47.5165    7.0546   20.4081 H   0  0  0  0  0  0  0  0  0  0  0  0
   46.9095    7.6769   18.8874 H   0  0  0  0  0  0  0  0  0  0  0  0
   48.1040    9.4060   17.7246 H   0  0  0  0  0  0  0  0  0  0  0  0
   49.6332    8.5109   17.6872 H   0  0  0  0  0  0  0  0  0  0  0  0
   50.7313   10.2928   19.0595 H   0  0  0  0  0  0  0  0  0  0  0  0
   50.1790   10.8377   17.4928 H   0  0  0  0  0  0  0  0  0  0  0  0
   49.9126   11.3608   21.0691 H   0  0  0  0  0  0  0  0  0  0  0  0
   47.9529   12.1170   17.2999 H   0  0  0  0  0  0  0  0  0  0  0  0
   47.0291    6.0567   17.1535 H   0  0  0  0  0  0  0  0  0  0  0  0
   50.1372    6.1161   20.1403 H   0  0  0  0  0  0  0  0  0  0  0  0
   48.5817   13.1612   22.1114 H   0  0  0  0  0  0  0  0  0  0  0  0
   46.6310   13.9162   18.3598 H   0  0  0  0  0  0  0  0  0  0  0  0
   48.1337    4.1446   16.0503 H   0  0  0  0  0  0  0  0  0  0  0  0
   51.2303    4.1961   19.0279 H   0  0  0  0  0  0  0  0  0  0  0  0
   46.9390   14.4411   20.7611 H   0  0  0  0  0  0  0  0  0  0  0  0
   50.2331    3.2079   16.9804 H   0  0  0  0  0  0  0  0  0  0  0  0
   49.9992    9.8144   21.1891 H   0  0  0  0  0  0  0  0  0  0  0  0
   48.1912    8.1160   21.0926 H   0  0  0  0  0  0  0  0  0  0  0  0
   47.0796   12.5880   20.5887 H   0  0  0  0  0  0  0  0  0  0  0  0
   47.3107    8.2407   18.3743 H   0  0  0  0  0  0  0  0  0  0  0  0
   49.8398    6.8487   16.6011 H   0  0  0  0  0  0  0  0  0  0  0  0
   48.1135    7.1155   16.6773 H   0  0  0  0  0  0  0  0  0  0  0  0
   49.8746   13.0077   23.1956 H   0  0  0  0  0  0  0  0  0  0  0  0
   47.0151   11.4112   18.1465 H   0  0  0  0  0  0  0  0  0  0  0  0
   48.0594   12.3479   17.0701 H   0  0  0  0  0  0  0  0  0  0  0  0
   46.9702   13.1762   18.1870 H   0  0  0  0  0  0  0  0  0  0  0  0
   49.9921   13.6042   17.8827 H   0  0  0  0  0  0  0  0  0  0  0  0
   49.0297   14.5040   19.0501 H   0  0  0  0  0  0  0  0  0  0  0  0
   50.4773   13.6239   19.5787 H   0  0  0  0  0  0  0  0  0  0  0  0
   50.8300    4.6769   17.4355 H   0  0  0  0  0  0  0  0  0  0  0  0
   46.5546    5.2860   17.2860 H   0  0  0  0  0  0  0  0  0  0  0  0
   50.4657    2.2425   17.6342 H   0  0  0  0  0  0  0  0  0  0  0  0
   46.2107    2.8535   17.4940 H   0  0  0  0  0  0  0  0  0  0  0  0
   48.1602    1.3233   17.6649 H   0  0  0  0  0  0  0  0  0  0  0  0
  2  4  1  0
  3  6  1  0
  4  1  1  0
  5  1  1  0
  6  5  1  0
  7  3  2  0
  8  3  1  0
  9  2  2  0
 10  2  1  0
 11  7  1  0
 12  8  2  0
 13  9  1  0
 14 10  2  0
 15 12  1  0
 16 14  1  0
 13 16  2  0
 11 15  2  0
 18 17  1  0
 19 17  1  0
 20 19  1  0
 21 17  1  0
 18 22  1  0
 23 21  1  0
 20 24  1  0
 21 25  1  0
 26 24  1  0
 27 19  2  0
 28 25  2  0
 29 26  2  0
 30 26  1  0
 31 25  1  0
 32 23  1  0
 33 23  1  0
 34 30  1  0
 35 34  2  0
 36 34  1  0
 37 35  1  0
 38 36  2  0
 39 38  1  0
 22 23  1  0
 18 20  1  0
 37 39  2  0
  1 40  1  0
  4 41  1  0
  4 42  1  0
  5 43  1  0
  5 44  1  0
  6 45  1  0
  6 46  1  0
  7 47  1  0
  8 48  1  0
  9 49  1  0
 10 50  1  0
 11 51  1  0
 12 52  1  0
 13 53  1  0
 14 54  1  0
 15 55  1  0
 16 56  1  0
 18 57  1  1
 20 58  1  1
 21 59  1  6
 24 60  1  0
 30 61  1  0
 30 62  1  0
 31 63  1  0
 32 64  1  0
 32 65  1  0
 32 66  1  0
 33 67  1  0
 33 68  1  0
 33 69  1  0
 35 70  1  0
 36 71  1  0
 37 72  1  0
 38 73  1  0
 39 74  1  0
M  END
> <Uni-Dock RESULT> 
ENERGY=   -5.067  LOWER_BOUND=    1.745  UPPER_BOUND=    2.859
INTER + INTRA:          -5.067
INTER:                  -5.067
INTRA:                   0.000
UNBOUND:                 0.000

$$$$

     RDKit          3D

 74 77  0  0  0  0  0  0  0  0999 V2000
   48.7643    8.1712   17.9069 N   0  0  0  0  0  0  0  0  0  0  0  0
   49.3882    8.4707   15.5092 C   0  0  0  0  0  0  0  0  0  0  0  0
   48.0746    6.3777   20.3332 C   0  0  0  0  0  0  0  0  0  0  0  0
   49.7984    8.5965   16.9578 C   0  0  0  0  0  0  0  0  0  0  0  0
   48.5247    6.7215   17.8478 C   0  0  0  0  0  0  0  0  0  0  0  0
   47.5308    6.2634   18.9280 C   0  0  0  0  0  0  0  0  0  0  0  0
   47.6910    7.4432   21.1583 C   0  0  0  0  0  0  0  0  0  0  0  0
   48.9851    5.4309   20.8227 C   0  0  0  0  0  0  0  0  0  0  0  0
   50.1638    7.7238   14.6106 C   0  0  0  0  0  0  0  0  0  0  0  0
   48.2334    9.1102   15.0357 C   0  0  0  0  0  0  0  0  0  0  0  0
   48.2095    7.5606   22.4481 C   0  0  0  0  0  0  0  0  0  0  0  0
   49.5014    5.5494   22.1138 C   0  0  0  0  0  0  0  0  0  0  0  0
   49.7865    7.6129   13.2706 C   0  0  0  0  0  0  0  0  0  0  0  0
   47.8576    8.9985   13.6963 C   0  0  0  0  0  0  0  0  0  0  0  0
   49.1146    6.6143   22.9249 C   0  0  0  0  0  0  0  0  0  0  0  0
   48.6339    8.2491   12.8144 C   0  0  0  0  0  0  0  0  0  0  0  0
   48.8427    8.4145   20.5943 N   0  0  0  0  0  0  0  0  0  0  0  0
   47.9354    8.2757   19.4434 C   0  0  1  0  0  0  0  0  0  0  0  0
   49.9664    8.4565   19.8204 C   0  0  0  0  0  0  0  0  0  0  0  0
   49.1297    8.6946   18.5408 C   0  0  1  0  0  0  0  0  0  0  0  0
   48.6881    7.4605   21.6891 C   0  0  2  0  0  0  0  0  0  0  0  0
   47.4433    6.5025   19.4396 S   0  0  0  0  0  0  0  0  0  0  0  0
   48.2529    6.1098   21.0637 C   0  0  0  0  0  0  0  0  0  0  0  0
   49.4536    7.8350   17.3721 N   0  0  0  0  0  0  0  0  0  0  0  0
   47.7198    8.0081   22.7433 C   0  0  0  0  0  0  0  0  0  0  0  0
   48.6219    7.8021   16.2746 C   0  0  0  0  0  0  0  0  0  0  0  0
   51.1262    8.2440   20.0848 O   0  0  0  0  0  0  0  0  0  0  0  0
   47.4871    7.4952   23.8301 O   0  0  0  0  0  0  0  0  0  0  0  0
   47.5830    8.4572   16.2262 O   0  0  0  0  0  0  0  0  0  0  0  0
   49.0899    6.9016   15.1464 C   0  0  0  0  0  0  0  0  0  0  0  0
   47.0778    9.1453   22.4002 O   0  0  0  0  0  0  0  0  0  0  0  0
   49.4763    5.2245   20.7672 C   0  0  0  0  0  0  0  0  0  0  0  0
   47.2557    5.2866   21.8886 C   0  0  0  0  0  0  0  0  0  0  0  0
   49.5072    7.6797   13.9230 C   0  0  0  0  0  0  0  0  0  0  0  0
   48.5428    8.1055   12.9971 C   0  0  0  0  0  0  0  0  0  0  0  0
   50.8519    8.0132   13.7063 C   0  0  0  0  0  0  0  0  0  0  0  0
   48.9172    8.8358   11.8681 C   0  0  0  0  0  0  0  0  0  0  0  0
   51.2242    8.7454   12.5762 C   0  0  0  0  0  0  0  0  0  0  0  0
   50.2578    9.1546   11.6570 C   0  0  0  0  0  0  0  0  0  0  0  0
   49.0858    8.4031   18.8477 H   0  0  0  0  0  0  0  0  0  0  0  0
   50.0239    9.6539   17.1440 H   0  0  0  0  0  0  0  0  0  0  0  0
   50.7313    8.0514   17.1503 H   0  0  0  0  0  0  0  0  0  0  0  0
   49.4695    6.1750   17.9600 H   0  0  0  0  0  0  0  0  0  0  0  0
   48.0978    6.4567   16.8736 H   0  0  0  0  0  0  0  0  0  0  0  0
   46.5929    6.8263   18.8389 H   0  0  0  0  0  0  0  0  0  0  0  0
   47.2634    5.2143   18.7469 H   0  0  0  0  0  0  0  0  0  0  0  0
   46.9860    8.1895   20.7976 H   0  0  0  0  0  0  0  0  0  0  0  0
   49.2955    4.5939   20.2010 H   0  0  0  0  0  0  0  0  0  0  0  0
   51.0654    7.2195   14.9498 H   0  0  0  0  0  0  0  0  0  0  0  0
   47.6169    9.6889   15.7208 H   0  0  0  0  0  0  0  0  0  0  0  0
   47.9059    8.3902   23.0807 H   0  0  0  0  0  0  0  0  0  0  0  0
   50.2046    4.8103   22.4890 H   0  0  0  0  0  0  0  0  0  0  0  0
   50.3911    7.0267   12.5830 H   0  0  0  0  0  0  0  0  0  0  0  0
   46.9562    9.4921   13.3452 H   0  0  0  0  0  0  0  0  0  0  0  0
   49.5162    6.7037   23.9306 H   0  0  0  0  0  0  0  0  0  0  0  0
   48.3395    8.1596   11.7723 H   0  0  0  0  0  0  0  0  0  0  0  0
   47.1007    8.9823   19.4665 H   0  0  0  0  0  0  0  0  0  0  0  0
   49.1246    9.7541   18.2538 H   0  0  0  0  0  0  0  0  0  0  0  0
   49.6587    7.3691   22.1927 H   0  0  0  0  0  0  0  0  0  0  0  0
   50.3258    7.3193   17.3545 H   0  0  0  0  0  0  0  0  0  0  0  0
   48.2680    6.2174   14.8990 H   0  0  0  0  0  0  0  0  0  0  0  0
   49.9155    6.2616   15.4828 H   0  0  0  0  0  0  0  0  0  0  0  0
   46.5169    9.3557   23.1758 H   0  0  0  0  0  0  0  0  0  0  0  0
   50.2041    5.7168   20.1129 H   0  0  0  0  0  0  0  0  0  0  0  0
   49.1888    4.2797   20.2868 H   0  0  0  0  0  0  0  0  0  0  0  0
   49.9971    4.9676   21.6986 H   0  0  0  0  0  0  0  0  0  0  0  0
   47.0108    4.3378   21.3942 H   0  0  0  0  0  0  0  0  0  0  0  0
   47.6780    5.0320   22.8679 H   0  0  0  0  0  0  0  0  0  0  0  0
   46.3108    5.8170   22.0533 H   0  0  0  0  0  0  0  0  0  0  0  0
   47.4897    7.8774   13.1577 H   0  0  0  0  0  0  0  0  0  0  0  0
   51.6213    7.7080   14.4122 H   0  0  0  0  0  0  0  0  0  0  0  0
   48.1604    9.1617   11.1579 H   0  0  0  0  0  0  0  0  0  0  0  0
   52.2705    8.9987   12.4143 H   0  0  0  0  0  0  0  0  0  0  0  0
   50.5477    9.7267   10.7794 H   0  0  0  0  0  0  0  0  0  0  0  0
  2  4  1  0
  3  6  1  0
  4  1  1  0
  5  1  1  0
  6  5  1  0
  7  3  2  0
  8  3  1  0
  9  2  2  0
 10  2  1  0
 11  7  1  0
 12  8  2  0
 13  9  1  0
 14 10  2  0
 15 12  1  0
 16 14  1  0
 13 16  2  0
 11 15  2  0
 18 17  1  0
 19 17  1  0
 20 19  1  0
 21 17  1  0
 18 22  1  0
 23 21  1  0
 20 24  1  0
 21 25  1  0
 26 24  1  0
 27 19  2  0
 28 25  2  0
 29 26  2  0
 30 26  1  0
 31 25  1  0
 32 23  1  0
 33 23  1  0
 34 30  1  0
 35 34  2  0
 36 34  1  0
 37 35  1  0
 38 36  2  0
 39 38  1  0
 22 23  1  0
 18 20  1  0
 37 39  2  0
  1 40  1  0
  4 41  1  0
  4 42  1  0
  5 43  1  0
  5 44  1  0
  6 45  1  0
  6 46  1  0
  7 47  1  0
  8 48  1  0
  9 49  1  0
 10 50  1  0
 11 51  1  0
 12 52  1  0
 13 53  1  0
 14 54  1  0
 15 55  1  0
 16 56  1  0
 18 57  1  1
 20 58  1  1
 21 59  1  6
 24 60  1  0
 30 61  1  0
 30 62  1  0
 31 63  1  0
 32 64  1  0
 32 65  1  0
 32 66  1  0
 33 67  1  0
 33 68  1  0
 33 69  1  0
 35 70  1  0
 36 71  1  0
 37 72  1  0
 38 73  1  0
 39 74  1  0
M  END
> <Uni-Dock RESULT> 
ENERGY=   -4.886  LOWER_BOUND=    3.332  UPPER_BOUND=    5.270
INTER + INTRA:          -4.886
INTER:                  -4.886
INTRA:                   0.000
UNBOUND:                 0.000

$$$$
