
     RDKit          3D

 74 77  0  0  0  0  0  0  0  0999 V2000
   48.1660    9.5594   16.3488 N   0  0  0  0  0  0  0  0  0  0  0  0
   48.1634    9.9041   18.7698 C   0  0  0  0  0  0  0  0  0  0  0  0
   50.4453    8.1118   13.6208 C   0  0  0  0  0  0  0  0  0  0  0  0
   48.9971    9.8654   17.5107 C   0  0  0  0  0  0  0  0  0  0  0  0
   48.9364    9.4810   15.1047 C   0  0  0  0  0  0  0  0  0  0  0  0
   49.7193    8.1691   14.9432 C   0  0  0  0  0  0  0  0  0  0  0  0
   49.8085    7.6022   12.4814 C   0  0  0  0  0  0  0  0  0  0  0  0
   51.7554    8.5960   13.5086 C   0  0  0  0  0  0  0  0  0  0  0  0
   47.2429   10.9418   18.9778 C   0  0  0  0  0  0  0  0  0  0  0  0
   48.2837    8.9017   19.7426 C   0  0  0  0  0  0  0  0  0  0  0  0
   50.4741    7.5684   11.2552 C   0  0  0  0  0  0  0  0  0  0  0  0
   52.4191    8.5600   12.2814 C   0  0  0  0  0  0  0  0  0  0  0  0
   46.4677   10.9821   20.1375 C   0  0  0  0  0  0  0  0  0  0  0  0
   47.5078    8.9438   20.9029 C   0  0  0  0  0  0  0  0  0  0  0  0
   51.7793    8.0453   11.1557 C   0  0  0  0  0  0  0  0  0  0  0  0
   46.6014    9.9839   21.1004 C   0  0  0  0  0  0  0  0  0  0  0  0
   50.3968    8.1189   14.2498 N   0  0  0  0  0  0  0  0  0  0  0  0
   49.2292    7.4160   14.8177 C   0  0  1  0  0  0  0  0  0  0  0  0
   50.9838    8.3200   15.4703 C   0  0  0  0  0  0  0  0  0  0  0  0
   49.9539    7.4177   16.1849 C   0  0  1  0  0  0  0  0  0  0  0  0
   50.1488    9.2799   13.3920 C   0  0  2  0  0  0  0  0  0  0  0  0
   47.8437    8.5939   14.5561 S   0  0  0  0  0  0  0  0  0  0  0  0
   48.6497    9.2768   13.0284 C   0  0  0  0  0  0  0  0  0  0  0  0
   49.2435    8.0282   17.3373 N   0  0  0  0  0  0  0  0  0  0  0  0
   51.0600    9.3367   12.1689 C   0  0  0  0  0  0  0  0  0  0  0  0
   48.2676    7.3365   18.0166 C   0  0  0  0  0  0  0  0  0  0  0  0
   51.8773    9.0635   15.8044 O   0  0  0  0  0  0  0  0  0  0  0  0
   51.0837   10.2462   11.3529 O   0  0  0  0  0  0  0  0  0  0  0  0
   47.9370    6.1982   17.6814 O   0  0  0  0  0  0  0  0  0  0  0  0
   47.5683    8.0609   19.1559 C   0  0  0  0  0  0  0  0  0  0  0  0
   51.8585    8.2636   12.0036 O   0  0  0  0  0  0  0  0  0  0  0  0
   48.2903    8.3629   11.8488 C   0  0  0  0  0  0  0  0  0  0  0  0
   48.1121   10.6904   12.7896 C   0  0  0  0  0  0  0  0  0  0  0  0
   48.3564    9.1720   19.8090 C   0  0  0  0  0  0  0  0  0  0  0  0
   48.0678   10.5136   19.5228 C   0  0  0  0  0  0  0  0  0  0  0  0
   49.4079    8.8722   20.6870 C   0  0  0  0  0  0  0  0  0  0  0  0
   48.8181   11.5357   20.1058 C   0  0  0  0  0  0  0  0  0  0  0  0
   50.1557    9.8967   21.2681 C   0  0  0  0  0  0  0  0  0  0  0  0
   49.8606   11.2275   20.9777 C   0  0  0  0  0  0  0  0  0  0  0  0
   47.6669    8.6866   16.5146 H   0  0  0  0  0  0  0  0  0  0  0  0
   49.4837   10.8413   17.3883 H   0  0  0  0  0  0  0  0  0  0  0  0
   49.7953    9.1245   17.6297 H   0  0  0  0  0  0  0  0  0  0  0  0
   48.2218    9.5692   14.2771 H   0  0  0  0  0  0  0  0  0  0  0  0
   49.6028   10.3482   15.0128 H   0  0  0  0  0  0  0  0  0  0  0  0
   50.4483    8.0454   15.7528 H   0  0  0  0  0  0  0  0  0  0  0  0
   49.0381    7.3111   15.0177 H   0  0  0  0  0  0  0  0  0  0  0  0
   48.7880    7.2301   12.5400 H   0  0  0  0  0  0  0  0  0  0  0  0
   52.2676    9.0055   14.3763 H   0  0  0  0  0  0  0  0  0  0  0  0
   47.1246   11.7194   18.2258 H   0  0  0  0  0  0  0  0  0  0  0  0
   48.9825    8.0804   19.6038 H   0  0  0  0  0  0  0  0  0  0  0  0
   49.9729    7.1710   10.3766 H   0  0  0  0  0  0  0  0  0  0  0  0
   53.4360    8.9351   12.2033 H   0  0  0  0  0  0  0  0  0  0  0  0
   45.7573   11.7910   20.2860 H   0  0  0  0  0  0  0  0  0  0  0  0
   47.6083    8.1635   21.6527 H   0  0  0  0  0  0  0  0  0  0  0  0
   52.2974    8.0176   10.2010 H   0  0  0  0  0  0  0  0  0  0  0  0
   45.9970   10.0154   22.0030 H   0  0  0  0  0  0  0  0  0  0  0  0
   49.0818    6.4281   14.3724 H   0  0  0  0  0  0  0  0  0  0  0  0
   50.3919    6.4502   16.4602 H   0  0  0  0  0  0  0  0  0  0  0  0
   50.3939   10.1777   13.9787 H   0  0  0  0  0  0  0  0  0  0  0  0
   49.5140    8.9519   17.6626 H   0  0  0  0  0  0  0  0  0  0  0  0
   47.3221    7.3175   19.9232 H   0  0  0  0  0  0  0  0  0  0  0  0
   46.6168    8.4445   18.7715 H   0  0  0  0  0  0  0  0  0  0  0  0
   52.3900    8.4647   11.2052 H   0  0  0  0  0  0  0  0  0  0  0  0
   47.2052    8.2778   11.7223 H   0  0  0  0  0  0  0  0  0  0  0  0
   48.6955    7.3524   11.9675 H   0  0  0  0  0  0  0  0  0  0  0  0
   48.6859    8.7614   10.9073 H   0  0  0  0  0  0  0  0  0  0  0  0
   48.3219   11.3533   13.6386 H   0  0  0  0  0  0  0  0  0  0  0  0
   48.5738   11.1406   11.9046 H   0  0  0  0  0  0  0  0  0  0  0  0
   47.0275   10.6898   12.6250 H   0  0  0  0  0  0  0  0  0  0  0  0
   47.2572   10.7731   18.8455 H   0  0  0  0  0  0  0  0  0  0  0  0
   49.6526    7.8386   20.9238 H   0  0  0  0  0  0  0  0  0  0  0  0
   48.5879   12.5750   19.8821 H   0  0  0  0  0  0  0  0  0  0  0  0
   50.9683    9.6572   21.9494 H   0  0  0  0  0  0  0  0  0  0  0  0
   50.4420   12.0250   21.4354 H   0  0  0  0  0  0  0  0  0  0  0  0
  2  4  1  0
  3  6  1  0
  4  1  1  0
  5  1  1  0
  6  5  1  0
  7  3  2  0
  8  3  1  0
  9  2  2  0
 10  2  1  0
 11  7  1  0
 12  8  2  0
 13  9  1  0
 14 10  2  0
 15 12  1  0
 16 14  1  0
 13 16  2  0
 11 15  2  0
 18 17  1  0
 19 17  1  0
 20 19  1  0
 21 17  1  0
 18 22  1  0
 23 21  1  0
 20 24  1  0
 21 25  1  0
 26 24  1  0
 27 19  2  0
 28 25  2  0
 29 26  2  0
 30 26  1  0
 31 25  1  0
 32 23  1  0
 33 23  1  0
 34 30  1  0
 35 34  2  0
 36 34  1  0
 37 35  1  0
 38 36  2  0
 39 38  1  0
 22 23  1  0
 18 20  1  0
 37 39  2  0
  1 40  1  0
  4 41  1  0
  4 42  1  0
  5 43  1  0
  5 44  1  0
  6 45  1  0
  6 46  1  0
  7 47  1  0
  8 48  1  0
  9 49  1  0
 10 50  1  0
 11 51  1  0
 12 52  1  0
 13 53  1  0
 14 54  1  0
 15 55  1  0
 16 56  1  0
 18 57  1  6
 20 58  1  1
 21 59  1  1
 24 60  1  0
 30 61  1  0
 30 62  1  0
 31 63  1  0
 32 64  1  0
 32 65  1  0
 32 66  1  0
 33 67  1  0
 33 68  1  0
 33 69  1  0
 35 70  1  0
 36 71  1  0
 37 72  1  0
 38 73  1  0
 39 74  1  0
M  END
> <Uni-Dock RESULT> 
ENERGY=   -4.886  LOWER_BOUND=    0.000  UPPER_BOUND=    0.000
INTER + INTRA:          -4.886
INTER:                  -4.886
INTRA:                   0.000
UNBOUND:                 0.000

$$$$

     RDKit          3D

 74 77  0  0  0  0  0  0  0  0999 V2000
   47.0918    6.8177   13.9350 N   0  0  0  0  0  0  0  0  0  0  0  0
   45.4402    5.6883   12.5289 C   0  0  0  0  0  0  0  0  0  0  0  0
   50.3450    8.8202   13.5615 C   0  0  0  0  0  0  0  0  0  0  0  0
   46.8961    6.0487   12.7082 C   0  0  0  0  0  0  0  0  0  0  0  0
   48.4869    7.2173   14.1379 C   0  0  0  0  0  0  0  0  0  0  0  0
   48.9217    8.4090   13.2714 C   0  0  0  0  0  0  0  0  0  0  0  0
   50.6246    9.7499   14.5720 C   0  0  0  0  0  0  0  0  0  0  0  0
   51.4076    8.2542   12.8449 C   0  0  0  0  0  0  0  0  0  0  0  0
   44.8322    4.7535   13.3796 C   0  0  0  0  0  0  0  0  0  0  0  0
   44.6700    6.2883   11.5227 C   0  0  0  0  0  0  0  0  0  0  0  0
   51.9424   10.1139   14.8525 C   0  0  0  0  0  0  0  0  0  0  0  0
   52.7244    8.6208   13.1267 C   0  0  0  0  0  0  0  0  0  0  0  0
   43.4869    4.4182   13.2211 C   0  0  0  0  0  0  0  0  0  0  0  0
   43.3240    5.9512   11.3648 C   0  0  0  0  0  0  0  0  0  0  0  0
   52.9915    9.5511   14.1290 C   0  0  0  0  0  0  0  0  0  0  0  0
   42.7336    5.0160   12.2128 C   0  0  0  0  0  0  0  0  0  0  0  0
   49.8691    8.6095   13.2049 N   0  0  0  0  0  0  0  0  0  0  0  0
   48.5468    9.2119   13.4666 C   0  0  1  0  0  0  0  0  0  0  0  0
   49.4465    7.9470   12.0836 C   0  0  0  0  0  0  0  0  0  0  0  0
   48.0824    8.6713   12.0930 C   0  0  1  0  0  0  0  0  0  0  0  0
   50.4967    7.8374   14.2797 C   0  0  2  0  0  0  0  0  0  0  0  0
   47.9729    8.3557   14.9875 S   0  0  0  0  0  0  0  0  0  0  0  0
   49.7195    8.1334   15.5789 C   0  0  0  0  0  0  0  0  0  0  0  0
   46.8820    7.7974   12.0698 N   0  0  0  0  0  0  0  0  0  0  0  0
   51.9966    8.0874   14.4108 C   0  0  0  0  0  0  0  0  0  0  0  0
   45.6151    8.3303   12.1281 C   0  0  0  0  0  0  0  0  0  0  0  0
   49.9507    7.0375   11.4661 O   0  0  0  0  0  0  0  0  0  0  0  0
   52.7400    7.5055   15.1869 O   0  0  0  0  0  0  0  0  0  0  0  0
   45.4339    9.5451   12.2209 O   0  0  0  0  0  0  0  0  0  0  0  0
   44.4505    7.3528   12.1405 C   0  0  0  0  0  0  0  0  0  0  0  0
   52.4845    9.0551   13.6096 O   0  0  0  0  0  0  0  0  0  0  0  0
   50.1513    9.4230   16.2903 C   0  0  0  0  0  0  0  0  0  0  0  0
   49.7531    6.9519   16.5521 C   0  0  0  0  0  0  0  0  0  0  0  0
   44.7183    6.0050   11.5130 C   0  0  0  0  0  0  0  0  0  0  0  0
   44.9450    4.8780   12.3153 C   0  0  0  0  0  0  0  0  0  0  0  0
   44.7738    5.8722   10.1182 C   0  0  0  0  0  0  0  0  0  0  0  0
   45.2212    3.6411   11.7311 C   0  0  0  0  0  0  0  0  0  0  0  0
   45.0501    4.6340    9.5377 C   0  0  0  0  0  0  0  0  0  0  0  0
   45.2734    3.5193   10.3439 C   0  0  0  0  0  0  0  0  0  0  0  0
   46.4854    7.6364   13.9172 H   0  0  0  0  0  0  0  0  0  0  0  0
   47.4805    5.1203   12.7398 H   0  0  0  0  0  0  0  0  0  0  0  0
   47.2388    6.6108   11.8325 H   0  0  0  0  0  0  0  0  0  0  0  0
   48.5928    7.4927   15.1944 H   0  0  0  0  0  0  0  0  0  0  0  0
   49.1556    6.3600   13.9879 H   0  0  0  0  0  0  0  0  0  0  0  0
   48.8325    8.1713   12.2046 H   0  0  0  0  0  0  0  0  0  0  0  0
   48.2566    9.2653   13.4455 H   0  0  0  0  0  0  0  0  0  0  0  0
   49.8181   10.1957   15.1498 H   0  0  0  0  0  0  0  0  0  0  0  0
   51.2170    7.5230   12.0626 H   0  0  0  0  0  0  0  0  0  0  0  0
   45.4106    4.2901   14.1763 H   0  0  0  0  0  0  0  0  0  0  0  0
   45.1125    7.0230   10.8544 H   0  0  0  0  0  0  0  0  0  0  0  0
   52.1504   10.8362   15.6375 H   0  0  0  0  0  0  0  0  0  0  0  0
   53.5428    8.1792   12.5645 H   0  0  0  0  0  0  0  0  0  0  0  0
   43.0274    3.6932   13.8876 H   0  0  0  0  0  0  0  0  0  0  0  0
   42.7345    6.4200   10.5813 H   0  0  0  0  0  0  0  0  0  0  0  0
   54.0172    9.8358   14.3472 H   0  0  0  0  0  0  0  0  0  0  0  0
   41.6858    4.7550   12.0902 H   0  0  0  0  0  0  0  0  0  0  0  0
   48.5947   10.3017   13.5439 H   0  0  0  0  0  0  0  0  0  0  0  0
   48.0288    9.4348   11.3068 H   0  0  0  0  0  0  0  0  0  0  0  0
   50.4016    6.7735   14.0161 H   0  0  0  0  0  0  0  0  0  0  0  0
   46.9930    6.7935   11.9596 H   0  0  0  0  0  0  0  0  0  0  0  0
   43.6158    7.8210   11.6056 H   0  0  0  0  0  0  0  0  0  0  0  0
   44.1298    7.2311   13.1810 H   0  0  0  0  0  0  0  0  0  0  0  0
   53.4474    9.0721   13.7914 H   0  0  0  0  0  0  0  0  0  0  0  0
   49.4785    9.6694   17.1194 H   0  0  0  0  0  0  0  0  0  0  0  0
   50.1784   10.2826   15.6122 H   0  0  0  0  0  0  0  0  0  0  0  0
   51.1544    9.3186   16.7202 H   0  0  0  0  0  0  0  0  0  0  0  0
   49.4095    6.0244   16.0766 H   0  0  0  0  0  0  0  0  0  0  0  0
   50.7704    6.7726   16.9153 H   0  0  0  0  0  0  0  0  0  0  0  0
   49.1216    7.1316   17.4309 H   0  0  0  0  0  0  0  0  0  0  0  0
   44.9071    4.9539   13.3998 H   0  0  0  0  0  0  0  0  0  0  0  0
   44.6032    6.7325    9.4738 H   0  0  0  0  0  0  0  0  0  0  0  0
   45.3937    2.7694   12.3587 H   0  0  0  0  0  0  0  0  0  0  0  0
   45.0897    4.5378    8.4555 H   0  0  0  0  0  0  0  0  0  0  0  0
   45.4842    2.5537    9.8892 H   0  0  0  0  0  0  0  0  0  0  0  0
  2  4  1  0
  3  6  1  0
  4  1  1  0
  5  1  1  0
  6  5  1  0
  7  3  2  0
  8  3  1  0
  9  2  2  0
 10  2  1  0
 11  7  1  0
 12  8  2  0
 13  9  1  0
 14 10  2  0
 15 12  1  0
 16 14  1  0
 13 16  2  0
 11 15  2  0
 18 17  1  0
 19 17  1  0
 20 19  1  0
 21 17  1  0
 18 22  1  0
 23 21  1  0
 20 24  1  0
 21 25  1  0
 26 24  1  0
 27 19  2  0
 28 25  2  0
 29 26  2  0
 30 26  1  0
 31 25  1  0
 32 23  1  0
 33 23  1  0
 34 30  1  0
 35 34  2  0
 36 34  1  0
 37 35  1  0
 38 36  2  0
 39 38  1  0
 22 23  1  0
 18 20  1  0
 37 39  2  0
  1 40  1  0
  4 41  1  0
  4 42  1  0
  5 43  1  0
  5 44  1  0
  6 45  1  0
  6 46  1  0
  7 47  1  0
  8 48  1  0
  9 49  1  0
 10 50  1  0
 11 51  1  0
 12 52  1  0
 13 53  1  0
 14 54  1  0
 15 55  1  0
 16 56  1  0
 18 57  1  6
 20 58  1  1
 21 59  1  1
 24 60  1  0
 30 61  1  0
 30 62  1  0
 31 63  1  0
 32 64  1  0
 32 65  1  0
 32 66  1  0
 33 67  1  0
 33 68  1  0
 33 69  1  0
 35 70  1  0
 36 71  1  0
 37 72  1  0
 38 73  1  0
 39 74  1  0
M  END
> <Uni-Dock RESULT> 
ENERGY=   -4.870  LOWER_BOUND=    3.438  UPPER_BOUND=    6.959
INTER + INTRA:          -4.870
INTER:                  -4.870
INTRA:                   0.000
UNBOUND:                 0.000

$$$$

     RDKit          3D

 74 77  0  0  0  0  0  0  0  0999 V2000
   48.9245    9.8901   16.2684 N   0  0  0  0  0  0  0  0  0  0  0  0
   48.3709    8.6733   14.2208 C   0  0  0  0  0  0  0  0  0  0  0  0
   48.7596    9.4061   20.0726 C   0  0  0  0  0  0  0  0  0  0  0  0
   47.9901    8.9484   15.6564 C   0  0  0  0  0  0  0  0  0  0  0  0
   48.6135   10.1660   17.6736 C   0  0  0  0  0  0  0  0  0  0  0  0
   49.0455    9.0477   18.6342 C   0  0  0  0  0  0  0  0  0  0  0  0
   49.7054   10.1075   20.8322 C   0  0  0  0  0  0  0  0  0  0  0  0
   47.5318    9.0691   20.6576 C   0  0  0  0  0  0  0  0  0  0  0  0
   48.2243    9.6709   13.2458 C   0  0  0  0  0  0  0  0  0  0  0  0
   48.8878    7.4267   13.8405 C   0  0  0  0  0  0  0  0  0  0  0  0
   49.4314   10.4557   22.1556 C   0  0  0  0  0  0  0  0  0  0  0  0
   47.2608    9.4175   21.9816 C   0  0  0  0  0  0  0  0  0  0  0  0
   48.5767    9.4242   11.9182 C   0  0  0  0  0  0  0  0  0  0  0  0
   49.2393    7.1811   12.5115 C   0  0  0  0  0  0  0  0  0  0  0  0
   48.2106   10.1092   22.7305 C   0  0  0  0  0  0  0  0  0  0  0  0
   49.0827    8.1789   11.5512 C   0  0  0  0  0  0  0  0  0  0  0  0
   48.7078    9.0654   19.5441 N   0  0  0  0  0  0  0  0  0  0  0  0
   49.9382    8.9251   18.7403 C   0  0  1  0  0  0  0  0  0  0  0  0
   48.0079    8.1554   18.7979 C   0  0  0  0  0  0  0  0  0  0  0  0
   49.2695    7.7342   18.0128 C   0  0  1  0  0  0  0  0  0  0  0  0
   48.1490   10.4083   19.7155 C   0  0  2  0  0  0  0  0  0  0  0  0
   50.0671   10.5323   17.8596 S   0  0  0  0  0  0  0  0  0  0  0  0
   49.2194   11.4189   19.2542 C   0  0  0  0  0  0  0  0  0  0  0  0
   49.1678    7.8036   16.5329 N   0  0  0  0  0  0  0  0  0  0  0  0
   47.6421   10.6791   21.1294 C   0  0  0  0  0  0  0  0  0  0  0  0
   50.2454    7.5023   15.7327 C   0  0  0  0  0  0  0  0  0  0  0  0
   46.8207    7.9344   18.7313 O   0  0  0  0  0  0  0  0  0  0  0  0
   47.0740   11.7001   21.4879 O   0  0  0  0  0  0  0  0  0  0  0  0
   51.3334    7.1846   16.2149 O   0  0  0  0  0  0  0  0  0  0  0  0
   50.0557    7.6427   14.2307 C   0  0  0  0  0  0  0  0  0  0  0  0
   47.8918    9.6997   22.0209 O   0  0  0  0  0  0  0  0  0  0  0  0
   50.2724   11.7507   20.3203 C   0  0  0  0  0  0  0  0  0  0  0  0
   48.5976   12.7045   18.7020 C   0  0  0  0  0  0  0  0  0  0  0  0
   48.6351    7.5130   13.7336 C   0  0  0  0  0  0  0  0  0  0  0  0
   47.9014    8.6503   13.3684 C   0  0  0  0  0  0  0  0  0  0  0  0
   48.0229    6.2535   13.6613 C   0  0  0  0  0  0  0  0  0  0  0  0
   46.5795    8.5280   12.9380 C   0  0  0  0  0  0  0  0  0  0  0  0
   46.7012    6.1351   13.2305 C   0  0  0  0  0  0  0  0  0  0  0  0
   45.9803    7.2717   12.8688 C   0  0  0  0  0  0  0  0  0  0  0  0
   49.8726    9.5278   16.1777 H   0  0  0  0  0  0  0  0  0  0  0  0
   46.9706    9.3543   15.6719 H   0  0  0  0  0  0  0  0  0  0  0  0
   47.9646    8.0033   16.2100 H   0  0  0  0  0  0  0  0  0  0  0  0
   49.1421   11.0879   17.9456 H   0  0  0  0  0  0  0  0  0  0  0  0
   47.5460   10.3922   17.7913 H   0  0  0  0  0  0  0  0  0  0  0  0
   48.5349    8.1070   18.3957 H   0  0  0  0  0  0  0  0  0  0  0  0
   50.1187    8.8451   18.5199 H   0  0  0  0  0  0  0  0  0  0  0  0
   50.6617   10.3900   20.3978 H   0  0  0  0  0  0  0  0  0  0  0  0
   46.7775    8.5335   20.0856 H   0  0  0  0  0  0  0  0  0  0  0  0
   47.8401   10.6496   13.5261 H   0  0  0  0  0  0  0  0  0  0  0  0
   49.0207    6.6377   14.5767 H   0  0  0  0  0  0  0  0  0  0  0  0
   50.1708   10.9992   22.7379 H   0  0  0  0  0  0  0  0  0  0  0  0
   46.3072    9.1501   22.4288 H   0  0  0  0  0  0  0  0  0  0  0  0
   48.4593   10.2060   11.1726 H   0  0  0  0  0  0  0  0  0  0  0  0
   49.6379    6.2115   12.2250 H   0  0  0  0  0  0  0  0  0  0  0  0
   47.9984   10.3797   23.7613 H   0  0  0  0  0  0  0  0  0  0  0  0
   49.3576    7.9875   10.5174 H   0  0  0  0  0  0  0  0  0  0  0  0
   50.8069    8.6661   19.3520 H   0  0  0  0  0  0  0  0  0  0  0  0
   49.6331    6.7510   18.3368 H   0  0  0  0  0  0  0  0  0  0  0  0
   47.2607   10.4773   19.0703 H   0  0  0  0  0  0  0  0  0  0  0  0
   48.2766    8.0288   16.1003 H   0  0  0  0  0  0  0  0  0  0  0  0
   50.6619    6.8698   13.7438 H   0  0  0  0  0  0  0  0  0  0  0  0
   50.4768    8.6089   13.9314 H   0  0  0  0  0  0  0  0  0  0  0  0
   47.4858   10.0097   22.8573 H   0  0  0  0  0  0  0  0  0  0  0  0
   51.0896   12.3512   19.9051 H   0  0  0  0  0  0  0  0  0  0  0  0
   50.7092   10.8512   20.7670 H   0  0  0  0  0  0  0  0  0  0  0  0
   49.8350   12.3373   21.1366 H   0  0  0  0  0  0  0  0  0  0  0  0
   47.8693   12.4949   17.9084 H   0  0  0  0  0  0  0  0  0  0  0  0
   48.0708   13.2540   19.4890 H   0  0  0  0  0  0  0  0  0  0  0  0
   49.3583   13.3785   18.2891 H   0  0  0  0  0  0  0  0  0  0  0  0
   48.3530    9.6388   13.4148 H   0  0  0  0  0  0  0  0  0  0  0  0
   48.5708    5.3558   13.9411 H   0  0  0  0  0  0  0  0  0  0  0  0
   46.0159    9.4138   12.6532 H   0  0  0  0  0  0  0  0  0  0  0  0
   46.2334    5.1553   13.1750 H   0  0  0  0  0  0  0  0  0  0  0  0
   44.9514    7.1767   12.5288 H   0  0  0  0  0  0  0  0  0  0  0  0
  2  4  1  0
  3  6  1  0
  4  1  1  0
  5  1  1  0
  6  5  1  0
  7  3  2  0
  8  3  1  0
  9  2  2  0
 10  2  1  0
 11  7  1  0
 12  8  2  0
 13  9  1  0
 14 10  2  0
 15 12  1  0
 16 14  1  0
 13 16  2  0
 11 15  2  0
 18 17  1  0
 19 17  1  0
 20 19  1  0
 21 17  1  0
 18 22  1  0
 23 21  1  0
 20 24  1  0
 21 25  1  0
 26 24  1  0
 27 19  2  0
 28 25  2  0
 29 26  2  0
 30 26  1  0
 31 25  1  0
 32 23  1  0
 33 23  1  0
 34 30  1  0
 35 34  2  0
 36 34  1  0
 37 35  1  0
 38 36  2  0
 39 38  1  0
 22 23  1  0
 18 20  1  0
 37 39  2  0
  1 40  1  0
  4 41  1  0
  4 42  1  0
  5 43  1  0
  5 44  1  0
  6 45  1  0
  6 46  1  0
  7 47  1  0
  8 48  1  0
  9 49  1  0
 10 50  1  0
 11 51  1  0
 12 52  1  0
 13 53  1  0
 14 54  1  0
 15 55  1  0
 16 56  1  0
 18 57  1  6
 20 58  1  1
 21 59  1  1
 24 60  1  0
 30 61  1  0
 30 62  1  0
 31 63  1  0
 32 64  1  0
 32 65  1  0
 32 66  1  0
 33 67  1  0
 33 68  1  0
 33 69  1  0
 35 70  1  0
 36 71  1  0
 37 72  1  0
 38 73  1  0
 39 74  1  0
M  END
> <Uni-Dock RESULT> 
ENERGY=   -4.829  LOWER_BOUND=    2.098  UPPER_BOUND=    7.322
INTER + INTRA:          -4.829
INTER:                  -4.829
INTRA:                   0.000
UNBOUND:                 0.000

$$$$

     RDKit          3D

 74 77  0  0  0  0  0  0  0  0999 V2000
   48.8302    8.7746   16.9653 N   0  0  0  0  0  0  0  0  0  0  0  0
   48.3956    8.4795   14.5770 C   0  0  0  0  0  0  0  0  0  0  0  0
   48.8488    6.7004   20.1949 C   0  0  0  0  0  0  0  0  0  0  0  0
   48.0221    8.0607   15.9794 C   0  0  0  0  0  0  0  0  0  0  0  0
   48.5247    8.3794   18.3429 C   0  0  0  0  0  0  0  0  0  0  0  0
   49.1403    7.0324   18.7513 C   0  0  0  0  0  0  0  0  0  0  0  0
   49.7069    7.1383   21.2125 C   0  0  0  0  0  0  0  0  0  0  0  0
   47.6997    5.9762   20.5388 C   0  0  0  0  0  0  0  0  0  0  0  0
   48.0792    9.7651   14.1140 C   0  0  0  0  0  0  0  0  0  0  0  0
   49.0737    7.6003   13.7209 C   0  0  0  0  0  0  0  0  0  0  0  0
   49.4253    6.8477   22.5482 C   0  0  0  0  0  0  0  0  0  0  0  0
   47.4211    5.6860   21.8751 C   0  0  0  0  0  0  0  0  0  0  0  0
   48.4238   10.1593   12.8205 C   0  0  0  0  0  0  0  0  0  0  0  0
   49.4172    7.9960   12.4264 C   0  0  0  0  0  0  0  0  0  0  0  0
   48.2841    6.1204   22.8791 C   0  0  0  0  0  0  0  0  0  0  0  0
   49.0913    9.2741   11.9765 C   0  0  0  0  0  0  0  0  0  0  0  0
   48.8307    6.6133   19.5703 N   0  0  0  0  0  0  0  0  0  0  0  0
   50.0441    7.0043   18.8258 C   0  0  1  0  0  0  0  0  0  0  0  0
   48.2461    6.0180   18.4846 C   0  0  0  0  0  0  0  0  0  0  0  0
   49.5311    6.1544   17.6386 C   0  0  1  0  0  0  0  0  0  0  0  0
   48.0911    7.6615   20.2770 C   0  0  2  0  0  0  0  0  0  0  0  0
   49.9160    8.8338   18.7167 S   0  0  0  0  0  0  0  0  0  0  0  0
   48.9920    8.9128   20.3259 C   0  0  0  0  0  0  0  0  0  0  0  0
   49.3768    6.8316   16.3261 N   0  0  0  0  0  0  0  0  0  0  0  0
   47.5928    7.2302   21.6536 C   0  0  0  0  0  0  0  0  0  0  0  0
   50.4621    7.0555   15.5111 C   0  0  0  0  0  0  0  0  0  0  0  0
   47.1012    5.6805   18.2897 O   0  0  0  0  0  0  0  0  0  0  0  0
   46.8956    7.9097   22.3924 O   0  0  0  0  0  0  0  0  0  0  0  0
   51.5982    6.7206   15.8495 O   0  0  0  0  0  0  0  0  0  0  0  0
   50.2099    7.7930   14.2056 C   0  0  0  0  0  0  0  0  0  0  0  0
   48.0062    6.0110   22.0523 O   0  0  0  0  0  0  0  0  0  0  0  0
   50.0180    8.9052   21.4674 C   0  0  0  0  0  0  0  0  0  0  0  0
   48.1769   10.2087   20.3515 C   0  0  0  0  0  0  0  0  0  0  0  0
   48.8083    7.6871   13.6522 C   0  0  0  0  0  0  0  0  0  0  0  0
   47.9092    8.7550   13.7801 C   0  0  0  0  0  0  0  0  0  0  0  0
   48.3804    6.5052   13.0305 C   0  0  0  0  0  0  0  0  0  0  0  0
   46.6062    8.6413   13.2935 C   0  0  0  0  0  0  0  0  0  0  0  0
   47.0770    6.3953   12.5452 C   0  0  0  0  0  0  0  0  0  0  0  0
   46.1908    7.4628   12.6764 C   0  0  0  0  0  0  0  0  0  0  0  0
   49.8172    8.6238   16.7617 H   0  0  0  0  0  0  0  0  0  0  0  0
   46.9561    8.2724   16.1310 H   0  0  0  0  0  0  0  0  0  0  0  0
   48.1484    6.9768   16.0776 H   0  0  0  0  0  0  0  0  0  0  0  0
   48.9240    9.1626   18.9989 H   0  0  0  0  0  0  0  0  0  0  0  0
   47.4398    8.3801   18.5089 H   0  0  0  0  0  0  0  0  0  0  0  0
   48.7625    6.2207   18.1183 H   0  0  0  0  0  0  0  0  0  0  0  0
   50.2275    7.0521   18.5986 H   0  0  0  0  0  0  0  0  0  0  0  0
   50.5998    7.7112   20.9725 H   0  0  0  0  0  0  0  0  0  0  0  0
   47.0130    5.6338   19.7679 H   0  0  0  0  0  0  0  0  0  0  0  0
   47.5676   10.4662   14.7704 H   0  0  0  0  0  0  0  0  0  0  0  0
   49.3398    6.6008   14.0560 H   0  0  0  0  0  0  0  0  0  0  0  0
   50.0964    7.1907   23.3312 H   0  0  0  0  0  0  0  0  0  0  0  0
   46.5291    5.1215   22.1333 H   0  0  0  0  0  0  0  0  0  0  0  0
   48.1739   11.1587   12.4743 H   0  0  0  0  0  0  0  0  0  0  0  0
   49.9416    7.3077   11.7688 H   0  0  0  0  0  0  0  0  0  0  0  0
   48.0661    5.8935   23.9192 H   0  0  0  0  0  0  0  0  0  0  0  0
   49.3600    9.5817   10.9695 H   0  0  0  0  0  0  0  0  0  0  0  0
   50.9586    6.6358   19.2987 H   0  0  0  0  0  0  0  0  0  0  0  0
   50.0409    5.1894   17.5262 H   0  0  0  0  0  0  0  0  0  0  0  0
   47.1833    7.8717   19.6922 H   0  0  0  0  0  0  0  0  0  0  0  0
   48.4500    7.0906   15.9999 H   0  0  0  0  0  0  0  0  0  0  0  0
   50.9056    7.3952   13.4575 H   0  0  0  0  0  0  0  0  0  0  0  0
   50.4796    8.8437   14.3601 H   0  0  0  0  0  0  0  0  0  0  0  0
   47.5851    5.8747   22.9266 H   0  0  0  0  0  0  0  0  0  0  0  0
   50.7283    9.7344   21.3750 H   0  0  0  0  0  0  0  0  0  0  0  0
   50.5918    7.9731   21.5041 H   0  0  0  0  0  0  0  0  0  0  0  0
   49.5256    9.0203   22.4401 H   0  0  0  0  0  0  0  0  0  0  0  0
   47.4628   10.2556   19.5196 H   0  0  0  0  0  0  0  0  0  0  0  0
   47.6005   10.2904   21.2789 H   0  0  0  0  0  0  0  0  0  0  0  0
   48.8209   11.0946   20.2906 H   0  0  0  0  0  0  0  0  0  0  0  0
   48.2161    9.6828   14.2577 H   0  0  0  0  0  0  0  0  0  0  0  0
   49.0589    5.6615   12.9208 H   0  0  0  0  0  0  0  0  0  0  0  0
   45.9136    9.4742   13.3931 H   0  0  0  0  0  0  0  0  0  0  0  0
   46.7525    5.4767   12.0625 H   0  0  0  0  0  0  0  0  0  0  0  0
   45.1763    7.3767   12.2932 H   0  0  0  0  0  0  0  0  0  0  0  0
  2  4  1  0
  3  6  1  0
  4  1  1  0
  5  1  1  0
  6  5  1  0
  7  3  2  0
  8  3  1  0
  9  2  2  0
 10  2  1  0
 11  7  1  0
 12  8  2  0
 13  9  1  0
 14 10  2  0
 15 12  1  0
 16 14  1  0
 13 16  2  0
 11 15  2  0
 18 17  1  0
 19 17  1  0
 20 19  1  0
 21 17  1  0
 18 22  1  0
 23 21  1  0
 20 24  1  0
 21 25  1  0
 26 24  1  0
 27 19  2  0
 28 25  2  0
 29 26  2  0
 30 26  1  0
 31 25  1  0
 32 23  1  0
 33 23  1  0
 34 30  1  0
 35 34  2  0
 36 34  1  0
 37 35  1  0
 38 36  2  0
 39 38  1  0
 22 23  1  0
 18 20  1  0
 37 39  2  0
  1 40  1  0
  4 41  1  0
  4 42  1  0
  5 43  1  0
  5 44  1  0
  6 45  1  0
  6 46  1  0
  7 47  1  0
  8 48  1  0
  9 49  1  0
 10 50  1  0
 11 51  1  0
 12 52  1  0
 13 53  1  0
 14 54  1  0
 15 55  1  0
 16 56  1  0
 18 57  1  6
 20 58  1  1
 21 59  1  1
 24 60  1  0
 30 61  1  0
 30 62  1  0
 31 63  1  0
 32 64  1  0
 32 65  1  0
 32 66  1  0
 33 67  1  0
 33 68  1  0
 33 69  1  0
 35 70  1  0
 36 71  1  0
 37 72  1  0
 38 73  1  0
 39 74  1  0
M  END
> <Uni-Dock RESULT> 
ENERGY=   -4.750  LOWER_BOUND=    2.168  UPPER_BOUND=    7.473
INTER + INTRA:          -4.750
INTER:                  -4.750
INTRA:                   0.000
UNBOUND:                 0.000

$$$$

     RDKit          3D

 74 77  0  0  0  0  0  0  0  0999 V2000
   47.8482    9.6546   20.9953 N   0  0  0  0  0  0  0  0  0  0  0  0
   48.3309    7.6208   22.2646 C   0  0  0  0  0  0  0  0  0  0  0  0
   49.2505   11.6214   18.0124 C   0  0  0  0  0  0  0  0  0  0  0  0
   48.9103    8.7865   21.4984 C   0  0  0  0  0  0  0  0  0  0  0  0
   48.3605   10.7861   20.2178 C   0  0  0  0  0  0  0  0  0  0  0  0
   48.7893   10.4128   18.7906 C   0  0  0  0  0  0  0  0  0  0  0  0
   48.3328   12.3928   17.2869 C   0  0  0  0  0  0  0  0  0  0  0  0
   50.5979   12.0056   18.0305 C   0  0  0  0  0  0  0  0  0  0  0  0
   47.7163    7.8265   23.5085 C   0  0  0  0  0  0  0  0  0  0  0  0
   48.3844    6.3203   21.7436 C   0  0  0  0  0  0  0  0  0  0  0  0
   48.7576   13.5214   16.5844 C   0  0  0  0  0  0  0  0  0  0  0  0
   51.0202   13.1340   17.3261 C   0  0  0  0  0  0  0  0  0  0  0  0
   47.1766    6.7544   24.2203 C   0  0  0  0  0  0  0  0  0  0  0  0
   47.8446    5.2483   22.4574 C   0  0  0  0  0  0  0  0  0  0  0  0
   50.1008   13.8907   16.6024 C   0  0  0  0  0  0  0  0  0  0  0  0
   47.2423    5.4654   23.6953 C   0  0  0  0  0  0  0  0  0  0  0  0
   49.3114   11.0549   18.2832 N   0  0  0  0  0  0  0  0  0  0  0  0
   48.1282   10.1742   18.2168 C   0  0  1  0  0  0  0  0  0  0  0  0
   50.1255   10.0750   18.7851 C   0  0  0  0  0  0  0  0  0  0  0  0
   49.0543    8.9843   18.5651 C   0  0  1  0  0  0  0  0  0  0  0  0
   49.1905   12.3125   19.0241 C   0  0  2  0  0  0  0  0  0  0  0  0
   47.0198   10.8368   19.5236 S   0  0  0  0  0  0  0  0  0  0  0  0
   47.6899   12.5530   19.2887 C   0  0  0  0  0  0  0  0  0  0  0  0
   48.7040    8.1675   19.7547 N   0  0  0  0  0  0  0  0  0  0  0  0
   49.8717   13.4913   18.3344 C   0  0  0  0  0  0  0  0  0  0  0  0
   47.7260    7.2022   19.6898 C   0  0  0  0  0  0  0  0  0  0  0  0
   51.2067   10.1446   19.3228 O   0  0  0  0  0  0  0  0  0  0  0  0
   49.9620   14.6188   18.7972 O   0  0  0  0  0  0  0  0  0  0  0  0
   47.0961    6.9963   18.6515 O   0  0  0  0  0  0  0  0  0  0  0  0
   47.4099    6.4467   20.9708 C   0  0  0  0  0  0  0  0  0  0  0  0
   50.3686   13.2249   17.1102 O   0  0  0  0  0  0  0  0  0  0  0  0
   46.9407   13.2027   18.1173 C   0  0  0  0  0  0  0  0  0  0  0  0
   47.4520   13.3448   20.5774 C   0  0  0  0  0  0  0  0  0  0  0  0
   48.5262    6.3808   21.9864 C   0  0  0  0  0  0  0  0  0  0  0  0
   48.5032    7.1987   23.1247 C   0  0  0  0  0  0  0  0  0  0  0  0
   49.6156    5.5210   21.7856 C   0  0  0  0  0  0  0  0  0  0  0  0
   49.5515    7.1554   24.0448 C   0  0  0  0  0  0  0  0  0  0  0  0
   50.6617    5.4803   22.7078 C   0  0  0  0  0  0  0  0  0  0  0  0
   50.6293    6.2969   23.8367 C   0  0  0  0  0  0  0  0  0  0  0  0
   47.2007    9.1015   20.4357 H   0  0  0  0  0  0  0  0  0  0  0  0
   49.5765    9.3441   22.1689 H   0  0  0  0  0  0  0  0  0  0  0  0
   49.5296    8.4066   20.6783 H   0  0  0  0  0  0  0  0  0  0  0  0
   47.5553   11.5288   20.1610 H   0  0  0  0  0  0  0  0  0  0  0  0
   49.1799   11.2797   20.7560 H   0  0  0  0  0  0  0  0  0  0  0  0
   49.5974    9.6718   18.8052 H   0  0  0  0  0  0  0  0  0  0  0  0
   47.9550    9.9379   18.2576 H   0  0  0  0  0  0  0  0  0  0  0  0
   47.2796   12.1216   17.2658 H   0  0  0  0  0  0  0  0  0  0  0  0
   51.3277   11.4290   18.5942 H   0  0  0  0  0  0  0  0  0  0  0  0
   47.6512    8.8315   23.9206 H   0  0  0  0  0  0  0  0  0  0  0  0
   48.8468    6.1325   20.7776 H   0  0  0  0  0  0  0  0  0  0  0  0
   48.0392   14.1137   16.0238 H   0  0  0  0  0  0  0  0  0  0  0  0
   52.0674   13.4238   17.3430 H   0  0  0  0  0  0  0  0  0  0  0  0
   46.7020    6.9274   25.1825 H   0  0  0  0  0  0  0  0  0  0  0  0
   47.8916    4.2432   22.0469 H   0  0  0  0  0  0  0  0  0  0  0  0
   50.4310   14.7688   16.0543 H   0  0  0  0  0  0  0  0  0  0  0  0
   46.8213    4.6310   24.2497 H   0  0  0  0  0  0  0  0  0  0  0  0
   47.6895   10.1426   17.2156 H   0  0  0  0  0  0  0  0  0  0  0  0
   49.3031    8.3456   17.7083 H   0  0  0  0  0  0  0  0  0  0  0  0
   49.7265   12.1837   19.9761 H   0  0  0  0  0  0  0  0  0  0  0  0
   49.2263    8.2868   20.6179 H   0  0  0  0  0  0  0  0  0  0  0  0
   47.1354    5.4218   20.6950 H   0  0  0  0  0  0  0  0  0  0  0  0
   46.5183    6.9035   21.4146 H   0  0  0  0  0  0  0  0  0  0  0  0
   50.7896   14.0612   16.8208 H   0  0  0  0  0  0  0  0  0  0  0  0
   45.8589   13.2180   18.2910 H   0  0  0  0  0  0  0  0  0  0  0  0
   47.1220   12.6848   17.1695 H   0  0  0  0  0  0  0  0  0  0  0  0
   47.2515   14.2451   17.9808 H   0  0  0  0  0  0  0  0  0  0  0  0
   47.9455   12.8766   21.4385 H   0  0  0  0  0  0  0  0  0  0  0  0
   47.8475   14.3622   20.4905 H   0  0  0  0  0  0  0  0  0  0  0  0
   46.3834   13.4308   20.8097 H   0  0  0  0  0  0  0  0  0  0  0  0
   47.6696    7.8740   23.3042 H   0  0  0  0  0  0  0  0  0  0  0  0
   49.6577    4.8775   20.9089 H   0  0  0  0  0  0  0  0  0  0  0  0
   49.5269    7.7904   24.9277 H   0  0  0  0  0  0  0  0  0  0  0  0
   51.5024    4.8099   22.5468 H   0  0  0  0  0  0  0  0  0  0  0  0
   51.4439    6.2604   24.5569 H   0  0  0  0  0  0  0  0  0  0  0  0
  2  4  1  0
  3  6  1  0
  4  1  1  0
  5  1  1  0
  6  5  1  0
  7  3  2  0
  8  3  1  0
  9  2  2  0
 10  2  1  0
 11  7  1  0
 12  8  2  0
 13  9  1  0
 14 10  2  0
 15 12  1  0
 16 14  1  0
 13 16  2  0
 11 15  2  0
 18 17  1  0
 19 17  1  0
 20 19  1  0
 21 17  1  0
 18 22  1  0
 23 21  1  0
 20 24  1  0
 21 25  1  0
 26 24  1  0
 27 19  2  0
 28 25  2  0
 29 26  2  0
 30 26  1  0
 31 25  1  0
 32 23  1  0
 33 23  1  0
 34 30  1  0
 35 34  2  0
 36 34  1  0
 37 35  1  0
 38 36  2  0
 39 38  1  0
 22 23  1  0
 18 20  1  0
 37 39  2  0
  1 40  1  0
  4 41  1  0
  4 42  1  0
  5 43  1  0
  5 44  1  0
  6 45  1  0
  6 46  1  0
  7 47  1  0
  8 48  1  0
  9 49  1  0
 10 50  1  0
 11 51  1  0
 12 52  1  0
 13 53  1  0
 14 54  1  0
 15 55  1  0
 16 56  1  0
 18 57  1  6
 20 58  1  1
 21 59  1  1
 24 60  1  0
 30 61  1  0
 30 62  1  0
 31 63  1  0
 32 64  1  0
 32 65  1  0
 32 66  1  0
 33 67  1  0
 33 68  1  0
 33 69  1  0
 35 70  1  0
 36 71  1  0
 37 72  1  0
 38 73  1  0
 39 74  1  0
M  END
> <Uni-Dock RESULT> 
ENERGY=   -4.668  LOWER_BOUND=    4.261  UPPER_BOUND=    5.555
INTER + INTRA:          -4.668
INTER:                  -4.668
INTRA:                   0.000
UNBOUND:                 0.000

$$$$

     RDKit          3D

 74 77  0  0  0  0  0  0  0  0999 V2000
   48.9242    6.3264   15.9952 N   0  0  0  0  0  0  0  0  0  0  0  0
   48.7147    7.6647   13.9592 C   0  0  0  0  0  0  0  0  0  0  0  0
   51.1150    6.1438   19.1416 C   0  0  0  0  0  0  0  0  0  0  0  0
   49.6599    7.0769   14.9803 C   0  0  0  0  0  0  0  0  0  0  0  0
   49.7974    5.7608   17.0271 C   0  0  0  0  0  0  0  0  0  0  0  0
   50.2705    6.7868   18.0681 C   0  0  0  0  0  0  0  0  0  0  0  0
   50.5172    5.6019   20.2873 C   0  0  0  0  0  0  0  0  0  0  0  0
   52.5051    6.0529   18.9919 C   0  0  0  0  0  0  0  0  0  0  0  0
   48.0401    6.8303   13.0559 C   0  0  0  0  0  0  0  0  0  0  0  0
   48.4848    9.0467   13.9044 C   0  0  0  0  0  0  0  0  0  0  0  0
   51.2974    4.9899   21.2694 C   0  0  0  0  0  0  0  0  0  0  0  0
   53.2832    5.4414   19.9761 C   0  0  0  0  0  0  0  0  0  0  0  0
   47.1634    7.3666   12.1119 C   0  0  0  0  0  0  0  0  0  0  0  0
   47.6078    9.5820   12.9587 C   0  0  0  0  0  0  0  0  0  0  0  0
   52.6798    4.9114   21.1147 C   0  0  0  0  0  0  0  0  0  0  0  0
   46.9487    8.7425   12.0625 C   0  0  0  0  0  0  0  0  0  0  0  0
   50.9953    6.5383   18.6641 N   0  0  0  0  0  0  0  0  0  0  0  0
   49.6384    7.1191   18.6278 C   0  0  1  0  0  0  0  0  0  0  0  0
   51.4642    7.3408   17.6586 C   0  0  0  0  0  0  0  0  0  0  0  0
   50.1770    8.1944   17.6539 C   0  0  1  0  0  0  0  0  0  0  0  0
   51.1248    5.0866   18.5196 C   0  0  2  0  0  0  0  0  0  0  0  0
   48.6026    5.7608   17.9513 S   0  0  0  0  0  0  0  0  0  0  0  0
   49.7191    4.4755   18.6935 C   0  0  0  0  0  0  0  0  0  0  0  0
   49.4952    8.3354   16.3422 N   0  0  0  0  0  0  0  0  0  0  0  0
   52.1626    4.4735   19.4557 C   0  0  0  0  0  0  0  0  0  0  0  0
   48.3128    9.0292   16.2280 C   0  0  0  0  0  0  0  0  0  0  0  0
   52.4591    7.2529   16.9765 O   0  0  0  0  0  0  0  0  0  0  0  0
   52.4917    3.2965   19.4645 O   0  0  0  0  0  0  0  0  0  0  0  0
   47.7709    9.5389   17.2098 O   0  0  0  0  0  0  0  0  0  0  0  0
   47.6695    9.0833   14.8515 C   0  0  0  0  0  0  0  0  0  0  0  0
   52.7062    5.3306   20.3425 O   0  0  0  0  0  0  0  0  0  0  0  0
   49.3010    4.2651   20.1552 C   0  0  0  0  0  0  0  0  0  0  0  0
   49.5538    3.1762   17.9004 C   0  0  0  0  0  0  0  0  0  0  0  0
   48.6094    8.9156   13.6808 C   0  0  0  0  0  0  0  0  0  0  0  0
   48.6737    7.6990   12.9873 C   0  0  0  0  0  0  0  0  0  0  0  0
   49.4521    9.9674   13.2935 C   0  0  0  0  0  0  0  0  0  0  0  0
   49.5649    7.5395   11.9253 C   0  0  0  0  0  0  0  0  0  0  0  0
   50.3417    9.8043   12.2312 C   0  0  0  0  0  0  0  0  0  0  0  0
   50.3977    8.5911   11.5475 C   0  0  0  0  0  0  0  0  0  0  0  0
   48.2214    6.9326   16.4160 H   0  0  0  0  0  0  0  0  0  0  0  0
   50.3694    6.4224   14.4581 H   0  0  0  0  0  0  0  0  0  0  0  0
   50.2462    7.8831   15.4349 H   0  0  0  0  0  0  0  0  0  0  0  0
   49.2255    4.9772   17.5392 H   0  0  0  0  0  0  0  0  0  0  0  0
   50.6518    5.2489   16.5660 H   0  0  0  0  0  0  0  0  0  0  0  0
   50.8503    7.5875   17.5939 H   0  0  0  0  0  0  0  0  0  0  0  0
   49.4060    7.2771   18.5351 H   0  0  0  0  0  0  0  0  0  0  0  0
   49.4389    5.6503   20.4221 H   0  0  0  0  0  0  0  0  0  0  0  0
   52.9916    6.4570   18.1071 H   0  0  0  0  0  0  0  0  0  0  0  0
   48.1940    5.7538   13.0948 H   0  0  0  0  0  0  0  0  0  0  0  0
   48.9870    9.7166   14.5981 H   0  0  0  0  0  0  0  0  0  0  0  0
   50.8257    4.5728   22.1552 H   0  0  0  0  0  0  0  0  0  0  0  0
   54.3610    5.3773   19.8537 H   0  0  0  0  0  0  0  0  0  0  0  0
   46.6461    6.7091   11.4183 H   0  0  0  0  0  0  0  0  0  0  0  0
   47.4364   10.6546   12.9221 H   0  0  0  0  0  0  0  0  0  0  0  0
   53.2867    4.4358   21.8803 H   0  0  0  0  0  0  0  0  0  0  0  0
   46.2654    9.1596   11.3277 H   0  0  0  0  0  0  0  0  0  0  0  0
   49.3211    7.4953   19.6043 H   0  0  0  0  0  0  0  0  0  0  0  0
   50.3446    9.1744   18.1179 H   0  0  0  0  0  0  0  0  0  0  0  0
   51.4989    4.8916   17.5036 H   0  0  0  0  0  0  0  0  0  0  0  0
   49.9308    7.9572   15.5059 H   0  0  0  0  0  0  0  0  0  0  0  0
   47.1697   10.0542   14.7543 H   0  0  0  0  0  0  0  0  0  0  0  0
   46.8843    8.3198   14.8214 H   0  0  0  0  0  0  0  0  0  0  0  0
   53.3604    4.7976   20.8408 H   0  0  0  0  0  0  0  0  0  0  0  0
   48.2483    3.9714   20.2339 H   0  0  0  0  0  0  0  0  0  0  0  0
   49.4455    5.1651   20.7624 H   0  0  0  0  0  0  0  0  0  0  0  0
   49.8863    3.4636   20.6207 H   0  0  0  0  0  0  0  0  0  0  0  0
   49.8088    3.3117   16.8416 H   0  0  0  0  0  0  0  0  0  0  0  0
   50.2082    2.3914   18.2938 H   0  0  0  0  0  0  0  0  0  0  0  0
   48.5256    2.7974   17.9515 H   0  0  0  0  0  0  0  0  0  0  0  0
   48.0306    6.8676   13.2673 H   0  0  0  0  0  0  0  0  0  0  0  0
   49.4223   10.9210   13.8172 H   0  0  0  0  0  0  0  0  0  0  0  0
   49.6086    6.5940   11.3891 H   0  0  0  0  0  0  0  0  0  0  0  0
   50.9908   10.6246   11.9351 H   0  0  0  0  0  0  0  0  0  0  0  0
   51.0888    8.4674   10.7166 H   0  0  0  0  0  0  0  0  0  0  0  0
  2  4  1  0
  3  6  1  0
  4  1  1  0
  5  1  1  0
  6  5  1  0
  7  3  2  0
  8  3  1  0
  9  2  2  0
 10  2  1  0
 11  7  1  0
 12  8  2  0
 13  9  1  0
 14 10  2  0
 15 12  1  0
 16 14  1  0
 13 16  2  0
 11 15  2  0
 18 17  1  0
 19 17  1  0
 20 19  1  0
 21 17  1  0
 18 22  1  0
 23 21  1  0
 20 24  1  0
 21 25  1  0
 26 24  1  0
 27 19  2  0
 28 25  2  0
 29 26  2  0
 30 26  1  0
 31 25  1  0
 32 23  1  0
 33 23  1  0
 34 30  1  0
 35 34  2  0
 36 34  1  0
 37 35  1  0
 38 36  2  0
 39 38  1  0
 22 23  1  0
 18 20  1  0
 37 39  2  0
  1 40  1  0
  4 41  1  0
  4 42  1  0
  5 43  1  0
  5 44  1  0
  6 45  1  0
  6 46  1  0
  7 47  1  0
  8 48  1  0
  9 49  1  0
 10 50  1  0
 11 51  1  0
 12 52  1  0
 13 53  1  0
 14 54  1  0
 15 55  1  0
 16 56  1  0
 18 57  1  6
 20 58  1  1
 21 59  1  1
 24 60  1  0
 30 61  1  0
 30 62  1  0
 31 63  1  0
 32 64  1  0
 32 65  1  0
 32 66  1  0
 33 67  1  0
 33 68  1  0
 33 69  1  0
 35 70  1  0
 36 71  1  0
 37 72  1  0
 38 73  1  0
 39 74  1  0
M  END
> <Uni-Dock RESULT> 
ENERGY=   -4.451  LOWER_BOUND=    2.968  UPPER_BOUND=    6.945
INTER + INTRA:          -4.451
INTER:                  -4.451
INTRA:                   0.000
UNBOUND:                 0.000

$$$$

     RDKit          3D

 74 77  0  0  0  0  0  0  0  0999 V2000
   41.8725   11.9864    8.7658 N   0  0  0  0  0  0  0  0  0  0  0  0
   39.9840   11.8065   10.3089 C   0  0  0  0  0  0  0  0  0  0  0  0
   45.5589   13.0554    8.7948 C   0  0  0  0  0  0  0  0  0  0  0  0
   41.2246   12.5816    9.9322 C   0  0  0  0  0  0  0  0  0  0  0  0
   43.1001   12.6871    8.3793 C   0  0  0  0  0  0  0  0  0  0  0  0
   44.3074   12.3579    9.2705 C   0  0  0  0  0  0  0  0  0  0  0  0
   46.3908   12.4521    7.8422 C   0  0  0  0  0  0  0  0  0  0  0  0
   45.8886   14.3291    9.2767 C   0  0  0  0  0  0  0  0  0  0  0  0
   38.8497   11.8417    9.4846 C   0  0  0  0  0  0  0  0  0  0  0  0
   39.9478   11.0310   11.4764 C   0  0  0  0  0  0  0  0  0  0  0  0
   47.5367   13.1069    7.3885 C   0  0  0  0  0  0  0  0  0  0  0  0
   47.0358   14.9812    8.8222 C   0  0  0  0  0  0  0  0  0  0  0  0
   37.7013   11.1258    9.8253 C   0  0  0  0  0  0  0  0  0  0  0  0
   38.7976   10.3158   11.8164 C   0  0  0  0  0  0  0  0  0  0  0  0
   47.8600   14.3699    7.8797 C   0  0  0  0  0  0  0  0  0  0  0  0
   37.6750   10.3644   10.9920 C   0  0  0  0  0  0  0  0  0  0  0  0
   45.0972   12.9180    9.2022 N   0  0  0  0  0  0  0  0  0  0  0  0
   44.6378   11.5149    9.2124 C   0  0  1  0  0  0  0  0  0  0  0  0
   44.3703   13.2593   10.3113 C   0  0  0  0  0  0  0  0  0  0  0  0
   43.9829   11.7899   10.5872 C   0  0  1  0  0  0  0  0  0  0  0  0
   44.9075   13.6938    7.9745 C   0  0  2  0  0  0  0  0  0  0  0  0
   43.5568   11.4013    7.7312 S   0  0  0  0  0  0  0  0  0  0  0  0
   44.5473   12.7017    6.8495 C   0  0  0  0  0  0  0  0  0  0  0  0
   42.5299   11.5148   10.7224 N   0  0  0  0  0  0  0  0  0  0  0  0
   46.0985   14.5830    7.6280 C   0  0  0  0  0  0  0  0  0  0  0  0
   42.0650   10.2349   10.9171 C   0  0  0  0  0  0  0  0  0  0  0  0
   44.0659   14.3430   10.7538 O   0  0  0  0  0  0  0  0  0  0  0  0
   46.1394   15.3685    6.6926 O   0  0  0  0  0  0  0  0  0  0  0  0
   42.8340    9.2738   10.9665 O   0  0  0  0  0  0  0  0  0  0  0  0
   40.5584   10.0486   11.0021 C   0  0  0  0  0  0  0  0  0  0  0  0
   47.1739   14.4305    8.4260 O   0  0  0  0  0  0  0  0  0  0  0  0
   45.7595   12.0207    6.1993 C   0  0  0  0  0  0  0  0  0  0  0  0
   43.6592   13.3421    5.7792 C   0  0  0  0  0  0  0  0  0  0  0  0
   39.7720   11.2574   11.4521 C   0  0  0  0  0  0  0  0  0  0  0  0
   39.0615   12.0311   10.5238 C   0  0  0  0  0  0  0  0  0  0  0  0
   39.7694   11.6375   12.8019 C   0  0  0  0  0  0  0  0  0  0  0  0
   38.3608   13.1639   10.9402 C   0  0  0  0  0  0  0  0  0  0  0  0
   39.0676   12.7705   13.2144 C   0  0  0  0  0  0  0  0  0  0  0  0
   38.3636   13.5329   12.2840 C   0  0  0  0  0  0  0  0  0  0  0  0
   42.0672   11.0044    8.9556 H   0  0  0  0  0  0  0  0  0  0  0  0
   40.9338   13.6187    9.7223 H   0  0  0  0  0  0  0  0  0  0  0  0
   41.9062   12.6096   10.7895 H   0  0  0  0  0  0  0  0  0  0  0  0
   43.3307   12.3886    7.3492 H   0  0  0  0  0  0  0  0  0  0  0  0
   42.9259   13.7700    8.3408 H   0  0  0  0  0  0  0  0  0  0  0  0
   44.1161   12.6451   10.3113 H   0  0  0  0  0  0  0  0  0  0  0  0
   44.4822   11.2739    9.2845 H   0  0  0  0  0  0  0  0  0  0  0  0
   46.1510   11.4684    7.4446 H   0  0  0  0  0  0  0  0  0  0  0  0
   45.2536   14.8224   10.0090 H   0  0  0  0  0  0  0  0  0  0  0  0
   38.8657   12.4252    8.5663 H   0  0  0  0  0  0  0  0  0  0  0  0
   40.8153   10.9780   12.1295 H   0  0  0  0  0  0  0  0  0  0  0  0
   48.1768   12.6315    6.6500 H   0  0  0  0  0  0  0  0  0  0  0  0
   47.2860   15.9677    9.2030 H   0  0  0  0  0  0  0  0  0  0  0  0
   36.8295   11.1605    9.1775 H   0  0  0  0  0  0  0  0  0  0  0  0
   38.7775    9.7183   12.7240 H   0  0  0  0  0  0  0  0  0  0  0  0
   48.7530   14.8786    7.5269 H   0  0  0  0  0  0  0  0  0  0  0  0
   36.7807    9.8066   11.2565 H   0  0  0  0  0  0  0  0  0  0  0  0
   45.4698   10.8054    9.2288 H   0  0  0  0  0  0  0  0  0  0  0  0
   44.5418   11.3814   11.4385 H   0  0  0  0  0  0  0  0  0  0  0  0
   44.0703   14.3854    8.1512 H   0  0  0  0  0  0  0  0  0  0  0  0
   41.8698   12.2872   10.7208 H   0  0  0  0  0  0  0  0  0  0  0  0
   40.3622    9.2301   11.7046 H   0  0  0  0  0  0  0  0  0  0  0  0
   40.2093    9.7117   10.0197 H   0  0  0  0  0  0  0  0  0  0  0  0
   47.8287   15.0799    8.0945 H   0  0  0  0  0  0  0  0  0  0  0  0
   45.4526   11.2218    5.5150 H   0  0  0  0  0  0  0  0  0  0  0  0
   46.4391   11.5864    6.9403 H   0  0  0  0  0  0  0  0  0  0  0  0
   46.3417   12.7357    5.6064 H   0  0  0  0  0  0  0  0  0  0  0  0
   42.7637   13.8016    6.2165 H   0  0  0  0  0  0  0  0  0  0  0  0
   44.1987   14.1295    5.2426 H   0  0  0  0  0  0  0  0  0  0  0  0
   43.3292   12.6086    5.0334 H   0  0  0  0  0  0  0  0  0  0  0  0
   39.0471   11.7578    9.4711 H   0  0  0  0  0  0  0  0  0  0  0  0
   40.3147   11.0543   13.5414 H   0  0  0  0  0  0  0  0  0  0  0  0
   37.8090   13.7590   10.2158 H   0  0  0  0  0  0  0  0  0  0  0  0
   39.0682   13.0584   14.2628 H   0  0  0  0  0  0  0  0  0  0  0  0
   37.8134   14.4135   12.6085 H   0  0  0  0  0  0  0  0  0  0  0  0
  2  4  1  0
  3  6  1  0
  4  1  1  0
  5  1  1  0
  6  5  1  0
  7  3  2  0
  8  3  1  0
  9  2  2  0
 10  2  1  0
 11  7  1  0
 12  8  2  0
 13  9  1  0
 14 10  2  0
 15 12  1  0
 16 14  1  0
 13 16  2  0
 11 15  2  0
 18 17  1  0
 19 17  1  0
 20 19  1  0
 21 17  1  0
 18 22  1  0
 23 21  1  0
 20 24  1  0
 21 25  1  0
 26 24  1  0
 27 19  2  0
 28 25  2  0
 29 26  2  0
 30 26  1  0
 31 25  1  0
 32 23  1  0
 33 23  1  0
 34 30  1  0
 35 34  2  0
 36 34  1  0
 37 35  1  0
 38 36  2  0
 39 38  1  0
 22 23  1  0
 18 20  1  0
 37 39  2  0
  1 40  1  0
  4 41  1  0
  4 42  1  0
  5 43  1  0
  5 44  1  0
  6 45  1  0
  6 46  1  0
  7 47  1  0
  8 48  1  0
  9 49  1  0
 10 50  1  0
 11 51  1  0
 12 52  1  0
 13 53  1  0
 14 54  1  0
 15 55  1  0
 16 56  1  0
 18 57  1  6
 20 58  1  1
 21 59  1  1
 24 60  1  0
 30 61  1  0
 30 62  1  0
 31 63  1  0
 32 64  1  0
 32 65  1  0
 32 66  1  0
 33 67  1  0
 33 68  1  0
 33 69  1  0
 35 70  1  0
 36 71  1  0
 37 72  1  0
 38 73  1  0
 39 74  1  0
M  END
> <Uni-Dock RESULT> 
ENERGY=   -4.420  LOWER_BOUND=    9.036  UPPER_BOUND=   10.458
INTER + INTRA:          -4.420
INTER:                  -4.420
INTRA:                   0.000
UNBOUND:                 0.000

$$$$

     RDKit          3D

 74 77  0  0  0  0  0  0  0  0999 V2000
   48.6689    8.2968   18.0614 N   0  0  0  0  0  0  0  0  0  0  0  0
   48.7530    7.2091   20.2500 C   0  0  0  0  0  0  0  0  0  0  0  0
   50.2805    7.9776   14.5924 C   0  0  0  0  0  0  0  0  0  0  0  0
   49.5328    7.6131   19.0210 C   0  0  0  0  0  0  0  0  0  0  0  0
   49.3749    8.6827   16.8366 C   0  0  0  0  0  0  0  0  0  0  0  0
   49.6062    7.5176   15.8624 C   0  0  0  0  0  0  0  0  0  0  0  0
   49.5190    8.4304   13.5068 C   0  0  0  0  0  0  0  0  0  0  0  0
   51.6782    7.9869   14.4939 C   0  0  0  0  0  0  0  0  0  0  0  0
   48.2898    8.1831   21.1466 C   0  0  0  0  0  0  0  0  0  0  0  0
   48.4676    5.8611   20.5091 C   0  0  0  0  0  0  0  0  0  0  0  0
   50.1445    8.8742   12.3408 C   0  0  0  0  0  0  0  0  0  0  0  0
   52.3012    8.4302   13.3264 C   0  0  0  0  0  0  0  0  0  0  0  0
   47.5665    7.8168   22.2824 C   0  0  0  0  0  0  0  0  0  0  0  0
   47.7443    5.4960   21.6465 C   0  0  0  0  0  0  0  0  0  0  0  0
   51.5347    8.8723   12.2500 C   0  0  0  0  0  0  0  0  0  0  0  0
   47.2953    6.4733   22.5328 C   0  0  0  0  0  0  0  0  0  0  0  0
   50.2268    7.6475   15.1274 N   0  0  0  0  0  0  0  0  0  0  0  0
   48.8700    7.1707   15.4614 C   0  0  1  0  0  0  0  0  0  0  0  0
   50.8241    6.9299   16.1289 C   0  0  0  0  0  0  0  0  0  0  0  0
   49.5167    6.1743   16.4532 C   0  0  1  0  0  0  0  0  0  0  0  0
   50.4520    9.0936   15.0718 C   0  0  2  0  0  0  0  0  0  0  0  0
   48.0380    8.6644   16.1336 S   0  0  0  0  0  0  0  0  0  0  0  0
   49.0700    9.7788   15.0645 C   0  0  0  0  0  0  0  0  0  0  0  0
   49.0691    6.2267   17.8682 N   0  0  0  0  0  0  0  0  0  0  0  0
   51.3390    9.5256   13.9072 C   0  0  0  0  0  0  0  0  0  0  0  0
   47.8920    5.6343   18.2626 C   0  0  0  0  0  0  0  0  0  0  0  0
   51.9263    7.0226   16.6182 O   0  0  0  0  0  0  0  0  0  0  0  0
   51.7198   10.6685   13.7013 O   0  0  0  0  0  0  0  0  0  0  0  0
   47.1616    5.0586   17.4549 O   0  0  0  0  0  0  0  0  0  0  0  0
   47.4981    5.7774   19.7242 C   0  0  0  0  0  0  0  0  0  0  0  0
   51.6752    8.5400   13.0517 O   0  0  0  0  0  0  0  0  0  0  0  0
   48.4131    9.8555   13.6795 C   0  0  0  0  0  0  0  0  0  0  0  0
   49.1113   11.1659   15.7114 C   0  0  0  0  0  0  0  0  0  0  0  0
   48.6359    6.0070   20.6911 C   0  0  0  0  0  0  0  0  0  0  0  0
   48.8814    7.2851   21.2119 C   0  0  0  0  0  0  0  0  0  0  0  0
   49.4798    4.9478   21.0550 C   0  0  0  0  0  0  0  0  0  0  0  0
   49.9518    7.4979   22.0816 C   0  0  0  0  0  0  0  0  0  0  0  0
   50.5488    5.1644   21.9249 C   0  0  0  0  0  0  0  0  0  0  0  0
   50.7843    6.4387   22.4379 C   0  0  0  0  0  0  0  0  0  0  0  0
   47.8739    7.6986   17.8412 H   0  0  0  0  0  0  0  0  0  0  0  0
   50.3546    8.2699   19.3336 H   0  0  0  0  0  0  0  0  0  0  0  0
   49.9893    6.7227   18.5749 H   0  0  0  0  0  0  0  0  0  0  0  0
   48.7619    9.4431   16.3374 H   0  0  0  0  0  0  0  0  0  0  0  0
   50.3214    9.1812   17.0822 H   0  0  0  0  0  0  0  0  0  0  0  0
   50.2195    6.7354   16.3253 H   0  0  0  0  0  0  0  0  0  0  0  0
   48.6499    7.0405   15.6102 H   0  0  0  0  0  0  0  0  0  0  0  0
   48.4327    8.4431   13.5623 H   0  0  0  0  0  0  0  0  0  0  0  0
   52.2914    7.6497   15.3265 H   0  0  0  0  0  0  0  0  0  0  0  0
   48.4880    9.2354   20.9527 H   0  0  0  0  0  0  0  0  0  0  0  0
   48.8063    5.0853   19.8268 H   0  0  0  0  0  0  0  0  0  0  0  0
   49.5463    9.2232   11.5033 H   0  0  0  0  0  0  0  0  0  0  0  0
   53.3856    8.4317   13.2570 H   0  0  0  0  0  0  0  0  0  0  0  0
   47.2123    8.5814   22.9686 H   0  0  0  0  0  0  0  0  0  0  0  0
   47.5286    4.4486   21.8406 H   0  0  0  0  0  0  0  0  0  0  0  0
   52.0210    9.2170   11.3415 H   0  0  0  0  0  0  0  0  0  0  0  0
   46.7314    6.1886   23.4171 H   0  0  0  0  0  0  0  0  0  0  0  0
   48.3681    6.7122   14.6048 H   0  0  0  0  0  0  0  0  0  0  0  0
   49.5511    5.1398   16.0893 H   0  0  0  0  0  0  0  0  0  0  0  0
   51.0078    9.3728   15.9793 H   0  0  0  0  0  0  0  0  0  0  0  0
   49.6630    6.6634   18.5674 H   0  0  0  0  0  0  0  0  0  0  0  0
   46.9752    4.8606   20.0205 H   0  0  0  0  0  0  0  0  0  0  0  0
   46.7695    6.5927   19.7937 H   0  0  0  0  0  0  0  0  0  0  0  0
   52.2577    8.9677   12.3897 H   0  0  0  0  0  0  0  0  0  0  0  0
   47.3789   10.2117   13.7442 H   0  0  0  0  0  0  0  0  0  0  0  0
   48.4038    8.8862   13.1697 H   0  0  0  0  0  0  0  0  0  0  0  0
   48.9470   10.5579   13.0288 H   0  0  0  0  0  0  0  0  0  0  0  0
   49.5409   11.1305   16.7206 H   0  0  0  0  0  0  0  0  0  0  0  0
   49.7249   11.8548   15.1217 H   0  0  0  0  0  0  0  0  0  0  0  0
   48.1103   11.6079   15.7887 H   0  0  0  0  0  0  0  0  0  0  0  0
   48.2415    8.1235   20.9459 H   0  0  0  0  0  0  0  0  0  0  0  0
   49.3111    3.9468   20.6628 H   0  0  0  0  0  0  0  0  0  0  0  0
   50.1360    8.4913   22.4848 H   0  0  0  0  0  0  0  0  0  0  0  0
   51.1980    4.3383   22.2044 H   0  0  0  0  0  0  0  0  0  0  0  0
   51.6157    6.6045   23.1196 H   0  0  0  0  0  0  0  0  0  0  0  0
  2  4  1  0
  3  6  1  0
  4  1  1  0
  5  1  1  0
  6  5  1  0
  7  3  2  0
  8  3  1  0
  9  2  2  0
 10  2  1  0
 11  7  1  0
 12  8  2  0
 13  9  1  0
 14 10  2  0
 15 12  1  0
 16 14  1  0
 13 16  2  0
 11 15  2  0
 18 17  1  0
 19 17  1  0
 20 19  1  0
 21 17  1  0
 18 22  1  0
 23 21  1  0
 20 24  1  0
 21 25  1  0
 26 24  1  0
 27 19  2  0
 28 25  2  0
 29 26  2  0
 30 26  1  0
 31 25  1  0
 32 23  1  0
 33 23  1  0
 34 30  1  0
 35 34  2  0
 36 34  1  0
 37 35  1  0
 38 36  2  0
 39 38  1  0
 22 23  1  0
 18 20  1  0
 37 39  2  0
  1 40  1  0
  4 41  1  0
  4 42  1  0
  5 43  1  0
  5 44  1  0
  6 45  1  0
  6 46  1  0
  7 47  1  0
  8 48  1  0
  9 49  1  0
 10 50  1  0
 11 51  1  0
 12 52  1  0
 13 53  1  0
 14 54  1  0
 15 55  1  0
 16 56  1  0
 18 57  1  6
 20 58  1  1
 21 59  1  1
 24 60  1  0
 30 61  1  0
 30 62  1  0
 31 63  1  0
 32 64  1  0
 32 65  1  0
 32 66  1  0
 33 67  1  0
 33 68  1  0
 33 69  1  0
 35 70  1  0
 36 71  1  0
 37 72  1  0
 38 73  1  0
 39 74  1  0
M  END
> <Uni-Dock RESULT> 
ENERGY=   -4.385  LOWER_BOUND=    1.926  UPPER_BOUND=    2.657
INTER + INTRA:          -4.385
INTER:                  -4.385
INTRA:                   0.000
UNBOUND:                 0.000

$$$$

     RDKit          3D

 74 77  0  0  0  0  0  0  0  0999 V2000
   48.5542    9.1616   19.5556 N   0  0  0  0  0  0  0  0  0  0  0  0
   48.5159   11.5674   19.1188 C   0  0  0  0  0  0  0  0  0  0  0  0
   49.1367    5.8725   17.6648 C   0  0  0  0  0  0  0  0  0  0  0  0
   48.2215   10.1902   18.5728 C   0  0  0  0  0  0  0  0  0  0  0  0
   48.3136    7.8038   19.0599 C   0  0  0  0  0  0  0  0  0  0  0  0
   49.3978    7.2950   18.0978 C   0  0  0  0  0  0  0  0  0  0  0  0
   49.6279    4.7982   18.4186 C   0  0  0  0  0  0  0  0  0  0  0  0
   48.3734    5.6075   16.5201 C   0  0  0  0  0  0  0  0  0  0  0  0
   47.7325   12.1017   20.1523 C   0  0  0  0  0  0  0  0  0  0  0  0
   49.5803   12.3280   18.6147 C   0  0  0  0  0  0  0  0  0  0  0  0
   49.3687    3.4837   18.0281 C   0  0  0  0  0  0  0  0  0  0  0  0
   48.1166    4.2920   16.1311 C   0  0  0  0  0  0  0  0  0  0  0  0
   48.0008   13.3723   20.6632 C   0  0  0  0  0  0  0  0  0  0  0  0
   49.8471   13.5997   19.1264 C   0  0  0  0  0  0  0  0  0  0  0  0
   48.6150    3.2308   16.8840 C   0  0  0  0  0  0  0  0  0  0  0  0
   49.0571   14.1216   20.1490 C   0  0  0  0  0  0  0  0  0  0  0  0
   49.2170    6.4927   17.5820 N   0  0  0  0  0  0  0  0  0  0  0  0
   50.2173    7.1391   18.4546 C   0  0  1  0  0  0  0  0  0  0  0  0
   49.0452    7.6048   16.8019 C   0  0  0  0  0  0  0  0  0  0  0  0
   50.2273    8.3367   17.4747 C   0  0  1  0  0  0  0  0  0  0  0  0
   48.0402    5.8923   18.2142 C   0  0  2  0  0  0  0  0  0  0  0  0
   49.3402    7.3234   20.0584 S   0  0  0  0  0  0  0  0  0  0  0  0
   48.3196    5.8070   19.7289 C   0  0  0  0  0  0  0  0  0  0  0  0
   49.9282    9.6808   18.0307 N   0  0  0  0  0  0  0  0  0  0  0  0
   47.6410    4.5514   17.6041 C   0  0  0  0  0  0  0  0  0  0  0  0
   50.8903   10.4029   18.6981 C   0  0  0  0  0  0  0  0  0  0  0  0
   48.1742    7.8894   16.0125 O   0  0  0  0  0  0  0  0  0  0  0  0
   46.6548    3.9023   17.9200 O   0  0  0  0  0  0  0  0  0  0  0  0
   52.0233    9.9526   18.8737 O   0  0  0  0  0  0  0  0  0  0  0  0
   50.4768   11.7507   19.2673 C   0  0  0  0  0  0  0  0  0  0  0  0
   48.4900    4.0748   16.6722 O   0  0  0  0  0  0  0  0  0  0  0  0
   49.1383    4.5788   20.1495 C   0  0  0  0  0  0  0  0  0  0  0  0
   47.0355    5.8999   20.5576 C   0  0  0  0  0  0  0  0  0  0  0  0
   49.3110   12.4232   18.5813 C   0  0  0  0  0  0  0  0  0  0  0  0
   48.0375   12.4138   19.1672 C   0  0  0  0  0  0  0  0  0  0  0  0
   49.4836   13.0387   17.3332 C   0  0  0  0  0  0  0  0  0  0  0  0
   46.9575   13.0107   18.5155 C   0  0  0  0  0  0  0  0  0  0  0  0
   48.4015   13.6345   16.6847 C   0  0  0  0  0  0  0  0  0  0  0  0
   47.1395   13.6206   17.2758 C   0  0  0  0  0  0  0  0  0  0  0  0
   49.5271    9.2707   19.8382 H   0  0  0  0  0  0  0  0  0  0  0  0
   47.1566   10.1420   18.3122 H   0  0  0  0  0  0  0  0  0  0  0  0
   48.7833   10.0431   17.6437 H   0  0  0  0  0  0  0  0  0  0  0  0
   48.2801    7.1427   19.9345 H   0  0  0  0  0  0  0  0  0  0  0  0
   47.3193    7.7356   18.6002 H   0  0  0  0  0  0  0  0  0  0  0  0
   49.4604    7.9304   17.2063 H   0  0  0  0  0  0  0  0  0  0  0  0
   50.3843    7.3505   18.5770 H   0  0  0  0  0  0  0  0  0  0  0  0
   50.2141    4.9774   19.3172 H   0  0  0  0  0  0  0  0  0  0  0  0
   47.9727    6.4242   15.9239 H   0  0  0  0  0  0  0  0  0  0  0  0
   46.9125   11.5187   20.5668 H   0  0  0  0  0  0  0  0  0  0  0  0
   50.2099   11.9356   17.8198 H   0  0  0  0  0  0  0  0  0  0  0  0
   49.7539    2.6564   18.6182 H   0  0  0  0  0  0  0  0  0  0  0  0
   47.5260    4.0950   15.2405 H   0  0  0  0  0  0  0  0  0  0  0  0
   47.3870   13.7742   21.4648 H   0  0  0  0  0  0  0  0  0  0  0  0
   50.6733   14.1832   18.7289 H   0  0  0  0  0  0  0  0  0  0  0  0
   48.4145    2.2071   16.5799 H   0  0  0  0  0  0  0  0  0  0  0  0
   49.2660   15.1107   20.5476 H   0  0  0  0  0  0  0  0  0  0  0  0
   51.1519    6.5736   18.5050 H   0  0  0  0  0  0  0  0  0  0  0  0
   51.1049    8.3691   16.8169 H   0  0  0  0  0  0  0  0  0  0  0  0
   47.1891    6.5629   18.0238 H   0  0  0  0  0  0  0  0  0  0  0  0
   49.0147   10.0974   17.8749 H   0  0  0  0  0  0  0  0  0  0  0  0
   51.3436   12.4192   19.2061 H   0  0  0  0  0  0  0  0  0  0  0  0
   50.2618   11.6098   20.3324 H   0  0  0  0  0  0  0  0  0  0  0  0
   48.0840    3.2374   16.3652 H   0  0  0  0  0  0  0  0  0  0  0  0
   49.4376    4.6363   21.2020 H   0  0  0  0  0  0  0  0  0  0  0  0
   50.0455    4.4582   19.5479 H   0  0  0  0  0  0  0  0  0  0  0  0
   48.5526    3.6586   20.0394 H   0  0  0  0  0  0  0  0  0  0  0  0
   46.4516    6.7934   20.3028 H   0  0  0  0  0  0  0  0  0  0  0  0
   46.3924    5.0312   20.3819 H   0  0  0  0  0  0  0  0  0  0  0  0
   47.2480    5.9340   21.6333 H   0  0  0  0  0  0  0  0  0  0  0  0
   47.8769   11.9435   20.1348 H   0  0  0  0  0  0  0  0  0  0  0  0
   50.4619   13.0577   16.8568 H   0  0  0  0  0  0  0  0  0  0  0  0
   45.9721   13.0027   18.9762 H   0  0  0  0  0  0  0  0  0  0  0  0
   48.5429   14.1118   15.7181 H   0  0  0  0  0  0  0  0  0  0  0  0
   46.2980   14.0897   16.7705 H   0  0  0  0  0  0  0  0  0  0  0  0
  2  4  1  0
  3  6  1  0
  4  1  1  0
  5  1  1  0
  6  5  1  0
  7  3  2  0
  8  3  1  0
  9  2  2  0
 10  2  1  0
 11  7  1  0
 12  8  2  0
 13  9  1  0
 14 10  2  0
 15 12  1  0
 16 14  1  0
 13 16  2  0
 11 15  2  0
 18 17  1  0
 19 17  1  0
 20 19  1  0
 21 17  1  0
 18 22  1  0
 23 21  1  0
 20 24  1  0
 21 25  1  0
 26 24  1  0
 27 19  2  0
 28 25  2  0
 29 26  2  0
 30 26  1  0
 31 25  1  0
 32 23  1  0
 33 23  1  0
 34 30  1  0
 35 34  2  0
 36 34  1  0
 37 35  1  0
 38 36  2  0
 39 38  1  0
 22 23  1  0
 18 20  1  0
 37 39  2  0
  1 40  1  0
  4 41  1  0
  4 42  1  0
  5 43  1  0
  5 44  1  0
  6 45  1  0
  6 46  1  0
  7 47  1  0
  8 48  1  0
  9 49  1  0
 10 50  1  0
 11 51  1  0
 12 52  1  0
 13 53  1  0
 14 54  1  0
 15 55  1  0
 16 56  1  0
 18 57  1  6
 20 58  1  1
 21 59  1  1
 24 60  1  0
 30 61  1  0
 30 62  1  0
 31 63  1  0
 32 64  1  0
 32 65  1  0
 32 66  1  0
 33 67  1  0
 33 68  1  0
 33 69  1  0
 35 70  1  0
 36 71  1  0
 37 72  1  0
 38 73  1  0
 39 74  1  0
M  END
> <Uni-Dock RESULT> 
ENERGY=   -4.318  LOWER_BOUND=    3.460  UPPER_BOUND=    5.466
INTER + INTRA:          -4.318
INTER:                  -4.318
INTRA:                   0.000
UNBOUND:                 0.000

$$$$
