
     RDKit          3D

 74 77  0  0  0  0  0  0  0  0999 V2000
   47.2094    7.6381   12.3083 N   0  0  0  0  0  0  0  0  0  0  0  0
   44.9926    6.6047   12.3922 C   0  0  0  0  0  0  0  0  0  0  0  0
   49.1890   10.4972   13.9251 C   0  0  0  0  0  0  0  0  0  0  0  0
   45.8158    7.8315   12.7104 C   0  0  0  0  0  0  0  0  0  0  0  0
   48.0057    8.8652   12.4174 C   0  0  0  0  0  0  0  0  0  0  0  0
   48.2714    9.2990   13.8658 C   0  0  0  0  0  0  0  0  0  0  0  0
   50.5769   10.3236   14.0090 C   0  0  0  0  0  0  0  0  0  0  0  0
   48.6672   11.7962   13.8651 C   0  0  0  0  0  0  0  0  0  0  0  0
   45.1987    5.4106   13.0988 C   0  0  0  0  0  0  0  0  0  0  0  0
   44.0207    6.6345   11.3815 C   0  0  0  0  0  0  0  0  0  0  0  0
   51.4274   11.4296   14.0405 C   0  0  0  0  0  0  0  0  0  0  0  0
   49.5193   12.9013   13.8979 C   0  0  0  0  0  0  0  0  0  0  0  0
   44.4441    4.2738   12.8064 C   0  0  0  0  0  0  0  0  0  0  0  0
   43.2657    5.4962   11.0909 C   0  0  0  0  0  0  0  0  0  0  0  0
   50.8985   12.7176   13.9869 C   0  0  0  0  0  0  0  0  0  0  0  0
   43.4768    4.3179   11.8043 C   0  0  0  0  0  0  0  0  0  0  0  0
   49.0717    9.7973   14.2389 N   0  0  0  0  0  0  0  0  0  0  0  0
   48.7292    9.1801   12.9408 C   0  0  1  0  0  0  0  0  0  0  0  0
   48.1761    9.0328   14.9360 C   0  0  0  0  0  0  0  0  0  0  0  0
   47.9334    8.1079   13.7231 C   0  0  1  0  0  0  0  0  0  0  0  0
   48.9985   11.2584   14.3428 C   0  0  2  0  0  0  0  0  0  0  0  0
   47.8066   10.5144   12.0733 S   0  0  0  0  0  0  0  0  0  0  0  0
   48.8304   11.8171   12.9143 C   0  0  0  0  0  0  0  0  0  0  0  0
   46.5164    7.8757   13.3416 N   0  0  0  0  0  0  0  0  0  0  0  0
   50.1837   11.8684   15.0866 C   0  0  0  0  0  0  0  0  0  0  0  0
   46.2034    7.2955   12.1314 C   0  0  0  0  0  0  0  0  0  0  0  0
   47.6946    9.1719   16.0371 O   0  0  0  0  0  0  0  0  0  0  0  0
   50.3420   13.0610   15.3056 O   0  0  0  0  0  0  0  0  0  0  0  0
   47.0715    6.9584   11.3299 O   0  0  0  0  0  0  0  0  0  0  0  0
   44.7189    7.1170   11.8734 C   0  0  0  0  0  0  0  0  0  0  0  0
   51.1140   10.9838   15.4971 O   0  0  0  0  0  0  0  0  0  0  0  0
   48.0526   13.1338   12.8948 C   0  0  0  0  0  0  0  0  0  0  0  0
   50.1451   11.9658   12.1367 C   0  0  0  0  0  0  0  0  0  0  0  0
   44.3110    5.6659   11.8232 C   0  0  0  0  0  0  0  0  0  0  0  0
   44.4536    4.9337   10.6350 C   0  0  0  0  0  0  0  0  0  0  0  0
   43.8104    5.0210   12.9627 C   0  0  0  0  0  0  0  0  0  0  0  0
   44.0855    3.5882   10.5820 C   0  0  0  0  0  0  0  0  0  0  0  0
   43.4429    3.6744   12.9076 C   0  0  0  0  0  0  0  0  0  0  0  0
   43.5779    2.9596   11.7175 C   0  0  0  0  0  0  0  0  0  0  0  0
   47.2170    7.3280   11.3361 H   0  0  0  0  0  0  0  0  0  0  0  0
   45.3849    8.7013   12.1996 H   0  0  0  0  0  0  0  0  0  0  0  0
   45.7403    8.0210   13.7874 H   0  0  0  0  0  0  0  0  0  0  0  0
   47.5351    9.6763   11.8472 H   0  0  0  0  0  0  0  0  0  0  0  0
   48.9681    8.6713   11.9268 H   0  0  0  0  0  0  0  0  0  0  0  0
   48.7177    8.4724   14.4335 H   0  0  0  0  0  0  0  0  0  0  0  0
   47.3341    9.5477   14.3779 H   0  0  0  0  0  0  0  0  0  0  0  0
   51.0036    9.3236   14.0504 H   0  0  0  0  0  0  0  0  0  0  0  0
   47.5935   11.9544   13.7949 H   0  0  0  0  0  0  0  0  0  0  0  0
   45.9592    5.3651   13.8758 H   0  0  0  0  0  0  0  0  0  0  0  0
   43.8447    7.5449   10.8137 H   0  0  0  0  0  0  0  0  0  0  0  0
   52.5025   11.2860   14.1081 H   0  0  0  0  0  0  0  0  0  0  0  0
   49.1075   13.9061   13.8533 H   0  0  0  0  0  0  0  0  0  0  0  0
   44.6157    3.3532   13.3584 H   0  0  0  0  0  0  0  0  0  0  0  0
   42.5150    5.5281   10.3058 H   0  0  0  0  0  0  0  0  0  0  0  0
   51.5615   13.5779   14.0127 H   0  0  0  0  0  0  0  0  0  0  0  0
   42.8907    3.4317   11.5761 H   0  0  0  0  0  0  0  0  0  0  0  0
   49.6086    8.8072   12.4077 H   0  0  0  0  0  0  0  0  0  0  0  0
   48.4628    7.1528   13.8322 H   0  0  0  0  0  0  0  0  0  0  0  0
   48.1140   11.4981   14.9493 H   0  0  0  0  0  0  0  0  0  0  0  0
   45.7724    8.1627   13.9683 H   0  0  0  0  0  0  0  0  0  0  0  0
   44.4797    7.6108   10.9234 H   0  0  0  0  0  0  0  0  0  0  0  0
   44.1296    7.6425   12.6347 H   0  0  0  0  0  0  0  0  0  0  0  0
   51.7838   11.5204   15.9711 H   0  0  0  0  0  0  0  0  0  0  0  0
   48.6225   13.9309   13.3855 H   0  0  0  0  0  0  0  0  0  0  0  0
   47.8479   13.4662   11.8702 H   0  0  0  0  0  0  0  0  0  0  0  0
   47.0940   13.0502   13.4195 H   0  0  0  0  0  0  0  0  0  0  0  0
   50.7567   12.7770   12.5480 H   0  0  0  0  0  0  0  0  0  0  0  0
   49.9628   12.2107   11.0836 H   0  0  0  0  0  0  0  0  0  0  0  0
   50.7540   11.0563   12.1697 H   0  0  0  0  0  0  0  0  0  0  0  0
   44.8637    5.4080    9.7450 H   0  0  0  0  0  0  0  0  0  0  0  0
   43.7014    5.5588   13.9018 H   0  0  0  0  0  0  0  0  0  0  0  0
   44.2000    3.0300    9.6550 H   0  0  0  0  0  0  0  0  0  0  0  0
   43.0537    3.1808   13.7949 H   0  0  0  0  0  0  0  0  0  0  0  0
   43.2920    1.9111   11.6759 H   0  0  0  0  0  0  0  0  0  0  0  0
  2  4  1  0
  3  6  1  0
  4  1  1  0
  5  1  1  0
  6  5  1  0
  7  3  2  0
  8  3  1  0
  9  2  2  0
 10  2  1  0
 11  7  1  0
 12  8  2  0
 13  9  1  0
 14 10  2  0
 15 12  1  0
 16 14  1  0
 13 16  2  0
 11 15  2  0
 18 17  1  0
 19 17  1  0
 20 19  1  0
 21 17  1  0
 18 22  1  0
 23 21  1  0
 20 24  1  0
 21 25  1  0
 26 24  1  0
 27 19  2  0
 28 25  2  0
 29 26  2  0
 30 26  1  0
 31 25  1  0
 32 23  1  0
 33 23  1  0
 34 30  1  0
 35 34  2  0
 36 34  1  0
 37 35  1  0
 38 36  2  0
 39 38  1  0
 22 23  1  0
 18 20  1  0
 37 39  2  0
  1 40  1  0
  4 41  1  0
  4 42  1  0
  5 43  1  0
  5 44  1  0
  6 45  1  0
  6 46  1  0
  7 47  1  0
  8 48  1  0
  9 49  1  0
 10 50  1  0
 11 51  1  0
 12 52  1  0
 13 53  1  0
 14 54  1  0
 15 55  1  0
 16 56  1  0
 18 57  1  6
 20 58  1  6
 21 59  1  1
 24 60  1  0
 30 61  1  0
 30 62  1  0
 31 63  1  0
 32 64  1  0
 32 65  1  0
 32 66  1  0
 33 67  1  0
 33 68  1  0
 33 69  1  0
 35 70  1  0
 36 71  1  0
 37 72  1  0
 38 73  1  0
 39 74  1  0
M  END
> <Uni-Dock RESULT> 
ENERGY=   -6.490  LOWER_BOUND=    0.000  UPPER_BOUND=    0.000
INTER + INTRA:          -6.490
INTER:                  -6.490
INTRA:                   0.000
UNBOUND:                 0.000

$$$$

     RDKit          3D

 74 77  0  0  0  0  0  0  0  0999 V2000
   47.9719    7.6417   13.3683 N   0  0  0  0  0  0  0  0  0  0  0  0
   50.4098    7.8555   13.3940 C   0  0  0  0  0  0  0  0  0  0  0  0
   45.2489    5.0840   12.5023 C   0  0  0  0  0  0  0  0  0  0  0  0
   49.2248    7.0919   12.8493 C   0  0  0  0  0  0  0  0  0  0  0  0
   46.7890    7.0631   12.7223 C   0  0  0  0  0  0  0  0  0  0  0  0
   46.5379    5.5963   13.0998 C   0  0  0  0  0  0  0  0  0  0  0  0
   44.0464    5.1900   13.2140 C   0  0  0  0  0  0  0  0  0  0  0  0
   45.2331    4.5255   11.2174 C   0  0  0  0  0  0  0  0  0  0  0  0
   50.7464    7.7657   14.7527 C   0  0  0  0  0  0  0  0  0  0  0  0
   51.1832    8.6732   12.5572 C   0  0  0  0  0  0  0  0  0  0  0  0
   42.8509    4.7382   12.6537 C   0  0  0  0  0  0  0  0  0  0  0  0
   44.0365    4.0730   10.6591 C   0  0  0  0  0  0  0  0  0  0  0  0
   51.8372    8.4717   15.2617 C   0  0  0  0  0  0  0  0  0  0  0  0
   52.2751    9.3782   13.0679 C   0  0  0  0  0  0  0  0  0  0  0  0
   42.8465    4.1783   11.3778 C   0  0  0  0  0  0  0  0  0  0  0  0
   52.6020    9.2757   14.4187 C   0  0  0  0  0  0  0  0  0  0  0  0
   45.6544    5.1032   13.1636 N   0  0  0  0  0  0  0  0  0  0  0  0
   46.0614    6.5105   12.9712 C   0  0  1  0  0  0  0  0  0  0  0  0
   46.8417    4.7494   13.7445 C   0  0  0  0  0  0  0  0  0  0  0  0
   47.2822    6.2237   13.8782 C   0  0  1  0  0  0  0  0  0  0  0  0
   45.1827    4.3605   11.9903 C   0  0  2  0  0  0  0  0  0  0  0  0
   46.3137    6.6285   11.1528 S   0  0  0  0  0  0  0  0  0  0  0  0
   44.9722    5.3790   10.8504 C   0  0  0  0  0  0  0  0  0  0  0  0
   48.6319    6.5607   13.3567 N   0  0  0  0  0  0  0  0  0  0  0  0
   43.9430    3.5154   12.2721 C   0  0  0  0  0  0  0  0  0  0  0  0
   49.0073    7.8754   13.1836 C   0  0  0  0  0  0  0  0  0  0  0  0
   47.3516    3.6671   13.9239 O   0  0  0  0  0  0  0  0  0  0  0  0
   43.3719    2.8056   11.4564 O   0  0  0  0  0  0  0  0  0  0  0  0
   48.2489    8.8062   13.4443 O   0  0  0  0  0  0  0  0  0  0  0  0
   50.4124    8.0731   12.6461 C   0  0  0  0  0  0  0  0  0  0  0  0
   43.4648    3.6084   13.5287 O   0  0  0  0  0  0  0  0  0  0  0  0
   45.1896    4.7571    9.4701 C   0  0  0  0  0  0  0  0  0  0  0  0
   43.6225    6.1078   10.8974 C   0  0  0  0  0  0  0  0  0  0  0  0
   51.3289    8.7272   13.6496 C   0  0  0  0  0  0  0  0  0  0  0  0
   51.3448   10.1234   13.7852 C   0  0  0  0  0  0  0  0  0  0  0  0
   52.1557    7.9548   14.4770 C   0  0  0  0  0  0  0  0  0  0  0  0
   52.1845   10.7365   14.7167 C   0  0  0  0  0  0  0  0  0  0  0  0
   52.9951    8.5701   15.4088 C   0  0  0  0  0  0  0  0  0  0  0  0
   53.0112    9.9599   15.5264 C   0  0  0  0  0  0  0  0  0  0  0  0
   47.9765    8.6486   13.2018 H   0  0  0  0  0  0  0  0  0  0  0  0
   49.2382    7.1328   11.7532 H   0  0  0  0  0  0  0  0  0  0  0  0
   49.3395    6.0395   13.1334 H   0  0  0  0  0  0  0  0  0  0  0  0
   46.8546    7.1799   11.6330 H   0  0  0  0  0  0  0  0  0  0  0  0
   45.9235    7.6597   13.0375 H   0  0  0  0  0  0  0  0  0  0  0  0
   46.5002    5.4867   14.1913 H   0  0  0  0  0  0  0  0  0  0  0  0
   47.3620    4.9582   12.7590 H   0  0  0  0  0  0  0  0  0  0  0  0
   44.0351    5.6261   14.2107 H   0  0  0  0  0  0  0  0  0  0  0  0
   46.1537    4.4377   10.6451 H   0  0  0  0  0  0  0  0  0  0  0  0
   50.1480    7.1481   15.4195 H   0  0  0  0  0  0  0  0  0  0  0  0
   50.9407    8.7662   11.5013 H   0  0  0  0  0  0  0  0  0  0  0  0
   41.9232    4.8220   13.2136 H   0  0  0  0  0  0  0  0  0  0  0  0
   44.0321    3.6388    9.6627 H   0  0  0  0  0  0  0  0  0  0  0  0
   52.0858    8.3969   16.3172 H   0  0  0  0  0  0  0  0  0  0  0  0
   52.8687   10.0098   12.4124 H   0  0  0  0  0  0  0  0  0  0  0  0
   41.9153    3.8257   10.9432 H   0  0  0  0  0  0  0  0  0  0  0  0
   53.4503    9.8265   14.8162 H   0  0  0  0  0  0  0  0  0  0  0  0
   45.3351    7.2180   13.3818 H   0  0  0  0  0  0  0  0  0  0  0  0
   47.1667    6.5872   14.9072 H   0  0  0  0  0  0  0  0  0  0  0  0
   45.9718    3.6457   11.7181 H   0  0  0  0  0  0  0  0  0  0  0  0
   49.2761    5.8176   13.1088 H   0  0  0  0  0  0  0  0  0  0  0  0
   50.3436    8.6869   11.7395 H   0  0  0  0  0  0  0  0  0  0  0  0
   50.8391    7.1161   12.3218 H   0  0  0  0  0  0  0  0  0  0  0  0
   42.6978    2.9983   13.5549 H   0  0  0  0  0  0  0  0  0  0  0  0
   44.4183    4.0097    9.2529 H   0  0  0  0  0  0  0  0  0  0  0  0
   45.1418    5.5116    8.6759 H   0  0  0  0  0  0  0  0  0  0  0  0
   46.1599    4.2526    9.3973 H   0  0  0  0  0  0  0  0  0  0  0  0
   42.7987    5.4283   10.6503 H   0  0  0  0  0  0  0  0  0  0  0  0
   43.5839    6.9279   10.1707 H   0  0  0  0  0  0  0  0  0  0  0  0
   43.4084    6.5252   11.8868 H   0  0  0  0  0  0  0  0  0  0  0  0
   50.6924   10.7411   13.1702 H   0  0  0  0  0  0  0  0  0  0  0  0
   52.1550    6.8695   14.4046 H   0  0  0  0  0  0  0  0  0  0  0  0
   52.1890   11.8203   14.8131 H   0  0  0  0  0  0  0  0  0  0  0  0
   53.6351    7.9650   16.0463 H   0  0  0  0  0  0  0  0  0  0  0  0
   53.6646   10.4380   16.2526 H   0  0  0  0  0  0  0  0  0  0  0  0
  2  4  1  0
  3  6  1  0
  4  1  1  0
  5  1  1  0
  6  5  1  0
  7  3  2  0
  8  3  1  0
  9  2  2  0
 10  2  1  0
 11  7  1  0
 12  8  2  0
 13  9  1  0
 14 10  2  0
 15 12  1  0
 16 14  1  0
 13 16  2  0
 11 15  2  0
 18 17  1  0
 19 17  1  0
 20 19  1  0
 21 17  1  0
 18 22  1  0
 23 21  1  0
 20 24  1  0
 21 25  1  0
 26 24  1  0
 27 19  2  0
 28 25  2  0
 29 26  2  0
 30 26  1  0
 31 25  1  0
 32 23  1  0
 33 23  1  0
 34 30  1  0
 35 34  2  0
 36 34  1  0
 37 35  1  0
 38 36  2  0
 39 38  1  0
 22 23  1  0
 18 20  1  0
 37 39  2  0
  1 40  1  0
  4 41  1  0
  4 42  1  0
  5 43  1  0
  5 44  1  0
  6 45  1  0
  6 46  1  0
  7 47  1  0
  8 48  1  0
  9 49  1  0
 10 50  1  0
 11 51  1  0
 12 52  1  0
 13 53  1  0
 14 54  1  0
 15 55  1  0
 16 56  1  0
 18 57  1  6
 20 58  1  6
 21 59  1  1
 24 60  1  0
 30 61  1  0
 30 62  1  0
 31 63  1  0
 32 64  1  0
 32 65  1  0
 32 66  1  0
 33 67  1  0
 33 68  1  0
 33 69  1  0
 35 70  1  0
 36 71  1  0
 37 72  1  0
 38 73  1  0
 39 74  1  0
M  END
> <Uni-Dock RESULT> 
ENERGY=   -6.120  LOWER_BOUND=    2.330  UPPER_BOUND=    8.083
INTER + INTRA:          -6.120
INTER:                  -6.120
INTRA:                   0.000
UNBOUND:                 0.000

$$$$

     RDKit          3D

 74 77  0  0  0  0  0  0  0  0999 V2000
   47.7458    7.6050   13.2806 N   0  0  0  0  0  0  0  0  0  0  0  0
   46.4766    5.6438   12.5508 C   0  0  0  0  0  0  0  0  0  0  0  0
   51.3710    8.8120   13.6083 C   0  0  0  0  0  0  0  0  0  0  0  0
   47.8195    6.1703   13.0019 C   0  0  0  0  0  0  0  0  0  0  0  0
   48.9676    8.1241   13.9043 C   0  0  0  0  0  0  0  0  0  0  0  0
   50.1733    8.1642   12.9548 C   0  0  0  0  0  0  0  0  0  0  0  0
   51.5799   10.1930   13.4946 C   0  0  0  0  0  0  0  0  0  0  0  0
   52.2705    8.0467   14.3621 C   0  0  0  0  0  0  0  0  0  0  0  0
   45.9492    6.0215   11.3072 C   0  0  0  0  0  0  0  0  0  0  0  0
   45.7317    4.7818   13.3688 C   0  0  0  0  0  0  0  0  0  0  0  0
   52.6733   10.7965   14.1173 C   0  0  0  0  0  0  0  0  0  0  0  0
   53.3643    8.6519   14.9832 C   0  0  0  0  0  0  0  0  0  0  0  0
   44.7081    5.5413   10.8874 C   0  0  0  0  0  0  0  0  0  0  0  0
   44.4902    4.3015   12.9468 C   0  0  0  0  0  0  0  0  0  0  0  0
   53.5659   10.0258   14.8594 C   0  0  0  0  0  0  0  0  0  0  0  0
   43.9804    4.6801   11.7064 C   0  0  0  0  0  0  0  0  0  0  0  0
   50.9546    8.8103   12.9535 N   0  0  0  0  0  0  0  0  0  0  0  0
   49.6675    8.7187   13.6731 C   0  0  1  0  0  0  0  0  0  0  0  0
   50.5280    8.0278   11.9152 C   0  0  0  0  0  0  0  0  0  0  0  0
   49.0617    8.0877   12.3964 C   0  0  1  0  0  0  0  0  0  0  0  0
   52.1727    8.4348   13.6788 C   0  0  2  0  0  0  0  0  0  0  0  0
   50.0630    7.6286   15.1013 S   0  0  0  0  0  0  0  0  0  0  0  0
   51.7988    8.2881   15.1686 C   0  0  0  0  0  0  0  0  0  0  0  0
   48.3556    6.7873   12.5297 N   0  0  0  0  0  0  0  0  0  0  0  0
   53.3323    9.4001   13.4469 C   0  0  0  0  0  0  0  0  0  0  0  0
   47.1531    6.7090   13.1982 C   0  0  0  0  0  0  0  0  0  0  0  0
   51.1421    7.4301   11.0612 O   0  0  0  0  0  0  0  0  0  0  0  0
   54.4481    9.2941   13.9359 O   0  0  0  0  0  0  0  0  0  0  0  0
   46.6289    7.6964   13.7081 O   0  0  0  0  0  0  0  0  0  0  0  0
   46.5436    5.3207   13.2563 C   0  0  0  0  0  0  0  0  0  0  0  0
   53.0488   10.4485   12.6487 O   0  0  0  0  0  0  0  0  0  0  0  0
   52.6791    7.2658   15.8891 C   0  0  0  0  0  0  0  0  0  0  0  0
   51.7765    9.6108   15.9464 C   0  0  0  0  0  0  0  0  0  0  0  0
   45.2583    5.2201   12.4737 C   0  0  0  0  0  0  0  0  0  0  0  0
   44.0447    5.6148   13.0565 C   0  0  0  0  0  0  0  0  0  0  0  0
   45.2579    4.7584   11.1502 C   0  0  0  0  0  0  0  0  0  0  0  0
   42.8516    5.5320   12.3367 C   0  0  0  0  0  0  0  0  0  0  0  0
   44.0629    4.6765   10.4314 C   0  0  0  0  0  0  0  0  0  0  0  0
   42.8606    5.0605   11.0252 C   0  0  0  0  0  0  0  0  0  0  0  0
   46.9617    7.7632   13.9144 H   0  0  0  0  0  0  0  0  0  0  0  0
   48.1446    5.6212   13.8941 H   0  0  0  0  0  0  0  0  0  0  0  0
   48.5492    5.9607   12.2114 H   0  0  0  0  0  0  0  0  0  0  0  0
   49.2041    7.5535   14.8114 H   0  0  0  0  0  0  0  0  0  0  0  0
   48.7508    9.1464   14.2396 H   0  0  0  0  0  0  0  0  0  0  0  0
   49.9177    8.7146   12.0402 H   0  0  0  0  0  0  0  0  0  0  0  0
   50.4516    7.1535   12.6331 H   0  0  0  0  0  0  0  0  0  0  0  0
   50.8902   10.8071   12.9191 H   0  0  0  0  0  0  0  0  0  0  0  0
   52.1252    6.9741   14.4678 H   0  0  0  0  0  0  0  0  0  0  0  0
   46.5066    6.7016   10.6662 H   0  0  0  0  0  0  0  0  0  0  0  0
   46.1137    4.4782   14.3405 H   0  0  0  0  0  0  0  0  0  0  0  0
   52.8291   11.8678   14.0219 H   0  0  0  0  0  0  0  0  0  0  0  0
   54.0592    8.0517   15.5646 H   0  0  0  0  0  0  0  0  0  0  0  0
   44.3082    5.8442    9.9230 H   0  0  0  0  0  0  0  0  0  0  0  0
   43.9196    3.6342   13.5873 H   0  0  0  0  0  0  0  0  0  0  0  0
   54.4175   10.4966   15.3427 H   0  0  0  0  0  0  0  0  0  0  0  0
   43.0132    4.3080   11.3795 H   0  0  0  0  0  0  0  0  0  0  0  0
   49.2649    9.7000   13.9409 H   0  0  0  0  0  0  0  0  0  0  0  0
   48.4679    8.7867   11.7938 H   0  0  0  0  0  0  0  0  0  0  0  0
   52.5074    7.4688   13.2758 H   0  0  0  0  0  0  0  0  0  0  0  0
   48.7701    5.9469   12.1416 H   0  0  0  0  0  0  0  0  0  0  0  0
   46.3655    5.0742   14.3104 H   0  0  0  0  0  0  0  0  0  0  0  0
   47.2581    4.5708   12.8954 H   0  0  0  0  0  0  0  0  0  0  0  0
   53.8882   10.9504   12.5801 H   0  0  0  0  0  0  0  0  0  0  0  0
   53.7157    7.6162   15.9481 H   0  0  0  0  0  0  0  0  0  0  0  0
   52.3374    7.0922   16.9164 H   0  0  0  0  0  0  0  0  0  0  0  0
   52.6921    6.3001   15.3709 H   0  0  0  0  0  0  0  0  0  0  0  0
   52.7897   10.0064   16.0806 H   0  0  0  0  0  0  0  0  0  0  0  0
   51.3535    9.4794   16.9494 H   0  0  0  0  0  0  0  0  0  0  0  0
   51.1947   10.3850   15.4353 H   0  0  0  0  0  0  0  0  0  0  0  0
   44.0255    6.0000   14.0747 H   0  0  0  0  0  0  0  0  0  0  0  0
   46.1850    4.4584   10.6669 H   0  0  0  0  0  0  0  0  0  0  0  0
   41.9160    5.8404   12.7987 H   0  0  0  0  0  0  0  0  0  0  0  0
   44.0696    4.3160    9.4056 H   0  0  0  0  0  0  0  0  0  0  0  0
   41.9309    4.9969   10.4645 H   0  0  0  0  0  0  0  0  0  0  0  0
  2  4  1  0
  3  6  1  0
  4  1  1  0
  5  1  1  0
  6  5  1  0
  7  3  2  0
  8  3  1  0
  9  2  2  0
 10  2  1  0
 11  7  1  0
 12  8  2  0
 13  9  1  0
 14 10  2  0
 15 12  1  0
 16 14  1  0
 13 16  2  0
 11 15  2  0
 18 17  1  0
 19 17  1  0
 20 19  1  0
 21 17  1  0
 18 22  1  0
 23 21  1  0
 20 24  1  0
 21 25  1  0
 26 24  1  0
 27 19  2  0
 28 25  2  0
 29 26  2  0
 30 26  1  0
 31 25  1  0
 32 23  1  0
 33 23  1  0
 34 30  1  0
 35 34  2  0
 36 34  1  0
 37 35  1  0
 38 36  2  0
 39 38  1  0
 22 23  1  0
 18 20  1  0
 37 39  2  0
  1 40  1  0
  4 41  1  0
  4 42  1  0
  5 43  1  0
  5 44  1  0
  6 45  1  0
  6 46  1  0
  7 47  1  0
  8 48  1  0
  9 49  1  0
 10 50  1  0
 11 51  1  0
 12 52  1  0
 13 53  1  0
 14 54  1  0
 15 55  1  0
 16 56  1  0
 18 57  1  6
 20 58  1  6
 21 59  1  1
 24 60  1  0
 30 61  1  0
 30 62  1  0
 31 63  1  0
 32 64  1  0
 32 65  1  0
 32 66  1  0
 33 67  1  0
 33 68  1  0
 33 69  1  0
 35 70  1  0
 36 71  1  0
 37 72  1  0
 38 73  1  0
 39 74  1  0
M  END
> <Uni-Dock RESULT> 
ENERGY=   -5.637  LOWER_BOUND=    2.262  UPPER_BOUND=    3.496
INTER + INTRA:          -5.637
INTER:                  -5.637
INTRA:                   0.000
UNBOUND:                 0.000

$$$$

     RDKit          3D

 74 77  0  0  0  0  0  0  0  0999 V2000
   49.0962    7.1509   18.1619 N   0  0  0  0  0  0  0  0  0  0  0  0
   47.8295    6.8879   20.2394 C   0  0  0  0  0  0  0  0  0  0  0  0
   48.7450    8.7098   14.6758 C   0  0  0  0  0  0  0  0  0  0  0  0
   47.7613    7.1899   18.7601 C   0  0  0  0  0  0  0  0  0  0  0  0
   49.0639    7.2456   16.6985 C   0  0  0  0  0  0  0  0  0  0  0  0
   48.6508    8.6307   16.1811 C   0  0  0  0  0  0  0  0  0  0  0  0
   49.9309    9.1336   14.0611 C   0  0  0  0  0  0  0  0  0  0  0  0
   47.6600    8.3309   13.8744 C   0  0  0  0  0  0  0  0  0  0  0  0
   48.4269    7.8001   21.1217 C   0  0  0  0  0  0  0  0  0  0  0  0
   47.3099    5.6905   20.7524 C   0  0  0  0  0  0  0  0  0  0  0  0
   50.0271    9.1849   12.6699 C   0  0  0  0  0  0  0  0  0  0  0  0
   47.7577    8.3841   12.4829 C   0  0  0  0  0  0  0  0  0  0  0  0
   48.4960    7.5246   22.4879 C   0  0  0  0  0  0  0  0  0  0  0  0
   47.3789    5.4167   22.1200 C   0  0  0  0  0  0  0  0  0  0  0  0
   48.9403    8.8122   11.8815 C   0  0  0  0  0  0  0  0  0  0  0  0
   47.9702    6.3342   22.9864 C   0  0  0  0  0  0  0  0  0  0  0  0
   48.9311    9.0938   15.3239 N   0  0  0  0  0  0  0  0  0  0  0  0
   49.3371    7.8644   16.0358 C   0  0  1  0  0  0  0  0  0  0  0  0
   48.4184    9.6791   16.4494 C   0  0  0  0  0  0  0  0  0  0  0  0
   49.0426    8.6023   17.3639 C   0  0  1  0  0  0  0  0  0  0  0  0
   48.0771    8.9492   14.1404 C   0  0  2  0  0  0  0  0  0  0  0  0
   48.1334    6.6125   15.4292 S   0  0  0  0  0  0  0  0  0  0  0  0
   48.0428    7.4508   13.7734 C   0  0  0  0  0  0  0  0  0  0  0  0
   48.1283    7.9492   18.3359 N   0  0  0  0  0  0  0  0  0  0  0  0
   48.5067    9.8389   12.9767 C   0  0  0  0  0  0  0  0  0  0  0  0
   48.5144    6.8051   19.0002 C   0  0  0  0  0  0  0  0  0  0  0  0
   47.6538   10.6062   16.5897 O   0  0  0  0  0  0  0  0  0  0  0  0
   47.9482    9.8995   11.8905 O   0  0  0  0  0  0  0  0  0  0  0  0
   49.6115    6.2850   18.8124 O   0  0  0  0  0  0  0  0  0  0  0  0
   47.4834    6.2470   19.9635 C   0  0  0  0  0  0  0  0  0  0  0  0
   49.6067   10.5832   13.2055 O   0  0  0  0  0  0  0  0  0  0  0  0
   46.7311    7.0498   13.0970 C   0  0  0  0  0  0  0  0  0  0  0  0
   49.2382    6.9796   12.9344 C   0  0  0  0  0  0  0  0  0  0  0  0
   47.9298    6.3321   21.4016 C   0  0  0  0  0  0  0  0  0  0  0  0
   48.7565    5.3367   21.9437 C   0  0  0  0  0  0  0  0  0  0  0  0
   47.5505    7.4139   22.2082 C   0  0  0  0  0  0  0  0  0  0  0  0
   49.1804    5.4117   23.2717 C   0  0  0  0  0  0  0  0  0  0  0  0
   47.9760    7.4873   23.5368 C   0  0  0  0  0  0  0  0  0  0  0  0
   48.7879    6.4856   24.0686 C   0  0  0  0  0  0  0  0  0  0  0  0
   49.5331    6.2665   18.4234 H   0  0  0  0  0  0  0  0  0  0  0  0
   47.0990    6.4652   18.2710 H   0  0  0  0  0  0  0  0  0  0  0  0
   47.3040    8.1784   18.6362 H   0  0  0  0  0  0  0  0  0  0  0  0
   48.4167    6.4640   16.2806 H   0  0  0  0  0  0  0  0  0  0  0  0
   50.0761    7.0235   16.3373 H   0  0  0  0  0  0  0  0  0  0  0  0
   49.2872    9.4069   16.6253 H   0  0  0  0  0  0  0  0  0  0  0  0
   47.6242    8.8707   16.4826 H   0  0  0  0  0  0  0  0  0  0  0  0
   50.7877    9.4264   14.6645 H   0  0  0  0  0  0  0  0  0  0  0  0
   46.7316    7.9942   14.3299 H   0  0  0  0  0  0  0  0  0  0  0  0
   48.8489    8.7272   20.7389 H   0  0  0  0  0  0  0  0  0  0  0  0
   46.8472    4.9627   20.0901 H   0  0  0  0  0  0  0  0  0  0  0  0
   50.9498    9.5171   12.2014 H   0  0  0  0  0  0  0  0  0  0  0  0
   46.9112    8.0907   11.8676 H   0  0  0  0  0  0  0  0  0  0  0  0
   48.9648    8.2377   23.1611 H   0  0  0  0  0  0  0  0  0  0  0  0
   46.9741    4.4862   22.5089 H   0  0  0  0  0  0  0  0  0  0  0  0
   49.0160    8.8539   10.7985 H   0  0  0  0  0  0  0  0  0  0  0  0
   48.0259    6.1196   24.0503 H   0  0  0  0  0  0  0  0  0  0  0  0
   50.3881    7.6103   15.8700 H   0  0  0  0  0  0  0  0  0  0  0  0
   49.9399    8.9766   17.8730 H   0  0  0  0  0  0  0  0  0  0  0  0
   47.0717    9.2934   14.4199 H   0  0  0  0  0  0  0  0  0  0  0  0
   47.2056    8.3374   18.4989 H   0  0  0  0  0  0  0  0  0  0  0  0
   47.2939    5.2024   19.6869 H   0  0  0  0  0  0  0  0  0  0  0  0
   46.5231    6.7626   19.8414 H   0  0  0  0  0  0  0  0  0  0  0  0
   49.7340   11.1076   12.3870 H   0  0  0  0  0  0  0  0  0  0  0  0
   46.6366    7.5268   12.1150 H   0  0  0  0  0  0  0  0  0  0  0  0
   46.6745    5.9665   12.9371 H   0  0  0  0  0  0  0  0  0  0  0  0
   45.8580    7.3489   13.6883 H   0  0  0  0  0  0  0  0  0  0  0  0
   49.1920    7.3876   11.9182 H   0  0  0  0  0  0  0  0  0  0  0  0
   49.2536    5.8877   12.8357 H   0  0  0  0  0  0  0  0  0  0  0  0
   50.1966    7.2917   13.3623 H   0  0  0  0  0  0  0  0  0  0  0  0
   49.0836    4.5007   21.3278 H   0  0  0  0  0  0  0  0  0  0  0  0
   46.9216    8.2079   21.8119 H   0  0  0  0  0  0  0  0  0  0  0  0
   49.8212    4.6339   23.6820 H   0  0  0  0  0  0  0  0  0  0  0  0
   47.6766    8.3284   24.1574 H   0  0  0  0  0  0  0  0  0  0  0  0
   49.1191    6.5440   25.1028 H   0  0  0  0  0  0  0  0  0  0  0  0
  2  4  1  0
  3  6  1  0
  4  1  1  0
  5  1  1  0
  6  5  1  0
  7  3  2  0
  8  3  1  0
  9  2  2  0
 10  2  1  0
 11  7  1  0
 12  8  2  0
 13  9  1  0
 14 10  2  0
 15 12  1  0
 16 14  1  0
 13 16  2  0
 11 15  2  0
 18 17  1  0
 19 17  1  0
 20 19  1  0
 21 17  1  0
 18 22  1  0
 23 21  1  0
 20 24  1  0
 21 25  1  0
 26 24  1  0
 27 19  2  0
 28 25  2  0
 29 26  2  0
 30 26  1  0
 31 25  1  0
 32 23  1  0
 33 23  1  0
 34 30  1  0
 35 34  2  0
 36 34  1  0
 37 35  1  0
 38 36  2  0
 39 38  1  0
 22 23  1  0
 18 20  1  0
 37 39  2  0
  1 40  1  0
  4 41  1  0
  4 42  1  0
  5 43  1  0
  5 44  1  0
  6 45  1  0
  6 46  1  0
  7 47  1  0
  8 48  1  0
  9 49  1  0
 10 50  1  0
 11 51  1  0
 12 52  1  0
 13 53  1  0
 14 54  1  0
 15 55  1  0
 16 56  1  0
 18 57  1  6
 20 58  1  6
 21 59  1  1
 24 60  1  0
 30 61  1  0
 30 62  1  0
 31 63  1  0
 32 64  1  0
 32 65  1  0
 32 66  1  0
 33 67  1  0
 33 68  1  0
 33 69  1  0
 35 70  1  0
 36 71  1  0
 37 72  1  0
 38 73  1  0
 39 74  1  0
M  END
> <Uni-Dock RESULT> 
ENERGY=   -5.197  LOWER_BOUND=    4.942  UPPER_BOUND=    7.415
INTER + INTRA:          -5.197
INTER:                  -5.197
INTRA:                   0.000
UNBOUND:                 0.000

$$$$

     RDKit          3D

 74 77  0  0  0  0  0  0  0  0999 V2000
   49.5581    7.4810   17.2726 N   0  0  0  0  0  0  0  0  0  0  0  0
   48.7074    8.2882   15.1245 C   0  0  0  0  0  0  0  0  0  0  0  0
   48.3025    6.5439   20.7729 C   0  0  0  0  0  0  0  0  0  0  0  0
   48.4391    8.1471   16.6051 C   0  0  0  0  0  0  0  0  0  0  0  0
   49.4337    7.4929   18.7341 C   0  0  0  0  0  0  0  0  0  0  0  0
   48.3138    6.5859   19.2632 C   0  0  0  0  0  0  0  0  0  0  0  0
   49.0429    5.5729   21.4605 C   0  0  0  0  0  0  0  0  0  0  0  0
   47.5779    7.4933   21.5055 C   0  0  0  0  0  0  0  0  0  0  0  0
   48.7348    7.1549   14.2985 C   0  0  0  0  0  0  0  0  0  0  0  0
   48.9446    9.5476   14.5547 C   0  0  0  0  0  0  0  0  0  0  0  0
   49.0521    5.5472   22.8557 C   0  0  0  0  0  0  0  0  0  0  0  0
   47.5873    7.4653   22.9010 C   0  0  0  0  0  0  0  0  0  0  0  0
   48.9859    7.2791   12.9315 C   0  0  0  0  0  0  0  0  0  0  0  0
   49.1948    9.6702   13.1863 C   0  0  0  0  0  0  0  0  0  0  0  0
   48.3230    6.4918   23.5753 C   0  0  0  0  0  0  0  0  0  0  0  0
   49.2136    8.5367   12.3759 C   0  0  0  0  0  0  0  0  0  0  0  0
   48.2679    6.0886   20.1455 N   0  0  0  0  0  0  0  0  0  0  0  0
   49.3027    6.8594   19.4257 C   0  0  1  0  0  0  0  0  0  0  0  0
   47.5536    5.8225   19.0092 C   0  0  0  0  0  0  0  0  0  0  0  0
   48.6936    6.3364   18.1027 C   0  0  1  0  0  0  0  0  0  0  0  0
   47.5963    6.7351   21.2777 C   0  0  2  0  0  0  0  0  0  0  0  0
   48.9630    8.5940   19.9357 S   0  0  0  0  0  0  0  0  0  0  0  0
   48.3768    8.0254   21.6047 C   0  0  0  0  0  0  0  0  0  0  0  0
   48.3170    7.3330   17.0672 N   0  0  0  0  0  0  0  0  0  0  0  0
   47.4321    5.8149   22.4846 C   0  0  0  0  0  0  0  0  0  0  0  0
   49.2870    8.0457   16.3961 C   0  0  0  0  0  0  0  0  0  0  0  0
   46.4110    5.4575   18.8515 O   0  0  0  0  0  0  0  0  0  0  0  0
   46.8983    6.1236   23.5405 O   0  0  0  0  0  0  0  0  0  0  0  0
   50.4834    7.8913   16.6292 O   0  0  0  0  0  0  0  0  0  0  0  0
   48.7605    9.0270   15.3654 C   0  0  0  0  0  0  0  0  0  0  0  0
   47.9514    4.5804   22.3335 O   0  0  0  0  0  0  0  0  0  0  0  0
   47.4786    9.1109   22.1998 C   0  0  0  0  0  0  0  0  0  0  0  0
   49.6083    7.8091   22.4943 C   0  0  0  0  0  0  0  0  0  0  0  0
   49.1318    8.6399   13.9558 C   0  0  0  0  0  0  0  0  0  0  0  0
   50.3850    8.9939   13.4339 C   0  0  0  0  0  0  0  0  0  0  0  0
   48.2472    7.9018   13.1574 C   0  0  0  0  0  0  0  0  0  0  0  0
   50.7396    8.6332   12.1328 C   0  0  0  0  0  0  0  0  0  0  0  0
   48.6040    7.5415   11.8557 C   0  0  0  0  0  0  0  0  0  0  0  0
   49.8480    7.9093   11.3432 C   0  0  0  0  0  0  0  0  0  0  0  0
   50.4158    7.9690   17.0129 H   0  0  0  0  0  0  0  0  0  0  0  0
   48.2670    9.1393   17.0399 H   0  0  0  0  0  0  0  0  0  0  0  0
   47.5116    7.5763   16.7291 H   0  0  0  0  0  0  0  0  0  0  0  0
   49.3077    8.5208   19.0972 H   0  0  0  0  0  0  0  0  0  0  0  0
   50.3905    7.1442   19.1433 H   0  0  0  0  0  0  0  0  0  0  0  0
   48.4347    5.5670   18.8732 H   0  0  0  0  0  0  0  0  0  0  0  0
   47.3333    6.9305   18.9133 H   0  0  0  0  0  0  0  0  0  0  0  0
   49.6177    4.8300   20.9113 H   0  0  0  0  0  0  0  0  0  0  0  0
   47.0001    8.2588   20.9927 H   0  0  0  0  0  0  0  0  0  0  0  0
   48.5680    6.1684   14.7264 H   0  0  0  0  0  0  0  0  0  0  0  0
   48.9357   10.4420   15.1729 H   0  0  0  0  0  0  0  0  0  0  0  0
   49.6271    4.7892   23.3810 H   0  0  0  0  0  0  0  0  0  0  0  0
   47.0210    8.2036   23.4628 H   0  0  0  0  0  0  0  0  0  0  0  0
   49.0082    6.3930   12.3023 H   0  0  0  0  0  0  0  0  0  0  0  0
   49.3779   10.6500   12.7532 H   0  0  0  0  0  0  0  0  0  0  0  0
   48.3298    6.4699   24.6615 H   0  0  0  0  0  0  0  0  0  0  0  0
   49.4107    8.6323   11.3116 H   0  0  0  0  0  0  0  0  0  0  0  0
   50.3155    6.5066   19.6410 H   0  0  0  0  0  0  0  0  0  0  0  0
   49.2547    5.5080   17.6518 H   0  0  0  0  0  0  0  0  0  0  0  0
   46.5758    6.9821   20.9535 H   0  0  0  0  0  0  0  0  0  0  0  0
   47.3379    7.5038   16.8649 H   0  0  0  0  0  0  0  0  0  0  0  0
   49.1654   10.0180   15.6052 H   0  0  0  0  0  0  0  0  0  0  0  0
   47.6713    9.1261   15.4489 H   0  0  0  0  0  0  0  0  0  0  0  0
   47.7453    4.1134   23.1705 H   0  0  0  0  0  0  0  0  0  0  0  0
   47.1079    8.8127   23.1870 H   0  0  0  0  0  0  0  0  0  0  0  0
   48.0196   10.0558   22.3293 H   0  0  0  0  0  0  0  0  0  0  0  0
   46.6032    9.3076   21.5704 H   0  0  0  0  0  0  0  0  0  0  0  0
   49.3147    7.5440   23.5165 H   0  0  0  0  0  0  0  0  0  0  0  0
   50.2161    8.7188   22.5664 H   0  0  0  0  0  0  0  0  0  0  0  0
   50.2521    7.0034   22.1262 H   0  0  0  0  0  0  0  0  0  0  0  0
   51.0972    9.5455   14.0453 H   0  0  0  0  0  0  0  0  0  0  0  0
   47.2742    7.6010   13.5392 H   0  0  0  0  0  0  0  0  0  0  0  0
   51.7140    8.9134   11.7380 H   0  0  0  0  0  0  0  0  0  0  0  0
   47.9124    6.9703   11.2412 H   0  0  0  0  0  0  0  0  0  0  0  0
   50.1251    7.6278   10.3299 H   0  0  0  0  0  0  0  0  0  0  0  0
  2  4  1  0
  3  6  1  0
  4  1  1  0
  5  1  1  0
  6  5  1  0
  7  3  2  0
  8  3  1  0
  9  2  2  0
 10  2  1  0
 11  7  1  0
 12  8  2  0
 13  9  1  0
 14 10  2  0
 15 12  1  0
 16 14  1  0
 13 16  2  0
 11 15  2  0
 18 17  1  0
 19 17  1  0
 20 19  1  0
 21 17  1  0
 18 22  1  0
 23 21  1  0
 20 24  1  0
 21 25  1  0
 26 24  1  0
 27 19  2  0
 28 25  2  0
 29 26  2  0
 30 26  1  0
 31 25  1  0
 32 23  1  0
 33 23  1  0
 34 30  1  0
 35 34  2  0
 36 34  1  0
 37 35  1  0
 38 36  2  0
 39 38  1  0
 22 23  1  0
 18 20  1  0
 37 39  2  0
  1 40  1  0
  4 41  1  0
  4 42  1  0
  5 43  1  0
  5 44  1  0
  6 45  1  0
  6 46  1  0
  7 47  1  0
  8 48  1  0
  9 49  1  0
 10 50  1  0
 11 51  1  0
 12 52  1  0
 13 53  1  0
 14 54  1  0
 15 55  1  0
 16 56  1  0
 18 57  1  6
 20 58  1  6
 21 59  1  1
 24 60  1  0
 30 61  1  0
 30 62  1  0
 31 63  1  0
 32 64  1  0
 32 65  1  0
 32 66  1  0
 33 67  1  0
 33 68  1  0
 33 69  1  0
 35 70  1  0
 36 71  1  0
 37 72  1  0
 38 73  1  0
 39 74  1  0
M  END
> <Uni-Dock RESULT> 
ENERGY=   -5.138  LOWER_BOUND=    5.287  UPPER_BOUND=    7.709
INTER + INTRA:          -5.138
INTER:                  -5.138
INTRA:                   0.000
UNBOUND:                 0.000

$$$$

     RDKit          3D

 74 77  0  0  0  0  0  0  0  0999 V2000
   48.0433    6.3844   13.4884 N   0  0  0  0  0  0  0  0  0  0  0  0
   45.9471    6.4173   12.2257 C   0  0  0  0  0  0  0  0  0  0  0  0
   50.4713    8.7895   15.2281 C   0  0  0  0  0  0  0  0  0  0  0  0
   47.1317    7.2221   12.7082 C   0  0  0  0  0  0  0  0  0  0  0  0
   49.2999    7.0669   13.8149 C   0  0  0  0  0  0  0  0  0  0  0  0
   49.1370    8.1978   14.8403 C   0  0  0  0  0  0  0  0  0  0  0  0
   51.1864    8.2726   16.3168 C   0  0  0  0  0  0  0  0  0  0  0  0
   51.0257    9.8409   14.4863 C   0  0  0  0  0  0  0  0  0  0  0  0
   44.9911    5.9475   13.1383 C   0  0  0  0  0  0  0  0  0  0  0  0
   45.7894    6.1169   10.8649 C   0  0  0  0  0  0  0  0  0  0  0  0
   52.4301    8.8031   16.6621 C   0  0  0  0  0  0  0  0  0  0  0  0
   52.2693   10.3710   14.8339 C   0  0  0  0  0  0  0  0  0  0  0  0
   43.8973    5.2007   12.6987 C   0  0  0  0  0  0  0  0  0  0  0  0
   44.6938    5.3702   10.4265 C   0  0  0  0  0  0  0  0  0  0  0  0
   52.9701    9.8530   15.9221 C   0  0  0  0  0  0  0  0  0  0  0  0
   43.7483    4.9143   11.3430 C   0  0  0  0  0  0  0  0  0  0  0  0
   49.8051    8.5278   15.5277 N   0  0  0  0  0  0  0  0  0  0  0  0
   49.7360    7.3859   14.5927 C   0  0  1  0  0  0  0  0  0  0  0  0
   48.4492    8.7111   15.5392 C   0  0  0  0  0  0  0  0  0  0  0  0
   48.2037    7.3723   14.8093 C   0  0  1  0  0  0  0  0  0  0  0  0
   50.6761    9.6526   15.1714 C   0  0  2  0  0  0  0  0  0  0  0  0
   50.4060    8.0846   13.0283 S   0  0  0  0  0  0  0  0  0  0  0  0
   51.5441    9.2066   13.9761 C   0  0  0  0  0  0  0  0  0  0  0  0
   47.3299    7.4241   13.6088 N   0  0  0  0  0  0  0  0  0  0  0  0
   51.5004   10.1706   16.3472 C   0  0  0  0  0  0  0  0  0  0  0  0
   47.2662    6.3540   12.7427 C   0  0  0  0  0  0  0  0  0  0  0  0
   47.7740    9.6555   15.8799 O   0  0  0  0  0  0  0  0  0  0  0  0
   52.2904   11.1028   16.2994 O   0  0  0  0  0  0  0  0  0  0  0  0
   47.9250    5.3329   12.9238 O   0  0  0  0  0  0  0  0  0  0  0  0
   46.3332    6.5431   11.5611 C   0  0  0  0  0  0  0  0  0  0  0  0
   51.3245    9.5017   17.5039 O   0  0  0  0  0  0  0  0  0  0  0  0
   51.9335   10.3784   13.0736 C   0  0  0  0  0  0  0  0  0  0  0  0
   52.7904    8.4014   14.3676 C   0  0  0  0  0  0  0  0  0  0  0  0
   45.1463    5.6138   11.6070 C   0  0  0  0  0  0  0  0  0  0  0  0
   45.2572    4.3032   11.1188 C   0  0  0  0  0  0  0  0  0  0  0  0
   43.9276    6.0324   12.1586 C   0  0  0  0  0  0  0  0  0  0  0  0
   44.1657    3.4342   11.1642 C   0  0  0  0  0  0  0  0  0  0  0  0
   42.8365    5.1612   12.2035 C   0  0  0  0  0  0  0  0  0  0  0  0
   42.9549    3.8642   11.7042 C   0  0  0  0  0  0  0  0  0  0  0  0
   48.2560    5.5521   12.9376 H   0  0  0  0  0  0  0  0  0  0  0  0
   47.6517    7.6570   11.8458 H   0  0  0  0  0  0  0  0  0  0  0  0
   46.7529    8.0565   13.3098 H   0  0  0  0  0  0  0  0  0  0  0  0
   49.7817    7.4357   12.9004 H   0  0  0  0  0  0  0  0  0  0  0  0
   49.9799    6.3120   14.2300 H   0  0  0  0  0  0  0  0  0  0  0  0
   48.6310    7.8242   15.7398 H   0  0  0  0  0  0  0  0  0  0  0  0
   48.4996    8.9969   14.4432 H   0  0  0  0  0  0  0  0  0  0  0  0
   50.7771    7.4521   16.9027 H   0  0  0  0  0  0  0  0  0  0  0  0
   50.4906   10.2544   13.6346 H   0  0  0  0  0  0  0  0  0  0  0  0
   45.1057    6.1582   14.1997 H   0  0  0  0  0  0  0  0  0  0  0  0
   46.5190    6.4629   10.1366 H   0  0  0  0  0  0  0  0  0  0  0  0
   52.9768    8.3978   17.5094 H   0  0  0  0  0  0  0  0  0  0  0  0
   52.6923   11.1880   14.2553 H   0  0  0  0  0  0  0  0  0  0  0  0
   43.1650    4.8389   13.4160 H   0  0  0  0  0  0  0  0  0  0  0  0
   44.5798    5.1418    9.3702 H   0  0  0  0  0  0  0  0  0  0  0  0
   53.9379   10.2660   16.1927 H   0  0  0  0  0  0  0  0  0  0  0  0
   42.8972    4.3312   11.0017 H   0  0  0  0  0  0  0  0  0  0  0  0
   50.2646    6.5040   14.9663 H   0  0  0  0  0  0  0  0  0  0  0  0
   47.8593    6.5932   15.5011 H   0  0  0  0  0  0  0  0  0  0  0  0
   50.0257   10.4877   14.8760 H   0  0  0  0  0  0  0  0  0  0  0  0
   46.7895    8.2602   13.4147 H   0  0  0  0  0  0  0  0  0  0  0  0
   46.9114    6.3742   10.6442 H   0  0  0  0  0  0  0  0  0  0  0  0
   45.9890    7.5830   11.5045 H   0  0  0  0  0  0  0  0  0  0  0  0
   51.8938    9.9641   18.1545 H   0  0  0  0  0  0  0  0  0  0  0  0
   52.6047   11.0682   13.5976 H   0  0  0  0  0  0  0  0  0  0  0  0
   52.4586   10.0371   12.1736 H   0  0  0  0  0  0  0  0  0  0  0  0
   51.0589   10.9567   12.7542 H   0  0  0  0  0  0  0  0  0  0  0  0
   53.5305    9.0379   14.8659 H   0  0  0  0  0  0  0  0  0  0  0  0
   53.2841    7.9729   13.4873 H   0  0  0  0  0  0  0  0  0  0  0  0
   52.5578    7.5812   15.0548 H   0  0  0  0  0  0  0  0  0  0  0  0
   46.2017    3.9492   10.7090 H   0  0  0  0  0  0  0  0  0  0  0  0
   43.8154    7.0381   12.5575 H   0  0  0  0  0  0  0  0  0  0  0  0
   44.2628    2.4199   10.7824 H   0  0  0  0  0  0  0  0  0  0  0  0
   41.8936    5.4930   12.6313 H   0  0  0  0  0  0  0  0  0  0  0  0
   42.1051    3.1864   11.7401 H   0  0  0  0  0  0  0  0  0  0  0  0
  2  4  1  0
  3  6  1  0
  4  1  1  0
  5  1  1  0
  6  5  1  0
  7  3  2  0
  8  3  1  0
  9  2  2  0
 10  2  1  0
 11  7  1  0
 12  8  2  0
 13  9  1  0
 14 10  2  0
 15 12  1  0
 16 14  1  0
 13 16  2  0
 11 15  2  0
 18 17  1  0
 19 17  1  0
 20 19  1  0
 21 17  1  0
 18 22  1  0
 23 21  1  0
 20 24  1  0
 21 25  1  0
 26 24  1  0
 27 19  2  0
 28 25  2  0
 29 26  2  0
 30 26  1  0
 31 25  1  0
 32 23  1  0
 33 23  1  0
 34 30  1  0
 35 34  2  0
 36 34  1  0
 37 35  1  0
 38 36  2  0
 39 38  1  0
 22 23  1  0
 18 20  1  0
 37 39  2  0
  1 40  1  0
  4 41  1  0
  4 42  1  0
  5 43  1  0
  5 44  1  0
  6 45  1  0
  6 46  1  0
  7 47  1  0
  8 48  1  0
  9 49  1  0
 10 50  1  0
 11 51  1  0
 12 52  1  0
 13 53  1  0
 14 54  1  0
 15 55  1  0
 16 56  1  0
 18 57  1  6
 20 58  1  6
 21 59  1  1
 24 60  1  0
 30 61  1  0
 30 62  1  0
 31 63  1  0
 32 64  1  0
 32 65  1  0
 32 66  1  0
 33 67  1  0
 33 68  1  0
 33 69  1  0
 35 70  1  0
 36 71  1  0
 37 72  1  0
 38 73  1  0
 39 74  1  0
M  END
> <Uni-Dock RESULT> 
ENERGY=   -5.127  LOWER_BOUND=    1.968  UPPER_BOUND=    2.450
INTER + INTRA:          -5.127
INTER:                  -5.127
INTRA:                   0.000
UNBOUND:                 0.000

$$$$

     RDKit          3D

 74 77  0  0  0  0  0  0  0  0999 V2000
   43.8583   10.0866   10.7781 N   0  0  0  0  0  0  0  0  0  0  0  0
   45.6680    9.5918   12.3496 C   0  0  0  0  0  0  0  0  0  0  0  0
   40.7563   12.3199   10.4672 C   0  0  0  0  0  0  0  0  0  0  0  0
   44.2867   10.1793   12.1742 C   0  0  0  0  0  0  0  0  0  0  0  0
   42.4537   10.4649   10.5905 C   0  0  0  0  0  0  0  0  0  0  0  0
   42.1898   11.9649   10.7838 C   0  0  0  0  0  0  0  0  0  0  0  0
   40.3904   12.6996    9.1689 C   0  0  0  0  0  0  0  0  0  0  0  0
   39.7692   12.2438   11.4586 C   0  0  0  0  0  0  0  0  0  0  0  0
   46.7860   10.2332   11.7963 C   0  0  0  0  0  0  0  0  0  0  0  0
   45.8545    8.3940   13.0551 C   0  0  0  0  0  0  0  0  0  0  0  0
   39.0621   13.0055    8.8695 C   0  0  0  0  0  0  0  0  0  0  0  0
   38.4413   12.5513   11.1575 C   0  0  0  0  0  0  0  0  0  0  0  0
   48.0632    9.6930   11.9520 C   0  0  0  0  0  0  0  0  0  0  0  0
   47.1335    7.8553   13.2107 C   0  0  0  0  0  0  0  0  0  0  0  0
   38.0887   12.9332    9.8638 C   0  0  0  0  0  0  0  0  0  0  0  0
   48.2364    8.5057   12.6607 C   0  0  0  0  0  0  0  0  0  0  0  0
   41.4877   12.5450   10.3384 N   0  0  0  0  0  0  0  0  0  0  0  0
   41.9719   11.1599   10.1643 C   0  0  1  0  0  0  0  0  0  0  0  0
   42.6404   12.9628   10.9458 C   0  0  0  0  0  0  0  0  0  0  0  0
   43.3791   11.6594   10.5706 C   0  0  1  0  0  0  0  0  0  0  0  0
   40.2061   12.7411   11.0239 C   0  0  2  0  0  0  0  0  0  0  0  0
   40.9779   10.2120   11.3881 S   0  0  0  0  0  0  0  0  0  0  0  0
   39.5342   11.3583   11.1556 C   0  0  0  0  0  0  0  0  0  0  0  0
   44.0769   10.9531   11.6758 N   0  0  0  0  0  0  0  0  0  0  0  0
   39.3132   13.7763   10.3447 C   0  0  0  0  0  0  0  0  0  0  0  0
   44.5302    9.6628   11.5059 C   0  0  0  0  0  0  0  0  0  0  0  0
   42.8775   13.9351   11.6255 O   0  0  0  0  0  0  0  0  0  0  0  0
   38.2043   14.1156   10.7327 O   0  0  0  0  0  0  0  0  0  0  0  0
   44.3716    9.0532   10.4510 O   0  0  0  0  0  0  0  0  0  0  0  0
   45.2254    9.0654   12.7151 C   0  0  0  0  0  0  0  0  0  0  0  0
   39.8223   14.3163    9.2197 O   0  0  0  0  0  0  0  0  0  0  0  0
   38.6364   11.2655   12.3903 C   0  0  0  0  0  0  0  0  0  0  0  0
   38.7654   10.9093    9.9057 C   0  0  0  0  0  0  0  0  0  0  0  0
   46.6927    8.8142   12.4733 C   0  0  0  0  0  0  0  0  0  0  0  0
   47.1113    7.6360   11.8371 C   0  0  0  0  0  0  0  0  0  0  0  0
   47.6551    9.7597   12.8538 C   0  0  0  0  0  0  0  0  0  0  0  0
   48.4669    7.3991   11.6028 C   0  0  0  0  0  0  0  0  0  0  0  0
   49.0112    9.5209   12.6181 C   0  0  0  0  0  0  0  0  0  0  0  0
   49.4166    8.3403   11.9956 C   0  0  0  0  0  0  0  0  0  0  0  0
   43.9807    9.1201   10.4742 H   0  0  0  0  0  0  0  0  0  0  0  0
   43.5815    9.6528   12.8289 H   0  0  0  0  0  0  0  0  0  0  0  0
   44.3171   11.2232   12.5074 H   0  0  0  0  0  0  0  0  0  0  0  0
   41.8075    9.8674   11.2462 H   0  0  0  0  0  0  0  0  0  0  0  0
   42.1784   10.1895    9.5644 H   0  0  0  0  0  0  0  0  0  0  0  0
   42.8589   12.5534   10.1429 H   0  0  0  0  0  0  0  0  0  0  0  0
   42.4090   12.2710   11.8137 H   0  0  0  0  0  0  0  0  0  0  0  0
   41.1399   12.7591    8.3825 H   0  0  0  0  0  0  0  0  0  0  0  0
   40.0297   11.9468   12.4718 H   0  0  0  0  0  0  0  0  0  0  0  0
   46.6580   11.1553   11.2328 H   0  0  0  0  0  0  0  0  0  0  0  0
   45.0047    7.8725   13.4887 H   0  0  0  0  0  0  0  0  0  0  0  0
   38.7874   13.3014    7.8605 H   0  0  0  0  0  0  0  0  0  0  0  0
   37.6812   12.4923   11.9320 H   0  0  0  0  0  0  0  0  0  0  0  0
   48.9214   10.1974   11.5153 H   0  0  0  0  0  0  0  0  0  0  0  0
   47.2688    6.9266   13.7586 H   0  0  0  0  0  0  0  0  0  0  0  0
   37.0551   13.1728    9.6298 H   0  0  0  0  0  0  0  0  0  0  0  0
   49.2311    8.0848   12.7800 H   0  0  0  0  0  0  0  0  0  0  0  0
   41.8844   10.8108    9.1313 H   0  0  0  0  0  0  0  0  0  0  0  0
   44.0590   11.8112    9.7226 H   0  0  0  0  0  0  0  0  0  0  0  0
   40.4282   13.1502   12.0194 H   0  0  0  0  0  0  0  0  0  0  0  0
   44.2050   11.4169   12.5686 H   0  0  0  0  0  0  0  0  0  0  0  0
   44.7168    8.1265   12.9670 H   0  0  0  0  0  0  0  0  0  0  0  0
   45.0986    9.7129   13.5913 H   0  0  0  0  0  0  0  0  0  0  0  0
   39.1522   14.9680    8.9243 H   0  0  0  0  0  0  0  0  0  0  0  0
   37.7711   11.9309   12.2945 H   0  0  0  0  0  0  0  0  0  0  0  0
   38.2491   10.2495   12.5319 H   0  0  0  0  0  0  0  0  0  0  0  0
   39.1677   11.5537   13.3047 H   0  0  0  0  0  0  0  0  0  0  0  0
   37.8583   11.5080    9.7645 H   0  0  0  0  0  0  0  0  0  0  0  0
   38.4443    9.8639    9.9861 H   0  0  0  0  0  0  0  0  0  0  0  0
   39.3608   11.0084    8.9921 H   0  0  0  0  0  0  0  0  0  0  0  0
   46.3788    6.8996   11.5108 H   0  0  0  0  0  0  0  0  0  0  0  0
   47.3599   10.6886   13.3364 H   0  0  0  0  0  0  0  0  0  0  0  0
   48.7804    6.4816   11.1089 H   0  0  0  0  0  0  0  0  0  0  0  0
   49.7526   10.2578   12.9173 H   0  0  0  0  0  0  0  0  0  0  0  0
   50.4725    8.1557   11.8120 H   0  0  0  0  0  0  0  0  0  0  0  0
  2  4  1  0
  3  6  1  0
  4  1  1  0
  5  1  1  0
  6  5  1  0
  7  3  2  0
  8  3  1  0
  9  2  2  0
 10  2  1  0
 11  7  1  0
 12  8  2  0
 13  9  1  0
 14 10  2  0
 15 12  1  0
 16 14  1  0
 13 16  2  0
 11 15  2  0
 18 17  1  0
 19 17  1  0
 20 19  1  0
 21 17  1  0
 18 22  1  0
 23 21  1  0
 20 24  1  0
 21 25  1  0
 26 24  1  0
 27 19  2  0
 28 25  2  0
 29 26  2  0
 30 26  1  0
 31 25  1  0
 32 23  1  0
 33 23  1  0
 34 30  1  0
 35 34  2  0
 36 34  1  0
 37 35  1  0
 38 36  2  0
 39 38  1  0
 22 23  1  0
 18 20  1  0
 37 39  2  0
  1 40  1  0
  4 41  1  0
  4 42  1  0
  5 43  1  0
  5 44  1  0
  6 45  1  0
  6 46  1  0
  7 47  1  0
  8 48  1  0
  9 49  1  0
 10 50  1  0
 11 51  1  0
 12 52  1  0
 13 53  1  0
 14 54  1  0
 15 55  1  0
 16 56  1  0
 18 57  1  6
 20 58  1  6
 21 59  1  1
 24 60  1  0
 30 61  1  0
 30 62  1  0
 31 63  1  0
 32 64  1  0
 32 65  1  0
 32 66  1  0
 33 67  1  0
 33 68  1  0
 33 69  1  0
 35 70  1  0
 36 71  1  0
 37 72  1  0
 38 73  1  0
 39 74  1  0
M  END
> <Uni-Dock RESULT> 
ENERGY=   -5.105  LOWER_BOUND=    5.679  UPPER_BOUND=    8.170
INTER + INTRA:          -5.105
INTER:                  -5.105
INTRA:                   0.000
UNBOUND:                 0.000

$$$$

     RDKit          3D

 74 77  0  0  0  0  0  0  0  0999 V2000
   48.3221   12.9305   17.1144 N   0  0  0  0  0  0  0  0  0  0  0  0
   47.4379   12.3632   19.3247 C   0  0  0  0  0  0  0  0  0  0  0  0
   48.9238   15.9880   14.8791 C   0  0  0  0  0  0  0  0  0  0  0  0
   47.4877   13.3961   18.2226 C   0  0  0  0  0  0  0  0  0  0  0  0
   48.2475   13.8085   15.9417 C   0  0  0  0  0  0  0  0  0  0  0  0
   48.9269   15.1696   16.1484 C   0  0  0  0  0  0  0  0  0  0  0  0
   49.9907   15.8978   13.9750 C   0  0  0  0  0  0  0  0  0  0  0  0
   47.8410   16.8231   14.5739 C   0  0  0  0  0  0  0  0  0  0  0  0
   48.5809   12.0880   20.0897 C   0  0  0  0  0  0  0  0  0  0  0  0
   46.2568   11.6560   19.5932 C   0  0  0  0  0  0  0  0  0  0  0  0
   49.9784   16.6358   12.7907 C   0  0  0  0  0  0  0  0  0  0  0  0
   47.8310   17.5615   13.3894 C   0  0  0  0  0  0  0  0  0  0  0  0
   48.5415   11.1326   21.1060 C   0  0  0  0  0  0  0  0  0  0  0  0
   46.2189   10.7009   20.6112 C   0  0  0  0  0  0  0  0  0  0  0  0
   48.9000   17.4686   12.4992 C   0  0  0  0  0  0  0  0  0  0  0  0
   47.3602   10.4412   21.3674 C   0  0  0  0  0  0  0  0  0  0  0  0
   49.3832   15.7583   15.4607 N   0  0  0  0  0  0  0  0  0  0  0  0
   48.8281   14.3891   15.4699 C   0  0  1  0  0  0  0  0  0  0  0  0
   49.5506   15.7919   16.8183 C   0  0  0  0  0  0  0  0  0  0  0  0
   49.2721   14.2783   16.9483 C   0  0  1  0  0  0  0  0  0  0  0  0
   48.5966   16.8116   14.8106 C   0  0  2  0  0  0  0  0  0  0  0  0
   47.0471   14.6569   15.0948 S   0  0  0  0  0  0  0  0  0  0  0  0
   47.4560   16.1244   14.0310 C   0  0  0  0  0  0  0  0  0  0  0  0
   48.2541   13.8771   17.9533 N   0  0  0  0  0  0  0  0  0  0  0  0
   49.4390   17.7407   13.9404 C   0  0  0  0  0  0  0  0  0  0  0  0
   47.7432   12.5971   17.9596 C   0  0  0  0  0  0  0  0  0  0  0  0
   49.7121   16.7177   17.5802 O   0  0  0  0  0  0  0  0  0  0  0  0
   49.0112   18.6947   13.3060 O   0  0  0  0  0  0  0  0  0  0  0  0
   48.1003   11.7522   17.1422 O   0  0  0  0  0  0  0  0  0  0  0  0
   46.7137   12.3255   19.0406 C   0  0  0  0  0  0  0  0  0  0  0  0
   50.7496   17.4321   13.8816 O   0  0  0  0  0  0  0  0  0  0  0  0
   46.2125   17.0084   13.9241 C   0  0  0  0  0  0  0  0  0  0  0  0
   47.8617   15.6093   12.6435 C   0  0  0  0  0  0  0  0  0  0  0  0
   47.1997   11.3316   20.0657 C   0  0  0  0  0  0  0  0  0  0  0  0
   47.0877    9.9547   19.8216 C   0  0  0  0  0  0  0  0  0  0  0  0
   47.7919   11.7640   21.2603 C   0  0  0  0  0  0  0  0  0  0  0  0
   47.5419    9.0280   20.7617 C   0  0  0  0  0  0  0  0  0  0  0  0
   48.2460   10.8351   22.1997 C   0  0  0  0  0  0  0  0  0  0  0  0
   48.1186    9.4684   21.9516 C   0  0  0  0  0  0  0  0  0  0  0  0
   48.0010   11.9994   16.8475 H   0  0  0  0  0  0  0  0  0  0  0  0
   46.4689   13.6068   17.8752 H   0  0  0  0  0  0  0  0  0  0  0  0
   47.8818   14.3267   18.6471 H   0  0  0  0  0  0  0  0  0  0  0  0
   47.2036   13.9370   15.6281 H   0  0  0  0  0  0  0  0  0  0  0  0
   48.7483   13.2881   15.1153 H   0  0  0  0  0  0  0  0  0  0  0  0
   49.9616   15.0295   16.4868 H   0  0  0  0  0  0  0  0  0  0  0  0
   48.4242   15.7417   16.9374 H   0  0  0  0  0  0  0  0  0  0  0  0
   50.8387   15.2506   14.1894 H   0  0  0  0  0  0  0  0  0  0  0  0
   47.0001   16.9049   15.2587 H   0  0  0  0  0  0  0  0  0  0  0  0
   49.5100   12.6163   19.8851 H   0  0  0  0  0  0  0  0  0  0  0  0
   45.3579   11.8447   19.0113 H   0  0  0  0  0  0  0  0  0  0  0  0
   50.8111   16.5618   12.0963 H   0  0  0  0  0  0  0  0  0  0  0  0
   46.9887   18.2090   13.1602 H   0  0  0  0  0  0  0  0  0  0  0  0
   49.4349   10.9255   21.6896 H   0  0  0  0  0  0  0  0  0  0  0  0
   45.2995   10.1573   20.8121 H   0  0  0  0  0  0  0  0  0  0  0  0
   48.8922   18.0437   11.5775 H   0  0  0  0  0  0  0  0  0  0  0  0
   47.3308    9.6961   22.1579 H   0  0  0  0  0  0  0  0  0  0  0  0
   49.3483   13.7199   14.7784 H   0  0  0  0  0  0  0  0  0  0  0  0
   50.1990   13.7088   17.0927 H   0  0  0  0  0  0  0  0  0  0  0  0
   48.1822   17.4468   15.6059 H   0  0  0  0  0  0  0  0  0  0  0  0
   47.9185   14.5551   18.6288 H   0  0  0  0  0  0  0  0  0  0  0  0
   45.8036   11.9533   18.5540 H   0  0  0  0  0  0  0  0  0  0  0  0
   46.4212   13.2586   19.5373 H   0  0  0  0  0  0  0  0  0  0  0  0
   51.1491   18.1250   13.3146 H   0  0  0  0  0  0  0  0  0  0  0  0
   46.4126   17.8901   13.3049 H   0  0  0  0  0  0  0  0  0  0  0  0
   45.3749   16.4722   13.4624 H   0  0  0  0  0  0  0  0  0  0  0  0
   45.8818   17.3691   14.9049 H   0  0  0  0  0  0  0  0  0  0  0  0
   48.0418   16.4401   11.9517 H   0  0  0  0  0  0  0  0  0  0  0  0
   47.0721   14.9929   12.1977 H   0  0  0  0  0  0  0  0  0  0  0  0
   48.7785   15.0113   12.6726 H   0  0  0  0  0  0  0  0  0  0  0  0
   46.6539    9.5969   18.8894 H   0  0  0  0  0  0  0  0  0  0  0  0
   47.9051   12.8249   21.4714 H   0  0  0  0  0  0  0  0  0  0  0  0
   47.4497    7.9623   20.5623 H   0  0  0  0  0  0  0  0  0  0  0  0
   48.7030   11.1773   23.1251 H   0  0  0  0  0  0  0  0  0  0  0  0
   48.4730    8.7461   22.6833 H   0  0  0  0  0  0  0  0  0  0  0  0
  2  4  1  0
  3  6  1  0
  4  1  1  0
  5  1  1  0
  6  5  1  0
  7  3  2  0
  8  3  1  0
  9  2  2  0
 10  2  1  0
 11  7  1  0
 12  8  2  0
 13  9  1  0
 14 10  2  0
 15 12  1  0
 16 14  1  0
 13 16  2  0
 11 15  2  0
 18 17  1  0
 19 17  1  0
 20 19  1  0
 21 17  1  0
 18 22  1  0
 23 21  1  0
 20 24  1  0
 21 25  1  0
 26 24  1  0
 27 19  2  0
 28 25  2  0
 29 26  2  0
 30 26  1  0
 31 25  1  0
 32 23  1  0
 33 23  1  0
 34 30  1  0
 35 34  2  0
 36 34  1  0
 37 35  1  0
 38 36  2  0
 39 38  1  0
 22 23  1  0
 18 20  1  0
 37 39  2  0
  1 40  1  0
  4 41  1  0
  4 42  1  0
  5 43  1  0
  5 44  1  0
  6 45  1  0
  6 46  1  0
  7 47  1  0
  8 48  1  0
  9 49  1  0
 10 50  1  0
 11 51  1  0
 12 52  1  0
 13 53  1  0
 14 54  1  0
 15 55  1  0
 16 56  1  0
 18 57  1  6
 20 58  1  6
 21 59  1  1
 24 60  1  0
 30 61  1  0
 30 62  1  0
 31 63  1  0
 32 64  1  0
 32 65  1  0
 32 66  1  0
 33 67  1  0
 33 68  1  0
 33 69  1  0
 35 70  1  0
 36 71  1  0
 37 72  1  0
 38 73  1  0
 39 74  1  0
M  END
> <Uni-Dock RESULT> 
ENERGY=   -5.054  LOWER_BOUND=    6.964  UPPER_BOUND=    8.204
INTER + INTRA:          -5.054
INTER:                  -5.054
INTRA:                   0.000
UNBOUND:                 0.000

$$$$

     RDKit          3D

 74 77  0  0  0  0  0  0  0  0999 V2000
   43.4592   11.6793   10.7125 N   0  0  0  0  0  0  0  0  0  0  0  0
   41.2203   11.4299   11.6689 C   0  0  0  0  0  0  0  0  0  0  0  0
   47.1451   11.4669   11.7498 C   0  0  0  0  0  0  0  0  0  0  0  0
   42.6863   11.6598   11.9549 C   0  0  0  0  0  0  0  0  0  0  0  0
   44.8521   12.0901   10.9185 C   0  0  0  0  0  0  0  0  0  0  0  0
   45.6964   11.0481   11.6656 C   0  0  0  0  0  0  0  0  0  0  0  0
   48.0518   11.0872   10.7511 C   0  0  0  0  0  0  0  0  0  0  0  0
   47.5940   12.2660   12.8095 C   0  0  0  0  0  0  0  0  0  0  0  0
   40.7789   10.1889   11.1865 C   0  0  0  0  0  0  0  0  0  0  0  0
   40.2809   12.4520   11.8682 C   0  0  0  0  0  0  0  0  0  0  0  0
   49.3855   11.4930   10.8154 C   0  0  0  0  0  0  0  0  0  0  0  0
   48.9286   12.6698   12.8728 C   0  0  0  0  0  0  0  0  0  0  0  0
   39.4270    9.9724   10.9170 C   0  0  0  0  0  0  0  0  0  0  0  0
   38.9282   12.2334   11.5990 C   0  0  0  0  0  0  0  0  0  0  0  0
   49.8238   12.2822   11.8768 C   0  0  0  0  0  0  0  0  0  0  0  0
   38.5023   10.9939   11.1254 C   0  0  0  0  0  0  0  0  0  0  0  0
   46.6894   10.8619   11.5810 N   0  0  0  0  0  0  0  0  0  0  0  0
   45.7103   11.6952   10.8530 C   0  0  1  0  0  0  0  0  0  0  0  0
   45.7316   10.0236   12.0833 C   0  0  0  0  0  0  0  0  0  0  0  0
   44.6472   10.6115   11.1538 C   0  0  1  0  0  0  0  0  0  0  0  0
   47.6075   11.5348   12.5058 C   0  0  2  0  0  0  0  0  0  0  0  0
   45.6860   13.2574   11.8242 S   0  0  0  0  0  0  0  0  0  0  0  0
   47.4798   13.0533   12.2633 C   0  0  0  0  0  0  0  0  0  0  0  0
   43.3808   11.0389   11.8025 N   0  0  0  0  0  0  0  0  0  0  0  0
   49.0448   11.0320   12.3982 C   0  0  0  0  0  0  0  0  0  0  0  0
   42.4694   11.8124   11.1168 C   0  0  0  0  0  0  0  0  0  0  0  0
   45.7591    9.2420   13.0062 O   0  0  0  0  0  0  0  0  0  0  0  0
   49.9854   11.4335   13.0685 O   0  0  0  0  0  0  0  0  0  0  0  0
   42.6689   12.1784    9.9610 O   0  0  0  0  0  0  0  0  0  0  0  0
   41.2209   12.1737   11.8998 C   0  0  0  0  0  0  0  0  0  0  0  0
   49.2475   10.0848   11.4611 O   0  0  0  0  0  0  0  0  0  0  0  0
   47.7667   13.8678   13.5256 C   0  0  0  0  0  0  0  0  0  0  0  0
   48.3202   13.5775   11.0911 C   0  0  0  0  0  0  0  0  0  0  0  0
   39.9774   11.5368   11.3317 C   0  0  0  0  0  0  0  0  0  0  0  0
   39.3008   12.1416   10.2618 C   0  0  0  0  0  0  0  0  0  0  0  0
   39.4946   10.3240   11.8423 C   0  0  0  0  0  0  0  0  0  0  0  0
   38.1534   11.5550    9.7252 C   0  0  0  0  0  0  0  0  0  0  0  0
   38.3464    9.7384   11.3037 C   0  0  0  0  0  0  0  0  0  0  0  0
   37.6750   10.3549   10.2479 C   0  0  0  0  0  0  0  0  0  0  0  0
   43.0138   12.3395   10.0745 H   0  0  0  0  0  0  0  0  0  0  0  0
   42.8071   12.6050   12.4982 H   0  0  0  0  0  0  0  0  0  0  0  0
   43.0319   10.8600   12.6201 H   0  0  0  0  0  0  0  0  0  0  0  0
   44.8912   13.0616   11.4276 H   0  0  0  0  0  0  0  0  0  0  0  0
   45.2920   12.2523    9.9262 H   0  0  0  0  0  0  0  0  0  0  0  0
   45.6293   10.0746   11.1630 H   0  0  0  0  0  0  0  0  0  0  0  0
   45.3155   10.8919   12.6820 H   0  0  0  0  0  0  0  0  0  0  0  0
   47.7229   10.4721    9.9160 H   0  0  0  0  0  0  0  0  0  0  0  0
   46.9066   12.5764   13.5930 H   0  0  0  0  0  0  0  0  0  0  0  0
   41.4961    9.3894   11.0115 H   0  0  0  0  0  0  0  0  0  0  0  0
   40.5964   13.4257   12.2351 H   0  0  0  0  0  0  0  0  0  0  0  0
   50.0826   11.1920   10.0379 H   0  0  0  0  0  0  0  0  0  0  0  0
   49.2703   13.2878   13.6990 H   0  0  0  0  0  0  0  0  0  0  0  0
   39.0977    9.0075   10.5399 H   0  0  0  0  0  0  0  0  0  0  0  0
   38.2072   13.0312   11.7559 H   0  0  0  0  0  0  0  0  0  0  0  0
   50.8627   12.5963   11.9265 H   0  0  0  0  0  0  0  0  0  0  0  0
   37.4499   10.8251   10.9137 H   0  0  0  0  0  0  0  0  0  0  0  0
   45.9639   11.8147    9.7956 H   0  0  0  0  0  0  0  0  0  0  0  0
   44.4387    9.9460   10.3064 H   0  0  0  0  0  0  0  0  0  0  0  0
   47.2831   11.2859   13.5258 H   0  0  0  0  0  0  0  0  0  0  0  0
   43.1931   10.7750   12.7637 H   0  0  0  0  0  0  0  0  0  0  0  0
   41.1234   13.2664   11.8939 H   0  0  0  0  0  0  0  0  0  0  0  0
   41.3331   11.8940   12.9544 H   0  0  0  0  0  0  0  0  0  0  0  0
   50.1975    9.8538   11.5340 H   0  0  0  0  0  0  0  0  0  0  0  0
   48.8174   13.7721   13.8213 H   0  0  0  0  0  0  0  0  0  0  0  0
   47.5704   14.9353   13.3699 H   0  0  0  0  0  0  0  0  0  0  0  0
   47.1590   13.5340   14.3744 H   0  0  0  0  0  0  0  0  0  0  0  0
   49.3897   13.5493   11.3292 H   0  0  0  0  0  0  0  0  0  0  0  0
   48.0762   14.6206   10.8574 H   0  0  0  0  0  0  0  0  0  0  0  0
   48.1786   12.9870   10.1799 H   0  0  0  0  0  0  0  0  0  0  0  0
   39.6727   13.0709    9.8334 H   0  0  0  0  0  0  0  0  0  0  0  0
   40.0057    9.8244   12.6623 H   0  0  0  0  0  0  0  0  0  0  0  0
   37.6363   12.0329    8.8957 H   0  0  0  0  0  0  0  0  0  0  0  0
   37.9764    8.7983   11.7057 H   0  0  0  0  0  0  0  0  0  0  0  0
   36.7815    9.8978    9.8289 H   0  0  0  0  0  0  0  0  0  0  0  0
  2  4  1  0
  3  6  1  0
  4  1  1  0
  5  1  1  0
  6  5  1  0
  7  3  2  0
  8  3  1  0
  9  2  2  0
 10  2  1  0
 11  7  1  0
 12  8  2  0
 13  9  1  0
 14 10  2  0
 15 12  1  0
 16 14  1  0
 13 16  2  0
 11 15  2  0
 18 17  1  0
 19 17  1  0
 20 19  1  0
 21 17  1  0
 18 22  1  0
 23 21  1  0
 20 24  1  0
 21 25  1  0
 26 24  1  0
 27 19  2  0
 28 25  2  0
 29 26  2  0
 30 26  1  0
 31 25  1  0
 32 23  1  0
 33 23  1  0
 34 30  1  0
 35 34  2  0
 36 34  1  0
 37 35  1  0
 38 36  2  0
 39 38  1  0
 22 23  1  0
 18 20  1  0
 37 39  2  0
  1 40  1  0
  4 41  1  0
  4 42  1  0
  5 43  1  0
  5 44  1  0
  6 45  1  0
  6 46  1  0
  7 47  1  0
  8 48  1  0
  9 49  1  0
 10 50  1  0
 11 51  1  0
 12 52  1  0
 13 53  1  0
 14 54  1  0
 15 55  1  0
 16 56  1  0
 18 57  1  6
 20 58  1  6
 21 59  1  1
 24 60  1  0
 30 61  1  0
 30 62  1  0
 31 63  1  0
 32 64  1  0
 32 65  1  0
 32 66  1  0
 33 67  1  0
 33 68  1  0
 33 69  1  0
 35 70  1  0
 36 71  1  0
 37 72  1  0
 38 73  1  0
 39 74  1  0
M  END
> <Uni-Dock RESULT> 
ENERGY=   -4.950  LOWER_BOUND=    4.675  UPPER_BOUND=    5.563
INTER + INTRA:          -4.950
INTER:                  -4.950
INTRA:                   0.000
UNBOUND:                 0.000

$$$$
