
     RDKit          3D

 52 55  0  0  0  0  0  0  0  0999 V2000
    3.2465    1.3950   -1.0493 C   0  0  0  0  0  0  0  0  0  0  0  0
    3.7123    0.1392   -0.6015 N   0  0  0  0  0  0  0  0  0  0  0  0
    4.2856    2.3132   -0.8406 N   0  0  0  0  0  0  0  0  0  0  0  0
    5.0099    0.3245   -0.0734 C   0  0  0  0  0  0  0  0  0  0  0  0
    5.3524    1.6654   -0.2393 C   0  0  0  0  0  0  0  0  0  0  0  0
    2.9697   -1.1176   -0.5011 C   0  0  0  0  0  0  0  0  0  0  0  0
    0.0314   -1.3544   -0.4375 N   0  0  0  0  0  0  0  0  0  0  0  0
    2.1659    1.6877   -1.5293 O   0  0  0  0  0  0  0  0  0  0  0  0
    2.1520   -1.2100    0.7897 C   0  0  0  0  0  0  0  0  0  0  0  0
    2.1471   -1.4825   -1.7455 C   0  0  0  0  0  0  0  0  0  0  0  0
   -4.0978    0.1141    0.7867 C   0  0  0  0  0  0  0  0  0  0  0  0
   -5.4885    0.5732    0.4831 C   0  0  0  0  0  0  0  0  0  0  0  0
   -3.3090    0.9042    1.3005 O   0  0  0  0  0  0  0  0  0  0  0  0
    0.6861   -1.0324   -1.7171 C   0  0  0  0  0  0  0  0  0  0  0  0
    0.7386   -0.6570    0.6497 C   0  0  0  0  0  0  0  0  0  0  0  0
   -5.7866    1.9379    0.6301 C   0  0  0  0  0  0  0  0  0  0  0  0
   -6.4959   -0.3092    0.0671 C   0  0  0  0  0  0  0  0  0  0  0  0
   -8.0556    1.5275   -0.0557 C   0  0  0  0  0  0  0  0  0  0  0  0
   -7.7806    0.1725   -0.2030 C   0  0  0  0  0  0  0  0  0  0  0  0
   -7.0709    2.4147    0.3591 C   0  0  0  0  0  0  0  0  0  0  0  0
   -9.2880    1.9818   -0.3156 F   0  0  0  0  0  0  0  0  0  0  0  0
   -1.3861   -0.9439   -0.4932 C   0  0  0  0  0  0  0  0  0  0  0  0
    5.8810   -0.5580    0.5319 C   0  0  0  0  0  0  0  0  0  0  0  0
    6.5586    2.1868    0.1706 C   0  0  0  0  0  0  0  0  0  0  0  0
   -2.2192   -1.6004    0.6191 C   0  0  0  0  0  0  0  0  0  0  0  0
   -3.7168   -1.3212    0.4610 C   0  0  0  0  0  0  0  0  0  0  0  0
    7.1172   -0.0553    0.9585 C   0  0  0  0  0  0  0  0  0  0  0  0
    7.4531    1.3023    0.7782 C   0  0  0  0  0  0  0  0  0  0  0  0
    4.2128    3.2911   -1.0663 H   0  0  0  0  0  0  0  0  0  0  0  0
    3.7410   -1.8961   -0.4427 H   0  0  0  0  0  0  0  0  0  0  0  0
    2.6654   -0.7046    1.6165 H   0  0  0  0  0  0  0  0  0  0  0  0
    2.0776   -2.2682    1.0765 H   0  0  0  0  0  0  0  0  0  0  0  0
    2.6336   -1.1143   -2.6567 H   0  0  0  0  0  0  0  0  0  0  0  0
    2.1427   -2.5791   -1.8258 H   0  0  0  0  0  0  0  0  0  0  0  0
    0.1706   -1.5600   -2.5304 H   0  0  0  0  0  0  0  0  0  0  0  0
    0.5941    0.0326   -1.9453 H   0  0  0  0  0  0  0  0  0  0  0  0
    0.2342   -0.8235    1.6073 H   0  0  0  0  0  0  0  0  0  0  0  0
    0.7613    0.4275    0.4866 H   0  0  0  0  0  0  0  0  0  0  0  0
   -5.0171    2.6364    0.9561 H   0  0  0  0  0  0  0  0  0  0  0  0
   -6.3123   -1.3733   -0.0480 H   0  0  0  0  0  0  0  0  0  0  0  0
   -8.5695   -0.5006   -0.5252 H   0  0  0  0  0  0  0  0  0  0  0  0
   -7.3054    3.4688    0.4701 H   0  0  0  0  0  0  0  0  0  0  0  0
   -1.8140   -1.2728   -1.4495 H   0  0  0  0  0  0  0  0  0  0  0  0
   -1.4790    0.1487   -0.4675 H   0  0  0  0  0  0  0  0  0  0  0  0
    5.6378   -1.6024    0.6820 H   0  0  0  0  0  0  0  0  0  0  0  0
    6.8066    3.2324    0.0354 H   0  0  0  0  0  0  0  0  0  0  0  0
   -1.8883   -1.2665    1.6084 H   0  0  0  0  0  0  0  0  0  0  0  0
   -2.0685   -2.6869    0.5816 H   0  0  0  0  0  0  0  0  0  0  0  0
   -4.0232   -1.5578   -0.5637 H   0  0  0  0  0  0  0  0  0  0  0  0
   -4.2637   -1.9718    1.1533 H   0  0  0  0  0  0  0  0  0  0  0  0
    7.8310   -0.7221    1.4385 H   0  0  0  0  0  0  0  0  0  0  0  0
    8.4203    1.6641    1.1211 H   0  0  0  0  0  0  0  0  0  0  0  0
  2  1  1  0
  3  1  1  0
  4  2  1  0
  5  3  1  0
  6  2  1  0
  7 14  1  0
  8  1  2  0
  9  6  1  0
 10  6  1  0
 11 26  1  0
 12 11  1  0
 13 11  2  0
 14 10  1  0
 15  9  1  0
 16 12  2  0
 17 12  1  0
 18 19  1  0
 19 17  2  0
 20 16  1  0
 21 18  1  0
 22  7  1  0
 23  4  2  0
 24  5  2  0
 25 22  1  0
 26 25  1  0
 27 23  1  0
 28 24  1  0
  5  4  1  0
 28 27  2  0
 15  7  1  0
 20 18  2  0
  3 29  1  0
  6 30  1  0
  9 31  1  0
  9 32  1  0
 10 33  1  0
 10 34  1  0
 14 35  1  0
 14 36  1  0
 15 37  1  0
 15 38  1  0
 16 39  1  0
 17 40  1  0
 19 41  1  0
 20 42  1  0
 22 43  1  0
 22 44  1  0
 23 45  1  0
 24 46  1  0
 25 47  1  0
 25 48  1  0
 26 49  1  0
 26 50  1  0
 27 51  1  0
 28 52  1  0
M  END
$$$$
