
     RDKit          3D

 52 55  0  0  0  0  0  0  0  0999 V2000
    3.9625   -1.7363   -0.9939 C   0  0  0  0  0  0  0  0  0  0  0  0
    3.8671   -0.6754   -0.0641 N   0  0  0  0  0  0  0  0  0  0  0  0
    5.3086   -1.8148   -1.3793 N   0  0  0  0  0  0  0  0  0  0  0  0
    5.1385   -0.0820    0.0540 C   0  0  0  0  0  0  0  0  0  0  0  0
    6.0201   -0.8027   -0.7516 C   0  0  0  0  0  0  0  0  0  0  0  0
    2.6411   -0.1342    0.5055 C   0  0  0  0  0  0  0  0  0  0  0  0
   -0.3196   -0.1460    0.0123 N   0  0  0  0  0  0  0  0  0  0  0  0
    3.0758   -2.4625   -1.4094 O   0  0  0  0  0  0  0  0  0  0  0  0
    1.6947   -1.2105    1.0695 C   0  0  0  0  0  0  0  0  0  0  0  0
    1.9273    0.7922   -0.4864 C   0  0  0  0  0  0  0  0  0  0  0  0
   -4.0351    0.8046   -0.8551 C   0  0  0  0  0  0  0  0  0  0  0  0
   -5.5117    0.7420   -0.6214 C   0  0  0  0  0  0  0  0  0  0  0  0
   -3.5001    1.9051   -0.9874 O   0  0  0  0  0  0  0  0  0  0  0  0
    0.5067    1.0663   -0.0036 C   0  0  0  0  0  0  0  0  0  0  0  0
    0.4395   -1.3878    0.2149 C   0  0  0  0  0  0  0  0  0  0  0  0
   -6.2601    1.9162   -0.8103 C   0  0  0  0  0  0  0  0  0  0  0  0
   -6.1667   -0.4284   -0.2126 C   0  0  0  0  0  0  0  0  0  0  0  0
   -8.2731    0.7484   -0.2026 C   0  0  0  0  0  0  0  0  0  0  0  0
   -7.5498   -0.4223   -0.0058 C   0  0  0  0  0  0  0  0  0  0  0  0
   -7.6411    1.9184   -0.6025 C   0  0  0  0  0  0  0  0  0  0  0  0
   -9.5967    0.7474   -0.0013 F   0  0  0  0  0  0  0  0  0  0  0  0
   -1.4761    0.0020    0.9013 C   0  0  0  0  0  0  0  0  0  0  0  0
    5.5683    1.0099    0.7786 C   0  0  0  0  0  0  0  0  0  0  0  0
    7.3541   -0.4849   -0.8679 C   0  0  0  0  0  0  0  0  0  0  0  0
   -2.6688   -0.8602    0.4587 C   0  0  0  0  0  0  0  0  0  0  0  0
   -3.2227   -0.4756   -0.9139 C   0  0  0  0  0  0  0  0  0  0  0  0
    6.9220    1.3555    0.6789 C   0  0  0  0  0  0  0  0  0  0  0  0
    7.8056    0.6151   -0.1342 C   0  0  0  0  0  0  0  0  0  0  0  0
    5.6563   -2.4814   -2.0478 H   0  0  0  0  0  0  0  0  0  0  0  0
    2.9395    0.4686    1.3726 H   0  0  0  0  0  0  0  0  0  0  0  0
    2.2068   -2.1716    1.1950 H   0  0  0  0  0  0  0  0  0  0  0  0
    1.3802   -0.9070    2.0775 H   0  0  0  0  0  0  0  0  0  0  0  0
    1.9041    0.3541   -1.4928 H   0  0  0  0  0  0  0  0  0  0  0  0
    2.4813    1.7344   -0.5760 H   0  0  0  0  0  0  0  0  0  0  0  0
    0.5630    1.5143    0.9978 H   0  0  0  0  0  0  0  0  0  0  0  0
    0.0361    1.8056   -0.6620 H   0  0  0  0  0  0  0  0  0  0  0  0
    0.7217   -1.7648   -0.7743 H   0  0  0  0  0  0  0  0  0  0  0  0
   -0.1819   -2.1763    0.6542 H   0  0  0  0  0  0  0  0  0  0  0  0
   -5.7679    2.8361   -1.1242 H   0  0  0  0  0  0  0  0  0  0  0  0
   -5.6286   -1.3549   -0.0381 H   0  0  0  0  0  0  0  0  0  0  0  0
   -8.0672   -1.3233    0.3095 H   0  0  0  0  0  0  0  0  0  0  0  0
   -8.2220    2.8234   -0.7486 H   0  0  0  0  0  0  0  0  0  0  0  0
   -1.8095    1.0468    0.9228 H   0  0  0  0  0  0  0  0  0  0  0  0
   -1.1995   -0.2485    1.9332 H   0  0  0  0  0  0  0  0  0  0  0  0
    4.9011    1.5889    1.4045 H   0  0  0  0  0  0  0  0  0  0  0  0
    8.0257   -1.0528   -1.4998 H   0  0  0  0  0  0  0  0  0  0  0  0
   -2.3817   -1.9173    0.4374 H   0  0  0  0  0  0  0  0  0  0  0  0
   -3.4550   -0.7716    1.2181 H   0  0  0  0  0  0  0  0  0  0  0  0
   -3.8401   -1.2846   -1.3169 H   0  0  0  0  0  0  0  0  0  0  0  0
   -2.4247   -0.3378   -1.6525 H   0  0  0  0  0  0  0  0  0  0  0  0
    7.3001    2.2109    1.2351 H   0  0  0  0  0  0  0  0  0  0  0  0
    8.8516    0.9092   -0.1922 H   0  0  0  0  0  0  0  0  0  0  0  0
  2  1  1  0
  3  1  1  0
  4  2  1  0
  5  3  1  0
  6  2  1  0
  7 14  1  0
  8  1  2  0
  9  6  1  0
 10  6  1  0
 11 26  1  0
 12 11  1  0
 13 11  2  0
 14 10  1  0
 15  9  1  0
 16 12  2  0
 17 12  1  0
 18 19  1  0
 19 17  2  0
 20 16  1  0
 21 18  1  0
 22  7  1  0
 23  4  2  0
 24  5  2  0
 25 22  1  0
 26 25  1  0
 27 23  1  0
 28 24  1  0
  5  4  1  0
 28 27  2  0
 15  7  1  0
 20 18  2  0
  3 29  1  0
  6 30  1  0
  9 31  1  0
  9 32  1  0
 10 33  1  0
 10 34  1  0
 14 35  1  0
 14 36  1  0
 15 37  1  0
 15 38  1  0
 16 39  1  0
 17 40  1  0
 19 41  1  0
 20 42  1  0
 22 43  1  0
 22 44  1  0
 23 45  1  0
 24 46  1  0
 25 47  1  0
 25 48  1  0
 26 49  1  0
 26 50  1  0
 27 51  1  0
 28 52  1  0
M  END
$$$$
