
     RDKit          3D

 52 55  0  0  0  0  0  0  0  0999 V2000
   -4.5694   -1.3994    1.4439 C   0  0  0  0  0  0  0  0  0  0  0  0
   -4.1231   -0.3960    0.5540 N   0  0  0  0  0  0  0  0  0  0  0  0
   -5.9696   -1.4121    1.3642 N   0  0  0  0  0  0  0  0  0  0  0  0
   -5.2483    0.1999   -0.0421 C   0  0  0  0  0  0  0  0  0  0  0  0
   -6.3814   -0.4388    0.4640 C   0  0  0  0  0  0  0  0  0  0  0  0
   -2.7389   -0.0161    0.3249 C   0  0  0  0  0  0  0  0  0  0  0  0
    0.0067    0.3923    0.3236 N   0  0  0  0  0  0  0  0  0  0  0  0
   -3.9001   -2.1254    2.1599 O   0  0  0  0  0  0  0  0  0  0  0  0
   -1.8966   -1.1834   -0.1922 C   0  0  0  0  0  0  0  0  0  0  0  0
   -2.0965    0.6001    1.5790 C   0  0  0  0  0  0  0  0  0  0  0  0
    4.3997   -0.3740   -0.5754 C   0  0  0  0  0  0  0  0  0  0  0  0
    5.8716   -0.3059   -0.3164 C   0  0  0  0  0  0  0  0  0  0  0  0
    3.8446   -1.4705   -0.5751 O   0  0  0  0  0  0  0  0  0  0  0  0
   -0.5913    0.3308    1.6609 C   0  0  0  0  0  0  0  0  0  0  0  0
   -0.4722   -0.7190   -0.5221 C   0  0  0  0  0  0  0  0  0  0  0  0
    6.5968    0.8905   -0.4144 C   0  0  0  0  0  0  0  0  0  0  0  0
    6.5422   -1.4899    0.0325 C   0  0  0  0  0  0  0  0  0  0  0  0
    8.6178   -0.2832    0.1854 C   0  0  0  0  0  0  0  0  0  0  0  0
    7.9159   -1.4775    0.2842 C   0  0  0  0  0  0  0  0  0  0  0  0
    7.9722    0.8984   -0.1615 C   0  0  0  0  0  0  0  0  0  0  0  0
    9.9348   -0.2684    0.4259 F   0  0  0  0  0  0  0  0  0  0  0  0
    1.4773    0.4220    0.4040 C   0  0  0  0  0  0  0  0  0  0  0  0
   -5.3591    1.2232   -0.9594 C   0  0  0  0  0  0  0  0  0  0  0  0
   -7.6606   -0.0981    0.0871 C   0  0  0  0  0  0  0  0  0  0  0  0
    2.1305    0.7247   -0.9539 C   0  0  0  0  0  0  0  0  0  0  0  0
    3.6452    0.9194   -0.8396 C   0  0  0  0  0  0  0  0  0  0  0  0
   -6.6502    1.5901   -1.3607 C   0  0  0  0  0  0  0  0  0  0  0  0
   -7.7883    0.9365   -0.8435 C   0  0  0  0  0  0  0  0  0  0  0  0
   -6.5511   -2.0340    1.9003 H   0  0  0  0  0  0  0  0  0  0  0  0
   -2.7270    0.7516   -0.4585 H   0  0  0  0  0  0  0  0  0  0  0  0
   -1.8494   -1.9803    0.5603 H   0  0  0  0  0  0  0  0  0  0  0  0
   -2.3561   -1.6260   -1.0843 H   0  0  0  0  0  0  0  0  0  0  0  0
   -2.2816    1.6823    1.5654 H   0  0  0  0  0  0  0  0  0  0  0  0
   -2.5632    0.2295    2.4993 H   0  0  0  0  0  0  0  0  0  0  0  0
   -0.4001   -0.6431    2.1308 H   0  0  0  0  0  0  0  0  0  0  0  0
   -0.1535    1.0904    2.3204 H   0  0  0  0  0  0  0  0  0  0  0  0
   -0.4501   -0.3844   -1.5661 H   0  0  0  0  0  0  0  0  0  0  0  0
    0.1875   -1.5935   -0.4506 H   0  0  0  0  0  0  0  0  0  0  0  0
    6.1212    1.8273   -0.6892 H   0  0  0  0  0  0  0  0  0  0  0  0
    5.9960   -2.4289    0.1100 H   0  0  0  0  0  0  0  0  0  0  0  0
    8.4380   -2.3900    0.5547 H   0  0  0  0  0  0  0  0  0  0  0  0
    8.5449    1.8182   -0.2345 H   0  0  0  0  0  0  0  0  0  0  0  0
    1.8585   -0.5171    0.8226 H   0  0  0  0  0  0  0  0  0  0  0  0
    1.7750    1.2202    1.0963 H   0  0  0  0  0  0  0  0  0  0  0  0
   -4.4952    1.7351   -1.3643 H   0  0  0  0  0  0  0  0  0  0  0  0
   -8.5303   -0.6028    0.4894 H   0  0  0  0  0  0  0  0  0  0  0  0
    1.6964    1.6477   -1.3593 H   0  0  0  0  0  0  0  0  0  0  0  0
    1.9166   -0.0733   -1.6744 H   0  0  0  0  0  0  0  0  0  0  0  0
    4.0104    1.3262   -1.7897 H   0  0  0  0  0  0  0  0  0  0  0  0
    3.8605    1.6364   -0.0400 H   0  0  0  0  0  0  0  0  0  0  0  0
   -6.7790    2.3935   -2.0836 H   0  0  0  0  0  0  0  0  0  0  0  0
   -8.7780    1.2446   -1.1746 H   0  0  0  0  0  0  0  0  0  0  0  0
  2  1  1  0
  3  1  1  0
  4  2  1  0
  5  3  1  0
  6  2  1  0
  7 14  1  0
  8  1  2  0
  9  6  1  0
 10  6  1  0
 11 26  1  0
 12 11  1  0
 13 11  2  0
 14 10  1  0
 15  9  1  0
 16 12  2  0
 17 12  1  0
 18 19  1  0
 19 17  2  0
 20 16  1  0
 21 18  1  0
 22  7  1  0
 23  4  2  0
 24  5  2  0
 25 22  1  0
 26 25  1  0
 27 23  1  0
 28 24  1  0
  5  4  1  0
 28 27  2  0
 15  7  1  0
 20 18  2  0
  3 29  1  0
  6 30  1  0
  9 31  1  0
  9 32  1  0
 10 33  1  0
 10 34  1  0
 14 35  1  0
 14 36  1  0
 15 37  1  0
 15 38  1  0
 16 39  1  0
 17 40  1  0
 19 41  1  0
 20 42  1  0
 22 43  1  0
 22 44  1  0
 23 45  1  0
 24 46  1  0
 25 47  1  0
 25 48  1  0
 26 49  1  0
 26 50  1  0
 27 51  1  0
 28 52  1  0
M  END
$$$$
