
     RDKit          2D

 28 31  0  0  0  0  0  0  0  0999 V2000
    5.9698   -5.4027    0.0000 C   0  0  0  0  0  0  0  0  0  0  0  0
    5.4886   -4.7438    0.0000 N   0  0  0  0  0  0  0  0  0  0  0  0
    5.4886   -6.0844    0.0000 N   0  0  0  0  0  0  0  0  0  0  0  0
    4.6980   -4.9844    0.0000 C   0  0  0  0  0  0  0  0  0  0  0  0
    4.6980   -5.8266    0.0000 C   0  0  0  0  0  0  0  0  0  0  0  0
    5.8667   -3.9245    0.0000 C   0  0  0  0  0  0  0  0  0  0  0  0
    6.6917   -2.4980    0.0000 N   0  0  0  0  0  0  0  0  0  0  0  0
    6.7948   -5.3855    0.0000 O   0  0  0  0  0  0  0  0  0  0  0  0
    5.4542   -3.2198    0.0000 C   0  0  0  0  0  0  0  0  0  0  0  0
    6.6917   -3.9245    0.0000 C   0  0  0  0  0  0  0  0  0  0  0  0
    9.1609   -2.4922    0.0000 C   0  0  0  0  0  0  0  0  0  0  0  0
    9.5620   -3.2198    0.0000 C   0  0  0  0  0  0  0  0  0  0  0  0
    9.5620   -1.7875    0.0000 O   0  0  0  0  0  0  0  0  0  0  0  0
    7.0984   -3.2198    0.0000 C   0  0  0  0  0  0  0  0  0  0  0  0
    5.8667   -2.5152    0.0000 C   0  0  0  0  0  0  0  0  0  0  0  0
    9.1323   -3.9417    0.0000 C   0  0  0  0  0  0  0  0  0  0  0  0
   10.3698   -3.2198    0.0000 C   0  0  0  0  0  0  0  0  0  0  0  0
   10.3355   -4.6578    0.0000 C   0  0  0  0  0  0  0  0  0  0  0  0
   10.7652   -3.9417    0.0000 C   0  0  0  0  0  0  0  0  0  0  0  0
    9.5105   -4.6578    0.0000 C   0  0  0  0  0  0  0  0  0  0  0  0
   10.7136   -5.3625    0.0000 F   0  0  0  0  0  0  0  0  0  0  0  0
    7.1042   -1.7761    0.0000 C   0  0  0  0  0  0  0  0  0  0  0  0
    3.9761   -4.5605    0.0000 C   0  0  0  0  0  0  0  0  0  0  0  0
    3.9761   -6.2448    0.0000 C   0  0  0  0  0  0  0  0  0  0  0  0
    7.9406   -1.7761    0.0000 C   0  0  0  0  0  0  0  0  0  0  0  0
    8.3417   -2.4808    0.0000 C   0  0  0  0  0  0  0  0  0  0  0  0
    3.2714   -4.9844    0.0000 C   0  0  0  0  0  0  0  0  0  0  0  0
    3.2714   -5.8266    0.0000 C   0  0  0  0  0  0  0  0  0  0  0  0
  2  1  1  0
  3  1  1  0
  4  2  1  0
  5  3  1  0
  6  2  1  0
  7 14  1  0
  8  1  2  0
  9  6  1  0
 10  6  1  0
 11 26  1  0
 12 11  1  0
 13 11  2  0
 14 10  1  0
 15  9  1  0
 16 12  2  0
 17 12  1  0
 18 19  1  0
 19 17  2  0
 20 16  1  0
 21 18  1  0
 22  7  1  0
 23  4  2  0
 24  5  2  0
 25 22  1  0
 26 25  1  0
 27 23  1  0
 28 24  1  0
  5  4  1  0
 28 27  2  0
 15  7  1  0
 20 18  2  0
M  END
> <chembl_id>
CHEMBL297302

> <chembl_pref_name>
BENPERIDOL
