
     RDKit          3D

 28 31  0  0  0  0  0  0  0  0999 V2000
   -4.5281   -0.9589   -1.3657 C   0  0  0  0  0  0  0  0  0  0  0  0
   -3.8925   -0.2270   -0.4063 N   0  0  0  0  0  0  0  0  0  0  0  0
   -5.8355   -1.0690   -0.9958 N   0  0  0  0  0  0  0  0  0  0  0  0
   -4.8106    0.1104    0.5461 C   0  0  0  0  0  0  0  0  0  0  0  0
   -6.0141   -0.4271    0.1564 C   0  0  0  0  0  0  0  0  0  0  0  0
   -2.5195    0.1629   -0.3375 C   0  0  0  0  0  0  0  0  0  0  0  0
    0.2368    0.6223   -0.1337 N   0  0  0  0  0  0  0  0  0  0  0  0
   -3.9880   -1.4425   -2.4104 O   0  0  0  0  0  0  0  0  0  0  0  0
   -1.6431   -0.3327   -1.4268 C   0  0  0  0  0  0  0  0  0  0  0  0
   -1.9124    0.2472    1.0080 C   0  0  0  0  0  0  0  0  0  0  0  0
    3.6519    0.0975    0.0598 C   0  0  0  0  0  0  0  0  0  0  0  0
    5.1108   -0.0078   -0.0495 C   0  0  0  0  0  0  0  0  0  0  0  0
    3.1080    0.2806    1.1841 O   0  0  0  0  0  0  0  0  0  0  0  0
   -0.6091    1.0144    0.9417 C   0  0  0  0  0  0  0  0  0  0  0  0
   -0.3967    0.5278   -1.4184 C   0  0  0  0  0  0  0  0  0  0  0  0
    5.7432   -0.2321   -1.2685 C   0  0  0  0  0  0  0  0  0  0  0  0
    5.8798    0.0920    1.1162 C   0  0  0  0  0  0  0  0  0  0  0  0
    7.8847   -0.2572   -0.1502 C   0  0  0  0  0  0  0  0  0  0  0  0
    7.2480   -0.0352    1.0403 C   0  0  0  0  0  0  0  0  0  0  0  0
    7.1093   -0.3536   -1.3101 C   0  0  0  0  0  0  0  0  0  0  0  0
    9.2367   -0.3876   -0.1825 F   0  0  0  0  0  0  0  0  0  0  0  0
    0.8928   -0.6390    0.1784 C   0  0  0  0  0  0  0  0  0  0  0  0
   -4.7037    0.8493    1.7365 C   0  0  0  0  0  0  0  0  0  0  0  0
   -7.1054   -0.2129    0.9774 C   0  0  0  0  0  0  0  0  0  0  0  0
    1.7887   -1.0778   -0.9673 C   0  0  0  0  0  0  0  0  0  0  0  0
    2.8496   -0.0245   -1.1904 C   0  0  0  0  0  0  0  0  0  0  0  0
   -5.7877    1.0572    2.5455 C   0  0  0  0  0  0  0  0  0  0  0  0
   -6.9940    0.5001    2.1227 C   0  0  0  0  0  0  0  0  0  0  0  0
  2  1  1  0
  3  1  1  0
  4  2  1  0
  5  3  1  0
  6  2  1  0
  7 14  1  0
  8  1  2  0
  9  6  1  0
 10  6  1  0
 11 26  1  0
 12 11  1  0
 13 11  2  0
 14 10  1  0
 15  9  1  0
 16 12  2  0
 17 12  1  0
 18 19  1  0
 19 17  2  0
 20 16  1  0
 21 18  1  0
 22  7  1  0
 23  4  2  0
 24  5  2  0
 25 22  1  0
 26 25  1  0
 27 23  1  0
 28 24  1  0
  5  4  1  0
 28 27  2  0
 15  7  1  0
 20 18  2  0
M  END
