
     RDKit          3D

 52 55  0  0  0  0  0  0  0  0999 V2000
   -2.2764    1.3892   -0.9885 C   0  0  0  0  0  0  0  0  0  0  0  0
   -2.9223    0.3102   -0.3403 N   0  0  0  0  0  0  0  0  0  0  0  0
   -3.2520    2.3768   -1.1907 N   0  0  0  0  0  0  0  0  0  0  0  0
   -4.2655    0.6669   -0.1219 C   0  0  0  0  0  0  0  0  0  0  0  0
   -4.4571    1.9408   -0.6583 C   0  0  0  0  0  0  0  0  0  0  0  0
   -2.2844   -0.9069    0.1351 C   0  0  0  0  0  0  0  0  0  0  0  0
    0.0592   -2.6361    0.6762 N   0  0  0  0  0  0  0  0  0  0  0  0
   -1.1068    1.4845   -1.3207 O   0  0  0  0  0  0  0  0  0  0  0  0
   -1.5568   -1.6579   -0.9862 C   0  0  0  0  0  0  0  0  0  0  0  0
   -1.3383   -0.6296    1.3074 C   0  0  0  0  0  0  0  0  0  0  0  0
    3.5885    0.1224    0.7902 C   0  0  0  0  0  0  0  0  0  0  0  0
    4.5087    0.9504   -0.0432 C   0  0  0  0  0  0  0  0  0  0  0  0
    2.7763    0.6861    1.5206 O   0  0  0  0  0  0  0  0  0  0  0  0
   -0.6360   -1.9135    1.7556 C   0  0  0  0  0  0  0  0  0  0  0  0
   -0.8655   -2.9050   -0.4363 C   0  0  0  0  0  0  0  0  0  0  0  0
    5.6920    0.4315   -0.5870 C   0  0  0  0  0  0  0  0  0  0  0  0
    4.1720    2.2939   -0.2721 C   0  0  0  0  0  0  0  0  0  0  0  0
    6.1696    2.5764   -1.5825 C   0  0  0  0  0  0  0  0  0  0  0  0
    5.0033    3.1066   -1.0453 C   0  0  0  0  0  0  0  0  0  0  0  0
    6.5217    1.2493   -1.3597 C   0  0  0  0  0  0  0  0  0  0  0  0
    6.9692    3.3542   -2.3233 F   0  0  0  0  0  0  0  0  0  0  0  0
    1.2768   -1.9441    0.2169 C   0  0  0  0  0  0  0  0  0  0  0  0
   -5.2990   -0.0078    0.4930 C   0  0  0  0  0  0  0  0  0  0  0  0
   -5.6675    2.5947   -0.6146 C   0  0  0  0  0  0  0  0  0  0  0  0
    2.4374   -2.0977    1.2131 C   0  0  0  0  0  0  0  0  0  0  0  0
    3.7035   -1.3920    0.7187 C   0  0  0  0  0  0  0  0  0  0  0  0
   -6.5427    0.6345    0.5505 C   0  0  0  0  0  0  0  0  0  0  0  0
   -6.7251    1.9213    0.0021 C   0  0  0  0  0  0  0  0  0  0  0  0
   -3.0618    3.2629   -1.6275 H   0  0  0  0  0  0  0  0  0  0  0  0
   -3.0719   -1.5775    0.4999 H   0  0  0  0  0  0  0  0  0  0  0  0
   -2.2757   -1.9500   -1.7616 H   0  0  0  0  0  0  0  0  0  0  0  0
   -0.8178   -1.0179   -1.4801 H   0  0  0  0  0  0  0  0  0  0  0  0
   -0.5982    0.1331    1.0393 H   0  0  0  0  0  0  0  0  0  0  0  0
   -1.9071   -0.2155    2.1493 H   0  0  0  0  0  0  0  0  0  0  0  0
   -1.3858   -2.5909    2.1860 H   0  0  0  0  0  0  0  0  0  0  0  0
    0.0440   -1.6880    2.5835 H   0  0  0  0  0  0  0  0  0  0  0  0
   -0.3422   -3.4265   -1.2473 H   0  0  0  0  0  0  0  0  0  0  0  0
   -1.6291   -3.6126   -0.0870 H   0  0  0  0  0  0  0  0  0  0  0  0
    5.9951   -0.5969   -0.4136 H   0  0  0  0  0  0  0  0  0  0  0  0
    3.2568    2.7094    0.1477 H   0  0  0  0  0  0  0  0  0  0  0  0
    4.7466    4.1451   -1.2293 H   0  0  0  0  0  0  0  0  0  0  0  0
    7.4421    0.8621   -1.7862 H   0  0  0  0  0  0  0  0  0  0  0  0
    1.0880   -0.8884   -0.0038 H   0  0  0  0  0  0  0  0  0  0  0  0
    1.6106   -2.3976   -0.7260 H   0  0  0  0  0  0  0  0  0  0  0  0
   -5.1754   -0.9948    0.9202 H   0  0  0  0  0  0  0  0  0  0  0  0
   -5.7996    3.5846   -1.0336 H   0  0  0  0  0  0  0  0  0  0  0  0
    2.6595   -3.1650    1.3385 H   0  0  0  0  0  0  0  0  0  0  0  0
    2.1678   -1.7117    2.2016 H   0  0  0  0  0  0  0  0  0  0  0  0
    3.9110   -1.7045   -0.3102 H   0  0  0  0  0  0  0  0  0  0  0  0
    4.5471   -1.6875    1.3529 H   0  0  0  0  0  0  0  0  0  0  0  0
   -7.3836    0.1342    1.0271 H   0  0  0  0  0  0  0  0  0  0  0  0
   -7.7029    2.3947    0.0635 H   0  0  0  0  0  0  0  0  0  0  0  0
  2  1  1  0
  3  1  1  0
  4  2  1  0
  5  3  1  0
  6  2  1  0
  7 14  1  0
  8  1  2  0
  9  6  1  0
 10  6  1  0
 11 26  1  0
 12 11  1  0
 13 11  2  0
 14 10  1  0
 15  9  1  0
 16 12  2  0
 17 12  1  0
 18 19  1  0
 19 17  2  0
 20 16  1  0
 21 18  1  0
 22  7  1  0
 23  4  2  0
 24  5  2  0
 25 22  1  0
 26 25  1  0
 27 23  1  0
 28 24  1  0
  5  4  1  0
 28 27  2  0
 15  7  1  0
 20 18  2  0
  3 29  1  0
  6 30  1  0
  9 31  1  0
  9 32  1  0
 10 33  1  0
 10 34  1  0
 14 35  1  0
 14 36  1  0
 15 37  1  0
 15 38  1  0
 16 39  1  0
 17 40  1  0
 19 41  1  0
 20 42  1  0
 22 43  1  0
 22 44  1  0
 23 45  1  0
 24 46  1  0
 25 47  1  0
 25 48  1  0
 26 49  1  0
 26 50  1  0
 27 51  1  0
 28 52  1  0
M  END
$$$$
