
     RDKit          3D

 52 55  0  0  0  0  0  0  0  0999 V2000
    2.7610   -0.4554   -2.6794 C   0  0  0  0  0  0  0  0  0  0  0  0
    2.7109   -0.2444   -1.2816 N   0  0  0  0  0  0  0  0  0  0  0  0
    4.0709   -0.8553   -2.9783 N   0  0  0  0  0  0  0  0  0  0  0  0
    3.9903   -0.4915   -0.7509 C   0  0  0  0  0  0  0  0  0  0  0  0
    4.8180   -0.8725   -1.8086 C   0  0  0  0  0  0  0  0  0  0  0  0
    1.5350    0.2306   -0.5764 C   0  0  0  0  0  0  0  0  0  0  0  0
   -0.4232    1.1008    1.2070 N   0  0  0  0  0  0  0  0  0  0  0  0
    1.8640   -0.3176   -3.4942 O   0  0  0  0  0  0  0  0  0  0  0  0
    1.0328   -0.7415    0.5035 C   0  0  0  0  0  0  0  0  0  0  0  0
    1.7042    1.6496   -0.0321 C   0  0  0  0  0  0  0  0  0  0  0  0
   -4.0918    0.7800    1.1460 C   0  0  0  0  0  0  0  0  0  0  0  0
   -4.5589   -0.2571    0.1780 C   0  0  0  0  0  0  0  0  0  0  0  0
   -4.4113    0.6765    2.3297 O   0  0  0  0  0  0  0  0  0  0  0  0
    0.3971    2.1562    0.5882 C   0  0  0  0  0  0  0  0  0  0  0  0
    0.3898   -0.0157    1.6886 C   0  0  0  0  0  0  0  0  0  0  0  0
   -4.5298   -0.0565   -1.2092 C   0  0  0  0  0  0  0  0  0  0  0  0
   -5.0591   -1.4656    0.6895 C   0  0  0  0  0  0  0  0  0  0  0  0
   -5.4713   -2.2516   -1.5465 C   0  0  0  0  0  0  0  0  0  0  0  0
   -5.5135   -2.4641   -0.1744 C   0  0  0  0  0  0  0  0  0  0  0  0
   -4.9850   -1.0591   -2.0707 C   0  0  0  0  0  0  0  0  0  0  0  0
   -5.9116   -3.2058   -2.3766 F   0  0  0  0  0  0  0  0  0  0  0  0
   -1.3059    1.6253    2.2605 C   0  0  0  0  0  0  0  0  0  0  0  0
    4.4793   -0.4110    0.5358 C   0  0  0  0  0  0  0  0  0  0  0  0
    6.1476   -1.1877   -1.6417 C   0  0  0  0  0  0  0  0  0  0  0  0
   -2.3922    2.5735    1.7255 C   0  0  0  0  0  0  0  0  0  0  0  0
   -3.2672    1.9486    0.6339 C   0  0  0  0  0  0  0  0  0  0  0  0
    5.8296   -0.7265    0.7349 C   0  0  0  0  0  0  0  0  0  0  0  0
    6.6547   -1.1109   -0.3422 C   0  0  0  0  0  0  0  0  0  0  0  0
    4.3880   -1.0659   -3.9094 H   0  0  0  0  0  0  0  0  0  0  0  0
    0.7360    0.2898   -1.3296 H   0  0  0  0  0  0  0  0  0  0  0  0
    1.8292   -1.3911    0.8819 H   0  0  0  0  0  0  0  0  0  0  0  0
    0.2990   -1.4172    0.0436 H   0  0  0  0  0  0  0  0  0  0  0  0
    2.0212    2.3322   -0.8298 H   0  0  0  0  0  0  0  0  0  0  0  0
    2.4937    1.6766    0.7276 H   0  0  0  0  0  0  0  0  0  0  0  0
    0.6569    2.9392    1.3124 H   0  0  0  0  0  0  0  0  0  0  0  0
   -0.1990    2.6349   -0.1979 H   0  0  0  0  0  0  0  0  0  0  0  0
   -0.2265   -0.7455    2.2281 H   0  0  0  0  0  0  0  0  0  0  0  0
    1.1577    0.3325    2.3917 H   0  0  0  0  0  0  0  0  0  0  0  0
   -4.1691    0.8707   -1.6446 H   0  0  0  0  0  0  0  0  0  0  0  0
   -5.0960   -1.6327    1.7646 H   0  0  0  0  0  0  0  0  0  0  0  0
   -5.9006   -3.4004    0.2151 H   0  0  0  0  0  0  0  0  0  0  0  0
   -4.9665   -0.9160   -3.1471 H   0  0  0  0  0  0  0  0  0  0  0  0
   -1.8053    0.7902    2.7663 H   0  0  0  0  0  0  0  0  0  0  0  0
   -0.7204    2.1417    3.0322 H   0  0  0  0  0  0  0  0  0  0  0  0
    3.8595   -0.1198    1.3740 H   0  0  0  0  0  0  0  0  0  0  0  0
    6.7762   -1.4795   -2.4738 H   0  0  0  0  0  0  0  0  0  0  0  0
   -3.0201    2.8924    2.5667 H   0  0  0  0  0  0  0  0  0  0  0  0
   -1.9290    3.4846    1.3285 H   0  0  0  0  0  0  0  0  0  0  0  0
   -2.6329    1.6300   -0.1983 H   0  0  0  0  0  0  0  0  0  0  0  0
   -3.9672    2.7040    0.2589 H   0  0  0  0  0  0  0  0  0  0  0  0
    6.2510   -0.6746    1.7372 H   0  0  0  0  0  0  0  0  0  0  0  0
    7.7001   -1.3493   -0.1562 H   0  0  0  0  0  0  0  0  0  0  0  0
  2  1  1  0
  3  1  1  0
  4  2  1  0
  5  3  1  0
  6  2  1  0
  7 14  1  0
  8  1  2  0
  9  6  1  0
 10  6  1  0
 11 26  1  0
 12 11  1  0
 13 11  2  0
 14 10  1  0
 15  9  1  0
 16 12  2  0
 17 12  1  0
 18 19  1  0
 19 17  2  0
 20 16  1  0
 21 18  1  0
 22  7  1  0
 23  4  2  0
 24  5  2  0
 25 22  1  0
 26 25  1  0
 27 23  1  0
 28 24  1  0
  5  4  1  0
 28 27  2  0
 15  7  1  0
 20 18  2  0
  3 29  1  0
  6 30  1  0
  9 31  1  0
  9 32  1  0
 10 33  1  0
 10 34  1  0
 14 35  1  0
 14 36  1  0
 15 37  1  0
 15 38  1  0
 16 39  1  0
 17 40  1  0
 19 41  1  0
 20 42  1  0
 22 43  1  0
 22 44  1  0
 23 45  1  0
 24 46  1  0
 25 47  1  0
 25 48  1  0
 26 49  1  0
 26 50  1  0
 27 51  1  0
 28 52  1  0
M  END
$$$$
