
     RDKit          3D

 52 55  0  0  0  0  0  0  0  0999 V2000
   -4.5648    0.0949   -1.9729 C   0  0  0  0  0  0  0  0  0  0  0  0
   -3.7663    0.1833   -0.8101 N   0  0  0  0  0  0  0  0  0  0  0  0
   -5.8871    0.3329   -1.5703 N   0  0  0  0  0  0  0  0  0  0  0  0
   -4.6024    0.4791    0.2806 C   0  0  0  0  0  0  0  0  0  0  0  0
   -5.9091    0.5672   -0.2019 C   0  0  0  0  0  0  0  0  0  0  0  0
   -2.3237    0.0141   -0.7529 C   0  0  0  0  0  0  0  0  0  0  0  0
    0.3878   -0.2945   -1.1635 N   0  0  0  0  0  0  0  0  0  0  0  0
   -4.2092   -0.1364   -3.1166 O   0  0  0  0  0  0  0  0  0  0  0  0
   -1.8875   -1.3749   -1.2222 C   0  0  0  0  0  0  0  0  0  0  0  0
   -1.5843    1.1093   -1.5416 C   0  0  0  0  0  0  0  0  0  0  0  0
    3.3576   -0.0811    1.2513 C   0  0  0  0  0  0  0  0  0  0  0  0
    4.8340   -0.0369    1.4980 C   0  0  0  0  0  0  0  0  0  0  0  0
    2.6955   -0.9842    1.7619 O   0  0  0  0  0  0  0  0  0  0  0  0
   -0.2451    0.6264   -2.1079 C   0  0  0  0  0  0  0  0  0  0  0  0
   -0.3736   -1.5532   -1.0593 C   0  0  0  0  0  0  0  0  0  0  0  0
    5.6866    0.8728    0.8563 C   0  0  0  0  0  0  0  0  0  0  0  0
    5.3780   -0.9580    2.4096 C   0  0  0  0  0  0  0  0  0  0  0  0
    7.5759   -0.0556    2.0361 C   0  0  0  0  0  0  0  0  0  0  0  0
    6.7484   -0.9663    2.6790 C   0  0  0  0  0  0  0  0  0  0  0  0
    7.0587    0.8614    1.1285 C   0  0  0  0  0  0  0  0  0  0  0  0
    8.8903   -0.0610    2.2915 F   0  0  0  0  0  0  0  0  0  0  0  0
    1.7965   -0.5720   -1.4693 C   0  0  0  0  0  0  0  0  0  0  0  0
   -4.3234    0.6711    1.6171 C   0  0  0  0  0  0  0  0  0  0  0  0
   -6.9862    0.8458    0.6084 C   0  0  0  0  0  0  0  0  0  0  0  0
    2.7346    0.5898   -1.1055 C   0  0  0  0  0  0  0  0  0  0  0  0
    2.7011    0.9697    0.3753 C   0  0  0  0  0  0  0  0  0  0  0  0
   -5.4019    0.9557    2.4646 C   0  0  0  0  0  0  0  0  0  0  0  0
   -6.7187    1.0421    1.9659 C   0  0  0  0  0  0  0  0  0  0  0  0
   -6.6699    0.3309   -2.2022 H   0  0  0  0  0  0  0  0  0  0  0  0
   -2.0158    0.1048    0.2960 H   0  0  0  0  0  0  0  0  0  0  0  0
   -2.1537   -1.5179   -2.2770 H   0  0  0  0  0  0  0  0  0  0  0  0
   -2.4142   -2.1560   -0.6607 H   0  0  0  0  0  0  0  0  0  0  0  0
   -1.4189    1.9636   -0.8717 H   0  0  0  0  0  0  0  0  0  0  0  0
   -2.1899    1.4936   -2.3707 H   0  0  0  0  0  0  0  0  0  0  0  0
   -0.3927    0.1441   -3.0833 H   0  0  0  0  0  0  0  0  0  0  0  0
    0.3726    1.5124   -2.2890 H   0  0  0  0  0  0  0  0  0  0  0  0
   -0.1710   -1.9896   -0.0736 H   0  0  0  0  0  0  0  0  0  0  0  0
   -0.0400   -2.2845   -1.8074 H   0  0  0  0  0  0  0  0  0  0  0  0
    5.3173    1.5962    0.1362 H   0  0  0  0  0  0  0  0  0  0  0  0
    4.7334   -1.6752    2.9161 H   0  0  0  0  0  0  0  0  0  0  0  0
    7.1703   -1.6763    3.3834 H   0  0  0  0  0  0  0  0  0  0  0  0
    7.7278    1.5613    0.6367 H   0  0  0  0  0  0  0  0  0  0  0  0
    2.1320   -1.4541   -0.9087 H   0  0  0  0  0  0  0  0  0  0  0  0
    1.9168   -0.8207   -2.5317 H   0  0  0  0  0  0  0  0  0  0  0  0
   -3.3182    0.6076    2.0149 H   0  0  0  0  0  0  0  0  0  0  0  0
   -7.9948    0.9109    0.2193 H   0  0  0  0  0  0  0  0  0  0  0  0
    3.7532    0.3049   -1.3951 H   0  0  0  0  0  0  0  0  0  0  0  0
    2.4865    1.4743   -1.7025 H   0  0  0  0  0  0  0  0  0  0  0  0
    1.6743    1.1148    0.7309 H   0  0  0  0  0  0  0  0  0  0  0  0
    3.1901    1.9364    0.5336 H   0  0  0  0  0  0  0  0  0  0  0  0
   -5.2220    1.1124    3.5265 H   0  0  0  0  0  0  0  0  0  0  0  0
   -7.5353    1.2643    2.6498 H   0  0  0  0  0  0  0  0  0  0  0  0
  2  1  1  0
  3  1  1  0
  4  2  1  0
  5  3  1  0
  6  2  1  0
  7 14  1  0
  8  1  2  0
  9  6  1  0
 10  6  1  0
 11 26  1  0
 12 11  1  0
 13 11  2  0
 14 10  1  0
 15  9  1  0
 16 12  2  0
 17 12  1  0
 18 19  1  0
 19 17  2  0
 20 16  1  0
 21 18  1  0
 22  7  1  0
 23  4  2  0
 24  5  2  0
 25 22  1  0
 26 25  1  0
 27 23  1  0
 28 24  1  0
  5  4  1  0
 28 27  2  0
 15  7  1  0
 20 18  2  0
  3 29  1  0
  6 30  1  0
  9 31  1  0
  9 32  1  0
 10 33  1  0
 10 34  1  0
 14 35  1  0
 14 36  1  0
 15 37  1  0
 15 38  1  0
 16 39  1  0
 17 40  1  0
 19 41  1  0
 20 42  1  0
 22 43  1  0
 22 44  1  0
 23 45  1  0
 24 46  1  0
 25 47  1  0
 25 48  1  0
 26 49  1  0
 26 50  1  0
 27 51  1  0
 28 52  1  0
M  END
$$$$
