
     RDKit          3D

 52 55  0  0  0  0  0  0  0  0999 V2000
   -4.9540   -0.6917   -1.0055 C   0  0  0  0  0  0  0  0  0  0  0  0
   -4.0111   -0.2230   -0.0623 N   0  0  0  0  0  0  0  0  0  0  0  0
   -6.2226   -0.4345   -0.4660 N   0  0  0  0  0  0  0  0  0  0  0  0
   -4.7094    0.3098    1.0356 C   0  0  0  0  0  0  0  0  0  0  0  0
   -6.0736    0.1737    0.7734 C   0  0  0  0  0  0  0  0  0  0  0  0
   -2.5660   -0.2818   -0.2042 C   0  0  0  0  0  0  0  0  0  0  0  0
    0.0800   -0.7175   -0.9522 N   0  0  0  0  0  0  0  0  0  0  0  0
   -4.7424   -1.2219   -2.0835 O   0  0  0  0  0  0  0  0  0  0  0  0
   -2.0758    0.5117   -1.4163 C   0  0  0  0  0  0  0  0  0  0  0  0
   -2.0507   -1.7300   -0.2590 C   0  0  0  0  0  0  0  0  0  0  0  0
    4.8039    0.8629   -1.3299 C   0  0  0  0  0  0  0  0  0  0  0  0
    5.6524    0.7342   -0.1066 C   0  0  0  0  0  0  0  0  0  0  0  0
    4.9196    1.8601   -2.0420 O   0  0  0  0  0  0  0  0  0  0  0  0
   -0.7989   -1.8777   -1.1280 C   0  0  0  0  0  0  0  0  0  0  0  0
   -0.5437    0.5102   -1.4828 C   0  0  0  0  0  0  0  0  0  0  0  0
    5.3638   -0.1757    0.9200 C   0  0  0  0  0  0  0  0  0  0  0  0
    6.7734    1.5724    0.0113 C   0  0  0  0  0  0  0  0  0  0  0  0
    7.3080    0.5774    2.1348 C   0  0  0  0  0  0  0  0  0  0  0  0
    7.6034    1.4909    1.1315 C   0  0  0  0  0  0  0  0  0  0  0  0
    6.1964   -0.2529    2.0408 C   0  0  0  0  0  0  0  0  0  0  0  0
    8.1022    0.4971    3.2102 F   0  0  0  0  0  0  0  0  0  0  0  0
    1.4070   -0.9633   -1.5371 C   0  0  0  0  0  0  0  0  0  0  0  0
   -4.2647    0.8861    2.2069 C   0  0  0  0  0  0  0  0  0  0  0  0
   -7.0474    0.5977    1.6491 C   0  0  0  0  0  0  0  0  0  0  0  0
    2.4189    0.1295   -1.1741 C   0  0  0  0  0  0  0  0  0  0  0  0
    3.8129   -0.2274   -1.6795 C   0  0  0  0  0  0  0  0  0  0  0  0
   -5.2353    1.3269    3.1162 C   0  0  0  0  0  0  0  0  0  0  0  0
   -6.6114    1.1844    2.8402 C   0  0  0  0  0  0  0  0  0  0  0  0
   -7.0831   -0.6685   -0.9320 H   0  0  0  0  0  0  0  0  0  0  0  0
   -2.1213    0.1867    0.6822 H   0  0  0  0  0  0  0  0  0  0  0  0
   -2.4770    0.0782   -2.3411 H   0  0  0  0  0  0  0  0  0  0  0  0
   -2.4415    1.5450   -1.3748 H   0  0  0  0  0  0  0  0  0  0  0  0
   -2.8136   -2.4206   -0.6355 H   0  0  0  0  0  0  0  0  0  0  0  0
   -1.8331   -2.0579    0.7658 H   0  0  0  0  0  0  0  0  0  0  0  0
   -1.0754   -2.0024   -2.1835 H   0  0  0  0  0  0  0  0  0  0  0  0
   -0.2914   -2.8018   -0.8239 H   0  0  0  0  0  0  0  0  0  0  0  0
   -0.2564    0.6887   -2.5274 H   0  0  0  0  0  0  0  0  0  0  0  0
   -0.1706    1.3595   -0.8973 H   0  0  0  0  0  0  0  0  0  0  0  0
    4.4936   -0.8241    0.8824 H   0  0  0  0  0  0  0  0  0  0  0  0
    7.0057    2.2918   -0.7721 H   0  0  0  0  0  0  0  0  0  0  0  0
    8.4732    2.1339    1.2257 H   0  0  0  0  0  0  0  0  0  0  0  0
    5.9826   -0.9519    2.8440 H   0  0  0  0  0  0  0  0  0  0  0  0
    1.3399   -1.0696   -2.6282 H   0  0  0  0  0  0  0  0  0  0  0  0
    1.7943   -1.9143   -1.1478 H   0  0  0  0  0  0  0  0  0  0  0  0
   -3.2124    1.0023    2.4334 H   0  0  0  0  0  0  0  0  0  0  0  0
   -8.1023    0.4853    1.4313 H   0  0  0  0  0  0  0  0  0  0  0  0
    2.4411    0.2687   -0.0864 H   0  0  0  0  0  0  0  0  0  0  0  0
    2.1187    1.0919   -1.6059 H   0  0  0  0  0  0  0  0  0  0  0  0
    4.1498   -1.1956   -1.2958 H   0  0  0  0  0  0  0  0  0  0  0  0
    3.8095   -0.3284   -2.7722 H   0  0  0  0  0  0  0  0  0  0  0  0
   -4.9242    1.7879    4.0521 H   0  0  0  0  0  0  0  0  0  0  0  0
   -7.3413    1.5371    3.5662 H   0  0  0  0  0  0  0  0  0  0  0  0
  2  1  1  0
  3  1  1  0
  4  2  1  0
  5  3  1  0
  6  2  1  0
  7 14  1  0
  8  1  2  0
  9  6  1  0
 10  6  1  0
 11 26  1  0
 12 11  1  0
 13 11  2  0
 14 10  1  0
 15  9  1  0
 16 12  2  0
 17 12  1  0
 18 19  1  0
 19 17  2  0
 20 16  1  0
 21 18  1  0
 22  7  1  0
 23  4  2  0
 24  5  2  0
 25 22  1  0
 26 25  1  0
 27 23  1  0
 28 24  1  0
  5  4  1  0
 28 27  2  0
 15  7  1  0
 20 18  2  0
  3 29  1  0
  6 30  1  0
  9 31  1  0
  9 32  1  0
 10 33  1  0
 10 34  1  0
 14 35  1  0
 14 36  1  0
 15 37  1  0
 15 38  1  0
 16 39  1  0
 17 40  1  0
 19 41  1  0
 20 42  1  0
 22 43  1  0
 22 44  1  0
 23 45  1  0
 24 46  1  0
 25 47  1  0
 25 48  1  0
 26 49  1  0
 26 50  1  0
 27 51  1  0
 28 52  1  0
M  END
$$$$
