
     RDKit          3D

 98 97  0  0  0  0  0  0  0  0999 V2000
   -6.0030   -0.0534    0.0003 C   0  0  0  0  0  0  0  0  0  0  0  0
   -6.4718    0.0106   -1.3999 N   0  0  0  0  0  0  0  0  0  0  0  0
   -4.4995    0.3319    0.0788 C   0  0  0  0  0  0  0  0  0  0  0  0
   -2.1153   -0.1186   -0.5461 C   0  0  0  0  0  0  0  0  0  0  0  0
    0.5174    0.8626   -0.3281 C   0  0  0  0  0  0  0  0  0  0  0  0
   -3.5358   -0.6203   -0.6417 C   0  0  0  0  0  0  0  0  0  0  0  0
   -1.5412    0.6110   -1.5936 C   0  0  0  0  0  0  0  0  0  0  0  0
   -1.3650   -0.3481    0.6129 C   0  0  0  0  0  0  0  0  0  0  0  0
   -0.2349    1.0940   -1.4863 C   0  0  0  0  0  0  0  0  0  0  0  0
   -0.0612    0.1392    0.7209 C   0  0  0  0  0  0  0  0  0  0  0  0
   -6.8302    0.9784    0.8252 C   0  0  0  0  0  0  0  0  0  0  0  0
   -6.2646   -1.4751    0.5748 C   0  0  0  0  0  0  0  0  0  0  0  0
   -5.7155   -1.6356    1.8807 O   0  0  0  0  0  0  0  0  0  0  0  0
   -6.4965    0.9529    2.2164 O   0  0  0  0  0  0  0  0  0  0  0  0
    1.9290    1.3845   -0.2120 C   0  0  0  0  0  0  0  0  0  0  0  0
    2.9321    0.6748   -1.1301 C   0  0  0  0  0  0  0  0  0  0  0  0
    7.4373   -0.4673    0.7191 C   0  0  0  0  0  0  0  0  0  0  0  0
    6.0989   -0.9211    0.1330 C   0  0  0  0  0  0  0  0  0  0  0  0
    3.1251   -0.8223   -0.8570 C   0  0  0  0  0  0  0  0  0  0  0  0
    3.5916   -1.1895    0.5551 C   0  0  0  0  0  0  0  0  0  0  0  0
    4.9027   -0.5423    1.0100 C   0  0  0  0  0  0  0  0  0  0  0  0
    7.5865    1.0448    0.7927 C   0  0  0  0  0  0  0  0  0  0  0  0
   -7.6150    0.7414    0.0523 S   0  0  0  0  0  0  0  0  0  0  0  0
   -6.1758    0.1522   -0.4133 O   0  0  0  0  0  0  0  0  0  0  0  0
   -8.0214   -0.2193    1.2816 O   0  0  0  0  0  0  0  0  0  0  0  0
   -8.5814    0.4983   -0.9939 O   0  0  0  0  0  0  0  0  0  0  0  0
   -7.4420    2.0558    0.6263 O   0  0  0  0  0  0  0  0  0  0  0  0
   -5.0284    0.5375    0.3254 C   0  0  0  0  0  0  0  0  0  0  0  0
   -3.8288   -0.2516   -0.1861 C   0  0  0  0  0  0  0  0  0  0  0  0
   -2.5511    0.1451    0.5493 C   0  0  0  0  0  0  0  0  0  0  0  0
   -1.3384   -0.6276    0.0279 C   0  0  0  0  0  0  0  0  0  0  0  0
   -0.0615   -0.2108    0.7600 C   0  0  0  0  0  0  0  0  0  0  0  0
    1.1555   -0.9789    0.2399 C   0  0  0  0  0  0  0  0  0  0  0  0
    2.4408   -0.6687    1.0134 C   0  0  0  0  0  0  0  0  0  0  0  0
    2.9058    0.7902    0.9667 C   0  0  0  0  0  0  0  0  0  0  0  0
    3.1422    1.3616   -0.4352 C   0  0  0  0  0  0  0  0  0  0  0  0
    4.1449    0.5935   -1.3021 C   0  0  0  0  0  0  0  0  0  0  0  0
    5.5521    0.5475   -0.7049 C   0  0  0  0  0  0  0  0  0  0  0  0
    6.5272   -0.1415   -1.6462 C   0  0  0  0  0  0  0  0  0  0  0  0
   -6.1581    0.8772   -1.8336 H   0  0  0  0  0  0  0  0  0  0  0  0
   -6.0626   -0.7450   -1.9460 H   0  0  0  0  0  0  0  0  0  0  0  0
   -4.1918    0.3993    1.1307 H   0  0  0  0  0  0  0  0  0  0  0  0
   -4.3709    1.3455   -0.3287 H   0  0  0  0  0  0  0  0  0  0  0  0
   -3.8099   -0.7303   -1.6980 H   0  0  0  0  0  0  0  0  0  0  0  0
   -3.5802   -1.6265   -0.2065 H   0  0  0  0  0  0  0  0  0  0  0  0
   -2.1050    0.8092   -2.5013 H   0  0  0  0  0  0  0  0  0  0  0  0
   -1.7935   -0.9076    1.4426 H   0  0  0  0  0  0  0  0  0  0  0  0
    0.1928    1.6552   -2.3138 H   0  0  0  0  0  0  0  0  0  0  0  0
    0.4977   -0.0509    1.6339 H   0  0  0  0  0  0  0  0  0  0  0  0
   -6.6826    1.9997    0.4553 H   0  0  0  0  0  0  0  0  0  0  0  0
   -7.9010    0.7553    0.7504 H   0  0  0  0  0  0  0  0  0  0  0  0
   -5.8185   -2.2470   -0.0621 H   0  0  0  0  0  0  0  0  0  0  0  0
   -7.3379   -1.6868    0.6271 H   0  0  0  0  0  0  0  0  0  0  0  0
   -6.1136   -0.9241    2.4248 H   0  0  0  0  0  0  0  0  0  0  0  0
   -5.6956    1.4977    2.3281 H   0  0  0  0  0  0  0  0  0  0  0  0
    1.9145    2.4529   -0.4638 H   0  0  0  0  0  0  0  0  0  0  0  0
    2.2688    1.3359    0.8294 H   0  0  0  0  0  0  0  0  0  0  0  0
    2.6198    0.7925   -2.1751 H   0  0  0  0  0  0  0  0  0  0  0  0
    3.8982    1.1868   -1.0484 H   0  0  0  0  0  0  0  0  0  0  0  0
    7.5680   -0.8956    1.7197 H   0  0  0  0  0  0  0  0  0  0  0  0
    8.2444   -0.8679    0.0941 H   0  0  0  0  0  0  0  0  0  0  0  0
    5.9820   -0.4973   -0.8706 H   0  0  0  0  0  0  0  0  0  0  0  0
    6.1279   -2.0113    0.0151 H   0  0  0  0  0  0  0  0  0  0  0  0
    2.1852   -1.3504   -1.0582 H   0  0  0  0  0  0  0  0  0  0  0  0
    3.8437   -1.2145   -1.5859 H   0  0  0  0  0  0  0  0  0  0  0  0
    3.6987   -2.2808    0.6069 H   0  0  0  0  0  0  0  0  0  0  0  0
    2.8103   -0.9329    1.2787 H   0  0  0  0  0  0  0  0  0  0  0  0
    5.0984   -0.8681    2.0393 H   0  0  0  0  0  0  0  0  0  0  0  0
    4.7853    0.5461    1.0450 H   0  0  0  0  0  0  0  0  0  0  0  0
    7.4456    1.5012   -0.1921 H   0  0  0  0  0  0  0  0  0  0  0  0
    6.8660    1.4871    1.4871 H   0  0  0  0  0  0  0  0  0  0  0  0
    8.5884    1.3040    1.1473 H   0  0  0  0  0  0  0  0  0  0  0  0
   -8.8032    0.1778    1.7143 H   0  0  0  0  0  0  0  0  0  0  0  0
   -5.1873    0.3346    1.3891 H   0  0  0  0  0  0  0  0  0  0  0  0
   -4.8575    1.6117    0.1899 H   0  0  0  0  0  0  0  0  0  0  0  0
   -3.7164   -0.0847   -1.2649 H   0  0  0  0  0  0  0  0  0  0  0  0
   -4.0225   -1.3250   -0.0654 H   0  0  0  0  0  0  0  0  0  0  0  0
   -2.6737   -0.0431    1.6234 H   0  0  0  0  0  0  0  0  0  0  0  0
   -2.3785    1.2211    0.4267 H   0  0  0  0  0  0  0  0  0  0  0  0
   -1.2203   -0.4426   -1.0470 H   0  0  0  0  0  0  0  0  0  0  0  0
   -1.5052   -1.7043    0.1558 H   0  0  0  0  0  0  0  0  0  0  0  0
    0.0892    0.8661    0.6267 H   0  0  0  0  0  0  0  0  0  0  0  0
   -0.1794   -0.3933    1.8351 H   0  0  0  0  0  0  0  0  0  0  0  0
    0.9608   -2.0548    0.3241 H   0  0  0  0  0  0  0  0  0  0  0  0
    1.2966   -0.7744   -0.8275 H   0  0  0  0  0  0  0  0  0  0  0  0
    3.2396   -1.3176    0.6364 H   0  0  0  0  0  0  0  0  0  0  0  0
    2.2983   -0.9511    2.0635 H   0  0  0  0  0  0  0  0  0  0  0  0
    3.8272    0.8774    1.5539 H   0  0  0  0  0  0  0  0  0  0  0  0
    2.1720    1.4223    1.4795 H   0  0  0  0  0  0  0  0  0  0  0  0
    3.4862    2.3986   -0.3298 H   0  0  0  0  0  0  0  0  0  0  0  0
    2.1875    1.4158   -0.9711 H   0  0  0  0  0  0  0  0  0  0  0  0
    4.1887    1.0849   -2.2821 H   0  0  0  0  0  0  0  0  0  0  0  0
    3.7854   -0.4255   -1.4845 H   0  0  0  0  0  0  0  0  0  0  0  0
    5.9054    1.5652   -0.5038 H   0  0  0  0  0  0  0  0  0  0  0  0
    5.5471    0.0085    0.2480 H   0  0  0  0  0  0  0  0  0  0  0  0
    6.2290   -1.1795   -1.8250 H   0  0  0  0  0  0  0  0  0  0  0  0
    6.5731    0.3731   -2.6122 H   0  0  0  0  0  0  0  0  0  0  0  0
    7.5334   -0.1459   -1.2144 H   0  0  0  0  0  0  0  0  0  0  0  0
  1  2  1  0
  1  3  1  0
  3  6  1  0
  4  6  1  0
  4  7  2  0
  4  8  1  0
  5  9  2  0
  7  9  1  0
  5 10  1  0
  8 10  2  0
  1 11  1  0
  1 12  1  0
 12 13  1  0
 11 14  1  0
  5 15  1  0
 15 16  1  0
 17 18  1  0
 16 19  1  0
 19 20  1  0
 18 21  1  0
 20 21  1  0
 17 22  1  0
 23 24  1  0
 23 25  1  0
 23 26  2  0
 23 27  2  0
 24 28  1  0
 28 29  1  0
 29 30  1  0
 30 31  1  0
 31 32  1  0
 32 33  1  0
 33 34  1  0
 34 35  1  0
 35 36  1  0
 36 37  1  0
 37 38  1  0
 38 39  1  0
  2 40  1  0
  2 41  1  0
  3 42  1  0
  3 43  1  0
  6 44  1  0
  6 45  1  0
  7 46  1  0
  8 47  1  0
  9 48  1  0
 10 49  1  0
 11 50  1  0
 11 51  1  0
 12 52  1  0
 12 53  1  0
 13 54  1  0
 14 55  1  0
 15 56  1  0
 15 57  1  0
 16 58  1  0
 16 59  1  0
 17 60  1  0
 17 61  1  0
 18 62  1  0
 18 63  1  0
 19 64  1  0
 19 65  1  0
 20 66  1  0
 20 67  1  0
 21 68  1  0
 21 69  1  0
 22 70  1  0
 22 71  1  0
 22 72  1  0
 25 73  1  0
 28 74  1  0
 28 75  1  0
 29 76  1  0
 29 77  1  0
 30 78  1  0
 30 79  1  0
 31 80  1  0
 31 81  1  0
 32 82  1  0
 32 83  1  0
 33 84  1  0
 33 85  1  0
 34 86  1  0
 34 87  1  0
 35 88  1  0
 35 89  1  0
 36 90  1  0
 36 91  1  0
 37 92  1  0
 37 93  1  0
 38 94  1  0
 38 95  1  0
 39 96  1  0
 39 97  1  0
 39 98  1  0
M  END
$$$$
