
     RDKit          3D

 98 97  0  0  0  0  0  0  0  0999 V2000
   -6.4551   -0.0233   -0.2700 C   0  0  0  0  0  0  0  0  0  0  0  0
   -6.8877    1.0456   -1.2199 N   0  0  0  0  0  0  0  0  0  0  0  0
   -4.9183   -0.2523   -0.3549 C   0  0  0  0  0  0  0  0  0  0  0  0
   -2.5747    0.5775    0.0551 C   0  0  0  0  0  0  0  0  0  0  0  0
    0.1821   -0.0126    0.0324 C   0  0  0  0  0  0  0  0  0  0  0  0
   -4.0449    0.9341    0.0711 C   0  0  0  0  0  0  0  0  0  0  0  0
   -1.8862    0.3504    1.2553 C   0  0  0  0  0  0  0  0  0  0  0  0
   -1.8765    0.4779   -1.1545 C   0  0  0  0  0  0  0  0  0  0  0  0
   -0.5180    0.0697    1.2450 C   0  0  0  0  0  0  0  0  0  0  0  0
   -0.5092    0.1940   -1.1700 C   0  0  0  0  0  0  0  0  0  0  0  0
   -6.8854    0.3575    1.1709 C   0  0  0  0  0  0  0  0  0  0  0  0
   -7.1840   -1.3393   -0.6885 C   0  0  0  0  0  0  0  0  0  0  0  0
   -6.7849   -1.7524   -2.0068 O   0  0  0  0  0  0  0  0  0  0  0  0
   -8.3032    0.4084    1.2849 O   0  0  0  0  0  0  0  0  0  0  0  0
    1.6745   -0.2553    0.0264 C   0  0  0  0  0  0  0  0  0  0  0  0
    2.4431    1.0685    0.1039 C   0  0  0  0  0  0  0  0  0  0  0  0
    8.2587   -0.4809    0.5913 C   0  0  0  0  0  0  0  0  0  0  0  0
    6.7250   -0.4923    0.5287 C   0  0  0  0  0  0  0  0  0  0  0  0
    3.9444    0.8882    0.3209 C   0  0  0  0  0  0  0  0  0  0  0  0
    4.6403    0.1426   -0.8134 C   0  0  0  0  0  0  0  0  0  0  0  0
    6.1705    0.1999   -0.7180 C   0  0  0  0  0  0  0  0  0  0  0  0
    8.9106   -1.3266   -0.4939 C   0  0  0  0  0  0  0  0  0  0  0  0
    7.5142    0.1073    0.2739 S   0  0  0  0  0  0  0  0  0  0  0  0
    6.3504   -0.9749   -0.0845 O   0  0  0  0  0  0  0  0  0  0  0  0
    7.3525    0.2614    1.8743 O   0  0  0  0  0  0  0  0  0  0  0  0
    7.1990    1.3816   -0.3311 O   0  0  0  0  0  0  0  0  0  0  0  0
    8.7929   -0.5344    0.0778 O   0  0  0  0  0  0  0  0  0  0  0  0
    5.0588   -0.4735   -0.3819 C   0  0  0  0  0  0  0  0  0  0  0  0
    4.1081   -1.6591   -0.4940 C   0  0  0  0  0  0  0  0  0  0  0  0
    2.6912   -1.2610   -0.9032 C   0  0  0  0  0  0  0  0  0  0  0  0
    1.9413   -0.5025    0.2000 C   0  0  0  0  0  0  0  0  0  0  0  0
    0.5478   -0.0789   -0.2662 C   0  0  0  0  0  0  0  0  0  0  0  0
   -0.1995    0.6735    0.8384 C   0  0  0  0  0  0  0  0  0  0  0  0
   -1.5652    1.2044    0.3907 C   0  0  0  0  0  0  0  0  0  0  0  0
   -2.5697    0.0964    0.0680 C   0  0  0  0  0  0  0  0  0  0  0  0
   -3.9683    0.6776   -0.1575 C   0  0  0  0  0  0  0  0  0  0  0  0
   -4.9794   -0.4240   -0.4815 C   0  0  0  0  0  0  0  0  0  0  0  0
   -6.3911    0.1021   -0.7339 C   0  0  0  0  0  0  0  0  0  0  0  0
   -7.0102    0.8024    0.4777 C   0  0  0  0  0  0  0  0  0  0  0  0
   -6.8751    0.6047   -2.1512 H   0  0  0  0  0  0  0  0  0  0  0  0
   -6.1915    1.7854   -1.2669 H   0  0  0  0  0  0  0  0  0  0  0  0
   -4.6450   -0.5427   -1.3778 H   0  0  0  0  0  0  0  0  0  0  0  0
   -4.6612   -1.1167    0.2746 H   0  0  0  0  0  0  0  0  0  0  0  0
   -4.3134    1.2728    1.0803 H   0  0  0  0  0  0  0  0  0  0  0  0
   -4.1968    1.7931   -0.5915 H   0  0  0  0  0  0  0  0  0  0  0  0
   -2.4062    0.4149    2.2098 H   0  0  0  0  0  0  0  0  0  0  0  0
   -2.3938    0.6281   -2.0966 H   0  0  0  0  0  0  0  0  0  0  0  0
    0.0021   -0.0709    2.1914 H   0  0  0  0  0  0  0  0  0  0  0  0
    0.0124    0.1391   -2.1248 H   0  0  0  0  0  0  0  0  0  0  0  0
   -6.4979    1.3393    1.4674 H   0  0  0  0  0  0  0  0  0  0  0  0
   -6.5245   -0.3899    1.8929 H   0  0  0  0  0  0  0  0  0  0  0  0
   -6.9366   -2.1531    0.0084 H   0  0  0  0  0  0  0  0  0  0  0  0
   -8.2720   -1.2113   -0.7058 H   0  0  0  0  0  0  0  0  0  0  0  0
   -7.2602   -2.5869   -2.1777 H   0  0  0  0  0  0  0  0  0  0  0  0
   -8.5746    1.2658    0.8747 H   0  0  0  0  0  0  0  0  0  0  0  0
    1.9515   -0.9018    0.8724 H   0  0  0  0  0  0  0  0  0  0  0  0
    1.9512   -0.8119   -0.8831 H   0  0  0  0  0  0  0  0  0  0  0  0
    2.2611    1.6578   -0.8043 H   0  0  0  0  0  0  0  0  0  0  0  0
    2.0604    1.6749    0.9343 H   0  0  0  0  0  0  0  0  0  0  0  0
    8.6389    0.5497    0.5449 H   0  0  0  0  0  0  0  0  0  0  0  0
    8.5595   -0.8868    1.5616 H   0  0  0  0  0  0  0  0  0  0  0  0
    6.3526   -1.5269    0.5841 H   0  0  0  0  0  0  0  0  0  0  0  0
    6.3557    0.0253    1.4235 H   0  0  0  0  0  0  0  0  0  0  0  0
    4.1014    0.3715    1.2718 H   0  0  0  0  0  0  0  0  0  0  0  0
    4.3963    1.8768    0.4255 H   0  0  0  0  0  0  0  0  0  0  0  0
    4.3163   -0.9038   -0.8393 H   0  0  0  0  0  0  0  0  0  0  0  0
    4.3444    0.5852   -1.7706 H   0  0  0  0  0  0  0  0  0  0  0  0
    6.5751   -0.2800   -1.6172 H   0  0  0  0  0  0  0  0  0  0  0  0
    6.4989    1.2495   -0.7379 H   0  0  0  0  0  0  0  0  0  0  0  0
    8.4721   -2.3335   -0.5290 H   0  0  0  0  0  0  0  0  0  0  0  0
    8.7949   -0.8591   -1.4769 H   0  0  0  0  0  0  0  0  0  0  0  0
    9.9828   -1.4378   -0.2952 H   0  0  0  0  0  0  0  0  0  0  0  0
    7.8939   -0.4460    2.2870 H   0  0  0  0  0  0  0  0  0  0  0  0
    5.0912    0.0813   -1.3210 H   0  0  0  0  0  0  0  0  0  0  0  0
    4.7408    0.1997    0.4199 H   0  0  0  0  0  0  0  0  0  0  0  0
    4.5037   -2.3722   -1.2351 H   0  0  0  0  0  0  0  0  0  0  0  0
    4.0818   -2.2015    0.4639 H   0  0  0  0  0  0  0  0  0  0  0  0
    2.7296   -0.6532   -1.8155 H   0  0  0  0  0  0  0  0  0  0  0  0
    2.1345   -2.1695   -1.1543 H   0  0  0  0  0  0  0  0  0  0  0  0
    2.5040    0.3871    0.5130 H   0  0  0  0  0  0  0  0  0  0  0  0
    1.8413   -1.1556    1.0752 H   0  0  0  0  0  0  0  0  0  0  0  0
   -0.0130   -0.9764   -0.5595 H   0  0  0  0  0  0  0  0  0  0  0  0
    0.6354    0.5551   -1.1568 H   0  0  0  0  0  0  0  0  0  0  0  0
    0.4017    1.5313    1.1684 H   0  0  0  0  0  0  0  0  0  0  0  0
   -0.3258    0.0211    1.7107 H   0  0  0  0  0  0  0  0  0  0  0  0
   -1.9640    1.8191    1.2029 H   0  0  0  0  0  0  0  0  0  0  0  0
   -1.4426    1.8634   -0.4770 H   0  0  0  0  0  0  0  0  0  0  0  0
   -2.2534   -0.4468   -0.8276 H   0  0  0  0  0  0  0  0  0  0  0  0
   -2.5972   -0.6233    0.8905 H   0  0  0  0  0  0  0  0  0  0  0  0
   -3.9396    1.4004   -0.9871 H   0  0  0  0  0  0  0  0  0  0  0  0
   -4.2774    1.2152    0.7454 H   0  0  0  0  0  0  0  0  0  0  0  0
   -4.6483   -0.9643   -1.3781 H   0  0  0  0  0  0  0  0  0  0  0  0
   -5.0143   -1.1583    0.3374 H   0  0  0  0  0  0  0  0  0  0  0  0
   -7.0337   -0.7415   -1.0199 H   0  0  0  0  0  0  0  0  0  0  0  0
   -6.3809    0.8028   -1.5771 H   0  0  0  0  0  0  0  0  0  0  0  0
   -8.0612    1.0276    0.2755 H   0  0  0  0  0  0  0  0  0  0  0  0
   -6.9552    0.1757    1.3665 H   0  0  0  0  0  0  0  0  0  0  0  0
   -6.5242    1.7621    0.6858 H   0  0  0  0  0  0  0  0  0  0  0  0
  1  2  1  0
  1  3  1  0
  3  6  1  0
  4  6  1  0
  4  7  2  0
  4  8  1  0
  5  9  2  0
  7  9  1  0
  5 10  1  0
  8 10  2  0
  1 11  1  0
  1 12  1  0
 12 13  1  0
 11 14  1  0
  5 15  1  0
 15 16  1  0
 17 18  1  0
 16 19  1  0
 19 20  1  0
 18 21  1  0
 20 21  1  0
 17 22  1  0
 23 24  1  0
 23 25  1  0
 23 26  2  0
 23 27  2  0
 24 28  1  0
 28 29  1  0
 29 30  1  0
 30 31  1  0
 31 32  1  0
 32 33  1  0
 33 34  1  0
 34 35  1  0
 35 36  1  0
 36 37  1  0
 37 38  1  0
 38 39  1  0
  2 40  1  0
  2 41  1  0
  3 42  1  0
  3 43  1  0
  6 44  1  0
  6 45  1  0
  7 46  1  0
  8 47  1  0
  9 48  1  0
 10 49  1  0
 11 50  1  0
 11 51  1  0
 12 52  1  0
 12 53  1  0
 13 54  1  0
 14 55  1  0
 15 56  1  0
 15 57  1  0
 16 58  1  0
 16 59  1  0
 17 60  1  0
 17 61  1  0
 18 62  1  0
 18 63  1  0
 19 64  1  0
 19 65  1  0
 20 66  1  0
 20 67  1  0
 21 68  1  0
 21 69  1  0
 22 70  1  0
 22 71  1  0
 22 72  1  0
 25 73  1  0
 28 74  1  0
 28 75  1  0
 29 76  1  0
 29 77  1  0
 30 78  1  0
 30 79  1  0
 31 80  1  0
 31 81  1  0
 32 82  1  0
 32 83  1  0
 33 84  1  0
 33 85  1  0
 34 86  1  0
 34 87  1  0
 35 88  1  0
 35 89  1  0
 36 90  1  0
 36 91  1  0
 37 92  1  0
 37 93  1  0
 38 94  1  0
 38 95  1  0
 39 96  1  0
 39 97  1  0
 39 98  1  0
M  END
$$$$
