
     RDKit          3D

 98 97  0  0  0  0  0  0  0  0999 V2000
   -6.0283   -0.0481   -0.1093 C   0  0  0  0  0  0  0  0  0  0  0  0
   -6.2416    0.3630   -1.5266 N   0  0  0  0  0  0  0  0  0  0  0  0
   -4.5380    0.0862    0.2989 C   0  0  0  0  0  0  0  0  0  0  0  0
   -2.1272   -0.5736   -0.0363 C   0  0  0  0  0  0  0  0  0  0  0  0
    0.4894   -0.3917    1.0076 C   0  0  0  0  0  0  0  0  0  0  0  0
   -3.5325   -0.6690   -0.5828 C   0  0  0  0  0  0  0  0  0  0  0  0
   -1.5224   -1.6823    0.5682 C   0  0  0  0  0  0  0  0  0  0  0  0
   -1.4117    0.6275   -0.1123 C   0  0  0  0  0  0  0  0  0  0  0  0
   -0.2269   -1.5914    1.0838 C   0  0  0  0  0  0  0  0  0  0  0  0
   -0.1173    0.7174    0.4067 C   0  0  0  0  0  0  0  0  0  0  0  0
   -6.5412   -1.4993    0.0704 C   0  0  0  0  0  0  0  0  0  0  0  0
   -6.8818    0.8936    0.7890 C   0  0  0  0  0  0  0  0  0  0  0  0
   -6.6249    2.2642    0.4740 O   0  0  0  0  0  0  0  0  0  0  0  0
   -7.8618   -1.6244   -0.4614 O   0  0  0  0  0  0  0  0  0  0  0  0
    1.8891   -0.2976    1.5652 C   0  0  0  0  0  0  0  0  0  0  0  0
    2.9353   -1.0561    0.7409 C   0  0  0  0  0  0  0  0  0  0  0  0
    7.3964    0.9319    0.3485 C   0  0  0  0  0  0  0  0  0  0  0  0
    6.1512    0.5160   -0.4359 C   0  0  0  0  0  0  0  0  0  0  0  0
    3.1771   -0.5082   -0.6713 C   0  0  0  0  0  0  0  0  0  0  0  0
    3.6491    0.9477   -0.7497 C   0  0  0  0  0  0  0  0  0  0  0  0
    4.9157    1.2807    0.0437 C   0  0  0  0  0  0  0  0  0  0  0  0
    8.6385    0.2111   -0.1518 C   0  0  0  0  0  0  0  0  0  0  0  0
   -6.5309    0.5770   -0.1236 S   0  0  0  0  0  0  0  0  0  0  0  0
   -4.9739    0.7439   -0.5479 O   0  0  0  0  0  0  0  0  0  0  0  0
   -6.4356   -0.1814    1.2949 O   0  0  0  0  0  0  0  0  0  0  0  0
   -7.0541    1.8873    0.1920 O   0  0  0  0  0  0  0  0  0  0  0  0
   -7.1840   -0.3092   -1.0581 O   0  0  0  0  0  0  0  0  0  0  0  0
   -4.2204   -0.4339   -0.7845 C   0  0  0  0  0  0  0  0  0  0  0  0
   -2.8034   -0.0614   -1.2103 C   0  0  0  0  0  0  0  0  0  0  0  0
   -2.0669    0.8686   -0.2400 C   0  0  0  0  0  0  0  0  0  0  0  0
   -1.9312    0.3546    1.1961 C   0  0  0  0  0  0  0  0  0  0  0  0
   -1.2377   -1.0018    1.3536 C   0  0  0  0  0  0  0  0  0  0  0  0
    0.1627   -1.1046    0.7393 C   0  0  0  0  0  0  0  0  0  0  0  0
    1.1546   -0.0870    1.3094 C   0  0  0  0  0  0  0  0  0  0  0  0
    2.5980   -0.3190    0.8452 C   0  0  0  0  0  0  0  0  0  0  0  0
    2.7944   -0.0938   -0.6566 C   0  0  0  0  0  0  0  0  0  0  0  0
    4.2361   -0.3193   -1.1233 C   0  0  0  0  0  0  0  0  0  0  0  0
    5.2190    0.7237   -0.5897 C   0  0  0  0  0  0  0  0  0  0  0  0
    6.6087    0.5231   -1.1748 C   0  0  0  0  0  0  0  0  0  0  0  0
   -5.7830   -0.3069   -2.1465 H   0  0  0  0  0  0  0  0  0  0  0  0
   -5.7450    1.2428   -1.6803 H   0  0  0  0  0  0  0  0  0  0  0  0
   -4.2588    1.1499    0.3118 H   0  0  0  0  0  0  0  0  0  0  0  0
   -4.4294   -0.2617    1.3370 H   0  0  0  0  0  0  0  0  0  0  0  0
   -3.5342   -0.2636   -1.6022 H   0  0  0  0  0  0  0  0  0  0  0  0
   -3.8105   -1.7245   -0.6727 H   0  0  0  0  0  0  0  0  0  0  0  0
   -2.0544   -2.6267    0.6470 H   0  0  0  0  0  0  0  0  0  0  0  0
   -1.8582    1.5052   -0.5732 H   0  0  0  0  0  0  0  0  0  0  0  0
    0.2199   -2.4666    1.5495 H   0  0  0  0  0  0  0  0  0  0  0  0
    0.4120    1.6660    0.3389 H   0  0  0  0  0  0  0  0  0  0  0  0
   -5.9188   -2.2230   -0.4622 H   0  0  0  0  0  0  0  0  0  0  0  0
   -6.5703   -1.7846    1.1270 H   0  0  0  0  0  0  0  0  0  0  0  0
   -6.6449    0.7432    1.8473 H   0  0  0  0  0  0  0  0  0  0  0  0
   -7.9567    0.7238    0.6595 H   0  0  0  0  0  0  0  0  0  0  0  0
   -7.0203    2.3919   -0.4070 H   0  0  0  0  0  0  0  0  0  0  0  0
   -7.8918   -1.0028   -1.2187 H   0  0  0  0  0  0  0  0  0  0  0  0
    1.8773   -0.7098    2.5829 H   0  0  0  0  0  0  0  0  0  0  0  0
    2.1811    0.7530    1.6835 H   0  0  0  0  0  0  0  0  0  0  0  0
    2.6424   -2.1101    0.6529 H   0  0  0  0  0  0  0  0  0  0  0  0
    3.8812   -1.0553    1.2952 H   0  0  0  0  0  0  0  0  0  0  0  0
    7.2561    0.7090    1.4117 H   0  0  0  0  0  0  0  0  0  0  0  0
    7.5499    2.0128    0.2633 H   0  0  0  0  0  0  0  0  0  0  0  0
    6.3090    0.7098   -1.5033 H   0  0  0  0  0  0  0  0  0  0  0  0
    6.0004   -0.5637   -0.3198 H   0  0  0  0  0  0  0  0  0  0  0  0
    2.2566   -0.6060   -1.2603 H   0  0  0  0  0  0  0  0  0  0  0  0
    3.9126   -1.1524   -1.1675 H   0  0  0  0  0  0  0  0  0  0  0  0
    3.8157    1.1980   -1.8050 H   0  0  0  0  0  0  0  0  0  0  0  0
    2.8450    1.6103   -0.4105 H   0  0  0  0  0  0  0  0  0  0  0  0
    5.1051    2.3568   -0.0572 H   0  0  0  0  0  0  0  0  0  0  0  0
    4.7517    1.0968    1.1113 H   0  0  0  0  0  0  0  0  0  0  0  0
    8.8345    0.4534   -1.2005 H   0  0  0  0  0  0  0  0  0  0  0  0
    9.5124    0.5114    0.4350 H   0  0  0  0  0  0  0  0  0  0  0  0
    8.5269   -0.8737   -0.0649 H   0  0  0  0  0  0  0  0  0  0  0  0
   -6.6198    0.4926    1.9837 H   0  0  0  0  0  0  0  0  0  0  0  0
   -4.6903   -1.0196   -1.5822 H   0  0  0  0  0  0  0  0  0  0  0  0
   -4.1992   -1.0495    0.1207 H   0  0  0  0  0  0  0  0  0  0  0  0
   -2.2238   -0.9759   -1.3759 H   0  0  0  0  0  0  0  0  0  0  0  0
   -2.8567    0.4532   -2.1770 H   0  0  0  0  0  0  0  0  0  0  0  0
   -1.0721    1.0785   -0.6499 H   0  0  0  0  0  0  0  0  0  0  0  0
   -2.5838    1.8360   -0.2085 H   0  0  0  0  0  0  0  0  0  0  0  0
   -2.9258    0.2896    1.6532 H   0  0  0  0  0  0  0  0  0  0  0  0
   -1.3900    1.1066    1.7832 H   0  0  0  0  0  0  0  0  0  0  0  0
   -1.8682   -1.7853    0.9172 H   0  0  0  0  0  0  0  0  0  0  0  0
   -1.1702   -1.2307    2.4246 H   0  0  0  0  0  0  0  0  0  0  0  0
    0.0926   -0.9992   -0.3484 H   0  0  0  0  0  0  0  0  0  0  0  0
    0.5418   -2.1172    0.9274 H   0  0  0  0  0  0  0  0  0  0  0  0
    1.1355   -0.1414    2.4049 H   0  0  0  0  0  0  0  0  0  0  0  0
    0.8524    0.9315    1.0392 H   0  0  0  0  0  0  0  0  0  0  0  0
    2.9093   -1.3370    1.1111 H   0  0  0  0  0  0  0  0  0  0  0  0
    3.2416    0.3665    1.4085 H   0  0  0  0  0  0  0  0  0  0  0  0
    2.4736    0.9184   -0.9277 H   0  0  0  0  0  0  0  0  0  0  0  0
    2.1567   -0.7883   -1.2139 H   0  0  0  0  0  0  0  0  0  0  0  0
    4.5658   -1.3237   -0.8319 H   0  0  0  0  0  0  0  0  0  0  0  0
    4.2476   -0.2891   -2.2203 H   0  0  0  0  0  0  0  0  0  0  0  0
    4.8655    1.7315   -0.8373 H   0  0  0  0  0  0  0  0  0  0  0  0
    5.2894    0.6627    0.5014 H   0  0  0  0  0  0  0  0  0  0  0  0
    7.2981    1.2771   -0.7812 H   0  0  0  0  0  0  0  0  0  0  0  0
    7.0027   -0.4657   -0.9159 H   0  0  0  0  0  0  0  0  0  0  0  0
    6.5921    0.6117   -2.2657 H   0  0  0  0  0  0  0  0  0  0  0  0
  1  2  1  0
  1  3  1  0
  3  6  1  0
  4  6  1  0
  4  7  2  0
  4  8  1  0
  5  9  2  0
  7  9  1  0
  5 10  1  0
  8 10  2  0
  1 11  1  0
  1 12  1  0
 12 13  1  0
 11 14  1  0
  5 15  1  0
 15 16  1  0
 17 18  1  0
 16 19  1  0
 19 20  1  0
 18 21  1  0
 20 21  1  0
 17 22  1  0
 23 24  1  0
 23 25  1  0
 23 26  2  0
 23 27  2  0
 24 28  1  0
 28 29  1  0
 29 30  1  0
 30 31  1  0
 31 32  1  0
 32 33  1  0
 33 34  1  0
 34 35  1  0
 35 36  1  0
 36 37  1  0
 37 38  1  0
 38 39  1  0
  2 40  1  0
  2 41  1  0
  3 42  1  0
  3 43  1  0
  6 44  1  0
  6 45  1  0
  7 46  1  0
  8 47  1  0
  9 48  1  0
 10 49  1  0
 11 50  1  0
 11 51  1  0
 12 52  1  0
 12 53  1  0
 13 54  1  0
 14 55  1  0
 15 56  1  0
 15 57  1  0
 16 58  1  0
 16 59  1  0
 17 60  1  0
 17 61  1  0
 18 62  1  0
 18 63  1  0
 19 64  1  0
 19 65  1  0
 20 66  1  0
 20 67  1  0
 21 68  1  0
 21 69  1  0
 22 70  1  0
 22 71  1  0
 22 72  1  0
 25 73  1  0
 28 74  1  0
 28 75  1  0
 29 76  1  0
 29 77  1  0
 30 78  1  0
 30 79  1  0
 31 80  1  0
 31 81  1  0
 32 82  1  0
 32 83  1  0
 33 84  1  0
 33 85  1  0
 34 86  1  0
 34 87  1  0
 35 88  1  0
 35 89  1  0
 36 90  1  0
 36 91  1  0
 37 92  1  0
 37 93  1  0
 38 94  1  0
 38 95  1  0
 39 96  1  0
 39 97  1  0
 39 98  1  0
M  END
$$$$
