
     RDKit          3D

 98 97  0  0  0  0  0  0  0  0999 V2000
   -6.3592    0.0137    0.1951 C   0  0  0  0  0  0  0  0  0  0  0  0
   -7.1398   -0.4260    1.3916 N   0  0  0  0  0  0  0  0  0  0  0  0
   -4.8531   -0.1091    0.5376 C   0  0  0  0  0  0  0  0  0  0  0  0
   -2.4480    0.2200   -0.0961 C   0  0  0  0  0  0  0  0  0  0  0  0
    0.2010    0.0419    0.8488 C   0  0  0  0  0  0  0  0  0  0  0  0
   -3.8795    0.2999   -0.5755 C   0  0  0  0  0  0  0  0  0  0  0  0
   -1.8518    1.3078    0.5543 C   0  0  0  0  0  0  0  0  0  0  0  0
   -1.7084   -0.9558   -0.2694 C   0  0  0  0  0  0  0  0  0  0  0  0
   -0.5368    1.2206    1.0202 C   0  0  0  0  0  0  0  0  0  0  0  0
   -0.3942   -1.0429    0.1950 C   0  0  0  0  0  0  0  0  0  0  0  0
   -6.7523    1.4878   -0.0767 C   0  0  0  0  0  0  0  0  0  0  0  0
   -6.7680   -0.9022   -0.9908 C   0  0  0  0  0  0  0  0  0  0  0  0
   -6.3710   -0.3837   -2.2549 O   0  0  0  0  0  0  0  0  0  0  0  0
   -8.1706    1.5917   -0.2178 O   0  0  0  0  0  0  0  0  0  0  0  0
    1.6264   -0.0476    1.3367 C   0  0  0  0  0  0  0  0  0  0  0  0
    2.6135    0.4826    0.2939 C   0  0  0  0  0  0  0  0  0  0  0  0
    7.2694   -0.5974   -0.8027 C   0  0  0  0  0  0  0  0  0  0  0  0
    7.1309   -0.1210    0.6429 C   0  0  0  0  0  0  0  0  0  0  0  0
    4.0653    0.4897    0.7851 C   0  0  0  0  0  0  0  0  0  0  0  0
    4.6677   -0.9125    0.9142 C   0  0  0  0  0  0  0  0  0  0  0  0
    6.1028   -0.9150    1.4539 C   0  0  0  0  0  0  0  0  0  0  0  0
    8.3735    0.1564   -1.5312 C   0  0  0  0  0  0  0  0  0  0  0  0
   -6.6043    0.9321   -0.7056 S   0  0  0  0  0  0  0  0  0  0  0  0
   -5.5329    0.0934    0.1785 O   0  0  0  0  0  0  0  0  0  0  0  0
   -7.6672    1.4346    0.3951 O   0  0  0  0  0  0  0  0  0  0  0  0
   -5.9517    2.0968   -1.2572 O   0  0  0  0  0  0  0  0  0  0  0  0
   -7.3425   -0.0007   -1.5279 O   0  0  0  0  0  0  0  0  0  0  0  0
   -4.8932    0.7534    1.2591 C   0  0  0  0  0  0  0  0  0  0  0  0
   -3.6525   -0.0356    1.6681 C   0  0  0  0  0  0  0  0  0  0  0  0
   -2.5934   -0.0458    0.5598 C   0  0  0  0  0  0  0  0  0  0  0  0
   -1.3358   -0.7987    0.9985 C   0  0  0  0  0  0  0  0  0  0  0  0
   -0.2813   -0.9294   -0.1061 C   0  0  0  0  0  0  0  0  0  0  0  0
    0.3114    0.4131   -0.5400 C   0  0  0  0  0  0  0  0  0  0  0  0
    1.3999    0.2853   -1.6119 C   0  0  0  0  0  0  0  0  0  0  0  0
    2.6351   -0.5391   -1.2291 C   0  0  0  0  0  0  0  0  0  0  0  0
    3.3634   -0.0128    0.0103 C   0  0  0  0  0  0  0  0  0  0  0  0
    4.5912   -0.8461    0.3943 C   0  0  0  0  0  0  0  0  0  0  0  0
    5.7237   -0.8740   -0.6342 C   0  0  0  0  0  0  0  0  0  0  0  0
    6.3020    0.4992   -0.9370 C   0  0  0  0  0  0  0  0  0  0  0  0
   -6.8375    0.1151    2.2059 H   0  0  0  0  0  0  0  0  0  0  0  0
   -6.8945   -1.3940    1.6128 H   0  0  0  0  0  0  0  0  0  0  0  0
   -4.6433    0.4951    1.4317 H   0  0  0  0  0  0  0  0  0  0  0  0
   -4.6330   -1.1477    0.8272 H   0  0  0  0  0  0  0  0  0  0  0  0
   -4.0798    1.3210   -0.9190 H   0  0  0  0  0  0  0  0  0  0  0  0
   -3.9908   -0.3518   -1.4488 H   0  0  0  0  0  0  0  0  0  0  0  0
   -2.4050    2.2330    0.7022 H   0  0  0  0  0  0  0  0  0  0  0  0
   -2.1520   -1.8145   -0.7690 H   0  0  0  0  0  0  0  0  0  0  0  0
   -0.0907    2.0794    1.5168 H   0  0  0  0  0  0  0  0  0  0  0  0
    0.1630   -1.9634    0.0404 H   0  0  0  0  0  0  0  0  0  0  0  0
   -6.2964    1.8844   -0.9877 H   0  0  0  0  0  0  0  0  0  0  0  0
   -6.4539    2.1371    0.7538 H   0  0  0  0  0  0  0  0  0  0  0  0
   -7.8549   -1.0489   -1.0243 H   0  0  0  0  0  0  0  0  0  0  0  0
   -6.3154   -1.8949   -0.8806 H   0  0  0  0  0  0  0  0  0  0  0  0
   -7.0329    0.2957   -2.4939 H   0  0  0  0  0  0  0  0  0  0  0  0
   -8.5277    0.9963    0.4739 H   0  0  0  0  0  0  0  0  0  0  0  0
    1.8502   -1.0895    1.5909 H   0  0  0  0  0  0  0  0  0  0  0  0
    1.7239    0.5170    2.2715 H   0  0  0  0  0  0  0  0  0  0  0  0
    2.3399    1.5125    0.0301 H   0  0  0  0  0  0  0  0  0  0  0  0
    2.5374   -0.1020   -0.6318 H   0  0  0  0  0  0  0  0  0  0  0  0
    7.4926   -1.6718   -0.8212 H   0  0  0  0  0  0  0  0  0  0  0  0
    6.3294   -0.4478   -1.3457 H   0  0  0  0  0  0  0  0  0  0  0  0
    8.1021   -0.2128    1.1456 H   0  0  0  0  0  0  0  0  0  0  0  0
    6.8790    0.9447    0.6611 H   0  0  0  0  0  0  0  0  0  0  0  0
    4.1282    1.0146    1.7458 H   0  0  0  0  0  0  0  0  0  0  0  0
    4.6539    1.0719    0.0660 H   0  0  0  0  0  0  0  0  0  0  0  0
    4.6334   -1.4209   -0.0566 H   0  0  0  0  0  0  0  0  0  0  0  0
    4.0591   -1.5158    1.5981 H   0  0  0  0  0  0  0  0  0  0  0  0
    6.0944   -0.5254    2.4792 H   0  0  0  0  0  0  0  0  0  0  0  0
    6.4412   -1.9557    1.5279 H   0  0  0  0  0  0  0  0  0  0  0  0
    9.3420    0.0005   -1.0444 H   0  0  0  0  0  0  0  0  0  0  0  0
    8.4524   -0.1925   -2.5656 H   0  0  0  0  0  0  0  0  0  0  0  0
    8.1680    1.2325   -1.5496 H   0  0  0  0  0  0  0  0  0  0  0  0
   -8.4952    0.9322    0.2314 H   0  0  0  0  0  0  0  0  0  0  0  0
   -5.5921    0.7991    2.1020 H   0  0  0  0  0  0  0  0  0  0  0  0
   -4.6116    1.7772    0.9841 H   0  0  0  0  0  0  0  0  0  0  0  0
   -3.9370   -1.0695    1.8978 H   0  0  0  0  0  0  0  0  0  0  0  0
   -3.2306    0.4049    2.5789 H   0  0  0  0  0  0  0  0  0  0  0  0
   -2.3405    0.9889    0.3051 H   0  0  0  0  0  0  0  0  0  0  0  0
   -3.0022   -0.5137   -0.3441 H   0  0  0  0  0  0  0  0  0  0  0  0
   -0.8913   -0.3058    1.8720 H   0  0  0  0  0  0  0  0  0  0  0  0
   -1.6194   -1.8093    1.3172 H   0  0  0  0  0  0  0  0  0  0  0  0
    0.5152   -1.5791    0.2749 H   0  0  0  0  0  0  0  0  0  0  0  0
   -0.7184   -1.4377   -0.9740 H   0  0  0  0  0  0  0  0  0  0  0  0
    0.7017    0.9515    0.3310 H   0  0  0  0  0  0  0  0  0  0  0  0
   -0.4821    1.0444   -0.9559 H   0  0  0  0  0  0  0  0  0  0  0  0
    1.7272    1.2958   -1.8879 H   0  0  0  0  0  0  0  0  0  0  0  0
    0.9572   -0.1539   -2.5158 H   0  0  0  0  0  0  0  0  0  0  0  0
    2.3538   -1.5868   -1.0768 H   0  0  0  0  0  0  0  0  0  0  0  0
    3.3153   -0.5279   -2.0884 H   0  0  0  0  0  0  0  0  0  0  0  0
    2.6830   -0.0284    0.8685 H   0  0  0  0  0  0  0  0  0  0  0  0
    3.6478    1.0339   -0.1423 H   0  0  0  0  0  0  0  0  0  0  0  0
    4.2731   -1.8777    0.5892 H   0  0  0  0  0  0  0  0  0  0  0  0
    4.9862   -0.4613    1.3434 H   0  0  0  0  0  0  0  0  0  0  0  0
    5.3875   -1.3430   -1.5654 H   0  0  0  0  0  0  0  0  0  0  0  0
    6.5281   -1.5077   -0.2419 H   0  0  0  0  0  0  0  0  0  0  0  0
    5.5820    1.1320   -1.4622 H   0  0  0  0  0  0  0  0  0  0  0  0
    6.6053    1.0128   -0.0192 H   0  0  0  0  0  0  0  0  0  0  0  0
    7.1852    0.4036   -1.5757 H   0  0  0  0  0  0  0  0  0  0  0  0
  1  2  1  0
  1  3  1  0
  3  6  1  0
  4  6  1  0
  4  7  2  0
  4  8  1  0
  5  9  2  0
  7  9  1  0
  5 10  1  0
  8 10  2  0
  1 11  1  0
  1 12  1  0
 12 13  1  0
 11 14  1  0
  5 15  1  0
 15 16  1  0
 17 18  1  0
 16 19  1  0
 19 20  1  0
 18 21  1  0
 20 21  1  0
 17 22  1  0
 23 24  1  0
 23 25  1  0
 23 26  2  0
 23 27  2  0
 24 28  1  0
 28 29  1  0
 29 30  1  0
 30 31  1  0
 31 32  1  0
 32 33  1  0
 33 34  1  0
 34 35  1  0
 35 36  1  0
 36 37  1  0
 37 38  1  0
 38 39  1  0
  2 40  1  0
  2 41  1  0
  3 42  1  0
  3 43  1  0
  6 44  1  0
  6 45  1  0
  7 46  1  0
  8 47  1  0
  9 48  1  0
 10 49  1  0
 11 50  1  0
 11 51  1  0
 12 52  1  0
 12 53  1  0
 13 54  1  0
 14 55  1  0
 15 56  1  0
 15 57  1  0
 16 58  1  0
 16 59  1  0
 17 60  1  0
 17 61  1  0
 18 62  1  0
 18 63  1  0
 19 64  1  0
 19 65  1  0
 20 66  1  0
 20 67  1  0
 21 68  1  0
 21 69  1  0
 22 70  1  0
 22 71  1  0
 22 72  1  0
 25 73  1  0
 28 74  1  0
 28 75  1  0
 29 76  1  0
 29 77  1  0
 30 78  1  0
 30 79  1  0
 31 80  1  0
 31 81  1  0
 32 82  1  0
 32 83  1  0
 33 84  1  0
 33 85  1  0
 34 86  1  0
 34 87  1  0
 35 88  1  0
 35 89  1  0
 36 90  1  0
 36 91  1  0
 37 92  1  0
 37 93  1  0
 38 94  1  0
 38 95  1  0
 39 96  1  0
 39 97  1  0
 39 98  1  0
M  END
$$$$
