
     RDKit          3D

 98 97  0  0  0  0  0  0  0  0999 V2000
    5.3539    0.2734    0.6471 C   0  0  0  0  0  0  0  0  0  0  0  0
    6.3779    0.1713   -0.4286 N   0  0  0  0  0  0  0  0  0  0  0  0
    3.9709   -0.2434    0.1816 C   0  0  0  0  0  0  0  0  0  0  0  0
    1.9861   -0.0395   -1.3668 C   0  0  0  0  0  0  0  0  0  0  0  0
   -0.6379   -0.9001   -1.9443 C   0  0  0  0  0  0  0  0  0  0  0  0
    3.3918    0.4275   -1.0723 C   0  0  0  0  0  0  0  0  0  0  0  0
    0.8955    0.8120   -1.1552 C   0  0  0  0  0  0  0  0  0  0  0  0
    1.7517   -1.3288   -1.8609 C   0  0  0  0  0  0  0  0  0  0  0  0
   -0.4031    0.3863   -1.4441 C   0  0  0  0  0  0  0  0  0  0  0  0
    0.4520   -1.7560   -2.1440 C   0  0  0  0  0  0  0  0  0  0  0  0
    5.8302   -0.6251    1.8254 C   0  0  0  0  0  0  0  0  0  0  0  0
    5.2853    1.7516    1.1289 C   0  0  0  0  0  0  0  0  0  0  0  0
    6.5866    2.2484    1.4566 O   0  0  0  0  0  0  0  0  0  0  0  0
    7.1668   -0.2846    2.2095 O   0  0  0  0  0  0  0  0  0  0  0  0
   -2.0393   -1.3595   -2.2622 C   0  0  0  0  0  0  0  0  0  0  0  0
   -2.6672   -2.2362   -1.1731 C   0  0  0  0  0  0  0  0  0  0  0  0
   -6.5694    1.2011    0.7564 C   0  0  0  0  0  0  0  0  0  0  0  0
   -5.1769    1.4611    1.3311 C   0  0  0  0  0  0  0  0  0  0  0  0
   -2.9524   -1.5272    0.1570 C   0  0  0  0  0  0  0  0  0  0  0  0
   -3.9700   -0.3887    0.0353 C   0  0  0  0  0  0  0  0  0  0  0  0
   -4.3004    0.2075    1.4066 C   0  0  0  0  0  0  0  0  0  0  0  0
   -7.4316    2.4534    0.8063 C   0  0  0  0  0  0  0  0  0  0  0  0
    6.9522   -0.7902   -0.4434 S   0  0  0  0  0  0  0  0  0  0  0  0
    5.3967   -1.2507   -0.4800 O   0  0  0  0  0  0  0  0  0  0  0  0
    7.4200   -1.2595    1.0244 O   0  0  0  0  0  0  0  0  0  0  0  0
    7.6873   -1.6321   -1.3597 O   0  0  0  0  0  0  0  0  0  0  0  0
    7.0218    0.6518   -0.4963 O   0  0  0  0  0  0  0  0  0  0  0  0
    4.4795   -0.5677    0.3613 C   0  0  0  0  0  0  0  0  0  0  0  0
    3.1112   -1.2163    0.1949 C   0  0  0  0  0  0  0  0  0  0  0  0
    2.0518   -0.6704    1.1511 C   0  0  0  0  0  0  0  0  0  0  0  0
    1.7645    0.8299    1.0393 C   0  0  0  0  0  0  0  0  0  0  0  0
    1.3559    1.3268   -0.3510 C   0  0  0  0  0  0  0  0  0  0  0  0
    0.1486    0.6279   -0.9821 C   0  0  0  0  0  0  0  0  0  0  0  0
   -1.1302    0.7463   -0.1514 C   0  0  0  0  0  0  0  0  0  0  0  0
   -2.3278    0.1589   -0.9021 C   0  0  0  0  0  0  0  0  0  0  0  0
   -3.6023    0.2204   -0.0575 C   0  0  0  0  0  0  0  0  0  0  0  0
   -4.8031   -0.3229   -0.8352 C   0  0  0  0  0  0  0  0  0  0  0  0
   -6.0832   -0.4010   -0.0010 C   0  0  0  0  0  0  0  0  0  0  0  0
   -6.5916    0.9545    0.4649 C   0  0  0  0  0  0  0  0  0  0  0  0
    6.0392    0.6537   -1.2611 H   0  0  0  0  0  0  0  0  0  0  0  0
    7.1668    0.7614   -0.1340 H   0  0  0  0  0  0  0  0  0  0  0  0
    4.0377   -1.3262   -0.0030 H   0  0  0  0  0  0  0  0  0  0  0  0
    3.2563   -0.1246    1.0094 H   0  0  0  0  0  0  0  0  0  0  0  0
    4.0131    0.2081   -1.9495 H   0  0  0  0  0  0  0  0  0  0  0  0
    3.3909    1.5169   -0.9622 H   0  0  0  0  0  0  0  0  0  0  0  0
    1.0466    1.8181   -0.7699 H   0  0  0  0  0  0  0  0  0  0  0  0
    2.5825   -2.0088   -2.0349 H   0  0  0  0  0  0  0  0  0  0  0  0
   -1.2316    1.0703   -1.2781 H   0  0  0  0  0  0  0  0  0  0  0  0
    0.2963   -2.7613   -2.5306 H   0  0  0  0  0  0  0  0  0  0  0  0
    5.8233   -1.6867    1.5524 H   0  0  0  0  0  0  0  0  0  0  0  0
    5.1853   -0.4969    2.7005 H   0  0  0  0  0  0  0  0  0  0  0  0
    4.6466    1.8497    2.0119 H   0  0  0  0  0  0  0  0  0  0  0  0
    4.8909    2.4120    0.3534 H   0  0  0  0  0  0  0  0  0  0  0  0
    6.9948    1.5801    2.0516 H   0  0  0  0  0  0  0  0  0  0  0  0
    7.7155   -0.5767    1.4538 H   0  0  0  0  0  0  0  0  0  0  0  0
   -2.0042   -1.9337   -3.1986 H   0  0  0  0  0  0  0  0  0  0  0  0
   -2.6782   -0.4969   -2.4848 H   0  0  0  0  0  0  0  0  0  0  0  0
   -2.0142   -3.0955   -0.9731 H   0  0  0  0  0  0  0  0  0  0  0  0
   -3.6087   -2.6481   -1.5587 H   0  0  0  0  0  0  0  0  0  0  0  0
   -7.0628    0.4011    1.3204 H   0  0  0  0  0  0  0  0  0  0  0  0
   -6.4964    0.8693   -0.2844 H   0  0  0  0  0  0  0  0  0  0  0  0
   -4.6685    2.2274    0.7332 H   0  0  0  0  0  0  0  0  0  0  0  0
   -5.2773    1.8686    2.3454 H   0  0  0  0  0  0  0  0  0  0  0  0
   -3.3385   -2.2747    0.8615 H   0  0  0  0  0  0  0  0  0  0  0  0
   -2.0189   -1.1504    0.5897 H   0  0  0  0  0  0  0  0  0  0  0  0
   -4.8831   -0.7727   -0.4340 H   0  0  0  0  0  0  0  0  0  0  0  0
   -3.5775    0.4016   -0.6133 H   0  0  0  0  0  0  0  0  0  0  0  0
   -3.3669    0.4751    1.9172 H   0  0  0  0  0  0  0  0  0  0  0  0
   -4.7950   -0.5486    2.0286 H   0  0  0  0  0  0  0  0  0  0  0  0
   -8.4246    2.2481    0.3934 H   0  0  0  0  0  0  0  0  0  0  0  0
   -7.5582    2.8034    1.8362 H   0  0  0  0  0  0  0  0  0  0  0  0
   -6.9815    3.2620    0.2212 H   0  0  0  0  0  0  0  0  0  0  0  0
    7.7864   -2.1631    0.9283 H   0  0  0  0  0  0  0  0  0  0  0  0
    4.4401    0.4886    0.0771 H   0  0  0  0  0  0  0  0  0  0  0  0
    4.8095   -0.6451    1.4032 H   0  0  0  0  0  0  0  0  0  0  0  0
    3.2109   -2.2963    0.3631 H   0  0  0  0  0  0  0  0  0  0  0  0
    2.7830   -1.1197   -0.8469 H   0  0  0  0  0  0  0  0  0  0  0  0
    2.3642   -0.8832    2.1812 H   0  0  0  0  0  0  0  0  0  0  0  0
    1.1221   -1.2299    1.0000 H   0  0  0  0  0  0  0  0  0  0  0  0
    0.9798    1.0875    1.7613 H   0  0  0  0  0  0  0  0  0  0  0  0
    2.6483    1.3942    1.3618 H   0  0  0  0  0  0  0  0  0  0  0  0
    2.2081    1.2315   -1.0340 H   0  0  0  0  0  0  0  0  0  0  0  0
    1.1461    2.4021   -0.2828 H   0  0  0  0  0  0  0  0  0  0  0  0
   -0.0206    1.0742   -1.9696 H   0  0  0  0  0  0  0  0  0  0  0  0
    0.3770   -0.4290   -1.1595 H   0  0  0  0  0  0  0  0  0  0  0  0
   -1.0087    0.2194    0.8014 H   0  0  0  0  0  0  0  0  0  0  0  0
   -1.3242    1.8003    0.0808 H   0  0  0  0  0  0  0  0  0  0  0  0
   -2.4796    0.7134   -1.8363 H   0  0  0  0  0  0  0  0  0  0  0  0
   -2.1186   -0.8842   -1.1749 H   0  0  0  0  0  0  0  0  0  0  0  0
   -3.4628   -0.3627    0.8619 H   0  0  0  0  0  0  0  0  0  0  0  0
   -3.7871    1.2594    0.2397 H   0  0  0  0  0  0  0  0  0  0  0  0
   -4.5697   -1.3307   -1.2001 H   0  0  0  0  0  0  0  0  0  0  0  0
   -4.9811    0.2992   -1.7207 H   0  0  0  0  0  0  0  0  0  0  0  0
   -5.9228   -1.0504    0.8676 H   0  0  0  0  0  0  0  0  0  0  0  0
   -6.8632   -0.8762   -0.6085 H   0  0  0  0  0  0  0  0  0  0  0  0
   -6.7096    1.6441   -0.3770 H   0  0  0  0  0  0  0  0  0  0  0  0
   -5.9109    1.4080    1.1932 H   0  0  0  0  0  0  0  0  0  0  0  0
   -7.5675    0.8427    0.9494 H   0  0  0  0  0  0  0  0  0  0  0  0
  1  2  1  0
  1  3  1  0
  3  6  1  0
  4  6  1  0
  4  7  2  0
  4  8  1  0
  5  9  2  0
  7  9  1  0
  5 10  1  0
  8 10  2  0
  1 11  1  0
  1 12  1  0
 12 13  1  0
 11 14  1  0
  5 15  1  0
 15 16  1  0
 17 18  1  0
 16 19  1  0
 19 20  1  0
 18 21  1  0
 20 21  1  0
 17 22  1  0
 23 24  1  0
 23 25  1  0
 23 26  2  0
 23 27  2  0
 24 28  1  0
 28 29  1  0
 29 30  1  0
 30 31  1  0
 31 32  1  0
 32 33  1  0
 33 34  1  0
 34 35  1  0
 35 36  1  0
 36 37  1  0
 37 38  1  0
 38 39  1  0
  2 40  1  0
  2 41  1  0
  3 42  1  0
  3 43  1  0
  6 44  1  0
  6 45  1  0
  7 46  1  0
  8 47  1  0
  9 48  1  0
 10 49  1  0
 11 50  1  0
 11 51  1  0
 12 52  1  0
 12 53  1  0
 13 54  1  0
 14 55  1  0
 15 56  1  0
 15 57  1  0
 16 58  1  0
 16 59  1  0
 17 60  1  0
 17 61  1  0
 18 62  1  0
 18 63  1  0
 19 64  1  0
 19 65  1  0
 20 66  1  0
 20 67  1  0
 21 68  1  0
 21 69  1  0
 22 70  1  0
 22 71  1  0
 22 72  1  0
 25 73  1  0
 28 74  1  0
 28 75  1  0
 29 76  1  0
 29 77  1  0
 30 78  1  0
 30 79  1  0
 31 80  1  0
 31 81  1  0
 32 82  1  0
 32 83  1  0
 33 84  1  0
 33 85  1  0
 34 86  1  0
 34 87  1  0
 35 88  1  0
 35 89  1  0
 36 90  1  0
 36 91  1  0
 37 92  1  0
 37 93  1  0
 38 94  1  0
 38 95  1  0
 39 96  1  0
 39 97  1  0
 39 98  1  0
M  END
$$$$
