
     RDKit          3D

 98 97  0  0  0  0  0  0  0  0999 V2000
    5.7676   -0.1546    0.5417 C   0  0  0  0  0  0  0  0  0  0  0  0
    6.6476    1.0518    0.5417 N   0  0  0  0  0  0  0  0  0  0  0  0
    4.5602    0.0745    1.4911 C   0  0  0  0  0  0  0  0  0  0  0  0
    2.3001    0.5568    0.3986 C   0  0  0  0  0  0  0  0  0  0  0  0
    0.0094   -0.5007   -0.8726 C   0  0  0  0  0  0  0  0  0  0  0  0
    3.5195    1.1310    1.0856 C   0  0  0  0  0  0  0  0  0  0  0  0
    1.4678   -0.3556    1.0627 C   0  0  0  0  0  0  0  0  0  0  0  0
    1.9598    0.9498   -0.9011 C   0  0  0  0  0  0  0  0  0  0  0  0
    0.3409   -0.8866    0.4303 C   0  0  0  0  0  0  0  0  0  0  0  0
    0.8254    0.4292   -1.5298 C   0  0  0  0  0  0  0  0  0  0  0  0
    6.5737   -1.3718    1.0819 C   0  0  0  0  0  0  0  0  0  0  0  0
    5.3498   -0.4178   -0.9287 C   0  0  0  0  0  0  0  0  0  0  0  0
    5.1107    0.8168   -1.6064 O   0  0  0  0  0  0  0  0  0  0  0  0
    7.8442   -1.4750    0.4367 O   0  0  0  0  0  0  0  0  0  0  0  0
   -1.2096   -1.0640   -1.5585 C   0  0  0  0  0  0  0  0  0  0  0  0
   -2.4617   -0.1887   -1.4206 C   0  0  0  0  0  0  0  0  0  0  0  0
   -7.3857    0.8910    0.9240 C   0  0  0  0  0  0  0  0  0  0  0  0
   -6.7825    0.9843   -0.4806 C   0  0  0  0  0  0  0  0  0  0  0  0
   -3.0776   -0.2417   -0.0175 C   0  0  0  0  0  0  0  0  0  0  0  0
   -4.3300    0.6275    0.1454 C   0  0  0  0  0  0  0  0  0  0  0  0
   -5.5086    0.1654   -0.7143 C   0  0  0  0  0  0  0  0  0  0  0  0
   -7.7444   -0.5291    1.3372 C   0  0  0  0  0  0  0  0  0  0  0  0
    2.7396    2.8500   -0.4951 S   0  0  0  0  0  0  0  0  0  0  0  0
    2.6238    1.6938    0.6393 O   0  0  0  0  0  0  0  0  0  0  0  0
    2.5345    2.0303   -1.8662 O   0  0  0  0  0  0  0  0  0  0  0  0
    1.6177    3.7478   -0.3613 O   0  0  0  0  0  0  0  0  0  0  0  0
    4.0975    3.3428   -0.5468 O   0  0  0  0  0  0  0  0  0  0  0  0
    3.7750    0.9236    0.9327 C   0  0  0  0  0  0  0  0  0  0  0  0
    3.4048   -0.2485    1.8378 C   0  0  0  0  0  0  0  0  0  0  0  0
    2.7344   -1.4164    1.1050 C   0  0  0  0  0  0  0  0  0  0  0  0
    1.3141   -1.1222    0.6138 C   0  0  0  0  0  0  0  0  0  0  0  0
    0.6864   -2.3714   -0.0125 C   0  0  0  0  0  0  0  0  0  0  0  0
   -0.7257   -2.1297   -0.5544 C   0  0  0  0  0  0  0  0  0  0  0  0
   -1.7624   -1.9169    0.5524 C   0  0  0  0  0  0  0  0  0  0  0  0
   -3.1984   -1.8620    0.0270 C   0  0  0  0  0  0  0  0  0  0  0  0
   -3.5262   -0.7350   -0.9593 C   0  0  0  0  0  0  0  0  0  0  0  0
   -3.4831    0.6764   -0.3641 C   0  0  0  0  0  0  0  0  0  0  0  0
   -2.1391    1.3823   -0.5468 C   0  0  0  0  0  0  0  0  0  0  0  0
   -2.1931    2.8091   -0.0216 C   0  0  0  0  0  0  0  0  0  0  0  0
    7.5552    0.7450    0.1671 H   0  0  0  0  0  0  0  0  0  0  0  0
    6.8677    1.2963    1.5091 H   0  0  0  0  0  0  0  0  0  0  0  0
    4.9607    0.3791    2.4691 H   0  0  0  0  0  0  0  0  0  0  0  0
    4.0719   -0.8906    1.6760 H   0  0  0  0  0  0  0  0  0  0  0  0
    3.1572    1.6291    1.9954 H   0  0  0  0  0  0  0  0  0  0  0  0
    3.9718    1.9277    0.4870 H   0  0  0  0  0  0  0  0  0  0  0  0
    1.6885   -0.6567    2.0839 H   0  0  0  0  0  0  0  0  0  0  0  0
    2.5845    1.6607   -1.4392 H   0  0  0  0  0  0  0  0  0  0  0  0
   -0.2846   -1.5973    0.9679 H   0  0  0  0  0  0  0  0  0  0  0  0
    0.5871    0.7529   -2.5407 H   0  0  0  0  0  0  0  0  0  0  0  0
    6.7744   -1.2532    2.1531 H   0  0  0  0  0  0  0  0  0  0  0  0
    6.0284   -2.3138    0.9441 H   0  0  0  0  0  0  0  0  0  0  0  0
    4.4536   -1.0419   -0.9934 H   0  0  0  0  0  0  0  0  0  0  0  0
    6.1459   -0.9224   -1.4875 H   0  0  0  0  0  0  0  0  0  0  0  0
    5.7006    1.4528   -1.1469 H   0  0  0  0  0  0  0  0  0  0  0  0
    7.7291   -2.0126   -0.3666 H   0  0  0  0  0  0  0  0  0  0  0  0
   -0.9782   -1.1820   -2.6253 H   0  0  0  0  0  0  0  0  0  0  0  0
   -1.4111   -2.0770   -1.1884 H   0  0  0  0  0  0  0  0  0  0  0  0
   -3.1965   -0.5545   -2.1466 H   0  0  0  0  0  0  0  0  0  0  0  0
   -2.2360    0.8502   -1.6891 H   0  0  0  0  0  0  0  0  0  0  0  0
   -6.7057    1.3249    1.6640 H   0  0  0  0  0  0  0  0  0  0  0  0
   -8.2956    1.5038    0.9471 H   0  0  0  0  0  0  0  0  0  0  0  0
   -7.5366    0.6580   -1.2078 H   0  0  0  0  0  0  0  0  0  0  0  0
   -6.5758    2.0391   -0.7029 H   0  0  0  0  0  0  0  0  0  0  0  0
   -2.3428    0.1018    0.7184 H   0  0  0  0  0  0  0  0  0  0  0  0
   -3.3199   -1.2803    0.2399 H   0  0  0  0  0  0  0  0  0  0  0  0
   -4.6119    0.5994    1.2045 H   0  0  0  0  0  0  0  0  0  0  0  0
   -4.0875    1.6705   -0.0919 H   0  0  0  0  0  0  0  0  0  0  0  0
   -5.2466    0.2627   -1.7744 H   0  0  0  0  0  0  0  0  0  0  0  0
   -5.7058   -0.8983   -0.5411 H   0  0  0  0  0  0  0  0  0  0  0  0
   -8.2901   -0.5177    2.2864 H   0  0  0  0  0  0  0  0  0  0  0  0
   -6.8483   -1.1387    1.4811 H   0  0  0  0  0  0  0  0  0  0  0  0
   -8.3800   -1.0093    0.5866 H   0  0  0  0  0  0  0  0  0  0  0  0
    3.1532    2.4116   -2.5236 H   0  0  0  0  0  0  0  0  0  0  0  0
    4.2415    0.5621    0.0089 H   0  0  0  0  0  0  0  0  0  0  0  0
    4.4936    1.5645    1.4568 H   0  0  0  0  0  0  0  0  0  0  0  0
    2.7553    0.0938    2.6529 H   0  0  0  0  0  0  0  0  0  0  0  0
    4.3280   -0.6300    2.2919 H   0  0  0  0  0  0  0  0  0  0  0  0
    3.3620   -1.7269    0.2609 H   0  0  0  0  0  0  0  0  0  0  0  0
    2.6973   -2.2680    1.7962 H   0  0  0  0  0  0  0  0  0  0  0  0
    1.3305   -0.3247   -0.1364 H   0  0  0  0  0  0  0  0  0  0  0  0
    0.7071   -0.7726    1.4566 H   0  0  0  0  0  0  0  0  0  0  0  0
    0.6662   -3.1885    0.7181 H   0  0  0  0  0  0  0  0  0  0  0  0
    1.3202   -2.7090   -0.8429 H   0  0  0  0  0  0  0  0  0  0  0  0
   -0.7079   -1.2759   -1.2410 H   0  0  0  0  0  0  0  0  0  0  0  0
   -1.0164   -3.0059   -1.1465 H   0  0  0  0  0  0  0  0  0  0  0  0
   -1.5454   -1.0113    1.1268 H   0  0  0  0  0  0  0  0  0  0  0  0
   -1.6964   -2.7526    1.2623 H   0  0  0  0  0  0  0  0  0  0  0  0
   -3.4248   -2.8182   -0.4619 H   0  0  0  0  0  0  0  0  0  0  0  0
   -3.8799   -1.7925    0.8848 H   0  0  0  0  0  0  0  0  0  0  0  0
   -2.9003   -0.8007   -1.8557 H   0  0  0  0  0  0  0  0  0  0  0  0
   -4.5549   -0.9116   -1.3008 H   0  0  0  0  0  0  0  0  0  0  0  0
   -3.7589    0.6536    0.6967 H   0  0  0  0  0  0  0  0  0  0  0  0
   -4.2505    1.2780   -0.8708 H   0  0  0  0  0  0  0  0  0  0  0  0
   -1.3416    0.8482   -0.0223 H   0  0  0  0  0  0  0  0  0  0  0  0
   -1.8701    1.4031   -1.6094 H   0  0  0  0  0  0  0  0  0  0  0  0
   -1.2208    3.2947   -0.1427 H   0  0  0  0  0  0  0  0  0  0  0  0
   -2.4485    2.8247    1.0434 H   0  0  0  0  0  0  0  0  0  0  0  0
   -2.9382    3.4002   -0.5645 H   0  0  0  0  0  0  0  0  0  0  0  0
  1  2  1  0
  1  3  1  0
  3  6  1  0
  4  6  1  0
  4  7  2  0
  4  8  1  0
  5  9  2  0
  7  9  1  0
  5 10  1  0
  8 10  2  0
  1 11  1  0
  1 12  1  0
 12 13  1  0
 11 14  1  0
  5 15  1  0
 15 16  1  0
 17 18  1  0
 16 19  1  0
 19 20  1  0
 18 21  1  0
 20 21  1  0
 17 22  1  0
 23 24  1  0
 23 25  1  0
 23 26  2  0
 23 27  2  0
 24 28  1  0
 28 29  1  0
 29 30  1  0
 30 31  1  0
 31 32  1  0
 32 33  1  0
 33 34  1  0
 34 35  1  0
 35 36  1  0
 36 37  1  0
 37 38  1  0
 38 39  1  0
  2 40  1  0
  2 41  1  0
  3 42  1  0
  3 43  1  0
  6 44  1  0
  6 45  1  0
  7 46  1  0
  8 47  1  0
  9 48  1  0
 10 49  1  0
 11 50  1  0
 11 51  1  0
 12 52  1  0
 12 53  1  0
 13 54  1  0
 14 55  1  0
 15 56  1  0
 15 57  1  0
 16 58  1  0
 16 59  1  0
 17 60  1  0
 17 61  1  0
 18 62  1  0
 18 63  1  0
 19 64  1  0
 19 65  1  0
 20 66  1  0
 20 67  1  0
 21 68  1  0
 21 69  1  0
 22 70  1  0
 22 71  1  0
 22 72  1  0
 25 73  1  0
 28 74  1  0
 28 75  1  0
 29 76  1  0
 29 77  1  0
 30 78  1  0
 30 79  1  0
 31 80  1  0
 31 81  1  0
 32 82  1  0
 32 83  1  0
 33 84  1  0
 33 85  1  0
 34 86  1  0
 34 87  1  0
 35 88  1  0
 35 89  1  0
 36 90  1  0
 36 91  1  0
 37 92  1  0
 37 93  1  0
 38 94  1  0
 38 95  1  0
 39 96  1  0
 39 97  1  0
 39 98  1  0
M  END
$$$$
