
     RDKit          3D

 98 97  0  0  0  0  0  0  0  0999 V2000
   -6.3413   -0.3598   -0.4022 C   0  0  0  0  0  0  0  0  0  0  0  0
   -6.8277   -0.2624   -1.7988 N   0  0  0  0  0  0  0  0  0  0  0  0
   -4.7875   -0.2902   -0.3676 C   0  0  0  0  0  0  0  0  0  0  0  0
   -2.6665    1.0292   -0.6742 C   0  0  0  0  0  0  0  0  0  0  0  0
    0.1399    0.9482   -0.4258 C   0  0  0  0  0  0  0  0  0  0  0  0
   -4.1715    1.0485   -0.7993 C   0  0  0  0  0  0  0  0  0  0  0  0
   -2.0356    1.5823    0.4467 C   0  0  0  0  0  0  0  0  0  0  0  0
   -1.8814    0.4298   -1.6667 C   0  0  0  0  0  0  0  0  0  0  0  0
   -0.6451    1.5419    0.5694 C   0  0  0  0  0  0  0  0  0  0  0  0
   -0.4911    0.3890   -1.5432 C   0  0  0  0  0  0  0  0  0  0  0  0
   -6.7866   -1.7450    0.1524 C   0  0  0  0  0  0  0  0  0  0  0  0
   -7.0084    0.7480    0.4509 C   0  0  0  0  0  0  0  0  0  0  0  0
   -6.5585    0.7317    1.8036 O   0  0  0  0  0  0  0  0  0  0  0  0
   -6.2812   -2.7997   -0.6760 O   0  0  0  0  0  0  0  0  0  0  0  0
    1.6401    0.8748   -0.2783 C   0  0  0  0  0  0  0  0  0  0  0  0
    2.0675   -0.4237    0.4106 C   0  0  0  0  0  0  0  0  0  0  0  0
    8.1033   -0.4192    0.6031 C   0  0  0  0  0  0  0  0  0  0  0  0
    6.6510    0.0298    0.4390 C   0  0  0  0  0  0  0  0  0  0  0  0
    3.5762   -0.5159    0.6564 C   0  0  0  0  0  0  0  0  0  0  0  0
    4.3994   -0.5611   -0.6339 C   0  0  0  0  0  0  0  0  0  0  0  0
    5.8580   -0.9709   -0.4050 C   0  0  0  0  0  0  0  0  0  0  0  0
    8.8960    0.5537    1.4603 C   0  0  0  0  0  0  0  0  0  0  0  0
    7.0567   -0.5916    1.0015 S   0  0  0  0  0  0  0  0  0  0  0  0
    5.7162   -0.6248    0.0872 O   0  0  0  0  0  0  0  0  0  0  0  0
    6.7453    0.5671    2.0784 O   0  0  0  0  0  0  0  0  0  0  0  0
    8.1700   -0.1266    0.2050 O   0  0  0  0  0  0  0  0  0  0  0  0
    7.1379   -1.8195    1.7581 O   0  0  0  0  0  0  0  0  0  0  0  0
    5.4126    0.5194   -0.6932 C   0  0  0  0  0  0  0  0  0  0  0  0
    4.1737    0.2454   -1.5405 C   0  0  0  0  0  0  0  0  0  0  0  0
    2.9221    0.0037   -0.6896 C   0  0  0  0  0  0  0  0  0  0  0  0
    1.6972   -0.2343   -1.5768 C   0  0  0  0  0  0  0  0  0  0  0  0
    0.4290   -0.5880   -0.7930 C   0  0  0  0  0  0  0  0  0  0  0  0
   -0.0900    0.5646    0.0708 C   0  0  0  0  0  0  0  0  0  0  0  0
   -1.3857    0.2263    0.8152 C   0  0  0  0  0  0  0  0  0  0  0  0
   -2.5993    0.0821   -0.1070 C   0  0  0  0  0  0  0  0  0  0  0  0
   -3.8818   -0.1427    0.6993 C   0  0  0  0  0  0  0  0  0  0  0  0
   -5.0958   -0.2941   -0.2205 C   0  0  0  0  0  0  0  0  0  0  0  0
   -6.3876   -0.6204    0.5326 C   0  0  0  0  0  0  0  0  0  0  0  0
   -6.8664    0.5059    1.4360 C   0  0  0  0  0  0  0  0  0  0  0  0
   -6.3325    0.4623   -2.3113 H   0  0  0  0  0  0  0  0  0  0  0  0
   -6.5882   -1.1494   -2.2555 H   0  0  0  0  0  0  0  0  0  0  0  0
   -4.4428   -0.5240    0.6493 H   0  0  0  0  0  0  0  0  0  0  0  0
   -4.3745   -1.0862   -1.0035 H   0  0  0  0  0  0  0  0  0  0  0  0
   -4.4303    1.2838   -1.8378 H   0  0  0  0  0  0  0  0  0  0  0  0
   -4.5651    1.8728   -0.1945 H   0  0  0  0  0  0  0  0  0  0  0  0
   -2.6201    2.0474    1.2364 H   0  0  0  0  0  0  0  0  0  0  0  0
   -2.3494   -0.0182   -2.5407 H   0  0  0  0  0  0  0  0  0  0  0  0
   -0.1767    1.9747    1.4509 H   0  0  0  0  0  0  0  0  0  0  0  0
    0.0971   -0.0905   -2.3225 H   0  0  0  0  0  0  0  0  0  0  0  0
   -6.4110   -1.9037    1.1689 H   0  0  0  0  0  0  0  0  0  0  0  0
   -7.8795   -1.8282    0.1701 H   0  0  0  0  0  0  0  0  0  0  0  0
   -6.8265    1.7467    0.0391 H   0  0  0  0  0  0  0  0  0  0  0  0
   -8.0960    0.6105    0.4706 H   0  0  0  0  0  0  0  0  0  0  0  0
   -5.6769    1.1401    1.8276 H   0  0  0  0  0  0  0  0  0  0  0  0
   -6.6165   -3.6291   -0.2970 H   0  0  0  0  0  0  0  0  0  0  0  0
    1.9939    1.7405    0.2952 H   0  0  0  0  0  0  0  0  0  0  0  0
    2.0981    0.9580   -1.2710 H   0  0  0  0  0  0  0  0  0  0  0  0
    1.7414   -1.2884   -0.1805 H   0  0  0  0  0  0  0  0  0  0  0  0
    1.5586   -0.5077    1.3795 H   0  0  0  0  0  0  0  0  0  0  0  0
    8.5807   -0.5062   -0.3798 H   0  0  0  0  0  0  0  0  0  0  0  0
    8.1343   -1.4120    1.0663 H   0  0  0  0  0  0  0  0  0  0  0  0
    6.1952    0.1324    1.4299 H   0  0  0  0  0  0  0  0  0  0  0  0
    6.6210    1.0172   -0.0372 H   0  0  0  0  0  0  0  0  0  0  0  0
    3.7691   -1.4242    1.2400 H   0  0  0  0  0  0  0  0  0  0  0  0
    3.8916    0.3326    1.2739 H   0  0  0  0  0  0  0  0  0  0  0  0
    3.9480   -1.2835   -1.3258 H   0  0  0  0  0  0  0  0  0  0  0  0
    4.3723    0.4158   -1.1308 H   0  0  0  0  0  0  0  0  0  0  0  0
    5.8875   -1.9604    0.0682 H   0  0  0  0  0  0  0  0  0  0  0  0
    6.3426   -1.0767   -1.3833 H   0  0  0  0  0  0  0  0  0  0  0  0
    9.9221    0.1970    1.5838 H   0  0  0  0  0  0  0  0  0  0  0  0
    8.4496    0.6527    2.4553 H   0  0  0  0  0  0  0  0  0  0  0  0
    8.9338    1.5448    0.9992 H   0  0  0  0  0  0  0  0  0  0  0  0
    7.3854    0.4603    2.8124 H   0  0  0  0  0  0  0  0  0  0  0  0
    6.2537    0.7463   -1.3577 H   0  0  0  0  0  0  0  0  0  0  0  0
    5.2439    1.3808   -0.0377 H   0  0  0  0  0  0  0  0  0  0  0  0
    4.3536   -0.6385   -2.1647 H   0  0  0  0  0  0  0  0  0  0  0  0
    4.0036    1.0962   -2.2104 H   0  0  0  0  0  0  0  0  0  0  0  0
    2.7566    0.8720   -0.0425 H   0  0  0  0  0  0  0  0  0  0  0  0
    3.0751   -0.8640   -0.0379 H   0  0  0  0  0  0  0  0  0  0  0  0
    1.5106    0.6507   -2.1978 H   0  0  0  0  0  0  0  0  0  0  0  0
    1.9113   -1.0618   -2.2649 H   0  0  0  0  0  0  0  0  0  0  0  0
    0.6177   -1.4671   -0.1649 H   0  0  0  0  0  0  0  0  0  0  0  0
   -0.3379   -0.8767   -1.5202 H   0  0  0  0  0  0  0  0  0  0  0  0
    0.6647    0.8272    0.8212 H   0  0  0  0  0  0  0  0  0  0  0  0
   -0.2440    1.4563   -0.5483 H   0  0  0  0  0  0  0  0  0  0  0  0
   -1.5824    1.0280    1.5380 H   0  0  0  0  0  0  0  0  0  0  0  0
   -1.2483   -0.6943    1.3952 H   0  0  0  0  0  0  0  0  0  0  0  0
   -2.4544   -0.7600   -0.7932 H   0  0  0  0  0  0  0  0  0  0  0  0
   -2.7058    0.9866   -0.7189 H   0  0  0  0  0  0  0  0  0  0  0  0
   -4.0304    0.7038    1.3794 H   0  0  0  0  0  0  0  0  0  0  0  0
   -3.7725   -1.0426    1.3167 H   0  0  0  0  0  0  0  0  0  0  0  0
   -5.2336    0.6229   -0.8066 H   0  0  0  0  0  0  0  0  0  0  0  0
   -4.9043   -1.1028   -0.9369 H   0  0  0  0  0  0  0  0  0  0  0  0
   -7.1727   -0.8353   -0.2019 H   0  0  0  0  0  0  0  0  0  0  0  0
   -6.2533   -1.5313    1.1274 H   0  0  0  0  0  0  0  0  0  0  0  0
   -7.8337    0.2464    1.8792 H   0  0  0  0  0  0  0  0  0  0  0  0
   -6.1649    0.6893    2.2555 H   0  0  0  0  0  0  0  0  0  0  0  0
   -6.9921    1.4352    0.8719 H   0  0  0  0  0  0  0  0  0  0  0  0
  1  2  1  0
  1  3  1  0
  3  6  1  0
  4  6  1  0
  4  7  2  0
  4  8  1  0
  5  9  2  0
  7  9  1  0
  5 10  1  0
  8 10  2  0
  1 11  1  0
  1 12  1  0
 12 13  1  0
 11 14  1  0
  5 15  1  0
 15 16  1  0
 17 18  1  0
 16 19  1  0
 19 20  1  0
 18 21  1  0
 20 21  1  0
 17 22  1  0
 23 24  1  0
 23 25  1  0
 23 26  2  0
 23 27  2  0
 24 28  1  0
 28 29  1  0
 29 30  1  0
 30 31  1  0
 31 32  1  0
 32 33  1  0
 33 34  1  0
 34 35  1  0
 35 36  1  0
 36 37  1  0
 37 38  1  0
 38 39  1  0
  2 40  1  0
  2 41  1  0
  3 42  1  0
  3 43  1  0
  6 44  1  0
  6 45  1  0
  7 46  1  0
  8 47  1  0
  9 48  1  0
 10 49  1  0
 11 50  1  0
 11 51  1  0
 12 52  1  0
 12 53  1  0
 13 54  1  0
 14 55  1  0
 15 56  1  0
 15 57  1  0
 16 58  1  0
 16 59  1  0
 17 60  1  0
 17 61  1  0
 18 62  1  0
 18 63  1  0
 19 64  1  0
 19 65  1  0
 20 66  1  0
 20 67  1  0
 21 68  1  0
 21 69  1  0
 22 70  1  0
 22 71  1  0
 22 72  1  0
 25 73  1  0
 28 74  1  0
 28 75  1  0
 29 76  1  0
 29 77  1  0
 30 78  1  0
 30 79  1  0
 31 80  1  0
 31 81  1  0
 32 82  1  0
 32 83  1  0
 33 84  1  0
 33 85  1  0
 34 86  1  0
 34 87  1  0
 35 88  1  0
 35 89  1  0
 36 90  1  0
 36 91  1  0
 37 92  1  0
 37 93  1  0
 38 94  1  0
 38 95  1  0
 39 96  1  0
 39 97  1  0
 39 98  1  0
M  END
$$$$
