
     RDKit          3D

 73 74  0  0  0  0  0  0  0  0999 V2000
   49.3067    9.8896   13.1267 C   0  0  0  0  0  0  0  0  0  0  0  0
   47.2102    7.7467   12.9839 C   0  0  0  0  0  0  0  0  0  0  0  0
   47.9033   10.1212   12.7784 C   0  0  0  0  0  0  0  0  0  0  0  0
   46.9555    9.1751   12.7555 C   0  0  0  0  0  0  0  0  0  0  0  0
   50.2598   10.3040   12.4952 O   0  0  0  0  0  0  0  0  0  0  0  0
   48.2552    7.1403   12.8613 O   0  0  0  0  0  0  0  0  0  0  0  0
   49.4321    9.2664   14.3069 O   0  0  0  0  0  0  0  0  0  0  0  0
   46.0650    7.1358   13.3278 O   0  0  0  0  0  0  0  0  0  0  0  0
   46.0575    7.9177   12.5454 N   0  0  0  0  0  0  0  0  0  0  0  0
   45.8007    6.5238   12.7015 C   0  0  0  0  0  0  0  0  0  0  0  0
   43.5272    6.7619   11.0611 S   0  0  0  0  0  0  0  0  0  0  0  0
   45.1566    8.8651   11.9761 C   0  0  0  0  0  0  0  0  0  0  0  0
   44.6843    5.9048   12.1008 C   0  0  0  0  0  0  0  0  0  0  0  0
   43.9805    8.4618   11.3113 C   0  0  0  0  0  0  0  0  0  0  0  0
   46.6297    5.6906   13.4871 C   0  0  0  0  0  0  0  0  0  0  0  0
   49.5649   10.3418   14.5210 N   0  0  0  0  0  0  0  0  0  0  0  0
   52.4129   10.7216   13.4939 N   0  0  0  0  0  0  0  0  0  0  0  0
   44.4357    4.5276   12.2715 C   0  0  0  0  0  0  0  0  0  0  0  0
   47.4184    8.4009   12.8891 C   0  0  0  0  0  0  0  0  0  0  0  0
   46.3729    4.3258   13.6528 C   0  0  0  0  0  0  0  0  0  0  0  0
   52.0908   10.1681   14.8239 C   0  0  0  0  0  0  0  0  0  0  0  0
   51.2159   11.2803   12.8376 C   0  0  0  0  0  0  0  0  0  0  0  0
   50.7287   10.6229   15.3951 C   0  0  0  0  0  0  0  0  0  0  0  0
   49.9596   10.4187   13.0968 C   0  0  0  0  0  0  0  0  0  0  0  0
   47.5003    8.8745   14.3456 C   0  0  0  0  0  0  0  0  0  0  0  0
   45.2776    3.7373   13.0454 C   0  0  0  0  0  0  0  0  0  0  0  0
   48.9314    9.0608   14.8731 C   0  0  0  0  0  0  0  0  0  0  0  0
   47.4252    3.3711   14.6251 Cl  0  0  0  0  0  0  0  0  0  0  0  0
   45.3722   10.2596   12.0660 C   0  0  0  0  0  0  0  0  0  0  0  0
   43.0921    9.4097   10.7644 C   0  0  0  0  0  0  0  0  0  0  0  0
   53.4756   11.7204   13.5598 C   0  0  0  0  0  0  0  0  0  0  0  0
   44.4852   11.1981   11.5238 C   0  0  0  0  0  0  0  0  0  0  0  0
   43.3421   10.7725   10.8700 C   0  0  0  0  0  0  0  0  0  0  0  0
   49.1556    9.2234   13.7759 C   0  0  0  0  0  0  0  0  0  0  0  0
   46.3827    8.5259   12.8611 C   0  0  0  0  0  0  0  0  0  0  0  0
   48.6334    9.4882   12.4287 C   0  0  0  0  0  0  0  0  0  0  0  0
   47.3811    9.2141   12.0400 C   0  0  0  0  0  0  0  0  0  0  0  0
   48.5338    9.0895   14.8103 O   0  0  0  0  0  0  0  0  0  0  0  0
   45.2312    8.8884   13.0089 O   0  0  0  0  0  0  0  0  0  0  0  0
   50.4974    9.1860   13.7381 O   0  0  0  0  0  0  0  0  0  0  0  0
   46.8458    7.3631   13.3412 O   0  0  0  0  0  0  0  0  0  0  0  0
   47.6691   11.1447   12.5121 H   0  0  0  0  0  0  0  0  0  0  0  0
   45.9310    9.4381   12.5183 H   0  0  0  0  0  0  0  0  0  0  0  0
   50.3975    9.1383   14.4075 H   0  0  0  0  0  0  0  0  0  0  0  0
   46.3305    6.2011   13.4565 H   0  0  0  0  0  0  0  0  0  0  0  0
   47.4927    6.0871   14.0105 H   0  0  0  0  0  0  0  0  0  0  0  0
   43.5745    4.0627   11.7943 H   0  0  0  0  0  0  0  0  0  0  0  0
   48.1648    7.6191   12.6985 H   0  0  0  0  0  0  0  0  0  0  0  0
   47.7247    9.1897   12.1957 H   0  0  0  0  0  0  0  0  0  0  0  0
   52.8792   10.3910   15.5538 H   0  0  0  0  0  0  0  0  0  0  0  0
   52.0772    9.0750   14.7280 H   0  0  0  0  0  0  0  0  0  0  0  0
   51.3950   11.3305   11.7570 H   0  0  0  0  0  0  0  0  0  0  0  0
   51.0163   12.3056   13.1786 H   0  0  0  0  0  0  0  0  0  0  0  0
   50.5918   10.1972   16.3967 H   0  0  0  0  0  0  0  0  0  0  0  0
   50.7655   11.7092   15.5535 H   0  0  0  0  0  0  0  0  0  0  0  0
   50.1536    9.4185   12.6875 H   0  0  0  0  0  0  0  0  0  0  0  0
   49.1284   10.8537   12.5318 H   0  0  0  0  0  0  0  0  0  0  0  0
   46.9310    9.7991   14.4919 H   0  0  0  0  0  0  0  0  0  0  0  0
   47.0074    8.1376   14.9922 H   0  0  0  0  0  0  0  0  0  0  0  0
   45.0711    2.6782   13.1682 H   0  0  0  0  0  0  0  0  0  0  0  0
   49.5643    8.2085   14.5949 H   0  0  0  0  0  0  0  0  0  0  0  0
   48.8358    9.0208   15.9667 H   0  0  0  0  0  0  0  0  0  0  0  0
   46.2351   10.6705   12.5798 H   0  0  0  0  0  0  0  0  0  0  0  0
   42.1918    9.0827   10.2476 H   0  0  0  0  0  0  0  0  0  0  0  0
   53.7153   12.0947   12.5583 H   0  0  0  0  0  0  0  0  0  0  0  0
   53.2026   12.5730   14.1920 H   0  0  0  0  0  0  0  0  0  0  0  0
   54.3953   11.2765   13.9569 H   0  0  0  0  0  0  0  0  0  0  0  0
   44.6938   12.2604   11.6230 H   0  0  0  0  0  0  0  0  0  0  0  0
   42.6475   11.4924   10.4464 H   0  0  0  0  0  0  0  0  0  0  0  0
   49.3206    9.9728   11.7450 H   0  0  0  0  0  0  0  0  0  0  0  0
   47.0274    9.5175   11.0622 H   0  0  0  0  0  0  0  0  0  0  0  0
   50.7499    9.0083   14.6684 H   0  0  0  0  0  0  0  0  0  0  0  0
   46.1117    7.0232   13.8925 H   0  0  0  0  0  0  0  0  0  0  0  0
  2  4  1  0
  3  1  1  0
  4  3  2  0
  5  1  2  0
  6  2  2  0
  7  1  1  0
  8  2  1  0
 10  9  1  0
 11 14  1  0
 12  9  1  0
 13 10  2  0
 14 12  2  0
 15 10  1  0
 16 27  1  0
 17 22  1  0
 18 13  1  0
 19  9  1  0
 20 15  2  0
 21 23  1  0
 22 24  1  0
 23 16  1  0
 24 16  1  0
 25 19  1  0
 26 20  1  0
 27 25  1  0
 28 20  1  0
 29 12  1  0
 30 14  1  0
 31 17  1  0
 32 29  2  0
 33 30  2  0
 11 13  1  0
 32 33  1  0
 26 18  2  0
 17 21  1  0
 35 37  1  0
 36 34  1  0
 37 36  2  0
 38 34  2  0
 39 35  2  0
 40 34  1  0
 41 35  1  0
  3 42  1  0
  4 43  1  0
  7 44  1  0
  8 45  1  0
 15 46  1  0
 18 47  1  0
 19 48  1  0
 19 49  1  0
 21 50  1  0
 21 51  1  0
 22 52  1  0
 22 53  1  0
 23 54  1  0
 23 55  1  0
 24 56  1  0
 24 57  1  0
 25 58  1  0
 25 59  1  0
 26 60  1  0
 27 61  1  0
 27 62  1  0
 29 63  1  0
 30 64  1  0
 31 65  1  0
 31 66  1  0
 31 67  1  0
 32 68  1  0
 33 69  1  0
 36 70  1  0
 37 71  1  0
 40 72  1  0
 41 73  1  0
M  END
> <Uni-Dock RESULT> 
ENERGY=   -5.721  LOWER_BOUND=    0.000  UPPER_BOUND=    0.000
INTER + INTRA:          -5.721
INTER:                  -5.721
INTRA:                   0.000
UNBOUND:                 0.000

$$$$

     RDKit          3D

 73 74  0  0  0  0  0  0  0  0999 V2000
   46.5057    5.8372   12.7880 C   0  0  0  0  0  0  0  0  0  0  0  0
   48.3742    8.1786   12.6018 C   0  0  0  0  0  0  0  0  0  0  0  0
   47.4899    6.1990   13.8103 C   0  0  0  0  0  0  0  0  0  0  0  0
   48.2956    7.2674   13.7511 C   0  0  0  0  0  0  0  0  0  0  0  0
   46.3595    4.7228   12.3238 O   0  0  0  0  0  0  0  0  0  0  0  0
   48.0624    7.9624   11.4482 O   0  0  0  0  0  0  0  0  0  0  0  0
   45.6834    6.8570   12.5033 O   0  0  0  0  0  0  0  0  0  0  0  0
   48.9072    9.3478   12.9914 O   0  0  0  0  0  0  0  0  0  0  0  0
   49.3076    8.3992   13.3957 N   0  0  0  0  0  0  0  0  0  0  0  0
   49.7159    9.5058   12.5944 C   0  0  0  0  0  0  0  0  0  0  0  0
   52.1939    9.5523   13.9264 S   0  0  0  0  0  0  0  0  0  0  0  0
   49.9881    7.9228   14.5547 C   0  0  0  0  0  0  0  0  0  0  0  0
   50.9773   10.1154   12.7614 C   0  0  0  0  0  0  0  0  0  0  0  0
   51.2725    8.3883   14.9031 C   0  0  0  0  0  0  0  0  0  0  0  0
   48.8735   10.0722   11.6105 C   0  0  0  0  0  0  0  0  0  0  0  0
   45.1417    6.2313   13.2347 N   0  0  0  0  0  0  0  0  0  0  0  0
   44.2691    3.9472   11.4093 N   0  0  0  0  0  0  0  0  0  0  0  0
   51.3650   11.2156   11.9699 C   0  0  0  0  0  0  0  0  0  0  0  0
   48.1510    7.6023   12.9153 C   0  0  0  0  0  0  0  0  0  0  0  0
   49.2663   11.1658   10.8322 C   0  0  0  0  0  0  0  0  0  0  0  0
   43.5570    5.2368   11.5022 C   0  0  0  0  0  0  0  0  0  0  0  0
   45.2900    3.8171   12.4661 C   0  0  0  0  0  0  0  0  0  0  0  0
   43.7338    5.9715   12.8503 C   0  0  0  0  0  0  0  0  0  0  0  0
   46.0208    5.1526   12.7309 C   0  0  0  0  0  0  0  0  0  0  0  0
   46.8296    8.1082   13.5071 C   0  0  0  0  0  0  0  0  0  0  0  0
   50.5127   11.7414   11.0058 C   0  0  0  0  0  0  0  0  0  0  0  0
   45.5727    7.5713   12.8050 C   0  0  0  0  0  0  0  0  0  0  0  0
   48.1877   11.8049    9.6521 Cl  0  0  0  0  0  0  0  0  0  0  0  0
   49.4090    6.9800   15.4351 C   0  0  0  0  0  0  0  0  0  0  0  0
   51.9281    7.9182   16.0589 C   0  0  0  0  0  0  0  0  0  0  0  0
   43.3515    2.8121   11.4393 C   0  0  0  0  0  0  0  0  0  0  0  0
   50.0629    6.5179   16.5842 C   0  0  0  0  0  0  0  0  0  0  0  0
   51.3268    6.9872   16.8971 C   0  0  0  0  0  0  0  0  0  0  0  0
   46.2652    6.7152   12.5441 C   0  0  0  0  0  0  0  0  0  0  0  0
   48.7103    8.0319   13.6846 C   0  0  0  0  0  0  0  0  0  0  0  0
   47.5379    6.0272   12.7983 C   0  0  0  0  0  0  0  0  0  0  0  0
   48.6116    6.6101   13.3479 C   0  0  0  0  0  0  0  0  0  0  0  0
   45.8336    7.7181   13.0755 O   0  0  0  0  0  0  0  0  0  0  0  0
   49.1291    8.4717   14.7383 O   0  0  0  0  0  0  0  0  0  0  0  0
   45.5642    6.0364   11.6216 O   0  0  0  0  0  0  0  0  0  0  0  0
   48.4019    8.8152   12.6414 O   0  0  0  0  0  0  0  0  0  0  0  0
   47.5427    5.5127   14.6465 H   0  0  0  0  0  0  0  0  0  0  0  0
   48.9744    7.4818   14.5685 H   0  0  0  0  0  0  0  0  0  0  0  0
   45.1069    6.5073   11.7935 H   0  0  0  0  0  0  0  0  0  0  0  0
   48.9203    9.8818   12.1696 H   0  0  0  0  0  0  0  0  0  0  0  0
   47.8750    9.6875   11.4347 H   0  0  0  0  0  0  0  0  0  0  0  0
   52.3453   11.6698   12.1049 H   0  0  0  0  0  0  0  0  0  0  0  0
   48.1067    7.6092   11.8187 H   0  0  0  0  0  0  0  0  0  0  0  0
   48.3062    6.5420   13.1356 H   0  0  0  0  0  0  0  0  0  0  0  0
   42.4859    5.1205   11.2939 H   0  0  0  0  0  0  0  0  0  0  0  0
   43.9449    5.8822   10.7039 H   0  0  0  0  0  0  0  0  0  0  0  0
   46.0257    3.0651   12.1575 H   0  0  0  0  0  0  0  0  0  0  0  0
   44.8462    3.4657   13.4078 H   0  0  0  0  0  0  0  0  0  0  0  0
   43.1415    6.8948   12.8439 H   0  0  0  0  0  0  0  0  0  0  0  0
   43.2858    5.3551   13.6414 H   0  0  0  0  0  0  0  0  0  0  0  0
   46.5143    5.4511   11.7966 H   0  0  0  0  0  0  0  0  0  0  0  0
   46.8023    4.9688   13.4757 H   0  0  0  0  0  0  0  0  0  0  0  0
   46.7710    7.8949   14.5802 H   0  0  0  0  0  0  0  0  0  0  0  0
   46.7997    9.2029   13.4379 H   0  0  0  0  0  0  0  0  0  0  0  0
   50.8259   12.5904   10.4054 H   0  0  0  0  0  0  0  0  0  0  0  0
   45.6795    7.6296   11.7144 H   0  0  0  0  0  0  0  0  0  0  0  0
   44.7778    8.2822   13.0683 H   0  0  0  0  0  0  0  0  0  0  0  0
   48.4141    6.5806   15.2677 H   0  0  0  0  0  0  0  0  0  0  0  0
   52.9227    8.2815   16.3109 H   0  0  0  0  0  0  0  0  0  0  0  0
   43.9013    1.8694   11.3407 H   0  0  0  0  0  0  0  0  0  0  0  0
   42.7678    2.7772   12.3663 H   0  0  0  0  0  0  0  0  0  0  0  0
   42.6555    2.8590   10.5944 H   0  0  0  0  0  0  0  0  0  0  0  0
   49.5732    5.7951   17.2321 H   0  0  0  0  0  0  0  0  0  0  0  0
   51.8422    6.6355   17.7863 H   0  0  0  0  0  0  0  0  0  0  0  0
   47.5600    4.9726   12.5495 H   0  0  0  0  0  0  0  0  0  0  0  0
   49.4903    6.0272   13.5957 H   0  0  0  0  0  0  0  0  0  0  0  0
   44.7436    6.5631   11.5214 H   0  0  0  0  0  0  0  0  0  0  0  0
   48.4693    9.7246   12.9977 H   0  0  0  0  0  0  0  0  0  0  0  0
  2  4  1  0
  3  1  1  0
  4  3  2  0
  5  1  2  0
  6  2  2  0
  7  1  1  0
  8  2  1  0
 10  9  1  0
 11 14  1  0
 12  9  1  0
 13 10  2  0
 14 12  2  0
 15 10  1  0
 16 27  1  0
 17 22  1  0
 18 13  1  0
 19  9  1  0
 20 15  2  0
 21 23  1  0
 22 24  1  0
 23 16  1  0
 24 16  1  0
 25 19  1  0
 26 20  1  0
 27 25  1  0
 28 20  1  0
 29 12  1  0
 30 14  1  0
 31 17  1  0
 32 29  2  0
 33 30  2  0
 11 13  1  0
 32 33  1  0
 26 18  2  0
 17 21  1  0
 35 37  1  0
 36 34  1  0
 37 36  2  0
 38 34  2  0
 39 35  2  0
 40 34  1  0
 41 35  1  0
  3 42  1  0
  4 43  1  0
  7 44  1  0
  8 45  1  0
 15 46  1  0
 18 47  1  0
 19 48  1  0
 19 49  1  0
 21 50  1  0
 21 51  1  0
 22 52  1  0
 22 53  1  0
 23 54  1  0
 23 55  1  0
 24 56  1  0
 24 57  1  0
 25 58  1  0
 25 59  1  0
 26 60  1  0
 27 61  1  0
 27 62  1  0
 29 63  1  0
 30 64  1  0
 31 65  1  0
 31 66  1  0
 31 67  1  0
 32 68  1  0
 33 69  1  0
 36 70  1  0
 37 71  1  0
 40 72  1  0
 41 73  1  0
M  END
> <Uni-Dock RESULT> 
ENERGY=   -5.524  LOWER_BOUND=    2.839  UPPER_BOUND=    6.866
INTER + INTRA:          -5.524
INTER:                  -5.524
INTRA:                   0.000
UNBOUND:                 0.000

$$$$

     RDKit          3D

 73 74  0  0  0  0  0  0  0  0999 V2000
   50.7976    8.9433   12.4983 C   0  0  0  0  0  0  0  0  0  0  0  0
   48.1476    7.5633   12.7839 C   0  0  0  0  0  0  0  0  0  0  0  0
   49.4983    9.6152   12.4282 C   0  0  0  0  0  0  0  0  0  0  0  0
   48.3152    9.0106   12.5979 C   0  0  0  0  0  0  0  0  0  0  0  0
   51.6964    9.0763   11.6900 O   0  0  0  0  0  0  0  0  0  0  0  0
   48.9076    6.6714   12.4650 O   0  0  0  0  0  0  0  0  0  0  0  0
   50.9403    8.2496   13.6365 O   0  0  0  0  0  0  0  0  0  0  0  0
   46.9545    7.3184   13.3491 O   0  0  0  0  0  0  0  0  0  0  0  0
   47.0459    8.1051   12.5769 N   0  0  0  0  0  0  0  0  0  0  0  0
   46.3994    6.8523   12.7912 C   0  0  0  0  0  0  0  0  0  0  0  0
   44.0499    7.8682   11.6232 S   0  0  0  0  0  0  0  0  0  0  0  0
   46.3972    9.3134   12.1864 C   0  0  0  0  0  0  0  0  0  0  0  0
   45.0535    6.6414   12.4245 C   0  0  0  0  0  0  0  0  0  0  0  0
   45.0513    9.3292   11.7666 C   0  0  0  0  0  0  0  0  0  0  0  0
   47.0574    5.7631   13.4070 C   0  0  0  0  0  0  0  0  0  0  0  0
   51.4409    9.2183   13.8120 N   0  0  0  0  0  0  0  0  0  0  0  0
   54.0188    8.7546   12.2469 N   0  0  0  0  0  0  0  0  0  0  0  0
   44.4226    5.4012   12.6514 C   0  0  0  0  0  0  0  0  0  0  0  0
   48.5286    8.1253   12.6451 C   0  0  0  0  0  0  0  0  0  0  0  0
   46.4218    4.5375   13.6305 C   0  0  0  0  0  0  0  0  0  0  0  0
   53.7948    8.2573   13.6185 C   0  0  0  0  0  0  0  0  0  0  0  0
   52.9564    9.6899   11.8318 C   0  0  0  0  0  0  0  0  0  0  0  0
   52.7763    9.0791   14.4404 C   0  0  0  0  0  0  0  0  0  0  0  0
   51.5655    9.2457   12.3376 C   0  0  0  0  0  0  0  0  0  0  0  0
   49.0263    8.4718   14.0538 C   0  0  0  0  0  0  0  0  0  0  0  0
   45.1039    4.3493   13.2528 C   0  0  0  0  0  0  0  0  0  0  0  0
   50.5158    8.1786   14.2910 C   0  0  0  0  0  0  0  0  0  0  0  0
   47.2846    3.2539   14.3869 Cl  0  0  0  0  0  0  0  0  0  0  0  0
   47.0517   10.5663   12.2214 C   0  0  0  0  0  0  0  0  0  0  0  0
   44.4188   10.5329   11.3957 C   0  0  0  0  0  0  0  0  0  0  0  0
   55.3335    9.3714   12.0964 C   0  0  0  0  0  0  0  0  0  0  0  0
   46.4183   11.7604   11.8548 C   0  0  0  0  0  0  0  0  0  0  0  0
   45.0982   11.7442   11.4395 C   0  0  0  0  0  0  0  0  0  0  0  0
   50.5699    8.3226   13.1699 C   0  0  0  0  0  0  0  0  0  0  0  0
   47.5983    8.5653   12.8184 C   0  0  0  0  0  0  0  0  0  0  0  0
   49.9141    8.8074   11.9482 C   0  0  0  0  0  0  0  0  0  0  0  0
   48.5895    8.9545   11.8130 C   0  0  0  0  0  0  0  0  0  0  0  0
   50.1429    8.3320   14.3066 O   0  0  0  0  0  0  0  0  0  0  0  0
   46.6676    9.2572   13.1846 O   0  0  0  0  0  0  0  0  0  0  0  0
   51.8002    7.8747   12.8718 O   0  0  0  0  0  0  0  0  0  0  0  0
   47.7552    7.2924   13.2083 O   0  0  0  0  0  0  0  0  0  0  0  0
   49.5510   10.6737   12.2045 H   0  0  0  0  0  0  0  0  0  0  0  0
   47.3994    9.5894   12.5627 H   0  0  0  0  0  0  0  0  0  0  0  0
   51.8177    7.8244   13.5482 H   0  0  0  0  0  0  0  0  0  0  0  0
   46.9331    6.3419   13.4312 H   0  0  0  0  0  0  0  0  0  0  0  0
   48.0832    5.8451   13.7491 H   0  0  0  0  0  0  0  0  0  0  0  0
   43.3858    5.2512   12.3548 H   0  0  0  0  0  0  0  0  0  0  0  0
   48.9429    7.1626   12.3190 H   0  0  0  0  0  0  0  0  0  0  0  0
   48.9309    8.8169   11.8990 H   0  0  0  0  0  0  0  0  0  0  0  0
   54.7355    8.1864   14.1790 H   0  0  0  0  0  0  0  0  0  0  0  0
   53.4218    7.2285   13.5359 H   0  0  0  0  0  0  0  0  0  0  0  0
   52.9364    9.7400   10.7367 H   0  0  0  0  0  0  0  0  0  0  0  0
   53.1558   10.7069   12.1969 H   0  0  0  0  0  0  0  0  0  0  0  0
   52.7033    8.6634   15.4529 H   0  0  0  0  0  0  0  0  0  0  0  0
   53.1806   10.0908   14.5799 H   0  0  0  0  0  0  0  0  0  0  0  0
   51.3561    8.2579   11.9064 H   0  0  0  0  0  0  0  0  0  0  0  0
   50.8221    9.9457   11.9419 H   0  0  0  0  0  0  0  0  0  0  0  0
   48.8134    9.5178   14.3009 H   0  0  0  0  0  0  0  0  0  0  0  0
   48.4577    7.8896   14.7900 H   0  0  0  0  0  0  0  0  0  0  0  0
   44.6029    3.4008   13.4220 H   0  0  0  0  0  0  0  0  0  0  0  0
   50.7859    7.1887   13.9018 H   0  0  0  0  0  0  0  0  0  0  0  0
   50.6193    8.1116   15.3825 H   0  0  0  0  0  0  0  0  0  0  0  0
   48.0801   10.6625   12.5539 H   0  0  0  0  0  0  0  0  0  0  0  0
   43.3813   10.5281   11.0667 H   0  0  0  0  0  0  0  0  0  0  0  0
   55.4861    9.7065   11.0645 H   0  0  0  0  0  0  0  0  0  0  0  0
   55.4649   10.2315   12.7629 H   0  0  0  0  0  0  0  0  0  0  0  0
   56.1250    8.6446   12.3104 H   0  0  0  0  0  0  0  0  0  0  0  0
   46.9639   12.6995   11.9030 H   0  0  0  0  0  0  0  0  0  0  0  0
   44.5977   12.6650   11.1536 H   0  0  0  0  0  0  0  0  0  0  0  0
   50.5776    9.0920   11.1398 H   0  0  0  0  0  0  0  0  0  0  0  0
   48.1720    9.4042   10.9204 H   0  0  0  0  0  0  0  0  0  0  0  0
   52.1540    7.5782   13.7364 H   0  0  0  0  0  0  0  0  0  0  0  0
   47.0686    7.1668   13.8948 H   0  0  0  0  0  0  0  0  0  0  0  0
  2  4  1  0
  3  1  1  0
  4  3  2  0
  5  1  2  0
  6  2  2  0
  7  1  1  0
  8  2  1  0
 10  9  1  0
 11 14  1  0
 12  9  1  0
 13 10  2  0
 14 12  2  0
 15 10  1  0
 16 27  1  0
 17 22  1  0
 18 13  1  0
 19  9  1  0
 20 15  2  0
 21 23  1  0
 22 24  1  0
 23 16  1  0
 24 16  1  0
 25 19  1  0
 26 20  1  0
 27 25  1  0
 28 20  1  0
 29 12  1  0
 30 14  1  0
 31 17  1  0
 32 29  2  0
 33 30  2  0
 11 13  1  0
 32 33  1  0
 26 18  2  0
 17 21  1  0
 35 37  1  0
 36 34  1  0
 37 36  2  0
 38 34  2  0
 39 35  2  0
 40 34  1  0
 41 35  1  0
  3 42  1  0
  4 43  1  0
  7 44  1  0
  8 45  1  0
 15 46  1  0
 18 47  1  0
 19 48  1  0
 19 49  1  0
 21 50  1  0
 21 51  1  0
 22 52  1  0
 22 53  1  0
 23 54  1  0
 23 55  1  0
 24 56  1  0
 24 57  1  0
 25 58  1  0
 25 59  1  0
 26 60  1  0
 27 61  1  0
 27 62  1  0
 29 63  1  0
 30 64  1  0
 31 65  1  0
 31 66  1  0
 31 67  1  0
 32 68  1  0
 33 69  1  0
 36 70  1  0
 37 71  1  0
 40 72  1  0
 41 73  1  0
M  END
> <Uni-Dock RESULT> 
ENERGY=   -5.514  LOWER_BOUND=    1.449  UPPER_BOUND=    1.720
INTER + INTRA:          -5.514
INTER:                  -5.514
INTRA:                   0.000
UNBOUND:                 0.000

$$$$

     RDKit          3D

 73 74  0  0  0  0  0  0  0  0999 V2000
   46.9027    6.6184   12.4276 C   0  0  0  0  0  0  0  0  0  0  0  0
   48.4443    8.5528   14.1275 C   0  0  0  0  0  0  0  0  0  0  0  0
   48.2702    7.0627   12.1499 C   0  0  0  0  0  0  0  0  0  0  0  0
   48.9772    7.8921   12.9288 C   0  0  0  0  0  0  0  0  0  0  0  0
   45.9949    6.6075   11.6184 O   0  0  0  0  0  0  0  0  0  0  0  0
   47.2847    8.7774   14.4094 O   0  0  0  0  0  0  0  0  0  0  0  0
   46.7868    6.0976   13.6573 O   0  0  0  0  0  0  0  0  0  0  0  0
   49.4603    8.9458   14.9126 O   0  0  0  0  0  0  0  0  0  0  0  0
   49.5450    9.0433   13.8140 N   0  0  0  0  0  0  0  0  0  0  0  0
   49.5061    9.8564   14.9847 C   0  0  0  0  0  0  0  0  0  0  0  0
   51.5616   11.4642   13.9328 S   0  0  0  0  0  0  0  0  0  0  0  0
   50.5566    9.0883   12.8101 C   0  0  0  0  0  0  0  0  0  0  0  0
   50.3785   10.9521   15.1545 C   0  0  0  0  0  0  0  0  0  0  0  0
   51.5264   10.1113   12.7813 C   0  0  0  0  0  0  0  0  0  0  0  0
   48.6153    9.5959   16.0511 C   0  0  0  0  0  0  0  0  0  0  0  0
   46.9203    5.2361   12.9791 N   0  0  0  0  0  0  0  0  0  0  0  0
   44.1227    5.0976   11.7687 N   0  0  0  0  0  0  0  0  0  0  0  0
   50.3372   11.7420   16.3215 C   0  0  0  0  0  0  0  0  0  0  0  0
   48.3751    8.1667   13.5561 C   0  0  0  0  0  0  0  0  0  0  0  0
   48.5841   10.3837   17.2063 C   0  0  0  0  0  0  0  0  0  0  0  0
   44.4733    4.5265   13.0839 C   0  0  0  0  0  0  0  0  0  0  0  0
   45.3251    5.5192   11.0256 C   0  0  0  0  0  0  0  0  0  0  0  0
   45.9608    4.1362   13.2377 C   0  0  0  0  0  0  0  0  0  0  0  0
   46.3833    6.1577   11.9532 C   0  0  0  0  0  0  0  0  0  0  0  0
   48.5754    6.7660   14.1478 C   0  0  0  0  0  0  0  0  0  0  0  0
   49.4419   11.4604   17.3469 C   0  0  0  0  0  0  0  0  0  0  0  0
   47.2946    5.9210   14.2269 C   0  0  0  0  0  0  0  0  0  0  0  0
   47.4729   10.0073   18.4664 Cl  0  0  0  0  0  0  0  0  0  0  0  0
   50.6650    8.1010   11.8037 C   0  0  0  0  0  0  0  0  0  0  0  0
   52.5287   10.1362   11.7905 C   0  0  0  0  0  0  0  0  0  0  0  0
   43.3213    4.1765   10.9684 C   0  0  0  0  0  0  0  0  0  0  0  0
   51.6645    8.1280   10.8230 C   0  0  0  0  0  0  0  0  0  0  0  0
   52.5988    9.1490   10.8152 C   0  0  0  0  0  0  0  0  0  0  0  0
   46.9809    6.5852   13.3661 C   0  0  0  0  0  0  0  0  0  0  0  0
   49.4018    8.3524   13.5358 C   0  0  0  0  0  0  0  0  0  0  0  0
   47.3822    7.5471   12.3310 C   0  0  0  0  0  0  0  0  0  0  0  0
   48.4874    8.3015   12.3930 C   0  0  0  0  0  0  0  0  0  0  0  0
   47.6782    6.0431   14.1995 O   0  0  0  0  0  0  0  0  0  0  0  0
   50.6140    8.2861   13.4627 O   0  0  0  0  0  0  0  0  0  0  0  0
   45.6692    6.3222   13.2506 O   0  0  0  0  0  0  0  0  0  0  0  0
   48.7559    8.6110   14.6816 O   0  0  0  0  0  0  0  0  0  0  0  0
   48.6897    6.6779   11.2285 H   0  0  0  0  0  0  0  0  0  0  0  0
   49.9981    8.1451   12.6668 H   0  0  0  0  0  0  0  0  0  0  0  0
   45.8362    5.8762   13.7338 H   0  0  0  0  0  0  0  0  0  0  0  0
   49.0134    9.3704   15.6746 H   0  0  0  0  0  0  0  0  0  0  0  0
   47.9300    8.7559   16.0201 H   0  0  0  0  0  0  0  0  0  0  0  0
   51.0112   12.5896   16.4339 H   0  0  0  0  0  0  0  0  0  0  0  0
   47.4577    8.6215   13.9515 H   0  0  0  0  0  0  0  0  0  0  0  0
   48.1682    8.1201   12.4829 H   0  0  0  0  0  0  0  0  0  0  0  0
   43.8471    3.6584   13.3251 H   0  0  0  0  0  0  0  0  0  0  0  0
   44.2348    5.2829   13.8424 H   0  0  0  0  0  0  0  0  0  0  0  0
   45.0324    6.2518   10.2641 H   0  0  0  0  0  0  0  0  0  0  0  0
   45.7847    4.6723   10.4976 H   0  0  0  0  0  0  0  0  0  0  0  0
   46.1205    3.6868   14.2256 H   0  0  0  0  0  0  0  0  0  0  0  0
   46.1829    3.3320   12.5234 H   0  0  0  0  0  0  0  0  0  0  0  0
   45.9264    7.0412   12.4181 H   0  0  0  0  0  0  0  0  0  0  0  0
   47.2154    6.5026   11.3303 H   0  0  0  0  0  0  0  0  0  0  0  0
   49.3474    6.2137   13.6005 H   0  0  0  0  0  0  0  0  0  0  0  0
   48.9688    6.8588   15.1681 H   0  0  0  0  0  0  0  0  0  0  0  0
   49.4239   12.0777   18.2402 H   0  0  0  0  0  0  0  0  0  0  0  0
   46.4611    6.5115   14.6279 H   0  0  0  0  0  0  0  0  0  0  0  0
   47.5102    5.1528   14.9819 H   0  0  0  0  0  0  0  0  0  0  0  0
   49.9819    7.2594   11.7556 H   0  0  0  0  0  0  0  0  0  0  0  0
   53.2662   10.9366   11.7770 H   0  0  0  0  0  0  0  0  0  0  0  0
   43.0507    4.6337   10.0101 H   0  0  0  0  0  0  0  0  0  0  0  0
   43.8491    3.2373   10.7672 H   0  0  0  0  0  0  0  0  0  0  0  0
   42.3813    3.9416   11.4801 H   0  0  0  0  0  0  0  0  0  0  0  0
   51.7080    7.3426   10.0725 H   0  0  0  0  0  0  0  0  0  0  0  0
   53.3783    9.1787   10.0591 H   0  0  0  0  0  0  0  0  0  0  0  0
   46.7409    7.5937   11.4586 H   0  0  0  0  0  0  0  0  0  0  0  0
   48.7786    8.9244   11.5560 H   0  0  0  0  0  0  0  0  0  0  0  0
   45.4979    5.6801   13.9710 H   0  0  0  0  0  0  0  0  0  0  0  0
   49.4585    8.5839   15.3629 H   0  0  0  0  0  0  0  0  0  0  0  0
  2  4  1  0
  3  1  1  0
  4  3  2  0
  5  1  2  0
  6  2  2  0
  7  1  1  0
  8  2  1  0
 10  9  1  0
 11 14  1  0
 12  9  1  0
 13 10  2  0
 14 12  2  0
 15 10  1  0
 16 27  1  0
 17 22  1  0
 18 13  1  0
 19  9  1  0
 20 15  2  0
 21 23  1  0
 22 24  1  0
 23 16  1  0
 24 16  1  0
 25 19  1  0
 26 20  1  0
 27 25  1  0
 28 20  1  0
 29 12  1  0
 30 14  1  0
 31 17  1  0
 32 29  2  0
 33 30  2  0
 11 13  1  0
 32 33  1  0
 26 18  2  0
 17 21  1  0
 35 37  1  0
 36 34  1  0
 37 36  2  0
 38 34  2  0
 39 35  2  0
 40 34  1  0
 41 35  1  0
  3 42  1  0
  4 43  1  0
  7 44  1  0
  8 45  1  0
 15 46  1  0
 18 47  1  0
 19 48  1  0
 19 49  1  0
 21 50  1  0
 21 51  1  0
 22 52  1  0
 22 53  1  0
 23 54  1  0
 23 55  1  0
 24 56  1  0
 24 57  1  0
 25 58  1  0
 25 59  1  0
 26 60  1  0
 27 61  1  0
 27 62  1  0
 29 63  1  0
 30 64  1  0
 31 65  1  0
 31 66  1  0
 31 67  1  0
 32 68  1  0
 33 69  1  0
 36 70  1  0
 37 71  1  0
 40 72  1  0
 41 73  1  0
M  END
> <Uni-Dock RESULT> 
ENERGY=   -5.320  LOWER_BOUND=    2.851  UPPER_BOUND=    6.473
INTER + INTRA:          -5.320
INTER:                  -5.320
INTRA:                   0.000
UNBOUND:                 0.000

$$$$

     RDKit          3D

 73 74  0  0  0  0  0  0  0  0999 V2000
   49.8220    7.3599   15.5858 C   0  0  0  0  0  0  0  0  0  0  0  0
   47.7136    8.2531   13.6455 C   0  0  0  0  0  0  0  0  0  0  0  0
   48.9437    6.4573   14.8385 C   0  0  0  0  0  0  0  0  0  0  0  0
   48.0312    6.8496   13.9399 C   0  0  0  0  0  0  0  0  0  0  0  0
   50.0222    7.3049   16.7841 O   0  0  0  0  0  0  0  0  0  0  0  0
   47.8968    9.2282   14.3458 O   0  0  0  0  0  0  0  0  0  0  0  0
   50.4919    8.1904   14.7743 O   0  0  0  0  0  0  0  0  0  0  0  0
   47.1167    8.3363   12.4457 O   0  0  0  0  0  0  0  0  0  0  0  0
   46.8709    7.4986   13.1250 N   0  0  0  0  0  0  0  0  0  0  0  0
   46.2521    8.6274   12.5117 C   0  0  0  0  0  0  0  0  0  0  0  0
   43.9721    7.0738   11.9596 S   0  0  0  0  0  0  0  0  0  0  0  0
   46.3961    6.1560   13.0538 C   0  0  0  0  0  0  0  0  0  0  0  0
   44.9661    8.5456   11.9372 C   0  0  0  0  0  0  0  0  0  0  0  0
   45.1253    5.8468   12.5272 C   0  0  0  0  0  0  0  0  0  0  0  0
   46.8996    9.8806   12.4182 C   0  0  0  0  0  0  0  0  0  0  0  0
   51.1838    7.3557   14.9851 N   0  0  0  0  0  0  0  0  0  0  0  0
   52.0481    8.1074   17.8132 N   0  0  0  0  0  0  0  0  0  0  0  0
   44.3695    9.6662   11.3243 C   0  0  0  0  0  0  0  0  0  0  0  0
   48.0330    7.7587   14.0113 C   0  0  0  0  0  0  0  0  0  0  0  0
   46.3005   10.9859   11.8055 C   0  0  0  0  0  0  0  0  0  0  0  0
   52.6294    8.7048   16.5950 C   0  0  0  0  0  0  0  0  0  0  0  0
   51.1888    6.9526   17.4907 C   0  0  0  0  0  0  0  0  0  0  0  0
   52.5506    7.8067   15.3398 C   0  0  0  0  0  0  0  0  0  0  0  0
   50.3637    7.1876   16.2054 C   0  0  0  0  0  0  0  0  0  0  0  0
   49.3597    7.6685   13.2470 C   0  0  0  0  0  0  0  0  0  0  0  0
   45.0336   10.8857   11.2579 C   0  0  0  0  0  0  0  0  0  0  0  0
   50.5657    8.2547   13.9972 C   0  0  0  0  0  0  0  0  0  0  0  0
   47.1485   12.4822   11.7269 Cl  0  0  0  0  0  0  0  0  0  0  0  0
   47.1766    5.0563   13.4793 C   0  0  0  0  0  0  0  0  0  0  0  0
   44.6740    4.5137   12.4508 C   0  0  0  0  0  0  0  0  0  0  0  0
   53.0742    7.7295   18.7805 C   0  0  0  0  0  0  0  0  0  0  0  0
   46.7252    3.7329   13.3988 C   0  0  0  0  0  0  0  0  0  0  0  0
   45.4697    3.4602   12.8840 C   0  0  0  0  0  0  0  0  0  0  0  0
   49.9377    7.9992   14.9031 C   0  0  0  0  0  0  0  0  0  0  0  0
   47.5348    7.1775   13.3020 C   0  0  0  0  0  0  0  0  0  0  0  0
   48.7855    7.2692   15.4482 C   0  0  0  0  0  0  0  0  0  0  0  0
   47.7360    6.8673   14.7190 C   0  0  0  0  0  0  0  0  0  0  0  0
   50.3276    8.0382   13.7538 O   0  0  0  0  0  0  0  0  0  0  0  0
   47.2102    6.3717   12.4508 O   0  0  0  0  0  0  0  0  0  0  0  0
   50.5820    8.6292   15.8986 O   0  0  0  0  0  0  0  0  0  0  0  0
   47.6256    8.4929   13.0605 O   0  0  0  0  0  0  0  0  0  0  0  0
   49.0687    5.4083   15.0774 H   0  0  0  0  0  0  0  0  0  0  0  0
   47.4434    6.1123   13.4053 H   0  0  0  0  0  0  0  0  0  0  0  0
   51.0064    8.7569   15.3849 H   0  0  0  0  0  0  0  0  0  0  0  0
   46.9442    9.2952   12.3386 H   0  0  0  0  0  0  0  0  0  0  0  0
   47.9020   10.0269   12.8053 H   0  0  0  0  0  0  0  0  0  0  0  0
   43.3728    9.5894   10.8930 H   0  0  0  0  0  0  0  0  0  0  0  0
   47.9367    8.7386   14.4962 H   0  0  0  0  0  0  0  0  0  0  0  0
   48.0173    7.0739   14.8643 H   0  0  0  0  0  0  0  0  0  0  0  0
   53.6716    9.0092   16.7544 H   0  0  0  0  0  0  0  0  0  0  0  0
   52.0787    9.6319   16.3913 H   0  0  0  0  0  0  0  0  0  0  0  0
   50.5013    6.7780   18.3268 H   0  0  0  0  0  0  0  0  0  0  0  0
   51.7826    6.0367   17.3656 H   0  0  0  0  0  0  0  0  0  0  0  0
   53.0388    8.3121   14.4974 H   0  0  0  0  0  0  0  0  0  0  0  0
   53.1567    6.9084   15.5187 H   0  0  0  0  0  0  0  0  0  0  0  0
   49.7273    8.0658   16.3762 H   0  0  0  0  0  0  0  0  0  0  0  0
   49.7064    6.3233   16.0626 H   0  0  0  0  0  0  0  0  0  0  0  0
   49.5759    6.6353   12.9532 H   0  0  0  0  0  0  0  0  0  0  0  0
   49.2675    8.2148   12.2997 H   0  0  0  0  0  0  0  0  0  0  0  0
   44.5607   11.7390   10.7808 H   0  0  0  0  0  0  0  0  0  0  0  0
   50.3158    9.2277   14.4388 H   0  0  0  0  0  0  0  0  0  0  0  0
   51.3101    8.4607   13.2161 H   0  0  0  0  0  0  0  0  0  0  0  0
   48.1779    5.1882   13.8758 H   0  0  0  0  0  0  0  0  0  0  0  0
   43.6873    4.2913   12.0486 H   0  0  0  0  0  0  0  0  0  0  0  0
   52.6166    7.3153   19.6858 H   0  0  0  0  0  0  0  0  0  0  0  0
   53.7715    6.9878   18.3745 H   0  0  0  0  0  0  0  0  0  0  0  0
   53.6486    8.6085   19.0936 H   0  0  0  0  0  0  0  0  0  0  0  0
   47.3652    2.9212   13.7356 H   0  0  0  0  0  0  0  0  0  0  0  0
   45.1106    2.4372   12.8168 H   0  0  0  0  0  0  0  0  0  0  0  0
   48.8408    7.0229   16.5022 H   0  0  0  0  0  0  0  0  0  0  0  0
   46.9608    6.2520   15.1592 H   0  0  0  0  0  0  0  0  0  0  0  0
   51.3245    9.0800   15.4445 H   0  0  0  0  0  0  0  0  0  0  0  0
   47.5106    8.5660   12.0910 H   0  0  0  0  0  0  0  0  0  0  0  0
  2  4  1  0
  3  1  1  0
  4  3  2  0
  5  1  2  0
  6  2  2  0
  7  1  1  0
  8  2  1  0
 10  9  1  0
 11 14  1  0
 12  9  1  0
 13 10  2  0
 14 12  2  0
 15 10  1  0
 16 27  1  0
 17 22  1  0
 18 13  1  0
 19  9  1  0
 20 15  2  0
 21 23  1  0
 22 24  1  0
 23 16  1  0
 24 16  1  0
 25 19  1  0
 26 20  1  0
 27 25  1  0
 28 20  1  0
 29 12  1  0
 30 14  1  0
 31 17  1  0
 32 29  2  0
 33 30  2  0
 11 13  1  0
 32 33  1  0
 26 18  2  0
 17 21  1  0
 35 37  1  0
 36 34  1  0
 37 36  2  0
 38 34  2  0
 39 35  2  0
 40 34  1  0
 41 35  1  0
  3 42  1  0
  4 43  1  0
  7 44  1  0
  8 45  1  0
 15 46  1  0
 18 47  1  0
 19 48  1  0
 19 49  1  0
 21 50  1  0
 21 51  1  0
 22 52  1  0
 22 53  1  0
 23 54  1  0
 23 55  1  0
 24 56  1  0
 24 57  1  0
 25 58  1  0
 25 59  1  0
 26 60  1  0
 27 61  1  0
 27 62  1  0
 29 63  1  0
 30 64  1  0
 31 65  1  0
 31 66  1  0
 31 67  1  0
 32 68  1  0
 33 69  1  0
 36 70  1  0
 37 71  1  0
 40 72  1  0
 41 73  1  0
M  END
> <Uni-Dock RESULT> 
ENERGY=   -5.003  LOWER_BOUND=    2.455  UPPER_BOUND=    4.330
INTER + INTRA:          -5.003
INTER:                  -5.003
INTRA:                   0.000
UNBOUND:                 0.000

$$$$

     RDKit          3D

 73 74  0  0  0  0  0  0  0  0999 V2000
   50.5662    8.9396   12.1057 C   0  0  0  0  0  0  0  0  0  0  0  0
   49.5008    7.3382   14.4097 C   0  0  0  0  0  0  0  0  0  0  0  0
   49.2944    8.2137   12.0962 C   0  0  0  0  0  0  0  0  0  0  0  0
   48.7949    7.5336   13.1365 C   0  0  0  0  0  0  0  0  0  0  0  0
   51.4148    8.8717   11.2372 O   0  0  0  0  0  0  0  0  0  0  0  0
   50.6944    7.3990   14.6246 O   0  0  0  0  0  0  0  0  0  0  0  0
   50.6428    9.7995   13.1312 O   0  0  0  0  0  0  0  0  0  0  0  0
   48.6166    7.0205   15.3690 O   0  0  0  0  0  0  0  0  0  0  0  0
   48.4977    6.6028   14.3517 N   0  0  0  0  0  0  0  0  0  0  0  0
   48.7462    6.1733   15.6885 C   0  0  0  0  0  0  0  0  0  0  0  0
   46.9797    4.0145   15.3202 S   0  0  0  0  0  0  0  0  0  0  0  0
   47.4642    6.1073   13.5033 C   0  0  0  0  0  0  0  0  0  0  0  0
   48.1044    5.0414   16.2339 C   0  0  0  0  0  0  0  0  0  0  0  0
   46.7035    4.9716   13.8486 C   0  0  0  0  0  0  0  0  0  0  0  0
   49.6237    6.8700   16.5505 C   0  0  0  0  0  0  0  0  0  0  0  0
   50.3167   10.3986   12.2625 N   0  0  0  0  0  0  0  0  0  0  0  0
   52.9753   10.6519   10.7868 N   0  0  0  0  0  0  0  0  0  0  0  0
   48.3507    4.6332   17.5606 C   0  0  0  0  0  0  0  0  0  0  0  0
   49.4681    7.5523   13.7513 C   0  0  0  0  0  0  0  0  0  0  0  0
   49.8592    6.4587   17.8663 C   0  0  0  0  0  0  0  0  0  0  0  0
   52.5890   11.5058   11.9272 C   0  0  0  0  0  0  0  0  0  0  0  0
   51.8383    9.8429   10.3089 C   0  0  0  0  0  0  0  0  0  0  0  0
   51.0642   11.6704   12.1176 C   0  0  0  0  0  0  0  0  0  0  0  0
   50.9658    9.3267   11.4752 C   0  0  0  0  0  0  0  0  0  0  0  0
   49.0378    9.0096   13.9600 C   0  0  0  0  0  0  0  0  0  0  0  0
   49.2268    5.3389   18.3772 C   0  0  0  0  0  0  0  0  0  0  0  0
   50.1396   10.0433   13.6797 C   0  0  0  0  0  0  0  0  0  0  0  0
   50.9408    7.3564   18.8607 Cl  0  0  0  0  0  0  0  0  0  0  0  0
   47.1229    6.7364   12.2839 C   0  0  0  0  0  0  0  0  0  0  0  0
   45.6760    4.5004   13.0066 C   0  0  0  0  0  0  0  0  0  0  0  0
   53.5492   11.4283    9.6917 C   0  0  0  0  0  0  0  0  0  0  0  0
   46.0991    6.2665   11.4516 C   0  0  0  0  0  0  0  0  0  0  0  0
   45.3738    5.1445   11.8130 C   0  0  0  0  0  0  0  0  0  0  0  0
   50.5295    9.2241   13.0033 C   0  0  0  0  0  0  0  0  0  0  0  0
   48.4947    7.2003   13.8845 C   0  0  0  0  0  0  0  0  0  0  0  0
   50.2653    7.9554   12.3118 C   0  0  0  0  0  0  0  0  0  0  0  0
   49.3258    7.0765   12.6850 C   0  0  0  0  0  0  0  0  0  0  0  0
   49.7848    9.8563   13.7247 O   0  0  0  0  0  0  0  0  0  0  0  0
   47.2895    7.0404   13.9175 O   0  0  0  0  0  0  0  0  0  0  0  0
   51.7612    9.6581   12.6908 O   0  0  0  0  0  0  0  0  0  0  0  0
   49.2334    7.3885   14.9871 O   0  0  0  0  0  0  0  0  0  0  0  0
   48.7652    8.2461   11.1517 H   0  0  0  0  0  0  0  0  0  0  0  0
   47.8280    7.0505   13.0558 H   0  0  0  0  0  0  0  0  0  0  0  0
   51.5376   10.1885   13.0499 H   0  0  0  0  0  0  0  0  0  0  0  0
   49.1723    6.9099   16.1688 H   0  0  0  0  0  0  0  0  0  0  0  0
   50.1368    7.7685   16.2257 H   0  0  0  0  0  0  0  0  0  0  0  0
   47.8542    3.7524   17.9643 H   0  0  0  0  0  0  0  0  0  0  0  0
   50.4728    7.3876   14.1612 H   0  0  0  0  0  0  0  0  0  0  0  0
   49.6093    7.3265   12.6903 H   0  0  0  0  0  0  0  0  0  0  0  0
   53.0524   12.4983   11.8614 H   0  0  0  0  0  0  0  0  0  0  0  0
   53.0025   11.0462   12.8339 H   0  0  0  0  0  0  0  0  0  0  0  0
   52.2254    8.9839    9.7481 H   0  0  0  0  0  0  0  0  0  0  0  0
   51.2025   10.4165    9.6205 H   0  0  0  0  0  0  0  0  0  0  0  0
   50.8719   12.3483   12.9583 H   0  0  0  0  0  0  0  0  0  0  0  0
   50.6601   12.1904   11.2385 H   0  0  0  0  0  0  0  0  0  0  0  0
   51.6028    8.7002   12.1133 H   0  0  0  0  0  0  0  0  0  0  0  0
   50.1836    8.6859   11.0548 H   0  0  0  0  0  0  0  0  0  0  0  0
   48.1498    9.2476   13.3638 H   0  0  0  0  0  0  0  0  0  0  0  0
   48.7197    9.1457   15.0013 H   0  0  0  0  0  0  0  0  0  0  0  0
   49.4043    5.0122   19.3976 H   0  0  0  0  0  0  0  0  0  0  0  0
   51.0878    9.7380   14.1401 H   0  0  0  0  0  0  0  0  0  0  0  0
   49.8211   10.9469   14.2170 H   0  0  0  0  0  0  0  0  0  0  0  0
   47.6327    7.6313   11.9425 H   0  0  0  0  0  0  0  0  0  0  0  0
   45.1021    3.6179   13.2832 H   0  0  0  0  0  0  0  0  0  0  0  0
   53.8531   10.7698    8.8703 H   0  0  0  0  0  0  0  0  0  0  0  0
   52.8451   12.1704    9.2982 H   0  0  0  0  0  0  0  0  0  0  0  0
   54.4524   11.9517   10.0246 H   0  0  0  0  0  0  0  0  0  0  0  0
   45.8720    6.7882   10.5253 H   0  0  0  0  0  0  0  0  0  0  0  0
   44.5774    4.7724   11.1747 H   0  0  0  0  0  0  0  0  0  0  0  0
   50.8601    7.7708   11.4248 H   0  0  0  0  0  0  0  0  0  0  0  0
   49.1158    6.2025   12.0806 H   0  0  0  0  0  0  0  0  0  0  0  0
   51.8443   10.4972   13.1903 H   0  0  0  0  0  0  0  0  0  0  0  0
   48.5727    7.4903   15.7024 H   0  0  0  0  0  0  0  0  0  0  0  0
  2  4  1  0
  3  1  1  0
  4  3  2  0
  5  1  2  0
  6  2  2  0
  7  1  1  0
  8  2  1  0
 10  9  1  0
 11 14  1  0
 12  9  1  0
 13 10  2  0
 14 12  2  0
 15 10  1  0
 16 27  1  0
 17 22  1  0
 18 13  1  0
 19  9  1  0
 20 15  2  0
 21 23  1  0
 22 24  1  0
 23 16  1  0
 24 16  1  0
 25 19  1  0
 26 20  1  0
 27 25  1  0
 28 20  1  0
 29 12  1  0
 30 14  1  0
 31 17  1  0
 32 29  2  0
 33 30  2  0
 11 13  1  0
 32 33  1  0
 26 18  2  0
 17 21  1  0
 35 37  1  0
 36 34  1  0
 37 36  2  0
 38 34  2  0
 39 35  2  0
 40 34  1  0
 41 35  1  0
  3 42  1  0
  4 43  1  0
  7 44  1  0
  8 45  1  0
 15 46  1  0
 18 47  1  0
 19 48  1  0
 19 49  1  0
 21 50  1  0
 21 51  1  0
 22 52  1  0
 22 53  1  0
 23 54  1  0
 23 55  1  0
 24 56  1  0
 24 57  1  0
 25 58  1  0
 25 59  1  0
 26 60  1  0
 27 61  1  0
 27 62  1  0
 29 63  1  0
 30 64  1  0
 31 65  1  0
 31 66  1  0
 31 67  1  0
 32 68  1  0
 33 69  1  0
 36 70  1  0
 37 71  1  0
 40 72  1  0
 41 73  1  0
M  END
> <Uni-Dock RESULT> 
ENERGY=   -4.873  LOWER_BOUND=    2.650  UPPER_BOUND=    3.878
INTER + INTRA:          -4.873
INTER:                  -4.873
INTRA:                   0.000
UNBOUND:                 0.000

$$$$

     RDKit          3D

 73 74  0  0  0  0  0  0  0  0999 V2000
   47.1020    7.1724   13.0130 C   0  0  0  0  0  0  0  0  0  0  0  0
   49.9488    8.1115   12.8649 C   0  0  0  0  0  0  0  0  0  0  0  0
   48.0223    7.2194   14.1511 C   0  0  0  0  0  0  0  0  0  0  0  0
   49.2797    7.6781   14.0986 C   0  0  0  0  0  0  0  0  0  0  0  0
   46.4202    6.2132   12.7062 O   0  0  0  0  0  0  0  0  0  0  0  0
   49.6813    7.8110   11.7192 O   0  0  0  0  0  0  0  0  0  0  0  0
   46.9951    8.3637   12.4076 O   0  0  0  0  0  0  0  0  0  0  0  0
   50.9903    8.9011   13.1727 O   0  0  0  0  0  0  0  0  0  0  0  0
   50.7720    8.0122   13.7938 N   0  0  0  0  0  0  0  0  0  0  0  0
   51.7890    8.5240   12.9353 C   0  0  0  0  0  0  0  0  0  0  0  0
   53.7562    7.6264   14.7357 S   0  0  0  0  0  0  0  0  0  0  0  0
   50.9714    7.5544   15.1294 C   0  0  0  0  0  0  0  0  0  0  0  0
   53.1567    8.4269   13.2679 C   0  0  0  0  0  0  0  0  0  0  0  0
   52.2629    7.3706   15.6642 C   0  0  0  0  0  0  0  0  0  0  0  0
   51.4865    9.1810   11.7207 C   0  0  0  0  0  0  0  0  0  0  0  0
   46.1339    8.2999   13.0961 N   0  0  0  0  0  0  0  0  0  0  0  0
   44.3417    6.4130   11.5031 N   0  0  0  0  0  0  0  0  0  0  0  0
   54.1522    8.9464   12.4155 C   0  0  0  0  0  0  0  0  0  0  0  0
   49.4202    7.8250   13.2096 C   0  0  0  0  0  0  0  0  0  0  0  0
   52.4813    9.6956   10.8831 C   0  0  0  0  0  0  0  0  0  0  0  0
   44.4371    7.8629   11.2437 C   0  0  0  0  0  0  0  0  0  0  0  0
   45.0228    6.0434   12.7583 C   0  0  0  0  0  0  0  0  0  0  0  0
   44.8543    8.7076   12.4688 C   0  0  0  0  0  0  0  0  0  0  0  0
   46.3316    6.8395   12.9615 C   0  0  0  0  0  0  0  0  0  0  0  0
   48.5345    9.0586   13.4245 C   0  0  0  0  0  0  0  0  0  0  0  0
   53.8174    9.5797   11.2242 C   0  0  0  0  0  0  0  0  0  0  0  0
   47.2610    9.0834   12.5651 C   0  0  0  0  0  0  0  0  0  0  0  0
   52.0396   10.4851    9.4182 Cl  0  0  0  0  0  0  0  0  0  0  0  0
   49.8930    7.2839   16.0030 C   0  0  0  0  0  0  0  0  0  0  0  0
   52.4453    6.9299   16.9906 C   0  0  0  0  0  0  0  0  0  0  0  0
   42.9575    5.9490   11.5143 C   0  0  0  0  0  0  0  0  0  0  0  0
   50.0789    6.8491   17.3213 C   0  0  0  0  0  0  0  0  0  0  0  0
   51.3588    6.6703   17.8169 C   0  0  0  0  0  0  0  0  0  0  0  0
   47.4002    7.9607   12.5913 C   0  0  0  0  0  0  0  0  0  0  0  0
   50.0466    8.0826   14.0036 C   0  0  0  0  0  0  0  0  0  0  0  0
   48.0658    6.8071   13.2109 C   0  0  0  0  0  0  0  0  0  0  0  0
   49.2258    6.8764   13.8774 C   0  0  0  0  0  0  0  0  0  0  0  0
   47.5327    9.1378   12.8585 O   0  0  0  0  0  0  0  0  0  0  0  0
   50.5341    8.4892   15.0410 O   0  0  0  0  0  0  0  0  0  0  0  0
   46.5350    7.5321   11.6581 O   0  0  0  0  0  0  0  0  0  0  0  0
   50.3131    8.6329   12.8107 O   0  0  0  0  0  0  0  0  0  0  0  0
   47.6147    6.8288   15.0754 H   0  0  0  0  0  0  0  0  0  0  0  0
   49.8847    7.7088   14.9975 H   0  0  0  0  0  0  0  0  0  0  0  0
   46.3920    8.1953   11.6550 H   0  0  0  0  0  0  0  0  0  0  0  0
   51.3690    9.1359   12.2997 H   0  0  0  0  0  0  0  0  0  0  0  0
   50.4609    9.3281   11.4002 H   0  0  0  0  0  0  0  0  0  0  0  0
   55.2040    8.8560   12.6821 H   0  0  0  0  0  0  0  0  0  0  0  0
   49.4915    7.5868   12.1406 H   0  0  0  0  0  0  0  0  0  0  0  0
   48.9542    6.9238   13.6187 H   0  0  0  0  0  0  0  0  0  0  0  0
   43.4996    8.2607   10.8351 H   0  0  0  0  0  0  0  0  0  0  0  0
   45.1869    8.0048   10.4551 H   0  0  0  0  0  0  0  0  0  0  0  0
   45.2590    4.9731   12.7315 H   0  0  0  0  0  0  0  0  0  0  0  0
   44.3720    6.2076   13.6282 H   0  0  0  0  0  0  0  0  0  0  0  0
   44.8607    9.7699   12.1953 H   0  0  0  0  0  0  0  0  0  0  0  0
   44.0707    8.6185   13.2333 H   0  0  0  0  0  0  0  0  0  0  0  0
   46.9945    6.6081   12.1174 H   0  0  0  0  0  0  0  0  0  0  0  0
   46.8134    6.4714   13.8734 H   0  0  0  0  0  0  0  0  0  0  0  0
   48.2676    9.1730   14.4810 H   0  0  0  0  0  0  0  0  0  0  0  0
   49.1094    9.9614   13.1823 H   0  0  0  0  0  0  0  0  0  0  0  0
   54.5963    9.9759   10.5795 H   0  0  0  0  0  0  0  0  0  0  0  0
   47.4858    8.8122   11.5258 H   0  0  0  0  0  0  0  0  0  0  0  0
   46.9573   10.1388   12.5421 H   0  0  0  0  0  0  0  0  0  0  0  0
   48.8618    7.4191   15.6936 H   0  0  0  0  0  0  0  0  0  0  0  0
   53.4487    6.7857   17.3871 H   0  0  0  0  0  0  0  0  0  0  0  0
   42.9151    4.8668   11.6805 H   0  0  0  0  0  0  0  0  0  0  0  0
   42.3628    6.4423   12.2916 H   0  0  0  0  0  0  0  0  0  0  0  0
   42.4823    6.1362   10.5449 H   0  0  0  0  0  0  0  0  0  0  0  0
   49.2165    6.6584   17.9552 H   0  0  0  0  0  0  0  0  0  0  0  0
   51.5137    6.3339   18.8381 H   0  0  0  0  0  0  0  0  0  0  0  0
   47.5365    5.8641   13.1383 H   0  0  0  0  0  0  0  0  0  0  0  0
   49.6200    6.0084   14.3917 H   0  0  0  0  0  0  0  0  0  0  0  0
   46.1448    8.3600   11.3072 H   0  0  0  0  0  0  0  0  0  0  0  0
   50.8282    9.4365   13.0283 H   0  0  0  0  0  0  0  0  0  0  0  0
  2  4  1  0
  3  1  1  0
  4  3  2  0
  5  1  2  0
  6  2  2  0
  7  1  1  0
  8  2  1  0
 10  9  1  0
 11 14  1  0
 12  9  1  0
 13 10  2  0
 14 12  2  0
 15 10  1  0
 16 27  1  0
 17 22  1  0
 18 13  1  0
 19  9  1  0
 20 15  2  0
 21 23  1  0
 22 24  1  0
 23 16  1  0
 24 16  1  0
 25 19  1  0
 26 20  1  0
 27 25  1  0
 28 20  1  0
 29 12  1  0
 30 14  1  0
 31 17  1  0
 32 29  2  0
 33 30  2  0
 11 13  1  0
 32 33  1  0
 26 18  2  0
 17 21  1  0
 35 37  1  0
 36 34  1  0
 37 36  2  0
 38 34  2  0
 39 35  2  0
 40 34  1  0
 41 35  1  0
  3 42  1  0
  4 43  1  0
  7 44  1  0
  8 45  1  0
 15 46  1  0
 18 47  1  0
 19 48  1  0
 19 49  1  0
 21 50  1  0
 21 51  1  0
 22 52  1  0
 22 53  1  0
 23 54  1  0
 23 55  1  0
 24 56  1  0
 24 57  1  0
 25 58  1  0
 25 59  1  0
 26 60  1  0
 27 61  1  0
 27 62  1  0
 29 63  1  0
 30 64  1  0
 31 65  1  0
 31 66  1  0
 31 67  1  0
 32 68  1  0
 33 69  1  0
 36 70  1  0
 37 71  1  0
 40 72  1  0
 41 73  1  0
M  END
> <Uni-Dock RESULT> 
ENERGY=   -4.828  LOWER_BOUND=    3.085  UPPER_BOUND=    6.869
INTER + INTRA:          -4.828
INTER:                  -4.828
INTRA:                   0.000
UNBOUND:                 0.000

$$$$

     RDKit          3D

 73 74  0  0  0  0  0  0  0  0999 V2000
   46.1183    7.8932   12.5823 C   0  0  0  0  0  0  0  0  0  0  0  0
   48.1918    9.2888   14.2440 C   0  0  0  0  0  0  0  0  0  0  0  0
   47.0640    8.8869   12.0696 C   0  0  0  0  0  0  0  0  0  0  0  0
   48.0188    9.4801   12.7980 C   0  0  0  0  0  0  0  0  0  0  0  0
   44.9182    7.9061   12.3863 O   0  0  0  0  0  0  0  0  0  0  0  0
   47.3701    8.9159   15.0566 O   0  0  0  0  0  0  0  0  0  0  0  0
   46.7436    6.8795   13.1976 O   0  0  0  0  0  0  0  0  0  0  0  0
   49.4393    9.6383   14.5970 O   0  0  0  0  0  0  0  0  0  0  0  0
   48.8929   10.2369   13.8442 N   0  0  0  0  0  0  0  0  0  0  0  0
   49.4482   10.3658   15.1513 C   0  0  0  0  0  0  0  0  0  0  0  0
   50.4465   12.9076   14.4733 S   0  0  0  0  0  0  0  0  0  0  0  0
   49.1712   11.0951   12.7400 C   0  0  0  0  0  0  0  0  0  0  0  0
   50.1822   11.5081   15.5345 C   0  0  0  0  0  0  0  0  0  0  0  0
   49.8814   12.3024   12.9010 C   0  0  0  0  0  0  0  0  0  0  0  0
   49.3210    9.3490   16.1252 C   0  0  0  0  0  0  0  0  0  0  0  0
   46.5435    6.5278   12.1699 N   0  0  0  0  0  0  0  0  0  0  0  0
   43.5645    5.9125   12.4090 N   0  0  0  0  0  0  0  0  0  0  0  0
   50.7352   11.6188   16.8266 C   0  0  0  0  0  0  0  0  0  0  0  0
   47.8469    9.2019   13.6492 C   0  0  0  0  0  0  0  0  0  0  0  0
   49.8759    9.4670   17.4035 C   0  0  0  0  0  0  0  0  0  0  0  0
   44.6276    4.9933   12.8604 C   0  0  0  0  0  0  0  0  0  0  0  0
   44.1170    7.0330   11.6247 C   0  0  0  0  0  0  0  0  0  0  0  0
   45.9752    5.1595   12.1222 C   0  0  0  0  0  0  0  0  0  0  0  0
   45.4598    7.5351   12.2014 C   0  0  0  0  0  0  0  0  0  0  0  0
   48.4473    7.8715   13.1780 C   0  0  0  0  0  0  0  0  0  0  0  0
   50.5831   10.6014   17.7615 C   0  0  0  0  0  0  0  0  0  0  0  0
   47.4937    6.6714   13.2847 C   0  0  0  0  0  0  0  0  0  0  0  0
   49.6822    8.1879   18.5396 Cl  0  0  0  0  0  0  0  0  0  0  0  0
   48.7780   10.7770   11.4196 C   0  0  0  0  0  0  0  0  0  0  0  0
   50.1608   13.1349   11.7984 C   0  0  0  0  0  0  0  0  0  0  0  0
   42.5264    5.2188   11.6524 C   0  0  0  0  0  0  0  0  0  0  0  0
   49.0604   11.6058   10.3265 C   0  0  0  0  0  0  0  0  0  0  0  0
   49.7530   12.7890   10.5159 C   0  0  0  0  0  0  0  0  0  0  0  0
   46.7061    7.4785   13.1912 C   0  0  0  0  0  0  0  0  0  0  0  0
   48.6725    9.7438   13.3118 C   0  0  0  0  0  0  0  0  0  0  0  0
   46.3918    8.8715   12.8467 C   0  0  0  0  0  0  0  0  0  0  0  0
   47.2849    9.8698   12.8607 C   0  0  0  0  0  0  0  0  0  0  0  0
   47.7871    6.9257   13.1749 O   0  0  0  0  0  0  0  0  0  0  0  0
   49.6415   10.1726   12.7150 O   0  0  0  0  0  0  0  0  0  0  0  0
   45.5749    6.8280   13.5078 O   0  0  0  0  0  0  0  0  0  0  0  0
   48.7528    9.2061   14.5371 O   0  0  0  0  0  0  0  0  0  0  0  0
   46.9299    9.1380   11.0246 H   0  0  0  0  0  0  0  0  0  0  0  0
   48.7005   10.1821   12.3316 H   0  0  0  0  0  0  0  0  0  0  0  0
   46.0150    6.3118   13.5222 H   0  0  0  0  0  0  0  0  0  0  0  0
   49.4592    9.4803   15.5641 H   0  0  0  0  0  0  0  0  0  0  0  0
   48.7996    8.4232   15.9081 H   0  0  0  0  0  0  0  0  0  0  0  0
   51.2918   12.5106   17.1101 H   0  0  0  0  0  0  0  0  0  0  0  0
   47.2714    9.0563   14.5724 H   0  0  0  0  0  0  0  0  0  0  0  0
   47.0839    9.5633   12.9535 H   0  0  0  0  0  0  0  0  0  0  0  0
   44.3082    3.9456   12.7940 H   0  0  0  0  0  0  0  0  0  0  0  0
   44.7931    5.1848   13.9282 H   0  0  0  0  0  0  0  0  0  0  0  0
   43.3966    7.8595   11.6316 H   0  0  0  0  0  0  0  0  0  0  0  0
   44.2693    6.7475   10.5747 H   0  0  0  0  0  0  0  0  0  0  0  0
   46.6894    4.4140   12.4929 H   0  0  0  0  0  0  0  0  0  0  0  0
   45.8242    4.9033   11.0649 H   0  0  0  0  0  0  0  0  0  0  0  0
   45.2719    7.8793   13.2269 H   0  0  0  0  0  0  0  0  0  0  0  0
   45.7779    8.4020   11.6126 H   0  0  0  0  0  0  0  0  0  0  0  0
   48.8254    7.9509   12.1527 H   0  0  0  0  0  0  0  0  0  0  0  0
   49.3319    7.6405   13.7849 H   0  0  0  0  0  0  0  0  0  0  0  0
   51.0167   10.7015   18.7520 H   0  0  0  0  0  0  0  0  0  0  0  0
   46.9805    6.6652   14.2547 H   0  0  0  0  0  0  0  0  0  0  0  0
   48.1493    5.7900   13.2851 H   0  0  0  0  0  0  0  0  0  0  0  0
   48.2490    9.8583   11.1886 H   0  0  0  0  0  0  0  0  0  0  0  0
   50.7038   14.0676   11.9396 H   0  0  0  0  0  0  0  0  0  0  0  0
   41.7362    5.9165   11.3534 H   0  0  0  0  0  0  0  0  0  0  0  0
   42.9235    4.7384   10.7509 H   0  0  0  0  0  0  0  0  0  0  0  0
   42.0490    4.4509   12.2711 H   0  0  0  0  0  0  0  0  0  0  0  0
   48.7399   11.3146    9.3293 H   0  0  0  0  0  0  0  0  0  0  0  0
   49.9775   13.4384    9.6746 H   0  0  0  0  0  0  0  0  0  0  0  0
   45.3731    9.0584   12.5276 H   0  0  0  0  0  0  0  0  0  0  0  0
   47.0148   10.8574   12.5072 H   0  0  0  0  0  0  0  0  0  0  0  0
   45.8811    5.9210   13.7181 H   0  0  0  0  0  0  0  0  0  0  0  0
   49.7149    9.1426   14.7071 H   0  0  0  0  0  0  0  0  0  0  0  0
  2  4  1  0
  3  1  1  0
  4  3  2  0
  5  1  2  0
  6  2  2  0
  7  1  1  0
  8  2  1  0
 10  9  1  0
 11 14  1  0
 12  9  1  0
 13 10  2  0
 14 12  2  0
 15 10  1  0
 16 27  1  0
 17 22  1  0
 18 13  1  0
 19  9  1  0
 20 15  2  0
 21 23  1  0
 22 24  1  0
 23 16  1  0
 24 16  1  0
 25 19  1  0
 26 20  1  0
 27 25  1  0
 28 20  1  0
 29 12  1  0
 30 14  1  0
 31 17  1  0
 32 29  2  0
 33 30  2  0
 11 13  1  0
 32 33  1  0
 26 18  2  0
 17 21  1  0
 35 37  1  0
 36 34  1  0
 37 36  2  0
 38 34  2  0
 39 35  2  0
 40 34  1  0
 41 35  1  0
  3 42  1  0
  4 43  1  0
  7 44  1  0
  8 45  1  0
 15 46  1  0
 18 47  1  0
 19 48  1  0
 19 49  1  0
 21 50  1  0
 21 51  1  0
 22 52  1  0
 22 53  1  0
 23 54  1  0
 23 55  1  0
 24 56  1  0
 24 57  1  0
 25 58  1  0
 25 59  1  0
 26 60  1  0
 27 61  1  0
 27 62  1  0
 29 63  1  0
 30 64  1  0
 31 65  1  0
 31 66  1  0
 31 67  1  0
 32 68  1  0
 33 69  1  0
 36 70  1  0
 37 71  1  0
 40 72  1  0
 41 73  1  0
M  END
> <Uni-Dock RESULT> 
ENERGY=   -4.567  LOWER_BOUND=    2.441  UPPER_BOUND=    6.094
INTER + INTRA:          -4.567
INTER:                  -4.567
INTRA:                   0.000
UNBOUND:                 0.000

$$$$

     RDKit          3D

 73 74  0  0  0  0  0  0  0  0999 V2000
   51.8167    8.8942   15.4205 C   0  0  0  0  0  0  0  0  0  0  0  0
   49.8177    6.7923   16.1912 C   0  0  0  0  0  0  0  0  0  0  0  0
   50.5875    8.6041   14.6793 C   0  0  0  0  0  0  0  0  0  0  0  0
   49.6717    7.6969   15.0433 C   0  0  0  0  0  0  0  0  0  0  0  0
   52.9235    8.9905   14.9258 O   0  0  0  0  0  0  0  0  0  0  0  0
   50.8391    6.4401   16.7457 O   0  0  0  0  0  0  0  0  0  0  0  0
   51.5696    9.1714   16.7086 O   0  0  0  0  0  0  0  0  0  0  0  0
   48.6102    6.3332   16.5575 O   0  0  0  0  0  0  0  0  0  0  0  0
   48.8534    6.4450   15.4842 N   0  0  0  0  0  0  0  0  0  0  0  0
   48.5341    5.4302   16.4338 C   0  0  0  0  0  0  0  0  0  0  0  0
   46.8631    4.1888   14.5408 S   0  0  0  0  0  0  0  0  0  0  0  0
   48.1840    6.6550   14.2429 C   0  0  0  0  0  0  0  0  0  0  0  0
   47.6375    4.3850   16.1271 C   0  0  0  0  0  0  0  0  0  0  0  0
   47.2540    5.7243   13.7363 C   0  0  0  0  0  0  0  0  0  0  0  0
   49.0723    5.4285   17.7410 C   0  0  0  0  0  0  0  0  0  0  0  0
   51.6533   10.1497   16.2030 N   0  0  0  0  0  0  0  0  0  0  0  0
   54.6852   10.3140   15.9016 N   0  0  0  0  0  0  0  0  0  0  0  0
   47.3218    3.3936   17.0784 C   0  0  0  0  0  0  0  0  0  0  0  0
   50.0577    7.2709   15.7512 C   0  0  0  0  0  0  0  0  0  0  0  0
   48.7506    4.4419   18.6787 C   0  0  0  0  0  0  0  0  0  0  0  0
   53.9678   10.6570   17.1451 C   0  0  0  0  0  0  0  0  0  0  0  0
   53.7518   10.1201   14.7760 C   0  0  0  0  0  0  0  0  0  0  0  0
   52.5063   11.1145   16.9371 C   0  0  0  0  0  0  0  0  0  0  0  0
   52.4588    9.3970   15.2157 C   0  0  0  0  0  0  0  0  0  0  0  0
   49.7080    8.5497   16.5222 C   0  0  0  0  0  0  0  0  0  0  0  0
   47.8767    3.4196   18.3526 C   0  0  0  0  0  0  0  0  0  0  0  0
   50.9180    9.2752   17.1307 C   0  0  0  0  0  0  0  0  0  0  0  0
   49.4433    4.5029   20.2538 Cl  0  0  0  0  0  0  0  0  0  0  0  0
   48.3903    7.8152   13.4615 C   0  0  0  0  0  0  0  0  0  0  0  0
   46.5898    5.9510   12.5139 C   0  0  0  0  0  0  0  0  0  0  0  0
   55.6987   11.3086   15.5626 C   0  0  0  0  0  0  0  0  0  0  0  0
   47.7258    8.0378   12.2489 C   0  0  0  0  0  0  0  0  0  0  0  0
   46.8235    7.1027   11.7725 C   0  0  0  0  0  0  0  0  0  0  0  0
   51.4645    8.7601   16.2843 C   0  0  0  0  0  0  0  0  0  0  0  0
   49.0808    7.1636   15.3999 C   0  0  0  0  0  0  0  0  0  0  0  0
   51.3762    8.0345   15.0102 C   0  0  0  0  0  0  0  0  0  0  0  0
   50.2932    7.3598   14.6021 C   0  0  0  0  0  0  0  0  0  0  0  0
   50.5583    9.1871   16.9706 O   0  0  0  0  0  0  0  0  0  0  0  0
   47.9456    7.3259   14.9951 O   0  0  0  0  0  0  0  0  0  0  0  0
   52.7547    8.9484   16.6054 O   0  0  0  0  0  0  0  0  0  0  0  0
   49.3554    6.6551   16.6095 O   0  0  0  0  0  0  0  0  0  0  0  0
   50.4644    9.1795   13.7699 H   0  0  0  0  0  0  0  0  0  0  0  0
   48.7712    7.5675   14.4541 H   0  0  0  0  0  0  0  0  0  0  0  0
   52.4575    9.3086   17.0975 H   0  0  0  0  0  0  0  0  0  0  0  0
   48.8063    5.7461   17.3175 H   0  0  0  0  0  0  0  0  0  0  0  0
   49.7460    6.2103   18.0738 H   0  0  0  0  0  0  0  0  0  0  0  0
   46.6346    2.5884   16.8237 H   0  0  0  0  0  0  0  0  0  0  0  0
   50.8113    6.6889   16.2972 H   0  0  0  0  0  0  0  0  0  0  0  0
   50.5736    7.4992   14.8139 H   0  0  0  0  0  0  0  0  0  0  0  0
   54.5049   11.4207   17.7216 H   0  0  0  0  0  0  0  0  0  0  0  0
   53.9619    9.7597   17.7769 H   0  0  0  0  0  0  0  0  0  0  0  0
   54.2480    9.5211   14.0032 H   0  0  0  0  0  0  0  0  0  0  0  0
   53.4794   11.0792   14.3144 H   0  0  0  0  0  0  0  0  0  0  0  0
   52.0666   11.3850   17.9050 H   0  0  0  0  0  0  0  0  0  0  0  0
   52.5153   12.0495   16.3608 H   0  0  0  0  0  0  0  0  0  0  0  0
   52.7469    8.4138   15.6103 H   0  0  0  0  0  0  0  0  0  0  0  0
   51.8444    9.2307   14.3245 H   0  0  0  0  0  0  0  0  0  0  0  0
   49.1394    9.2452   15.8948 H   0  0  0  0  0  0  0  0  0  0  0  0
   49.0291    8.2988   17.3470 H   0  0  0  0  0  0  0  0  0  0  0  0
   47.6219    2.6493   19.0744 H   0  0  0  0  0  0  0  0  0  0  0  0
   51.5882    8.5649   17.6313 H   0  0  0  0  0  0  0  0  0  0  0  0
   50.4977    9.9049   17.9267 H   0  0  0  0  0  0  0  0  0  0  0  0
   49.0671    8.6021   13.7780 H   0  0  0  0  0  0  0  0  0  0  0  0
   45.8798    5.2196   12.1320 H   0  0  0  0  0  0  0  0  0  0  0  0
   56.2354   11.0172   14.6528 H   0  0  0  0  0  0  0  0  0  0  0  0
   55.2654   12.3030   15.4057 H   0  0  0  0  0  0  0  0  0  0  0  0
   56.4477   11.3800   16.3591 H   0  0  0  0  0  0  0  0  0  0  0  0
   47.9159    8.9487   11.6866 H   0  0  0  0  0  0  0  0  0  0  0  0
   46.3025    7.2663   10.8334 H   0  0  0  0  0  0  0  0  0  0  0  0
   52.2464    8.1044   14.3680 H   0  0  0  0  0  0  0  0  0  0  0  0
   50.2554    6.9227   13.6118 H   0  0  0  0  0  0  0  0  0  0  0  0
   52.7127    9.4340   17.4557 H   0  0  0  0  0  0  0  0  0  0  0  0
   48.4830    6.6054   17.0510 H   0  0  0  0  0  0  0  0  0  0  0  0
  2  4  1  0
  3  1  1  0
  4  3  2  0
  5  1  2  0
  6  2  2  0
  7  1  1  0
  8  2  1  0
 10  9  1  0
 11 14  1  0
 12  9  1  0
 13 10  2  0
 14 12  2  0
 15 10  1  0
 16 27  1  0
 17 22  1  0
 18 13  1  0
 19  9  1  0
 20 15  2  0
 21 23  1  0
 22 24  1  0
 23 16  1  0
 24 16  1  0
 25 19  1  0
 26 20  1  0
 27 25  1  0
 28 20  1  0
 29 12  1  0
 30 14  1  0
 31 17  1  0
 32 29  2  0
 33 30  2  0
 11 13  1  0
 32 33  1  0
 26 18  2  0
 17 21  1  0
 35 37  1  0
 36 34  1  0
 37 36  2  0
 38 34  2  0
 39 35  2  0
 40 34  1  0
 41 35  1  0
  3 42  1  0
  4 43  1  0
  7 44  1  0
  8 45  1  0
 15 46  1  0
 18 47  1  0
 19 48  1  0
 19 49  1  0
 21 50  1  0
 21 51  1  0
 22 52  1  0
 22 53  1  0
 23 54  1  0
 23 55  1  0
 24 56  1  0
 24 57  1  0
 25 58  1  0
 25 59  1  0
 26 60  1  0
 27 61  1  0
 27 62  1  0
 29 63  1  0
 30 64  1  0
 31 65  1  0
 31 66  1  0
 31 67  1  0
 32 68  1  0
 33 69  1  0
 36 70  1  0
 37 71  1  0
 40 72  1  0
 41 73  1  0
M  END
> <Uni-Dock RESULT> 
ENERGY=   -4.548  LOWER_BOUND=    3.028  UPPER_BOUND=    4.228
INTER + INTRA:          -4.548
INTER:                  -4.548
INTRA:                   0.000
UNBOUND:                 0.000

$$$$
