
     RDKit          3D

 73 74  0  0  0  0  0  0  0  0999 V2000
   48.0920    8.8047   13.3695 C   0  0  0  0  0  0  0  0  0  0  0  0
   49.6935    8.0925   15.8078 C   0  0  0  0  0  0  0  0  0  0  0  0
   49.4939    8.3809   13.3504 C   0  0  0  0  0  0  0  0  0  0  0  0
   50.1991    8.0197   14.4306 C   0  0  0  0  0  0  0  0  0  0  0  0
   47.6490    9.7752   12.7855 O   0  0  0  0  0  0  0  0  0  0  0  0
   48.8021    8.7919   16.2446 O   0  0  0  0  0  0  0  0  0  0  0  0
   47.3108    7.9216   14.0073 O   0  0  0  0  0  0  0  0  0  0  0  0
   50.4087    7.2709   16.5929 O   0  0  0  0  0  0  0  0  0  0  0  0
   48.0822    7.8777   12.5122 N   0  0  0  0  0  0  0  0  0  0  0  0
   47.8988    9.2490   12.1345 C   0  0  0  0  0  0  0  0  0  0  0  0
   45.1028    8.9183   12.2025 S   0  0  0  0  0  0  0  0  0  0  0  0
   47.0322    6.9324   12.7331 C   0  0  0  0  0  0  0  0  0  0  0  0
   46.6152    9.8106   11.9698 C   0  0  0  0  0  0  0  0  0  0  0  0
   45.6724    7.2904   12.6148 C   0  0  0  0  0  0  0  0  0  0  0  0
   48.9854   10.1273   11.9011 C   0  0  0  0  0  0  0  0  0  0  0  0
   50.1200    7.3996   16.5139 N   0  0  0  0  0  0  0  0  0  0  0  0
   52.3530    9.0178   17.7712 N   0  0  0  0  0  0  0  0  0  0  0  0
   46.4465   11.1625   11.5990 C   0  0  0  0  0  0  0  0  0  0  0  0
   49.4840    7.4107   12.6598 C   0  0  0  0  0  0  0  0  0  0  0  0
   48.8081   11.4669   11.5347 C   0  0  0  0  0  0  0  0  0  0  0  0
   52.1740    7.5584   17.9222 C   0  0  0  0  0  0  0  0  0  0  0  0
   51.2637    9.6203   16.9757 C   0  0  0  0  0  0  0  0  0  0  0  0
   51.4973    6.9151   16.6929 C   0  0  0  0  0  0  0  0  0  0  0  0
   49.9523    8.8015   16.9327 C   0  0  0  0  0  0  0  0  0  0  0  0
   50.1178    7.8199   14.0010 C   0  0  0  0  0  0  0  0  0  0  0  0
   47.5391   11.9915   11.3814 C   0  0  0  0  0  0  0  0  0  0  0  0
   49.5330    7.0765   15.2095 C   0  0  0  0  0  0  0  0  0  0  0  0
   50.1826   12.4711   11.2757 Cl  0  0  0  0  0  0  0  0  0  0  0  0
   47.2721    5.5828   13.0868 C   0  0  0  0  0  0  0  0  0  0  0  0
   44.6412    6.3503   12.8312 C   0  0  0  0  0  0  0  0  0  0  0  0
   52.4862    9.6529   19.0793 C   0  0  0  0  0  0  0  0  0  0  0  0
   46.2452    4.6522   13.3020 C   0  0  0  0  0  0  0  0  0  0  0  0
   44.9244    5.0356   13.1722 C   0  0  0  0  0  0  0  0  0  0  0  0
   50.2235    7.2901   14.9408 C   0  0  0  0  0  0  0  0  0  0  0  0
   47.7450    8.8993   14.6583 C   0  0  0  0  0  0  0  0  0  0  0  0
   50.0392    8.3333   13.9267 C   0  0  0  0  0  0  0  0  0  0  0  0
   48.8971    9.0111   13.7581 C   0  0  0  0  0  0  0  0  0  0  0  0
   49.4128    6.4644   15.3083 O   0  0  0  0  0  0  0  0  0  0  0  0
   47.7594    8.7792   15.8663 O   0  0  0  0  0  0  0  0  0  0  0  0
   51.4837    7.3208   15.3998 O   0  0  0  0  0  0  0  0  0  0  0  0
   46.6075    9.0091   13.9556 O   0  0  0  0  0  0  0  0  0  0  0  0
   49.9535    8.3923   12.3695 H   0  0  0  0  0  0  0  0  0  0  0  0
   51.2245    7.6853   14.3234 H   0  0  0  0  0  0  0  0  0  0  0  0
   46.4206    8.3285   13.9814 H   0  0  0  0  0  0  0  0  0  0  0  0
   50.0045    7.3861   17.4784 H   0  0  0  0  0  0  0  0  0  0  0  0
   50.0148    9.8027   12.0015 H   0  0  0  0  0  0  0  0  0  0  0  0
   45.4468   11.5773   11.4772 H   0  0  0  0  0  0  0  0  0  0  0  0
   50.0947    7.7982   11.8346 H   0  0  0  0  0  0  0  0  0  0  0  0
   49.6088    6.3359   12.5079 H   0  0  0  0  0  0  0  0  0  0  0  0
   53.1579    7.0986   18.0721 H   0  0  0  0  0  0  0  0  0  0  0  0
   51.5708    7.3234   18.8103 H   0  0  0  0  0  0  0  0  0  0  0  0
   51.0444   10.6426   17.3086 H   0  0  0  0  0  0  0  0  0  0  0  0
   51.6363    9.7234   15.9485 H   0  0  0  0  0  0  0  0  0  0  0  0
   52.1207    7.1190   15.8149 H   0  0  0  0  0  0  0  0  0  0  0  0
   51.4756    5.8273   16.8268 H   0  0  0  0  0  0  0  0  0  0  0  0
   49.2130    9.3251   16.3143 H   0  0  0  0  0  0  0  0  0  0  0  0
   49.5265    8.7887   17.9444 H   0  0  0  0  0  0  0  0  0  0  0  0
   50.0215    8.8990   14.1527 H   0  0  0  0  0  0  0  0  0  0  0  0
   51.1910    7.6122   13.9248 H   0  0  0  0  0  0  0  0  0  0  0  0
   47.3904   13.0289   11.0973 H   0  0  0  0  0  0  0  0  0  0  0  0
   48.4571    7.2751   15.2749 H   0  0  0  0  0  0  0  0  0  0  0  0
   49.6267    5.9954   15.0499 H   0  0  0  0  0  0  0  0  0  0  0  0
   48.2696    5.1847   13.2247 H   0  0  0  0  0  0  0  0  0  0  0  0
   43.5985    6.6480   12.7343 H   0  0  0  0  0  0  0  0  0  0  0  0
   51.5718    9.5654   19.6772 H   0  0  0  0  0  0  0  0  0  0  0  0
   53.3126    9.2052   19.6427 H   0  0  0  0  0  0  0  0  0  0  0  0
   52.7241   10.7165   18.9667 H   0  0  0  0  0  0  0  0  0  0  0  0
   46.4907    3.6285   13.5744 H   0  0  0  0  0  0  0  0  0  0  0  0
   44.1210    4.3238   13.3372 H   0  0  0  0  0  0  0  0  0  0  0  0
   50.8863    8.5087   13.2746 H   0  0  0  0  0  0  0  0  0  0  0  0
   48.7906    9.7194   12.9454 H   0  0  0  0  0  0  0  0  0  0  0  0
   51.4992    6.6078   16.0724 H   0  0  0  0  0  0  0  0  0  0  0  0
   45.9084    8.9065   14.6352 H   0  0  0  0  0  0  0  0  0  0  0  0
  2  4  1  0
  3  1  1  0
  4  3  2  0
  5  1  2  0
  6  2  2  0
  7  1  1  0
  8  2  1  0
 10  9  1  0
 11 14  1  0
 12  9  1  0
 13 10  2  0
 14 12  2  0
 15 10  1  0
 16 27  1  0
 17 22  1  0
 18 13  1  0
 19  9  1  0
 20 15  2  0
 21 23  1  0
 22 24  1  0
 23 16  1  0
 24 16  1  0
 25 19  1  0
 26 20  1  0
 27 25  1  0
 28 20  1  0
 29 12  1  0
 30 14  1  0
 31 17  1  0
 32 29  2  0
 33 30  2  0
 11 13  1  0
 32 33  1  0
 26 18  2  0
 17 21  1  0
 35 37  1  0
 36 34  1  0
 37 36  2  0
 38 34  2  0
 39 35  2  0
 40 34  1  0
 41 35  1  0
  3 42  1  0
  4 43  1  0
  7 44  1  0
  8 45  1  0
 15 46  1  0
 18 47  1  0
 19 48  1  0
 19 49  1  0
 21 50  1  0
 21 51  1  0
 22 52  1  0
 22 53  1  0
 23 54  1  0
 23 55  1  0
 24 56  1  0
 24 57  1  0
 25 58  1  0
 25 59  1  0
 26 60  1  0
 27 61  1  0
 27 62  1  0
 29 63  1  0
 30 64  1  0
 31 65  1  0
 31 66  1  0
 31 67  1  0
 32 68  1  0
 33 69  1  0
 36 70  1  0
 37 71  1  0
 40 72  1  0
 41 73  1  0
M  END
> <Uni-Dock RESULT> 
ENERGY=   -4.961  LOWER_BOUND=    0.000  UPPER_BOUND=    0.000
INTER + INTRA:          -4.961
INTER:                  -4.961
INTRA:                   0.000
UNBOUND:                 0.000

$$$$

     RDKit          3D

 73 74  0  0  0  0  0  0  0  0999 V2000
   48.4234    9.0914   14.2158 C   0  0  0  0  0  0  0  0  0  0  0  0
   46.6156    7.5571   12.3732 C   0  0  0  0  0  0  0  0  0  0  0  0
   48.3473    7.6302   14.1502 C   0  0  0  0  0  0  0  0  0  0  0  0
   47.5751    6.9414   13.2994 C   0  0  0  0  0  0  0  0  0  0  0  0
   48.3862    9.7463   15.2400 O   0  0  0  0  0  0  0  0  0  0  0  0
   46.0824    8.6448   12.4576 O   0  0  0  0  0  0  0  0  0  0  0  0
   48.6704    9.6341   13.0152 O   0  0  0  0  0  0  0  0  0  0  0  0
   46.3431    6.7019   11.3745 O   0  0  0  0  0  0  0  0  0  0  0  0
   49.6356    8.7636   14.0841 N   0  0  0  0  0  0  0  0  0  0  0  0
   49.1352    9.3031   15.3151 C   0  0  0  0  0  0  0  0  0  0  0  0
   49.9772   11.8808   14.5548 S   0  0  0  0  0  0  0  0  0  0  0  0
   50.3020    9.5107   13.0630 C   0  0  0  0  0  0  0  0  0  0  0  0
   49.2373   10.6763   15.6221 C   0  0  0  0  0  0  0  0  0  0  0  0
   50.5114   10.9016   13.1762 C   0  0  0  0  0  0  0  0  0  0  0  0
   48.5098    8.5007   16.3008 C   0  0  0  0  0  0  0  0  0  0  0  0
   46.3963    7.0080   11.4726 N   0  0  0  0  0  0  0  0  0  0  0  0
   43.9118    5.4467   12.2311 N   0  0  0  0  0  0  0  0  0  0  0  0
   48.7398   11.1968   16.8367 C   0  0  0  0  0  0  0  0  0  0  0  0
   49.4598    7.3036   13.8782 C   0  0  0  0  0  0  0  0  0  0  0  0
   48.0186    9.0262   17.5018 C   0  0  0  0  0  0  0  0  0  0  0  0
   44.7268    5.2090   11.0212 C   0  0  0  0  0  0  0  0  0  0  0  0
   44.4177    6.5948   13.0111 C   0  0  0  0  0  0  0  0  0  0  0  0
   46.2135    5.5689   11.2292 C   0  0  0  0  0  0  0  0  0  0  0  0
   45.2716    7.6063   12.2113 C   0  0  0  0  0  0  0  0  0  0  0  0
   48.0410    6.9263   13.4167 C   0  0  0  0  0  0  0  0  0  0  0  0
   48.1309   10.3757   17.7766 C   0  0  0  0  0  0  0  0  0  0  0  0
   47.7234    7.3684   11.9819 C   0  0  0  0  0  0  0  0  0  0  0  0
   47.2648    7.9833   18.6460 Cl  0  0  0  0  0  0  0  0  0  0  0  0
   50.7934    8.9216   11.8734 C   0  0  0  0  0  0  0  0  0  0  0  0
   51.1733   11.6320   12.1651 C   0  0  0  0  0  0  0  0  0  0  0  0
   42.5053    5.6095   11.8743 C   0  0  0  0  0  0  0  0  0  0  0  0
   51.4494    9.6505   10.8707 C   0  0  0  0  0  0  0  0  0  0  0  0
   51.6424   11.0105   11.0168 C   0  0  0  0  0  0  0  0  0  0  0  0
   47.6259    6.7494   12.4312 C   0  0  0  0  0  0  0  0  0  0  0  0
   47.4781    9.5549   13.3899 C   0  0  0  0  0  0  0  0  0  0  0  0
   47.8054    7.1432   13.8323 C   0  0  0  0  0  0  0  0  0  0  0  0
   47.8051    8.4145   14.2519 C   0  0  0  0  0  0  0  0  0  0  0  0
   48.0497    7.3146   11.4438 O   0  0  0  0  0  0  0  0  0  0  0  0
   46.6344    9.6051   12.5183 O   0  0  0  0  0  0  0  0  0  0  0  0
   46.9481    5.5934   12.3679 O   0  0  0  0  0  0  0  0  0  0  0  0
   48.2244   10.6144   13.7363 O   0  0  0  0  0  0  0  0  0  0  0  0
   48.9677    7.1150   14.8735 H   0  0  0  0  0  0  0  0  0  0  0  0
   47.6047    5.8580   13.2939 H   0  0  0  0  0  0  0  0  0  0  0  0
   48.6639   10.5986   13.1836 H   0  0  0  0  0  0  0  0  0  0  0  0
   45.7043    7.1930   10.8165 H   0  0  0  0  0  0  0  0  0  0  0  0
   48.3756    7.4332   16.1684 H   0  0  0  0  0  0  0  0  0  0  0  0
   48.8282   12.2602   17.0548 H   0  0  0  0  0  0  0  0  0  0  0  0
   49.6971    6.7653   14.8045 H   0  0  0  0  0  0  0  0  0  0  0  0
   50.1952    6.8622   13.2014 H   0  0  0  0  0  0  0  0  0  0  0  0
   44.6484    4.1500   10.7487 H   0  0  0  0  0  0  0  0  0  0  0  0
   44.3476    5.7892   10.1683 H   0  0  0  0  0  0  0  0  0  0  0  0
   43.6007    7.1261   13.5156 H   0  0  0  0  0  0  0  0  0  0  0  0
   45.0391    6.1853   13.8179 H   0  0  0  0  0  0  0  0  0  0  0  0
   46.5989    4.9613   12.0559 H   0  0  0  0  0  0  0  0  0  0  0  0
   46.7771    5.2867   10.3323 H   0  0  0  0  0  0  0  0  0  0  0  0
   45.6047    8.4122   12.8767 H   0  0  0  0  0  0  0  0  0  0  0  0
   44.6203    8.0915   11.4727 H   0  0  0  0  0  0  0  0  0  0  0  0
   47.2961    7.3417   14.1018 H   0  0  0  0  0  0  0  0  0  0  0  0
   47.9586    5.8363   13.4931 H   0  0  0  0  0  0  0  0  0  0  0  0
   47.7535   10.7935   18.7051 H   0  0  0  0  0  0  0  0  0  0  0  0
   47.8202    8.4575   11.9053 H   0  0  0  0  0  0  0  0  0  0  0  0
   48.4762    6.9543   11.3002 H   0  0  0  0  0  0  0  0  0  0  0  0
   50.6833    7.8664   11.6567 H   0  0  0  0  0  0  0  0  0  0  0  0
   51.3245   12.7047   12.2731 H   0  0  0  0  0  0  0  0  0  0  0  0
   42.3331    6.5055   11.2669 H   0  0  0  0  0  0  0  0  0  0  0  0
   42.1461    4.7379   11.3156 H   0  0  0  0  0  0  0  0  0  0  0  0
   41.8866    5.6801   12.7759 H   0  0  0  0  0  0  0  0  0  0  0  0
   51.8034    9.1432    9.9764 H   0  0  0  0  0  0  0  0  0  0  0  0
   52.1483   11.5853   10.2467 H   0  0  0  0  0  0  0  0  0  0  0  0
   47.9820    6.3324   14.5288 H   0  0  0  0  0  0  0  0  0  0  0  0
   48.0162    8.6541   15.2870 H   0  0  0  0  0  0  0  0  0  0  0  0
   46.8682    5.4278   11.4050 H   0  0  0  0  0  0  0  0  0  0  0  0
   47.9464   11.3073   13.1009 H   0  0  0  0  0  0  0  0  0  0  0  0
  2  4  1  0
  3  1  1  0
  4  3  2  0
  5  1  2  0
  6  2  2  0
  7  1  1  0
  8  2  1  0
 10  9  1  0
 11 14  1  0
 12  9  1  0
 13 10  2  0
 14 12  2  0
 15 10  1  0
 16 27  1  0
 17 22  1  0
 18 13  1  0
 19  9  1  0
 20 15  2  0
 21 23  1  0
 22 24  1  0
 23 16  1  0
 24 16  1  0
 25 19  1  0
 26 20  1  0
 27 25  1  0
 28 20  1  0
 29 12  1  0
 30 14  1  0
 31 17  1  0
 32 29  2  0
 33 30  2  0
 11 13  1  0
 32 33  1  0
 26 18  2  0
 17 21  1  0
 35 37  1  0
 36 34  1  0
 37 36  2  0
 38 34  2  0
 39 35  2  0
 40 34  1  0
 41 35  1  0
  3 42  1  0
  4 43  1  0
  7 44  1  0
  8 45  1  0
 15 46  1  0
 18 47  1  0
 19 48  1  0
 19 49  1  0
 21 50  1  0
 21 51  1  0
 22 52  1  0
 22 53  1  0
 23 54  1  0
 23 55  1  0
 24 56  1  0
 24 57  1  0
 25 58  1  0
 25 59  1  0
 26 60  1  0
 27 61  1  0
 27 62  1  0
 29 63  1  0
 30 64  1  0
 31 65  1  0
 31 66  1  0
 31 67  1  0
 32 68  1  0
 33 69  1  0
 36 70  1  0
 37 71  1  0
 40 72  1  0
 41 73  1  0
M  END
> <Uni-Dock RESULT> 
ENERGY=   -4.846  LOWER_BOUND=    2.796  UPPER_BOUND=    5.900
INTER + INTRA:          -4.846
INTER:                  -4.846
INTRA:                   0.000
UNBOUND:                 0.000

$$$$

     RDKit          3D

 73 74  0  0  0  0  0  0  0  0999 V2000
   49.8172    6.4971   17.9580 C   0  0  0  0  0  0  0  0  0  0  0  0
   52.3915    5.0532   18.5104 C   0  0  0  0  0  0  0  0  0  0  0  0
   50.1595    5.1742   17.4309 C   0  0  0  0  0  0  0  0  0  0  0  0
   51.2873    4.5073   17.7103 C   0  0  0  0  0  0  0  0  0  0  0  0
   49.3789    7.4191   17.2968 O   0  0  0  0  0  0  0  0  0  0  0  0
   52.6670    6.2181   18.7142 O   0  0  0  0  0  0  0  0  0  0  0  0
   49.9203    6.5458   19.2937 O   0  0  0  0  0  0  0  0  0  0  0  0
   53.1400    4.0464   18.9891 O   0  0  0  0  0  0  0  0  0  0  0  0
   48.8040    5.8115   18.2705 N   0  0  0  0  0  0  0  0  0  0  0  0
   48.7389    6.8259   17.2588 C   0  0  0  0  0  0  0  0  0  0  0  0
   47.7922    8.6850   19.1506 S   0  0  0  0  0  0  0  0  0  0  0  0
   48.4230    5.9810   19.6384 C   0  0  0  0  0  0  0  0  0  0  0  0
   48.3025    8.1365   17.5456 C   0  0  0  0  0  0  0  0  0  0  0  0
   47.9533    7.2167   20.1318 C   0  0  0  0  0  0  0  0  0  0  0  0
   49.1039    6.5837   15.9117 C   0  0  0  0  0  0  0  0  0  0  0  0
   53.0042    4.3390   19.0350 N   0  0  0  0  0  0  0  0  0  0  0  0
   55.2896    3.8716   17.1000 N   0  0  0  0  0  0  0  0  0  0  0  0
   48.2437    9.1277   16.5417 C   0  0  0  0  0  0  0  0  0  0  0  0
   49.2873    4.4747   17.8413 C   0  0  0  0  0  0  0  0  0  0  0  0
   49.0432    7.5734   14.9234 C   0  0  0  0  0  0  0  0  0  0  0  0
   55.0064    3.0471   18.2936 C   0  0  0  0  0  0  0  0  0  0  0  0
   54.3535    5.0091   16.9897 C   0  0  0  0  0  0  0  0  0  0  0  0
   53.5037    3.0115   18.6450 C   0  0  0  0  0  0  0  0  0  0  0  0
   53.6769    5.4330   18.3144 C   0  0  0  0  0  0  0  0  0  0  0  0
   50.8198    4.3964   17.7250 C   0  0  0  0  0  0  0  0  0  0  0  0
   48.6129    8.8496   15.2323 C   0  0  0  0  0  0  0  0  0  0  0  0
   51.5421    4.4431   19.0781 C   0  0  0  0  0  0  0  0  0  0  0  0
   49.5116    7.1992   13.3093 Cl  0  0  0  0  0  0  0  0  0  0  0  0
   48.4904    4.9370   20.5921 C   0  0  0  0  0  0  0  0  0  0  0  0
   47.5758    7.3753   21.4832 C   0  0  0  0  0  0  0  0  0  0  0  0
   56.6819    4.3117   17.1033 C   0  0  0  0  0  0  0  0  0  0  0  0
   48.1156    5.0986   21.9339 C   0  0  0  0  0  0  0  0  0  0  0  0
   47.6546    6.3213   22.3819 C   0  0  0  0  0  0  0  0  0  0  0  0
   51.5792    4.0494   18.4162 C   0  0  0  0  0  0  0  0  0  0  0  0
   50.8989    6.9320   18.6145 C   0  0  0  0  0  0  0  0  0  0  0  0
   50.8532    4.7895   17.3791 C   0  0  0  0  0  0  0  0  0  0  0  0
   50.4889    6.0721   17.4998 C   0  0  0  0  0  0  0  0  0  0  0  0
   51.4406    4.1339   19.6194 O   0  0  0  0  0  0  0  0  0  0  0  0
   51.9738    6.9491   19.1788 O   0  0  0  0  0  0  0  0  0  0  0  0
   52.4223    3.1763   17.8448 O   0  0  0  0  0  0  0  0  0  0  0  0
   49.9095    7.7859   18.9169 O   0  0  0  0  0  0  0  0  0  0  0  0
   49.4217    4.7536   16.7584 H   0  0  0  0  0  0  0  0  0  0  0  0
   51.4468    3.5151   17.3043 H   0  0  0  0  0  0  0  0  0  0  0  0
   49.7025    7.4741   19.5159 H   0  0  0  0  0  0  0  0  0  0  0  0
   53.8407    4.5016   19.5015 H   0  0  0  0  0  0  0  0  0  0  0  0
   49.4561    5.6135   15.5803 H   0  0  0  0  0  0  0  0  0  0  0  0
   47.9042   10.1339   16.7837 H   0  0  0  0  0  0  0  0  0  0  0  0
   48.8344    4.2061   16.8785 H   0  0  0  0  0  0  0  0  0  0  0  0
   48.9243    3.6538   18.4643 H   0  0  0  0  0  0  0  0  0  0  0  0
   55.3552    2.0252   18.1040 H   0  0  0  0  0  0  0  0  0  0  0  0
   55.5569    3.4172   19.1699 H   0  0  0  0  0  0  0  0  0  0  0  0
   54.8370    5.8814   16.5319 H   0  0  0  0  0  0  0  0  0  0  0  0
   53.5673    4.7100   16.2847 H   0  0  0  0  0  0  0  0  0  0  0  0
   52.9614    2.6068   17.7829 H   0  0  0  0  0  0  0  0  0  0  0  0
   53.3492    2.3160   19.4782 H   0  0  0  0  0  0  0  0  0  0  0  0
   52.9986    6.2743   18.1270 H   0  0  0  0  0  0  0  0  0  0  0  0
   54.4538    5.8303   18.9805 H   0  0  0  0  0  0  0  0  0  0  0  0
   51.1931    5.1990   17.0821 H   0  0  0  0  0  0  0  0  0  0  0  0
   51.0547    3.4558   17.2143 H   0  0  0  0  0  0  0  0  0  0  0  0
   48.5618    9.6245   14.4733 H   0  0  0  0  0  0  0  0  0  0  0  0
   51.2943    5.3788   19.5924 H   0  0  0  0  0  0  0  0  0  0  0  0
   51.1602    3.6405   19.7206 H   0  0  0  0  0  0  0  0  0  0  0  0
   48.8480    3.9449   20.3463 H   0  0  0  0  0  0  0  0  0  0  0  0
   47.2157    8.3378   21.8427 H   0  0  0  0  0  0  0  0  0  0  0  0
   56.9015    4.9848   17.9400 H   0  0  0  0  0  0  0  0  0  0  0  0
   57.3579    3.4514   17.1641 H   0  0  0  0  0  0  0  0  0  0  0  0
   56.9215    4.8327   16.1696 H   0  0  0  0  0  0  0  0  0  0  0  0
   48.1915    4.2599   22.6218 H   0  0  0  0  0  0  0  0  0  0  0  0
   47.3624    6.4583   23.4188 H   0  0  0  0  0  0  0  0  0  0  0  0
   50.5836    4.2200   16.4978 H   0  0  0  0  0  0  0  0  0  0  0  0
   49.8891    6.5498   16.7346 H   0  0  0  0  0  0  0  0  0  0  0  0
   52.8633    2.7505   18.6097 H   0  0  0  0  0  0  0  0  0  0  0  0
   50.2710    8.2966   19.6717 H   0  0  0  0  0  0  0  0  0  0  0  0
  2  4  1  0
  3  1  1  0
  4  3  2  0
  5  1  2  0
  6  2  2  0
  7  1  1  0
  8  2  1  0
 10  9  1  0
 11 14  1  0
 12  9  1  0
 13 10  2  0
 14 12  2  0
 15 10  1  0
 16 27  1  0
 17 22  1  0
 18 13  1  0
 19  9  1  0
 20 15  2  0
 21 23  1  0
 22 24  1  0
 23 16  1  0
 24 16  1  0
 25 19  1  0
 26 20  1  0
 27 25  1  0
 28 20  1  0
 29 12  1  0
 30 14  1  0
 31 17  1  0
 32 29  2  0
 33 30  2  0
 11 13  1  0
 32 33  1  0
 26 18  2  0
 17 21  1  0
 35 37  1  0
 36 34  1  0
 37 36  2  0
 38 34  2  0
 39 35  2  0
 40 34  1  0
 41 35  1  0
  3 42  1  0
  4 43  1  0
  7 44  1  0
  8 45  1  0
 15 46  1  0
 18 47  1  0
 19 48  1  0
 19 49  1  0
 21 50  1  0
 21 51  1  0
 22 52  1  0
 22 53  1  0
 23 54  1  0
 23 55  1  0
 24 56  1  0
 24 57  1  0
 25 58  1  0
 25 59  1  0
 26 60  1  0
 27 61  1  0
 27 62  1  0
 29 63  1  0
 30 64  1  0
 31 65  1  0
 31 66  1  0
 31 67  1  0
 32 68  1  0
 33 69  1  0
 36 70  1  0
 37 71  1  0
 40 72  1  0
 41 73  1  0
M  END
> <Uni-Dock RESULT> 
ENERGY=   -4.800  LOWER_BOUND=    3.884  UPPER_BOUND=    6.027
INTER + INTRA:          -4.800
INTER:                  -4.800
INTRA:                   0.000
UNBOUND:                 0.000

$$$$

     RDKit          3D

 73 74  0  0  0  0  0  0  0  0999 V2000
   48.8103   12.4899   19.1692 C   0  0  0  0  0  0  0  0  0  0  0  0
   48.8108    9.4903   19.0290 C   0  0  0  0  0  0  0  0  0  0  0  0
   47.6174   11.6659   18.9611 C   0  0  0  0  0  0  0  0  0  0  0  0
   47.6062   10.3264   18.9421 C   0  0  0  0  0  0  0  0  0  0  0  0
   49.1104   13.4627   18.5038 O   0  0  0  0  0  0  0  0  0  0  0  0
   49.9547    9.7902   18.7534 O   0  0  0  0  0  0  0  0  0  0  0  0
   49.4830   12.1275   20.2706 O   0  0  0  0  0  0  0  0  0  0  0  0
   48.4725    8.2561   19.4357 O   0  0  0  0  0  0  0  0  0  0  0  0
   48.0206   12.9306   20.0504 N   0  0  0  0  0  0  0  0  0  0  0  0
   48.3756   13.7147   18.9033 C   0  0  0  0  0  0  0  0  0  0  0  0
   50.3959   15.0050   20.3815 S   0  0  0  0  0  0  0  0  0  0  0  0
   48.6306   13.0270   21.3401 C   0  0  0  0  0  0  0  0  0  0  0  0
   49.4171   14.6656   18.9449 C   0  0  0  0  0  0  0  0  0  0  0  0
   49.6908   13.9224   21.5961 C   0  0  0  0  0  0  0  0  0  0  0  0
   47.7096   13.5910   17.6593 C   0  0  0  0  0  0  0  0  0  0  0  0
   48.6830    8.5046   19.4447 N   0  0  0  0  0  0  0  0  0  0  0  0
   48.2684    6.7897   16.9804 N   0  0  0  0  0  0  0  0  0  0  0  0
   49.7590   15.4312   17.8089 C   0  0  0  0  0  0  0  0  0  0  0  0
   46.9113   11.9594   19.8740 C   0  0  0  0  0  0  0  0  0  0  0  0
   48.0566   14.3539   16.5379 C   0  0  0  0  0  0  0  0  0  0  0  0
   48.0232    6.3510   18.3704 C   0  0  0  0  0  0  0  0  0  0  0  0
   48.8097    8.1633   16.9307 C   0  0  0  0  0  0  0  0  0  0  0  0
   47.6047    7.5157   19.2932 C   0  0  0  0  0  0  0  0  0  0  0  0
   49.5011    8.6436   18.2281 C   0  0  0  0  0  0  0  0  0  0  0  0
   47.3522   10.6606   19.1763 C   0  0  0  0  0  0  0  0  0  0  0  0
   49.0819   15.2776   16.6062 C   0  0  0  0  0  0  0  0  0  0  0  0
   48.2562    9.7736   20.0430 C   0  0  0  0  0  0  0  0  0  0  0  0
   47.2010   14.1380   15.0593 Cl  0  0  0  0  0  0  0  0  0  0  0  0
   48.2262   12.2393   22.4447 C   0  0  0  0  0  0  0  0  0  0  0  0
   50.2858   14.0143   22.8734 C   0  0  0  0  0  0  0  0  0  0  0  0
   49.1358    5.8384   16.2913 C   0  0  0  0  0  0  0  0  0  0  0  0
   48.8204   12.3325   23.7117 C   0  0  0  0  0  0  0  0  0  0  0  0
   49.8529   13.2243   23.9286 C   0  0  0  0  0  0  0  0  0  0  0  0
   47.6524    9.6962   19.5696 C   0  0  0  0  0  0  0  0  0  0  0  0
   49.8518   11.6500   19.1732 C   0  0  0  0  0  0  0  0  0  0  0  0
   47.5317   10.9048   18.7481 C   0  0  0  0  0  0  0  0  0  0  0  0
   48.5023   11.8186   18.6248 C   0  0  0  0  0  0  0  0  0  0  0  0
   48.2077    9.5841   20.6435 O   0  0  0  0  0  0  0  0  0  0  0  0
   50.5079   10.6296   19.2224 O   0  0  0  0  0  0  0  0  0  0  0  0
   46.9898    8.6845   18.9889 O   0  0  0  0  0  0  0  0  0  0  0  0
   50.3256   12.8353   19.5857 O   0  0  0  0  0  0  0  0  0  0  0  0
   46.7055   12.2279   18.7998 H   0  0  0  0  0  0  0  0  0  0  0  0
   46.6715    9.7924   18.8161 H   0  0  0  0  0  0  0  0  0  0  0  0
   50.2623   12.7201   20.2797 H   0  0  0  0  0  0  0  0  0  0  0  0
   49.3279    7.7784   19.4630 H   0  0  0  0  0  0  0  0  0  0  0  0
   46.8962   12.8894   17.5135 H   0  0  0  0  0  0  0  0  0  0  0  0
   50.5666   16.1600   17.8614 H   0  0  0  0  0  0  0  0  0  0  0  0
   46.0977   12.4227   19.3016 H   0  0  0  0  0  0  0  0  0  0  0  0
   46.3856   11.7177   20.8009 H   0  0  0  0  0  0  0  0  0  0  0  0
   47.2294    5.5949   18.3640 H   0  0  0  0  0  0  0  0  0  0  0  0
   48.9166    5.8755   18.7988 H   0  0  0  0  0  0  0  0  0  0  0  0
   49.4948    8.2923   16.0832 H   0  0  0  0  0  0  0  0  0  0  0  0
   47.9649    8.8334   16.7253 H   0  0  0  0  0  0  0  0  0  0  0  0
   46.6922    7.9640   18.8839 H   0  0  0  0  0  0  0  0  0  0  0  0
   47.3510    7.1139   20.2810 H   0  0  0  0  0  0  0  0  0  0  0  0
   49.8594    9.6716   18.0940 H   0  0  0  0  0  0  0  0  0  0  0  0
   50.4054    8.0388   18.3749 H   0  0  0  0  0  0  0  0  0  0  0  0
   47.8578   10.8890   18.2335 H   0  0  0  0  0  0  0  0  0  0  0  0
   46.4404   10.1123   18.9141 H   0  0  0  0  0  0  0  0  0  0  0  0
   49.3589   15.8747   15.7426 H   0  0  0  0  0  0  0  0  0  0  0  0
   49.1608   10.3294   20.3151 H   0  0  0  0  0  0  0  0  0  0  0  0
   47.7472    9.5524   20.9890 H   0  0  0  0  0  0  0  0  0  0  0  0
   47.4350   11.5032   22.3773 H   0  0  0  0  0  0  0  0  0  0  0  0
   51.1026   14.7123   23.0490 H   0  0  0  0  0  0  0  0  0  0  0  0
   50.1392    5.7995   16.7306 H   0  0  0  0  0  0  0  0  0  0  0  0
   48.7048    4.8314   16.3223 H   0  0  0  0  0  0  0  0  0  0  0  0
   49.2329    6.1049   15.2329 H   0  0  0  0  0  0  0  0  0  0  0  0
   48.4686   11.6991   24.5224 H   0  0  0  0  0  0  0  0  0  0  0  0
   50.3211   13.3046   24.9052 H   0  0  0  0  0  0  0  0  0  0  0  0
   46.5750   11.0470   18.2602 H   0  0  0  0  0  0  0  0  0  0  0  0
   48.3341   12.7304   18.0647 H   0  0  0  0  0  0  0  0  0  0  0  0
   47.1427    7.9318   19.5979 H   0  0  0  0  0  0  0  0  0  0  0  0
   51.2112   12.6153   19.9441 H   0  0  0  0  0  0  0  0  0  0  0  0
  2  4  1  0
  3  1  1  0
  4  3  2  0
  5  1  2  0
  6  2  2  0
  7  1  1  0
  8  2  1  0
 10  9  1  0
 11 14  1  0
 12  9  1  0
 13 10  2  0
 14 12  2  0
 15 10  1  0
 16 27  1  0
 17 22  1  0
 18 13  1  0
 19  9  1  0
 20 15  2  0
 21 23  1  0
 22 24  1  0
 23 16  1  0
 24 16  1  0
 25 19  1  0
 26 20  1  0
 27 25  1  0
 28 20  1  0
 29 12  1  0
 30 14  1  0
 31 17  1  0
 32 29  2  0
 33 30  2  0
 11 13  1  0
 32 33  1  0
 26 18  2  0
 17 21  1  0
 35 37  1  0
 36 34  1  0
 37 36  2  0
 38 34  2  0
 39 35  2  0
 40 34  1  0
 41 35  1  0
  3 42  1  0
  4 43  1  0
  7 44  1  0
  8 45  1  0
 15 46  1  0
 18 47  1  0
 19 48  1  0
 19 49  1  0
 21 50  1  0
 21 51  1  0
 22 52  1  0
 22 53  1  0
 23 54  1  0
 23 55  1  0
 24 56  1  0
 24 57  1  0
 25 58  1  0
 25 59  1  0
 26 60  1  0
 27 61  1  0
 27 62  1  0
 29 63  1  0
 30 64  1  0
 31 65  1  0
 31 66  1  0
 31 67  1  0
 32 68  1  0
 33 69  1  0
 36 70  1  0
 37 71  1  0
 40 72  1  0
 41 73  1  0
M  END
> <Uni-Dock RESULT> 
ENERGY=   -4.630  LOWER_BOUND=    4.880  UPPER_BOUND=    7.603
INTER + INTRA:          -4.630
INTER:                  -4.630
INTRA:                   0.000
UNBOUND:                 0.000

$$$$

     RDKit          3D

 73 74  0  0  0  0  0  0  0  0999 V2000
   49.9589    8.5137   13.5991 C   0  0  0  0  0  0  0  0  0  0  0  0
   47.1736    7.5376   13.0455 C   0  0  0  0  0  0  0  0  0  0  0  0
   49.0137    9.1652   12.6895 C   0  0  0  0  0  0  0  0  0  0  0  0
   47.7556    8.7588   12.4733 C   0  0  0  0  0  0  0  0  0  0  0  0
   51.1169    8.2543   13.3327 O   0  0  0  0  0  0  0  0  0  0  0  0
   47.7504    6.5465   13.4451 O   0  0  0  0  0  0  0  0  0  0  0  0
   49.4398    8.3447   14.8235 O   0  0  0  0  0  0  0  0  0  0  0  0
   45.8341    7.6311   13.0358 O   0  0  0  0  0  0  0  0  0  0  0  0
   49.9786    9.7105   14.0010 N   0  0  0  0  0  0  0  0  0  0  0  0
   51.1033    9.1277   13.3285 C   0  0  0  0  0  0  0  0  0  0  0  0
   52.2922    8.5068   15.8050 S   0  0  0  0  0  0  0  0  0  0  0  0
   49.8273    9.8195   15.4188 C   0  0  0  0  0  0  0  0  0  0  0  0
   52.1853    8.5651   14.0379 C   0  0  0  0  0  0  0  0  0  0  0  0
   50.8011    9.3224   16.3109 C   0  0  0  0  0  0  0  0  0  0  0  0
   51.2055    9.0781   11.9166 C   0  0  0  0  0  0  0  0  0  0  0  0
   46.1057    7.5348   13.1879 N   0  0  0  0  0  0  0  0  0  0  0  0
   45.0966    6.2337   10.6433 N   0  0  0  0  0  0  0  0  0  0  0  0
   53.2869    7.9927   13.3653 C   0  0  0  0  0  0  0  0  0  0  0  0
   48.9019   10.2619   13.1400 C   0  0  0  0  0  0  0  0  0  0  0  0
   52.3015    8.5073   11.2586 C   0  0  0  0  0  0  0  0  0  0  0  0
   44.2507    6.9407   11.6278 C   0  0  0  0  0  0  0  0  0  0  0  0
   46.5069    6.1760   11.0794 C   0  0  0  0  0  0  0  0  0  0  0  0
   45.0113    8.0663   12.3611 C   0  0  0  0  0  0  0  0  0  0  0  0
   46.7303    6.3371   12.6013 C   0  0  0  0  0  0  0  0  0  0  0  0
   47.9568    9.1798   12.5889 C   0  0  0  0  0  0  0  0  0  0  0  0
   53.3475    7.9623   11.9782 C   0  0  0  0  0  0  0  0  0  0  0  0
   47.0530    8.5507   13.6578 C   0  0  0  0  0  0  0  0  0  0  0  0
   52.3461    8.4810    9.5374 Cl  0  0  0  0  0  0  0  0  0  0  0  0
   48.7018   10.4230   16.0295 C   0  0  0  0  0  0  0  0  0  0  0  0
   50.6461    9.4369   17.7098 C   0  0  0  0  0  0  0  0  0  0  0  0
   44.5575    4.9045   10.3696 C   0  0  0  0  0  0  0  0  0  0  0  0
   48.5507   10.5338   17.4195 C   0  0  0  0  0  0  0  0  0  0  0  0
   49.5267   10.0411   18.2638 C   0  0  0  0  0  0  0  0  0  0  0  0
   46.9967    8.8155   12.9358 C   0  0  0  0  0  0  0  0  0  0  0  0
   49.3652    7.3897   14.0169 C   0  0  0  0  0  0  0  0  0  0  0  0
   48.3400    8.9082   12.3550 C   0  0  0  0  0  0  0  0  0  0  0  0
   49.4194    8.3182   12.8832 C   0  0  0  0  0  0  0  0  0  0  0  0
   46.6985    8.8082   14.1127 O   0  0  0  0  0  0  0  0  0  0  0  0
   48.5157    6.5536   14.2481 O   0  0  0  0  0  0  0  0  0  0  0  0
   46.0793    8.7964   11.9571 O   0  0  0  0  0  0  0  0  0  0  0  0
   50.4569    7.5424   14.7814 O   0  0  0  0  0  0  0  0  0  0  0  0
   49.4140   10.0245   12.1654 H   0  0  0  0  0  0  0  0  0  0  0  0
   47.1099    9.3202   11.8080 H   0  0  0  0  0  0  0  0  0  0  0  0
   50.1436    7.8775   15.3184 H   0  0  0  0  0  0  0  0  0  0  0  0
   45.5396    6.7834   13.4299 H   0  0  0  0  0  0  0  0  0  0  0  0
   50.4306    9.4782   11.2728 H   0  0  0  0  0  0  0  0  0  0  0  0
   54.1123    7.5632   13.9313 H   0  0  0  0  0  0  0  0  0  0  0  0
   49.3423   10.8211   12.3047 H   0  0  0  0  0  0  0  0  0  0  0  0
   48.3168   11.0516   13.6173 H   0  0  0  0  0  0  0  0  0  0  0  0
   43.3894    7.3715   11.1040 H   0  0  0  0  0  0  0  0  0  0  0  0
   43.8541    6.2453   12.3807 H   0  0  0  0  0  0  0  0  0  0  0  0
   46.9942    5.2552   10.7349 H   0  0  0  0  0  0  0  0  0  0  0  0
   47.0340    6.9918   10.5682 H   0  0  0  0  0  0  0  0  0  0  0  0
   45.3733    8.7782   11.6106 H   0  0  0  0  0  0  0  0  0  0  0  0
   44.3102    8.6078   13.0068 H   0  0  0  0  0  0  0  0  0  0  0  0
   47.8037    6.2888   12.8217 H   0  0  0  0  0  0  0  0  0  0  0  0
   46.2922    5.4645   13.1031 H   0  0  0  0  0  0  0  0  0  0  0  0
   48.5302    8.3955   12.0858 H   0  0  0  0  0  0  0  0  0  0  0  0
   47.3399    9.6553   11.8183 H   0  0  0  0  0  0  0  0  0  0  0  0
   54.2023    7.5174   11.4778 H   0  0  0  0  0  0  0  0  0  0  0  0
   47.6730    8.0879   14.4342 H   0  0  0  0  0  0  0  0  0  0  0  0
   46.4850    9.3414   14.1629 H   0  0  0  0  0  0  0  0  0  0  0  0
   47.8767   10.8298   15.4584 H   0  0  0  0  0  0  0  0  0  0  0  0
   51.4101    9.0466   18.3800 H   0  0  0  0  0  0  0  0  0  0  0  0
   44.5899    4.2548   11.2517 H   0  0  0  0  0  0  0  0  0  0  0  0
   43.5187    4.9729   10.0277 H   0  0  0  0  0  0  0  0  0  0  0  0
   45.1210    4.4206    9.5640 H   0  0  0  0  0  0  0  0  0  0  0  0
   47.6620   11.0060   17.8314 H   0  0  0  0  0  0  0  0  0  0  0  0
   49.4201   10.1205   19.3416 H   0  0  0  0  0  0  0  0  0  0  0  0
   48.4272    9.5280   11.4708 H   0  0  0  0  0  0  0  0  0  0  0  0
   50.4015    8.4799   12.4557 H   0  0  0  0  0  0  0  0  0  0  0  0
   45.2304    8.7182   12.4411 H   0  0  0  0  0  0  0  0  0  0  0  0
   50.3188    6.8991   15.5082 H   0  0  0  0  0  0  0  0  0  0  0  0
  2  4  1  0
  3  1  1  0
  4  3  2  0
  5  1  2  0
  6  2  2  0
  7  1  1  0
  8  2  1  0
 10  9  1  0
 11 14  1  0
 12  9  1  0
 13 10  2  0
 14 12  2  0
 15 10  1  0
 16 27  1  0
 17 22  1  0
 18 13  1  0
 19  9  1  0
 20 15  2  0
 21 23  1  0
 22 24  1  0
 23 16  1  0
 24 16  1  0
 25 19  1  0
 26 20  1  0
 27 25  1  0
 28 20  1  0
 29 12  1  0
 30 14  1  0
 31 17  1  0
 32 29  2  0
 33 30  2  0
 11 13  1  0
 32 33  1  0
 26 18  2  0
 17 21  1  0
 35 37  1  0
 36 34  1  0
 37 36  2  0
 38 34  2  0
 39 35  2  0
 40 34  1  0
 41 35  1  0
  3 42  1  0
  4 43  1  0
  7 44  1  0
  8 45  1  0
 15 46  1  0
 18 47  1  0
 19 48  1  0
 19 49  1  0
 21 50  1  0
 21 51  1  0
 22 52  1  0
 22 53  1  0
 23 54  1  0
 23 55  1  0
 24 56  1  0
 24 57  1  0
 25 58  1  0
 25 59  1  0
 26 60  1  0
 27 61  1  0
 27 62  1  0
 29 63  1  0
 30 64  1  0
 31 65  1  0
 31 66  1  0
 31 67  1  0
 32 68  1  0
 33 69  1  0
 36 70  1  0
 37 71  1  0
 40 72  1  0
 41 73  1  0
M  END
> <Uni-Dock RESULT> 
ENERGY=   -4.510  LOWER_BOUND=    2.358  UPPER_BOUND=    5.823
INTER + INTRA:          -4.510
INTER:                  -4.510
INTRA:                   0.000
UNBOUND:                 0.000

$$$$

     RDKit          3D

 73 74  0  0  0  0  0  0  0  0999 V2000
   49.3481   12.5059   21.2743 C   0  0  0  0  0  0  0  0  0  0  0  0
   48.8435   13.1211   18.3788 C   0  0  0  0  0  0  0  0  0  0  0  0
   48.2703   13.3665   20.7815 C   0  0  0  0  0  0  0  0  0  0  0  0
   48.0142   13.6083   19.4890 C   0  0  0  0  0  0  0  0  0  0  0  0
   50.1107   12.7916   22.1777 O   0  0  0  0  0  0  0  0  0  0  0  0
   50.0121   12.7922   18.4024 O   0  0  0  0  0  0  0  0  0  0  0  0
   49.3247   11.2953   20.6990 O   0  0  0  0  0  0  0  0  0  0  0  0
   48.1228   13.1221   17.2458 O   0  0  0  0  0  0  0  0  0  0  0  0
   48.3326   12.0220   21.8478 N   0  0  0  0  0  0  0  0  0  0  0  0
   49.3379   12.7352   22.5809 C   0  0  0  0  0  0  0  0  0  0  0  0
   50.6017   10.3098   23.2532 S   0  0  0  0  0  0  0  0  0  0  0  0
   48.2524   10.5998   21.7218 C   0  0  0  0  0  0  0  0  0  0  0  0
   50.3905   12.0684   23.2426 C   0  0  0  0  0  0  0  0  0  0  0  0
   49.2074    9.7459   22.3137 C   0  0  0  0  0  0  0  0  0  0  0  0
   49.3428   14.1473   22.6918 C   0  0  0  0  0  0  0  0  0  0  0  0
   48.3461   12.9775   17.4340 N   0  0  0  0  0  0  0  0  0  0  0  0
   48.8495   15.6044   16.0086 N   0  0  0  0  0  0  0  0  0  0  0  0
   51.3757   12.7809   23.9604 C   0  0  0  0  0  0  0  0  0  0  0  0
   47.2829   12.8409   21.1903 C   0  0  0  0  0  0  0  0  0  0  0  0
   50.3248   14.8452   23.4050 C   0  0  0  0  0  0  0  0  0  0  0  0
   47.8873   14.5718   15.5698 C   0  0  0  0  0  0  0  0  0  0  0  0
   49.5987   15.1757   17.2075 C   0  0  0  0  0  0  0  0  0  0  0  0
   47.3076   13.7635   16.7504 C   0  0  0  0  0  0  0  0  0  0  0  0
   49.6579   13.6467   17.4325 C   0  0  0  0  0  0  0  0  0  0  0  0
   47.7479   13.4641   19.8624 C   0  0  0  0  0  0  0  0  0  0  0  0
   51.3456   14.1668   24.0430 C   0  0  0  0  0  0  0  0  0  0  0  0
   47.9352   12.4398   18.7350 C   0  0  0  0  0  0  0  0  0  0  0  0
   50.2629   16.5641   23.4859 Cl  0  0  0  0  0  0  0  0  0  0  0  0
   47.2248    9.9468   20.9997 C   0  0  0  0  0  0  0  0  0  0  0  0
   49.1196    8.3423   22.1877 C   0  0  0  0  0  0  0  0  0  0  0  0
   49.7417   15.9686   14.9116 C   0  0  0  0  0  0  0  0  0  0  0  0
   47.1414    8.5523   20.8757 C   0  0  0  0  0  0  0  0  0  0  0  0
   48.0907    7.7458   21.4731 C   0  0  0  0  0  0  0  0  0  0  0  0
   47.6315   13.1416   18.8340 C   0  0  0  0  0  0  0  0  0  0  0  0
   50.0770   12.1660   20.2050 C   0  0  0  0  0  0  0  0  0  0  0  0
   48.1541   13.7169   20.0776 C   0  0  0  0  0  0  0  0  0  0  0  0
   49.2184   13.2327   20.7296 C   0  0  0  0  0  0  0  0  0  0  0  0
   47.5686   11.9675   18.5313 O   0  0  0  0  0  0  0  0  0  0  0  0
   50.4200   11.9919   19.0534 O   0  0  0  0  0  0  0  0  0  0  0  0
   47.1509   14.1177   18.0492 O   0  0  0  0  0  0  0  0  0  0  0  0
   50.5102   11.3946   21.2134 O   0  0  0  0  0  0  0  0  0  0  0  0
   47.6748   13.8305   21.5585 H   0  0  0  0  0  0  0  0  0  0  0  0
   47.1731   14.2319   19.2090 H   0  0  0  0  0  0  0  0  0  0  0  0
   50.1002   10.8351   21.0802 H   0  0  0  0  0  0  0  0  0  0  0  0
   48.7504   12.7871   16.5715 H   0  0  0  0  0  0  0  0  0  0  0  0
   48.5831   14.7605   22.2208 H   0  0  0  0  0  0  0  0  0  0  0  0
   52.1805   12.2475   24.4642 H   0  0  0  0  0  0  0  0  0  0  0  0
   46.9506   13.6361   21.8696 H   0  0  0  0  0  0  0  0  0  0  0  0
   46.3410   12.3090   21.0360 H   0  0  0  0  0  0  0  0  0  0  0  0
   47.0668   15.0630   15.0337 H   0  0  0  0  0  0  0  0  0  0  0  0
   48.3549   13.8683   14.8668 H   0  0  0  0  0  0  0  0  0  0  0  0
   50.6172   15.5841   17.2093 H   0  0  0  0  0  0  0  0  0  0  0  0
   49.1026   15.6300   18.0749 H   0  0  0  0  0  0  0  0  0  0  0  0
   46.8092   14.4635   17.4307 H   0  0  0  0  0  0  0  0  0  0  0  0
   46.5385   13.0807   16.3709 H   0  0  0  0  0  0  0  0  0  0  0  0
   50.2251   13.4320   18.3464 H   0  0  0  0  0  0  0  0  0  0  0  0
   50.2456   13.2059   16.6168 H   0  0  0  0  0  0  0  0  0  0  0  0
   48.6777   14.0213   20.0096 H   0  0  0  0  0  0  0  0  0  0  0  0
   46.9893   14.1988   19.5702 H   0  0  0  0  0  0  0  0  0  0  0  0
   52.1120   14.6983   24.5990 H   0  0  0  0  0  0  0  0  0  0  0  0
   48.6844   11.6984   19.0357 H   0  0  0  0  0  0  0  0  0  0  0  0
   47.0023   11.8801   18.5954 H   0  0  0  0  0  0  0  0  0  0  0  0
   46.4397   10.4870   20.4856 H   0  0  0  0  0  0  0  0  0  0  0  0
   49.8672    7.7020   22.6529 H   0  0  0  0  0  0  0  0  0  0  0  0
   50.3815   15.1338   14.6035 H   0  0  0  0  0  0  0  0  0  0  0  0
   49.1658   16.3032   14.0414 H   0  0  0  0  0  0  0  0  0  0  0  0
   50.3847   16.8068   15.2025 H   0  0  0  0  0  0  0  0  0  0  0  0
   46.3295    8.1071   20.3057 H   0  0  0  0  0  0  0  0  0  0  0  0
   48.0368    6.6649   21.3831 H   0  0  0  0  0  0  0  0  0  0  0  0
   47.5974   14.5561   20.4767 H   0  0  0  0  0  0  0  0  0  0  0  0
   49.5179   13.6497   21.6835 H   0  0  0  0  0  0  0  0  0  0  0  0
   46.8451   13.6388   17.2504 H   0  0  0  0  0  0  0  0  0  0  0  0
   51.0536   10.7140   20.7633 H   0  0  0  0  0  0  0  0  0  0  0  0
  2  4  1  0
  3  1  1  0
  4  3  2  0
  5  1  2  0
  6  2  2  0
  7  1  1  0
  8  2  1  0
 10  9  1  0
 11 14  1  0
 12  9  1  0
 13 10  2  0
 14 12  2  0
 15 10  1  0
 16 27  1  0
 17 22  1  0
 18 13  1  0
 19  9  1  0
 20 15  2  0
 21 23  1  0
 22 24  1  0
 23 16  1  0
 24 16  1  0
 25 19  1  0
 26 20  1  0
 27 25  1  0
 28 20  1  0
 29 12  1  0
 30 14  1  0
 31 17  1  0
 32 29  2  0
 33 30  2  0
 11 13  1  0
 32 33  1  0
 26 18  2  0
 17 21  1  0
 35 37  1  0
 36 34  1  0
 37 36  2  0
 38 34  2  0
 39 35  2  0
 40 34  1  0
 41 35  1  0
  3 42  1  0
  4 43  1  0
  7 44  1  0
  8 45  1  0
 15 46  1  0
 18 47  1  0
 19 48  1  0
 19 49  1  0
 21 50  1  0
 21 51  1  0
 22 52  1  0
 22 53  1  0
 23 54  1  0
 23 55  1  0
 24 56  1  0
 24 57  1  0
 25 58  1  0
 25 59  1  0
 26 60  1  0
 27 61  1  0
 27 62  1  0
 29 63  1  0
 30 64  1  0
 31 65  1  0
 31 66  1  0
 31 67  1  0
 32 68  1  0
 33 69  1  0
 36 70  1  0
 37 71  1  0
 40 72  1  0
 41 73  1  0
M  END
> <Uni-Dock RESULT> 
ENERGY=   -4.389  LOWER_BOUND=    6.727  UPPER_BOUND=    9.126
INTER + INTRA:          -4.389
INTER:                  -4.389
INTRA:                   0.000
UNBOUND:                 0.000

$$$$

     RDKit          3D

 73 74  0  0  0  0  0  0  0  0999 V2000
   50.8345    5.4860   17.5989 C   0  0  0  0  0  0  0  0  0  0  0  0
   53.1018    7.1629   16.5672 C   0  0  0  0  0  0  0  0  0  0  0  0
   52.1872    5.4937   18.1607 C   0  0  0  0  0  0  0  0  0  0  0  0
   53.1895    6.2724   17.7321 C   0  0  0  0  0  0  0  0  0  0  0  0
   50.2013    4.4859   17.3196 O   0  0  0  0  0  0  0  0  0  0  0  0
   52.3469    7.0872   15.6191 O   0  0  0  0  0  0  0  0  0  0  0  0
   50.3091    6.7179   17.5422 O   0  0  0  0  0  0  0  0  0  0  0  0
   54.0474    8.1122   16.6553 O   0  0  0  0  0  0  0  0  0  0  0  0
   50.6155    5.6761   18.8278 N   0  0  0  0  0  0  0  0  0  0  0  0
   50.2736    4.4385   18.1888 C   0  0  0  0  0  0  0  0  0  0  0  0
   47.6334    5.3400   17.8032 S   0  0  0  0  0  0  0  0  0  0  0  0
   49.7148    6.7608   19.0669 C   0  0  0  0  0  0  0  0  0  0  0  0
   48.9750    4.1882   17.6976 C   0  0  0  0  0  0  0  0  0  0  0  0
   48.3654    6.7108   18.6574 C   0  0  0  0  0  0  0  0  0  0  0  0
   51.2083    3.3894   18.0093 C   0  0  0  0  0  0  0  0  0  0  0  0
   53.7431    8.0286   16.5743 N   0  0  0  0  0  0  0  0  0  0  0  0
   56.1751    7.0701   15.0405 N   0  0  0  0  0  0  0  0  0  0  0  0
   48.6499    2.9664   17.0689 C   0  0  0  0  0  0  0  0  0  0  0  0
   52.0181    5.8181   19.2940 C   0  0  0  0  0  0  0  0  0  0  0  0
   50.8768    2.1817   17.3836 C   0  0  0  0  0  0  0  0  0  0  0  0
   56.1085    8.3160   15.8328 C   0  0  0  0  0  0  0  0  0  0  0  0
   54.8779    6.3633   15.0277 C   0  0  0  0  0  0  0  0  0  0  0  0
   55.1321    8.2083   17.0237 C   0  0  0  0  0  0  0  0  0  0  0  0
   53.6456    7.2478   15.3294 C   0  0  0  0  0  0  0  0  0  0  0  0
   52.9956    6.1820   18.1626 C   0  0  0  0  0  0  0  0  0  0  0  0
   49.5970    1.9633   16.9106 C   0  0  0  0  0  0  0  0  0  0  0  0
   52.8175    7.6110   17.6322 C   0  0  0  0  0  0  0  0  0  0  0  0
   52.0742    0.9583   17.1984 Cl  0  0  0  0  0  0  0  0  0  0  0  0
   50.1029    7.9549   19.7208 C   0  0  0  0  0  0  0  0  0  0  0  0
   47.4812    7.7847   18.9002 C   0  0  0  0  0  0  0  0  0  0  0  0
   56.6548    7.3500   13.6900 C   0  0  0  0  0  0  0  0  0  0  0  0
   49.2222    9.0199   19.9591 C   0  0  0  0  0  0  0  0  0  0  0  0
   47.9056    8.9350   19.5495 C   0  0  0  0  0  0  0  0  0  0  0  0
   53.3909    7.1345   17.8290 C   0  0  0  0  0  0  0  0  0  0  0  0
   50.8721    6.2716   16.5165 C   0  0  0  0  0  0  0  0  0  0  0  0
   52.8776    5.7616   17.8718 C   0  0  0  0  0  0  0  0  0  0  0  0
   51.7083    5.3892   17.3364 C   0  0  0  0  0  0  0  0  0  0  0  0
   52.7566    8.1649   17.9295 O   0  0  0  0  0  0  0  0  0  0  0  0
   51.2407    7.0938   15.7028 O   0  0  0  0  0  0  0  0  0  0  0  0
   54.7276    7.1160   17.7167 O   0  0  0  0  0  0  0  0  0  0  0  0
   49.5763    6.0082   16.7426 O   0  0  0  0  0  0  0  0  0  0  0  0
   52.3421    4.7896   18.9691 H   0  0  0  0  0  0  0  0  0  0  0  0
   54.1528    6.2401   18.2276 H   0  0  0  0  0  0  0  0  0  0  0  0
   49.4334    6.5846   17.1250 H   0  0  0  0  0  0  0  0  0  0  0  0
   53.9126    8.6496   15.8467 H   0  0  0  0  0  0  0  0  0  0  0  0
   52.2352    3.4748   18.3458 H   0  0  0  0  0  0  0  0  0  0  0  0
   47.6414    2.7927   16.6961 H   0  0  0  0  0  0  0  0  0  0  0  0
   52.3470    4.8882   19.7749 H   0  0  0  0  0  0  0  0  0  0  0  0
   52.1383    6.5201   20.1225 H   0  0  0  0  0  0  0  0  0  0  0  0
   57.1119    8.5447   16.2107 H   0  0  0  0  0  0  0  0  0  0  0  0
   55.7987    9.1660   15.2087 H   0  0  0  0  0  0  0  0  0  0  0  0
   54.7220    5.8317   14.0805 H   0  0  0  0  0  0  0  0  0  0  0  0
   54.9323    5.5798   15.7945 H   0  0  0  0  0  0  0  0  0  0  0  0
   55.4654    7.3839   17.6643 H   0  0  0  0  0  0  0  0  0  0  0  0
   55.1956    9.1257   17.6204 H   0  0  0  0  0  0  0  0  0  0  0  0
   52.7377    6.6328   15.3050 H   0  0  0  0  0  0  0  0  0  0  0  0
   53.5320    7.9644   14.5056 H   0  0  0  0  0  0  0  0  0  0  0  0
   52.9025    5.4703   17.3370 H   0  0  0  0  0  0  0  0  0  0  0  0
   54.0084    6.0613   18.5630 H   0  0  0  0  0  0  0  0  0  0  0  0
   49.3293    1.0302   16.4241 H   0  0  0  0  0  0  0  0  0  0  0  0
   51.7993    7.7327   17.2451 H   0  0  0  0  0  0  0  0  0  0  0  0
   52.9059    8.3199   18.4644 H   0  0  0  0  0  0  0  0  0  0  0  0
   51.1133    8.1261   20.0705 H   0  0  0  0  0  0  0  0  0  0  0  0
   46.4437    7.7249   18.5758 H   0  0  0  0  0  0  0  0  0  0  0  0
   55.9573    7.9786   13.1247 H   0  0  0  0  0  0  0  0  0  0  0  0
   57.6270    7.8547   13.7233 H   0  0  0  0  0  0  0  0  0  0  0  0
   56.8054    6.4170   13.1355 H   0  0  0  0  0  0  0  0  0  0  0  0
   49.5785    9.9143   20.4645 H   0  0  0  0  0  0  0  0  0  0  0  0
   47.2148    9.7537   19.7279 H   0  0  0  0  0  0  0  0  0  0  0  0
   53.4913    5.0475   18.4075 H   0  0  0  0  0  0  0  0  0  0  0  0
   51.3415    4.3776   17.4610 H   0  0  0  0  0  0  0  0  0  0  0  0
   54.9671    8.0660   17.6809 H   0  0  0  0  0  0  0  0  0  0  0  0
   49.1088    6.6511   16.1688 H   0  0  0  0  0  0  0  0  0  0  0  0
  2  4  1  0
  3  1  1  0
  4  3  2  0
  5  1  2  0
  6  2  2  0
  7  1  1  0
  8  2  1  0
 10  9  1  0
 11 14  1  0
 12  9  1  0
 13 10  2  0
 14 12  2  0
 15 10  1  0
 16 27  1  0
 17 22  1  0
 18 13  1  0
 19  9  1  0
 20 15  2  0
 21 23  1  0
 22 24  1  0
 23 16  1  0
 24 16  1  0
 25 19  1  0
 26 20  1  0
 27 25  1  0
 28 20  1  0
 29 12  1  0
 30 14  1  0
 31 17  1  0
 32 29  2  0
 33 30  2  0
 11 13  1  0
 32 33  1  0
 26 18  2  0
 17 21  1  0
 35 37  1  0
 36 34  1  0
 37 36  2  0
 38 34  2  0
 39 35  2  0
 40 34  1  0
 41 35  1  0
  3 42  1  0
  4 43  1  0
  7 44  1  0
  8 45  1  0
 15 46  1  0
 18 47  1  0
 19 48  1  0
 19 49  1  0
 21 50  1  0
 21 51  1  0
 22 52  1  0
 22 53  1  0
 23 54  1  0
 23 55  1  0
 24 56  1  0
 24 57  1  0
 25 58  1  0
 25 59  1  0
 26 60  1  0
 27 61  1  0
 27 62  1  0
 29 63  1  0
 30 64  1  0
 31 65  1  0
 31 66  1  0
 31 67  1  0
 32 68  1  0
 33 69  1  0
 36 70  1  0
 37 71  1  0
 40 72  1  0
 41 73  1  0
M  END
> <Uni-Dock RESULT> 
ENERGY=   -4.381  LOWER_BOUND=    5.077  UPPER_BOUND=    6.737
INTER + INTRA:          -4.381
INTER:                  -4.381
INTRA:                   0.000
UNBOUND:                 0.000

$$$$

     RDKit          3D

 73 74  0  0  0  0  0  0  0  0999 V2000
   51.1028    8.7010   12.7060 C   0  0  0  0  0  0  0  0  0  0  0  0
   48.1557    8.2358   13.0457 C   0  0  0  0  0  0  0  0  0  0  0  0
   50.0670    9.2452   11.8251 C   0  0  0  0  0  0  0  0  0  0  0  0
   48.7492    9.0771   11.9981 C   0  0  0  0  0  0  0  0  0  0  0  0
   52.1082    8.1292   12.3299 O   0  0  0  0  0  0  0  0  0  0  0  0
   48.6629    7.3057   13.6392 O   0  0  0  0  0  0  0  0  0  0  0  0
   50.8844    9.0172   13.9903 O   0  0  0  0  0  0  0  0  0  0  0  0
   46.8839    8.6115   13.2568 O   0  0  0  0  0  0  0  0  0  0  0  0
   51.3956    9.9288   12.6713 N   0  0  0  0  0  0  0  0  0  0  0  0
   52.2213    8.9437   12.0352 C   0  0  0  0  0  0  0  0  0  0  0  0
   53.8833    8.8363   14.3063 S   0  0  0  0  0  0  0  0  0  0  0  0
   51.6178   10.4805   13.9718 C   0  0  0  0  0  0  0  0  0  0  0  0
   53.3515    8.3936   12.6758 C   0  0  0  0  0  0  0  0  0  0  0  0
   52.6992   10.0687   14.7793 C   0  0  0  0  0  0  0  0  0  0  0  0
   51.9621    8.4597   10.7294 C   0  0  0  0  0  0  0  0  0  0  0  0
   47.1677    8.5075   13.3786 N   0  0  0  0  0  0  0  0  0  0  0  0
   45.3813    6.7673   11.6563 N   0  0  0  0  0  0  0  0  0  0  0  0
   54.1566    7.4232   12.0404 C   0  0  0  0  0  0  0  0  0  0  0  0
   50.2312   10.4228   11.8934 C   0  0  0  0  0  0  0  0  0  0  0  0
   52.7657    7.4963   10.1080 C   0  0  0  0  0  0  0  0  0  0  0  0
   44.9180    7.8991   12.4863 C   0  0  0  0  0  0  0  0  0  0  0  0
   46.8318    6.5351   11.8135 C   0  0  0  0  0  0  0  0  0  0  0  0
   45.9921    8.9969   12.6423 C   0  0  0  0  0  0  0  0  0  0  0  0
   47.4463    7.0844   13.1222 C   0  0  0  0  0  0  0  0  0  0  0  0
   49.0319    9.4592   11.9257 C   0  0  0  0  0  0  0  0  0  0  0  0
   53.8666    6.9733   10.7590 C   0  0  0  0  0  0  0  0  0  0  0  0
   48.3395    9.3851   13.2932 C   0  0  0  0  0  0  0  0  0  0  0  0
   52.3781    6.9555    8.5199 Cl  0  0  0  0  0  0  0  0  0  0  0  0
   50.7789   11.4668   14.5440 C   0  0  0  0  0  0  0  0  0  0  0  0
   52.9140   10.6207   16.0611 C   0  0  0  0  0  0  0  0  0  0  0  0
   44.6036    5.5671   11.9514 C   0  0  0  0  0  0  0  0  0  0  0  0
   50.9948   12.0120   15.8181 C   0  0  0  0  0  0  0  0  0  0  0  0
   52.0670   11.5896   16.5797 C   0  0  0  0  0  0  0  0  0  0  0  0
   48.1451    9.4312   12.5485 C   0  0  0  0  0  0  0  0  0  0  0  0
   50.4741    7.9072   13.5806 C   0  0  0  0  0  0  0  0  0  0  0  0
   49.3014    9.0542   11.7291 C   0  0  0  0  0  0  0  0  0  0  0  0
   50.3802    8.4258   12.2122 C   0  0  0  0  0  0  0  0  0  0  0  0
   48.1501    9.8358   13.6932 O   0  0  0  0  0  0  0  0  0  0  0  0
   49.5960    7.3821   14.2343 O   0  0  0  0  0  0  0  0  0  0  0  0
   47.0212    9.3250   11.8238 O   0  0  0  0  0  0  0  0  0  0  0  0
   51.7314    8.0369   14.0300 O   0  0  0  0  0  0  0  0  0  0  0  0
   50.4456    9.8035   10.9775 H   0  0  0  0  0  0  0  0  0  0  0  0
   48.0476    9.5443   11.3168 H   0  0  0  0  0  0  0  0  0  0  0  0
   51.6131    8.5750   14.4719 H   0  0  0  0  0  0  0  0  0  0  0  0
   46.5761    8.0027   13.9606 H   0  0  0  0  0  0  0  0  0  0  0  0
   51.1186    8.8111   10.1463 H   0  0  0  0  0  0  0  0  0  0  0  0
   55.0250    7.0105   12.5522 H   0  0  0  0  0  0  0  0  0  0  0  0
   50.5275   10.6014   10.8520 H   0  0  0  0  0  0  0  0  0  0  0  0
   49.9040   11.4255   12.1786 H   0  0  0  0  0  0  0  0  0  0  0  0
   44.0259    8.3332   12.0199 H   0  0  0  0  0  0  0  0  0  0  0  0
   44.6234    7.5599   13.4893 H   0  0  0  0  0  0  0  0  0  0  0  0
   47.0791    5.4707   11.7133 H   0  0  0  0  0  0  0  0  0  0  0  0
   47.3288    7.0291   10.9687 H   0  0  0  0  0  0  0  0  0  0  0  0
   46.2565    9.3596   11.6426 H   0  0  0  0  0  0  0  0  0  0  0  0
   45.5594    9.8435   13.1881 H   0  0  0  0  0  0  0  0  0  0  0  0
   48.5220    6.8707   13.1404 H   0  0  0  0  0  0  0  0  0  0  0  0
   47.0240    6.5154   13.9607 H   0  0  0  0  0  0  0  0  0  0  0  0
   49.3422    8.4565   11.6171 H   0  0  0  0  0  0  0  0  0  0  0  0
   48.3193    9.8091   11.1705 H   0  0  0  0  0  0  0  0  0  0  0  0
   54.4966    6.2260   10.2861 H   0  0  0  0  0  0  0  0  0  0  0  0
   49.0583    9.0481   14.0489 H   0  0  0  0  0  0  0  0  0  0  0  0
   48.0357   10.3932   13.6006 H   0  0  0  0  0  0  0  0  0  0  0  0
   49.9064   11.8568   14.0351 H   0  0  0  0  0  0  0  0  0  0  0  0
   53.7550   10.2885   16.6674 H   0  0  0  0  0  0  0  0  0  0  0  0
   44.7586    5.2151   12.9777 H   0  0  0  0  0  0  0  0  0  0  0  0
   43.5338    5.7561   11.8078 H   0  0  0  0  0  0  0  0  0  0  0  0
   44.8733    4.7570   11.2646 H   0  0  0  0  0  0  0  0  0  0  0  0
   50.3144   12.7660   16.2065 H   0  0  0  0  0  0  0  0  0  0  0  0
   52.2435   12.0040   17.5679 H   0  0  0  0  0  0  0  0  0  0  0  0
   49.2561    9.3517   10.6884 H   0  0  0  0  0  0  0  0  0  0  0  0
   51.2385    8.2367   11.5789 H   0  0  0  0  0  0  0  0  0  0  0  0
   46.3167    9.5794   12.4561 H   0  0  0  0  0  0  0  0  0  0  0  0
   51.6855    7.6822   14.9428 H   0  0  0  0  0  0  0  0  0  0  0  0
  2  4  1  0
  3  1  1  0
  4  3  2  0
  5  1  2  0
  6  2  2  0
  7  1  1  0
  8  2  1  0
 10  9  1  0
 11 14  1  0
 12  9  1  0
 13 10  2  0
 14 12  2  0
 15 10  1  0
 16 27  1  0
 17 22  1  0
 18 13  1  0
 19  9  1  0
 20 15  2  0
 21 23  1  0
 22 24  1  0
 23 16  1  0
 24 16  1  0
 25 19  1  0
 26 20  1  0
 27 25  1  0
 28 20  1  0
 29 12  1  0
 30 14  1  0
 31 17  1  0
 32 29  2  0
 33 30  2  0
 11 13  1  0
 32 33  1  0
 26 18  2  0
 17 21  1  0
 35 37  1  0
 36 34  1  0
 37 36  2  0
 38 34  2  0
 39 35  2  0
 40 34  1  0
 41 35  1  0
  3 42  1  0
  4 43  1  0
  7 44  1  0
  8 45  1  0
 15 46  1  0
 18 47  1  0
 19 48  1  0
 19 49  1  0
 21 50  1  0
 21 51  1  0
 22 52  1  0
 22 53  1  0
 23 54  1  0
 23 55  1  0
 24 56  1  0
 24 57  1  0
 25 58  1  0
 25 59  1  0
 26 60  1  0
 27 61  1  0
 27 62  1  0
 29 63  1  0
 30 64  1  0
 31 65  1  0
 31 66  1  0
 31 67  1  0
 32 68  1  0
 33 69  1  0
 36 70  1  0
 37 71  1  0
 40 72  1  0
 41 73  1  0
M  END
> <Uni-Dock RESULT> 
ENERGY=   -4.249  LOWER_BOUND=    2.825  UPPER_BOUND=    6.112
INTER + INTRA:          -4.249
INTER:                  -4.249
INTRA:                   0.000
UNBOUND:                 0.000

$$$$

     RDKit          3D

 73 74  0  0  0  0  0  0  0  0999 V2000
   48.6225    9.5171   19.7940 C   0  0  0  0  0  0  0  0  0  0  0  0
   50.7636    8.3204   18.0616 C   0  0  0  0  0  0  0  0  0  0  0  0
   48.4369    9.1179   18.3970 C   0  0  0  0  0  0  0  0  0  0  0  0
   49.3761    8.5431   17.6340 C   0  0  0  0  0  0  0  0  0  0  0  0
   48.2814   10.5852   20.2651 O   0  0  0  0  0  0  0  0  0  0  0  0
   51.3866    8.9052   18.9244 O   0  0  0  0  0  0  0  0  0  0  0  0
   49.1024    8.5133   20.5418 O   0  0  0  0  0  0  0  0  0  0  0  0
   51.3173    7.3577   17.3069 O   0  0  0  0  0  0  0  0  0  0  0  0
   47.5912    8.7912   19.8553 N   0  0  0  0  0  0  0  0  0  0  0  0
   47.5214   10.2098   20.0541 C   0  0  0  0  0  0  0  0  0  0  0  0
   47.6731    9.8500   22.8432 S   0  0  0  0  0  0  0  0  0  0  0  0
   47.6659    7.8122   20.8950 C   0  0  0  0  0  0  0  0  0  0  0  0
   47.5501   10.7832   21.3427 C   0  0  0  0  0  0  0  0  0  0  0  0
   47.7012    8.1763   22.2579 C   0  0  0  0  0  0  0  0  0  0  0  0
   47.4183   11.1261   18.9788 C   0  0  0  0  0  0  0  0  0  0  0  0
   51.2833    7.4978   17.5990 N   0  0  0  0  0  0  0  0  0  0  0  0
   52.7273    8.8329   15.2929 N   0  0  0  0  0  0  0  0  0  0  0  0
   47.4821   12.1815   21.5266 C   0  0  0  0  0  0  0  0  0  0  0  0
   47.5592    8.3147   18.4493 C   0  0  0  0  0  0  0  0  0  0  0  0
   47.3526   12.5113   19.1711 C   0  0  0  0  0  0  0  0  0  0  0  0
   52.5774    7.3730   15.4689 C   0  0  0  0  0  0  0  0  0  0  0  0
   52.1382    9.5806   16.4226 C   0  0  0  0  0  0  0  0  0  0  0  0
   51.2796    6.9975   16.2158 C   0  0  0  0  0  0  0  0  0  0  0  0
   51.9964    8.7788   17.7376 C   0  0  0  0  0  0  0  0  0  0  0  0
   48.9193    8.4375   17.7399 C   0  0  0  0  0  0  0  0  0  0  0  0
   47.3838   13.0464   20.4446 C   0  0  0  0  0  0  0  0  0  0  0  0
   49.9746    7.4518   18.2592 C   0  0  0  0  0  0  0  0  0  0  0  0
   47.2351   13.5585   17.8092 Cl  0  0  0  0  0  0  0  0  0  0  0  0
   47.7136    6.4204   20.6410 C   0  0  0  0  0  0  0  0  0  0  0  0
   47.7716    7.2036   23.2791 C   0  0  0  0  0  0  0  0  0  0  0  0
   54.1304    9.1795   15.0844 C   0  0  0  0  0  0  0  0  0  0  0  0
   47.7847    5.4572   21.6579 C   0  0  0  0  0  0  0  0  0  0  0  0
   47.8119    5.8489   22.9823 C   0  0  0  0  0  0  0  0  0  0  0  0
   49.7190    7.7227   17.5840 C   0  0  0  0  0  0  0  0  0  0  0  0
   49.9195    9.3355   20.0680 C   0  0  0  0  0  0  0  0  0  0  0  0
   48.9592    8.9544   17.8205 C   0  0  0  0  0  0  0  0  0  0  0  0
   49.0006    9.6435   18.9676 C   0  0  0  0  0  0  0  0  0  0  0  0
   49.9488    6.8317   18.3761 O   0  0  0  0  0  0  0  0  0  0  0  0
   51.0725    8.9640   19.9867 O   0  0  0  0  0  0  0  0  0  0  0  0
   50.1037    7.6661   16.3000 O   0  0  0  0  0  0  0  0  0  0  0  0
   49.3199    9.5818   21.2426 O   0  0  0  0  0  0  0  0  0  0  0  0
   47.4566    9.3391   17.9928 H   0  0  0  0  0  0  0  0  0  0  0  0
   49.1443    8.2469   16.6175 H   0  0  0  0  0  0  0  0  0  0  0  0
   49.2121    8.9095   21.4304 H   0  0  0  0  0  0  0  0  0  0  0  0
   52.2281    7.2808   17.6605 H   0  0  0  0  0  0  0  0  0  0  0  0
   47.3909   10.7959   17.9467 H   0  0  0  0  0  0  0  0  0  0  0  0
   47.5061   12.6046   22.5299 H   0  0  0  0  0  0  0  0  0  0  0  0
   46.8016    8.8720   17.8840 H   0  0  0  0  0  0  0  0  0  0  0  0
   47.1777    7.2970   18.3374 H   0  0  0  0  0  0  0  0  0  0  0  0
   52.5723    6.8998   14.4801 H   0  0  0  0  0  0  0  0  0  0  0  0
   53.4281    6.9516   16.0225 H   0  0  0  0  0  0  0  0  0  0  0  0
   52.6905   10.5083   16.6190 H   0  0  0  0  0  0  0  0  0  0  0  0
   51.1366    9.9006   16.1076 H   0  0  0  0  0  0  0  0  0  0  0  0
   50.4310    7.3865   15.6416 H   0  0  0  0  0  0  0  0  0  0  0  0
   51.1825    5.9057   16.2342 H   0  0  0  0  0  0  0  0  0  0  0  0
   51.5441    9.4149   18.5082 H   0  0  0  0  0  0  0  0  0  0  0  0
   53.0048    8.5501   18.1063 H   0  0  0  0  0  0  0  0  0  0  0  0
   49.2999    9.4598   17.8234 H   0  0  0  0  0  0  0  0  0  0  0  0
   48.7417    8.2590   16.6735 H   0  0  0  0  0  0  0  0  0  0  0  0
   47.3331   14.1192   20.6048 H   0  0  0  0  0  0  0  0  0  0  0  0
   50.1400    7.6237   19.3290 H   0  0  0  0  0  0  0  0  0  0  0  0
   49.5860    6.4293   18.1788 H   0  0  0  0  0  0  0  0  0  0  0  0
   47.7091    6.0101   19.6390 H   0  0  0  0  0  0  0  0  0  0  0  0
   47.7975    7.5067   24.3244 H   0  0  0  0  0  0  0  0  0  0  0  0
   54.7462    8.9610   15.9643 H   0  0  0  0  0  0  0  0  0  0  0  0
   54.5402    8.6299   14.2296 H   0  0  0  0  0  0  0  0  0  0  0  0
   54.2312   10.2449   14.8490 H   0  0  0  0  0  0  0  0  0  0  0  0
   47.8213    4.4011   21.4015 H   0  0  0  0  0  0  0  0  0  0  0  0
   47.8677    5.1120   23.7781 H   0  0  0  0  0  0  0  0  0  0  0  0
   48.3127    9.2698   17.0105 H   0  0  0  0  0  0  0  0  0  0  0  0
   48.3625   10.5061   19.1166 H   0  0  0  0  0  0  0  0  0  0  0  0
   50.6092    6.8277   16.2498 H   0  0  0  0  0  0  0  0  0  0  0  0
   50.0003    9.3329   21.9031 H   0  0  0  0  0  0  0  0  0  0  0  0
  2  4  1  0
  3  1  1  0
  4  3  2  0
  5  1  2  0
  6  2  2  0
  7  1  1  0
  8  2  1  0
 10  9  1  0
 11 14  1  0
 12  9  1  0
 13 10  2  0
 14 12  2  0
 15 10  1  0
 16 27  1  0
 17 22  1  0
 18 13  1  0
 19  9  1  0
 20 15  2  0
 21 23  1  0
 22 24  1  0
 23 16  1  0
 24 16  1  0
 25 19  1  0
 26 20  1  0
 27 25  1  0
 28 20  1  0
 29 12  1  0
 30 14  1  0
 31 17  1  0
 32 29  2  0
 33 30  2  0
 11 13  1  0
 32 33  1  0
 26 18  2  0
 17 21  1  0
 35 37  1  0
 36 34  1  0
 37 36  2  0
 38 34  2  0
 39 35  2  0
 40 34  1  0
 41 35  1  0
  3 42  1  0
  4 43  1  0
  7 44  1  0
  8 45  1  0
 15 46  1  0
 18 47  1  0
 19 48  1  0
 19 49  1  0
 21 50  1  0
 21 51  1  0
 22 52  1  0
 22 53  1  0
 23 54  1  0
 23 55  1  0
 24 56  1  0
 24 57  1  0
 25 58  1  0
 25 59  1  0
 26 60  1  0
 27 61  1  0
 27 62  1  0
 29 63  1  0
 30 64  1  0
 31 65  1  0
 31 66  1  0
 31 67  1  0
 32 68  1  0
 33 69  1  0
 36 70  1  0
 37 71  1  0
 40 72  1  0
 41 73  1  0
M  END
> <Uni-Dock RESULT> 
ENERGY=   -4.111  LOWER_BOUND=    4.591  UPPER_BOUND=    6.436
INTER + INTRA:          -4.111
INTER:                  -4.111
INTRA:                   0.000
UNBOUND:                 0.000

$$$$
