
     RDKit          3D

 73 74  0  0  0  0  0  0  0  0999 V2000
   49.6520    8.9028   13.4660 C   0  0  0  0  0  0  0  0  0  0  0  0
   47.0810    7.4423   12.6551 C   0  0  0  0  0  0  0  0  0  0  0  0
   48.6920    8.2741   14.3777 C   0  0  0  0  0  0  0  0  0  0  0  0
   47.5490    7.6701   14.0252 C   0  0  0  0  0  0  0  0  0  0  0  0
   50.8590    8.8994   13.6228 O   0  0  0  0  0  0  0  0  0  0  0  0
   45.9152    7.4800   12.3072 O   0  0  0  0  0  0  0  0  0  0  0  0
   49.0605    9.6072   12.4902 O   0  0  0  0  0  0  0  0  0  0  0  0
   48.0614    7.0542   11.8266 O   0  0  0  0  0  0  0  0  0  0  0  0
   46.2348    7.9226   12.4165 N   0  0  0  0  0  0  0  0  0  0  0  0
   45.3333    8.9003   11.9037 C   0  0  0  0  0  0  0  0  0  0  0  0
   43.5322    6.8609   11.1838 S   0  0  0  0  0  0  0  0  0  0  0  0
   45.9343    6.5415   12.6137 C   0  0  0  0  0  0  0  0  0  0  0  0
   44.0871    8.5398   11.3487 C   0  0  0  0  0  0  0  0  0  0  0  0
   44.7439    5.9655   12.1253 C   0  0  0  0  0  0  0  0  0  0  0  0
   45.6209   10.2839   11.9442 C   0  0  0  0  0  0  0  0  0  0  0  0
   50.2780    8.3775   14.3020 N   0  0  0  0  0  0  0  0  0  0  0  0
   53.2799    8.1151   13.8944 N   0  0  0  0  0  0  0  0  0  0  0  0
   43.1995    9.5169   10.8532 C   0  0  0  0  0  0  0  0  0  0  0  0
   47.6353    8.3461   12.6664 C   0  0  0  0  0  0  0  0  0  0  0  0
   44.7326   11.2459   11.4521 C   0  0  0  0  0  0  0  0  0  0  0  0
   52.5675    7.7288   15.1280 C   0  0  0  0  0  0  0  0  0  0  0  0
   52.4008    8.8521   12.9684 C   0  0  0  0  0  0  0  0  0  0  0  0
   51.2708    8.5270   15.3872 C   0  0  0  0  0  0  0  0  0  0  0  0
   50.9439    8.3342   12.9802 C   0  0  0  0  0  0  0  0  0  0  0  0
   47.8303    8.8272   14.1084 C   0  0  0  0  0  0  0  0  0  0  0  0
   43.5197   10.8685   10.9032 C   0  0  0  0  0  0  0  0  0  0  0  0
   49.2252    9.3944   14.4002 C   0  0  0  0  0  0  0  0  0  0  0  0
   45.1497   12.9144   11.5351 Cl  0  0  0  0  0  0  0  0  0  0  0  0
   46.7955    5.6755   13.3275 C   0  0  0  0  0  0  0  0  0  0  0  0
   44.4554    4.6017   12.3359 C   0  0  0  0  0  0  0  0  0  0  0  0
   54.4926    8.8768   14.1753 C   0  0  0  0  0  0  0  0  0  0  0  0
   46.5037    4.3217   13.5361 C   0  0  0  0  0  0  0  0  0  0  0  0
   45.3306    3.7821   13.0381 C   0  0  0  0  0  0  0  0  0  0  0  0
   49.8526    8.3259   13.3960 C   0  0  0  0  0  0  0  0  0  0  0  0
   46.8401    7.8550   13.0945 C   0  0  0  0  0  0  0  0  0  0  0  0
   48.9895    8.9004   12.3601 C   0  0  0  0  0  0  0  0  0  0  0  0
   47.6653    8.7252   12.2521 C   0  0  0  0  0  0  0  0  0  0  0  0
   50.9969    7.9534   13.2150 O   0  0  0  0  0  0  0  0  0  0  0  0
   45.6990    8.1035   13.4370 O   0  0  0  0  0  0  0  0  0  0  0  0
   49.2993    8.3662   14.6169 O   0  0  0  0  0  0  0  0  0  0  0  0
   47.4232    6.6758   13.3547 O   0  0  0  0  0  0  0  0  0  0  0  0
   48.9782    8.3262   15.4221 H   0  0  0  0  0  0  0  0  0  0  0  0
   46.8733    7.3005   14.7880 H   0  0  0  0  0  0  0  0  0  0  0  0
   49.8107    9.9868   11.9880 H   0  0  0  0  0  0  0  0  0  0  0  0
   47.6035    6.9130   10.9725 H   0  0  0  0  0  0  0  0  0  0  0  0
   46.5418   10.6557   12.3788 H   0  0  0  0  0  0  0  0  0  0  0  0
   42.2448    9.2217   10.4210 H   0  0  0  0  0  0  0  0  0  0  0  0
   47.9368    9.1303   11.9605 H   0  0  0  0  0  0  0  0  0  0  0  0
   48.3291    7.5333   12.4235 H   0  0  0  0  0  0  0  0  0  0  0  0
   53.2191    7.7996   16.0079 H   0  0  0  0  0  0  0  0  0  0  0  0
   52.3081    6.6659   15.0379 H   0  0  0  0  0  0  0  0  0  0  0  0
   52.8021    8.7597   11.9522 H   0  0  0  0  0  0  0  0  0  0  0  0
   52.3846    9.9236   13.2114 H   0  0  0  0  0  0  0  0  0  0  0  0
   51.5360    9.5838   15.5302 H   0  0  0  0  0  0  0  0  0  0  0  0
   50.8225    8.1755   16.3242 H   0  0  0  0  0  0  0  0  0  0  0  0
   50.3754    8.8812   12.2192 H   0  0  0  0  0  0  0  0  0  0  0  0
   50.9476    7.2863   12.6531 H   0  0  0  0  0  0  0  0  0  0  0  0
   47.0958    9.6067   14.3438 H   0  0  0  0  0  0  0  0  0  0  0  0
   47.6189    8.0164   14.8155 H   0  0  0  0  0  0  0  0  0  0  0  0
   42.8243   11.6084   10.5184 H   0  0  0  0  0  0  0  0  0  0  0  0
   49.1775    9.7830   15.4269 H   0  0  0  0  0  0  0  0  0  0  0  0
   49.4373   10.2647   13.7664 H   0  0  0  0  0  0  0  0  0  0  0  0
   47.7256    6.0272   13.7640 H   0  0  0  0  0  0  0  0  0  0  0  0
   43.5357    4.1696   11.9461 H   0  0  0  0  0  0  0  0  0  0  0  0
   55.1882    8.2825   14.7781 H   0  0  0  0  0  0  0  0  0  0  0  0
   54.2800    9.8086   14.7116 H   0  0  0  0  0  0  0  0  0  0  0  0
   55.0163    9.1246   13.2452 H   0  0  0  0  0  0  0  0  0  0  0  0
   47.1991    3.6986   14.0927 H   0  0  0  0  0  0  0  0  0  0  0  0
   45.0954    2.7334   13.1941 H   0  0  0  0  0  0  0  0  0  0  0  0
   49.5167    9.5128   11.6376 H   0  0  0  0  0  0  0  0  0  0  0  0
   47.1082    9.2558   11.4884 H   0  0  0  0  0  0  0  0  0  0  0  0
   49.9883    7.9844   15.1988 H   0  0  0  0  0  0  0  0  0  0  0  0
   46.7566    6.1983   13.8901 H   0  0  0  0  0  0  0  0  0  0  0  0
  2  4  1  0
  3  1  1  0
  4  3  2  0
  5  1  2  0
  6  2  2  0
  7  1  1  0
  8  2  1  0
 10  9  1  0
 11 14  1  0
 12  9  1  0
 13 10  2  0
 14 12  2  0
 15 10  1  0
 16 27  1  0
 17 22  1  0
 18 13  1  0
 19  9  1  0
 20 15  2  0
 21 23  1  0
 22 24  1  0
 23 16  1  0
 24 16  1  0
 25 19  1  0
 26 20  1  0
 27 25  1  0
 28 20  1  0
 29 12  1  0
 30 14  1  0
 31 17  1  0
 32 29  2  0
 33 30  2  0
 11 13  1  0
 32 33  1  0
 26 18  2  0
 17 21  1  0
 35 37  1  0
 36 34  1  0
 37 36  2  0
 38 34  2  0
 39 35  2  0
 40 34  1  0
 41 35  1  0
  3 42  1  0
  4 43  1  0
  7 44  1  0
  8 45  1  0
 15 46  1  0
 18 47  1  0
 19 48  1  0
 19 49  1  0
 21 50  1  0
 21 51  1  0
 22 52  1  0
 22 53  1  0
 23 54  1  0
 23 55  1  0
 24 56  1  0
 24 57  1  0
 25 58  1  0
 25 59  1  0
 26 60  1  0
 27 61  1  0
 27 62  1  0
 29 63  1  0
 30 64  1  0
 31 65  1  0
 31 66  1  0
 31 67  1  0
 32 68  1  0
 33 69  1  0
 36 70  1  0
 37 71  1  0
 40 72  1  0
 41 73  1  0
M  END
> <Uni-Dock RESULT> 
ENERGY=   -5.518  LOWER_BOUND=    0.000  UPPER_BOUND=    0.000
INTER + INTRA:          -5.518
INTER:                  -5.518
INTRA:                   0.000
UNBOUND:                 0.000

$$$$

     RDKit          3D

 73 74  0  0  0  0  0  0  0  0999 V2000
   48.4461   10.3699   12.5700 C   0  0  0  0  0  0  0  0  0  0  0  0
   47.4414    7.5707   13.3155 C   0  0  0  0  0  0  0  0  0  0  0  0
   48.6682    9.1404   11.8037 C   0  0  0  0  0  0  0  0  0  0  0  0
   48.2623    7.9112   12.1501 C   0  0  0  0  0  0  0  0  0  0  0  0
   48.2422   11.4642   12.0778 O   0  0  0  0  0  0  0  0  0  0  0  0
   47.5587    6.5510   13.9698 O   0  0  0  0  0  0  0  0  0  0  0  0
   48.6186   10.2008   13.8890 O   0  0  0  0  0  0  0  0  0  0  0  0
   46.4438    8.4421   13.5236 O   0  0  0  0  0  0  0  0  0  0  0  0
   47.8977    6.9919   13.9942 N   0  0  0  0  0  0  0  0  0  0  0  0
   48.6165    6.5760   15.1526 C   0  0  0  0  0  0  0  0  0  0  0  0
   47.0138    4.2683   15.3176 S   0  0  0  0  0  0  0  0  0  0  0  0
   46.9684    6.1916   13.2645 C   0  0  0  0  0  0  0  0  0  0  0  0
   48.3199    5.3650   15.8131 C   0  0  0  0  0  0  0  0  0  0  0  0
   46.5219    4.9461   13.7508 C   0  0  0  0  0  0  0  0  0  0  0  0
   49.6810    7.3351   15.6906 C   0  0  0  0  0  0  0  0  0  0  0  0
   48.3327   10.6530   11.4414 N   0  0  0  0  0  0  0  0  0  0  0  0
   47.1856   13.3846   10.7566 N   0  0  0  0  0  0  0  0  0  0  0  0
   49.0443    4.9595   16.9528 C   0  0  0  0  0  0  0  0  0  0  0  0
   48.0414    8.4070   13.5699 C   0  0  0  0  0  0  0  0  0  0  0  0
   50.3953    6.9231   16.8205 C   0  0  0  0  0  0  0  0  0  0  0  0
   47.7193   12.4304    9.7651 C   0  0  0  0  0  0  0  0  0  0  0  0
   47.4798   12.9552   12.1359 C   0  0  0  0  0  0  0  0  0  0  0  0
   48.8102   11.4865   10.3176 C   0  0  0  0  0  0  0  0  0  0  0  0
   47.4168   11.4207   12.3156 C   0  0  0  0  0  0  0  0  0  0  0  0
   49.1698    8.5774   12.5469 C   0  0  0  0  0  0  0  0  0  0  0  0
   50.0805    5.7360   17.4580 C   0  0  0  0  0  0  0  0  0  0  0  0
   49.4531   10.0339   12.1580 C   0  0  0  0  0  0  0  0  0  0  0  0
   51.6810    7.8991   17.4201 Cl  0  0  0  0  0  0  0  0  0  0  0  0
   46.4587    6.5850   12.0048 C   0  0  0  0  0  0  0  0  0  0  0  0
   45.6108    4.1614   13.0147 C   0  0  0  0  0  0  0  0  0  0  0  0
   47.6623   14.7440   10.5236 C   0  0  0  0  0  0  0  0  0  0  0  0
   45.5554    5.8011   11.2761 C   0  0  0  0  0  0  0  0  0  0  0  0
   45.1288    4.5859   11.7824 C   0  0  0  0  0  0  0  0  0  0  0  0
   47.8971   10.3563   12.2937 C   0  0  0  0  0  0  0  0  0  0  0  0
   48.0703    7.4408   13.2200 C   0  0  0  0  0  0  0  0  0  0  0  0
   47.9969    9.8971   13.6820 C   0  0  0  0  0  0  0  0  0  0  0  0
   48.1120    8.6240   14.0839 C   0  0  0  0  0  0  0  0  0  0  0  0
   47.2270   11.3027   11.9245 O   0  0  0  0  0  0  0  0  0  0  0  0
   48.7284    6.4323   13.3957 O   0  0  0  0  0  0  0  0  0  0  0  0
   48.7285    9.7044   11.4680 O   0  0  0  0  0  0  0  0  0  0  0  0
   47.1274    7.5220   12.2700 O   0  0  0  0  0  0  0  0  0  0  0  0
   49.2131    9.2910   10.8786 H   0  0  0  0  0  0  0  0  0  0  0  0
   48.5434    7.0567   11.5451 H   0  0  0  0  0  0  0  0  0  0  0  0
   48.4704   11.0947   14.2607 H   0  0  0  0  0  0  0  0  0  0  0  0
   45.9722    8.0765   14.3002 H   0  0  0  0  0  0  0  0  0  0  0  0
   49.9982    8.2650   15.2324 H   0  0  0  0  0  0  0  0  0  0  0  0
   48.7980    4.0258   17.4556 H   0  0  0  0  0  0  0  0  0  0  0  0
   48.2133    9.0578   14.4366 H   0  0  0  0  0  0  0  0  0  0  0  0
   47.0911    8.7863   13.1773 H   0  0  0  0  0  0  0  0  0  0  0  0
   48.1025   12.9463    8.8758 H   0  0  0  0  0  0  0  0  0  0  0  0
   46.8785   11.8192    9.4122 H   0  0  0  0  0  0  0  0  0  0  0  0
   46.7545   13.4218   12.8130 H   0  0  0  0  0  0  0  0  0  0  0  0
   48.4767   13.2953   12.4488 H   0  0  0  0  0  0  0  0  0  0  0  0
   49.6737   12.0942   10.6222 H   0  0  0  0  0  0  0  0  0  0  0  0
   49.1470   10.8267    9.5092 H   0  0  0  0  0  0  0  0  0  0  0  0
   47.5749   11.1889   13.3751 H   0  0  0  0  0  0  0  0  0  0  0  0
   46.3959   11.0882   12.0872 H   0  0  0  0  0  0  0  0  0  0  0  0
   50.0989    8.1496   12.9421 H   0  0  0  0  0  0  0  0  0  0  0  0
   48.9559    8.0002   11.6397 H   0  0  0  0  0  0  0  0  0  0  0  0
   50.6294    5.4086   18.3359 H   0  0  0  0  0  0  0  0  0  0  0  0
   50.3378    9.9994   11.5073 H   0  0  0  0  0  0  0  0  0  0  0  0
   49.7547   10.6238   13.0326 H   0  0  0  0  0  0  0  0  0  0  0  0
   46.7587    7.5158   11.5327 H   0  0  0  0  0  0  0  0  0  0  0  0
   45.2694    3.2053   13.4068 H   0  0  0  0  0  0  0  0  0  0  0  0
   47.3495   15.0963    9.5344 H   0  0  0  0  0  0  0  0  0  0  0  0
   48.7541   14.8151   10.5861 H   0  0  0  0  0  0  0  0  0  0  0  0
   47.2281   15.4354   11.2545 H   0  0  0  0  0  0  0  0  0  0  0  0
   45.1942    6.1487   10.3115 H   0  0  0  0  0  0  0  0  0  0  0  0
   44.4281    3.9709   11.2253 H   0  0  0  0  0  0  0  0  0  0  0  0
   47.9681   10.6967   14.4133 H   0  0  0  0  0  0  0  0  0  0  0  0
   48.2528    8.3972   15.1347 H   0  0  0  0  0  0  0  0  0  0  0  0
   48.5765   10.1298   10.5990 H   0  0  0  0  0  0  0  0  0  0  0  0
   47.1953    6.6659   11.7993 H   0  0  0  0  0  0  0  0  0  0  0  0
  2  4  1  0
  3  1  1  0
  4  3  2  0
  5  1  2  0
  6  2  2  0
  7  1  1  0
  8  2  1  0
 10  9  1  0
 11 14  1  0
 12  9  1  0
 13 10  2  0
 14 12  2  0
 15 10  1  0
 16 27  1  0
 17 22  1  0
 18 13  1  0
 19  9  1  0
 20 15  2  0
 21 23  1  0
 22 24  1  0
 23 16  1  0
 24 16  1  0
 25 19  1  0
 26 20  1  0
 27 25  1  0
 28 20  1  0
 29 12  1  0
 30 14  1  0
 31 17  1  0
 32 29  2  0
 33 30  2  0
 11 13  1  0
 32 33  1  0
 26 18  2  0
 17 21  1  0
 35 37  1  0
 36 34  1  0
 37 36  2  0
 38 34  2  0
 39 35  2  0
 40 34  1  0
 41 35  1  0
  3 42  1  0
  4 43  1  0
  7 44  1  0
  8 45  1  0
 15 46  1  0
 18 47  1  0
 19 48  1  0
 19 49  1  0
 21 50  1  0
 21 51  1  0
 22 52  1  0
 22 53  1  0
 23 54  1  0
 23 55  1  0
 24 56  1  0
 24 57  1  0
 25 58  1  0
 25 59  1  0
 26 60  1  0
 27 61  1  0
 27 62  1  0
 29 63  1  0
 30 64  1  0
 31 65  1  0
 31 66  1  0
 31 67  1  0
 32 68  1  0
 33 69  1  0
 36 70  1  0
 37 71  1  0
 40 72  1  0
 41 73  1  0
M  END
> <Uni-Dock RESULT> 
ENERGY=   -5.229  LOWER_BOUND=    2.873  UPPER_BOUND=    5.089
INTER + INTRA:          -5.229
INTER:                  -5.229
INTRA:                   0.000
UNBOUND:                 0.000

$$$$

     RDKit          3D

 73 74  0  0  0  0  0  0  0  0999 V2000
   49.1281    7.5095   14.0340 C   0  0  0  0  0  0  0  0  0  0  0  0
   46.5437    8.5668   12.7676 C   0  0  0  0  0  0  0  0  0  0  0  0
   49.0004    8.1031   12.7000 C   0  0  0  0  0  0  0  0  0  0  0  0
   47.8639    8.5291   12.1321 C   0  0  0  0  0  0  0  0  0  0  0  0
   50.0796    7.6726   14.7753 O   0  0  0  0  0  0  0  0  0  0  0  0
   45.4925    8.3564   12.1912 O   0  0  0  0  0  0  0  0  0  0  0  0
   48.1400    6.6490   14.3190 O   0  0  0  0  0  0  0  0  0  0  0  0
   46.5888    8.9883   14.0397 O   0  0  0  0  0  0  0  0  0  0  0  0
   45.8595    7.9678   12.3471 N   0  0  0  0  0  0  0  0  0  0  0  0
   45.0208    6.8444   12.0900 C   0  0  0  0  0  0  0  0  0  0  0  0
   42.9490    8.5747   11.2931 S   0  0  0  0  0  0  0  0  0  0  0  0
   45.5771    9.3154   11.9718 C   0  0  0  0  0  0  0  0  0  0  0  0
   43.7078    6.9980   11.5967 C   0  0  0  0  0  0  0  0  0  0  0  0
   44.3168    9.6950   11.4671 C   0  0  0  0  0  0  0  0  0  0  0  0
   45.4609    5.5156   12.2880 C   0  0  0  0  0  0  0  0  0  0  0  0
   50.0699    8.1839   13.8754 N   0  0  0  0  0  0  0  0  0  0  0  0
   51.8394    8.7639   16.2793 N   0  0  0  0  0  0  0  0  0  0  0  0
   42.8906    5.8786   11.3372 C   0  0  0  0  0  0  0  0  0  0  0  0
   47.0763    7.7412   13.1664 C   0  0  0  0  0  0  0  0  0  0  0  0
   44.6434    4.4113   12.0253 C   0  0  0  0  0  0  0  0  0  0  0  0
   52.1466    9.1786   14.8965 C   0  0  0  0  0  0  0  0  0  0  0  0
   50.6904    7.8415   16.3264 C   0  0  0  0  0  0  0  0  0  0  0  0
   51.5449    8.2592   13.8108 C   0  0  0  0  0  0  0  0  0  0  0  0
   49.6029    8.1797   15.2805 C   0  0  0  0  0  0  0  0  0  0  0  0
   48.2950    7.4275   12.2915 C   0  0  0  0  0  0  0  0  0  0  0  0
   43.3554    4.5862   11.5510 C   0  0  0  0  0  0  0  0  0  0  0  0
   49.5592    7.0622   13.0797 C   0  0  0  0  0  0  0  0  0  0  0  0
   45.2471    2.8205   12.2895 Cl  0  0  0  0  0  0  0  0  0  0  0  0
   46.5455   10.3428   12.0600 C   0  0  0  0  0  0  0  0  0  0  0  0
   44.0547   11.0283   11.0912 C   0  0  0  0  0  0  0  0  0  0  0  0
   52.9984    8.1836   16.9498 C   0  0  0  0  0  0  0  0  0  0  0  0
   46.2813   11.6656   11.6833 C   0  0  0  0  0  0  0  0  0  0  0  0
   45.0319   12.0104   11.1982 C   0  0  0  0  0  0  0  0  0  0  0  0
   49.1312    8.0969   14.2154 C   0  0  0  0  0  0  0  0  0  0  0  0
   46.7461    8.1722   12.2934 C   0  0  0  0  0  0  0  0  0  0  0  0
   47.8916    7.3265   14.3488 C   0  0  0  0  0  0  0  0  0  0  0  0
   46.8652    7.3305   13.4872 C   0  0  0  0  0  0  0  0  0  0  0  0
   49.7461    8.5848   15.1453 O   0  0  0  0  0  0  0  0  0  0  0  0
   46.2274    7.8227   11.2494 O   0  0  0  0  0  0  0  0  0  0  0  0
   49.6056    8.1079   12.9612 O   0  0  0  0  0  0  0  0  0  0  0  0
   47.1552    9.4323   12.5010 O   0  0  0  0  0  0  0  0  0  0  0  0
   49.9389    8.1861   12.1638 H   0  0  0  0  0  0  0  0  0  0  0  0
   47.8698    8.8866   11.1087 H   0  0  0  0  0  0  0  0  0  0  0  0
   48.3700    6.3157   15.2106 H   0  0  0  0  0  0  0  0  0  0  0  0
   45.6500    8.9910   14.3186 H   0  0  0  0  0  0  0  0  0  0  0  0
   46.4644    5.3003   12.6370 H   0  0  0  0  0  0  0  0  0  0  0  0
   41.8770    6.0144   10.9640 H   0  0  0  0  0  0  0  0  0  0  0  0
   46.9124    6.9347   13.8922 H   0  0  0  0  0  0  0  0  0  0  0  0
   47.2665    8.6043   13.8145 H   0  0  0  0  0  0  0  0  0  0  0  0
   53.2280    9.2711   14.7350 H   0  0  0  0  0  0  0  0  0  0  0  0
   51.7404   10.1891   14.7590 H   0  0  0  0  0  0  0  0  0  0  0  0
   50.2451    7.8834   17.3276 H   0  0  0  0  0  0  0  0  0  0  0  0
   51.0126    6.8040   16.1612 H   0  0  0  0  0  0  0  0  0  0  0  0
   51.9913    7.2605   13.9149 H   0  0  0  0  0  0  0  0  0  0  0  0
   51.8343    8.6426   12.8251 H   0  0  0  0  0  0  0  0  0  0  0  0
   48.7571    7.4981   15.4270 H   0  0  0  0  0  0  0  0  0  0  0  0
   49.2167    9.1843   15.4969 H   0  0  0  0  0  0  0  0  0  0  0  0
   48.0661    6.5917   11.6195 H   0  0  0  0  0  0  0  0  0  0  0  0
   48.5187    8.2711   11.6280 H   0  0  0  0  0  0  0  0  0  0  0  0
   42.7137    3.7348   11.3447 H   0  0  0  0  0  0  0  0  0  0  0  0
   50.3037    6.7709   12.3259 H   0  0  0  0  0  0  0  0  0  0  0  0
   49.3964    6.1669   13.6929 H   0  0  0  0  0  0  0  0  0  0  0  0
   47.5537   10.1487   12.4138 H   0  0  0  0  0  0  0  0  0  0  0  0
   43.0742   11.3076   10.7103 H   0  0  0  0  0  0  0  0  0  0  0  0
   53.8150    8.9120   17.0042 H   0  0  0  0  0  0  0  0  0  0  0  0
   53.3676    7.2888   16.4359 H   0  0  0  0  0  0  0  0  0  0  0  0
   52.7508    7.9123   17.9822 H   0  0  0  0  0  0  0  0  0  0  0  0
   47.0610   12.4181   11.7698 H   0  0  0  0  0  0  0  0  0  0  0  0
   44.8169   13.0335   10.9039 H   0  0  0  0  0  0  0  0  0  0  0  0
   47.8472    6.7153   15.2430 H   0  0  0  0  0  0  0  0  0  0  0  0
   46.0229    6.6661   13.6434 H   0  0  0  0  0  0  0  0  0  0  0  0
   50.4354    8.6236   13.0293 H   0  0  0  0  0  0  0  0  0  0  0  0
   46.9919    9.8755   11.6432 H   0  0  0  0  0  0  0  0  0  0  0  0
  2  4  1  0
  3  1  1  0
  4  3  2  0
  5  1  2  0
  6  2  2  0
  7  1  1  0
  8  2  1  0
 10  9  1  0
 11 14  1  0
 12  9  1  0
 13 10  2  0
 14 12  2  0
 15 10  1  0
 16 27  1  0
 17 22  1  0
 18 13  1  0
 19  9  1  0
 20 15  2  0
 21 23  1  0
 22 24  1  0
 23 16  1  0
 24 16  1  0
 25 19  1  0
 26 20  1  0
 27 25  1  0
 28 20  1  0
 29 12  1  0
 30 14  1  0
 31 17  1  0
 32 29  2  0
 33 30  2  0
 11 13  1  0
 32 33  1  0
 26 18  2  0
 17 21  1  0
 35 37  1  0
 36 34  1  0
 37 36  2  0
 38 34  2  0
 39 35  2  0
 40 34  1  0
 41 35  1  0
  3 42  1  0
  4 43  1  0
  7 44  1  0
  8 45  1  0
 15 46  1  0
 18 47  1  0
 19 48  1  0
 19 49  1  0
 21 50  1  0
 21 51  1  0
 22 52  1  0
 22 53  1  0
 23 54  1  0
 23 55  1  0
 24 56  1  0
 24 57  1  0
 25 58  1  0
 25 59  1  0
 26 60  1  0
 27 61  1  0
 27 62  1  0
 29 63  1  0
 30 64  1  0
 31 65  1  0
 31 66  1  0
 31 67  1  0
 32 68  1  0
 33 69  1  0
 36 70  1  0
 37 71  1  0
 40 72  1  0
 41 73  1  0
M  END
> <Uni-Dock RESULT> 
ENERGY=   -5.020  LOWER_BOUND=    2.026  UPPER_BOUND=    3.792
INTER + INTRA:          -5.020
INTER:                  -5.020
INTRA:                   0.000
UNBOUND:                 0.000

$$$$

     RDKit          3D

 73 74  0  0  0  0  0  0  0  0999 V2000
   46.7158    6.8884   13.0582 C   0  0  0  0  0  0  0  0  0  0  0  0
   49.6034    7.9191   13.0747 C   0  0  0  0  0  0  0  0  0  0  0  0
   47.3049    7.8216   12.0937 C   0  0  0  0  0  0  0  0  0  0  0  0
   48.5555    8.3018   12.1241 C   0  0  0  0  0  0  0  0  0  0  0  0
   45.9103    6.0203   12.7772 O   0  0  0  0  0  0  0  0  0  0  0  0
   50.4468    8.6773   13.5165 O   0  0  0  0  0  0  0  0  0  0  0  0
   47.0540    7.1657   14.3259 O   0  0  0  0  0  0  0  0  0  0  0  0
   49.6284    6.6012   13.3209 O   0  0  0  0  0  0  0  0  0  0  0  0
   49.9136    8.6582   13.6757 N   0  0  0  0  0  0  0  0  0  0  0  0
   50.0556    9.5091   14.8103 C   0  0  0  0  0  0  0  0  0  0  0  0
   52.8100    9.7498   14.2842 S   0  0  0  0  0  0  0  0  0  0  0  0
   50.9108    8.4320   12.6801 C   0  0  0  0  0  0  0  0  0  0  0  0
   51.3009   10.0708   15.1636 C   0  0  0  0  0  0  0  0  0  0  0  0
   52.2328    8.8954   12.8374 C   0  0  0  0  0  0  0  0  0  0  0  0
   48.9583    9.8602   15.6297 C   0  0  0  0  0  0  0  0  0  0  0  0
   46.3022    6.5892   12.0065 N   0  0  0  0  0  0  0  0  0  0  0  0
   44.8215    3.9460   11.7469 N   0  0  0  0  0  0  0  0  0  0  0  0
   51.4271   10.9188   16.2830 C   0  0  0  0  0  0  0  0  0  0  0  0
   48.6695    7.8553   13.5726 C   0  0  0  0  0  0  0  0  0  0  0  0
   49.0933   10.7044   16.7369 C   0  0  0  0  0  0  0  0  0  0  0  0
   44.9570    4.9375   10.6620 C   0  0  0  0  0  0  0  0  0  0  0  0
   45.2918    4.4847   13.0361 C   0  0  0  0  0  0  0  0  0  0  0  0
   45.1122    6.3945   11.1510 C   0  0  0  0  0  0  0  0  0  0  0  0
   46.5150    5.4190   12.8884 C   0  0  0  0  0  0  0  0  0  0  0  0
   47.5909    8.5873   12.7666 C   0  0  0  0  0  0  0  0  0  0  0  0
   50.3265   11.2361   17.0703 C   0  0  0  0  0  0  0  0  0  0  0  0
   46.2375    7.8666   12.7250 C   0  0  0  0  0  0  0  0  0  0  0  0
   47.7118   11.0894   17.6899 Cl  0  0  0  0  0  0  0  0  0  0  0  0
   50.6305    7.7538   11.4707 C   0  0  0  0  0  0  0  0  0  0  0  0
   53.2054    8.6732   11.8412 C   0  0  0  0  0  0  0  0  0  0  0  0
   43.4574    3.4405   11.8626 C   0  0  0  0  0  0  0  0  0  0  0  0
   51.5995    7.5372   10.4829 C   0  0  0  0  0  0  0  0  0  0  0  0
   52.8914    7.9972   10.6684 C   0  0  0  0  0  0  0  0  0  0  0  0
   47.0012    6.4665   12.7141 C   0  0  0  0  0  0  0  0  0  0  0  0
   49.2845    8.4835   13.0398 C   0  0  0  0  0  0  0  0  0  0  0  0
   47.6171    6.8747   13.9798 C   0  0  0  0  0  0  0  0  0  0  0  0
   48.5890    7.7858   14.1248 C   0  0  0  0  0  0  0  0  0  0  0  0
   46.6262    5.3370   12.4596 O   0  0  0  0  0  0  0  0  0  0  0  0
   49.6663    9.6379   13.0923 O   0  0  0  0  0  0  0  0  0  0  0  0
   46.7667    7.4993   11.8915 O   0  0  0  0  0  0  0  0  0  0  0  0
   49.5816    7.6791   12.0089 O   0  0  0  0  0  0  0  0  0  0  0  0
   46.6287    8.1195   11.3005 H   0  0  0  0  0  0  0  0  0  0  0  0
   48.8685    9.0460   11.4005 H   0  0  0  0  0  0  0  0  0  0  0  0
   46.5724    6.4923   14.8490 H   0  0  0  0  0  0  0  0  0  0  0  0
   50.3827    6.4926   13.9361 H   0  0  0  0  0  0  0  0  0  0  0  0
   47.9583    9.4992   15.4178 H   0  0  0  0  0  0  0  0  0  0  0  0
   52.3966   11.3380   16.5468 H   0  0  0  0  0  0  0  0  0  0  0  0
   48.2891    7.5972   14.5691 H   0  0  0  0  0  0  0  0  0  0  0  0
   48.8849    6.8708   13.1421 H   0  0  0  0  0  0  0  0  0  0  0  0
   44.1188    4.8791    9.9564 H   0  0  0  0  0  0  0  0  0  0  0  0
   45.8499    4.6696   10.0823 H   0  0  0  0  0  0  0  0  0  0  0  0
   45.5617    3.6476   13.6908 H   0  0  0  0  0  0  0  0  0  0  0  0
   44.4934    5.0445   13.5426 H   0  0  0  0  0  0  0  0  0  0  0  0
   44.1962    6.6809   11.6862 H   0  0  0  0  0  0  0  0  0  0  0  0
   45.1964    7.0519   10.2774 H   0  0  0  0  0  0  0  0  0  0  0  0
   46.8458    5.7180   13.8897 H   0  0  0  0  0  0  0  0  0  0  0  0
   47.3434    4.8382   12.4622 H   0  0  0  0  0  0  0  0  0  0  0  0
   47.4254    9.5865   13.1869 H   0  0  0  0  0  0  0  0  0  0  0  0
   47.9330    8.7651   11.7403 H   0  0  0  0  0  0  0  0  0  0  0  0
   50.4405   11.8920   17.9282 H   0  0  0  0  0  0  0  0  0  0  0  0
   45.5535    8.5519   12.2055 H   0  0  0  0  0  0  0  0  0  0  0  0
   45.8233    7.7473   13.7341 H   0  0  0  0  0  0  0  0  0  0  0  0
   49.6372    7.3785   11.2432 H   0  0  0  0  0  0  0  0  0  0  0  0
   54.2240    9.0304   11.9804 H   0  0  0  0  0  0  0  0  0  0  0  0
   43.1506    2.9475   10.9334 H   0  0  0  0  0  0  0  0  0  0  0  0
   42.7389    4.2379   12.0840 H   0  0  0  0  0  0  0  0  0  0  0  0
   43.3918    2.6859   12.6544 H   0  0  0  0  0  0  0  0  0  0  0  0
   51.3323    7.0107    9.5702 H   0  0  0  0  0  0  0  0  0  0  0  0
   53.6502    7.8339    9.9087 H   0  0  0  0  0  0  0  0  0  0  0  0
   47.2184    6.3633   14.8485 H   0  0  0  0  0  0  0  0  0  0  0  0
   48.9248    8.0680   15.1163 H   0  0  0  0  0  0  0  0  0  0  0  0
   46.3345    7.0869   11.1154 H   0  0  0  0  0  0  0  0  0  0  0  0
   50.0612    8.2638   11.3866 H   0  0  0  0  0  0  0  0  0  0  0  0
  2  4  1  0
  3  1  1  0
  4  3  2  0
  5  1  2  0
  6  2  2  0
  7  1  1  0
  8  2  1  0
 10  9  1  0
 11 14  1  0
 12  9  1  0
 13 10  2  0
 14 12  2  0
 15 10  1  0
 16 27  1  0
 17 22  1  0
 18 13  1  0
 19  9  1  0
 20 15  2  0
 21 23  1  0
 22 24  1  0
 23 16  1  0
 24 16  1  0
 25 19  1  0
 26 20  1  0
 27 25  1  0
 28 20  1  0
 29 12  1  0
 30 14  1  0
 31 17  1  0
 32 29  2  0
 33 30  2  0
 11 13  1  0
 32 33  1  0
 26 18  2  0
 17 21  1  0
 35 37  1  0
 36 34  1  0
 37 36  2  0
 38 34  2  0
 39 35  2  0
 40 34  1  0
 41 35  1  0
  3 42  1  0
  4 43  1  0
  7 44  1  0
  8 45  1  0
 15 46  1  0
 18 47  1  0
 19 48  1  0
 19 49  1  0
 21 50  1  0
 21 51  1  0
 22 52  1  0
 22 53  1  0
 23 54  1  0
 23 55  1  0
 24 56  1  0
 24 57  1  0
 25 58  1  0
 25 59  1  0
 26 60  1  0
 27 61  1  0
 27 62  1  0
 29 63  1  0
 30 64  1  0
 31 65  1  0
 31 66  1  0
 31 67  1  0
 32 68  1  0
 33 69  1  0
 36 70  1  0
 37 71  1  0
 40 72  1  0
 41 73  1  0
M  END
> <Uni-Dock RESULT> 
ENERGY=   -4.879  LOWER_BOUND=    2.567  UPPER_BOUND=    6.250
INTER + INTRA:          -4.879
INTER:                  -4.879
INTRA:                   0.000
UNBOUND:                 0.000

$$$$

     RDKit          3D

 73 74  0  0  0  0  0  0  0  0999 V2000
   47.0866    6.9371   12.6729 C   0  0  0  0  0  0  0  0  0  0  0  0
   48.5336    9.0266   14.3878 C   0  0  0  0  0  0  0  0  0  0  0  0
   47.8310    6.6748   13.9079 C   0  0  0  0  0  0  0  0  0  0  0  0
   48.4959    7.5825   14.6356 C   0  0  0  0  0  0  0  0  0  0  0  0
   46.0594    6.3692   12.3507 O   0  0  0  0  0  0  0  0  0  0  0  0
   49.5020    9.7370   14.5852 O   0  0  0  0  0  0  0  0  0  0  0  0
   47.7214    7.7859   11.8514 O   0  0  0  0  0  0  0  0  0  0  0  0
   47.3400    9.5272   14.0374 O   0  0  0  0  0  0  0  0  0  0  0  0
   49.4388    9.3880   14.1560 N   0  0  0  0  0  0  0  0  0  0  0  0
   50.5572    9.8544   13.4055 C   0  0  0  0  0  0  0  0  0  0  0  0
   51.0930   11.7705   15.3961 S   0  0  0  0  0  0  0  0  0  0  0  0
   49.1326    9.7549   15.5008 C   0  0  0  0  0  0  0  0  0  0  0  0
   51.3794   10.9007   13.8746 C   0  0  0  0  0  0  0  0  0  0  0  0
   49.8243   10.7903   16.1617 C   0  0  0  0  0  0  0  0  0  0  0  0
   50.9229    9.2821   12.1656 C   0  0  0  0  0  0  0  0  0  0  0  0
   46.4729    6.1428   13.2721 N   0  0  0  0  0  0  0  0  0  0  0  0
   43.6481    5.5118   12.3400 N   0  0  0  0  0  0  0  0  0  0  0  0
   52.4888   11.3472   13.1275 C   0  0  0  0  0  0  0  0  0  0  0  0
   48.4486    8.5352   13.4521 C   0  0  0  0  0  0  0  0  0  0  0  0
   52.0269    9.7305   11.4329 C   0  0  0  0  0  0  0  0  0  0  0  0
   44.3462    4.8020   13.4296 C   0  0  0  0  0  0  0  0  0  0  0  0
   44.5589    6.4093   11.6062 C   0  0  0  0  0  0  0  0  0  0  0  0
   45.8847    4.7866   13.2920 C   0  0  0  0  0  0  0  0  0  0  0  0
   45.6087    7.0816   12.5210 C   0  0  0  0  0  0  0  0  0  0  0  0
   48.7758    7.0459   13.6067 C   0  0  0  0  0  0  0  0  0  0  0  0
   52.8137   10.7649   11.9080 C   0  0  0  0  0  0  0  0  0  0  0  0
   47.8621    6.1132   12.8017 C   0  0  0  0  0  0  0  0  0  0  0  0
   52.4131    8.9852    9.9295 Cl  0  0  0  0  0  0  0  0  0  0  0  0
   48.1386    9.0910   16.2573 C   0  0  0  0  0  0  0  0  0  0  0  0
   49.5179   11.1358   17.4937 C   0  0  0  0  0  0  0  0  0  0  0  0
   42.9775    4.5928   11.4260 C   0  0  0  0  0  0  0  0  0  0  0  0
   47.8391    9.4363   17.5811 C   0  0  0  0  0  0  0  0  0  0  0  0
   48.5297   10.4625   18.2016 C   0  0  0  0  0  0  0  0  0  0  0  0
   46.6430    7.1079   13.0626 C   0  0  0  0  0  0  0  0  0  0  0  0
   49.0135    8.5965   14.3088 C   0  0  0  0  0  0  0  0  0  0  0  0
   47.4464    8.1473   12.4129 C   0  0  0  0  0  0  0  0  0  0  0  0
   48.5072    8.7701   12.9445 C   0  0  0  0  0  0  0  0  0  0  0  0
   45.4411    6.9755   12.9254 O   0  0  0  0  0  0  0  0  0  0  0  0
   50.1899    8.6247   14.6191 O   0  0  0  0  0  0  0  0  0  0  0  0
   47.3873    6.2187   13.7361 O   0  0  0  0  0  0  0  0  0  0  0  0
   48.0350    8.5292   15.2233 O   0  0  0  0  0  0  0  0  0  0  0  0
   47.8105    5.6374   14.2220 H   0  0  0  0  0  0  0  0  0  0  0  0
   49.0759    7.2686   15.4959 H   0  0  0  0  0  0  0  0  0  0  0  0
   47.1322    7.8408   11.0711 H   0  0  0  0  0  0  0  0  0  0  0  0
   47.5093   10.4865   13.9363 H   0  0  0  0  0  0  0  0  0  0  0  0
   50.3665    8.4543   11.7408 H   0  0  0  0  0  0  0  0  0  0  0  0
   53.1089   12.1609   13.4998 H   0  0  0  0  0  0  0  0  0  0  0  0
   48.3902    8.8027   12.3894 H   0  0  0  0  0  0  0  0  0  0  0  0
   47.4349    8.7561   13.8051 H   0  0  0  0  0  0  0  0  0  0  0  0
   43.9814    3.7729   13.5380 H   0  0  0  0  0  0  0  0  0  0  0  0
   44.0873    5.3073   14.3691 H   0  0  0  0  0  0  0  0  0  0  0  0
   43.9653    7.1890   11.1144 H   0  0  0  0  0  0  0  0  0  0  0  0
   45.0933    5.8652   10.8151 H   0  0  0  0  0  0  0  0  0  0  0  0
   46.1463    4.2346   12.3786 H   0  0  0  0  0  0  0  0  0  0  0  0
   46.3081    4.2324   14.1383 H   0  0  0  0  0  0  0  0  0  0  0  0
   46.1965    7.7825   11.9172 H   0  0  0  0  0  0  0  0  0  0  0  0
   45.0790    7.6967   13.2600 H   0  0  0  0  0  0  0  0  0  0  0  0
   49.8089    6.8566   13.2917 H   0  0  0  0  0  0  0  0  0  0  0  0
   48.7439    6.7536   14.6629 H   0  0  0  0  0  0  0  0  0  0  0  0
   53.6723   11.1196   11.3457 H   0  0  0  0  0  0  0  0  0  0  0  0
   48.2786    5.1051   12.9338 H   0  0  0  0  0  0  0  0  0  0  0  0
   47.9341    6.3222   11.7269 H   0  0  0  0  0  0  0  0  0  0  0  0
   47.5657    8.2646   15.8473 H   0  0  0  0  0  0  0  0  0  0  0  0
   50.0555   11.9427   17.9881 H   0  0  0  0  0  0  0  0  0  0  0  0
   42.2262    4.0005   11.9599 H   0  0  0  0  0  0  0  0  0  0  0  0
   43.6805    3.9046   10.9430 H   0  0  0  0  0  0  0  0  0  0  0  0
   42.4437    5.1464   10.6454 H   0  0  0  0  0  0  0  0  0  0  0  0
   47.0661    8.8938   18.1193 H   0  0  0  0  0  0  0  0  0  0  0  0
   48.3046   10.7382   19.2277 H   0  0  0  0  0  0  0  0  0  0  0  0
   47.1113    8.4027   11.4141 H   0  0  0  0  0  0  0  0  0  0  0  0
   49.0773    9.4746   12.3496 H   0  0  0  0  0  0  0  0  0  0  0  0
   46.7312    5.5804   14.0844 H   0  0  0  0  0  0  0  0  0  0  0  0
   48.5145    8.4459   16.0732 H   0  0  0  0  0  0  0  0  0  0  0  0
  2  4  1  0
  3  1  1  0
  4  3  2  0
  5  1  2  0
  6  2  2  0
  7  1  1  0
  8  2  1  0
 10  9  1  0
 11 14  1  0
 12  9  1  0
 13 10  2  0
 14 12  2  0
 15 10  1  0
 16 27  1  0
 17 22  1  0
 18 13  1  0
 19  9  1  0
 20 15  2  0
 21 23  1  0
 22 24  1  0
 23 16  1  0
 24 16  1  0
 25 19  1  0
 26 20  1  0
 27 25  1  0
 28 20  1  0
 29 12  1  0
 30 14  1  0
 31 17  1  0
 32 29  2  0
 33 30  2  0
 11 13  1  0
 32 33  1  0
 26 18  2  0
 17 21  1  0
 35 37  1  0
 36 34  1  0
 37 36  2  0
 38 34  2  0
 39 35  2  0
 40 34  1  0
 41 35  1  0
  3 42  1  0
  4 43  1  0
  7 44  1  0
  8 45  1  0
 15 46  1  0
 18 47  1  0
 19 48  1  0
 19 49  1  0
 21 50  1  0
 21 51  1  0
 22 52  1  0
 22 53  1  0
 23 54  1  0
 23 55  1  0
 24 56  1  0
 24 57  1  0
 25 58  1  0
 25 59  1  0
 26 60  1  0
 27 61  1  0
 27 62  1  0
 29 63  1  0
 30 64  1  0
 31 65  1  0
 31 66  1  0
 31 67  1  0
 32 68  1  0
 33 69  1  0
 36 70  1  0
 37 71  1  0
 40 72  1  0
 41 73  1  0
M  END
> <Uni-Dock RESULT> 
ENERGY=   -4.734  LOWER_BOUND=    2.794  UPPER_BOUND=    6.247
INTER + INTRA:          -4.734
INTER:                  -4.734
INTRA:                   0.000
UNBOUND:                 0.000

$$$$

     RDKit          3D

 73 74  0  0  0  0  0  0  0  0999 V2000
   42.1687   11.5637    9.9319 C   0  0  0  0  0  0  0  0  0  0  0  0
   44.8662   10.7417   11.1353 C   0  0  0  0  0  0  0  0  0  0  0  0
   42.6591   11.9102   11.2689 C   0  0  0  0  0  0  0  0  0  0  0  0
   43.8212   11.5180   11.8086 C   0  0  0  0  0  0  0  0  0  0  0  0
   41.5162   12.3055    9.2209 O   0  0  0  0  0  0  0  0  0  0  0  0
   45.5645    9.9054   11.6780 O   0  0  0  0  0  0  0  0  0  0  0  0
   42.3990   10.2831    9.6074 O   0  0  0  0  0  0  0  0  0  0  0  0
   45.0751   11.1349    9.8705 O   0  0  0  0  0  0  0  0  0  0  0  0
   45.0330    9.8353   11.5281 N   0  0  0  0  0  0  0  0  0  0  0  0
   44.9906    8.4274   11.7464 C   0  0  0  0  0  0  0  0  0  0  0  0
   47.7009    8.4640   12.5040 S   0  0  0  0  0  0  0  0  0  0  0  0
   46.1005   10.7011   11.9119 C   0  0  0  0  0  0  0  0  0  0  0  0
   46.1194    7.7144   12.2029 C   0  0  0  0  0  0  0  0  0  0  0  0
   47.3294   10.1972   12.3842 C   0  0  0  0  0  0  0  0  0  0  0  0
   43.8143    7.6696   11.5447 C   0  0  0  0  0  0  0  0  0  0  0  0
   41.8566   12.6734   10.1265 N   0  0  0  0  0  0  0  0  0  0  0  0
   40.8005   14.2979    7.7829 N   0  0  0  0  0  0  0  0  0  0  0  0
   46.0626    6.3231   12.4243 C   0  0  0  0  0  0  0  0  0  0  0  0
   43.9289   10.4404   10.7420 C   0  0  0  0  0  0  0  0  0  0  0  0
   43.7673    6.2897   11.7694 C   0  0  0  0  0  0  0  0  0  0  0  0
   40.8402   14.7746    9.1791 C   0  0  0  0  0  0  0  0  0  0  0  0
   41.1214   12.8619    7.6905 C   0  0  0  0  0  0  0  0  0  0  0  0
   40.7525   13.6506   10.2351 C   0  0  0  0  0  0  0  0  0  0  0  0
   42.1976   12.4184    8.7083 C   0  0  0  0  0  0  0  0  0  0  0  0
   42.7943   10.9309   11.6481 C   0  0  0  0  0  0  0  0  0  0  0  0
   44.8896    5.6095   12.2080 C   0  0  0  0  0  0  0  0  0  0  0  0
   41.5671   11.4564   10.8927 C   0  0  0  0  0  0  0  0  0  0  0  0
   42.2986    5.4312   11.5030 Cl  0  0  0  0  0  0  0  0  0  0  0  0
   45.9843   12.1102   11.8650 C   0  0  0  0  0  0  0  0  0  0  0  0
   48.3721   11.0646   12.7691 C   0  0  0  0  0  0  0  0  0  0  0  0
   39.5230   14.5864    7.1393 C   0  0  0  0  0  0  0  0  0  0  0  0
   47.0221   12.9679   12.2504 C   0  0  0  0  0  0  0  0  0  0  0  0
   48.2205   12.4443   12.7030 C   0  0  0  0  0  0  0  0  0  0  0  0
   42.5303   12.0295    9.7581 C   0  0  0  0  0  0  0  0  0  0  0  0
   44.4690   10.5465   11.6102 C   0  0  0  0  0  0  0  0  0  0  0  0
   43.0155   10.6582    9.5787 C   0  0  0  0  0  0  0  0  0  0  0  0
   43.8325    9.9969   10.4099 C   0  0  0  0  0  0  0  0  0  0  0  0
   42.3407   12.8203    8.8528 O   0  0  0  0  0  0  0  0  0  0  0  0
   44.6715    9.9206   12.6342 O   0  0  0  0  0  0  0  0  0  0  0  0
   42.1854   12.2988   11.0257 O   0  0  0  0  0  0  0  0  0  0  0  0
   44.9330   11.7917   11.4305 O   0  0  0  0  0  0  0  0  0  0  0  0
   41.9859   12.5454   11.8334 H   0  0  0  0  0  0  0  0  0  0  0  0
   44.0551   11.7721   12.8362 H   0  0  0  0  0  0  0  0  0  0  0  0
   41.9979   10.1913    8.7187 H   0  0  0  0  0  0  0  0  0  0  0  0
   45.8059   10.5592    9.5644 H   0  0  0  0  0  0  0  0  0  0  0  0
   42.8908    8.1372   11.2225 H   0  0  0  0  0  0  0  0  0  0  0  0
   46.9447    5.7863   12.7693 H   0  0  0  0  0  0  0  0  0  0  0  0
   43.5425    9.7285   10.0015 H   0  0  0  0  0  0  0  0  0  0  0  0
   44.3094   11.2513   10.1106 H   0  0  0  0  0  0  0  0  0  0  0  0
   40.0558   15.5168    9.3734 H   0  0  0  0  0  0  0  0  0  0  0  0
   41.7905   15.3065    9.3174 H   0  0  0  0  0  0  0  0  0  0  0  0
   41.4803   12.6451    6.6774 H   0  0  0  0  0  0  0  0  0  0  0  0
   40.2245   12.2480    7.8521 H   0  0  0  0  0  0  0  0  0  0  0  0
   39.7787   13.1519   10.1316 H   0  0  0  0  0  0  0  0  0  0  0  0
   40.7807   14.1029   11.2337 H   0  0  0  0  0  0  0  0  0  0  0  0
   42.4304   11.3625    8.5286 H   0  0  0  0  0  0  0  0  0  0  0  0
   43.1231   12.9681    8.4935 H   0  0  0  0  0  0  0  0  0  0  0  0
   42.4614   10.1165   12.3025 H   0  0  0  0  0  0  0  0  0  0  0  0
   43.1563   11.7107   12.3285 H   0  0  0  0  0  0  0  0  0  0  0  0
   44.8623    4.5384   12.3846 H   0  0  0  0  0  0  0  0  0  0  0  0
   40.8151   11.6721   11.6643 H   0  0  0  0  0  0  0  0  0  0  0  0
   41.1261   10.6728   10.2638 H   0  0  0  0  0  0  0  0  0  0  0  0
   45.0704   12.5974   11.5384 H   0  0  0  0  0  0  0  0  0  0  0  0
   49.3181   10.6604   13.1246 H   0  0  0  0  0  0  0  0  0  0  0  0
   39.3391   15.6663    7.1180 H   0  0  0  0  0  0  0  0  0  0  0  0
   38.6837   14.1034    7.6526 H   0  0  0  0  0  0  0  0  0  0  0  0
   39.5315   14.2491    6.0968 H   0  0  0  0  0  0  0  0  0  0  0  0
   46.8817   14.0445   12.1962 H   0  0  0  0  0  0  0  0  0  0  0  0
   49.0316   13.1010   13.0038 H   0  0  0  0  0  0  0  0  0  0  0  0
   42.6551   10.1782    8.6761 H   0  0  0  0  0  0  0  0  0  0  0  0
   44.0733    8.9569   10.2208 H   0  0  0  0  0  0  0  0  0  0  0  0
   41.8583   13.2211   10.9884 H   0  0  0  0  0  0  0  0  0  0  0  0
   45.3502   12.0119   12.2887 H   0  0  0  0  0  0  0  0  0  0  0  0
  2  4  1  0
  3  1  1  0
  4  3  2  0
  5  1  2  0
  6  2  2  0
  7  1  1  0
  8  2  1  0
 10  9  1  0
 11 14  1  0
 12  9  1  0
 13 10  2  0
 14 12  2  0
 15 10  1  0
 16 27  1  0
 17 22  1  0
 18 13  1  0
 19  9  1  0
 20 15  2  0
 21 23  1  0
 22 24  1  0
 23 16  1  0
 24 16  1  0
 25 19  1  0
 26 20  1  0
 27 25  1  0
 28 20  1  0
 29 12  1  0
 30 14  1  0
 31 17  1  0
 32 29  2  0
 33 30  2  0
 11 13  1  0
 32 33  1  0
 26 18  2  0
 17 21  1  0
 35 37  1  0
 36 34  1  0
 37 36  2  0
 38 34  2  0
 39 35  2  0
 40 34  1  0
 41 35  1  0
  3 42  1  0
  4 43  1  0
  7 44  1  0
  8 45  1  0
 15 46  1  0
 18 47  1  0
 19 48  1  0
 19 49  1  0
 21 50  1  0
 21 51  1  0
 22 52  1  0
 22 53  1  0
 23 54  1  0
 23 55  1  0
 24 56  1  0
 24 57  1  0
 25 58  1  0
 25 59  1  0
 26 60  1  0
 27 61  1  0
 27 62  1  0
 29 63  1  0
 30 64  1  0
 31 65  1  0
 31 66  1  0
 31 67  1  0
 32 68  1  0
 33 69  1  0
 36 70  1  0
 37 71  1  0
 40 72  1  0
 41 73  1  0
M  END
> <Uni-Dock RESULT> 
ENERGY=   -4.632  LOWER_BOUND=    3.880  UPPER_BOUND=    8.158
INTER + INTRA:          -4.632
INTER:                  -4.632
INTRA:                   0.000
UNBOUND:                 0.000

$$$$

     RDKit          3D

 73 74  0  0  0  0  0  0  0  0999 V2000
   50.2990    7.8486   15.5389 C   0  0  0  0  0  0  0  0  0  0  0  0
   48.8939    9.1554   17.9303 C   0  0  0  0  0  0  0  0  0  0  0  0
   48.9368    8.3895   15.5500 C   0  0  0  0  0  0  0  0  0  0  0  0
   48.3096    8.9250   16.6061 C   0  0  0  0  0  0  0  0  0  0  0  0
   51.0670    7.9280   14.5980 O   0  0  0  0  0  0  0  0  0  0  0  0
   48.2889    9.0492   18.9811 O   0  0  0  0  0  0  0  0  0  0  0  0
   50.5843    7.1310   16.6353 O   0  0  0  0  0  0  0  0  0  0  0  0
   50.1474    9.6280   17.8725 O   0  0  0  0  0  0  0  0  0  0  0  0
   48.4748    8.6261   18.6706 N   0  0  0  0  0  0  0  0  0  0  0  0
   48.2358    7.6039   19.6347 C   0  0  0  0  0  0  0  0  0  0  0  0
   47.2893    9.5369   21.4483 S   0  0  0  0  0  0  0  0  0  0  0  0
   48.0315    9.9790   18.7706 C   0  0  0  0  0  0  0  0  0  0  0  0
   47.6884    7.8948   20.9023 C   0  0  0  0  0  0  0  0  0  0  0  0
   47.4649   10.4868   19.9573 C   0  0  0  0  0  0  0  0  0  0  0  0
   48.5070    6.2419   19.3704 C   0  0  0  0  0  0  0  0  0  0  0  0
   50.1461    8.3933   14.5159 N   0  0  0  0  0  0  0  0  0  0  0  0
   52.5861    8.8639   12.7634 N   0  0  0  0  0  0  0  0  0  0  0  0
   47.4476    6.8737   21.8444 C   0  0  0  0  0  0  0  0  0  0  0  0
   49.3473    8.2903   17.5177 C   0  0  0  0  0  0  0  0  0  0  0  0
   48.2624    5.2357   20.3109 C   0  0  0  0  0  0  0  0  0  0  0  0
   51.1990    9.1715   12.3639 C   0  0  0  0  0  0  0  0  0  0  0  0
   52.6308    8.0936   14.0196 C   0  0  0  0  0  0  0  0  0  0  0  0
   50.1326    8.2829   13.0416 C   0  0  0  0  0  0  0  0  0  0  0  0
   51.5320    8.5134   15.0232 C   0  0  0  0  0  0  0  0  0  0  0  0
   48.5322    7.7874   16.3212 C   0  0  0  0  0  0  0  0  0  0  0  0
   47.7339    5.5455   21.5516 C   0  0  0  0  0  0  0  0  0  0  0  0
   49.3813    7.3067   15.1377 C   0  0  0  0  0  0  0  0  0  0  0  0
   48.6171    3.5969   19.9192 Cl  0  0  0  0  0  0  0  0  0  0  0  0
   48.1108   10.8821   17.6847 C   0  0  0  0  0  0  0  0  0  0  0  0
   47.0223   11.8229   20.0389 C   0  0  0  0  0  0  0  0  0  0  0  0
   53.3232    8.1775   11.7074 C   0  0  0  0  0  0  0  0  0  0  0  0
   47.6679   12.2080   17.7697 C   0  0  0  0  0  0  0  0  0  0  0  0
   47.1227   12.6809   18.9505 C   0  0  0  0  0  0  0  0  0  0  0  0
   50.4548    8.4391   15.4682 C   0  0  0  0  0  0  0  0  0  0  0  0
   48.4450    8.7168   17.7642 C   0  0  0  0  0  0  0  0  0  0  0  0
   50.5757    7.8347   16.7979 C   0  0  0  0  0  0  0  0  0  0  0  0
   49.6776    7.9244   17.7884 C   0  0  0  0  0  0  0  0  0  0  0  0
   51.3847    8.8909   14.8263 O   0  0  0  0  0  0  0  0  0  0  0  0
   47.3987    8.3849   18.2897 O   0  0  0  0  0  0  0  0  0  0  0  0
   49.2196    8.3319   14.9573 O   0  0  0  0  0  0  0  0  0  0  0  0
   48.6129    9.9252   17.2075 O   0  0  0  0  0  0  0  0  0  0  0  0
   48.4323    8.3305   14.5922 H   0  0  0  0  0  0  0  0  0  0  0  0
   47.2726    9.2301   16.5237 H   0  0  0  0  0  0  0  0  0  0  0  0
   51.4973    6.8146   16.4766 H   0  0  0  0  0  0  0  0  0  0  0  0
   50.3912    9.7598   18.8119 H   0  0  0  0  0  0  0  0  0  0  0  0
   48.9017    5.9211   18.4130 H   0  0  0  0  0  0  0  0  0  0  0  0
   47.0319    7.1157   22.8210 H   0  0  0  0  0  0  0  0  0  0  0  0
   50.1008    7.5455   17.8037 H   0  0  0  0  0  0  0  0  0  0  0  0
   49.9640    9.1530   17.2415 H   0  0  0  0  0  0  0  0  0  0  0  0
   51.0734    9.1220   11.2750 H   0  0  0  0  0  0  0  0  0  0  0  0
   51.0031   10.2167   12.6362 H   0  0  0  0  0  0  0  0  0  0  0  0
   53.6121    8.2376   14.4870 H   0  0  0  0  0  0  0  0  0  0  0  0
   52.5225    7.0177   13.8245 H   0  0  0  0  0  0  0  0  0  0  0  0
   50.2960    7.2428   12.7270 H   0  0  0  0  0  0  0  0  0  0  0  0
   49.1425    8.5805   12.6762 H   0  0  0  0  0  0  0  0  0  0  0  0
   51.6765    7.9491   15.9516 H   0  0  0  0  0  0  0  0  0  0  0  0
   51.6904    9.5671   15.2874 H   0  0  0  0  0  0  0  0  0  0  0  0
   47.8890    6.9554   16.6316 H   0  0  0  0  0  0  0  0  0  0  0  0
   47.8415    8.5646   15.9733 H   0  0  0  0  0  0  0  0  0  0  0  0
   47.5412    4.7710   22.2879 H   0  0  0  0  0  0  0  0  0  0  0  0
   48.6687    6.8904   14.4123 H   0  0  0  0  0  0  0  0  0  0  0  0
   50.0262    6.4685   15.4300 H   0  0  0  0  0  0  0  0  0  0  0  0
   48.5095   10.5820   16.7202 H   0  0  0  0  0  0  0  0  0  0  0  0
   46.5939   12.2027   20.9645 H   0  0  0  0  0  0  0  0  0  0  0  0
   53.3761    8.8013   10.8083 H   0  0  0  0  0  0  0  0  0  0  0  0
   52.8623    7.2206   11.4371 H   0  0  0  0  0  0  0  0  0  0  0  0
   54.3566    7.9881   12.0190 H   0  0  0  0  0  0  0  0  0  0  0  0
   47.7504   12.8617   16.9052 H   0  0  0  0  0  0  0  0  0  0  0  0
   46.7768   13.7076   19.0268 H   0  0  0  0  0  0  0  0  0  0  0  0
   51.4932    7.2767   16.9460 H   0  0  0  0  0  0  0  0  0  0  0  0
   49.8313    7.3772   18.7116 H   0  0  0  0  0  0  0  0  0  0  0  0
   49.2958    8.7439   14.0721 H   0  0  0  0  0  0  0  0  0  0  0  0
   47.7313   10.3440   17.2874 H   0  0  0  0  0  0  0  0  0  0  0  0
  2  4  1  0
  3  1  1  0
  4  3  2  0
  5  1  2  0
  6  2  2  0
  7  1  1  0
  8  2  1  0
 10  9  1  0
 11 14  1  0
 12  9  1  0
 13 10  2  0
 14 12  2  0
 15 10  1  0
 16 27  1  0
 17 22  1  0
 18 13  1  0
 19  9  1  0
 20 15  2  0
 21 23  1  0
 22 24  1  0
 23 16  1  0
 24 16  1  0
 25 19  1  0
 26 20  1  0
 27 25  1  0
 28 20  1  0
 29 12  1  0
 30 14  1  0
 31 17  1  0
 32 29  2  0
 33 30  2  0
 11 13  1  0
 32 33  1  0
 26 18  2  0
 17 21  1  0
 35 37  1  0
 36 34  1  0
 37 36  2  0
 38 34  2  0
 39 35  2  0
 40 34  1  0
 41 35  1  0
  3 42  1  0
  4 43  1  0
  7 44  1  0
  8 45  1  0
 15 46  1  0
 18 47  1  0
 19 48  1  0
 19 49  1  0
 21 50  1  0
 21 51  1  0
 22 52  1  0
 22 53  1  0
 23 54  1  0
 23 55  1  0
 24 56  1  0
 24 57  1  0
 25 58  1  0
 25 59  1  0
 26 60  1  0
 27 61  1  0
 27 62  1  0
 29 63  1  0
 30 64  1  0
 31 65  1  0
 31 66  1  0
 31 67  1  0
 32 68  1  0
 33 69  1  0
 36 70  1  0
 37 71  1  0
 40 72  1  0
 41 73  1  0
M  END
> <Uni-Dock RESULT> 
ENERGY=   -4.543  LOWER_BOUND=    4.660  UPPER_BOUND=    6.864
INTER + INTRA:          -4.543
INTER:                  -4.543
INTRA:                   0.000
UNBOUND:                 0.000

$$$$

     RDKit          3D

 73 74  0  0  0  0  0  0  0  0999 V2000
   49.4242    9.4871   11.8084 C   0  0  0  0  0  0  0  0  0  0  0  0
   48.8192    7.3546   13.9267 C   0  0  0  0  0  0  0  0  0  0  0  0
   48.7161    9.7032   13.0734 C   0  0  0  0  0  0  0  0  0  0  0  0
   48.4178    8.7631   13.9805 C   0  0  0  0  0  0  0  0  0  0  0  0
   50.1984   10.2800   11.3051 O   0  0  0  0  0  0  0  0  0  0  0  0
   48.1374    6.4257   14.3189 O   0  0  0  0  0  0  0  0  0  0  0  0
   49.0364    8.3690   11.1778 O   0  0  0  0  0  0  0  0  0  0  0  0
   50.0845    7.1880   13.5151 O   0  0  0  0  0  0  0  0  0  0  0  0
   48.0602    6.7059   13.8440 N   0  0  0  0  0  0  0  0  0  0  0  0
   47.0988    5.8131   13.2870 C   0  0  0  0  0  0  0  0  0  0  0  0
   47.3203    4.1610   15.5548 S   0  0  0  0  0  0  0  0  0  0  0  0
   48.5517    6.6634   15.1832 C   0  0  0  0  0  0  0  0  0  0  0  0
   46.6782    4.6548   13.9744 C   0  0  0  0  0  0  0  0  0  0  0  0
   48.2638    5.5847   16.0439 C   0  0  0  0  0  0  0  0  0  0  0  0
   46.4931    6.0473   12.0312 C   0  0  0  0  0  0  0  0  0  0  0  0
   49.7949   10.5128   12.2294 N   0  0  0  0  0  0  0  0  0  0  0  0
   52.2130   11.8105   10.9198 N   0  0  0  0  0  0  0  0  0  0  0  0
   45.7194    3.7840   13.4172 C   0  0  0  0  0  0  0  0  0  0  0  0
   48.6854    7.6958   12.9318 C   0  0  0  0  0  0  0  0  0  0  0  0
   45.5409    5.1785   11.4879 C   0  0  0  0  0  0  0  0  0  0  0  0
   51.3990   12.4387   11.9786 C   0  0  0  0  0  0  0  0  0  0  0  0
   51.5847   10.5773   10.4121 C   0  0  0  0  0  0  0  0  0  0  0  0
   49.9279   11.9688   12.0096 C   0  0  0  0  0  0  0  0  0  0  0  0
   50.8599    9.7722   11.5154 C   0  0  0  0  0  0  0  0  0  0  0  0
   47.9182    9.0226   12.9279 C   0  0  0  0  0  0  0  0  0  0  0  0
   45.1506    4.0431   12.1757 C   0  0  0  0  0  0  0  0  0  0  0  0
   48.4393   10.0489   11.9141 C   0  0  0  0  0  0  0  0  0  0  0  0
   44.8446    5.5280    9.9524 Cl  0  0  0  0  0  0  0  0  0  0  0  0
   49.3337    7.7055   15.7342 C   0  0  0  0  0  0  0  0  0  0  0  0
   48.7480    5.5604   17.3677 C   0  0  0  0  0  0  0  0  0  0  0  0
   52.5013   12.7337    9.8270 C   0  0  0  0  0  0  0  0  0  0  0  0
   49.8108    7.6780   17.0507 C   0  0  0  0  0  0  0  0  0  0  0  0
   49.5183    6.6020   17.8703 C   0  0  0  0  0  0  0  0  0  0  0  0
   49.9231    9.5209   12.1660 C   0  0  0  0  0  0  0  0  0  0  0  0
   48.2246    7.6023   13.8460 C   0  0  0  0  0  0  0  0  0  0  0  0
   49.4464    8.1996   11.7478 C   0  0  0  0  0  0  0  0  0  0  0  0
   48.6710    7.3778   12.4682 C   0  0  0  0  0  0  0  0  0  0  0  0
   51.0113    9.9857   11.8820 O   0  0  0  0  0  0  0  0  0  0  0  0
   47.1388    7.2704   14.2842 O   0  0  0  0  0  0  0  0  0  0  0  0
   48.9823   10.2389   12.7966 O   0  0  0  0  0  0  0  0  0  0  0  0
   49.1891    8.1033   14.6314 O   0  0  0  0  0  0  0  0  0  0  0  0
   48.4302   10.7344   13.2469 H   0  0  0  0  0  0  0  0  0  0  0  0
   47.8250    9.0186   14.8515 H   0  0  0  0  0  0  0  0  0  0  0  0
   49.5616    8.3725   10.3513 H   0  0  0  0  0  0  0  0  0  0  0  0
   50.2185    6.2188   13.5578 H   0  0  0  0  0  0  0  0  0  0  0  0
   46.7332    6.9269   11.4449 H   0  0  0  0  0  0  0  0  0  0  0  0
   45.4111    2.8902   13.9570 H   0  0  0  0  0  0  0  0  0  0  0  0
   48.7564    7.2954   11.9125 H   0  0  0  0  0  0  0  0  0  0  0  0
   49.7377    7.8484   13.1971 H   0  0  0  0  0  0  0  0  0  0  0  0
   51.4287   13.5336   11.9128 H   0  0  0  0  0  0  0  0  0  0  0  0
   51.8632   12.1884   12.9414 H   0  0  0  0  0  0  0  0  0  0  0  0
   52.3600    9.9454    9.9630 H   0  0  0  0  0  0  0  0  0  0  0  0
   50.8569   10.8044    9.6208 H   0  0  0  0  0  0  0  0  0  0  0  0
   49.4482   12.2662   11.0668 H   0  0  0  0  0  0  0  0  0  0  0  0
   49.4073   12.4951   12.8185 H   0  0  0  0  0  0  0  0  0  0  0  0
   50.4841    8.8414   11.0752 H   0  0  0  0  0  0  0  0  0  0  0  0
   51.6021    9.4686   12.2651 H   0  0  0  0  0  0  0  0  0  0  0  0
   46.8598    8.8405   12.7062 H   0  0  0  0  0  0  0  0  0  0  0  0
   47.9245    9.4726   13.9277 H   0  0  0  0  0  0  0  0  0  0  0  0
   44.4124    3.3629   11.7614 H   0  0  0  0  0  0  0  0  0  0  0  0
   47.7369   10.8926   11.9599 H   0  0  0  0  0  0  0  0  0  0  0  0
   48.3676    9.6624   10.8897 H   0  0  0  0  0  0  0  0  0  0  0  0
   49.5907    8.5911   15.1608 H   0  0  0  0  0  0  0  0  0  0  0  0
   48.5236    4.7170   18.0179 H   0  0  0  0  0  0  0  0  0  0  0  0
   53.0615   13.6006   10.1945 H   0  0  0  0  0  0  0  0  0  0  0  0
   51.5884   13.0940    9.3392 H   0  0  0  0  0  0  0  0  0  0  0  0
   53.1305   12.2514    9.0706 H   0  0  0  0  0  0  0  0  0  0  0  0
   50.4074    8.5053   17.4265 H   0  0  0  0  0  0  0  0  0  0  0  0
   49.8840    6.5711   18.8925 H   0  0  0  0  0  0  0  0  0  0  0  0
   49.7798    7.9038   10.7596 H   0  0  0  0  0  0  0  0  0  0  0  0
   48.3137    6.4504   12.0352 H   0  0  0  0  0  0  0  0  0  0  0  0
   49.4259   11.0913   12.9857 H   0  0  0  0  0  0  0  0  0  0  0  0
   48.7634    8.1704   15.5107 H   0  0  0  0  0  0  0  0  0  0  0  0
  2  4  1  0
  3  1  1  0
  4  3  2  0
  5  1  2  0
  6  2  2  0
  7  1  1  0
  8  2  1  0
 10  9  1  0
 11 14  1  0
 12  9  1  0
 13 10  2  0
 14 12  2  0
 15 10  1  0
 16 27  1  0
 17 22  1  0
 18 13  1  0
 19  9  1  0
 20 15  2  0
 21 23  1  0
 22 24  1  0
 23 16  1  0
 24 16  1  0
 25 19  1  0
 26 20  1  0
 27 25  1  0
 28 20  1  0
 29 12  1  0
 30 14  1  0
 31 17  1  0
 32 29  2  0
 33 30  2  0
 11 13  1  0
 32 33  1  0
 26 18  2  0
 17 21  1  0
 35 37  1  0
 36 34  1  0
 37 36  2  0
 38 34  2  0
 39 35  2  0
 40 34  1  0
 41 35  1  0
  3 42  1  0
  4 43  1  0
  7 44  1  0
  8 45  1  0
 15 46  1  0
 18 47  1  0
 19 48  1  0
 19 49  1  0
 21 50  1  0
 21 51  1  0
 22 52  1  0
 22 53  1  0
 23 54  1  0
 23 55  1  0
 24 56  1  0
 24 57  1  0
 25 58  1  0
 25 59  1  0
 26 60  1  0
 27 61  1  0
 27 62  1  0
 29 63  1  0
 30 64  1  0
 31 65  1  0
 31 66  1  0
 31 67  1  0
 32 68  1  0
 33 69  1  0
 36 70  1  0
 37 71  1  0
 40 72  1  0
 41 73  1  0
M  END
> <Uni-Dock RESULT> 
ENERGY=   -4.491  LOWER_BOUND=    2.742  UPPER_BOUND=    4.174
INTER + INTRA:          -4.491
INTER:                  -4.491
INTRA:                   0.000
UNBOUND:                 0.000

$$$$

     RDKit          3D

 73 74  0  0  0  0  0  0  0  0999 V2000
   50.8265   10.0289   11.7260 C   0  0  0  0  0  0  0  0  0  0  0  0
   52.5826    7.7079   10.7619 C   0  0  0  0  0  0  0  0  0  0  0  0
   51.8311   10.0911   10.6606 C   0  0  0  0  0  0  0  0  0  0  0  0
   52.6255    9.0865   10.2664 C   0  0  0  0  0  0  0  0  0  0  0  0
   49.7632   10.6210   11.7093 O   0  0  0  0  0  0  0  0  0  0  0  0
   53.5584    6.9955   10.9099 O   0  0  0  0  0  0  0  0  0  0  0  0
   51.2483    9.3483   12.8017 O   0  0  0  0  0  0  0  0  0  0  0  0
   51.3327    7.2488   10.9198 O   0  0  0  0  0  0  0  0  0  0  0  0
   53.4074    7.4117   11.2475 N   0  0  0  0  0  0  0  0  0  0  0  0
   54.3229    7.1062   12.2963 C   0  0  0  0  0  0  0  0  0  0  0  0
   55.2550    4.8884   10.8356 S   0  0  0  0  0  0  0  0  0  0  0  0
   53.4016    6.8123    9.9524 C   0  0  0  0  0  0  0  0  0  0  0  0
   55.2109    6.0131   12.2092 C   0  0  0  0  0  0  0  0  0  0  0  0
   54.2051    5.6941    9.6503 C   0  0  0  0  0  0  0  0  0  0  0  0
   54.4135    7.8912   13.4686 C   0  0  0  0  0  0  0  0  0  0  0  0
   50.3749   10.6945   10.8776 N   0  0  0  0  0  0  0  0  0  0  0  0
   47.4248   11.4141   11.0367 N   0  0  0  0  0  0  0  0  0  0  0  0
   56.1187    5.7264   13.2493 C   0  0  0  0  0  0  0  0  0  0  0  0
   52.3002    8.3509   11.5562 C   0  0  0  0  0  0  0  0  0  0  0  0
   55.3193    7.5999   14.4940 C   0  0  0  0  0  0  0  0  0  0  0  0
   48.3596   11.9410   10.0234 C   0  0  0  0  0  0  0  0  0  0  0  0
   48.1343   10.6765   12.0979 C   0  0  0  0  0  0  0  0  0  0  0  0
   49.8291   12.0138   10.4940 C   0  0  0  0  0  0  0  0  0  0  0  0
   49.3495    9.8802   11.5689 C   0  0  0  0  0  0  0  0  0  0  0  0
   52.6789    9.7982   11.2233 C   0  0  0  0  0  0  0  0  0  0  0  0
   56.1743    6.5168   14.3912 C   0  0  0  0  0  0  0  0  0  0  0  0
   51.6252   10.8352   11.6322 C   0  0  0  0  0  0  0  0  0  0  0  0
   55.3744    8.6011   15.8939 Cl  0  0  0  0  0  0  0  0  0  0  0  0
   52.6120    7.3140    8.8913 C   0  0  0  0  0  0  0  0  0  0  0  0
   54.1966    5.1179    8.3636 C   0  0  0  0  0  0  0  0  0  0  0  0
   46.5836   12.4616   11.6065 C   0  0  0  0  0  0  0  0  0  0  0  0
   52.6084    6.7396    7.6140 C   0  0  0  0  0  0  0  0  0  0  0  0
   53.4021    5.6374    7.3488 C   0  0  0  0  0  0  0  0  0  0  0  0
   50.4778    9.7838   11.2831 C   0  0  0  0  0  0  0  0  0  0  0  0
   53.0402    8.1555   10.8699 C   0  0  0  0  0  0  0  0  0  0  0  0
   51.0989    8.8896   12.2642 C   0  0  0  0  0  0  0  0  0  0  0  0
   52.2405    8.2082   12.0969 C   0  0  0  0  0  0  0  0  0  0  0  0
   49.2778    9.9114   11.1253 O   0  0  0  0  0  0  0  0  0  0  0  0
   54.2556    8.1004   10.8380 O   0  0  0  0  0  0  0  0  0  0  0  0
   51.3681   10.5601   10.6483 O   0  0  0  0  0  0  0  0  0  0  0  0
   52.2908    8.0429    9.7636 O   0  0  0  0  0  0  0  0  0  0  0  0
   51.8986   11.0583   10.1755 H   0  0  0  0  0  0  0  0  0  0  0  0
   53.3875    9.2605    9.5152 H   0  0  0  0  0  0  0  0  0  0  0  0
   50.4995    9.4155   13.4293 H   0  0  0  0  0  0  0  0  0  0  0  0
   51.4590    6.3252   11.2200 H   0  0  0  0  0  0  0  0  0  0  0  0
   53.7908    8.7673   13.6099 H   0  0  0  0  0  0  0  0  0  0  0  0
   56.7921    4.8746   13.1701 H   0  0  0  0  0  0  0  0  0  0  0  0
   52.0025    8.2690   12.6093 H   0  0  0  0  0  0  0  0  0  0  0  0
   51.3867    8.0503   11.0307 H   0  0  0  0  0  0  0  0  0  0  0  0
   48.0456   12.9279    9.6608 H   0  0  0  0  0  0  0  0  0  0  0  0
   48.3074   11.2760    9.1515 H   0  0  0  0  0  0  0  0  0  0  0  0
   47.4331    9.9801   12.5728 H   0  0  0  0  0  0  0  0  0  0  0  0
   48.4887   11.3603   12.8817 H   0  0  0  0  0  0  0  0  0  0  0  0
   49.8905   12.7203   11.3334 H   0  0  0  0  0  0  0  0  0  0  0  0
   50.4393   12.4233    9.6801 H   0  0  0  0  0  0  0  0  0  0  0  0
   49.7764    9.3067   12.3997 H   0  0  0  0  0  0  0  0  0  0  0  0
   48.9869    9.1355   10.8484 H   0  0  0  0  0  0  0  0  0  0  0  0
   53.6192   10.0616   11.7221 H   0  0  0  0  0  0  0  0  0  0  0  0
   52.8875    9.9037   10.1521 H   0  0  0  0  0  0  0  0  0  0  0  0
   56.8803    6.2831   15.1825 H   0  0  0  0  0  0  0  0  0  0  0  0
   52.0777   11.8145   11.4238 H   0  0  0  0  0  0  0  0  0  0  0  0
   51.4529   10.8159   12.7157 H   0  0  0  0  0  0  0  0  0  0  0  0
   51.9765    8.1859    9.0150 H   0  0  0  0  0  0  0  0  0  0  0  0
   54.8168    4.2500    8.1477 H   0  0  0  0  0  0  0  0  0  0  0  0
   45.9799   12.9366   10.8252 H   0  0  0  0  0  0  0  0  0  0  0  0
   47.1732   13.2380   12.1071 H   0  0  0  0  0  0  0  0  0  0  0  0
   45.8803   12.0390   12.3328 H   0  0  0  0  0  0  0  0  0  0  0  0
   51.9837    7.1643    6.8323 H   0  0  0  0  0  0  0  0  0  0  0  0
   53.4060    5.1844    6.3617 H   0  0  0  0  0  0  0  0  0  0  0  0
   50.5458    8.8025   13.1925 H   0  0  0  0  0  0  0  0  0  0  0  0
   52.6521    7.6293   12.9159 H   0  0  0  0  0  0  0  0  0  0  0  0
   50.8169   11.1143   10.0583 H   0  0  0  0  0  0  0  0  0  0  0  0
   52.9485    7.9893    9.0400 H   0  0  0  0  0  0  0  0  0  0  0  0
  2  4  1  0
  3  1  1  0
  4  3  2  0
  5  1  2  0
  6  2  2  0
  7  1  1  0
  8  2  1  0
 10  9  1  0
 11 14  1  0
 12  9  1  0
 13 10  2  0
 14 12  2  0
 15 10  1  0
 16 27  1  0
 17 22  1  0
 18 13  1  0
 19  9  1  0
 20 15  2  0
 21 23  1  0
 22 24  1  0
 23 16  1  0
 24 16  1  0
 25 19  1  0
 26 20  1  0
 27 25  1  0
 28 20  1  0
 29 12  1  0
 30 14  1  0
 31 17  1  0
 32 29  2  0
 33 30  2  0
 11 13  1  0
 32 33  1  0
 26 18  2  0
 17 21  1  0
 35 37  1  0
 36 34  1  0
 37 36  2  0
 38 34  2  0
 39 35  2  0
 40 34  1  0
 41 35  1  0
  3 42  1  0
  4 43  1  0
  7 44  1  0
  8 45  1  0
 15 46  1  0
 18 47  1  0
 19 48  1  0
 19 49  1  0
 21 50  1  0
 21 51  1  0
 22 52  1  0
 22 53  1  0
 23 54  1  0
 23 55  1  0
 24 56  1  0
 24 57  1  0
 25 58  1  0
 25 59  1  0
 26 60  1  0
 27 61  1  0
 27 62  1  0
 29 63  1  0
 30 64  1  0
 31 65  1  0
 31 66  1  0
 31 67  1  0
 32 68  1  0
 33 69  1  0
 36 70  1  0
 37 71  1  0
 40 72  1  0
 41 73  1  0
M  END
> <Uni-Dock RESULT> 
ENERGY=   -4.445  LOWER_BOUND=    4.457  UPPER_BOUND=    7.701
INTER + INTRA:          -4.445
INTER:                  -4.445
INTRA:                   0.000
UNBOUND:                 0.000

$$$$
