
     RDKit          3D

 73 74  0  0  0  0  0  0  0  0999 V2000
   46.1852    8.3165   12.5180 C   0  0  0  0  0  0  0  0  0  0  0  0
   49.1321    8.4017   13.3551 C   0  0  0  0  0  0  0  0  0  0  0  0
   47.2247    7.3657   12.1136 C   0  0  0  0  0  0  0  0  0  0  0  0
   48.5208    7.4259   12.4483 C   0  0  0  0  0  0  0  0  0  0  0  0
   45.0313    8.0171   12.7632 O   0  0  0  0  0  0  0  0  0  0  0  0
   50.2492    8.8657   13.2211 O   0  0  0  0  0  0  0  0  0  0  0  0
   46.5972    9.5916   12.4681 O   0  0  0  0  0  0  0  0  0  0  0  0
   48.3825    8.6464   14.4398 O   0  0  0  0  0  0  0  0  0  0  0  0
   45.7778    7.1910   12.5036 N   0  0  0  0  0  0  0  0  0  0  0  0
   45.1957    8.3824   11.9764 C   0  0  0  0  0  0  0  0  0  0  0  0
   42.8069    6.9889   11.4572 S   0  0  0  0  0  0  0  0  0  0  0  0
   45.2124    5.8849   12.4146 C   0  0  0  0  0  0  0  0  0  0  0  0
   43.8831    8.4012   11.4601 C   0  0  0  0  0  0  0  0  0  0  0  0
   43.9001    5.6758   11.9430 C   0  0  0  0  0  0  0  0  0  0  0  0
   45.9038    9.6045   11.9181 C   0  0  0  0  0  0  0  0  0  0  0  0
   49.7593    8.6015   13.8135 N   0  0  0  0  0  0  0  0  0  0  0  0
   51.3837   10.9959   14.6133 N   0  0  0  0  0  0  0  0  0  0  0  0
   43.3250    9.5824   10.9284 C   0  0  0  0  0  0  0  0  0  0  0  0
   47.0374    7.3382   13.2765 C   0  0  0  0  0  0  0  0  0  0  0  0
   45.3445   10.7700   11.3855 C   0  0  0  0  0  0  0  0  0  0  0  0
   51.0701    9.8881   15.5360 C   0  0  0  0  0  0  0  0  0  0  0  0
   50.3711   11.0282   13.5401 C   0  0  0  0  0  0  0  0  0  0  0  0
   50.8073    8.5241   14.8536 C   0  0  0  0  0  0  0  0  0  0  0  0
   50.1086    9.6676   12.8490 C   0  0  0  0  0  0  0  0  0  0  0  0
   48.2710    7.1874   12.3718 C   0  0  0  0  0  0  0  0  0  0  0  0
   44.0532   10.7660   10.8892 C   0  0  0  0  0  0  0  0  0  0  0  0
   49.5817    7.2979   13.1592 C   0  0  0  0  0  0  0  0  0  0  0  0
   46.2744   12.2184   11.3409 Cl  0  0  0  0  0  0  0  0  0  0  0  0
   45.9353    4.7220   12.7691 C   0  0  0  0  0  0  0  0  0  0  0  0
   43.3566    4.3780   11.8522 C   0  0  0  0  0  0  0  0  0  0  0  0
   52.7376   10.8862   14.0759 C   0  0  0  0  0  0  0  0  0  0  0  0
   45.3922    3.4343   12.6748 C   0  0  0  0  0  0  0  0  0  0  0  0
   44.0982    3.2611   12.2165 C   0  0  0  0  0  0  0  0  0  0  0  0
   49.1330    8.7401   12.7262 C   0  0  0  0  0  0  0  0  0  0  0  0
   46.2176    7.8008   12.8197 C   0  0  0  0  0  0  0  0  0  0  0  0
   48.3460    8.4893   13.9369 C   0  0  0  0  0  0  0  0  0  0  0  0
   47.0596    8.1164   13.9769 C   0  0  0  0  0  0  0  0  0  0  0  0
   50.3161    8.4819   12.6043 O   0  0  0  0  0  0  0  0  0  0  0  0
   45.0296    8.0528   12.7391 O   0  0  0  0  0  0  0  0  0  0  0  0
   48.4480    9.4110   11.7887 O   0  0  0  0  0  0  0  0  0  0  0  0
   46.8593    7.0794   11.8892 O   0  0  0  0  0  0  0  0  0  0  0  0
   46.8624    6.5566   11.4896 H   0  0  0  0  0  0  0  0  0  0  0  0
   49.2220    6.7101   12.0345 H   0  0  0  0  0  0  0  0  0  0  0  0
   45.8045   10.1038   12.7295 H   0  0  0  0  0  0  0  0  0  0  0  0
   48.9210    9.2793   14.9580 H   0  0  0  0  0  0  0  0  0  0  0  0
   46.9232    9.6817   12.2773 H   0  0  0  0  0  0  0  0  0  0  0  0
   42.3079    9.5819   10.5402 H   0  0  0  0  0  0  0  0  0  0  0  0
   47.0798    6.6155   14.1014 H   0  0  0  0  0  0  0  0  0  0  0  0
   47.0548    8.2939   13.8143 H   0  0  0  0  0  0  0  0  0  0  0  0
   51.8688    9.7783   16.2802 H   0  0  0  0  0  0  0  0  0  0  0  0
   50.1746   10.1690   16.1067 H   0  0  0  0  0  0  0  0  0  0  0  0
   50.6441   11.7764   12.7855 H   0  0  0  0  0  0  0  0  0  0  0  0
   49.4277   11.3833   13.9766 H   0  0  0  0  0  0  0  0  0  0  0  0
   51.7433    8.1399   14.4281 H   0  0  0  0  0  0  0  0  0  0  0  0
   50.4920    7.8170   15.6308 H   0  0  0  0  0  0  0  0  0  0  0  0
   50.9911    9.3808   12.2629 H   0  0  0  0  0  0  0  0  0  0  0  0
   49.2889    9.8152   12.1390 H   0  0  0  0  0  0  0  0  0  0  0  0
   48.2500    7.9171   11.5557 H   0  0  0  0  0  0  0  0  0  0  0  0
   48.2544    6.2089   11.8777 H   0  0  0  0  0  0  0  0  0  0  0  0
   43.6094   11.6663   10.4750 H   0  0  0  0  0  0  0  0  0  0  0  0
   49.5690    6.5051   13.9191 H   0  0  0  0  0  0  0  0  0  0  0  0
   50.4283    7.0760   12.4971 H   0  0  0  0  0  0  0  0  0  0  0  0
   46.9604    4.7731   13.1195 H   0  0  0  0  0  0  0  0  0  0  0  0
   42.3392    4.2340   11.4931 H   0  0  0  0  0  0  0  0  0  0  0  0
   52.9046    9.9715   13.4986 H   0  0  0  0  0  0  0  0  0  0  0  0
   52.9604   11.7417   13.4284 H   0  0  0  0  0  0  0  0  0  0  0  0
   53.4722   10.9135   14.8885 H   0  0  0  0  0  0  0  0  0  0  0  0
   45.9898    2.5718   12.9588 H   0  0  0  0  0  0  0  0  0  0  0  0
   43.6669    2.2671   12.1401 H   0  0  0  0  0  0  0  0  0  0  0  0
   48.8994    8.6292   14.8585 H   0  0  0  0  0  0  0  0  0  0  0  0
   46.5497    8.0277   14.9295 H   0  0  0  0  0  0  0  0  0  0  0  0
   49.0974    9.5304   11.0654 H   0  0  0  0  0  0  0  0  0  0  0  0
   46.1773    6.9212   11.2045 H   0  0  0  0  0  0  0  0  0  0  0  0
  2  4  1  0
  3  1  1  0
  4  3  2  0
  5  1  2  0
  6  2  2  0
  7  1  1  0
  8  2  1  0
 10  9  1  0
 11 14  1  0
 12  9  1  0
 13 10  2  0
 14 12  2  0
 15 10  1  0
 16 27  1  0
 17 22  1  0
 18 13  1  0
 19  9  1  0
 20 15  2  0
 21 23  1  0
 22 24  1  0
 23 16  1  0
 24 16  1  0
 25 19  1  0
 26 20  1  0
 27 25  1  0
 28 20  1  0
 29 12  1  0
 30 14  1  0
 31 17  1  0
 32 29  2  0
 33 30  2  0
 11 13  1  0
 32 33  1  0
 26 18  2  0
 17 21  1  0
 35 37  1  0
 36 34  1  0
 37 36  2  0
 38 34  2  0
 39 35  2  0
 40 34  1  0
 41 35  1  0
  3 42  1  0
  4 43  1  0
  7 44  1  0
  8 45  1  0
 15 46  1  0
 18 47  1  0
 19 48  1  0
 19 49  1  0
 21 50  1  0
 21 51  1  0
 22 52  1  0
 22 53  1  0
 23 54  1  0
 23 55  1  0
 24 56  1  0
 24 57  1  0
 25 58  1  0
 25 59  1  0
 26 60  1  0
 27 61  1  0
 27 62  1  0
 29 63  1  0
 30 64  1  0
 31 65  1  0
 31 66  1  0
 31 67  1  0
 32 68  1  0
 33 69  1  0
 36 70  1  0
 37 71  1  0
 40 72  1  0
 41 73  1  0
M  END
> <Uni-Dock RESULT> 
ENERGY=   -5.759  LOWER_BOUND=    0.000  UPPER_BOUND=    0.000
INTER + INTRA:          -5.759
INTER:                  -5.759
INTRA:                   0.000
UNBOUND:                 0.000

$$$$

     RDKit          3D

 73 74  0  0  0  0  0  0  0  0999 V2000
   46.1862    8.3179   12.5169 C   0  0  0  0  0  0  0  0  0  0  0  0
   49.1343    8.4020   13.3500 C   0  0  0  0  0  0  0  0  0  0  0  0
   47.2249    7.3668   12.1110 C   0  0  0  0  0  0  0  0  0  0  0  0
   48.5215    7.4265   12.4439 C   0  0  0  0  0  0  0  0  0  0  0  0
   45.0325    8.0188   12.7637 O   0  0  0  0  0  0  0  0  0  0  0  0
   50.2514    8.8657   13.2146 O   0  0  0  0  0  0  0  0  0  0  0  0
   46.5986    9.5929   12.4667 O   0  0  0  0  0  0  0  0  0  0  0  0
   48.3863    8.6468   14.4358 O   0  0  0  0  0  0  0  0  0  0  0  0
   45.7784    7.1926   12.5029 N   0  0  0  0  0  0  0  0  0  0  0  0
   45.1960    8.3842   11.9767 C   0  0  0  0  0  0  0  0  0  0  0  0
   42.8061    6.9915   11.4605 S   0  0  0  0  0  0  0  0  0  0  0  0
   45.2125    5.8866   12.4145 C   0  0  0  0  0  0  0  0  0  0  0  0
   43.8827    8.4035   11.4622 C   0  0  0  0  0  0  0  0  0  0  0  0
   43.8995    5.6780   11.9447 C   0  0  0  0  0  0  0  0  0  0  0  0
   45.9044    9.6061   11.9176 C   0  0  0  0  0  0  0  0  0  0  0  0
   49.7622    8.6016   13.8076 N   0  0  0  0  0  0  0  0  0  0  0  0
   51.3884   10.9953   14.6055 N   0  0  0  0  0  0  0  0  0  0  0  0
   43.3243    9.5850   10.9314 C   0  0  0  0  0  0  0  0  0  0  0  0
   47.0392    7.3392   13.2741 C   0  0  0  0  0  0  0  0  0  0  0  0
   45.3448   10.7719   11.3859 C   0  0  0  0  0  0  0  0  0  0  0  0
   51.0758    9.8875   15.5285 C   0  0  0  0  0  0  0  0  0  0  0  0
   50.3744   11.0281   13.5337 C   0  0  0  0  0  0  0  0  0  0  0  0
   50.8116    8.5237   14.8463 C   0  0  0  0  0  0  0  0  0  0  0  0
   50.1105    9.6676   12.8428 C   0  0  0  0  0  0  0  0  0  0  0  0
   48.2714    7.1882   12.3677 C   0  0  0  0  0  0  0  0  0  0  0  0
   44.0528   10.7683   10.8913 C   0  0  0  0  0  0  0  0  0  0  0  0
   49.5832    7.2981   13.1534 C   0  0  0  0  0  0  0  0  0  0  0  0
   46.2751   12.2199   11.3402 Cl  0  0  0  0  0  0  0  0  0  0  0  0
   45.9355    4.7234   12.7679 C   0  0  0  0  0  0  0  0  0  0  0  0
   43.3555    4.3804   11.8544 C   0  0  0  0  0  0  0  0  0  0  0  0
   52.7416   10.8853   14.0663 C   0  0  0  0  0  0  0  0  0  0  0  0
   45.3918    3.4359   12.6742 C   0  0  0  0  0  0  0  0  0  0  0  0
   44.0972    3.2632   12.2175 C   0  0  0  0  0  0  0  0  0  0  0  0
   49.1344    8.7405   12.7212 C   0  0  0  0  0  0  0  0  0  0  0  0
   46.2189    7.8022   12.8185 C   0  0  0  0  0  0  0  0  0  0  0  0
   48.3490    8.4898   13.9329 C   0  0  0  0  0  0  0  0  0  0  0  0
   47.0625    8.1173   13.9746 C   0  0  0  0  0  0  0  0  0  0  0  0
   50.3173    8.4820   12.5976 O   0  0  0  0  0  0  0  0  0  0  0  0
   45.0308    8.0546   12.7396 O   0  0  0  0  0  0  0  0  0  0  0  0
   48.4484    9.4117   11.7847 O   0  0  0  0  0  0  0  0  0  0  0  0
   46.8591    7.0807   11.8870 O   0  0  0  0  0  0  0  0  0  0  0  0
   46.8614    6.5579   11.4874 H   0  0  0  0  0  0  0  0  0  0  0  0
   49.2219    6.7106   12.0291 H   0  0  0  0  0  0  0  0  0  0  0  0
   45.8064   10.1053   12.7292 H   0  0  0  0  0  0  0  0  0  0  0  0
   48.9257    9.2794   14.9533 H   0  0  0  0  0  0  0  0  0  0  0  0
   46.9244    9.6829   12.2755 H   0  0  0  0  0  0  0  0  0  0  0  0
   42.3067    9.5848   10.5446 H   0  0  0  0  0  0  0  0  0  0  0  0
   47.0825    6.6164   14.0988 H   0  0  0  0  0  0  0  0  0  0  0  0
   47.0576    8.2948   13.8121 H   0  0  0  0  0  0  0  0  0  0  0  0
   51.8754    9.7774   16.2716 H   0  0  0  0  0  0  0  0  0  0  0  0
   50.1811   10.1686   16.1004 H   0  0  0  0  0  0  0  0  0  0  0  0
   50.6466   11.7763   12.7788 H   0  0  0  0  0  0  0  0  0  0  0  0
   49.4317   11.3834   13.9715 H   0  0  0  0  0  0  0  0  0  0  0  0
   51.7468    8.1392   14.4194 H   0  0  0  0  0  0  0  0  0  0  0  0
   50.4971    7.8166   15.6238 H   0  0  0  0  0  0  0  0  0  0  0  0
   50.9922    9.3806   12.2555 H   0  0  0  0  0  0  0  0  0  0  0  0
   49.2899    9.8156   12.1339 H   0  0  0  0  0  0  0  0  0  0  0  0
   48.2496    7.9180   11.5517 H   0  0  0  0  0  0  0  0  0  0  0  0
   48.2539    6.2097   11.8735 H   0  0  0  0  0  0  0  0  0  0  0  0
   43.6087   11.6688   10.4779 H   0  0  0  0  0  0  0  0  0  0  0  0
   49.5714    6.5052   13.9131 H   0  0  0  0  0  0  0  0  0  0  0  0
   50.4289    7.0760   12.4901 H   0  0  0  0  0  0  0  0  0  0  0  0
   46.9611    4.7741   13.1168 H   0  0  0  0  0  0  0  0  0  0  0  0
   42.3375    4.2368   11.4967 H   0  0  0  0  0  0  0  0  0  0  0  0
   52.9075    9.9706   13.4887 H   0  0  0  0  0  0  0  0  0  0  0  0
   52.9638   11.7408   13.4186 H   0  0  0  0  0  0  0  0  0  0  0  0
   53.4773   10.9122   14.8779 H   0  0  0  0  0  0  0  0  0  0  0  0
   45.9896    2.5732   12.9572 H   0  0  0  0  0  0  0  0  0  0  0  0
   43.6654    2.2693   12.1417 H   0  0  0  0  0  0  0  0  0  0  0  0
   48.9037    8.6294   14.8538 H   0  0  0  0  0  0  0  0  0  0  0  0
   46.5539    8.0287   14.9279 H   0  0  0  0  0  0  0  0  0  0  0  0
   49.0968    9.5311   11.0605 H   0  0  0  0  0  0  0  0  0  0  0  0
   46.1761    6.9228   11.2033 H   0  0  0  0  0  0  0  0  0  0  0  0
  2  4  1  0
  3  1  1  0
  4  3  2  0
  5  1  2  0
  6  2  2  0
  7  1  1  0
  8  2  1  0
 10  9  1  0
 11 14  1  0
 12  9  1  0
 13 10  2  0
 14 12  2  0
 15 10  1  0
 16 27  1  0
 17 22  1  0
 18 13  1  0
 19  9  1  0
 20 15  2  0
 21 23  1  0
 22 24  1  0
 23 16  1  0
 24 16  1  0
 25 19  1  0
 26 20  1  0
 27 25  1  0
 28 20  1  0
 29 12  1  0
 30 14  1  0
 31 17  1  0
 32 29  2  0
 33 30  2  0
 11 13  1  0
 32 33  1  0
 26 18  2  0
 17 21  1  0
 35 37  1  0
 36 34  1  0
 37 36  2  0
 38 34  2  0
 39 35  2  0
 40 34  1  0
 41 35  1  0
  3 42  1  0
  4 43  1  0
  7 44  1  0
  8 45  1  0
 15 46  1  0
 18 47  1  0
 19 48  1  0
 19 49  1  0
 21 50  1  0
 21 51  1  0
 22 52  1  0
 22 53  1  0
 23 54  1  0
 23 55  1  0
 24 56  1  0
 24 57  1  0
 25 58  1  0
 25 59  1  0
 26 60  1  0
 27 61  1  0
 27 62  1  0
 29 63  1  0
 30 64  1  0
 31 65  1  0
 31 66  1  0
 31 67  1  0
 32 68  1  0
 33 69  1  0
 36 70  1  0
 37 71  1  0
 40 72  1  0
 41 73  1  0
M  END
> <Uni-Dock RESULT> 
ENERGY=   -5.753  LOWER_BOUND=    0.005  UPPER_BOUND=    0.005
INTER + INTRA:          -5.753
INTER:                  -5.753
INTRA:                   0.000
UNBOUND:                 0.000

$$$$

     RDKit          3D

 73 74  0  0  0  0  0  0  0  0999 V2000
   47.1736    7.1278   13.2768 C   0  0  0  0  0  0  0  0  0  0  0  0
   49.5463    8.2946   14.8264 C   0  0  0  0  0  0  0  0  0  0  0  0
   47.1672    8.3668   14.0600 C   0  0  0  0  0  0  0  0  0  0  0  0
   48.1936    8.8558   14.7691 C   0  0  0  0  0  0  0  0  0  0  0  0
   46.5798    6.9705   12.2261 O   0  0  0  0  0  0  0  0  0  0  0  0
   50.2556    8.2980   15.8154 O   0  0  0  0  0  0  0  0  0  0  0  0
   47.8018    6.1204   13.9001 O   0  0  0  0  0  0  0  0  0  0  0  0
   49.9908    7.8822   13.6302 O   0  0  0  0  0  0  0  0  0  0  0  0
   46.5503    7.9941   12.7345 N   0  0  0  0  0  0  0  0  0  0  0  0
   46.2157    6.6241   12.9522 C   0  0  0  0  0  0  0  0  0  0  0  0
   43.9700    6.9041   11.2800 S   0  0  0  0  0  0  0  0  0  0  0  0
   45.7193    8.9557   12.0878 C   0  0  0  0  0  0  0  0  0  0  0  0
   45.0717    6.0384   12.3707 C   0  0  0  0  0  0  0  0  0  0  0  0
   44.5328    8.5828   11.4235 C   0  0  0  0  0  0  0  0  0  0  0  0
   46.9935    5.7810   13.7783 C   0  0  0  0  0  0  0  0  0  0  0  0
   50.3189    8.4045   15.0120 N   0  0  0  0  0  0  0  0  0  0  0  0
   52.6573    6.9362   16.1900 N   0  0  0  0  0  0  0  0  0  0  0  0
   44.7445    4.6868   12.6059 C   0  0  0  0  0  0  0  0  0  0  0  0
   47.9082    8.4325   13.1464 C   0  0  0  0  0  0  0  0  0  0  0  0
   46.6596    4.4431   14.0097 C   0  0  0  0  0  0  0  0  0  0  0  0
   52.7877    7.9156   15.0942 C   0  0  0  0  0  0  0  0  0  0  0  0
   51.2816    6.4017   16.1952 C   0  0  0  0  0  0  0  0  0  0  0  0
   51.6759    8.9909   15.0434 C   0  0  0  0  0  0  0  0  0  0  0  0
   50.1647    7.4733   16.1512 C   0  0  0  0  0  0  0  0  0  0  0  0
   47.9114    8.9676   14.5873 C   0  0  0  0  0  0  0  0  0  0  0  0
   45.5352    3.8887   13.4247 C   0  0  0  0  0  0  0  0  0  0  0  0
   49.2979    9.4611   15.0170 C   0  0  0  0  0  0  0  0  0  0  0  0
   47.6525    3.4821   15.0369 Cl  0  0  0  0  0  0  0  0  0  0  0  0
   46.0182   10.3382   12.0916 C   0  0  0  0  0  0  0  0  0  0  0  0
   43.7160    9.5452   10.7955 C   0  0  0  0  0  0  0  0  0  0  0  0
   53.0162    7.5174   17.4812 C   0  0  0  0  0  0  0  0  0  0  0  0
   45.2024   11.2912   11.4685 C   0  0  0  0  0  0  0  0  0  0  0  0
   44.0483   10.8941   10.8167 C   0  0  0  0  0  0  0  0  0  0  0  0
   49.1943    7.9239   15.3251 C   0  0  0  0  0  0  0  0  0  0  0  0
   47.2443    7.6415   12.9782 C   0  0  0  0  0  0  0  0  0  0  0  0
   49.5453    7.9618   13.9026 C   0  0  0  0  0  0  0  0  0  0  0  0
   48.6978    7.7992   12.8776 C   0  0  0  0  0  0  0  0  0  0  0  0
   49.7111    8.6143   16.1838 O   0  0  0  0  0  0  0  0  0  0  0  0
   46.5729    6.9348   12.2494 O   0  0  0  0  0  0  0  0  0  0  0  0
   48.3231    6.9485   15.6213 O   0  0  0  0  0  0  0  0  0  0  0  0
   46.6922    8.4621   13.8837 O   0  0  0  0  0  0  0  0  0  0  0  0
   46.2248    8.9016   14.0296 H   0  0  0  0  0  0  0  0  0  0  0  0
   48.0603    9.7456   15.3739 H   0  0  0  0  0  0  0  0  0  0  0  0
   47.7012    5.3655   13.2844 H   0  0  0  0  0  0  0  0  0  0  0  0
   50.8996    7.5674   13.8146 H   0  0  0  0  0  0  0  0  0  0  0  0
   47.8816    6.1479   14.2792 H   0  0  0  0  0  0  0  0  0  0  0  0
   43.8617    4.2480   12.1440 H   0  0  0  0  0  0  0  0  0  0  0  0
   48.3028    9.1907   12.4579 H   0  0  0  0  0  0  0  0  0  0  0  0
   48.6337    7.6191   13.0240 H   0  0  0  0  0  0  0  0  0  0  0  0
   53.7690    8.4041   15.1385 H   0  0  0  0  0  0  0  0  0  0  0  0
   52.7787    7.3619   14.1456 H   0  0  0  0  0  0  0  0  0  0  0  0
   51.1322    5.7515   17.0662 H   0  0  0  0  0  0  0  0  0  0  0  0
   51.1700    5.7482   15.3194 H   0  0  0  0  0  0  0  0  0  0  0  0
   51.7815    9.6692   15.8999 H   0  0  0  0  0  0  0  0  0  0  0  0
   51.8308    9.5892   14.1371 H   0  0  0  0  0  0  0  0  0  0  0  0
   50.1527    8.0257   17.0996 H   0  0  0  0  0  0  0  0  0  0  0  0
   49.2088    6.9453   16.0781 H   0  0  0  0  0  0  0  0  0  0  0  0
   47.5383    8.2123   15.2868 H   0  0  0  0  0  0  0  0  0  0  0  0
   47.2112    9.8065   14.6758 H   0  0  0  0  0  0  0  0  0  0  0  0
   45.2684    2.8503   13.5968 H   0  0  0  0  0  0  0  0  0  0  0  0
   49.5887   10.2553   14.3165 H   0  0  0  0  0  0  0  0  0  0  0  0
   49.2303    9.9326   16.0058 H   0  0  0  0  0  0  0  0  0  0  0  0
   46.8944   10.7303   12.5963 H   0  0  0  0  0  0  0  0  0  0  0  0
   42.8069    9.2402   10.2803 H   0  0  0  0  0  0  0  0  0  0  0  0
   52.3831    8.3623   17.7700 H   0  0  0  0  0  0  0  0  0  0  0  0
   52.9523    6.7600   18.2705 H   0  0  0  0  0  0  0  0  0  0  0  0
   54.0562    7.8622   17.4666 H   0  0  0  0  0  0  0  0  0  0  0  0
   45.4756   12.3429   11.5008 H   0  0  0  0  0  0  0  0  0  0  0  0
   43.4089   11.6246   10.3295 H   0  0  0  0  0  0  0  0  0  0  0  0
   50.5973    8.1430   13.7135 H   0  0  0  0  0  0  0  0  0  0  0  0
   49.0741    7.7729   11.8612 H   0  0  0  0  0  0  0  0  0  0  0  0
   48.2082    7.0242   16.5909 H   0  0  0  0  0  0  0  0  0  0  0  0
   45.7340    8.2702   13.8196 H   0  0  0  0  0  0  0  0  0  0  0  0
  2  4  1  0
  3  1  1  0
  4  3  2  0
  5  1  2  0
  6  2  2  0
  7  1  1  0
  8  2  1  0
 10  9  1  0
 11 14  1  0
 12  9  1  0
 13 10  2  0
 14 12  2  0
 15 10  1  0
 16 27  1  0
 17 22  1  0
 18 13  1  0
 19  9  1  0
 20 15  2  0
 21 23  1  0
 22 24  1  0
 23 16  1  0
 24 16  1  0
 25 19  1  0
 26 20  1  0
 27 25  1  0
 28 20  1  0
 29 12  1  0
 30 14  1  0
 31 17  1  0
 32 29  2  0
 33 30  2  0
 11 13  1  0
 32 33  1  0
 26 18  2  0
 17 21  1  0
 35 37  1  0
 36 34  1  0
 37 36  2  0
 38 34  2  0
 39 35  2  0
 40 34  1  0
 41 35  1  0
  3 42  1  0
  4 43  1  0
  7 44  1  0
  8 45  1  0
 15 46  1  0
 18 47  1  0
 19 48  1  0
 19 49  1  0
 21 50  1  0
 21 51  1  0
 22 52  1  0
 22 53  1  0
 23 54  1  0
 23 55  1  0
 24 56  1  0
 24 57  1  0
 25 58  1  0
 25 59  1  0
 26 60  1  0
 27 61  1  0
 27 62  1  0
 29 63  1  0
 30 64  1  0
 31 65  1  0
 31 66  1  0
 31 67  1  0
 32 68  1  0
 33 69  1  0
 36 70  1  0
 37 71  1  0
 40 72  1  0
 41 73  1  0
M  END
> <Uni-Dock RESULT> 
ENERGY=   -5.592  LOWER_BOUND=    2.143  UPPER_BOUND=    4.088
INTER + INTRA:          -5.592
INTER:                  -5.592
INTRA:                   0.000
UNBOUND:                 0.000

$$$$

     RDKit          3D

 73 74  0  0  0  0  0  0  0  0999 V2000
   47.8357    7.1872   13.5213 C   0  0  0  0  0  0  0  0  0  0  0  0
   47.9940    9.9894   12.2903 C   0  0  0  0  0  0  0  0  0  0  0  0
   46.6987    8.0059   13.0906 C   0  0  0  0  0  0  0  0  0  0  0  0
   46.7664    9.2465   12.5888 C   0  0  0  0  0  0  0  0  0  0  0  0
   47.9050    5.9787   13.3954 O   0  0  0  0  0  0  0  0  0  0  0  0
   48.1263   11.1914   12.4280 O   0  0  0  0  0  0  0  0  0  0  0  0
   48.7571    7.8892   14.1969 O   0  0  0  0  0  0  0  0  0  0  0  0
   48.9382    9.2279   11.7183 O   0  0  0  0  0  0  0  0  0  0  0  0
   46.9937    6.5304   12.9806 N   0  0  0  0  0  0  0  0  0  0  0  0
   47.7019    6.2909   14.1960 C   0  0  0  0  0  0  0  0  0  0  0  0
   46.6214    3.6956   14.3175 S   0  0  0  0  0  0  0  0  0  0  0  0
   45.9862    5.6845   12.4301 C   0  0  0  0  0  0  0  0  0  0  0  0
   47.5908    5.0683   14.8909 C   0  0  0  0  0  0  0  0  0  0  0  0
   45.7214    4.4051   12.9603 C   0  0  0  0  0  0  0  0  0  0  0  0
   48.5354    7.2678   14.7869 C   0  0  0  0  0  0  0  0  0  0  0  0
   48.3385   10.6043   11.9073 N   0  0  0  0  0  0  0  0  0  0  0  0
   50.4837   12.6698   12.2865 N   0  0  0  0  0  0  0  0  0  0  0  0
   48.2850    4.8501   16.0991 C   0  0  0  0  0  0  0  0  0  0  0  0
   47.3964    7.7185   12.1858 C   0  0  0  0  0  0  0  0  0  0  0  0
   49.2168    7.0448   15.9873 C   0  0  0  0  0  0  0  0  0  0  0  0
   50.2014   12.0277   10.9884 C   0  0  0  0  0  0  0  0  0  0  0  0
   50.0095   11.7886   13.3713 C   0  0  0  0  0  0  0  0  0  0  0  0
   48.7524   11.5121   10.8160 C   0  0  0  0  0  0  0  0  0  0  0  0
   48.5579   11.2749   13.2077 C   0  0  0  0  0  0  0  0  0  0  0  0
   46.5668    8.9552   12.5668 C   0  0  0  0  0  0  0  0  0  0  0  0
   49.0965    5.8358   16.6489 C   0  0  0  0  0  0  0  0  0  0  0  0
   46.9422   10.1830   11.7290 C   0  0  0  0  0  0  0  0  0  0  0  0
   50.2066    8.2884   16.6493 Cl  0  0  0  0  0  0  0  0  0  0  0  0
   45.1780    6.0819   11.3395 C   0  0  0  0  0  0  0  0  0  0  0  0
   44.7164    3.5826   12.4115 C   0  0  0  0  0  0  0  0  0  0  0  0
   49.8889   14.0012   12.3726 C   0  0  0  0  0  0  0  0  0  0  0  0
   44.1788    5.2623   10.7989 C   0  0  0  0  0  0  0  0  0  0  0  0
   43.9478    4.0079   11.3351 C   0  0  0  0  0  0  0  0  0  0  0  0
   47.8865   10.1233   12.9834 C   0  0  0  0  0  0  0  0  0  0  0  0
   47.6034    7.0720   12.9821 C   0  0  0  0  0  0  0  0  0  0  0  0
   48.5192    9.1988   12.0384 C   0  0  0  0  0  0  0  0  0  0  0  0
   48.4264    7.8623   12.0623 C   0  0  0  0  0  0  0  0  0  0  0  0
   47.4457   11.2190   12.6894 O   0  0  0  0  0  0  0  0  0  0  0  0
   47.9192    5.9875   13.4353 O   0  0  0  0  0  0  0  0  0  0  0  0
   47.9528    9.6974   14.2532 O   0  0  0  0  0  0  0  0  0  0  0  0
   46.3892    7.6042   13.1836 O   0  0  0  0  0  0  0  0  0  0  0  0
   45.7371    7.5189   13.2062 H   0  0  0  0  0  0  0  0  0  0  0  0
   45.8566    9.7933   12.3688 H   0  0  0  0  0  0  0  0  0  0  0  0
   49.4278    7.2191   14.4424 H   0  0  0  0  0  0  0  0  0  0  0  0
   49.6730    9.8533   11.5510 H   0  0  0  0  0  0  0  0  0  0  0  0
   48.6694    8.2424   14.3325 H   0  0  0  0  0  0  0  0  0  0  0  0
   48.1939    3.8982   16.6195 H   0  0  0  0  0  0  0  0  0  0  0  0
   47.3111    7.5197   11.1098 H   0  0  0  0  0  0  0  0  0  0  0  0
   48.4704    7.9131   12.2935 H   0  0  0  0  0  0  0  0  0  0  0  0
   50.4477   12.7117   10.1667 H   0  0  0  0  0  0  0  0  0  0  0  0
   50.8879   11.1774   10.8775 H   0  0  0  0  0  0  0  0  0  0  0  0
   50.1132   12.2928   14.3402 H   0  0  0  0  0  0  0  0  0  0  0  0
   50.6812   10.9208   13.4194 H   0  0  0  0  0  0  0  0  0  0  0  0
   48.0652   12.3649   10.7443 H   0  0  0  0  0  0  0  0  0  0  0  0
   48.7004   10.9746    9.8612 H   0  0  0  0  0  0  0  0  0  0  0  0
   47.8593   12.1125   13.3302 H   0  0  0  0  0  0  0  0  0  0  0  0
   48.3647   10.5764   14.0279 H   0  0  0  0  0  0  0  0  0  0  0  0
   46.6600    9.1757   13.6353 H   0  0  0  0  0  0  0  0  0  0  0  0
   45.5008    8.7523   12.4111 H   0  0  0  0  0  0  0  0  0  0  0  0
   49.6229    5.6523   17.5808 H   0  0  0  0  0  0  0  0  0  0  0  0
   46.7702    9.9200   10.6767 H   0  0  0  0  0  0  0  0  0  0  0  0
   46.2546   11.0076   11.9564 H   0  0  0  0  0  0  0  0  0  0  0  0
   45.2853    7.0566   10.8761 H   0  0  0  0  0  0  0  0  0  0  0  0
   44.5294    2.5942   12.8275 H   0  0  0  0  0  0  0  0  0  0  0  0
   48.7982   13.9981   12.2813 H   0  0  0  0  0  0  0  0  0  0  0  0
   50.1483   14.4728   13.3271 H   0  0  0  0  0  0  0  0  0  0  0  0
   50.2933   14.6494   11.5871 H   0  0  0  0  0  0  0  0  0  0  0  0
   43.5834    5.6147    9.9605 H   0  0  0  0  0  0  0  0  0  0  0  0
   43.1761    3.3639   10.9232 H   0  0  0  0  0  0  0  0  0  0  0  0
   49.1027    9.6886   11.2672 H   0  0  0  0  0  0  0  0  0  0  0  0
   48.9950    7.2662   11.3575 H   0  0  0  0  0  0  0  0  0  0  0  0
   47.5259   10.4161   14.7634 H   0  0  0  0  0  0  0  0  0  0  0  0
   45.9503    6.9652   13.7820 H   0  0  0  0  0  0  0  0  0  0  0  0
  2  4  1  0
  3  1  1  0
  4  3  2  0
  5  1  2  0
  6  2  2  0
  7  1  1  0
  8  2  1  0
 10  9  1  0
 11 14  1  0
 12  9  1  0
 13 10  2  0
 14 12  2  0
 15 10  1  0
 16 27  1  0
 17 22  1  0
 18 13  1  0
 19  9  1  0
 20 15  2  0
 21 23  1  0
 22 24  1  0
 23 16  1  0
 24 16  1  0
 25 19  1  0
 26 20  1  0
 27 25  1  0
 28 20  1  0
 29 12  1  0
 30 14  1  0
 31 17  1  0
 32 29  2  0
 33 30  2  0
 11 13  1  0
 32 33  1  0
 26 18  2  0
 17 21  1  0
 35 37  1  0
 36 34  1  0
 37 36  2  0
 38 34  2  0
 39 35  2  0
 40 34  1  0
 41 35  1  0
  3 42  1  0
  4 43  1  0
  7 44  1  0
  8 45  1  0
 15 46  1  0
 18 47  1  0
 19 48  1  0
 19 49  1  0
 21 50  1  0
 21 51  1  0
 22 52  1  0
 22 53  1  0
 23 54  1  0
 23 55  1  0
 24 56  1  0
 24 57  1  0
 25 58  1  0
 25 59  1  0
 26 60  1  0
 27 61  1  0
 27 62  1  0
 29 63  1  0
 30 64  1  0
 31 65  1  0
 31 66  1  0
 31 67  1  0
 32 68  1  0
 33 69  1  0
 36 70  1  0
 37 71  1  0
 40 72  1  0
 41 73  1  0
M  END
> <Uni-Dock RESULT> 
ENERGY=   -5.513  LOWER_BOUND=    2.373  UPPER_BOUND=    3.940
INTER + INTRA:          -5.513
INTER:                  -5.513
INTRA:                   0.000
UNBOUND:                 0.000

$$$$

     RDKit          3D

 73 74  0  0  0  0  0  0  0  0999 V2000
   47.9978    8.0118   13.8944 C   0  0  0  0  0  0  0  0  0  0  0  0
   45.9799    6.5106   12.1433 C   0  0  0  0  0  0  0  0  0  0  0  0
   48.0986    7.8034   12.4471 C   0  0  0  0  0  0  0  0  0  0  0  0
   47.2361    7.1135   11.6885 C   0  0  0  0  0  0  0  0  0  0  0  0
   48.3363    9.0281   14.4723 O   0  0  0  0  0  0  0  0  0  0  0  0
   45.5262    5.4604   11.7279 O   0  0  0  0  0  0  0  0  0  0  0  0
   47.6101    6.9105   14.5539 O   0  0  0  0  0  0  0  0  0  0  0  0
   45.2967    7.3009   12.9841 O   0  0  0  0  0  0  0  0  0  0  0  0
   48.4103    8.9848   13.3322 N   0  0  0  0  0  0  0  0  0  0  0  0
   48.8860    8.3382   14.5120 C   0  0  0  0  0  0  0  0  0  0  0  0
   50.6462   10.4828   14.9810 S   0  0  0  0  0  0  0  0  0  0  0  0
   48.9924   10.1388   12.7297 C   0  0  0  0  0  0  0  0  0  0  0  0
   49.8998    8.9060   15.3117 C   0  0  0  0  0  0  0  0  0  0  0  0
   50.0122   10.8738   13.3684 C   0  0  0  0  0  0  0  0  0  0  0  0
   48.3893    7.0845   14.9359 C   0  0  0  0  0  0  0  0  0  0  0  0
   45.2672    6.1990   11.9473 N   0  0  0  0  0  0  0  0  0  0  0  0
   43.3872    4.0051   12.7621 N   0  0  0  0  0  0  0  0  0  0  0  0
   50.3712    8.2491   16.4674 C   0  0  0  0  0  0  0  0  0  0  0  0
   47.1599    8.4572   12.7290 C   0  0  0  0  0  0  0  0  0  0  0  0
   48.8652    6.4381   16.0808 C   0  0  0  0  0  0  0  0  0  0  0  0
   42.9303    5.3279   12.2949 C   0  0  0  0  0  0  0  0  0  0  0  0
   44.7604    4.1296   13.2885 C   0  0  0  0  0  0  0  0  0  0  0  0
   43.9170    6.0669   11.3593 C   0  0  0  0  0  0  0  0  0  0  0  0
   45.7539    4.8623   12.3537 C   0  0  0  0  0  0  0  0  0  0  0  0
   47.4583    7.3878   11.6659 C   0  0  0  0  0  0  0  0  0  0  0  0
   49.8569    7.0164   16.8527 C   0  0  0  0  0  0  0  0  0  0  0  0
   46.1805    6.8589   11.0043 C   0  0  0  0  0  0  0  0  0  0  0  0
   48.2161    4.9071   16.5272 Cl  0  0  0  0  0  0  0  0  0  0  0  0
   48.6027   10.6027   11.4516 C   0  0  0  0  0  0  0  0  0  0  0  0
   50.5849   12.0080   12.7573 C   0  0  0  0  0  0  0  0  0  0  0  0
   43.3021    2.9990   11.7063 C   0  0  0  0  0  0  0  0  0  0  0  0
   49.1762   11.7287   10.8472 C   0  0  0  0  0  0  0  0  0  0  0  0
   50.1694   12.4351   11.5022 C   0  0  0  0  0  0  0  0  0  0  0  0
   46.4659    6.0098   12.2952 C   0  0  0  0  0  0  0  0  0  0  0  0
   47.8213    8.4602   13.5398 C   0  0  0  0  0  0  0  0  0  0  0  0
   45.7868    7.2000   12.8153 C   0  0  0  0  0  0  0  0  0  0  0  0
   46.3776    8.2538   13.3948 C   0  0  0  0  0  0  0  0  0  0  0  0
   46.1177    5.3912   11.3065 O   0  0  0  0  0  0  0  0  0  0  0  0
   48.3512    8.9952   14.4960 O   0  0  0  0  0  0  0  0  0  0  0  0
   47.4513    5.5798   13.0965 O   0  0  0  0  0  0  0  0  0  0  0  0
   48.5103    8.1138   12.4428 O   0  0  0  0  0  0  0  0  0  0  0  0
   48.9655    8.2712   11.9945 H   0  0  0  0  0  0  0  0  0  0  0  0
   47.4432    6.9579   10.6359 H   0  0  0  0  0  0  0  0  0  0  0  0
   47.6172    7.1860   15.4936 H   0  0  0  0  0  0  0  0  0  0  0  0
   44.4827    6.7908   13.1746 H   0  0  0  0  0  0  0  0  0  0  0  0
   47.6203    6.5654   14.3760 H   0  0  0  0  0  0  0  0  0  0  0  0
   51.1494    8.7042   17.0778 H   0  0  0  0  0  0  0  0  0  0  0  0
   46.5595    9.2674   12.2958 H   0  0  0  0  0  0  0  0  0  0  0  0
   46.4874    8.0692   13.5037 H   0  0  0  0  0  0  0  0  0  0  0  0
   41.9542    5.2385   11.8020 H   0  0  0  0  0  0  0  0  0  0  0  0
   42.7552    5.9549   13.1797 H   0  0  0  0  0  0  0  0  0  0  0  0
   45.1585    3.1395   13.5433 H   0  0  0  0  0  0  0  0  0  0  0  0
   44.7092    4.6782   14.2387 H   0  0  0  0  0  0  0  0  0  0  0  0
   43.9675    5.5467   10.3942 H   0  0  0  0  0  0  0  0  0  0  0  0
   43.5089    7.0666   11.1660 H   0  0  0  0  0  0  0  0  0  0  0  0
   45.9493    4.2403   11.4708 H   0  0  0  0  0  0  0  0  0  0  0  0
   46.7013    4.9556   12.8936 H   0  0  0  0  0  0  0  0  0  0  0  0
   48.0403    6.5637   12.0915 H   0  0  0  0  0  0  0  0  0  0  0  0
   48.0964    7.8096   10.8806 H   0  0  0  0  0  0  0  0  0  0  0  0
   50.2319    6.5232   17.7444 H   0  0  0  0  0  0  0  0  0  0  0  0
   45.6751    7.7193   10.5457 H   0  0  0  0  0  0  0  0  0  0  0  0
   46.4453    6.1830   10.1811 H   0  0  0  0  0  0  0  0  0  0  0  0
   47.8443   10.0931   10.8673 H   0  0  0  0  0  0  0  0  0  0  0  0
   51.3662   12.5691   13.2668 H   0  0  0  0  0  0  0  0  0  0  0  0
   43.9221    3.2290   10.8342 H   0  0  0  0  0  0  0  0  0  0  0  0
   43.6060    2.0185   12.0898 H   0  0  0  0  0  0  0  0  0  0  0  0
   42.2659    2.8912   11.3670 H   0  0  0  0  0  0  0  0  0  0  0  0
   48.8424   12.0442    9.8620 H   0  0  0  0  0  0  0  0  0  0  0  0
   50.6204   13.3101   11.0431 H   0  0  0  0  0  0  0  0  0  0  0  0
   44.7096    7.1799   12.6950 H   0  0  0  0  0  0  0  0  0  0  0  0
   45.7747    9.0523   13.8120 H   0  0  0  0  0  0  0  0  0  0  0  0
   47.7863    4.7777   12.6453 H   0  0  0  0  0  0  0  0  0  0  0  0
   49.4375    8.3312   12.6707 H   0  0  0  0  0  0  0  0  0  0  0  0
  2  4  1  0
  3  1  1  0
  4  3  2  0
  5  1  2  0
  6  2  2  0
  7  1  1  0
  8  2  1  0
 10  9  1  0
 11 14  1  0
 12  9  1  0
 13 10  2  0
 14 12  2  0
 15 10  1  0
 16 27  1  0
 17 22  1  0
 18 13  1  0
 19  9  1  0
 20 15  2  0
 21 23  1  0
 22 24  1  0
 23 16  1  0
 24 16  1  0
 25 19  1  0
 26 20  1  0
 27 25  1  0
 28 20  1  0
 29 12  1  0
 30 14  1  0
 31 17  1  0
 32 29  2  0
 33 30  2  0
 11 13  1  0
 32 33  1  0
 26 18  2  0
 17 21  1  0
 35 37  1  0
 36 34  1  0
 37 36  2  0
 38 34  2  0
 39 35  2  0
 40 34  1  0
 41 35  1  0
  3 42  1  0
  4 43  1  0
  7 44  1  0
  8 45  1  0
 15 46  1  0
 18 47  1  0
 19 48  1  0
 19 49  1  0
 21 50  1  0
 21 51  1  0
 22 52  1  0
 22 53  1  0
 23 54  1  0
 23 55  1  0
 24 56  1  0
 24 57  1  0
 25 58  1  0
 25 59  1  0
 26 60  1  0
 27 61  1  0
 27 62  1  0
 29 63  1  0
 30 64  1  0
 31 65  1  0
 31 66  1  0
 31 67  1  0
 32 68  1  0
 33 69  1  0
 36 70  1  0
 37 71  1  0
 40 72  1  0
 41 73  1  0
M  END
> <Uni-Dock RESULT> 
ENERGY=   -4.951  LOWER_BOUND=    2.665  UPPER_BOUND=    6.543
INTER + INTRA:          -4.951
INTER:                  -4.951
INTRA:                   0.000
UNBOUND:                 0.000

$$$$

     RDKit          3D

 73 74  0  0  0  0  0  0  0  0999 V2000
   55.1756    6.1391   11.2545 C   0  0  0  0  0  0  0  0  0  0  0  0
   54.2093    6.6942    8.3996 C   0  0  0  0  0  0  0  0  0  0  0  0
   54.4346    5.2085   10.3982 C   0  0  0  0  0  0  0  0  0  0  0  0
   53.9784    5.4657    9.1648 C   0  0  0  0  0  0  0  0  0  0  0  0
   56.0665    5.8165   12.0183 O   0  0  0  0  0  0  0  0  0  0  0  0
   53.4009    7.2010    7.6440 O   0  0  0  0  0  0  0  0  0  0  0  0
   54.6862    7.3869   11.2140 O   0  0  0  0  0  0  0  0  0  0  0  0
   55.4656    7.1496    8.5113 O   0  0  0  0  0  0  0  0  0  0  0  0
   55.5842    5.0186   11.3566 N   0  0  0  0  0  0  0  0  0  0  0  0
   55.2715    5.9752   12.3683 C   0  0  0  0  0  0  0  0  0  0  0  0
   56.4135    4.2942   14.3145 S   0  0  0  0  0  0  0  0  0  0  0  0
   56.0508    3.6913   11.5893 C   0  0  0  0  0  0  0  0  0  0  0  0
   55.5754    5.7448   13.7264 C   0  0  0  0  0  0  0  0  0  0  0  0
   56.4303    3.2537   12.8749 C   0  0  0  0  0  0  0  0  0  0  0  0
   54.6205    7.1953   12.0756 C   0  0  0  0  0  0  0  0  0  0  0  0
   54.2004    7.0605    7.6860 N   0  0  0  0  0  0  0  0  0  0  0  0
   53.5375    9.7113    6.4430 N   0  0  0  0  0  0  0  0  0  0  0  0
   55.2475    6.6925   14.7183 C   0  0  0  0  0  0  0  0  0  0  0  0
   55.4900    5.4713    9.9453 C   0  0  0  0  0  0  0  0  0  0  0  0
   54.2952    8.1275   13.0656 C   0  0  0  0  0  0  0  0  0  0  0  0
   54.6541    8.8619    5.9861 C   0  0  0  0  0  0  0  0  0  0  0  0
   53.2193    9.3735    7.8440 C   0  0  0  0  0  0  0  0  0  0  0  0
   54.4799    7.3493    6.2630 C   0  0  0  0  0  0  0  0  0  0  0  0
   53.0372    7.8618    8.1258 C   0  0  0  0  0  0  0  0  0  0  0  0
   54.0958    5.1949    9.3599 C   0  0  0  0  0  0  0  0  0  0  0  0
   54.6074    7.8823   14.3909 C   0  0  0  0  0  0  0  0  0  0  0  0
   53.9915    5.6206    7.8908 C   0  0  0  0  0  0  0  0  0  0  0  0
   53.4932    9.5878   12.6309 Cl  0  0  0  0  0  0  0  0  0  0  0  0
   56.1399    2.7289   10.5566 C   0  0  0  0  0  0  0  0  0  0  0  0
   56.8818    1.9359   13.0922 C   0  0  0  0  0  0  0  0  0  0  0  0
   52.3686    9.5813    5.5766 C   0  0  0  0  0  0  0  0  0  0  0  0
   56.5867    1.4199   10.7776 C   0  0  0  0  0  0  0  0  0  0  0  0
   56.9606    1.0218   12.0489 C   0  0  0  0  0  0  0  0  0  0  0  0
   53.6382    6.8543    8.7973 C   0  0  0  0  0  0  0  0  0  0  0  0
   55.4924    5.7255   10.9603 C   0  0  0  0  0  0  0  0  0  0  0  0
   55.1035    6.8635    8.7681 C   0  0  0  0  0  0  0  0  0  0  0  0
   55.9135    6.4050    9.7320 C   0  0  0  0  0  0  0  0  0  0  0  0
   52.9279    6.6759    7.8253 O   0  0  0  0  0  0  0  0  0  0  0  0
   56.0416    5.8444   12.0399 O   0  0  0  0  0  0  0  0  0  0  0  0
   53.1386    7.1941    9.9944 O   0  0  0  0  0  0  0  0  0  0  0  0
   54.5038    4.8430   10.7553 O   0  0  0  0  0  0  0  0  0  0  0  0
   54.2672    4.2359   10.8469 H   0  0  0  0  0  0  0  0  0  0  0  0
   53.3766    4.7294    8.6443 H   0  0  0  0  0  0  0  0  0  0  0  0
   55.2498    7.8797   11.8454 H   0  0  0  0  0  0  0  0  0  0  0  0
   55.4797    7.9403    7.9335 H   0  0  0  0  0  0  0  0  0  0  0  0
   54.3346    7.4515   11.0622 H   0  0  0  0  0  0  0  0  0  0  0  0
   55.4952    6.5026   15.7613 H   0  0  0  0  0  0  0  0  0  0  0  0
   56.2631    4.9970    9.3273 H   0  0  0  0  0  0  0  0  0  0  0  0
   55.7531    6.5325    9.8584 H   0  0  0  0  0  0  0  0  0  0  0  0
   54.8364    9.0205    4.9159 H   0  0  0  0  0  0  0  0  0  0  0  0
   55.5665    9.2047    6.4926 H   0  0  0  0  0  0  0  0  0  0  0  0
   52.3242    9.9179    8.1699 H   0  0  0  0  0  0  0  0  0  0  0  0
   54.0361    9.7483    8.4756 H   0  0  0  0  0  0  0  0  0  0  0  0
   53.6811    6.9488    5.6257 H   0  0  0  0  0  0  0  0  0  0  0  0
   55.4096    6.8466    5.9693 H   0  0  0  0  0  0  0  0  0  0  0  0
   52.1205    7.5082    7.6368 H   0  0  0  0  0  0  0  0  0  0  0  0
   52.8879    7.7468    9.2040 H   0  0  0  0  0  0  0  0  0  0  0  0
   53.3167    5.6801    9.9571 H   0  0  0  0  0  0  0  0  0  0  0  0
   53.8718    4.1233    9.4185 H   0  0  0  0  0  0  0  0  0  0  0  0
   54.3606    8.6006   15.1668 H   0  0  0  0  0  0  0  0  0  0  0  0
   54.7542    5.0570    7.3370 H   0  0  0  0  0  0  0  0  0  0  0  0
   53.0215    5.3062    7.4848 H   0  0  0  0  0  0  0  0  0  0  0  0
   55.8482    2.9582    9.5375 H   0  0  0  0  0  0  0  0  0  0  0  0
   57.1782    1.6157   14.0895 H   0  0  0  0  0  0  0  0  0  0  0  0
   51.9641    8.5649    5.5401 H   0  0  0  0  0  0  0  0  0  0  0  0
   51.5700   10.2526    5.9118 H   0  0  0  0  0  0  0  0  0  0  0  0
   52.6184    9.8839    4.5536 H   0  0  0  0  0  0  0  0  0  0  0  0
   56.6358    0.7169    9.9499 H   0  0  0  0  0  0  0  0  0  0  0  0
   57.3093    0.0094   12.2313 H   0  0  0  0  0  0  0  0  0  0  0  0
   55.5230    7.2875    7.8628 H   0  0  0  0  0  0  0  0  0  0  0  0
   56.9870    6.5261    9.6418 H   0  0  0  0  0  0  0  0  0  0  0  0
   52.1690    7.1748    9.8571 H   0  0  0  0  0  0  0  0  0  0  0  0
   54.3517    4.4526   11.6403 H   0  0  0  0  0  0  0  0  0  0  0  0
  2  4  1  0
  3  1  1  0
  4  3  2  0
  5  1  2  0
  6  2  2  0
  7  1  1  0
  8  2  1  0
 10  9  1  0
 11 14  1  0
 12  9  1  0
 13 10  2  0
 14 12  2  0
 15 10  1  0
 16 27  1  0
 17 22  1  0
 18 13  1  0
 19  9  1  0
 20 15  2  0
 21 23  1  0
 22 24  1  0
 23 16  1  0
 24 16  1  0
 25 19  1  0
 26 20  1  0
 27 25  1  0
 28 20  1  0
 29 12  1  0
 30 14  1  0
 31 17  1  0
 32 29  2  0
 33 30  2  0
 11 13  1  0
 32 33  1  0
 26 18  2  0
 17 21  1  0
 35 37  1  0
 36 34  1  0
 37 36  2  0
 38 34  2  0
 39 35  2  0
 40 34  1  0
 41 35  1  0
  3 42  1  0
  4 43  1  0
  7 44  1  0
  8 45  1  0
 15 46  1  0
 18 47  1  0
 19 48  1  0
 19 49  1  0
 21 50  1  0
 21 51  1  0
 22 52  1  0
 22 53  1  0
 23 54  1  0
 23 55  1  0
 24 56  1  0
 24 57  1  0
 25 58  1  0
 25 59  1  0
 26 60  1  0
 27 61  1  0
 27 62  1  0
 29 63  1  0
 30 64  1  0
 31 65  1  0
 31 66  1  0
 31 67  1  0
 32 68  1  0
 33 69  1  0
 36 70  1  0
 37 71  1  0
 40 72  1  0
 41 73  1  0
M  END
> <Uni-Dock RESULT> 
ENERGY=   -4.944  LOWER_BOUND=    7.800  UPPER_BOUND=    9.601
INTER + INTRA:          -4.944
INTER:                  -4.944
INTRA:                   0.000
UNBOUND:                 0.000

$$$$

     RDKit          3D

 73 74  0  0  0  0  0  0  0  0999 V2000
   49.0461    8.1506   15.9699 C   0  0  0  0  0  0  0  0  0  0  0  0
   49.9955    8.3065   13.0601 C   0  0  0  0  0  0  0  0  0  0  0  0
   48.4474    7.4527   14.8285 C   0  0  0  0  0  0  0  0  0  0  0  0
   48.8387    7.5520   13.5508 C   0  0  0  0  0  0  0  0  0  0  0  0
   49.1561    7.6814   17.0875 O   0  0  0  0  0  0  0  0  0  0  0  0
   50.0348    8.8999   11.9983 O   0  0  0  0  0  0  0  0  0  0  0  0
   49.3522    9.4275   15.6979 O   0  0  0  0  0  0  0  0  0  0  0  0
   51.0748    8.1750   13.8452 O   0  0  0  0  0  0  0  0  0  0  0  0
   48.7179    7.0348   16.2527 N   0  0  0  0  0  0  0  0  0  0  0  0
   48.5013    8.2585   16.9539 C   0  0  0  0  0  0  0  0  0  0  0  0
   47.5349    6.8204   19.1710 S   0  0  0  0  0  0  0  0  0  0  0  0
   48.2635    5.7498   16.6720 C   0  0  0  0  0  0  0  0  0  0  0  0
   47.9553    8.2818   18.2543 C   0  0  0  0  0  0  0  0  0  0  0  0
   47.7003    5.5428   17.9480 C   0  0  0  0  0  0  0  0  0  0  0  0
   48.7974    9.5168   16.3817 C   0  0  0  0  0  0  0  0  0  0  0  0
   50.5157    8.4388   12.4640 N   0  0  0  0  0  0  0  0  0  0  0  0
   51.9861   10.6837   11.1186 N   0  0  0  0  0  0  0  0  0  0  0  0
   47.7327    9.4995   18.9304 C   0  0  0  0  0  0  0  0  0  0  0  0
   49.5529    7.0965   15.0261 C   0  0  0  0  0  0  0  0  0  0  0  0
   48.5697   10.7195   17.0574 C   0  0  0  0  0  0  0  0  0  0  0  0
   52.5692    9.3437   11.3216 C   0  0  0  0  0  0  0  0  0  0  0  0
   50.9192   10.8992   12.1154 C   0  0  0  0  0  0  0  0  0  0  0  0
   51.5402    8.1925   11.4267 C   0  0  0  0  0  0  0  0  0  0  0  0
   49.8827    9.7536   12.2203 C   0  0  0  0  0  0  0  0  0  0  0  0
   48.6917    7.3187   13.7724 C   0  0  0  0  0  0  0  0  0  0  0  0
   48.0377   10.7178   18.3344 C   0  0  0  0  0  0  0  0  0  0  0  0
   49.5332    7.3466   12.4912 C   0  0  0  0  0  0  0  0  0  0  0  0
   48.9479   12.2135   16.2894 Cl  0  0  0  0  0  0  0  0  0  0  0  0
   48.3270    4.6137   15.8318 C   0  0  0  0  0  0  0  0  0  0  0  0
   47.2472    4.2685   18.3465 C   0  0  0  0  0  0  0  0  0  0  0  0
   51.4946   10.8592    9.7543 C   0  0  0  0  0  0  0  0  0  0  0  0
   47.8733    3.3500   16.2310 C   0  0  0  0  0  0  0  0  0  0  0  0
   47.3330    3.1757   17.4928 C   0  0  0  0  0  0  0  0  0  0  0  0
   49.4792    8.7990   13.0881 C   0  0  0  0  0  0  0  0  0  0  0  0
   49.2017    7.5791   15.8855 C   0  0  0  0  0  0  0  0  0  0  0  0
   50.5472    8.1553   13.8582 C   0  0  0  0  0  0  0  0  0  0  0  0
   50.4346    7.6572   15.0970 C   0  0  0  0  0  0  0  0  0  0  0  0
   49.3417    8.7039   11.8826 O   0  0  0  0  0  0  0  0  0  0  0  0
   49.1423    7.7220   17.0927 O   0  0  0  0  0  0  0  0  0  0  0  0
   48.7254    9.6233   13.8301 O   0  0  0  0  0  0  0  0  0  0  0  0
   48.1405    7.2015   15.1579 O   0  0  0  0  0  0  0  0  0  0  0  0
   47.6174    6.8076   15.0933 H   0  0  0  0  0  0  0  0  0  0  0  0
   48.2793    7.0477   12.7711 H   0  0  0  0  0  0  0  0  0  0  0  0
   49.7072    9.7683   16.5446 H   0  0  0  0  0  0  0  0  0  0  0  0
   51.7635    8.6975   13.3848 H   0  0  0  0  0  0  0  0  0  0  0  0
   49.2056    9.5978   15.3812 H   0  0  0  0  0  0  0  0  0  0  0  0
   47.3170    9.4999   19.9366 H   0  0  0  0  0  0  0  0  0  0  0  0
   50.1583    6.1877   14.9158 H   0  0  0  0  0  0  0  0  0  0  0  0
   50.3247    7.8703   15.1190 H   0  0  0  0  0  0  0  0  0  0  0  0
   53.2898    9.1203   10.5251 H   0  0  0  0  0  0  0  0  0  0  0  0
   53.1568    9.3697   12.2493 H   0  0  0  0  0  0  0  0  0  0  0  0
   50.4012   11.8455   11.9158 H   0  0  0  0  0  0  0  0  0  0  0  0
   51.3952   11.0273   13.0970 H   0  0  0  0  0  0  0  0  0  0  0  0
   51.0668    8.0328   10.4494 H   0  0  0  0  0  0  0  0  0  0  0  0
   52.0890    7.2752   11.6731 H   0  0  0  0  0  0  0  0  0  0  0  0
   49.2782    9.7247   11.3047 H   0  0  0  0  0  0  0  0  0  0  0  0
   49.2042   10.0020   13.0424 H   0  0  0  0  0  0  0  0  0  0  0  0
   48.0976    8.2340   13.8622 H   0  0  0  0  0  0  0  0  0  0  0  0
   47.9562    6.5114   13.6766 H   0  0  0  0  0  0  0  0  0  0  0  0
   47.8587   11.6464   18.8680 H   0  0  0  0  0  0  0  0  0  0  0  0
   50.0550    6.3824   12.4272 H   0  0  0  0  0  0  0  0  0  0  0  0
   48.8711    7.3966   11.6173 H   0  0  0  0  0  0  0  0  0  0  0  0
   48.7199    4.6726   14.8227 H   0  0  0  0  0  0  0  0  0  0  0  0
   46.8216    4.1235   19.3379 H   0  0  0  0  0  0  0  0  0  0  0  0
   50.7032   10.1539    9.4820 H   0  0  0  0  0  0  0  0  0  0  0  0
   51.1061   11.8747    9.6175 H   0  0  0  0  0  0  0  0  0  0  0  0
   52.3147   10.7423    9.0371 H   0  0  0  0  0  0  0  0  0  0  0  0
   47.9431    2.5080   15.5470 H   0  0  0  0  0  0  0  0  0  0  0  0
   46.9789    2.2000   17.8129 H   0  0  0  0  0  0  0  0  0  0  0  0
   51.4948    8.0989   13.3346 H   0  0  0  0  0  0  0  0  0  0  0  0
   51.3082    7.2659   15.6060 H   0  0  0  0  0  0  0  0  0  0  0  0
   48.0866    9.9968   13.1886 H   0  0  0  0  0  0  0  0  0  0  0  0
   47.4112    7.1640   15.8103 H   0  0  0  0  0  0  0  0  0  0  0  0
  2  4  1  0
  3  1  1  0
  4  3  2  0
  5  1  2  0
  6  2  2  0
  7  1  1  0
  8  2  1  0
 10  9  1  0
 11 14  1  0
 12  9  1  0
 13 10  2  0
 14 12  2  0
 15 10  1  0
 16 27  1  0
 17 22  1  0
 18 13  1  0
 19  9  1  0
 20 15  2  0
 21 23  1  0
 22 24  1  0
 23 16  1  0
 24 16  1  0
 25 19  1  0
 26 20  1  0
 27 25  1  0
 28 20  1  0
 29 12  1  0
 30 14  1  0
 31 17  1  0
 32 29  2  0
 33 30  2  0
 11 13  1  0
 32 33  1  0
 26 18  2  0
 17 21  1  0
 35 37  1  0
 36 34  1  0
 37 36  2  0
 38 34  2  0
 39 35  2  0
 40 34  1  0
 41 35  1  0
  3 42  1  0
  4 43  1  0
  7 44  1  0
  8 45  1  0
 15 46  1  0
 18 47  1  0
 19 48  1  0
 19 49  1  0
 21 50  1  0
 21 51  1  0
 22 52  1  0
 22 53  1  0
 23 54  1  0
 23 55  1  0
 24 56  1  0
 24 57  1  0
 25 58  1  0
 25 59  1  0
 26 60  1  0
 27 61  1  0
 27 62  1  0
 29 63  1  0
 30 64  1  0
 31 65  1  0
 31 66  1  0
 31 67  1  0
 32 68  1  0
 33 69  1  0
 36 70  1  0
 37 71  1  0
 40 72  1  0
 41 73  1  0
M  END
> <Uni-Dock RESULT> 
ENERGY=   -4.724  LOWER_BOUND=    3.704  UPPER_BOUND=    4.777
INTER + INTRA:          -4.724
INTER:                  -4.724
INTRA:                   0.000
UNBOUND:                 0.000

$$$$

     RDKit          3D

 73 74  0  0  0  0  0  0  0  0999 V2000
   48.7209    8.8797   18.1538 C   0  0  0  0  0  0  0  0  0  0  0  0
   48.0635    8.2522   21.0806 C   0  0  0  0  0  0  0  0  0  0  0  0
   47.6449    9.4836   18.9450 C   0  0  0  0  0  0  0  0  0  0  0  0
   47.3335    9.1803   20.2125 C   0  0  0  0  0  0  0  0  0  0  0  0
   49.3930    9.4748   17.3320 O   0  0  0  0  0  0  0  0  0  0  0  0
   47.5451    7.5261   21.9085 O   0  0  0  0  0  0  0  0  0  0  0  0
   48.8148    7.5535   18.3283 O   0  0  0  0  0  0  0  0  0  0  0  0
   49.3946    8.3700   20.9675 O   0  0  0  0  0  0  0  0  0  0  0  0
   48.6093   10.0508   17.9328 N   0  0  0  0  0  0  0  0  0  0  0  0
   48.7462    8.9569   17.0268 C   0  0  0  0  0  0  0  0  0  0  0  0
   49.0711   10.7616   14.8925 S   0  0  0  0  0  0  0  0  0  0  0  0
   48.4622   11.4195   17.5605 C   0  0  0  0  0  0  0  0  0  0  0  0
   48.9327    9.1585   15.6432 C   0  0  0  0  0  0  0  0  0  0  0  0
   48.6273   11.8468   16.2269 C   0  0  0  0  0  0  0  0  0  0  0  0
   48.6802    7.6115   17.4554 C   0  0  0  0  0  0  0  0  0  0  0  0
   48.2071    7.9905   21.8253 N   0  0  0  0  0  0  0  0  0  0  0  0
   48.7373    5.4498   23.3336 N   0  0  0  0  0  0  0  0  0  0  0  0
   49.0519    8.0680   14.7566 C   0  0  0  0  0  0  0  0  0  0  0  0
   48.7071    9.7447   19.3828 C   0  0  0  0  0  0  0  0  0  0  0  0
   48.7951    6.5362   16.5691 C   0  0  0  0  0  0  0  0  0  0  0  0
   49.3768    6.7365   23.6691 C   0  0  0  0  0  0  0  0  0  0  0  0
   48.3162    5.4772   21.9193 C   0  0  0  0  0  0  0  0  0  0  0  0
   48.5719    7.9928   23.2581 C   0  0  0  0  0  0  0  0  0  0  0  0
   47.5047    6.7288   21.5039 C   0  0  0  0  0  0  0  0  0  0  0  0
   47.3247    9.4542   19.9888 C   0  0  0  0  0  0  0  0  0  0  0  0
   48.9825    6.7579   15.2165 C   0  0  0  0  0  0  0  0  0  0  0  0
   47.4014    9.1739   21.4941 C   0  0  0  0  0  0  0  0  0  0  0  0
   48.6948    4.9245   17.1667 Cl  0  0  0  0  0  0  0  0  0  0  0  0
   48.1207   12.4251   18.4948 C   0  0  0  0  0  0  0  0  0  0  0  0
   48.4706   13.2021   15.8713 C   0  0  0  0  0  0  0  0  0  0  0  0
   47.6188    5.1525   24.2249 C   0  0  0  0  0  0  0  0  0  0  0  0
   47.9636   13.7701   18.1366 C   0  0  0  0  0  0  0  0  0  0  0  0
   48.1405   14.1609   16.8211 C   0  0  0  0  0  0  0  0  0  0  0  0
   47.6200    7.8241   20.7201 C   0  0  0  0  0  0  0  0  0  0  0  0
   48.8269    9.4162   18.3966 C   0  0  0  0  0  0  0  0  0  0  0  0
   48.9468    8.4463   20.6981 C   0  0  0  0  0  0  0  0  0  0  0  0
   49.4890    9.1088   19.6673 C   0  0  0  0  0  0  0  0  0  0  0  0
   46.8940    7.7770   21.6959 O   0  0  0  0  0  0  0  0  0  0  0  0
   49.3827    9.4369   17.3140 O   0  0  0  0  0  0  0  0  0  0  0  0
   47.3245    7.1855   19.5786 O   0  0  0  0  0  0  0  0  0  0  0  0
   47.5533    9.8058   18.5531 O   0  0  0  0  0  0  0  0  0  0  0  0
   47.0796   10.2406   18.4135 H   0  0  0  0  0  0  0  0  0  0  0  0
   46.4695    9.6358   20.6829 H   0  0  0  0  0  0  0  0  0  0  0  0
   49.5406    7.2893   17.7261 H   0  0  0  0  0  0  0  0  0  0  0  0
   49.7422    7.7236   21.6159 H   0  0  0  0  0  0  0  0  0  0  0  0
   48.5238    7.3601   18.4978 H   0  0  0  0  0  0  0  0  0  0  0  0
   49.2025    8.2406   13.6923 H   0  0  0  0  0  0  0  0  0  0  0  0
   49.1964   10.5634   19.9258 H   0  0  0  0  0  0  0  0  0  0  0  0
   49.3999    8.9130   19.5592 H   0  0  0  0  0  0  0  0  0  0  0  0
   49.6008    6.7789   24.7422 H   0  0  0  0  0  0  0  0  0  0  0  0
   50.3521    6.7688   23.1648 H   0  0  0  0  0  0  0  0  0  0  0  0
   47.7446    4.5724   21.6778 H   0  0  0  0  0  0  0  0  0  0  0  0
   49.2200    5.4274   21.2969 H   0  0  0  0  0  0  0  0  0  0  0  0
   47.6733    8.0740   23.8832 H   0  0  0  0  0  0  0  0  0  0  0  0
   49.1930    8.8717   23.4703 H   0  0  0  0  0  0  0  0  0  0  0  0
   46.5210    6.7026   21.9899 H   0  0  0  0  0  0  0  0  0  0  0  0
   47.3292    6.6606   20.4257 H   0  0  0  0  0  0  0  0  0  0  0  0
   46.8346    8.6253   19.4678 H   0  0  0  0  0  0  0  0  0  0  0  0
   46.6625   10.3149   19.8382 H   0  0  0  0  0  0  0  0  0  0  0  0
   49.0746    5.9296   14.5205 H   0  0  0  0  0  0  0  0  0  0  0  0
   47.8435   10.0619   21.9653 H   0  0  0  0  0  0  0  0  0  0  0  0
   46.3872    9.0813   21.9031 H   0  0  0  0  0  0  0  0  0  0  0  0
   47.9475   12.1959   19.5406 H   0  0  0  0  0  0  0  0  0  0  0  0
   48.6089   13.5172   14.8386 H   0  0  0  0  0  0  0  0  0  0  0  0
   46.8166    5.8957   24.1805 H   0  0  0  0  0  0  0  0  0  0  0  0
   47.1889    4.1741   23.9826 H   0  0  0  0  0  0  0  0  0  0  0  0
   47.9661    5.0897   25.2623 H   0  0  0  0  0  0  0  0  0  0  0  0
   47.6991   14.5050   18.8926 H   0  0  0  0  0  0  0  0  0  0  0  0
   48.0218   15.2013   16.5325 H   0  0  0  0  0  0  0  0  0  0  0  0
   49.5003    8.3355   21.6236 H   0  0  0  0  0  0  0  0  0  0  0  0
   50.5096    9.4688   19.7303 H   0  0  0  0  0  0  0  0  0  0  0  0
   46.4397    6.8013   19.7479 H   0  0  0  0  0  0  0  0  0  0  0  0
   47.2555   10.0031   17.6413 H   0  0  0  0  0  0  0  0  0  0  0  0
  2  4  1  0
  3  1  1  0
  4  3  2  0
  5  1  2  0
  6  2  2  0
  7  1  1  0
  8  2  1  0
 10  9  1  0
 11 14  1  0
 12  9  1  0
 13 10  2  0
 14 12  2  0
 15 10  1  0
 16 27  1  0
 17 22  1  0
 18 13  1  0
 19  9  1  0
 20 15  2  0
 21 23  1  0
 22 24  1  0
 23 16  1  0
 24 16  1  0
 25 19  1  0
 26 20  1  0
 27 25  1  0
 28 20  1  0
 29 12  1  0
 30 14  1  0
 31 17  1  0
 32 29  2  0
 33 30  2  0
 11 13  1  0
 32 33  1  0
 26 18  2  0
 17 21  1  0
 35 37  1  0
 36 34  1  0
 37 36  2  0
 38 34  2  0
 39 35  2  0
 40 34  1  0
 41 35  1  0
  3 42  1  0
  4 43  1  0
  7 44  1  0
  8 45  1  0
 15 46  1  0
 18 47  1  0
 19 48  1  0
 19 49  1  0
 21 50  1  0
 21 51  1  0
 22 52  1  0
 22 53  1  0
 23 54  1  0
 23 55  1  0
 24 56  1  0
 24 57  1  0
 25 58  1  0
 25 59  1  0
 26 60  1  0
 27 61  1  0
 27 62  1  0
 29 63  1  0
 30 64  1  0
 31 65  1  0
 31 66  1  0
 31 67  1  0
 32 68  1  0
 33 69  1  0
 36 70  1  0
 37 71  1  0
 40 72  1  0
 41 73  1  0
M  END
> <Uni-Dock RESULT> 
ENERGY=   -4.472  LOWER_BOUND=    5.966  UPPER_BOUND=    8.433
INTER + INTRA:          -4.472
INTER:                  -4.472
INTRA:                   0.000
UNBOUND:                 0.000

$$$$

     RDKit          3D

 73 74  0  0  0  0  0  0  0  0999 V2000
   48.1063    8.2351   19.1129 C   0  0  0  0  0  0  0  0  0  0  0  0
   48.4071   11.2770   18.8921 C   0  0  0  0  0  0  0  0  0  0  0  0
   48.7998    9.1050   20.0672 C   0  0  0  0  0  0  0  0  0  0  0  0
   48.9646   10.4296   19.9500 C   0  0  0  0  0  0  0  0  0  0  0  0
   47.4391    7.2646   19.4198 O   0  0  0  0  0  0  0  0  0  0  0  0
   48.9681   12.2452   18.4134 O   0  0  0  0  0  0  0  0  0  0  0  0
   48.3843    8.5361   17.8360 O   0  0  0  0  0  0  0  0  0  0  0  0
   47.1419   10.9587   18.5816 O   0  0  0  0  0  0  0  0  0  0  0  0
   47.8993    7.9076   20.2454 N   0  0  0  0  0  0  0  0  0  0  0  0
   48.2535    7.1148   19.1131 C   0  0  0  0  0  0  0  0  0  0  0  0
   47.7768    4.7737   20.5996 S   0  0  0  0  0  0  0  0  0  0  0  0
   47.6926    7.4152   21.5677 C   0  0  0  0  0  0  0  0  0  0  0  0
   48.2563    5.7052   19.1660 C   0  0  0  0  0  0  0  0  0  0  0  0
   47.6395    6.0336   21.8443 C   0  0  0  0  0  0  0  0  0  0  0  0
   48.6436    7.6911   17.8827 C   0  0  0  0  0  0  0  0  0  0  0  0
   48.2223   12.0165   18.6422 N   0  0  0  0  0  0  0  0  0  0  0  0
   48.2239   13.6967   16.1545 N   0  0  0  0  0  0  0  0  0  0  0  0
   48.6228    4.9336   18.0436 C   0  0  0  0  0  0  0  0  0  0  0  0
   47.6493    9.3523   20.0083 C   0  0  0  0  0  0  0  0  0  0  0  0
   49.0094    6.9189   16.7759 C   0  0  0  0  0  0  0  0  0  0  0  0
   47.1815   13.7943   17.1942 C   0  0  0  0  0  0  0  0  0  0  0  0
   48.8544   12.3644   16.2303 C   0  0  0  0  0  0  0  0  0  0  0  0
   47.6326   13.3721   18.6131 C   0  0  0  0  0  0  0  0  0  0  0  0
   49.3138   11.9392   17.6466 C   0  0  0  0  0  0  0  0  0  0  0  0
   48.9295   10.1814   20.1996 C   0  0  0  0  0  0  0  0  0  0  0  0
   49.0001    5.5374   16.8496 C   0  0  0  0  0  0  0  0  0  0  0  0
   48.6821   11.6807   19.9967 C   0  0  0  0  0  0  0  0  0  0  0  0
   49.4821    7.6952   15.3136 Cl  0  0  0  0  0  0  0  0  0  0  0  0
   47.5521    8.2752   22.6818 C   0  0  0  0  0  0  0  0  0  0  0  0
   47.4430    5.5604   23.1578 C   0  0  0  0  0  0  0  0  0  0  0  0
   49.2092   14.7685   16.2733 C   0  0  0  0  0  0  0  0  0  0  0  0
   47.3595    7.8007   23.9855 C   0  0  0  0  0  0  0  0  0  0  0  0
   47.3031    6.4391   24.2249 C   0  0  0  0  0  0  0  0  0  0  0  0
   49.0134   11.0334   18.6039 C   0  0  0  0  0  0  0  0  0  0  0  0
   47.8048    8.4004   19.6025 C   0  0  0  0  0  0  0  0  0  0  0  0
   47.5859   10.7509   18.7782 C   0  0  0  0  0  0  0  0  0  0  0  0
   47.0564    9.5866   19.1776 C   0  0  0  0  0  0  0  0  0  0  0  0
   49.5410   12.1040   18.8424 O   0  0  0  0  0  0  0  0  0  0  0  0
   47.4632    7.2525   19.3860 O   0  0  0  0  0  0  0  0  0  0  0  0
   49.6779   10.0229   18.0247 O   0  0  0  0  0  0  0  0  0  0  0  0
   48.8570    8.6982   20.3787 O   0  0  0  0  0  0  0  0  0  0  0  0
   49.1958    8.5831   20.9309 H   0  0  0  0  0  0  0  0  0  0  0  0
   49.5586   10.9691   20.6789 H   0  0  0  0  0  0  0  0  0  0  0  0
   47.8855    7.8666   17.3241 H   0  0  0  0  0  0  0  0  0  0  0  0
   46.8970   11.6153   17.8975 H   0  0  0  0  0  0  0  0  0  0  0  0
   48.6860    8.7661   17.7533 H   0  0  0  0  0  0  0  0  0  0  0  0
   48.6130    3.8464   18.0988 H   0  0  0  0  0  0  0  0  0  0  0  0
   46.8521    9.7264   20.6632 H   0  0  0  0  0  0  0  0  0  0  0  0
   47.2171    9.5144   19.0135 H   0  0  0  0  0  0  0  0  0  0  0  0
   46.7739   14.8124   17.2264 H   0  0  0  0  0  0  0  0  0  0  0  0
   46.3431   13.1526   16.8911 H   0  0  0  0  0  0  0  0  0  0  0  0
   49.7028   12.3080   15.5369 H   0  0  0  0  0  0  0  0  0  0  0  0
   48.1280   11.6258   15.8649 H   0  0  0  0  0  0  0  0  0  0  0  0
   48.3442   14.1091   19.0068 H   0  0  0  0  0  0  0  0  0  0  0  0
   46.7505   13.3952   19.2648 H   0  0  0  0  0  0  0  0  0  0  0  0
   50.1614   12.5636   17.9570 H   0  0  0  0  0  0  0  0  0  0  0  0
   49.6845   10.9119   17.5744 H   0  0  0  0  0  0  0  0  0  0  0  0
   49.7268    9.8300   19.5365 H   0  0  0  0  0  0  0  0  0  0  0  0
   49.3199   10.0370   21.2139 H   0  0  0  0  0  0  0  0  0  0  0  0
   49.2808    4.9290   15.9952 H   0  0  0  0  0  0  0  0  0  0  0  0
   47.9208   11.9837   20.7280 H   0  0  0  0  0  0  0  0  0  0  0  0
   49.5915   12.2409   20.2493 H   0  0  0  0  0  0  0  0  0  0  0  0
   47.6031    9.3537   22.5790 H   0  0  0  0  0  0  0  0  0  0  0  0
   47.3969    4.4907   23.3537 H   0  0  0  0  0  0  0  0  0  0  0  0
   49.7479   14.7617   17.2261 H   0  0  0  0  0  0  0  0  0  0  0  0
   49.9467   14.6987   15.4659 H   0  0  0  0  0  0  0  0  0  0  0  0
   48.7234   15.7447   16.1652 H   0  0  0  0  0  0  0  0  0  0  0  0
   47.2581    8.5034   24.8087 H   0  0  0  0  0  0  0  0  0  0  0  0
   47.1534    6.0603   25.2319 H   0  0  0  0  0  0  0  0  0  0  0  0
   46.9400   11.5922   18.5537 H   0  0  0  0  0  0  0  0  0  0  0  0
   45.9799    9.4607   19.2038 H   0  0  0  0  0  0  0  0  0  0  0  0
   50.5941   10.3600   17.9466 H   0  0  0  0  0  0  0  0  0  0  0  0
   49.2346    7.8237   20.6061 H   0  0  0  0  0  0  0  0  0  0  0  0
  2  4  1  0
  3  1  1  0
  4  3  2  0
  5  1  2  0
  6  2  2  0
  7  1  1  0
  8  2  1  0
 10  9  1  0
 11 14  1  0
 12  9  1  0
 13 10  2  0
 14 12  2  0
 15 10  1  0
 16 27  1  0
 17 22  1  0
 18 13  1  0
 19  9  1  0
 20 15  2  0
 21 23  1  0
 22 24  1  0
 23 16  1  0
 24 16  1  0
 25 19  1  0
 26 20  1  0
 27 25  1  0
 28 20  1  0
 29 12  1  0
 30 14  1  0
 31 17  1  0
 32 29  2  0
 33 30  2  0
 11 13  1  0
 32 33  1  0
 26 18  2  0
 17 21  1  0
 35 37  1  0
 36 34  1  0
 37 36  2  0
 38 34  2  0
 39 35  2  0
 40 34  1  0
 41 35  1  0
  3 42  1  0
  4 43  1  0
  7 44  1  0
  8 45  1  0
 15 46  1  0
 18 47  1  0
 19 48  1  0
 19 49  1  0
 21 50  1  0
 21 51  1  0
 22 52  1  0
 22 53  1  0
 23 54  1  0
 23 55  1  0
 24 56  1  0
 24 57  1  0
 25 58  1  0
 25 59  1  0
 26 60  1  0
 27 61  1  0
 27 62  1  0
 29 63  1  0
 30 64  1  0
 31 65  1  0
 31 66  1  0
 31 67  1  0
 32 68  1  0
 33 69  1  0
 36 70  1  0
 37 71  1  0
 40 72  1  0
 41 73  1  0
M  END
> <Uni-Dock RESULT> 
ENERGY=   -4.382  LOWER_BOUND=    5.924  UPPER_BOUND=    7.932
INTER + INTRA:          -4.382
INTER:                  -4.382
INTRA:                   0.000
UNBOUND:                 0.000

$$$$
