
     RDKit          3D

 73 74  0  0  0  0  0  0  0  0999 V2000
   49.6087    7.6222   14.5166 C   0  0  0  0  0  0  0  0  0  0  0  0
   47.1145    8.5070   13.0991 C   0  0  0  0  0  0  0  0  0  0  0  0
   48.6005    6.7157   13.9632 C   0  0  0  0  0  0  0  0  0  0  0  0
   47.4648    7.1064   13.3693 C   0  0  0  0  0  0  0  0  0  0  0  0
   50.8069    7.5323   14.3280 O   0  0  0  0  0  0  0  0  0  0  0  0
   47.8570    9.4637   13.0068 O   0  0  0  0  0  0  0  0  0  0  0  0
   49.0721    8.5033   15.3725 O   0  0  0  0  0  0  0  0  0  0  0  0
   45.7892    8.6106   12.9096 O   0  0  0  0  0  0  0  0  0  0  0  0
   46.2361    7.8373   12.6917 N   0  0  0  0  0  0  0  0  0  0  0  0
   46.0323    6.4335   12.8401 C   0  0  0  0  0  0  0  0  0  0  0  0
   43.8075    6.5716   11.1215 S   0  0  0  0  0  0  0  0  0  0  0  0
   45.3302    8.7425   12.0636 C   0  0  0  0  0  0  0  0  0  0  0  0
   44.9655    5.7671   12.2010 C   0  0  0  0  0  0  0  0  0  0  0  0
   44.2013    8.2878   11.3520 C   0  0  0  0  0  0  0  0  0  0  0  0
   46.8676    5.6335   13.6520 C   0  0  0  0  0  0  0  0  0  0  0  0
   49.9763    8.8184   14.9009 N   0  0  0  0  0  0  0  0  0  0  0  0
   52.3904    7.3879   15.1568 N   0  0  0  0  0  0  0  0  0  0  0  0
   44.7691    4.3799   12.3643 C   0  0  0  0  0  0  0  0  0  0  0  0
   47.5458    8.3853   13.1315 C   0  0  0  0  0  0  0  0  0  0  0  0
   46.6631    4.2592   13.8119 C   0  0  0  0  0  0  0  0  0  0  0  0
   51.4374    7.2025   16.2545 C   0  0  0  0  0  0  0  0  0  0  0  0
   52.4939    8.8134   14.7957 C   0  0  0  0  0  0  0  0  0  0  0  0
   50.0184    7.7273   15.9004 C   0  0  0  0  0  0  0  0  0  0  0  0
   51.1929    9.6375   15.0029 C   0  0  0  0  0  0  0  0  0  0  0  0
   47.4893    8.8730   14.5879 C   0  0  0  0  0  0  0  0  0  0  0  0
   45.6156    3.6252   13.1682 C   0  0  0  0  0  0  0  0  0  0  0  0
   48.7599    9.6289   14.9948 C   0  0  0  0  0  0  0  0  0  0  0  0
   47.7194    3.3503   14.8236 Cl  0  0  0  0  0  0  0  0  0  0  0  0
   45.4930   10.1458   12.1356 C   0  0  0  0  0  0  0  0  0  0  0  0
   43.3104    9.1950   10.7425 C   0  0  0  0  0  0  0  0  0  0  0  0
   53.6941    6.8113   15.4544 C   0  0  0  0  0  0  0  0  0  0  0  0
   44.6042   11.0433   11.5302 C   0  0  0  0  0  0  0  0  0  0  0  0
   43.5100   10.5670   10.8296 C   0  0  0  0  0  0  0  0  0  0  0  0
   49.4513    8.1965   14.0359 C   0  0  0  0  0  0  0  0  0  0  0  0
   46.6124    7.8703   13.1281 C   0  0  0  0  0  0  0  0  0  0  0  0
   48.6306    7.0046   14.2892 C   0  0  0  0  0  0  0  0  0  0  0  0
   47.3770    6.8470   13.8444 C   0  0  0  0  0  0  0  0  0  0  0  0
   49.3312    9.0163   13.1482 O   0  0  0  0  0  0  0  0  0  0  0  0
   45.9846    7.6832   12.1036 O   0  0  0  0  0  0  0  0  0  0  0  0
   50.4454    8.2574   14.9361 O   0  0  0  0  0  0  0  0  0  0  0  0
   46.5783    9.0295   13.8006 O   0  0  0  0  0  0  0  0  0  0  0  0
   48.8447    5.6640   14.0506 H   0  0  0  0  0  0  0  0  0  0  0  0
   46.7547    6.3680   13.0159 H   0  0  0  0  0  0  0  0  0  0  0  0
   49.8276    9.0651   15.6413 H   0  0  0  0  0  0  0  0  0  0  0  0
   45.6548    9.5657   12.7355 H   0  0  0  0  0  0  0  0  0  0  0  0
   47.7002    6.0625   14.1960 H   0  0  0  0  0  0  0  0  0  0  0  0
   43.9464    3.8790   11.8573 H   0  0  0  0  0  0  0  0  0  0  0  0
   47.8699    9.1966   12.4675 H   0  0  0  0  0  0  0  0  0  0  0  0
   48.3464    7.6476   12.9963 H   0  0  0  0  0  0  0  0  0  0  0  0
   51.7968    7.7245   17.1517 H   0  0  0  0  0  0  0  0  0  0  0  0
   51.3538    6.1396   16.5119 H   0  0  0  0  0  0  0  0  0  0  0  0
   53.2906    9.3094   15.3658 H   0  0  0  0  0  0  0  0  0  0  0  0
   52.7763    8.8644   13.7370 H   0  0  0  0  0  0  0  0  0  0  0  0
   49.4393    6.8879   15.5009 H   0  0  0  0  0  0  0  0  0  0  0  0
   49.5392    8.0346   16.8390 H   0  0  0  0  0  0  0  0  0  0  0  0
   51.1777   10.4372   14.2524 H   0  0  0  0  0  0  0  0  0  0  0  0
   51.2304   10.1201   15.9890 H   0  0  0  0  0  0  0  0  0  0  0  0
   47.3075    8.0369   15.2716 H   0  0  0  0  0  0  0  0  0  0  0  0
   46.6361    9.5476   14.7273 H   0  0  0  0  0  0  0  0  0  0  0  0
   45.4507    2.5583   13.2839 H   0  0  0  0  0  0  0  0  0  0  0  0
   48.6377   10.0293   16.0095 H   0  0  0  0  0  0  0  0  0  0  0  0
   48.8487   10.4983   14.3300 H   0  0  0  0  0  0  0  0  0  0  0  0
   46.3150   10.5957   12.6822 H   0  0  0  0  0  0  0  0  0  0  0  0
   42.4480    8.8274   10.1892 H   0  0  0  0  0  0  0  0  0  0  0  0
   54.1597    7.2720   16.3327 H   0  0  0  0  0  0  0  0  0  0  0  0
   54.3716    6.9310   14.6017 H   0  0  0  0  0  0  0  0  0  0  0  0
   53.6059    5.7351   15.6391 H   0  0  0  0  0  0  0  0  0  0  0  0
   44.7737   12.1137   11.6146 H   0  0  0  0  0  0  0  0  0  0  0  0
   42.8150   11.2541   10.3555 H   0  0  0  0  0  0  0  0  0  0  0  0
   49.1163    6.2072   14.8399 H   0  0  0  0  0  0  0  0  0  0  0  0
   46.8547    5.9082   13.9835 H   0  0  0  0  0  0  0  0  0  0  0  0
   50.9320    9.0712   14.6886 H   0  0  0  0  0  0  0  0  0  0  0  0
   46.0818    9.6326   13.2103 H   0  0  0  0  0  0  0  0  0  0  0  0
  2  4  1  0
  3  1  1  0
  4  3  2  0
  5  1  2  0
  6  2  2  0
  7  1  1  0
  8  2  1  0
 10  9  1  0
 11 14  1  0
 12  9  1  0
 13 10  2  0
 14 12  2  0
 15 10  1  0
 16 27  1  0
 17 22  1  0
 18 13  1  0
 19  9  1  0
 20 15  2  0
 21 23  1  0
 22 24  1  0
 23 16  1  0
 24 16  1  0
 25 19  1  0
 26 20  1  0
 27 25  1  0
 28 20  1  0
 29 12  1  0
 30 14  1  0
 31 17  1  0
 32 29  2  0
 33 30  2  0
 11 13  1  0
 32 33  1  0
 26 18  2  0
 17 21  1  0
 35 37  1  0
 36 34  1  0
 37 36  2  0
 38 34  2  0
 39 35  2  0
 40 34  1  0
 41 35  1  0
  3 42  1  0
  4 43  1  0
  7 44  1  0
  8 45  1  0
 15 46  1  0
 18 47  1  0
 19 48  1  0
 19 49  1  0
 21 50  1  0
 21 51  1  0
 22 52  1  0
 22 53  1  0
 23 54  1  0
 23 55  1  0
 24 56  1  0
 24 57  1  0
 25 58  1  0
 25 59  1  0
 26 60  1  0
 27 61  1  0
 27 62  1  0
 29 63  1  0
 30 64  1  0
 31 65  1  0
 31 66  1  0
 31 67  1  0
 32 68  1  0
 33 69  1  0
 36 70  1  0
 37 71  1  0
 40 72  1  0
 41 73  1  0
M  END
> <Uni-Dock RESULT> 
ENERGY=   -6.261  LOWER_BOUND=    0.000  UPPER_BOUND=    0.000
INTER + INTRA:          -6.261
INTER:                  -6.261
INTRA:                   0.000
UNBOUND:                 0.000

$$$$

     RDKit          3D

 73 74  0  0  0  0  0  0  0  0999 V2000
   48.4440    9.0448   13.9742 C   0  0  0  0  0  0  0  0  0  0  0  0
   46.5641    6.8889   13.0624 C   0  0  0  0  0  0  0  0  0  0  0  0
   47.1402    9.2863   13.3525 C   0  0  0  0  0  0  0  0  0  0  0  0
   46.3180    8.3282   12.9040 C   0  0  0  0  0  0  0  0  0  0  0  0
   48.8360    9.5685   14.9996 O   0  0  0  0  0  0  0  0  0  0  0  0
   47.2730    6.3322   13.8764 O   0  0  0  0  0  0  0  0  0  0  0  0
   49.2247    8.2670   13.2111 O   0  0  0  0  0  0  0  0  0  0  0  0
   45.8304    6.2062   12.1687 O   0  0  0  0  0  0  0  0  0  0  0  0
   45.5379    7.0128   12.4987 N   0  0  0  0  0  0  0  0  0  0  0  0
   44.9323    8.1967   11.9832 C   0  0  0  0  0  0  0  0  0  0  0  0
   42.6234    6.7305   11.3191 S   0  0  0  0  0  0  0  0  0  0  0  0
   45.0273    5.6896   12.3472 C   0  0  0  0  0  0  0  0  0  0  0  0
   43.6417    8.1822   11.4135 C   0  0  0  0  0  0  0  0  0  0  0  0
   43.7454    5.4458   11.8134 C   0  0  0  0  0  0  0  0  0  0  0  0
   45.5949    9.4449   11.9895 C   0  0  0  0  0  0  0  0  0  0  0  0
   49.4402    8.2438   14.2563 N   0  0  0  0  0  0  0  0  0  0  0  0
   50.1600   10.5535   15.7009 N   0  0  0  0  0  0  0  0  0  0  0  0
   43.0583    9.3584   10.8981 C   0  0  0  0  0  0  0  0  0  0  0  0
   46.7417    7.1809   13.3541 C   0  0  0  0  0  0  0  0  0  0  0  0
   45.0107   10.6056   11.4723 C   0  0  0  0  0  0  0  0  0  0  0  0
   50.4530   10.6002   14.2658 C   0  0  0  0  0  0  0  0  0  0  0  0
   50.5658    9.2559   16.2708 C   0  0  0  0  0  0  0  0  0  0  0  0
   49.7359    9.4684   13.4789 C   0  0  0  0  0  0  0  0  0  0  0  0
   50.4630    8.0513   15.2947 C   0  0  0  0  0  0  0  0  0  0  0  0
   48.0341    7.0958   12.5268 C   0  0  0  0  0  0  0  0  0  0  0  0
   43.7402   10.5694   10.9264 C   0  0  0  0  0  0  0  0  0  0  0  0
   49.2861    7.0573   13.4114 C   0  0  0  0  0  0  0  0  0  0  0  0
   45.8826   12.0902   11.5087 Cl  0  0  0  0  0  0  0  0  0  0  0  0
   45.7800    4.5446   12.6981 C   0  0  0  0  0  0  0  0  0  0  0  0
   43.2570    4.1317   11.6628 C   0  0  0  0  0  0  0  0  0  0  0  0
   50.7561   11.6691   16.4225 C   0  0  0  0  0  0  0  0  0  0  0  0
   45.2914    3.2408   12.5448 C   0  0  0  0  0  0  0  0  0  0  0  0
   44.0251    3.0330   12.0271 C   0  0  0  0  0  0  0  0  0  0  0  0
   48.2578    8.3561   14.2511 C   0  0  0  0  0  0  0  0  0  0  0  0
   46.0638    7.2480   12.5341 C   0  0  0  0  0  0  0  0  0  0  0  0
   47.5295    9.1273   13.2347 C   0  0  0  0  0  0  0  0  0  0  0  0
   46.5213    8.6388   12.5003 C   0  0  0  0  0  0  0  0  0  0  0  0
   47.8895    7.3654   14.8490 O   0  0  0  0  0  0  0  0  0  0  0  0
   44.9034    6.8969   12.6283 O   0  0  0  0  0  0  0  0  0  0  0  0
   49.4440    8.9370   14.4917 O   0  0  0  0  0  0  0  0  0  0  0  0
   47.0695    6.3868   12.3242 O   0  0  0  0  0  0  0  0  0  0  0  0
   46.8589   10.3303   13.2884 H   0  0  0  0  0  0  0  0  0  0  0  0
   45.3831    8.5951   12.4251 H   0  0  0  0  0  0  0  0  0  0  0  0
   50.0392    8.1523   13.7424 H   0  0  0  0  0  0  0  0  0  0  0  0
   46.0561    5.2701   12.3517 H   0  0  0  0  0  0  0  0  0  0  0  0
   46.5963    9.5475   12.3895 H   0  0  0  0  0  0  0  0  0  0  0  0
   42.0579    9.3323   10.4697 H   0  0  0  0  0  0  0  0  0  0  0  0
   46.7523    6.4362   14.1600 H   0  0  0  0  0  0  0  0  0  0  0  0
   46.6972    8.1224   13.9154 H   0  0  0  0  0  0  0  0  0  0  0  0
   51.5362   10.5154   14.1041 H   0  0  0  0  0  0  0  0  0  0  0  0
   50.1384   11.5620   13.8431 H   0  0  0  0  0  0  0  0  0  0  0  0
   51.5993    9.2916   16.6400 H   0  0  0  0  0  0  0  0  0  0  0  0
   49.9212    9.0615   17.1367 H   0  0  0  0  0  0  0  0  0  0  0  0
   48.7844    9.8660   13.1101 H   0  0  0  0  0  0  0  0  0  0  0  0
   50.3533    9.2378   12.6011 H   0  0  0  0  0  0  0  0  0  0  0  0
   50.2402    7.1556   15.8873 H   0  0  0  0  0  0  0  0  0  0  0  0
   51.4418    7.8912   14.8223 H   0  0  0  0  0  0  0  0  0  0  0  0
   48.0958    7.9257   11.8146 H   0  0  0  0  0  0  0  0  0  0  0  0
   48.0287    6.1891   11.9102 H   0  0  0  0  0  0  0  0  0  0  0  0
   43.2773   11.4659   10.5251 H   0  0  0  0  0  0  0  0  0  0  0  0
   50.1736    6.9110   12.7823 H   0  0  0  0  0  0  0  0  0  0  0  0
   49.2089    6.1649   14.0464 H   0  0  0  0  0  0  0  0  0  0  0  0
   46.7875    4.6251   13.0923 H   0  0  0  0  0  0  0  0  0  0  0  0
   42.2615    3.9607   11.2570 H   0  0  0  0  0  0  0  0  0  0  0  0
   51.8488   11.6770   16.3428 H   0  0  0  0  0  0  0  0  0  0  0  0
   50.4876   11.6285   17.4840 H   0  0  0  0  0  0  0  0  0  0  0  0
   50.3782   12.6225   16.0374 H   0  0  0  0  0  0  0  0  0  0  0  0
   45.9097    2.3934   12.8298 H   0  0  0  0  0  0  0  0  0  0  0  0
   43.6359    2.0263   11.9048 H   0  0  0  0  0  0  0  0  0  0  0  0
   47.8276   10.1640   13.1276 H   0  0  0  0  0  0  0  0  0  0  0  0
   45.9614    9.2820   11.8324 H   0  0  0  0  0  0  0  0  0  0  0  0
   49.8494    8.3615   15.1734 H   0  0  0  0  0  0  0  0  0  0  0  0
   46.6504    5.5060   12.4098 H   0  0  0  0  0  0  0  0  0  0  0  0
  2  4  1  0
  3  1  1  0
  4  3  2  0
  5  1  2  0
  6  2  2  0
  7  1  1  0
  8  2  1  0
 10  9  1  0
 11 14  1  0
 12  9  1  0
 13 10  2  0
 14 12  2  0
 15 10  1  0
 16 27  1  0
 17 22  1  0
 18 13  1  0
 19  9  1  0
 20 15  2  0
 21 23  1  0
 22 24  1  0
 23 16  1  0
 24 16  1  0
 25 19  1  0
 26 20  1  0
 27 25  1  0
 28 20  1  0
 29 12  1  0
 30 14  1  0
 31 17  1  0
 32 29  2  0
 33 30  2  0
 11 13  1  0
 32 33  1  0
 26 18  2  0
 17 21  1  0
 35 37  1  0
 36 34  1  0
 37 36  2  0
 38 34  2  0
 39 35  2  0
 40 34  1  0
 41 35  1  0
  3 42  1  0
  4 43  1  0
  7 44  1  0
  8 45  1  0
 15 46  1  0
 18 47  1  0
 19 48  1  0
 19 49  1  0
 21 50  1  0
 21 51  1  0
 22 52  1  0
 22 53  1  0
 23 54  1  0
 23 55  1  0
 24 56  1  0
 24 57  1  0
 25 58  1  0
 25 59  1  0
 26 60  1  0
 27 61  1  0
 27 62  1  0
 29 63  1  0
 30 64  1  0
 31 65  1  0
 31 66  1  0
 31 67  1  0
 32 68  1  0
 33 69  1  0
 36 70  1  0
 37 71  1  0
 40 72  1  0
 41 73  1  0
M  END
> <Uni-Dock RESULT> 
ENERGY=   -6.132  LOWER_BOUND=    2.022  UPPER_BOUND=    3.970
INTER + INTRA:          -6.132
INTER:                  -6.132
INTRA:                   0.000
UNBOUND:                 0.000

$$$$

     RDKit          3D

 73 74  0  0  0  0  0  0  0  0999 V2000
   45.8289   11.3581   11.3098 C   0  0  0  0  0  0  0  0  0  0  0  0
   45.0665    8.5104   11.8776 C   0  0  0  0  0  0  0  0  0  0  0  0
   46.6874   10.3875   11.9921 C   0  0  0  0  0  0  0  0  0  0  0  0
   46.3342    9.1291   12.2868 C   0  0  0  0  0  0  0  0  0  0  0  0
   46.1744   12.0641   10.3815 O   0  0  0  0  0  0  0  0  0  0  0  0
   44.3329    8.8319   10.9647 O   0  0  0  0  0  0  0  0  0  0  0  0
   44.6367   11.4793   11.9103 O   0  0  0  0  0  0  0  0  0  0  0  0
   44.8136    7.4461   12.6562 O   0  0  0  0  0  0  0  0  0  0  0  0
   45.6780    7.7020   12.4765 N   0  0  0  0  0  0  0  0  0  0  0  0
   46.8973    7.8516   13.2012 C   0  0  0  0  0  0  0  0  0  0  0  0
   46.9731    5.0745   13.6532 S   0  0  0  0  0  0  0  0  0  0  0  0
   44.8971    6.5103   12.4090 C   0  0  0  0  0  0  0  0  0  0  0  0
   47.5517    6.7479   13.7879 C   0  0  0  0  0  0  0  0  0  0  0  0
   45.3689    5.2843   12.9207 C   0  0  0  0  0  0  0  0  0  0  0  0
   47.5076    9.1112   13.3954 C   0  0  0  0  0  0  0  0  0  0  0  0
   44.6518   11.7276   10.8723 N   0  0  0  0  0  0  0  0  0  0  0  0
   46.2948   13.7665    9.8316 N   0  0  0  0  0  0  0  0  0  0  0  0
   48.7519    6.9110   14.5108 C   0  0  0  0  0  0  0  0  0  0  0  0
   45.2404    8.8475   11.6367 C   0  0  0  0  0  0  0  0  0  0  0  0
   48.6956    9.2646   14.1174 C   0  0  0  0  0  0  0  0  0  0  0  0
   45.9424   13.9122   11.2465 C   0  0  0  0  0  0  0  0  0  0  0  0
   45.1097   13.3936    9.0381 C   0  0  0  0  0  0  0  0  0  0  0  0
   45.3378   12.6107   11.8423 C   0  0  0  0  0  0  0  0  0  0  0  0
   44.0598   12.5330    9.7942 C   0  0  0  0  0  0  0  0  0  0  0  0
   44.2925    9.7791   12.4087 C   0  0  0  0  0  0  0  0  0  0  0  0
   49.3246    8.1667   14.6765 C   0  0  0  0  0  0  0  0  0  0  0  0
   43.6663   10.8469   11.5035 C   0  0  0  0  0  0  0  0  0  0  0  0
   49.3770   10.8333   14.3180 Cl  0  0  0  0  0  0  0  0  0  0  0  0
   43.5980    6.4891   11.8499 C   0  0  0  0  0  0  0  0  0  0  0  0
   44.5825    4.1159   12.8534 C   0  0  0  0  0  0  0  0  0  0  0  0
   46.9471   14.9550    9.2999 C   0  0  0  0  0  0  0  0  0  0  0  0
   42.8194    5.3263   11.7871 C   0  0  0  0  0  0  0  0  0  0  0  0
   43.3134    4.1350   12.2887 C   0  0  0  0  0  0  0  0  0  0  0  0
   45.4303   10.8320   10.9225 C   0  0  0  0  0  0  0  0  0  0  0  0
   45.5644    8.2678   12.4706 C   0  0  0  0  0  0  0  0  0  0  0  0
   46.3155   10.6019   12.0721 C   0  0  0  0  0  0  0  0  0  0  0  0
   46.4019    9.4401   12.7333 C   0  0  0  0  0  0  0  0  0  0  0  0
   44.9458   10.0102   10.1712 O   0  0  0  0  0  0  0  0  0  0  0  0
   45.9755    7.1306   12.3428 O   0  0  0  0  0  0  0  0  0  0  0  0
   45.2385   12.1508   10.7597 O   0  0  0  0  0  0  0  0  0  0  0  0
   44.2586    8.5693   12.5071 O   0  0  0  0  0  0  0  0  0  0  0  0
   47.6747   10.7569   12.2411 H   0  0  0  0  0  0  0  0  0  0  0  0
   47.0195    8.4844   12.8248 H   0  0  0  0  0  0  0  0  0  0  0  0
   44.1511   12.1185   11.3496 H   0  0  0  0  0  0  0  0  0  0  0  0
   43.9630    7.1036   12.3099 H   0  0  0  0  0  0  0  0  0  0  0  0
   47.0663   10.0168   12.9973 H   0  0  0  0  0  0  0  0  0  0  0  0
   49.2493    6.0481   14.9500 H   0  0  0  0  0  0  0  0  0  0  0  0
   44.7628    8.4928   10.7146 H   0  0  0  0  0  0  0  0  0  0  0  0
   46.1029    9.4020   11.2470 H   0  0  0  0  0  0  0  0  0  0  0  0
   45.2183   14.7294   11.3675 H   0  0  0  0  0  0  0  0  0  0  0  0
   46.8289   14.1775   11.8353 H   0  0  0  0  0  0  0  0  0  0  0  0
   44.5915   14.2840    8.6580 H   0  0  0  0  0  0  0  0  0  0  0  0
   45.4625   12.8298    8.1659 H   0  0  0  0  0  0  0  0  0  0  0  0
   46.1539   12.0373   12.2947 H   0  0  0  0  0  0  0  0  0  0  0  0
   44.6599   12.9060   12.6536 H   0  0  0  0  0  0  0  0  0  0  0  0
   43.5655   11.8838    9.0612 H   0  0  0  0  0  0  0  0  0  0  0  0
   43.2892   13.1961   10.2105 H   0  0  0  0  0  0  0  0  0  0  0  0
   44.8101   10.2495   13.2515 H   0  0  0  0  0  0  0  0  0  0  0  0
   43.4783    9.1996   12.8599 H   0  0  0  0  0  0  0  0  0  0  0  0
   50.2487    8.2756   15.2361 H   0  0  0  0  0  0  0  0  0  0  0  0
   42.9360   11.4307   12.0785 H   0  0  0  0  0  0  0  0  0  0  0  0
   43.0961   10.3212   10.7261 H   0  0  0  0  0  0  0  0  0  0  0  0
   43.1346    7.3864   11.4535 H   0  0  0  0  0  0  0  0  0  0  0  0
   44.9649    3.1751   13.2454 H   0  0  0  0  0  0  0  0  0  0  0  0
   46.3039   15.8402    9.3559 H   0  0  0  0  0  0  0  0  0  0  0  0
   47.2331   14.8016    8.2535 H   0  0  0  0  0  0  0  0  0  0  0  0
   47.8695   15.1671    9.8516 H   0  0  0  0  0  0  0  0  0  0  0  0
   41.8261    5.3624   11.3470 H   0  0  0  0  0  0  0  0  0  0  0  0
   42.7186    3.2272   12.2444 H   0  0  0  0  0  0  0  0  0  0  0  0
   46.9524   11.4340   12.3497 H   0  0  0  0  0  0  0  0  0  0  0  0
   47.1399    9.3017   13.5141 H   0  0  0  0  0  0  0  0  0  0  0  0
   44.6467   12.2040    9.9805 H   0  0  0  0  0  0  0  0  0  0  0  0
   43.8134    7.7273   12.2804 H   0  0  0  0  0  0  0  0  0  0  0  0
  2  4  1  0
  3  1  1  0
  4  3  2  0
  5  1  2  0
  6  2  2  0
  7  1  1  0
  8  2  1  0
 10  9  1  0
 11 14  1  0
 12  9  1  0
 13 10  2  0
 14 12  2  0
 15 10  1  0
 16 27  1  0
 17 22  1  0
 18 13  1  0
 19  9  1  0
 20 15  2  0
 21 23  1  0
 22 24  1  0
 23 16  1  0
 24 16  1  0
 25 19  1  0
 26 20  1  0
 27 25  1  0
 28 20  1  0
 29 12  1  0
 30 14  1  0
 31 17  1  0
 32 29  2  0
 33 30  2  0
 11 13  1  0
 32 33  1  0
 26 18  2  0
 17 21  1  0
 35 37  1  0
 36 34  1  0
 37 36  2  0
 38 34  2  0
 39 35  2  0
 40 34  1  0
 41 35  1  0
  3 42  1  0
  4 43  1  0
  7 44  1  0
  8 45  1  0
 15 46  1  0
 18 47  1  0
 19 48  1  0
 19 49  1  0
 21 50  1  0
 21 51  1  0
 22 52  1  0
 22 53  1  0
 23 54  1  0
 23 55  1  0
 24 56  1  0
 24 57  1  0
 25 58  1  0
 25 59  1  0
 26 60  1  0
 27 61  1  0
 27 62  1  0
 29 63  1  0
 30 64  1  0
 31 65  1  0
 31 66  1  0
 31 67  1  0
 32 68  1  0
 33 69  1  0
 36 70  1  0
 37 71  1  0
 40 72  1  0
 41 73  1  0
M  END
> <Uni-Dock RESULT> 
ENERGY=   -5.439  LOWER_BOUND=    2.858  UPPER_BOUND=    5.895
INTER + INTRA:          -5.439
INTER:                  -5.439
INTRA:                   0.000
UNBOUND:                 0.000

$$$$

     RDKit          3D

 73 74  0  0  0  0  0  0  0  0999 V2000
   47.9481    9.7447   12.9141 C   0  0  0  0  0  0  0  0  0  0  0  0
   48.8318    7.6523   14.8774 C   0  0  0  0  0  0  0  0  0  0  0  0
   47.3221    8.4296   13.0661 C   0  0  0  0  0  0  0  0  0  0  0  0
   47.7409    7.4766   13.9097 C   0  0  0  0  0  0  0  0  0  0  0  0
   47.3498   10.8033   12.8850 O   0  0  0  0  0  0  0  0  0  0  0  0
   49.2685    8.6875   15.3385 O   0  0  0  0  0  0  0  0  0  0  0  0
   49.2641    9.6472   12.6788 O   0  0  0  0  0  0  0  0  0  0  0  0
   49.2966    6.4503   15.2543 O   0  0  0  0  0  0  0  0  0  0  0  0
   48.4183    6.5574   15.0048 N   0  0  0  0  0  0  0  0  0  0  0  0
   47.4639    5.8582   14.2083 C   0  0  0  0  0  0  0  0  0  0  0  0
   47.5123    3.7119   16.0286 S   0  0  0  0  0  0  0  0  0  0  0  0
   49.1409    6.0056   16.1039 C   0  0  0  0  0  0  0  0  0  0  0  0
   47.0047    4.5712   14.5599 C   0  0  0  0  0  0  0  0  0  0  0  0
   48.8340    4.7343   16.6302 C   0  0  0  0  0  0  0  0  0  0  0  0
   46.9418    6.3990   13.0117 C   0  0  0  0  0  0  0  0  0  0  0  0
   48.9480   10.5617   13.1295 N   0  0  0  0  0  0  0  0  0  0  0  0
   47.0809   12.2812   11.9060 N   0  0  0  0  0  0  0  0  0  0  0  0
   46.0681    3.8864   13.7578 C   0  0  0  0  0  0  0  0  0  0  0  0
   48.5965    8.0083   14.7364 C   0  0  0  0  0  0  0  0  0  0  0  0
   46.0166    5.7111   12.2200 C   0  0  0  0  0  0  0  0  0  0  0  0
   47.8311   11.4214   10.9866 C   0  0  0  0  0  0  0  0  0  0  0  0
   47.9817   12.8784   12.9087 C   0  0  0  0  0  0  0  0  0  0  0  0
   48.5781   10.2762   11.7248 C   0  0  0  0  0  0  0  0  0  0  0  0
   49.2030   11.9999   13.2973 C   0  0  0  0  0  0  0  0  0  0  0  0
   49.7320    8.2575   13.7310 C   0  0  0  0  0  0  0  0  0  0  0  0
   45.5736    4.4537   12.5891 C   0  0  0  0  0  0  0  0  0  0  0  0
   50.0712    9.7471   13.5985 C   0  0  0  0  0  0  0  0  0  0  0  0
   45.4295    6.4319   10.7704 Cl  0  0  0  0  0  0  0  0  0  0  0  0
   50.2204    6.6849   16.7155 C   0  0  0  0  0  0  0  0  0  0  0  0
   49.5620    4.1987   17.7124 C   0  0  0  0  0  0  0  0  0  0  0  0
   46.3066   13.2960   11.2050 C   0  0  0  0  0  0  0  0  0  0  0  0
   50.9422    6.1480   17.7892 C   0  0  0  0  0  0  0  0  0  0  0  0
   50.6113    4.9015   18.2910 C   0  0  0  0  0  0  0  0  0  0  0  0
   48.2144    9.7736   13.6310 C   0  0  0  0  0  0  0  0  0  0  0  0
   48.5275    6.9533   14.5994 C   0  0  0  0  0  0  0  0  0  0  0  0
   47.7020    8.5918   12.9246 C   0  0  0  0  0  0  0  0  0  0  0  0
   47.8076    7.3377   13.3834 C   0  0  0  0  0  0  0  0  0  0  0  0
   48.4555    9.8952   14.8149 O   0  0  0  0  0  0  0  0  0  0  0  0
   48.0926    6.2192   15.4657 O   0  0  0  0  0  0  0  0  0  0  0  0
   48.3556   10.7893   12.7644 O   0  0  0  0  0  0  0  0  0  0  0  0
   49.7884    7.4090   14.5977 O   0  0  0  0  0  0  0  0  0  0  0  0
   46.4518    8.2706   12.4412 H   0  0  0  0  0  0  0  0  0  0  0  0
   47.2398    6.5159   13.9360 H   0  0  0  0  0  0  0  0  0  0  0  0
   49.5676   10.5770   12.6325 H   0  0  0  0  0  0  0  0  0  0  0  0
   50.0078    6.6676   15.8926 H   0  0  0  0  0  0  0  0  0  0  0  0
   47.2513    7.3731   12.6533 H   0  0  0  0  0  0  0  0  0  0  0  0
   45.7171    2.8975   14.0475 H   0  0  0  0  0  0  0  0  0  0  0  0
   48.7830    8.5556   15.6691 H   0  0  0  0  0  0  0  0  0  0  0  0
   47.6600    8.4624   14.3900 H   0  0  0  0  0  0  0  0  0  0  0  0
   48.5623   12.0219   10.4284 H   0  0  0  0  0  0  0  0  0  0  0  0
   47.1559   10.9694   10.2500 H   0  0  0  0  0  0  0  0  0  0  0  0
   48.3699   13.8465   12.5653 H   0  0  0  0  0  0  0  0  0  0  0  0
   47.3876   13.0714   13.8103 H   0  0  0  0  0  0  0  0  0  0  0  0
   47.9272    9.3954   11.7248 H   0  0  0  0  0  0  0  0  0  0  0  0
   49.4642   10.0249   11.1278 H   0  0  0  0  0  0  0  0  0  0  0  0
   49.4595   12.2221   14.3403 H   0  0  0  0  0  0  0  0  0  0  0  0
   50.0641   12.2954   12.6825 H   0  0  0  0  0  0  0  0  0  0  0  0
   49.4846    7.8341   12.7516 H   0  0  0  0  0  0  0  0  0  0  0  0
   50.6401    7.7316   14.0491 H   0  0  0  0  0  0  0  0  0  0  0  0
   44.8533    3.9132   11.9824 H   0  0  0  0  0  0  0  0  0  0  0  0
   50.9398    9.8667   12.9380 H   0  0  0  0  0  0  0  0  0  0  0  0
   50.3879   10.0984   14.5894 H   0  0  0  0  0  0  0  0  0  0  0  0
   50.5516    7.6572   16.3665 H   0  0  0  0  0  0  0  0  0  0  0  0
   49.3068    3.2191   18.1127 H   0  0  0  0  0  0  0  0  0  0  0  0
   46.9416   13.9702   10.6197 H   0  0  0  0  0  0  0  0  0  0  0  0
   45.7273   13.8968   11.9148 H   0  0  0  0  0  0  0  0  0  0  0  0
   45.5860   12.8286   10.5250 H   0  0  0  0  0  0  0  0  0  0  0  0
   51.7642    6.7104   18.2248 H   0  0  0  0  0  0  0  0  0  0  0  0
   51.1638    4.4761   19.1238 H   0  0  0  0  0  0  0  0  0  0  0  0
   47.1770    8.7890   11.9970 H   0  0  0  0  0  0  0  0  0  0  0  0
   47.3288    6.5166   12.8638 H   0  0  0  0  0  0  0  0  0  0  0  0
   48.6946   11.5219   13.3199 H   0  0  0  0  0  0  0  0  0  0  0  0
   50.1448    7.1263   15.4647 H   0  0  0  0  0  0  0  0  0  0  0  0
  2  4  1  0
  3  1  1  0
  4  3  2  0
  5  1  2  0
  6  2  2  0
  7  1  1  0
  8  2  1  0
 10  9  1  0
 11 14  1  0
 12  9  1  0
 13 10  2  0
 14 12  2  0
 15 10  1  0
 16 27  1  0
 17 22  1  0
 18 13  1  0
 19  9  1  0
 20 15  2  0
 21 23  1  0
 22 24  1  0
 23 16  1  0
 24 16  1  0
 25 19  1  0
 26 20  1  0
 27 25  1  0
 28 20  1  0
 29 12  1  0
 30 14  1  0
 31 17  1  0
 32 29  2  0
 33 30  2  0
 11 13  1  0
 32 33  1  0
 26 18  2  0
 17 21  1  0
 35 37  1  0
 36 34  1  0
 37 36  2  0
 38 34  2  0
 39 35  2  0
 40 34  1  0
 41 35  1  0
  3 42  1  0
  4 43  1  0
  7 44  1  0
  8 45  1  0
 15 46  1  0
 18 47  1  0
 19 48  1  0
 19 49  1  0
 21 50  1  0
 21 51  1  0
 22 52  1  0
 22 53  1  0
 23 54  1  0
 23 55  1  0
 24 56  1  0
 24 57  1  0
 25 58  1  0
 25 59  1  0
 26 60  1  0
 27 61  1  0
 27 62  1  0
 29 63  1  0
 30 64  1  0
 31 65  1  0
 31 66  1  0
 31 67  1  0
 32 68  1  0
 33 69  1  0
 36 70  1  0
 37 71  1  0
 40 72  1  0
 41 73  1  0
M  END
> <Uni-Dock RESULT> 
ENERGY=   -4.958  LOWER_BOUND=    2.469  UPPER_BOUND=    5.215
INTER + INTRA:          -4.958
INTER:                  -4.958
INTRA:                   0.000
UNBOUND:                 0.000

$$$$

     RDKit          3D

 73 74  0  0  0  0  0  0  0  0999 V2000
   48.6672    5.0088   17.0597 C   0  0  0  0  0  0  0  0  0  0  0  0
   46.8782    4.7209   14.6660 C   0  0  0  0  0  0  0  0  0  0  0  0
   48.5770    5.9798   15.9672 C   0  0  0  0  0  0  0  0  0  0  0  0
   47.8133    5.8340   14.8760 C   0  0  0  0  0  0  0  0  0  0  0  0
   48.6052    5.2821   18.2433 O   0  0  0  0  0  0  0  0  0  0  0  0
   46.3680    3.9998   15.4995 O   0  0  0  0  0  0  0  0  0  0  0  0
   48.9580    3.7792   16.6122 O   0  0  0  0  0  0  0  0  0  0  0  0
   46.5977    4.6100   13.3575 O   0  0  0  0  0  0  0  0  0  0  0  0
   46.8063    5.4261   13.7259 N   0  0  0  0  0  0  0  0  0  0  0  0
   47.6096    6.5539   13.3843 C   0  0  0  0  0  0  0  0  0  0  0  0
   45.9350    7.0846   11.1851 S   0  0  0  0  0  0  0  0  0  0  0  0
   45.7733    4.8703   12.9143 C   0  0  0  0  0  0  0  0  0  0  0  0
   47.3248    7.3535   12.2573 C   0  0  0  0  0  0  0  0  0  0  0  0
   45.3191    5.5163   11.7465 C   0  0  0  0  0  0  0  0  0  0  0  0
   48.7481    6.9224   14.1360 C   0  0  0  0  0  0  0  0  0  0  0  0
   48.4375    3.8143   17.5434 N   0  0  0  0  0  0  0  0  0  0  0  0
   49.4757    5.1376   19.8042 N   0  0  0  0  0  0  0  0  0  0  0  0
   48.1334    8.4603   11.9247 C   0  0  0  0  0  0  0  0  0  0  0  0
   46.9869    4.8477   15.0832 C   0  0  0  0  0  0  0  0  0  0  0  0
   49.5470    8.0190   13.7966 C   0  0  0  0  0  0  0  0  0  0  0  0
   50.4765    4.6792   18.8369 C   0  0  0  0  0  0  0  0  0  0  0  0
   48.4714    4.0863   20.0483 C   0  0  0  0  0  0  0  0  0  0  0  0
   49.8427    4.2753   17.4769 C   0  0  0  0  0  0  0  0  0  0  0  0
   48.1870    3.1582   18.8350 C   0  0  0  0  0  0  0  0  0  0  0  0
   48.0164    3.7066   15.0742 C   0  0  0  0  0  0  0  0  0  0  0  0
   49.2434    8.7943   12.6919 C   0  0  0  0  0  0  0  0  0  0  0  0
   48.0651    2.9605   16.4131 C   0  0  0  0  0  0  0  0  0  0  0  0
   50.9236    8.4031   14.7573 Cl  0  0  0  0  0  0  0  0  0  0  0  0
   45.1605    3.6315   13.2150 C   0  0  0  0  0  0  0  0  0  0  0  0
   44.3021    4.9511   10.9500 C   0  0  0  0  0  0  0  0  0  0  0  0
   50.0798    5.6041   21.0444 C   0  0  0  0  0  0  0  0  0  0  0  0
   44.1518    3.0727   12.4196 C   0  0  0  0  0  0  0  0  0  0  0  0
   43.7195    3.7351   11.2842 C   0  0  0  0  0  0  0  0  0  0  0  0
   47.9606    4.7324   16.9601 C   0  0  0  0  0  0  0  0  0  0  0  0
   47.1891    5.2161   14.1034 C   0  0  0  0  0  0  0  0  0  0  0  0
   48.7220    5.5721   16.0255 C   0  0  0  0  0  0  0  0  0  0  0  0
   48.3496    5.8190   14.7627 C   0  0  0  0  0  0  0  0  0  0  0  0
   46.7813    4.4454   16.9222 O   0  0  0  0  0  0  0  0  0  0  0  0
   46.3563    5.8261   13.4608 O   0  0  0  0  0  0  0  0  0  0  0  0
   48.7645    4.3241   17.9549 O   0  0  0  0  0  0  0  0  0  0  0  0
   47.2091    3.8781   14.1836 O   0  0  0  0  0  0  0  0  0  0  0  0
   49.1775    6.8705   16.1062 H   0  0  0  0  0  0  0  0  0  0  0  0
   47.8301    6.5868   14.0966 H   0  0  0  0  0  0  0  0  0  0  0  0
   48.9557    3.2249   17.4194 H   0  0  0  0  0  0  0  0  0  0  0  0
   45.9741    3.8550   13.3183 H   0  0  0  0  0  0  0  0  0  0  0  0
   49.0542    6.3553   15.0066 H   0  0  0  0  0  0  0  0  0  0  0  0
   47.8951    9.0726   11.0568 H   0  0  0  0  0  0  0  0  0  0  0  0
   46.0285    4.4967   15.4862 H   0  0  0  0  0  0  0  0  0  0  0  0
   47.2675    5.6227   15.8070 H   0  0  0  0  0  0  0  0  0  0  0  0
   51.0221    3.8178   19.2456 H   0  0  0  0  0  0  0  0  0  0  0  0
   51.2147    5.4682   18.6486 H   0  0  0  0  0  0  0  0  0  0  0  0
   48.7659    3.4453   20.8898 H   0  0  0  0  0  0  0  0  0  0  0  0
   47.5373    4.5848   20.3350 H   0  0  0  0  0  0  0  0  0  0  0  0
   49.8750    5.1495   16.8180 H   0  0  0  0  0  0  0  0  0  0  0  0
   50.4879    3.5080   17.0299 H   0  0  0  0  0  0  0  0  0  0  0  0
   47.1422    2.8304   18.8994 H   0  0  0  0  0  0  0  0  0  0  0  0
   48.8135    2.2598   18.9195 H   0  0  0  0  0  0  0  0  0  0  0  0
   49.0110    4.0817   14.8103 H   0  0  0  0  0  0  0  0  0  0  0  0
   47.7676    2.9797   14.2918 H   0  0  0  0  0  0  0  0  0  0  0  0
   49.8560    9.6492   12.4224 H   0  0  0  0  0  0  0  0  0  0  0  0
   48.7489    2.1059   16.3305 H   0  0  0  0  0  0  0  0  0  0  0  0
   47.0662    2.5393   16.5877 H   0  0  0  0  0  0  0  0  0  0  0  0
   45.4581    3.0440   14.0771 H   0  0  0  0  0  0  0  0  0  0  0  0
   43.9566    5.4668   10.0558 H   0  0  0  0  0  0  0  0  0  0  0  0
   50.6440    4.8143   21.5527 H   0  0  0  0  0  0  0  0  0  0  0  0
   49.3112    5.9760   21.7310 H   0  0  0  0  0  0  0  0  0  0  0  0
   50.7608    6.4399   20.8501 H   0  0  0  0  0  0  0  0  0  0  0  0
   43.7123    2.1172   12.6940 H   0  0  0  0  0  0  0  0  0  0  0  0
   42.9375    3.3114   10.6607 H   0  0  0  0  0  0  0  0  0  0  0  0
   49.6144    6.0360   16.4297 H   0  0  0  0  0  0  0  0  0  0  0  0
   48.9027    6.5206   14.1501 H   0  0  0  0  0  0  0  0  0  0  0  0
   48.1761    3.7809   18.5196 H   0  0  0  0  0  0  0  0  0  0  0  0
   46.3763    3.6011   13.7496 H   0  0  0  0  0  0  0  0  0  0  0  0
  2  4  1  0
  3  1  1  0
  4  3  2  0
  5  1  2  0
  6  2  2  0
  7  1  1  0
  8  2  1  0
 10  9  1  0
 11 14  1  0
 12  9  1  0
 13 10  2  0
 14 12  2  0
 15 10  1  0
 16 27  1  0
 17 22  1  0
 18 13  1  0
 19  9  1  0
 20 15  2  0
 21 23  1  0
 22 24  1  0
 23 16  1  0
 24 16  1  0
 25 19  1  0
 26 20  1  0
 27 25  1  0
 28 20  1  0
 29 12  1  0
 30 14  1  0
 31 17  1  0
 32 29  2  0
 33 30  2  0
 11 13  1  0
 32 33  1  0
 26 18  2  0
 17 21  1  0
 35 37  1  0
 36 34  1  0
 37 36  2  0
 38 34  2  0
 39 35  2  0
 40 34  1  0
 41 35  1  0
  3 42  1  0
  4 43  1  0
  7 44  1  0
  8 45  1  0
 15 46  1  0
 18 47  1  0
 19 48  1  0
 19 49  1  0
 21 50  1  0
 21 51  1  0
 22 52  1  0
 22 53  1  0
 23 54  1  0
 23 55  1  0
 24 56  1  0
 24 57  1  0
 25 58  1  0
 25 59  1  0
 26 60  1  0
 27 61  1  0
 27 62  1  0
 29 63  1  0
 30 64  1  0
 31 65  1  0
 31 66  1  0
 31 67  1  0
 32 68  1  0
 33 69  1  0
 36 70  1  0
 37 71  1  0
 40 72  1  0
 41 73  1  0
M  END
> <Uni-Dock RESULT> 
ENERGY=   -4.899  LOWER_BOUND=    3.324  UPPER_BOUND=    4.950
INTER + INTRA:          -4.899
INTER:                  -4.899
INTRA:                   0.000
UNBOUND:                 0.000

$$$$

     RDKit          3D

 73 74  0  0  0  0  0  0  0  0999 V2000
   44.0578   12.1782    9.9542 C   0  0  0  0  0  0  0  0  0  0  0  0
   44.0624    9.3812   11.0451 C   0  0  0  0  0  0  0  0  0  0  0  0
   45.1838   11.5623   10.6595 C   0  0  0  0  0  0  0  0  0  0  0  0
   45.1741   10.3306   11.1866 C   0  0  0  0  0  0  0  0  0  0  0  0
   44.1366   12.7654    8.8919 O   0  0  0  0  0  0  0  0  0  0  0  0
   43.1934    9.3617   10.1969 O   0  0  0  0  0  0  0  0  0  0  0  0
   42.9310   12.1355   10.6789 O   0  0  0  0  0  0  0  0  0  0  0  0
   44.1461    8.4445   12.0036 O   0  0  0  0  0  0  0  0  0  0  0  0
   44.9030    8.8507   11.6760 N   0  0  0  0  0  0  0  0  0  0  0  0
   46.1101    9.3963   12.2046 C   0  0  0  0  0  0  0  0  0  0  0  0
   46.8968    6.8336   13.0624 S   0  0  0  0  0  0  0  0  0  0  0  0
   44.4312    7.5223   11.8937 C   0  0  0  0  0  0  0  0  0  0  0  0
   47.0626    8.5903   12.8632 C   0  0  0  0  0  0  0  0  0  0  0  0
   45.2301    6.5448   12.5212 C   0  0  0  0  0  0  0  0  0  0  0  0
   46.4120   10.7744   12.1229 C   0  0  0  0  0  0  0  0  0  0  0  0
   42.7917   12.1907    9.6221 N   0  0  0  0  0  0  0  0  0  0  0  0
   43.7910   14.3247    8.0771 N   0  0  0  0  0  0  0  0  0  0  0  0
   48.2477    9.1444   13.3904 C   0  0  0  0  0  0  0  0  0  0  0  0
   44.1269    9.6999   10.7350 C   0  0  0  0  0  0  0  0  0  0  0  0
   47.5877   11.3162   12.6523 C   0  0  0  0  0  0  0  0  0  0  0  0
   43.5431   14.6392    9.4868 C   0  0  0  0  0  0  0  0  0  0  0  0
   42.6648   13.5604    7.5109 C   0  0  0  0  0  0  0  0  0  0  0  0
   43.3281   13.3640   10.3481 C   0  0  0  0  0  0  0  0  0  0  0  0
   41.9273   12.6368    8.5197 C   0  0  0  0  0  0  0  0  0  0  0  0
   43.0553   10.5190   11.4719 C   0  0  0  0  0  0  0  0  0  0  0  0
   48.5118   10.5052   13.2862 C   0  0  0  0  0  0  0  0  0  0  0  0
   42.1100   11.2398   10.5032 C   0  0  0  0  0  0  0  0  0  0  0  0
   47.8841   13.0075   12.5204 Cl  0  0  0  0  0  0  0  0  0  0  0  0
   43.1309    7.1114   11.5180 C   0  0  0  0  0  0  0  0  0  0  0  0
   44.7474    5.2376   12.7362 C   0  0  0  0  0  0  0  0  0  0  0  0
   44.0852   15.5140    7.2897 C   0  0  0  0  0  0  0  0  0  0  0  0
   42.6547    5.8122   11.7355 C   0  0  0  0  0  0  0  0  0  0  0  0
   43.4658    4.8711   12.3450 C   0  0  0  0  0  0  0  0  0  0  0  0
   43.7652   11.5157    9.7071 C   0  0  0  0  0  0  0  0  0  0  0  0
   44.6556    9.3663   11.5985 C   0  0  0  0  0  0  0  0  0  0  0  0
   44.7799   11.6990   10.7535 C   0  0  0  0  0  0  0  0  0  0  0  0
   45.2045   10.7237   11.5677 C   0  0  0  0  0  0  0  0  0  0  0  0
   43.4283   10.4854    9.1598 O   0  0  0  0  0  0  0  0  0  0  0  0
   45.3166    8.3457   11.5938 O   0  0  0  0  0  0  0  0  0  0  0  0
   43.2458   12.7071    9.3708 O   0  0  0  0  0  0  0  0  0  0  0  0
   43.3245    9.3700   11.7578 O   0  0  0  0  0  0  0  0  0  0  0  0
   46.0705   12.1816   10.7187 H   0  0  0  0  0  0  0  0  0  0  0  0
   46.0408    9.9625   11.7232 H   0  0  0  0  0  0  0  0  0  0  0  0
   42.2564   12.5389   10.0949 H   0  0  0  0  0  0  0  0  0  0  0  0
   43.3762    7.8643   11.8273 H   0  0  0  0  0  0  0  0  0  0  0  0
   45.7305   11.4720   11.6517 H   0  0  0  0  0  0  0  0  0  0  0  0
   48.9769    8.5075   13.8880 H   0  0  0  0  0  0  0  0  0  0  0  0
   43.6682    9.0880    9.9479 H   0  0  0  0  0  0  0  0  0  0  0  0
   44.7906   10.3540   10.1563 H   0  0  0  0  0  0  0  0  0  0  0  0
   42.6566   15.2821    9.5744 H   0  0  0  0  0  0  0  0  0  0  0  0
   44.3884   15.1970    9.9078 H   0  0  0  0  0  0  0  0  0  0  0  0
   41.9142   14.2296    7.0696 H   0  0  0  0  0  0  0  0  0  0  0  0
   43.0634   12.9427    6.6968 H   0  0  0  0  0  0  0  0  0  0  0  0
   44.2962   13.0780   10.7730 H   0  0  0  0  0  0  0  0  0  0  0  0
   42.6750   13.6408   11.1858 H   0  0  0  0  0  0  0  0  0  0  0  0
   41.5409   11.7730    7.9651 H   0  0  0  0  0  0  0  0  0  0  0  0
   41.0599   13.1745    8.9262 H   0  0  0  0  0  0  0  0  0  0  0  0
   43.5175   11.2364   12.1584 H   0  0  0  0  0  0  0  0  0  0  0  0
   42.4499    9.8627   12.1084 H   0  0  0  0  0  0  0  0  0  0  0  0
   49.4286   10.9163   13.6977 H   0  0  0  0  0  0  0  0  0  0  0  0
   41.3150   11.7390   11.0721 H   0  0  0  0  0  0  0  0  0  0  0  0
   41.6163   10.4694    9.8962 H   0  0  0  0  0  0  0  0  0  0  0  0
   42.4301    7.7965   11.0527 H   0  0  0  0  0  0  0  0  0  0  0  0
   45.3801    4.4920   13.2144 H   0  0  0  0  0  0  0  0  0  0  0  0
   43.2545   16.2283    7.2928 H   0  0  0  0  0  0  0  0  0  0  0  0
   44.3041   15.2433    6.2508 H   0  0  0  0  0  0  0  0  0  0  0  0
   44.9747   16.0221    7.6779 H   0  0  0  0  0  0  0  0  0  0  0  0
   41.6467    5.5459   11.4280 H   0  0  0  0  0  0  0  0  0  0  0  0
   43.1070    3.8605   12.5177 H   0  0  0  0  0  0  0  0  0  0  0  0
   45.2186   12.6883   10.8153 H   0  0  0  0  0  0  0  0  0  0  0  0
   46.0214   10.8960   12.2578 H   0  0  0  0  0  0  0  0  0  0  0  0
   42.5908   12.4862    8.6762 H   0  0  0  0  0  0  0  0  0  0  0  0
   43.0779    8.4231   11.7224 H   0  0  0  0  0  0  0  0  0  0  0  0
  2  4  1  0
  3  1  1  0
  4  3  2  0
  5  1  2  0
  6  2  2  0
  7  1  1  0
  8  2  1  0
 10  9  1  0
 11 14  1  0
 12  9  1  0
 13 10  2  0
 14 12  2  0
 15 10  1  0
 16 27  1  0
 17 22  1  0
 18 13  1  0
 19  9  1  0
 20 15  2  0
 21 23  1  0
 22 24  1  0
 23 16  1  0
 24 16  1  0
 25 19  1  0
 26 20  1  0
 27 25  1  0
 28 20  1  0
 29 12  1  0
 30 14  1  0
 31 17  1  0
 32 29  2  0
 33 30  2  0
 11 13  1  0
 32 33  1  0
 26 18  2  0
 17 21  1  0
 35 37  1  0
 36 34  1  0
 37 36  2  0
 38 34  2  0
 39 35  2  0
 40 34  1  0
 41 35  1  0
  3 42  1  0
  4 43  1  0
  7 44  1  0
  8 45  1  0
 15 46  1  0
 18 47  1  0
 19 48  1  0
 19 49  1  0
 21 50  1  0
 21 51  1  0
 22 52  1  0
 22 53  1  0
 23 54  1  0
 23 55  1  0
 24 56  1  0
 24 57  1  0
 25 58  1  0
 25 59  1  0
 26 60  1  0
 27 61  1  0
 27 62  1  0
 29 63  1  0
 30 64  1  0
 31 65  1  0
 31 66  1  0
 31 67  1  0
 32 68  1  0
 33 69  1  0
 36 70  1  0
 37 71  1  0
 40 72  1  0
 41 73  1  0
M  END
> <Uni-Dock RESULT> 
ENERGY=   -4.843  LOWER_BOUND=    3.572  UPPER_BOUND=    7.480
INTER + INTRA:          -4.843
INTER:                  -4.843
INTRA:                   0.000
UNBOUND:                 0.000

$$$$

     RDKit          3D

 73 74  0  0  0  0  0  0  0  0999 V2000
   49.0141   10.0435   13.0995 C   0  0  0  0  0  0  0  0  0  0  0  0
   47.4091    7.5250   12.7928 C   0  0  0  0  0  0  0  0  0  0  0  0
   49.0955    8.8907   13.9989 C   0  0  0  0  0  0  0  0  0  0  0  0
   48.3492    7.7831   13.8913 C   0  0  0  0  0  0  0  0  0  0  0  0
   49.9688   10.6080   12.6003 O   0  0  0  0  0  0  0  0  0  0  0  0
   47.3984    8.0145   11.6813 O   0  0  0  0  0  0  0  0  0  0  0  0
   47.7586   10.4985   12.9832 O   0  0  0  0  0  0  0  0  0  0  0  0
   46.5245    6.5874   13.1688 O   0  0  0  0  0  0  0  0  0  0  0  0
   47.3772    6.5937   13.5124 N   0  0  0  0  0  0  0  0  0  0  0  0
   47.9932    6.4208   14.7870 C   0  0  0  0  0  0  0  0  0  0  0  0
   47.1403    3.7389   14.8389 S   0  0  0  0  0  0  0  0  0  0  0  0
   46.5025    5.6591   12.8830 C   0  0  0  0  0  0  0  0  0  0  0  0
   47.9315    5.1935   15.4804 C   0  0  0  0  0  0  0  0  0  0  0  0
   46.3063    4.3624   13.4003 C   0  0  0  0  0  0  0  0  0  0  0  0
   48.6779    7.4700   15.4405 C   0  0  0  0  0  0  0  0  0  0  0  0
   48.3990   10.7105   12.1560 N   0  0  0  0  0  0  0  0  0  0  0  0
   50.7749   12.2005   12.4292 N   0  0  0  0  0  0  0  0  0  0  0  0
   48.5364    5.0387   16.7451 C   0  0  0  0  0  0  0  0  0  0  0  0
   47.7612    7.7966   12.7283 C   0  0  0  0  0  0  0  0  0  0  0  0
   49.2712    7.3092   16.6968 C   0  0  0  0  0  0  0  0  0  0  0  0
   49.7522   12.4677   13.4441 C   0  0  0  0  0  0  0  0  0  0  0  0
   50.1704   12.1479   11.0856 C   0  0  0  0  0  0  0  0  0  0  0  0
   48.6292   11.3940   13.4488 C   0  0  0  0  0  0  0  0  0  0  0  0
   48.7084   11.6232   11.0456 C   0  0  0  0  0  0  0  0  0  0  0  0
   46.8020    8.9681   12.9924 C   0  0  0  0  0  0  0  0  0  0  0  0
   49.2058    6.0938   17.3542 C   0  0  0  0  0  0  0  0  0  0  0  0
   47.0521   10.1461   12.0431 C   0  0  0  0  0  0  0  0  0  0  0  0
   50.0836    8.6365   17.4342 Cl  0  0  0  0  0  0  0  0  0  0  0  0
   45.7626    5.9810   11.7213 C   0  0  0  0  0  0  0  0  0  0  0  0
   45.4327    3.4518   12.7713 C   0  0  0  0  0  0  0  0  0  0  0  0
   51.8740   13.1540   12.4886 C   0  0  0  0  0  0  0  0  0  0  0  0
   44.8942    5.0737   11.1010 C   0  0  0  0  0  0  0  0  0  0  0  0
   44.7295    3.8041   11.6262 C   0  0  0  0  0  0  0  0  0  0  0  0
   48.7807    9.6378   12.4941 C   0  0  0  0  0  0  0  0  0  0  0  0
   47.4249    7.1688   13.5217 C   0  0  0  0  0  0  0  0  0  0  0  0
   48.8050    9.2001   13.8962 C   0  0  0  0  0  0  0  0  0  0  0  0
   48.2334    8.0735   14.3418 C   0  0  0  0  0  0  0  0  0  0  0  0
   48.6069    8.9632   11.4995 O   0  0  0  0  0  0  0  0  0  0  0  0
   47.5518    5.9601   13.4834 O   0  0  0  0  0  0  0  0  0  0  0  0
   49.0324   10.9550   12.4299 O   0  0  0  0  0  0  0  0  0  0  0  0
   46.4308    7.8159   12.8970 O   0  0  0  0  0  0  0  0  0  0  0  0
   49.8389    8.9820   14.7813 H   0  0  0  0  0  0  0  0  0  0  0  0
   48.4491    6.9878   14.6208 H   0  0  0  0  0  0  0  0  0  0  0  0
   47.8300   11.2335   12.3402 H   0  0  0  0  0  0  0  0  0  0  0  0
   45.9504    6.4825   12.3814 H   0  0  0  0  0  0  0  0  0  0  0  0
   48.7595    8.4527   14.9923 H   0  0  0  0  0  0  0  0  0  0  0  0
   48.4875    4.0827   17.2632 H   0  0  0  0  0  0  0  0  0  0  0  0
   47.7987    7.5655   11.6562 H   0  0  0  0  0  0  0  0  0  0  0  0
   48.7990    8.0860   12.9347 H   0  0  0  0  0  0  0  0  0  0  0  0
   49.3016   13.4539   13.2677 H   0  0  0  0  0  0  0  0  0  0  0  0
   50.2037   12.4939   14.4432 H   0  0  0  0  0  0  0  0  0  0  0  0
   50.1770   13.1374   10.6095 H   0  0  0  0  0  0  0  0  0  0  0  0
   50.7959   11.4902   10.4696 H   0  0  0  0  0  0  0  0  0  0  0  0
   48.8978   10.6296   14.1857 H   0  0  0  0  0  0  0  0  0  0  0  0
   47.7121   11.8806   13.8054 H   0  0  0  0  0  0  0  0  0  0  0  0
   48.5581   11.1176   10.0839 H   0  0  0  0  0  0  0  0  0  0  0  0
   48.0217   12.4802   11.0711 H   0  0  0  0  0  0  0  0  0  0  0  0
   46.8678    9.2977   14.0348 H   0  0  0  0  0  0  0  0  0  0  0  0
   45.7633    8.6427   12.8599 H   0  0  0  0  0  0  0  0  0  0  0  0
   49.6659    5.9586   18.3284 H   0  0  0  0  0  0  0  0  0  0  0  0
   46.2918   10.9195   12.2123 H   0  0  0  0  0  0  0  0  0  0  0  0
   46.8950    9.7792   11.0202 H   0  0  0  0  0  0  0  0  0  0  0  0
   45.8235    6.9618   11.2616 H   0  0  0  0  0  0  0  0  0  0  0  0
   45.2988    2.4512   13.1785 H   0  0  0  0  0  0  0  0  0  0  0  0
   51.5401   14.1821   12.3099 H   0  0  0  0  0  0  0  0  0  0  0  0
   52.6398   12.9056   11.7454 H   0  0  0  0  0  0  0  0  0  0  0  0
   52.3619   13.1183   13.4688 H   0  0  0  0  0  0  0  0  0  0  0  0
   44.3479    5.3698   10.2091 H   0  0  0  0  0  0  0  0  0  0  0  0
   44.0594    3.0923   11.1527 H   0  0  0  0  0  0  0  0  0  0  0  0
   49.3629    9.8327   14.5771 H   0  0  0  0  0  0  0  0  0  0  0  0
   48.3639    7.7561   15.3692 H   0  0  0  0  0  0  0  0  0  0  0  0
   48.9978   11.1506   11.4703 H   0  0  0  0  0  0  0  0  0  0  0  0
   45.9963    7.1226   12.3594 H   0  0  0  0  0  0  0  0  0  0  0  0
  2  4  1  0
  3  1  1  0
  4  3  2  0
  5  1  2  0
  6  2  2  0
  7  1  1  0
  8  2  1  0
 10  9  1  0
 11 14  1  0
 12  9  1  0
 13 10  2  0
 14 12  2  0
 15 10  1  0
 16 27  1  0
 17 22  1  0
 18 13  1  0
 19  9  1  0
 20 15  2  0
 21 23  1  0
 22 24  1  0
 23 16  1  0
 24 16  1  0
 25 19  1  0
 26 20  1  0
 27 25  1  0
 28 20  1  0
 29 12  1  0
 30 14  1  0
 31 17  1  0
 32 29  2  0
 33 30  2  0
 11 13  1  0
 32 33  1  0
 26 18  2  0
 17 21  1  0
 35 37  1  0
 36 34  1  0
 37 36  2  0
 38 34  2  0
 39 35  2  0
 40 34  1  0
 41 35  1  0
  3 42  1  0
  4 43  1  0
  7 44  1  0
  8 45  1  0
 15 46  1  0
 18 47  1  0
 19 48  1  0
 19 49  1  0
 21 50  1  0
 21 51  1  0
 22 52  1  0
 22 53  1  0
 23 54  1  0
 23 55  1  0
 24 56  1  0
 24 57  1  0
 25 58  1  0
 25 59  1  0
 26 60  1  0
 27 61  1  0
 27 62  1  0
 29 63  1  0
 30 64  1  0
 31 65  1  0
 31 66  1  0
 31 67  1  0
 32 68  1  0
 33 69  1  0
 36 70  1  0
 37 71  1  0
 40 72  1  0
 41 73  1  0
M  END
> <Uni-Dock RESULT> 
ENERGY=   -4.777  LOWER_BOUND=    2.581  UPPER_BOUND=    4.159
INTER + INTRA:          -4.777
INTER:                  -4.777
INTRA:                   0.000
UNBOUND:                 0.000

$$$$

     RDKit          3D

 73 74  0  0  0  0  0  0  0  0999 V2000
   55.2643    4.9893   10.2551 C   0  0  0  0  0  0  0  0  0  0  0  0
   56.3333    3.8214   12.8060 C   0  0  0  0  0  0  0  0  0  0  0  0
   55.6005    3.5769   10.4465 C   0  0  0  0  0  0  0  0  0  0  0  0
   56.1193    3.0598   11.5684 C   0  0  0  0  0  0  0  0  0  0  0  0
   54.2220    5.4008    9.7823 O   0  0  0  0  0  0  0  0  0  0  0  0
   55.7900    4.8480   13.1607 O   0  0  0  0  0  0  0  0  0  0  0  0
   56.2979    5.7923   10.5443 O   0  0  0  0  0  0  0  0  0  0  0  0
   57.2313    3.1856   13.5757 O   0  0  0  0  0  0  0  0  0  0  0  0
   56.6845    2.7155   13.0055 N   0  0  0  0  0  0  0  0  0  0  0  0
   56.8146    1.6335   12.0854 C   0  0  0  0  0  0  0  0  0  0  0  0
   57.4209   -0.1068   14.2129 S   0  0  0  0  0  0  0  0  0  0  0  0
   57.0502    2.6776   14.3837 C   0  0  0  0  0  0  0  0  0  0  0  0
   57.1611    0.3342   12.5125 C   0  0  0  0  0  0  0  0  0  0  0  0
   57.4157    1.4745   15.0212 C   0  0  0  0  0  0  0  0  0  0  0  0
   56.6295    1.8019   10.6946 C   0  0  0  0  0  0  0  0  0  0  0  0
   55.3331    6.2385   10.6402 N   0  0  0  0  0  0  0  0  0  0  0  0
   53.5336    6.4228    8.4798 N   0  0  0  0  0  0  0  0  0  0  0  0
   57.2965   -0.7249   11.5909 C   0  0  0  0  0  0  0  0  0  0  0  0
   56.0147    3.9487   12.5157 C   0  0  0  0  0  0  0  0  0  0  0  0
   56.7700    0.7470    9.7872 C   0  0  0  0  0  0  0  0  0  0  0  0
   54.9482    6.3397    8.1065 C   0  0  0  0  0  0  0  0  0  0  0  0
   53.3454    7.3757    9.5888 C   0  0  0  0  0  0  0  0  0  0  0  0
   55.8483    5.9002    9.2943 C   0  0  0  0  0  0  0  0  0  0  0  0
   54.5410    7.4754   10.5763 C   0  0  0  0  0  0  0  0  0  0  0  0
   57.0335    4.9602   11.9670 C   0  0  0  0  0  0  0  0  0  0  0  0
   57.1017   -0.5209   10.2297 C   0  0  0  0  0  0  0  0  0  0  0  0
   56.3904    6.3159   11.6509 C   0  0  0  0  0  0  0  0  0  0  0  0
   56.5353    1.0302    8.1048 Cl  0  0  0  0  0  0  0  0  0  0  0  0
   57.0926    3.8415   15.1863 C   0  0  0  0  0  0  0  0  0  0  0  0
   57.7820    1.4536   16.3827 C   0  0  0  0  0  0  0  0  0  0  0  0
   52.6808    6.7431    7.3436 C   0  0  0  0  0  0  0  0  0  0  0  0
   57.4591    3.8163   16.5380 C   0  0  0  0  0  0  0  0  0  0  0  0
   57.8034    2.6185   17.1393 C   0  0  0  0  0  0  0  0  0  0  0  0
   55.1254    5.1244   10.9954 C   0  0  0  0  0  0  0  0  0  0  0  0
   56.6801    3.1194   12.5932 C   0  0  0  0  0  0  0  0  0  0  0  0
   55.8113    3.9585   10.4225 C   0  0  0  0  0  0  0  0  0  0  0  0
   56.4686    3.0426   11.1461 C   0  0  0  0  0  0  0  0  0  0  0  0
   54.7181    5.2738   12.1296 O   0  0  0  0  0  0  0  0  0  0  0  0
   56.4859    2.2097   13.3764 O   0  0  0  0  0  0  0  0  0  0  0  0
   54.9498    6.0552   10.0440 O   0  0  0  0  0  0  0  0  0  0  0  0
   57.2368    4.2841   12.9549 O   0  0  0  0  0  0  0  0  0  0  0  0
   55.3801    2.9428    9.5964 H   0  0  0  0  0  0  0  0  0  0  0  0
   56.3708    2.0066   11.6155 H   0  0  0  0  0  0  0  0  0  0  0  0
   55.9424    6.6952   10.4135 H   0  0  0  0  0  0  0  0  0  0  0  0
   57.3041    3.7591   14.3671 H   0  0  0  0  0  0  0  0  0  0  0  0
   56.3803    2.7684   10.2739 H   0  0  0  0  0  0  0  0  0  0  0  0
   57.5558   -1.7237   11.9374 H   0  0  0  0  0  0  0  0  0  0  0  0
   55.4114    4.4047   13.3109 H   0  0  0  0  0  0  0  0  0  0  0  0
   55.2543    3.7106   11.7619 H   0  0  0  0  0  0  0  0  0  0  0  0
   55.2943    7.3156    7.7393 H   0  0  0  0  0  0  0  0  0  0  0  0
   55.0858    5.6209    7.2897 H   0  0  0  0  0  0  0  0  0  0  0  0
   53.1460    8.3876    9.2118 H   0  0  0  0  0  0  0  0  0  0  0  0
   52.4556    7.0589   10.1465 H   0  0  0  0  0  0  0  0  0  0  0  0
   55.9617    4.8119    9.2456 H   0  0  0  0  0  0  0  0  0  0  0  0
   56.8419    6.3375    9.1318 H   0  0  0  0  0  0  0  0  0  0  0  0
   54.1400    7.7226   11.5668 H   0  0  0  0  0  0  0  0  0  0  0  0
   55.1861    8.3105   10.2710 H   0  0  0  0  0  0  0  0  0  0  0  0
   57.5388    4.5618   11.0806 H   0  0  0  0  0  0  0  0  0  0  0  0
   57.8314    5.1280   12.7003 H   0  0  0  0  0  0  0  0  0  0  0  0
   57.2101   -1.3467    9.5331 H   0  0  0  0  0  0  0  0  0  0  0  0
   57.1686    7.0270   11.3448 H   0  0  0  0  0  0  0  0  0  0  0  0
   55.9710    6.7040   12.5885 H   0  0  0  0  0  0  0  0  0  0  0  0
   56.8549    4.8199   14.7824 H   0  0  0  0  0  0  0  0  0  0  0  0
   58.0534    0.5149   16.8624 H   0  0  0  0  0  0  0  0  0  0  0  0
   52.9284    7.7142    6.9009 H   0  0  0  0  0  0  0  0  0  0  0  0
   51.6276    6.7597    7.6454 H   0  0  0  0  0  0  0  0  0  0  0  0
   52.7741    5.9784    6.5647 H   0  0  0  0  0  0  0  0  0  0  0  0
   57.4759    4.7392   17.1122 H   0  0  0  0  0  0  0  0  0  0  0  0
   58.0884    2.5874   18.1870 H   0  0  0  0  0  0  0  0  0  0  0  0
   55.7257    3.8432    9.3480 H   0  0  0  0  0  0  0  0  0  0  0  0
   56.8755    2.1551   10.6770 H   0  0  0  0  0  0  0  0  0  0  0  0
   54.4899    6.7820   10.5135 H   0  0  0  0  0  0  0  0  0  0  0  0
   57.2886    4.2301   13.9311 H   0  0  0  0  0  0  0  0  0  0  0  0
  2  4  1  0
  3  1  1  0
  4  3  2  0
  5  1  2  0
  6  2  2  0
  7  1  1  0
  8  2  1  0
 10  9  1  0
 11 14  1  0
 12  9  1  0
 13 10  2  0
 14 12  2  0
 15 10  1  0
 16 27  1  0
 17 22  1  0
 18 13  1  0
 19  9  1  0
 20 15  2  0
 21 23  1  0
 22 24  1  0
 23 16  1  0
 24 16  1  0
 25 19  1  0
 26 20  1  0
 27 25  1  0
 28 20  1  0
 29 12  1  0
 30 14  1  0
 31 17  1  0
 32 29  2  0
 33 30  2  0
 11 13  1  0
 32 33  1  0
 26 18  2  0
 17 21  1  0
 35 37  1  0
 36 34  1  0
 37 36  2  0
 38 34  2  0
 39 35  2  0
 40 34  1  0
 41 35  1  0
  3 42  1  0
  4 43  1  0
  7 44  1  0
  8 45  1  0
 15 46  1  0
 18 47  1  0
 19 48  1  0
 19 49  1  0
 21 50  1  0
 21 51  1  0
 22 52  1  0
 22 53  1  0
 23 54  1  0
 23 55  1  0
 24 56  1  0
 24 57  1  0
 25 58  1  0
 25 59  1  0
 26 60  1  0
 27 61  1  0
 27 62  1  0
 29 63  1  0
 30 64  1  0
 31 65  1  0
 31 66  1  0
 31 67  1  0
 32 68  1  0
 33 69  1  0
 36 70  1  0
 37 71  1  0
 40 72  1  0
 41 73  1  0
M  END
> <Uni-Dock RESULT> 
ENERGY=   -4.724  LOWER_BOUND=    8.125  UPPER_BOUND=   11.000
INTER + INTRA:          -4.724
INTER:                  -4.724
INTRA:                   0.000
UNBOUND:                 0.000

$$$$

     RDKit          3D

 73 74  0  0  0  0  0  0  0  0999 V2000
   49.4319   10.2143   15.2613 C   0  0  0  0  0  0  0  0  0  0  0  0
   48.6817    8.5664   17.6560 C   0  0  0  0  0  0  0  0  0  0  0  0
   48.9505   10.7631   16.5307 C   0  0  0  0  0  0  0  0  0  0  0  0
   48.5726   10.0295   17.5863 C   0  0  0  0  0  0  0  0  0  0  0  0
   50.4204   10.5978   14.6652 O   0  0  0  0  0  0  0  0  0  0  0  0
   49.4099    7.8352   17.0157 O   0  0  0  0  0  0  0  0  0  0  0  0
   48.5807    9.3127   14.7521 O   0  0  0  0  0  0  0  0  0  0  0  0
   47.8565    8.0987   18.6064 O   0  0  0  0  0  0  0  0  0  0  0  0
   48.2276    8.9368   18.6772 N   0  0  0  0  0  0  0  0  0  0  0  0
   47.7960   10.2447   19.0477 C   0  0  0  0  0  0  0  0  0  0  0  0
   47.3471    9.3543   21.6799 S   0  0  0  0  0  0  0  0  0  0  0  0
   48.1075    7.7668   19.4843 C   0  0  0  0  0  0  0  0  0  0  0  0
   47.3608   10.5391   20.3571 C   0  0  0  0  0  0  0  0  0  0  0  0
   47.7034    7.8345   20.8332 C   0  0  0  0  0  0  0  0  0  0  0  0
   47.7550   11.3134   18.1241 C   0  0  0  0  0  0  0  0  0  0  0  0
   49.5979    9.2019   14.4482 N   0  0  0  0  0  0  0  0  0  0  0  0
   50.9989   11.2365   13.0928 N   0  0  0  0  0  0  0  0  0  0  0  0
   46.9268   11.8345   20.7079 C   0  0  0  0  0  0  0  0  0  0  0  0
   48.9585    8.8003   17.3902 C   0  0  0  0  0  0  0  0  0  0  0  0
   47.3190   12.5940   18.4793 C   0  0  0  0  0  0  0  0  0  0  0  0
   49.5424   11.2724   12.9356 C   0  0  0  0  0  0  0  0  0  0  0  0
   51.5032    9.8601   12.9363 C   0  0  0  0  0  0  0  0  0  0  0  0
   48.8144   10.3594   13.9607 C   0  0  0  0  0  0  0  0  0  0  0  0
   50.5232    8.7470   13.4002 C   0  0  0  0  0  0  0  0  0  0  0  0
   48.0023    8.4625   16.2353 C   0  0  0  0  0  0  0  0  0  0  0  0
   46.9051   12.8619   19.7718 C   0  0  0  0  0  0  0  0  0  0  0  0
   48.7539    8.1128   14.9452 C   0  0  0  0  0  0  0  0  0  0  0  0
   47.2905   13.8454   17.2967 Cl  0  0  0  0  0  0  0  0  0  0  0  0
   48.3611    6.4706   18.9780 C   0  0  0  0  0  0  0  0  0  0  0  0
   47.5820    6.6684   21.6166 C   0  0  0  0  0  0  0  0  0  0  0  0
   51.6740   12.1631   12.1949 C   0  0  0  0  0  0  0  0  0  0  0  0
   48.2372    5.3147   19.7595 C   0  0  0  0  0  0  0  0  0  0  0  0
   47.8481    5.4134   21.0838 C   0  0  0  0  0  0  0  0  0  0  0  0
   49.7152    9.5740   15.5700 C   0  0  0  0  0  0  0  0  0  0  0  0
   48.2131    9.0479   18.1111 C   0  0  0  0  0  0  0  0  0  0  0  0
   48.7911   10.5263   16.2003 C   0  0  0  0  0  0  0  0  0  0  0  0
   48.1555   10.3026   17.3580 C   0  0  0  0  0  0  0  0  0  0  0  0
   50.3312    8.6673   16.0925 O   0  0  0  0  0  0  0  0  0  0  0  0
   48.4194    8.9597   19.3062 O   0  0  0  0  0  0  0  0  0  0  0  0
   49.8429    9.8673   14.2662 O   0  0  0  0  0  0  0  0  0  0  0  0
   47.8877    7.9936   17.3495 O   0  0  0  0  0  0  0  0  0  0  0  0
   48.9324   11.8452   16.5751 H   0  0  0  0  0  0  0  0  0  0  0  0
   48.1960   10.5156   18.4788 H   0  0  0  0  0  0  0  0  0  0  0  0
   49.0242    8.9997   13.9371 H   0  0  0  0  0  0  0  0  0  0  0  0
   48.0002    7.1296   18.5805 H   0  0  0  0  0  0  0  0  0  0  0  0
   48.0524   11.1756   17.0918 H   0  0  0  0  0  0  0  0  0  0  0  0
   46.6023   12.0476   21.7248 H   0  0  0  0  0  0  0  0  0  0  0  0
   49.7469    8.0411   17.4701 H   0  0  0  0  0  0  0  0  0  0  0  0
   49.5366    9.7056   17.1680 H   0  0  0  0  0  0  0  0  0  0  0  0
   49.2697   10.9557   11.9197 H   0  0  0  0  0  0  0  0  0  0  0  0
   49.1697   12.2958   13.0650 H   0  0  0  0  0  0  0  0  0  0  0  0
   51.7657    9.6511   11.8907 H   0  0  0  0  0  0  0  0  0  0  0  0
   52.4271    9.7802   13.5221 H   0  0  0  0  0  0  0  0  0  0  0  0
   48.5511   10.9723   14.8293 H   0  0  0  0  0  0  0  0  0  0  0  0
   47.8745   10.0317   13.4979 H   0  0  0  0  0  0  0  0  0  0  0  0
   51.1209    7.9009   13.7608 H   0  0  0  0  0  0  0  0  0  0  0  0
   49.9510    8.3921   12.5323 H   0  0  0  0  0  0  0  0  0  0  0  0
   47.3012    9.2849   16.0572 H   0  0  0  0  0  0  0  0  0  0  0  0
   47.3748    7.6041   16.5034 H   0  0  0  0  0  0  0  0  0  0  0  0
   46.5678   13.8536   20.0575 H   0  0  0  0  0  0  0  0  0  0  0  0
   48.0353    7.7976   14.1777 H   0  0  0  0  0  0  0  0  0  0  0  0
   49.3788    7.2359   15.1598 H   0  0  0  0  0  0  0  0  0  0  0  0
   48.6518    6.3101   17.9452 H   0  0  0  0  0  0  0  0  0  0  0  0
   47.2771    6.7386   22.6592 H   0  0  0  0  0  0  0  0  0  0  0  0
   51.4834   11.9314   11.1412 H   0  0  0  0  0  0  0  0  0  0  0  0
   52.7566   12.1420   12.3628 H   0  0  0  0  0  0  0  0  0  0  0  0
   51.3451   13.1908   12.3840 H   0  0  0  0  0  0  0  0  0  0  0  0
   48.4438    4.3408   19.3231 H   0  0  0  0  0  0  0  0  0  0  0  0
   47.7498    4.5237   21.6991 H   0  0  0  0  0  0  0  0  0  0  0  0
   48.6709   11.4743   15.6885 H   0  0  0  0  0  0  0  0  0  0  0  0
   47.5587   11.0794   17.8204 H   0  0  0  0  0  0  0  0  0  0  0  0
   50.4702    9.1902   13.9371 H   0  0  0  0  0  0  0  0  0  0  0  0
   48.0012    7.2253   17.9456 H   0  0  0  0  0  0  0  0  0  0  0  0
  2  4  1  0
  3  1  1  0
  4  3  2  0
  5  1  2  0
  6  2  2  0
  7  1  1  0
  8  2  1  0
 10  9  1  0
 11 14  1  0
 12  9  1  0
 13 10  2  0
 14 12  2  0
 15 10  1  0
 16 27  1  0
 17 22  1  0
 18 13  1  0
 19  9  1  0
 20 15  2  0
 21 23  1  0
 22 24  1  0
 23 16  1  0
 24 16  1  0
 25 19  1  0
 26 20  1  0
 27 25  1  0
 28 20  1  0
 29 12  1  0
 30 14  1  0
 31 17  1  0
 32 29  2  0
 33 30  2  0
 11 13  1  0
 32 33  1  0
 26 18  2  0
 17 21  1  0
 35 37  1  0
 36 34  1  0
 37 36  2  0
 38 34  2  0
 39 35  2  0
 40 34  1  0
 41 35  1  0
  3 42  1  0
  4 43  1  0
  7 44  1  0
  8 45  1  0
 15 46  1  0
 18 47  1  0
 19 48  1  0
 19 49  1  0
 21 50  1  0
 21 51  1  0
 22 52  1  0
 22 53  1  0
 23 54  1  0
 23 55  1  0
 24 56  1  0
 24 57  1  0
 25 58  1  0
 25 59  1  0
 26 60  1  0
 27 61  1  0
 27 62  1  0
 29 63  1  0
 30 64  1  0
 31 65  1  0
 31 66  1  0
 31 67  1  0
 32 68  1  0
 33 69  1  0
 36 70  1  0
 37 71  1  0
 40 72  1  0
 41 73  1  0
M  END
> <Uni-Dock RESULT> 
ENERGY=   -4.597  LOWER_BOUND=    4.201  UPPER_BOUND=    6.884
INTER + INTRA:          -4.597
INTER:                  -4.597
INTRA:                   0.000
UNBOUND:                 0.000

$$$$
