
     RDKit          3D

 73 74  0  0  0  0  0  0  0  0999 V2000
   49.7467    8.5493   13.2905 C   0  0  0  0  0  0  0  0  0  0  0  0
   47.0037    7.9955   12.3010 C   0  0  0  0  0  0  0  0  0  0  0  0
   48.8658    9.5705   12.7148 C   0  0  0  0  0  0  0  0  0  0  0  0
   47.6052    9.3325   12.3317 C   0  0  0  0  0  0  0  0  0  0  0  0
   49.4429    7.6569   14.0555 O   0  0  0  0  0  0  0  0  0  0  0  0
   47.5377    6.9513   11.9870 O   0  0  0  0  0  0  0  0  0  0  0  0
   51.0105    8.7655   12.8956 O   0  0  0  0  0  0  0  0  0  0  0  0
   45.7038    8.0751   12.6229 O   0  0  0  0  0  0  0  0  0  0  0  0
   45.8415    8.3898   12.5344 N   0  0  0  0  0  0  0  0  0  0  0  0
   45.1903    7.1459   12.2844 C   0  0  0  0  0  0  0  0  0  0  0  0
   43.0964    8.5062   10.9851 S   0  0  0  0  0  0  0  0  0  0  0  0
   45.4774    9.6438   11.9600 C   0  0  0  0  0  0  0  0  0  0  0  0
   43.9685    7.0785   11.5813 C   0  0  0  0  0  0  0  0  0  0  0  0
   44.2839    9.8048   11.2273 C   0  0  0  0  0  0  0  0  0  0  0  0
   45.7379    5.9110   12.7017 C   0  0  0  0  0  0  0  0  0  0  0  0
   50.7339    7.9285   13.4535 N   0  0  0  0  0  0  0  0  0  0  0  0
   53.2980    9.5781   13.5060 N   0  0  0  0  0  0  0  0  0  0  0  0
   43.3375    5.8424   11.3316 C   0  0  0  0  0  0  0  0  0  0  0  0
   46.9211    8.4001   13.5493 C   0  0  0  0  0  0  0  0  0  0  0  0
   45.1045    4.6896   12.4483 C   0  0  0  0  0  0  0  0  0  0  0  0
   52.5987    9.1165   14.7216 C   0  0  0  0  0  0  0  0  0  0  0  0
   52.6937    9.0078   12.2847 C   0  0  0  0  0  0  0  0  0  0  0  0
   51.7440    7.8426   14.5312 C   0  0  0  0  0  0  0  0  0  0  0  0
   51.1601    8.8812   12.4024 C   0  0  0  0  0  0  0  0  0  0  0  0
   48.3002    8.1640   12.9163 C   0  0  0  0  0  0  0  0  0  0  0  0
   43.9024    4.6485   11.7645 C   0  0  0  0  0  0  0  0  0  0  0  0
   49.4004    8.2477   13.9820 C   0  0  0  0  0  0  0  0  0  0  0  0
   45.8279    3.2234   12.9888 Cl  0  0  0  0  0  0  0  0  0  0  0  0
   46.2983   10.7906   12.0676 C   0  0  0  0  0  0  0  0  0  0  0  0
   43.9420   11.0474   10.6562 C   0  0  0  0  0  0  0  0  0  0  0  0
   54.7280    9.2868   13.5527 C   0  0  0  0  0  0  0  0  0  0  0  0
   45.9554   12.0231   11.4975 C   0  0  0  0  0  0  0  0  0  0  0  0
   44.7730   12.1530   10.7905 C   0  0  0  0  0  0  0  0  0  0  0  0
   46.6879    8.6882   12.8260 C   0  0  0  0  0  0  0  0  0  0  0  0
   49.6131    8.0434   12.8732 C   0  0  0  0  0  0  0  0  0  0  0  0
   47.7545    9.6867   12.9270 C   0  0  0  0  0  0  0  0  0  0  0  0
   49.0640    9.4054   12.9045 C   0  0  0  0  0  0  0  0  0  0  0  0
   45.7219    8.6209   13.5613 O   0  0  0  0  0  0  0  0  0  0  0  0
   49.0755    7.0087   13.2117 O   0  0  0  0  0  0  0  0  0  0  0  0
   46.8310    7.9155   11.7398 O   0  0  0  0  0  0  0  0  0  0  0  0
   50.8821    8.0804   12.4359 O   0  0  0  0  0  0  0  0  0  0  0  0
   49.2839   10.5676   12.6480 H   0  0  0  0  0  0  0  0  0  0  0  0
   46.9730   10.1394   11.9815 H   0  0  0  0  0  0  0  0  0  0  0  0
   51.5095    8.0311   13.3118 H   0  0  0  0  0  0  0  0  0  0  0  0
   45.4027    7.1427   12.5895 H   0  0  0  0  0  0  0  0  0  0  0  0
   46.6874    5.8612   13.2232 H   0  0  0  0  0  0  0  0  0  0  0  0
   42.3916    5.8077   10.7938 H   0  0  0  0  0  0  0  0  0  0  0  0
   46.7298    7.6586   14.3359 H   0  0  0  0  0  0  0  0  0  0  0  0
   46.9173    9.3404   14.1160 H   0  0  0  0  0  0  0  0  0  0  0  0
   53.2989    8.9626   15.5525 H   0  0  0  0  0  0  0  0  0  0  0  0
   51.9348    9.9295   15.0433 H   0  0  0  0  0  0  0  0  0  0  0  0
   53.1107    8.0165   12.0600 H   0  0  0  0  0  0  0  0  0  0  0  0
   52.9348    9.6586   11.4361 H   0  0  0  0  0  0  0  0  0  0  0  0
   51.2852    7.5641   15.4881 H   0  0  0  0  0  0  0  0  0  0  0  0
   52.4173    7.0115   14.2822 H   0  0  0  0  0  0  0  0  0  0  0  0
   50.7611    8.5436   11.4390 H   0  0  0  0  0  0  0  0  0  0  0  0
   50.7511    9.8832   12.5918 H   0  0  0  0  0  0  0  0  0  0  0  0
   48.3354    7.1832   12.4288 H   0  0  0  0  0  0  0  0  0  0  0  0
   48.4784    8.9002   12.1256 H   0  0  0  0  0  0  0  0  0  0  0  0
   43.4044    3.7048   11.5637 H   0  0  0  0  0  0  0  0  0  0  0  0
   49.1518    7.5239   14.7689 H   0  0  0  0  0  0  0  0  0  0  0  0
   49.3962    9.2416   14.4476 H   0  0  0  0  0  0  0  0  0  0  0  0
   47.2501   10.7630   12.5875 H   0  0  0  0  0  0  0  0  0  0  0  0
   43.0135   11.1574   10.0992 H   0  0  0  0  0  0  0  0  0  0  0  0
   54.9289    8.2126   13.6405 H   0  0  0  0  0  0  0  0  0  0  0  0
   55.1953    9.7959   14.4031 H   0  0  0  0  0  0  0  0  0  0  0  0
   55.2271    9.6601   12.6514 H   0  0  0  0  0  0  0  0  0  0  0  0
   46.6218   12.8753   11.6066 H   0  0  0  0  0  0  0  0  0  0  0  0
   44.4976   13.1040   10.3438 H   0  0  0  0  0  0  0  0  0  0  0  0
   47.4090   10.7068   13.0430 H   0  0  0  0  0  0  0  0  0  0  0  0
   49.7929   10.2061   12.9517 H   0  0  0  0  0  0  0  0  0  0  0  0
   46.0935    7.2749   11.8044 H   0  0  0  0  0  0  0  0  0  0  0  0
   51.1598    7.1406   12.4515 H   0  0  0  0  0  0  0  0  0  0  0  0
  2  4  1  0
  3  1  1  0
  4  3  2  0
  5  1  2  0
  6  2  2  0
  7  1  1  0
  8  2  1  0
 10  9  1  0
 11 14  1  0
 12  9  1  0
 13 10  2  0
 14 12  2  0
 15 10  1  0
 16 27  1  0
 17 22  1  0
 18 13  1  0
 19  9  1  0
 20 15  2  0
 21 23  1  0
 22 24  1  0
 23 16  1  0
 24 16  1  0
 25 19  1  0
 26 20  1  0
 27 25  1  0
 28 20  1  0
 29 12  1  0
 30 14  1  0
 31 17  1  0
 32 29  2  0
 33 30  2  0
 11 13  1  0
 32 33  1  0
 26 18  2  0
 17 21  1  0
 35 37  1  0
 36 34  1  0
 37 36  2  0
 38 34  2  0
 39 35  2  0
 40 34  1  0
 41 35  1  0
  3 42  1  0
  4 43  1  0
  7 44  1  0
  8 45  1  0
 15 46  1  0
 18 47  1  0
 19 48  1  0
 19 49  1  0
 21 50  1  0
 21 51  1  0
 22 52  1  0
 22 53  1  0
 23 54  1  0
 23 55  1  0
 24 56  1  0
 24 57  1  0
 25 58  1  0
 25 59  1  0
 26 60  1  0
 27 61  1  0
 27 62  1  0
 29 63  1  0
 30 64  1  0
 31 65  1  0
 31 66  1  0
 31 67  1  0
 32 68  1  0
 33 69  1  0
 36 70  1  0
 37 71  1  0
 40 72  1  0
 41 73  1  0
M  END
> <Uni-Dock RESULT> 
ENERGY=   -5.755  LOWER_BOUND=    0.000  UPPER_BOUND=    0.000
INTER + INTRA:          -5.755
INTER:                  -5.755
INTRA:                   0.000
UNBOUND:                 0.000

$$$$

     RDKit          3D

 73 74  0  0  0  0  0  0  0  0999 V2000
   49.7515    9.0109   12.7224 C   0  0  0  0  0  0  0  0  0  0  0  0
   47.0655    7.8420   12.2436 C   0  0  0  0  0  0  0  0  0  0  0  0
   48.6324    9.7528   12.1329 C   0  0  0  0  0  0  0  0  0  0  0  0
   47.4034    9.2445   11.9804 C   0  0  0  0  0  0  0  0  0  0  0  0
   49.7132    8.2301   13.6513 O   0  0  0  0  0  0  0  0  0  0  0  0
   47.7464    6.8624   12.0182 O   0  0  0  0  0  0  0  0  0  0  0  0
   50.8967    9.3610   12.1175 O   0  0  0  0  0  0  0  0  0  0  0  0
   45.8208    7.7599   12.7371 O   0  0  0  0  0  0  0  0  0  0  0  0
   45.8853    8.0723   12.5822 N   0  0  0  0  0  0  0  0  0  0  0  0
   45.4557    6.7131   12.6242 C   0  0  0  0  0  0  0  0  0  0  0  0
   43.0053    7.4541   11.4540 S   0  0  0  0  0  0  0  0  0  0  0  0
   45.2264    9.1264   11.8823 C   0  0  0  0  0  0  0  0  0  0  0  0
   44.1948    6.3199   12.1271 C   0  0  0  0  0  0  0  0  0  0  0  0
   43.9465    8.9542   11.3172 C   0  0  0  0  0  0  0  0  0  0  0  0
   46.2715    5.6802   13.1406 C   0  0  0  0  0  0  0  0  0  0  0  0
   50.8503    8.6018   12.8316 N   0  0  0  0  0  0  0  0  0  0  0  0
   53.0452   10.6380   12.2532 N   0  0  0  0  0  0  0  0  0  0  0  0
   43.7835    4.9716   12.1653 C   0  0  0  0  0  0  0  0  0  0  0  0
   47.0549    8.4418   13.4136 C   0  0  0  0  0  0  0  0  0  0  0  0
   45.8547    4.3452   13.1732 C   0  0  0  0  0  0  0  0  0  0  0  0
   52.5929   10.2891   13.6146 C   0  0  0  0  0  0  0  0  0  0  0  0
   52.4206    9.7679   11.2360 C   0  0  0  0  0  0  0  0  0  0  0  0
   51.9776    8.8774   13.7493 C   0  0  0  0  0  0  0  0  0  0  0  0
   50.9629    9.4108   11.5959 C   0  0  0  0  0  0  0  0  0  0  0  0
   48.3699    8.3302   12.6285 C   0  0  0  0  0  0  0  0  0  0  0  0
   44.6103    3.9842   12.6880 C   0  0  0  0  0  0  0  0  0  0  0  0
   49.5517    8.7831   13.4953 C   0  0  0  0  0  0  0  0  0  0  0  0
   46.9000    3.1391   13.8196 Cl  0  0  0  0  0  0  0  0  0  0  0  0
   45.8230   10.3946   11.6911 C   0  0  0  0  0  0  0  0  0  0  0  0
   43.3119   10.0016   10.6190 C   0  0  0  0  0  0  0  0  0  0  0  0
   54.5000   10.6016   12.1332 C   0  0  0  0  0  0  0  0  0  0  0  0
   45.1895   11.4321   10.9957 C   0  0  0  0  0  0  0  0  0  0  0  0
   43.9292   11.2361   10.4587 C   0  0  0  0  0  0  0  0  0  0  0  0
   46.6884    8.5543   12.6969 C   0  0  0  0  0  0  0  0  0  0  0  0
   49.6678    8.4240   12.4117 C   0  0  0  0  0  0  0  0  0  0  0  0
   47.5518    9.7182   12.4858 C   0  0  0  0  0  0  0  0  0  0  0  0
   48.8791    9.6593   12.3144 C   0  0  0  0  0  0  0  0  0  0  0  0
   45.8454    8.4585   13.5678 O   0  0  0  0  0  0  0  0  0  0  0  0
   49.3785    7.3908   12.9801 O   0  0  0  0  0  0  0  0  0  0  0  0
   46.8465    7.6363   11.7329 O   0  0  0  0  0  0  0  0  0  0  0  0
   50.8468    8.5936   11.7921 O   0  0  0  0  0  0  0  0  0  0  0  0
   48.8442   10.7778   11.8534 H   0  0  0  0  0  0  0  0  0  0  0  0
   46.5937    9.8599   11.6075 H   0  0  0  0  0  0  0  0  0  0  0  0
   51.5706    8.8053   12.5634 H   0  0  0  0  0  0  0  0  0  0  0  0
   45.6992    6.7994   12.8916 H   0  0  0  0  0  0  0  0  0  0  0  0
   47.2679    5.8823   13.5182 H   0  0  0  0  0  0  0  0  0  0  0  0
   42.8048    4.6853   11.7841 H   0  0  0  0  0  0  0  0  0  0  0  0
   47.1004    7.8299   14.3240 H   0  0  0  0  0  0  0  0  0  0  0  0
   46.9402    9.4536   13.8239 H   0  0  0  0  0  0  0  0  0  0  0  0
   53.4020   10.4035   14.3471 H   0  0  0  0  0  0  0  0  0  0  0  0
   51.8299   11.0243   13.9020 H   0  0  0  0  0  0  0  0  0  0  0  0
   52.9879    8.8359   11.1069 H   0  0  0  0  0  0  0  0  0  0  0  0
   52.4335   10.2890   10.2715 H   0  0  0  0  0  0  0  0  0  0  0  0
   51.6949    8.7004   14.7945 H   0  0  0  0  0  0  0  0  0  0  0  0
   52.7617    8.1392   13.5343 H   0  0  0  0  0  0  0  0  0  0  0  0
   50.5247    8.8463   10.7648 H   0  0  0  0  0  0  0  0  0  0  0  0
   50.3973   10.3482   11.6875 H   0  0  0  0  0  0  0  0  0  0  0  0
   48.5323    7.2983   12.2971 H   0  0  0  0  0  0  0  0  0  0  0  0
   48.3122    8.9339   11.7168 H   0  0  0  0  0  0  0  0  0  0  0  0
   44.2792    2.9503   12.7096 H   0  0  0  0  0  0  0  0  0  0  0  0
   49.5381    8.1790   14.4116 H   0  0  0  0  0  0  0  0  0  0  0  0
   49.4147    9.8290   13.7986 H   0  0  0  0  0  0  0  0  0  0  0  0
   46.8172   10.6183   12.0634 H   0  0  0  0  0  0  0  0  0  0  0  0
   42.3205    9.8551   10.1944 H   0  0  0  0  0  0  0  0  0  0  0  0
   54.9088    9.6086   12.3540 H   0  0  0  0  0  0  0  0  0  0  0  0
   54.9592   11.3238   12.8175 H   0  0  0  0  0  0  0  0  0  0  0  0
   54.8106   10.8872   11.1219 H   0  0  0  0  0  0  0  0  0  0  0  0
   45.6912   12.3890   10.8737 H   0  0  0  0  0  0  0  0  0  0  0  0
   43.4289   12.0337    9.9171 H   0  0  0  0  0  0  0  0  0  0  0  0
   47.0362   10.6708   12.4938 H   0  0  0  0  0  0  0  0  0  0  0  0
   49.4443   10.5657   12.1308 H   0  0  0  0  0  0  0  0  0  0  0  0
   46.2558    6.9036   12.0025 H   0  0  0  0  0  0  0  0  0  0  0  0
   51.2968    7.7310   11.9105 H   0  0  0  0  0  0  0  0  0  0  0  0
  2  4  1  0
  3  1  1  0
  4  3  2  0
  5  1  2  0
  6  2  2  0
  7  1  1  0
  8  2  1  0
 10  9  1  0
 11 14  1  0
 12  9  1  0
 13 10  2  0
 14 12  2  0
 15 10  1  0
 16 27  1  0
 17 22  1  0
 18 13  1  0
 19  9  1  0
 20 15  2  0
 21 23  1  0
 22 24  1  0
 23 16  1  0
 24 16  1  0
 25 19  1  0
 26 20  1  0
 27 25  1  0
 28 20  1  0
 29 12  1  0
 30 14  1  0
 31 17  1  0
 32 29  2  0
 33 30  2  0
 11 13  1  0
 32 33  1  0
 26 18  2  0
 17 21  1  0
 35 37  1  0
 36 34  1  0
 37 36  2  0
 38 34  2  0
 39 35  2  0
 40 34  1  0
 41 35  1  0
  3 42  1  0
  4 43  1  0
  7 44  1  0
  8 45  1  0
 15 46  1  0
 18 47  1  0
 19 48  1  0
 19 49  1  0
 21 50  1  0
 21 51  1  0
 22 52  1  0
 22 53  1  0
 23 54  1  0
 23 55  1  0
 24 56  1  0
 24 57  1  0
 25 58  1  0
 25 59  1  0
 26 60  1  0
 27 61  1  0
 27 62  1  0
 29 63  1  0
 30 64  1  0
 31 65  1  0
 31 66  1  0
 31 67  1  0
 32 68  1  0
 33 69  1  0
 36 70  1  0
 37 71  1  0
 40 72  1  0
 41 73  1  0
M  END
> <Uni-Dock RESULT> 
ENERGY=   -5.555  LOWER_BOUND=    0.861  UPPER_BOUND=    0.938
INTER + INTRA:          -5.555
INTER:                  -5.555
INTRA:                   0.000
UNBOUND:                 0.000

$$$$

     RDKit          3D

 73 74  0  0  0  0  0  0  0  0999 V2000
   48.1680   13.5346   16.8272 C   0  0  0  0  0  0  0  0  0  0  0  0
   48.9178   13.3553   19.6935 C   0  0  0  0  0  0  0  0  0  0  0  0
   47.8667   12.3791   17.6782 C   0  0  0  0  0  0  0  0  0  0  0  0
   48.1455   12.3284   18.9867 C   0  0  0  0  0  0  0  0  0  0  0  0
   48.0879   14.7099   17.1208 O   0  0  0  0  0  0  0  0  0  0  0  0
   49.8770   13.9743   19.2804 O   0  0  0  0  0  0  0  0  0  0  0  0
   48.5058   13.1168   15.5978 O   0  0  0  0  0  0  0  0  0  0  0  0
   48.4488   13.4964   20.9424 O   0  0  0  0  0  0  0  0  0  0  0  0
   48.3407   13.1950   20.7899 N   0  0  0  0  0  0  0  0  0  0  0  0
   49.2187   14.0124   21.5612 C   0  0  0  0  0  0  0  0  0  0  0  0
   49.1091   12.1426   23.6624 S   0  0  0  0  0  0  0  0  0  0  0  0
   47.9621   11.8574   21.1097 C   0  0  0  0  0  0  0  0  0  0  0  0
   49.6450   13.6287   22.8507 C   0  0  0  0  0  0  0  0  0  0  0  0
   48.2736   11.2767   22.3559 C   0  0  0  0  0  0  0  0  0  0  0  0
   49.7313   15.2367   21.0742 C   0  0  0  0  0  0  0  0  0  0  0  0
   48.5552   14.1195   15.8814 N   0  0  0  0  0  0  0  0  0  0  0  0
   47.8299   12.8582   13.2017 N   0  0  0  0  0  0  0  0  0  0  0  0
   50.5205   14.4401   23.6013 C   0  0  0  0  0  0  0  0  0  0  0  0
   47.6897   13.8181   19.6136 C   0  0  0  0  0  0  0  0  0  0  0  0
   50.6003   16.0344   21.8264 C   0  0  0  0  0  0  0  0  0  0  0  0
   47.0823   13.9787   13.8060 C   0  0  0  0  0  0  0  0  0  0  0  0
   49.0495   12.5431   13.9730 C   0  0  0  0  0  0  0  0  0  0  0  0
   47.9060   14.8572   14.7753 C   0  0  0  0  0  0  0  0  0  0  0  0
   48.8357   12.7184   15.4913 C   0  0  0  0  0  0  0  0  0  0  0  0
   48.5067   13.6050   18.3309 C   0  0  0  0  0  0  0  0  0  0  0  0
   50.9979   15.6421   23.0923 C   0  0  0  0  0  0  0  0  0  0  0  0
   47.7737   14.2025   17.1231 C   0  0  0  0  0  0  0  0  0  0  0  0
   51.1837   17.5160   21.1709 Cl  0  0  0  0  0  0  0  0  0  0  0  0
   47.2767   11.0267   20.1927 C   0  0  0  0  0  0  0  0  0  0  0  0
   47.9023    9.9499   22.6542 C   0  0  0  0  0  0  0  0  0  0  0  0
   48.1613   13.1123   11.8025 C   0  0  0  0  0  0  0  0  0  0  0  0
   46.9107    9.7085   20.4927 C   0  0  0  0  0  0  0  0  0  0  0  0
   47.2231    9.1681   21.7278 C   0  0  0  0  0  0  0  0  0  0  0  0
   48.0411   13.1421   19.8966 C   0  0  0  0  0  0  0  0  0  0  0  0
   48.7868   13.6698   17.0434 C   0  0  0  0  0  0  0  0  0  0  0  0
   47.4849   12.4228   18.7486 C   0  0  0  0  0  0  0  0  0  0  0  0
   47.8479   12.6261   17.4753 C   0  0  0  0  0  0  0  0  0  0  0  0
   47.3866   13.6553   20.7835 O   0  0  0  0  0  0  0  0  0  0  0  0
   49.0944   14.6907   17.6244 O   0  0  0  0  0  0  0  0  0  0  0  0
   49.3793   13.0680   19.9292 O   0  0  0  0  0  0  0  0  0  0  0  0
   49.2689   13.3656   15.8278 O   0  0  0  0  0  0  0  0  0  0  0  0
   47.3563   11.5574   17.1906 H   0  0  0  0  0  0  0  0  0  0  0  0
   47.8347   11.4806   19.5850 H   0  0  0  0  0  0  0  0  0  0  0  0
   48.7031   13.9495   15.1190 H   0  0  0  0  0  0  0  0  0  0  0  0
   49.0122   14.2048   21.3193 H   0  0  0  0  0  0  0  0  0  0  0  0
   49.4826   15.5992   20.0828 H   0  0  0  0  0  0  0  0  0  0  0  0
   50.8347   14.1335   24.5975 H   0  0  0  0  0  0  0  0  0  0  0  0
   47.5141   14.8887   19.7813 H   0  0  0  0  0  0  0  0  0  0  0  0
   46.6684   13.4368   19.4832 H   0  0  0  0  0  0  0  0  0  0  0  0
   46.6256   14.6161   13.0382 H   0  0  0  0  0  0  0  0  0  0  0  0
   46.2431   13.5454   14.3656 H   0  0  0  0  0  0  0  0  0  0  0  0
   49.8916   13.1768   13.6624 H   0  0  0  0  0  0  0  0  0  0  0  0
   49.3358   11.5046   13.7696 H   0  0  0  0  0  0  0  0  0  0  0  0
   47.2770   15.6727   15.1534 H   0  0  0  0  0  0  0  0  0  0  0  0
   48.7013   15.3500   14.2004 H   0  0  0  0  0  0  0  0  0  0  0  0
   49.7386   12.3818   16.0138 H   0  0  0  0  0  0  0  0  0  0  0  0
   48.0155   12.0542   15.7968 H   0  0  0  0  0  0  0  0  0  0  0  0
   49.4959   14.0673   18.4252 H   0  0  0  0  0  0  0  0  0  0  0  0
   48.6870   12.5360   18.1770 H   0  0  0  0  0  0  0  0  0  0  0  0
   51.6721   16.2553   23.6826 H   0  0  0  0  0  0  0  0  0  0  0  0
   47.5794   15.2595   17.3461 H   0  0  0  0  0  0  0  0  0  0  0  0
   46.7975   13.7162   16.9992 H   0  0  0  0  0  0  0  0  0  0  0  0
   47.0157   11.3708   19.1974 H   0  0  0  0  0  0  0  0  0  0  0  0
   48.1440    9.5182   23.6236 H   0  0  0  0  0  0  0  0  0  0  0  0
   48.7842   14.0061   11.6805 H   0  0  0  0  0  0  0  0  0  0  0  0
   47.2488   13.2441   11.2103 H   0  0  0  0  0  0  0  0  0  0  0  0
   48.6938   12.2573   11.3711 H   0  0  0  0  0  0  0  0  0  0  0  0
   46.3863    9.1093   19.7523 H   0  0  0  0  0  0  0  0  0  0  0  0
   46.9445    8.1467   21.9707 H   0  0  0  0  0  0  0  0  0  0  0  0
   46.7186   11.6986   18.9972 H   0  0  0  0  0  0  0  0  0  0  0  0
   47.4114   12.0284   16.6835 H   0  0  0  0  0  0  0  0  0  0  0  0
   49.6290   13.6103   20.7051 H   0  0  0  0  0  0  0  0  0  0  0  0
   49.8747   14.1093   15.6262 H   0  0  0  0  0  0  0  0  0  0  0  0
  2  4  1  0
  3  1  1  0
  4  3  2  0
  5  1  2  0
  6  2  2  0
  7  1  1  0
  8  2  1  0
 10  9  1  0
 11 14  1  0
 12  9  1  0
 13 10  2  0
 14 12  2  0
 15 10  1  0
 16 27  1  0
 17 22  1  0
 18 13  1  0
 19  9  1  0
 20 15  2  0
 21 23  1  0
 22 24  1  0
 23 16  1  0
 24 16  1  0
 25 19  1  0
 26 20  1  0
 27 25  1  0
 28 20  1  0
 29 12  1  0
 30 14  1  0
 31 17  1  0
 32 29  2  0
 33 30  2  0
 11 13  1  0
 32 33  1  0
 26 18  2  0
 17 21  1  0
 35 37  1  0
 36 34  1  0
 37 36  2  0
 38 34  2  0
 39 35  2  0
 40 34  1  0
 41 35  1  0
  3 42  1  0
  4 43  1  0
  7 44  1  0
  8 45  1  0
 15 46  1  0
 18 47  1  0
 19 48  1  0
 19 49  1  0
 21 50  1  0
 21 51  1  0
 22 52  1  0
 22 53  1  0
 23 54  1  0
 23 55  1  0
 24 56  1  0
 24 57  1  0
 25 58  1  0
 25 59  1  0
 26 60  1  0
 27 61  1  0
 27 62  1  0
 29 63  1  0
 30 64  1  0
 31 65  1  0
 31 66  1  0
 31 67  1  0
 32 68  1  0
 33 69  1  0
 36 70  1  0
 37 71  1  0
 40 72  1  0
 41 73  1  0
M  END
> <Uni-Dock RESULT> 
ENERGY=   -5.495  LOWER_BOUND=    8.066  UPPER_BOUND=   10.073
INTER + INTRA:          -5.495
INTER:                  -5.495
INTRA:                   0.000
UNBOUND:                 0.000

$$$$

     RDKit          3D

 73 74  0  0  0  0  0  0  0  0999 V2000
   48.3727    8.8061   17.1269 C   0  0  0  0  0  0  0  0  0  0  0  0
   48.5102    9.4798   20.0143 C   0  0  0  0  0  0  0  0  0  0  0  0
   48.2176    7.8214   18.2024 C   0  0  0  0  0  0  0  0  0  0  0  0
   48.2124    8.1380   19.5032 C   0  0  0  0  0  0  0  0  0  0  0  0
   47.9189    9.9313   17.0836 O   0  0  0  0  0  0  0  0  0  0  0  0
   49.3333   10.2661   19.5922 O   0  0  0  0  0  0  0  0  0  0  0  0
   49.0659    8.2654   16.1133 O   0  0  0  0  0  0  0  0  0  0  0  0
   47.7640    9.7274   21.1014 O   0  0  0  0  0  0  0  0  0  0  0  0
   47.7762    9.3823   21.0205 N   0  0  0  0  0  0  0  0  0  0  0  0
   48.2157   10.5768   21.6638 C   0  0  0  0  0  0  0  0  0  0  0  0
   48.1642    9.2547   24.1482 S   0  0  0  0  0  0  0  0  0  0  0  0
   47.7112    8.0926   21.6267 C   0  0  0  0  0  0  0  0  0  0  0  0
   48.4425   10.6272   23.0558 C   0  0  0  0  0  0  0  0  0  0  0  0
   47.8925    7.9155   23.0135 C   0  0  0  0  0  0  0  0  0  0  0  0
   48.4727   11.7682   20.9471 C   0  0  0  0  0  0  0  0  0  0  0  0
   48.7822    9.2693   16.1247 N   0  0  0  0  0  0  0  0  0  0  0  0
   49.0145    7.3086   13.8010 N   0  0  0  0  0  0  0  0  0  0  0  0
   48.8857   11.8110   23.6805 C   0  0  0  0  0  0  0  0  0  0  0  0
   47.2497    9.5071   19.6410 C   0  0  0  0  0  0  0  0  0  0  0  0
   48.9132   12.9376   21.5761 C   0  0  0  0  0  0  0  0  0  0  0  0
   47.8819    8.2397   13.9738 C   0  0  0  0  0  0  0  0  0  0  0  0
   50.0791    7.5614   14.7932 C   0  0  0  0  0  0  0  0  0  0  0  0
   48.2117    9.5156   14.7819 C   0  0  0  0  0  0  0  0  0  0  0  0
   49.5055    7.9773   16.1644 C   0  0  0  0  0  0  0  0  0  0  0  0
   48.3494    9.2947   18.5903 C   0  0  0  0  0  0  0  0  0  0  0  0
   49.1204   12.9660   22.9438 C   0  0  0  0  0  0  0  0  0  0  0  0
   47.7596    9.3635   17.1759 C   0  0  0  0  0  0  0  0  0  0  0  0
   49.2037   14.3538   20.6406 Cl  0  0  0  0  0  0  0  0  0  0  0  0
   47.4874    6.9152   20.8754 C   0  0  0  0  0  0  0  0  0  0  0  0
   47.8361    6.6337   23.5974 C   0  0  0  0  0  0  0  0  0  0  0  0
   49.5576    7.3522   12.4463 C   0  0  0  0  0  0  0  0  0  0  0  0
   47.4334    5.6434   21.4594 C   0  0  0  0  0  0  0  0  0  0  0  0
   47.6070    5.5015   22.8250 C   0  0  0  0  0  0  0  0  0  0  0  0
   47.7006    9.0509   20.1402 C   0  0  0  0  0  0  0  0  0  0  0  0
   48.8712    9.1706   17.3850 C   0  0  0  0  0  0  0  0  0  0  0  0
   47.6177    7.9683   19.1574 C   0  0  0  0  0  0  0  0  0  0  0  0
   48.1772    8.0014   17.9406 C   0  0  0  0  0  0  0  0  0  0  0  0
   46.7580    9.5084   20.7568 O   0  0  0  0  0  0  0  0  0  0  0  0
   48.7612   10.3349   17.7118 O   0  0  0  0  0  0  0  0  0  0  0  0
   48.9702    9.4080   20.3808 O   0  0  0  0  0  0  0  0  0  0  0  0
   49.6664    8.7833   16.3749 O   0  0  0  0  0  0  0  0  0  0  0  0
   48.0636    6.7978   17.8830 H   0  0  0  0  0  0  0  0  0  0  0  0
   48.0199    7.3819   20.2546 H   0  0  0  0  0  0  0  0  0  0  0  0
   49.1303    8.9972   15.4637 H   0  0  0  0  0  0  0  0  0  0  0  0
   48.0220   10.6393   21.3526 H   0  0  0  0  0  0  0  0  0  0  0  0
   48.3545   11.8167   19.8702 H   0  0  0  0  0  0  0  0  0  0  0  0
   49.0494   11.8358   24.7565 H   0  0  0  0  0  0  0  0  0  0  0  0
   46.7614   10.4789   19.4919 H   0  0  0  0  0  0  0  0  0  0  0  0
   46.4211    8.8068   19.4729 H   0  0  0  0  0  0  0  0  0  0  0  0
   47.4466    8.5248   13.0077 H   0  0  0  0  0  0  0  0  0  0  0  0
   47.0902    7.6938   14.5034 H   0  0  0  0  0  0  0  0  0  0  0  0
   50.7663    8.3462   14.4484 H   0  0  0  0  0  0  0  0  0  0  0  0
   50.6705    6.6464   14.9156 H   0  0  0  0  0  0  0  0  0  0  0  0
   47.3208   10.1536   14.8368 H   0  0  0  0  0  0  0  0  0  0  0  0
   48.9495   10.0995   14.2158 H   0  0  0  0  0  0  0  0  0  0  0  0
   50.3318    8.0586   16.8801 H   0  0  0  0  0  0  0  0  0  0  0  0
   48.8482    7.1700   16.5155 H   0  0  0  0  0  0  0  0  0  0  0  0
   49.1339   10.0523   18.6979 H   0  0  0  0  0  0  0  0  0  0  0  0
   48.8388    8.3288   18.7528 H   0  0  0  0  0  0  0  0  0  0  0  0
   49.4623   13.8695   23.4397 H   0  0  0  0  0  0  0  0  0  0  0  0
   47.2455   10.3286   17.0805 H   0  0  0  0  0  0  0  0  0  0  0  0
   47.0001    8.5815   17.0483 H   0  0  0  0  0  0  0  0  0  0  0  0
   47.3634    6.9421   19.7980 H   0  0  0  0  0  0  0  0  0  0  0  0
   47.9711    6.5142   24.6707 H   0  0  0  0  0  0  0  0  0  0  0  0
   49.9288    8.3491   12.1811 H   0  0  0  0  0  0  0  0  0  0  0  0
   48.7924    7.0636   11.7171 H   0  0  0  0  0  0  0  0  0  0  0  0
   50.3799    6.6361   12.3374 H   0  0  0  0  0  0  0  0  0  0  0  0
   47.2606    4.7681   20.8380 H   0  0  0  0  0  0  0  0  0  0  0  0
   47.5676    4.5198   23.2882 H   0  0  0  0  0  0  0  0  0  0  0  0
   47.0393    7.1104   19.4778 H   0  0  0  0  0  0  0  0  0  0  0  0
   48.0976    7.1442   17.2822 H   0  0  0  0  0  0  0  0  0  0  0  0
   48.8927   10.1522   21.0123 H   0  0  0  0  0  0  0  0  0  0  0  0
   50.0787    9.6190   16.0713 H   0  0  0  0  0  0  0  0  0  0  0  0
  2  4  1  0
  3  1  1  0
  4  3  2  0
  5  1  2  0
  6  2  2  0
  7  1  1  0
  8  2  1  0
 10  9  1  0
 11 14  1  0
 12  9  1  0
 13 10  2  0
 14 12  2  0
 15 10  1  0
 16 27  1  0
 17 22  1  0
 18 13  1  0
 19  9  1  0
 20 15  2  0
 21 23  1  0
 22 24  1  0
 23 16  1  0
 24 16  1  0
 25 19  1  0
 26 20  1  0
 27 25  1  0
 28 20  1  0
 29 12  1  0
 30 14  1  0
 31 17  1  0
 32 29  2  0
 33 30  2  0
 11 13  1  0
 32 33  1  0
 26 18  2  0
 17 21  1  0
 35 37  1  0
 36 34  1  0
 37 36  2  0
 38 34  2  0
 39 35  2  0
 40 34  1  0
 41 35  1  0
  3 42  1  0
  4 43  1  0
  7 44  1  0
  8 45  1  0
 15 46  1  0
 18 47  1  0
 19 48  1  0
 19 49  1  0
 21 50  1  0
 21 51  1  0
 22 52  1  0
 22 53  1  0
 23 54  1  0
 23 55  1  0
 24 56  1  0
 24 57  1  0
 25 58  1  0
 25 59  1  0
 26 60  1  0
 27 61  1  0
 27 62  1  0
 29 63  1  0
 30 64  1  0
 31 65  1  0
 31 66  1  0
 31 67  1  0
 32 68  1  0
 33 69  1  0
 36 70  1  0
 37 71  1  0
 40 72  1  0
 41 73  1  0
M  END
> <Uni-Dock RESULT> 
ENERGY=   -5.466  LOWER_BOUND=    6.891  UPPER_BOUND=    8.913
INTER + INTRA:          -5.466
INTER:                  -5.466
INTRA:                   0.000
UNBOUND:                 0.000

$$$$

     RDKit          3D

 73 74  0  0  0  0  0  0  0  0999 V2000
   48.3729    8.8061   17.1270 C   0  0  0  0  0  0  0  0  0  0  0  0
   48.5102    9.4797   20.0144 C   0  0  0  0  0  0  0  0  0  0  0  0
   48.2177    7.8214   18.2024 C   0  0  0  0  0  0  0  0  0  0  0  0
   48.2124    8.1379   19.5032 C   0  0  0  0  0  0  0  0  0  0  0  0
   47.9191    9.9312   17.0837 O   0  0  0  0  0  0  0  0  0  0  0  0
   49.3334   10.2660   19.5924 O   0  0  0  0  0  0  0  0  0  0  0  0
   49.0660    8.2654   16.1134 O   0  0  0  0  0  0  0  0  0  0  0  0
   47.7640    9.7272   21.1014 O   0  0  0  0  0  0  0  0  0  0  0  0
   47.7762    9.3821   21.0205 N   0  0  0  0  0  0  0  0  0  0  0  0
   48.2157   10.5766   21.6639 C   0  0  0  0  0  0  0  0  0  0  0  0
   48.1641    9.2545   24.1483 S   0  0  0  0  0  0  0  0  0  0  0  0
   47.7112    8.0925   21.6267 C   0  0  0  0  0  0  0  0  0  0  0  0
   48.4424   10.6269   23.0559 C   0  0  0  0  0  0  0  0  0  0  0  0
   47.8924    7.9153   23.0135 C   0  0  0  0  0  0  0  0  0  0  0  0
   48.4728   11.7680   20.9473 C   0  0  0  0  0  0  0  0  0  0  0  0
   48.7823    9.2693   16.1248 N   0  0  0  0  0  0  0  0  0  0  0  0
   49.0147    7.3086   13.8010 N   0  0  0  0  0  0  0  0  0  0  0  0
   48.8857   11.8108   23.6807 C   0  0  0  0  0  0  0  0  0  0  0  0
   47.2498    9.5070   19.6411 C   0  0  0  0  0  0  0  0  0  0  0  0
   48.9133   12.9374   21.5763 C   0  0  0  0  0  0  0  0  0  0  0  0
   47.8821    8.2398   13.9738 C   0  0  0  0  0  0  0  0  0  0  0  0
   50.0792    7.5614   14.7933 C   0  0  0  0  0  0  0  0  0  0  0  0
   48.2119    9.5156   14.7820 C   0  0  0  0  0  0  0  0  0  0  0  0
   49.5057    7.9773   16.1644 C   0  0  0  0  0  0  0  0  0  0  0  0
   48.3495    9.2947   18.5904 C   0  0  0  0  0  0  0  0  0  0  0  0
   49.1205   12.9658   22.9440 C   0  0  0  0  0  0  0  0  0  0  0  0
   47.7597    9.3635   17.1759 C   0  0  0  0  0  0  0  0  0  0  0  0
   49.2039   14.3536   20.6408 Cl  0  0  0  0  0  0  0  0  0  0  0  0
   47.4873    6.9151   20.8754 C   0  0  0  0  0  0  0  0  0  0  0  0
   47.8360    6.6335   23.5973 C   0  0  0  0  0  0  0  0  0  0  0  0
   49.5579    7.3523   12.4463 C   0  0  0  0  0  0  0  0  0  0  0  0
   47.4333    5.6432   21.4594 C   0  0  0  0  0  0  0  0  0  0  0  0
   47.6068    5.5014   22.8249 C   0  0  0  0  0  0  0  0  0  0  0  0
   47.7007    9.0508   20.1402 C   0  0  0  0  0  0  0  0  0  0  0  0
   48.8713    9.1706   17.3851 C   0  0  0  0  0  0  0  0  0  0  0  0
   47.6177    7.9683   19.1574 C   0  0  0  0  0  0  0  0  0  0  0  0
   48.1772    8.0014   17.9406 C   0  0  0  0  0  0  0  0  0  0  0  0
   46.7580    9.5083   20.7569 O   0  0  0  0  0  0  0  0  0  0  0  0
   48.7613   10.3349   17.7119 O   0  0  0  0  0  0  0  0  0  0  0  0
   48.9702    9.4079   20.3809 O   0  0  0  0  0  0  0  0  0  0  0  0
   49.6665    8.7832   16.3750 O   0  0  0  0  0  0  0  0  0  0  0  0
   48.0636    6.7978   17.8829 H   0  0  0  0  0  0  0  0  0  0  0  0
   48.0198    7.3818   20.2546 H   0  0  0  0  0  0  0  0  0  0  0  0
   49.1305    8.9972   15.4638 H   0  0  0  0  0  0  0  0  0  0  0  0
   48.0220   10.6391   21.3527 H   0  0  0  0  0  0  0  0  0  0  0  0
   48.3546   11.8166   19.8704 H   0  0  0  0  0  0  0  0  0  0  0  0
   49.0494   11.8355   24.7567 H   0  0  0  0  0  0  0  0  0  0  0  0
   46.7615   10.4789   19.4920 H   0  0  0  0  0  0  0  0  0  0  0  0
   46.4211    8.8068   19.4729 H   0  0  0  0  0  0  0  0  0  0  0  0
   47.4469    8.5249   13.0077 H   0  0  0  0  0  0  0  0  0  0  0  0
   47.0904    7.6939   14.5034 H   0  0  0  0  0  0  0  0  0  0  0  0
   50.7665    8.3462   14.4485 H   0  0  0  0  0  0  0  0  0  0  0  0
   50.6706    6.6464   14.9156 H   0  0  0  0  0  0  0  0  0  0  0  0
   47.3211   10.1537   14.8368 H   0  0  0  0  0  0  0  0  0  0  0  0
   48.9497   10.0995   14.2159 H   0  0  0  0  0  0  0  0  0  0  0  0
   50.3319    8.0586   16.8801 H   0  0  0  0  0  0  0  0  0  0  0  0
   48.8482    7.1700   16.5155 H   0  0  0  0  0  0  0  0  0  0  0  0
   49.1340   10.0522   18.6980 H   0  0  0  0  0  0  0  0  0  0  0  0
   48.8389    8.3288   18.7529 H   0  0  0  0  0  0  0  0  0  0  0  0
   49.4623   13.8693   23.4399 H   0  0  0  0  0  0  0  0  0  0  0  0
   47.2457   10.3286   17.0805 H   0  0  0  0  0  0  0  0  0  0  0  0
   47.0002    8.5815   17.0482 H   0  0  0  0  0  0  0  0  0  0  0  0
   47.3634    6.9420   19.7979 H   0  0  0  0  0  0  0  0  0  0  0  0
   47.9709    6.5140   24.6706 H   0  0  0  0  0  0  0  0  0  0  0  0
   49.9290    8.3492   12.1812 H   0  0  0  0  0  0  0  0  0  0  0  0
   48.7926    7.0637   11.7171 H   0  0  0  0  0  0  0  0  0  0  0  0
   50.3801    6.6362   12.3375 H   0  0  0  0  0  0  0  0  0  0  0  0
   47.2605    4.7680   20.8379 H   0  0  0  0  0  0  0  0  0  0  0  0
   47.5674    4.5197   23.2881 H   0  0  0  0  0  0  0  0  0  0  0  0
   47.0392    7.1103   19.4778 H   0  0  0  0  0  0  0  0  0  0  0  0
   48.0976    7.1442   17.2822 H   0  0  0  0  0  0  0  0  0  0  0  0
   48.8927   10.1520   21.0124 H   0  0  0  0  0  0  0  0  0  0  0  0
   50.0789    9.6190   16.0714 H   0  0  0  0  0  0  0  0  0  0  0  0
  2  4  1  0
  3  1  1  0
  4  3  2  0
  5  1  2  0
  6  2  2  0
  7  1  1  0
  8  2  1  0
 10  9  1  0
 11 14  1  0
 12  9  1  0
 13 10  2  0
 14 12  2  0
 15 10  1  0
 16 27  1  0
 17 22  1  0
 18 13  1  0
 19  9  1  0
 20 15  2  0
 21 23  1  0
 22 24  1  0
 23 16  1  0
 24 16  1  0
 25 19  1  0
 26 20  1  0
 27 25  1  0
 28 20  1  0
 29 12  1  0
 30 14  1  0
 31 17  1  0
 32 29  2  0
 33 30  2  0
 11 13  1  0
 32 33  1  0
 26 18  2  0
 17 21  1  0
 35 37  1  0
 36 34  1  0
 37 36  2  0
 38 34  2  0
 39 35  2  0
 40 34  1  0
 41 35  1  0
  3 42  1  0
  4 43  1  0
  7 44  1  0
  8 45  1  0
 15 46  1  0
 18 47  1  0
 19 48  1  0
 19 49  1  0
 21 50  1  0
 21 51  1  0
 22 52  1  0
 22 53  1  0
 23 54  1  0
 23 55  1  0
 24 56  1  0
 24 57  1  0
 25 58  1  0
 25 59  1  0
 26 60  1  0
 27 61  1  0
 27 62  1  0
 29 63  1  0
 30 64  1  0
 31 65  1  0
 31 66  1  0
 31 67  1  0
 32 68  1  0
 33 69  1  0
 36 70  1  0
 37 71  1  0
 40 72  1  0
 41 73  1  0
M  END
> <Uni-Dock RESULT> 
ENERGY=   -5.466  LOWER_BOUND=    6.891  UPPER_BOUND=    8.913
INTER + INTRA:          -5.466
INTER:                  -5.466
INTRA:                   0.000
UNBOUND:                 0.000

$$$$

     RDKit          3D

 73 74  0  0  0  0  0  0  0  0999 V2000
   44.0467   10.1162   11.1625 C   0  0  0  0  0  0  0  0  0  0  0  0
   45.3824    7.8317   12.5068 C   0  0  0  0  0  0  0  0  0  0  0  0
   45.1236   10.2653   12.1465 C   0  0  0  0  0  0  0  0  0  0  0  0
   45.7705    9.2325   12.7008 C   0  0  0  0  0  0  0  0  0  0  0  0
   43.9682    9.2959   10.2710 O   0  0  0  0  0  0  0  0  0  0  0  0
   44.2582    7.3800   12.4276 O   0  0  0  0  0  0  0  0  0  0  0  0
   43.1351   11.0850   11.3373 O   0  0  0  0  0  0  0  0  0  0  0  0
   46.4769    7.0564   12.4844 O   0  0  0  0  0  0  0  0  0  0  0  0
   46.5404    7.3774   12.6213 N   0  0  0  0  0  0  0  0  0  0  0  0
   46.1749    5.9997   12.6686 C   0  0  0  0  0  0  0  0  0  0  0  0
   48.1067    5.5584   14.6676 S   0  0  0  0  0  0  0  0  0  0  0  0
   47.3847    8.0414   13.5600 C   0  0  0  0  0  0  0  0  0  0  0  0
   46.7950    5.0998   13.5615 C   0  0  0  0  0  0  0  0  0  0  0  0
   48.1141    7.3296   14.5340 C   0  0  0  0  0  0  0  0  0  0  0  0
   45.1588    5.4607   11.8463 C   0  0  0  0  0  0  0  0  0  0  0  0
   43.0044   10.3108   10.6503 N   0  0  0  0  0  0  0  0  0  0  0  0
   42.1663   13.2393   10.5095 N   0  0  0  0  0  0  0  0  0  0  0  0
   46.4198    3.7413   13.6063 C   0  0  0  0  0  0  0  0  0  0  0  0
   46.0884    8.1609   11.4476 C   0  0  0  0  0  0  0  0  0  0  0  0
   44.7930    4.1114   11.8990 C   0  0  0  0  0  0  0  0  0  0  0  0
   42.7815   12.5108    9.3824 C   0  0  0  0  0  0  0  0  0  0  0  0
   41.8662   12.3355   11.6386 C   0  0  0  0  0  0  0  0  0  0  0  0
   42.5643   10.9804    9.4065 C   0  0  0  0  0  0  0  0  0  0  0  0
   42.9393   11.2386   11.8032 C   0  0  0  0  0  0  0  0  0  0  0  0
   44.7415    8.8510   11.7079 C   0  0  0  0  0  0  0  0  0  0  0  0
   45.4211    3.2454   12.7765 C   0  0  0  0  0  0  0  0  0  0  0  0
   44.3355    9.7063   10.5009 C   0  0  0  0  0  0  0  0  0  0  0  0
   43.5478    3.5226   10.8655 Cl  0  0  0  0  0  0  0  0  0  0  0  0
   47.5224    9.4489   13.5883 C   0  0  0  0  0  0  0  0  0  0  0  0
   48.9364    8.0000   15.4622 C   0  0  0  0  0  0  0  0  0  0  0  0
   40.9663   13.9651   10.1029 C   0  0  0  0  0  0  0  0  0  0  0  0
   48.3396   10.1111   14.5132 C   0  0  0  0  0  0  0  0  0  0  0  0
   49.0502    9.3848   15.4526 C   0  0  0  0  0  0  0  0  0  0  0  0
   46.2016    8.1771   12.2523 C   0  0  0  0  0  0  0  0  0  0  0  0
   43.7017    9.6221   11.4537 C   0  0  0  0  0  0  0  0  0  0  0  0
   46.0685    9.6345   12.1993 C   0  0  0  0  0  0  0  0  0  0  0  0
   44.9399   10.2841   11.8849 C   0  0  0  0  0  0  0  0  0  0  0  0
   47.0968    7.5379   11.7342 O   0  0  0  0  0  0  0  0  0  0  0  0
   43.5696    8.5138   10.9756 O   0  0  0  0  0  0  0  0  0  0  0  0
   45.2792    7.6221   13.0514 O   0  0  0  0  0  0  0  0  0  0  0  0
   42.6637   10.4571   11.6214 O   0  0  0  0  0  0  0  0  0  0  0  0
   45.4064   11.2842   12.3821 H   0  0  0  0  0  0  0  0  0  0  0  0
   46.6086    9.3991   13.3665 H   0  0  0  0  0  0  0  0  0  0  0  0
   42.4589   10.8893   10.6547 H   0  0  0  0  0  0  0  0  0  0  0  0
   46.1165    6.1567   12.3366 H   0  0  0  0  0  0  0  0  0  0  0  0
   44.6066    6.0818   11.1497 H   0  0  0  0  0  0  0  0  0  0  0  0
   46.9125    3.0581   14.2959 H   0  0  0  0  0  0  0  0  0  0  0  0
   46.0272    7.5292   10.5519 H   0  0  0  0  0  0  0  0  0  0  0  0
   46.8455    8.9000   11.1547 H   0  0  0  0  0  0  0  0  0  0  0  0
   42.4458   12.9095    8.4167 H   0  0  0  0  0  0  0  0  0  0  0  0
   43.8614   12.7042    9.4210 H   0  0  0  0  0  0  0  0  0  0  0  0
   40.8877   11.8521   11.5122 H   0  0  0  0  0  0  0  0  0  0  0  0
   41.8161   12.9279   12.5597 H   0  0  0  0  0  0  0  0  0  0  0  0
   43.0338   10.5309    8.5226 H   0  0  0  0  0  0  0  0  0  0  0  0
   41.4898   10.7843    9.2927 H   0  0  0  0  0  0  0  0  0  0  0  0
   42.7146   10.6610   12.7072 H   0  0  0  0  0  0  0  0  0  0  0  0
   43.9071   11.7331   11.9642 H   0  0  0  0  0  0  0  0  0  0  0  0
   43.9622    8.1073   11.9093 H   0  0  0  0  0  0  0  0  0  0  0  0
   44.8076    9.4698   12.6088 H   0  0  0  0  0  0  0  0  0  0  0  0
   45.1431    2.1969   12.8236 H   0  0  0  0  0  0  0  0  0  0  0  0
   44.3267    9.0503    9.6210 H   0  0  0  0  0  0  0  0  0  0  0  0
   45.0932   10.4790   10.3174 H   0  0  0  0  0  0  0  0  0  0  0  0
   46.9816   10.0881   12.8985 H   0  0  0  0  0  0  0  0  0  0  0  0
   49.4987    7.4356   16.2036 H   0  0  0  0  0  0  0  0  0  0  0  0
   40.1942   13.2973    9.7032 H   0  0  0  0  0  0  0  0  0  0  0  0
   41.2098   14.7091    9.3361 H   0  0  0  0  0  0  0  0  0  0  0  0
   40.5432   14.5159   10.9505 H   0  0  0  0  0  0  0  0  0  0  0  0
   48.4103   11.1959   14.4953 H   0  0  0  0  0  0  0  0  0  0  0  0
   49.6865    9.8882   16.1748 H   0  0  0  0  0  0  0  0  0  0  0  0
   46.9778   10.1797   12.4215 H   0  0  0  0  0  0  0  0  0  0  0  0
   44.9142   11.3675   11.8996 H   0  0  0  0  0  0  0  0  0  0  0  0
   45.4446    6.6603   12.9739 H   0  0  0  0  0  0  0  0  0  0  0  0
   41.8946    9.9360   11.3090 H   0  0  0  0  0  0  0  0  0  0  0  0
  2  4  1  0
  3  1  1  0
  4  3  2  0
  5  1  2  0
  6  2  2  0
  7  1  1  0
  8  2  1  0
 10  9  1  0
 11 14  1  0
 12  9  1  0
 13 10  2  0
 14 12  2  0
 15 10  1  0
 16 27  1  0
 17 22  1  0
 18 13  1  0
 19  9  1  0
 20 15  2  0
 21 23  1  0
 22 24  1  0
 23 16  1  0
 24 16  1  0
 25 19  1  0
 26 20  1  0
 27 25  1  0
 28 20  1  0
 29 12  1  0
 30 14  1  0
 31 17  1  0
 32 29  2  0
 33 30  2  0
 11 13  1  0
 32 33  1  0
 26 18  2  0
 17 21  1  0
 35 37  1  0
 36 34  1  0
 37 36  2  0
 38 34  2  0
 39 35  2  0
 40 34  1  0
 41 35  1  0
  3 42  1  0
  4 43  1  0
  7 44  1  0
  8 45  1  0
 15 46  1  0
 18 47  1  0
 19 48  1  0
 19 49  1  0
 21 50  1  0
 21 51  1  0
 22 52  1  0
 22 53  1  0
 23 54  1  0
 23 55  1  0
 24 56  1  0
 24 57  1  0
 25 58  1  0
 25 59  1  0
 26 60  1  0
 27 61  1  0
 27 62  1  0
 29 63  1  0
 30 64  1  0
 31 65  1  0
 31 66  1  0
 31 67  1  0
 32 68  1  0
 33 69  1  0
 36 70  1  0
 37 71  1  0
 40 72  1  0
 41 73  1  0
M  END
> <Uni-Dock RESULT> 
ENERGY=   -5.374  LOWER_BOUND=    2.808  UPPER_BOUND=    6.264
INTER + INTRA:          -5.374
INTER:                  -5.374
INTRA:                   0.000
UNBOUND:                 0.000

$$$$

     RDKit          3D

 73 74  0  0  0  0  0  0  0  0999 V2000
   44.2117   10.2877   11.1834 C   0  0  0  0  0  0  0  0  0  0  0  0
   45.8775    8.4147   12.7731 C   0  0  0  0  0  0  0  0  0  0  0  0
   45.3841   10.6990   11.9621 C   0  0  0  0  0  0  0  0  0  0  0  0
   46.1733    9.8431   12.6232 C   0  0  0  0  0  0  0  0  0  0  0  0
   44.0919    9.2937   10.4968 O   0  0  0  0  0  0  0  0  0  0  0  0
   44.7916    7.8978   12.9397 O   0  0  0  0  0  0  0  0  0  0  0  0
   43.2536   11.2221   11.2781 O   0  0  0  0  0  0  0  0  0  0  0  0
   47.0196    7.7110   12.7621 O   0  0  0  0  0  0  0  0  0  0  0  0
   47.0734    8.0566   12.8208 N   0  0  0  0  0  0  0  0  0  0  0  0
   46.8271    6.7032   13.1968 C   0  0  0  0  0  0  0  0  0  0  0  0
   49.0150    6.7991   14.9652 S   0  0  0  0  0  0  0  0  0  0  0  0
   47.9691    8.9485   13.4820 C   0  0  0  0  0  0  0  0  0  0  0  0
   47.6201    6.0475   14.1627 C   0  0  0  0  0  0  0  0  0  0  0  0
   48.8650    8.4993   14.4734 C   0  0  0  0  0  0  0  0  0  0  0  0
   45.7655    5.9490   12.6462 C   0  0  0  0  0  0  0  0  0  0  0  0
   43.1031   10.3139   10.7873 N   0  0  0  0  0  0  0  0  0  0  0  0
   42.0235   13.0973   10.1664 N   0  0  0  0  0  0  0  0  0  0  0  0
   47.3624    4.7118   14.5337 C   0  0  0  0  0  0  0  0  0  0  0  0
   46.4222    8.5479   11.5838 C   0  0  0  0  0  0  0  0  0  0  0  0
   45.5173    4.6244   13.0217 C   0  0  0  0  0  0  0  0  0  0  0  0
   42.5543   12.1792    9.1392 C   0  0  0  0  0  0  0  0  0  0  0  0
   41.9347   12.4396   11.4860 C   0  0  0  0  0  0  0  0  0  0  0  0
   42.4642   10.6797    9.5039 C   0  0  0  0  0  0  0  0  0  0  0  0
   43.1038   11.4607   11.7248 C   0  0  0  0  0  0  0  0  0  0  0  0
   45.0658    9.2057   11.8768 C   0  0  0  0  0  0  0  0  0  0  0  0
   46.3136    3.9990   13.9647 C   0  0  0  0  0  0  0  0  0  0  0  0
   44.4503    9.7623   10.5866 C   0  0  0  0  0  0  0  0  0  0  0  0
   44.2075    3.7646   12.3073 Cl  0  0  0  0  0  0  0  0  0  0  0  0
   47.9967   10.3351   13.2038 C   0  0  0  0  0  0  0  0  0  0  0  0
   49.7372    9.3940   15.1260 C   0  0  0  0  0  0  0  0  0  0  0  0
   40.7293   13.6559    9.7856 C   0  0  0  0  0  0  0  0  0  0  0  0
   48.8641   11.2208   13.8556 C   0  0  0  0  0  0  0  0  0  0  0  0
   49.7384   10.7492   14.8190 C   0  0  0  0  0  0  0  0  0  0  0  0
   46.6299    8.7407   12.3456 C   0  0  0  0  0  0  0  0  0  0  0  0
   43.9449    9.8493   11.6130 C   0  0  0  0  0  0  0  0  0  0  0  0
   46.3757   10.1445   12.0148 C   0  0  0  0  0  0  0  0  0  0  0  0
   45.1693   10.6521   11.7293 C   0  0  0  0  0  0  0  0  0  0  0  0
   47.5041    8.0540   11.8530 O   0  0  0  0  0  0  0  0  0  0  0  0
   43.8447    8.6593   11.3932 O   0  0  0  0  0  0  0  0  0  0  0  0
   45.8578    8.3204   13.3577 O   0  0  0  0  0  0  0  0  0  0  0  0
   42.8715   10.6450   11.7451 O   0  0  0  0  0  0  0  0  0  0  0  0
   45.6112   11.7581   11.9447 H   0  0  0  0  0  0  0  0  0  0  0  0
   47.0697   10.1912   13.1219 H   0  0  0  0  0  0  0  0  0  0  0  0
   42.5178   10.8505   10.7470 H   0  0  0  0  0  0  0  0  0  0  0  0
   46.7168    6.7827   12.8508 H   0  0  0  0  0  0  0  0  0  0  0  0
   45.0855    6.3779   11.9184 H   0  0  0  0  0  0  0  0  0  0  0  0
   47.9876    4.2177   15.2754 H   0  0  0  0  0  0  0  0  0  0  0  0
   46.3038    7.7379   10.8523 H   0  0  0  0  0  0  0  0  0  0  0  0
   47.0771    9.2466   11.0471 H   0  0  0  0  0  0  0  0  0  0  0  0
   42.0739   12.3454    8.1667 H   0  0  0  0  0  0  0  0  0  0  0  0
   43.6122   12.4330    8.9918 H   0  0  0  0  0  0  0  0  0  0  0  0
   40.9898   11.8894   11.5937 H   0  0  0  0  0  0  0  0  0  0  0  0
   41.9491   13.2107   12.2651 H   0  0  0  0  0  0  0  0  0  0  0  0
   42.8580   10.0780    8.6753 H   0  0  0  0  0  0  0  0  0  0  0  0
   41.4029   10.4076    9.5782 H   0  0  0  0  0  0  0  0  0  0  0  0
   43.0365   11.0774   12.7495 H   0  0  0  0  0  0  0  0  0  0  0  0
   44.0415   12.0283   11.6498 H   0  0  0  0  0  0  0  0  0  0  0  0
   44.3782    8.4818   12.3286 H   0  0  0  0  0  0  0  0  0  0  0  0
   45.1906   10.0044   12.6153 H   0  0  0  0  0  0  0  0  0  0  0  0
   46.1277    2.9712   14.2616 H   0  0  0  0  0  0  0  0  0  0  0  0
   44.3878    8.9347    9.8683 H   0  0  0  0  0  0  0  0  0  0  0  0
   45.1164   10.5171   10.1491 H   0  0  0  0  0  0  0  0  0  0  0  0
   47.3274   10.7837   12.4774 H   0  0  0  0  0  0  0  0  0  0  0  0
   50.4280    9.0305   15.8844 H   0  0  0  0  0  0  0  0  0  0  0  0
   39.9703   12.8787    9.6382 H   0  0  0  0  0  0  0  0  0  0  0  0
   40.8184   14.2317    8.8576 H   0  0  0  0  0  0  0  0  0  0  0  0
   40.3690   14.3511   10.5521 H   0  0  0  0  0  0  0  0  0  0  0  0
   48.8455   12.2792   13.6075 H   0  0  0  0  0  0  0  0  0  0  0  0
   50.4150   11.4273   15.3310 H   0  0  0  0  0  0  0  0  0  0  0  0
   47.2588   10.7715   11.9967 H   0  0  0  0  0  0  0  0  0  0  0  0
   45.0593   11.7110   11.5262 H   0  0  0  0  0  0  0  0  0  0  0  0
   46.0887    7.3742   13.4565 H   0  0  0  0  0  0  0  0  0  0  0  0
   42.1142   10.0297   11.6519 H   0  0  0  0  0  0  0  0  0  0  0  0
  2  4  1  0
  3  1  1  0
  4  3  2  0
  5  1  2  0
  6  2  2  0
  7  1  1  0
  8  2  1  0
 10  9  1  0
 11 14  1  0
 12  9  1  0
 13 10  2  0
 14 12  2  0
 15 10  1  0
 16 27  1  0
 17 22  1  0
 18 13  1  0
 19  9  1  0
 20 15  2  0
 21 23  1  0
 22 24  1  0
 23 16  1  0
 24 16  1  0
 25 19  1  0
 26 20  1  0
 27 25  1  0
 28 20  1  0
 29 12  1  0
 30 14  1  0
 31 17  1  0
 32 29  2  0
 33 30  2  0
 11 13  1  0
 32 33  1  0
 26 18  2  0
 17 21  1  0
 35 37  1  0
 36 34  1  0
 37 36  2  0
 38 34  2  0
 39 35  2  0
 40 34  1  0
 41 35  1  0
  3 42  1  0
  4 43  1  0
  7 44  1  0
  8 45  1  0
 15 46  1  0
 18 47  1  0
 19 48  1  0
 19 49  1  0
 21 50  1  0
 21 51  1  0
 22 52  1  0
 22 53  1  0
 23 54  1  0
 23 55  1  0
 24 56  1  0
 24 57  1  0
 25 58  1  0
 25 59  1  0
 26 60  1  0
 27 61  1  0
 27 62  1  0
 29 63  1  0
 30 64  1  0
 31 65  1  0
 31 66  1  0
 31 67  1  0
 32 68  1  0
 33 69  1  0
 36 70  1  0
 37 71  1  0
 40 72  1  0
 41 73  1  0
M  END
> <Uni-Dock RESULT> 
ENERGY=   -5.202  LOWER_BOUND=    2.548  UPPER_BOUND=    6.254
INTER + INTRA:          -5.202
INTER:                  -5.202
INTRA:                   0.000
UNBOUND:                 0.000

$$$$

     RDKit          3D

 73 74  0  0  0  0  0  0  0  0999 V2000
   45.7966    7.1023   12.2595 C   0  0  0  0  0  0  0  0  0  0  0  0
   47.2076    9.6877   11.8926 C   0  0  0  0  0  0  0  0  0  0  0  0
   47.2516    7.2254   12.1252 C   0  0  0  0  0  0  0  0  0  0  0  0
   47.8912    8.3975   12.0278 C   0  0  0  0  0  0  0  0  0  0  0  0
   45.0491    7.8206   12.8913 O   0  0  0  0  0  0  0  0  0  0  0  0
   46.1973    9.9270   11.2632 O   0  0  0  0  0  0  0  0  0  0  0  0
   45.3724    6.0060   11.6128 O   0  0  0  0  0  0  0  0  0  0  0  0
   47.9020   10.6388   12.5352 O   0  0  0  0  0  0  0  0  0  0  0  0
   48.0938   10.3462   12.4771 N   0  0  0  0  0  0  0  0  0  0  0  0
   47.5759   11.6375   12.1636 C   0  0  0  0  0  0  0  0  0  0  0  0
   50.1911   12.5728   11.7066 S   0  0  0  0  0  0  0  0  0  0  0  0
   49.4377    9.9196   12.2604 C   0  0  0  0  0  0  0  0  0  0  0  0
   48.4215   12.7021   11.7851 C   0  0  0  0  0  0  0  0  0  0  0  0
   50.4524   10.8255   11.8903 C   0  0  0  0  0  0  0  0  0  0  0  0
   46.1909   11.9208   12.1892 C   0  0  0  0  0  0  0  0  0  0  0  0
   44.7147    6.6865   12.0518 N   0  0  0  0  0  0  0  0  0  0  0  0
   44.5307    3.6548   11.7816 N   0  0  0  0  0  0  0  0  0  0  0  0
   47.8981   13.9726   11.4685 C   0  0  0  0  0  0  0  0  0  0  0  0
   47.1902    9.4025   13.1760 C   0  0  0  0  0  0  0  0  0  0  0  0
   45.6813   13.1846   11.8724 C   0  0  0  0  0  0  0  0  0  0  0  0
   44.2018    4.3857   13.0215 C   0  0  0  0  0  0  0  0  0  0  0  0
   44.7979    4.5808   10.6623 C   0  0  0  0  0  0  0  0  0  0  0  0
   43.7570    5.8509   12.8093 C   0  0  0  0  0  0  0  0  0  0  0  0
   45.5260    5.8588   11.1294 C   0  0  0  0  0  0  0  0  0  0  0  0
   46.4244    8.5100   12.1885 C   0  0  0  0  0  0  0  0  0  0  0  0
   46.5304   14.2160   11.5124 C   0  0  0  0  0  0  0  0  0  0  0  0
   45.5504    7.5013   12.9446 C   0  0  0  0  0  0  0  0  0  0  0  0
   43.9823   13.4593   11.9274 Cl  0  0  0  0  0  0  0  0  0  0  0  0
   49.8285    8.5653   12.3781 C   0  0  0  0  0  0  0  0  0  0  0  0
   51.7741   10.3879   11.6693 C   0  0  0  0  0  0  0  0  0  0  0  0
   43.4892    2.6987   11.4167 C   0  0  0  0  0  0  0  0  0  0  0  0
   51.1426    8.1345   12.1563 C   0  0  0  0  0  0  0  0  0  0  0  0
   52.1194    9.0485   11.8019 C   0  0  0  0  0  0  0  0  0  0  0  0
   47.7609    9.4721   12.6015 C   0  0  0  0  0  0  0  0  0  0  0  0
   45.6072    7.5502   11.7997 C   0  0  0  0  0  0  0  0  0  0  0  0
   47.9013    8.0145   12.6238 C   0  0  0  0  0  0  0  0  0  0  0  0
   46.9559    7.1533   12.2249 C   0  0  0  0  0  0  0  0  0  0  0  0
   48.0302   10.2142   13.5262 O   0  0  0  0  0  0  0  0  0  0  0  0
   45.0095    8.5754   12.0571 O   0  0  0  0  0  0  0  0  0  0  0  0
   47.4117    9.9197   11.3870 O   0  0  0  0  0  0  0  0  0  0  0  0
   45.0547    6.5624   11.0773 O   0  0  0  0  0  0  0  0  0  0  0  0
   47.8055    6.2947   12.1483 H   0  0  0  0  0  0  0  0  0  0  0  0
   48.9736    8.4355   12.0053 H   0  0  0  0  0  0  0  0  0  0  0  0
   44.4009    6.0236   11.7448 H   0  0  0  0  0  0  0  0  0  0  0  0
   47.3623   11.4462   12.4003 H   0  0  0  0  0  0  0  0  0  0  0  0
   45.4625   11.1576   12.4402 H   0  0  0  0  0  0  0  0  0  0  0  0
   48.5642   14.7856   11.1849 H   0  0  0  0  0  0  0  0  0  0  0  0
   46.4894    9.9385   13.8293 H   0  0  0  0  0  0  0  0  0  0  0  0
   47.7467    8.7865   13.8945 H   0  0  0  0  0  0  0  0  0  0  0  0
   43.4401    3.8568   13.6082 H   0  0  0  0  0  0  0  0  0  0  0  0
   45.1045    4.3889   13.6463 H   0  0  0  0  0  0  0  0  0  0  0  0
   43.8672    4.8729   10.1567 H   0  0  0  0  0  0  0  0  0  0  0  0
   45.4195    4.0659    9.9204 H   0  0  0  0  0  0  0  0  0  0  0  0
   43.5120    6.3023   13.7787 H   0  0  0  0  0  0  0  0  0  0  0  0
   42.8133    5.8453   12.2477 H   0  0  0  0  0  0  0  0  0  0  0  0
   45.7797    6.4598   10.2485 H   0  0  0  0  0  0  0  0  0  0  0  0
   46.4711    5.5569   11.6014 H   0  0  0  0  0  0  0  0  0  0  0  0
   45.7952    9.1192   11.5297 H   0  0  0  0  0  0  0  0  0  0  0  0
   47.1297    7.9880   11.5336 H   0  0  0  0  0  0  0  0  0  0  0  0
   46.1429   15.1997   11.2650 H   0  0  0  0  0  0  0  0  0  0  0  0
   44.8953    8.0716   13.6157 H   0  0  0  0  0  0  0  0  0  0  0  0
   46.1788    6.8614   13.5774 H   0  0  0  0  0  0  0  0  0  0  0  0
   49.1164    7.7869   12.6312 H   0  0  0  0  0  0  0  0  0  0  0  0
   52.5478   11.1008   11.3908 H   0  0  0  0  0  0  0  0  0  0  0  0
   42.5220    3.1857   11.2457 H   0  0  0  0  0  0  0  0  0  0  0  0
   43.3634    1.9491   12.2059 H   0  0  0  0  0  0  0  0  0  0  0  0
   43.7679    2.1532   10.5082 H   0  0  0  0  0  0  0  0  0  0  0  0
   51.3925    7.0812   12.2574 H   0  0  0  0  0  0  0  0  0  0  0  0
   53.1415    8.7252   11.6270 H   0  0  0  0  0  0  0  0  0  0  0  0
   48.8467    7.6575   13.0139 H   0  0  0  0  0  0  0  0  0  0  0  0
   47.1496    6.0871   12.2420 H   0  0  0  0  0  0  0  0  0  0  0  0
   47.3126   10.8860   11.5087 H   0  0  0  0  0  0  0  0  0  0  0  0
   44.1696    6.9130   10.8444 H   0  0  0  0  0  0  0  0  0  0  0  0
  2  4  1  0
  3  1  1  0
  4  3  2  0
  5  1  2  0
  6  2  2  0
  7  1  1  0
  8  2  1  0
 10  9  1  0
 11 14  1  0
 12  9  1  0
 13 10  2  0
 14 12  2  0
 15 10  1  0
 16 27  1  0
 17 22  1  0
 18 13  1  0
 19  9  1  0
 20 15  2  0
 21 23  1  0
 22 24  1  0
 23 16  1  0
 24 16  1  0
 25 19  1  0
 26 20  1  0
 27 25  1  0
 28 20  1  0
 29 12  1  0
 30 14  1  0
 31 17  1  0
 32 29  2  0
 33 30  2  0
 11 13  1  0
 32 33  1  0
 26 18  2  0
 17 21  1  0
 35 37  1  0
 36 34  1  0
 37 36  2  0
 38 34  2  0
 39 35  2  0
 40 34  1  0
 41 35  1  0
  3 42  1  0
  4 43  1  0
  7 44  1  0
  8 45  1  0
 15 46  1  0
 18 47  1  0
 19 48  1  0
 19 49  1  0
 21 50  1  0
 21 51  1  0
 22 52  1  0
 22 53  1  0
 23 54  1  0
 23 55  1  0
 24 56  1  0
 24 57  1  0
 25 58  1  0
 25 59  1  0
 26 60  1  0
 27 61  1  0
 27 62  1  0
 29 63  1  0
 30 64  1  0
 31 65  1  0
 31 66  1  0
 31 67  1  0
 32 68  1  0
 33 69  1  0
 36 70  1  0
 37 71  1  0
 40 72  1  0
 41 73  1  0
M  END
> <Uni-Dock RESULT> 
ENERGY=   -4.915  LOWER_BOUND=    2.914  UPPER_BOUND=    6.370
INTER + INTRA:          -4.915
INTER:                  -4.915
INTRA:                   0.000
UNBOUND:                 0.000

$$$$

     RDKit          3D

 73 74  0  0  0  0  0  0  0  0999 V2000
   47.3636    6.5128   12.9862 C   0  0  0  0  0  0  0  0  0  0  0  0
   49.0875    8.8423   13.6274 C   0  0  0  0  0  0  0  0  0  0  0  0
   48.5004    6.9372   12.1629 C   0  0  0  0  0  0  0  0  0  0  0  0
   49.3173    7.9463   12.4896 C   0  0  0  0  0  0  0  0  0  0  0  0
   47.3041    6.4682   14.1979 O   0  0  0  0  0  0  0  0  0  0  0  0
   48.0247    9.2714   14.0280 O   0  0  0  0  0  0  0  0  0  0  0  0
   46.3603    6.1009   12.1964 O   0  0  0  0  0  0  0  0  0  0  0  0
   50.2620    9.1991   14.1686 O   0  0  0  0  0  0  0  0  0  0  0  0
   50.2980    9.0626   13.8433 N   0  0  0  0  0  0  0  0  0  0  0  0
   50.1100   10.1088   14.7941 C   0  0  0  0  0  0  0  0  0  0  0  0
   52.2577   11.5271   13.6546 S   0  0  0  0  0  0  0  0  0  0  0  0
   51.1377    9.1327   12.6922 C   0  0  0  0  0  0  0  0  0  0  0  0
   50.9155   11.2676   14.7884 C   0  0  0  0  0  0  0  0  0  0  0  0
   52.0356   10.2012   12.4936 C   0  0  0  0  0  0  0  0  0  0  0  0
   49.0960   10.0598   15.7782 C   0  0  0  0  0  0  0  0  0  0  0  0
   46.2625    6.1758   13.2323 N   0  0  0  0  0  0  0  0  0  0  0  0
   45.0625    4.1690   11.2750 N   0  0  0  0  0  0  0  0  0  0  0  0
   50.7153   12.3001   15.7275 C   0  0  0  0  0  0  0  0  0  0  0  0
   49.6470    7.7619   14.1258 C   0  0  0  0  0  0  0  0  0  0  0  0
   48.9046   11.0900   16.7051 C   0  0  0  0  0  0  0  0  0  0  0  0
   45.6555    3.7897   12.5727 C   0  0  0  0  0  0  0  0  0  0  0  0
   44.9810    5.6363   11.1256 C   0  0  0  0  0  0  0  0  0  0  0  0
   45.6306    4.9031   13.6448 C   0  0  0  0  0  0  0  0  0  0  0  0
   46.1909    6.3512   11.7633 C   0  0  0  0  0  0  0  0  0  0  0  0
   48.2555    7.6698   13.4827 C   0  0  0  0  0  0  0  0  0  0  0  0
   49.7125   12.2132   16.6860 C   0  0  0  0  0  0  0  0  0  0  0  0
   47.6380    6.2888   13.7369 C   0  0  0  0  0  0  0  0  0  0  0  0
   47.6509   10.9620   17.8785 Cl  0  0  0  0  0  0  0  0  0  0  0  0
   51.1040    8.1536   11.6719 C   0  0  0  0  0  0  0  0  0  0  0  0
   52.8518   10.2628   11.3460 C   0  0  0  0  0  0  0  0  0  0  0  0
   43.7502    3.5611   11.0738 C   0  0  0  0  0  0  0  0  0  0  0  0
   51.9159    8.2193   10.5325 C   0  0  0  0  0  0  0  0  0  0  0  0
   52.7938    9.2764   10.3690 C   0  0  0  0  0  0  0  0  0  0  0  0
   49.8312    8.2990   13.5443 C   0  0  0  0  0  0  0  0  0  0  0  0
   47.1101    7.1132   13.1384 C   0  0  0  0  0  0  0  0  0  0  0  0
   49.5162    7.2691   12.5519 C   0  0  0  0  0  0  0  0  0  0  0  0
   48.2924    6.7681   12.3381 C   0  0  0  0  0  0  0  0  0  0  0  0
   50.7462    8.2431   14.3430 O   0  0  0  0  0  0  0  0  0  0  0  0
   47.0712    7.5674   14.2638 O   0  0  0  0  0  0  0  0  0  0  0  0
   49.0615    9.3864   13.3941 O   0  0  0  0  0  0  0  0  0  0  0  0
   45.9976    6.8085   12.4512 O   0  0  0  0  0  0  0  0  0  0  0  0
   48.6768    6.3518   11.2687 H   0  0  0  0  0  0  0  0  0  0  0  0
   50.1866    8.1711   11.8837 H   0  0  0  0  0  0  0  0  0  0  0  0
   45.6529    5.8597   12.8314 H   0  0  0  0  0  0  0  0  0  0  0  0
   50.0024    9.7752   14.9183 H   0  0  0  0  0  0  0  0  0  0  0  0
   48.4098    9.2224   15.8415 H   0  0  0  0  0  0  0  0  0  0  0  0
   51.3496   13.1847   15.7144 H   0  0  0  0  0  0  0  0  0  0  0  0
   49.5811    7.5806   15.2066 H   0  0  0  0  0  0  0  0  0  0  0  0
   50.2775    6.9274   13.7922 H   0  0  0  0  0  0  0  0  0  0  0  0
   45.1857    2.8848   12.9787 H   0  0  0  0  0  0  0  0  0  0  0  0
   46.7025    3.5184   12.3848 H   0  0  0  0  0  0  0  0  0  0  0  0
   44.0616    6.0320   11.5787 H   0  0  0  0  0  0  0  0  0  0  0  0
   44.9440    5.8796   10.0572 H   0  0  0  0  0  0  0  0  0  0  0  0
   46.0679    4.5229   14.5764 H   0  0  0  0  0  0  0  0  0  0  0  0
   44.5823    5.1226   13.8876 H   0  0  0  0  0  0  0  0  0  0  0  0
   46.1232    7.4222   11.5398 H   0  0  0  0  0  0  0  0  0  0  0  0
   47.1016    5.9738   11.2781 H   0  0  0  0  0  0  0  0  0  0  0  0
   47.5952    8.4465   13.8847 H   0  0  0  0  0  0  0  0  0  0  0  0
   48.3283    7.8629   12.4074 H   0  0  0  0  0  0  0  0  0  0  0  0
   49.5706   13.0172   17.4019 H   0  0  0  0  0  0  0  0  0  0  0  0
   47.6284    6.1275   14.8226 H   0  0  0  0  0  0  0  0  0  0  0  0
   48.2751    5.5078   13.3023 H   0  0  0  0  0  0  0  0  0  0  0  0
   50.4275    7.3067   11.7174 H   0  0  0  0  0  0  0  0  0  0  0  0
   53.5451   11.0908   11.2106 H   0  0  0  0  0  0  0  0  0  0  0  0
   43.0322    3.8615   11.8457 H   0  0  0  0  0  0  0  0  0  0  0  0
   43.8288    2.4681   11.0821 H   0  0  0  0  0  0  0  0  0  0  0  0
   43.3430    3.8383   10.0949 H   0  0  0  0  0  0  0  0  0  0  0  0
   51.8512    7.4421    9.7749 H   0  0  0  0  0  0  0  0  0  0  0  0
   53.4276    9.3375    9.4890 H   0  0  0  0  0  0  0  0  0  0  0  0
   50.3685    6.9084   11.9890 H   0  0  0  0  0  0  0  0  0  0  0  0
   48.1355    6.0295   11.5606 H   0  0  0  0  0  0  0  0  0  0  0  0
   49.3356    9.9752   14.1267 H   0  0  0  0  0  0  0  0  0  0  0  0
   45.2725    7.0678   13.0576 H   0  0  0  0  0  0  0  0  0  0  0  0
  2  4  1  0
  3  1  1  0
  4  3  2  0
  5  1  2  0
  6  2  2  0
  7  1  1  0
  8  2  1  0
 10  9  1  0
 11 14  1  0
 12  9  1  0
 13 10  2  0
 14 12  2  0
 15 10  1  0
 16 27  1  0
 17 22  1  0
 18 13  1  0
 19  9  1  0
 20 15  2  0
 21 23  1  0
 22 24  1  0
 23 16  1  0
 24 16  1  0
 25 19  1  0
 26 20  1  0
 27 25  1  0
 28 20  1  0
 29 12  1  0
 30 14  1  0
 31 17  1  0
 32 29  2  0
 33 30  2  0
 11 13  1  0
 32 33  1  0
 26 18  2  0
 17 21  1  0
 35 37  1  0
 36 34  1  0
 37 36  2  0
 38 34  2  0
 39 35  2  0
 40 34  1  0
 41 35  1  0
  3 42  1  0
  4 43  1  0
  7 44  1  0
  8 45  1  0
 15 46  1  0
 18 47  1  0
 19 48  1  0
 19 49  1  0
 21 50  1  0
 21 51  1  0
 22 52  1  0
 22 53  1  0
 23 54  1  0
 23 55  1  0
 24 56  1  0
 24 57  1  0
 25 58  1  0
 25 59  1  0
 26 60  1  0
 27 61  1  0
 27 62  1  0
 29 63  1  0
 30 64  1  0
 31 65  1  0
 31 66  1  0
 31 67  1  0
 32 68  1  0
 33 69  1  0
 36 70  1  0
 37 71  1  0
 40 72  1  0
 41 73  1  0
M  END
> <Uni-Dock RESULT> 
ENERGY=   -4.776  LOWER_BOUND=    3.149  UPPER_BOUND=    6.492
INTER + INTRA:          -4.776
INTER:                  -4.776
INTRA:                   0.000
UNBOUND:                 0.000

$$$$
