
     RDKit          3D

 73 74  0  0  0  0  0  0  0  0999 V2000
   47.8313    5.8092   14.8605 C   0  0  0  0  0  0  0  0  0  0  0  0
   45.8605    4.8646   12.7178 C   0  0  0  0  0  0  0  0  0  0  0  0
   47.4213    4.4231   14.6209 C   0  0  0  0  0  0  0  0  0  0  0  0
   46.5895    4.0067   13.6559 C   0  0  0  0  0  0  0  0  0  0  0  0
   48.0144    6.2980   15.9596 O   0  0  0  0  0  0  0  0  0  0  0  0
   45.6148    4.5734   11.5619 O   0  0  0  0  0  0  0  0  0  0  0  0
   48.1161    6.4683   13.7279 O   0  0  0  0  0  0  0  0  0  0  0  0
   45.3669    5.9692   13.2959 O   0  0  0  0  0  0  0  0  0  0  0  0
   48.4566    5.6257   15.4734 N   0  0  0  0  0  0  0  0  0  0  0  0
   49.1954    6.6407   14.7965 C   0  0  0  0  0  0  0  0  0  0  0  0
   50.4783    7.3121   17.2088 S   0  0  0  0  0  0  0  0  0  0  0  0
   48.3831    5.4619   16.8878 C   0  0  0  0  0  0  0  0  0  0  0  0
   50.1093    7.4711   15.4787 C   0  0  0  0  0  0  0  0  0  0  0  0
   49.2233    6.1822   17.7617 C   0  0  0  0  0  0  0  0  0  0  0  0
   49.0352    6.8916   13.4144 C   0  0  0  0  0  0  0  0  0  0  0  0
   44.3654    4.1377   13.0133 N   0  0  0  0  0  0  0  0  0  0  0  0
   43.9055    4.1342   10.0514 N   0  0  0  0  0  0  0  0  0  0  0  0
   50.8246    8.4791   14.8005 C   0  0  0  0  0  0  0  0  0  0  0  0
   47.8156    4.5834   14.6381 C   0  0  0  0  0  0  0  0  0  0  0  0
   49.7468    7.8965   12.7511 C   0  0  0  0  0  0  0  0  0  0  0  0
   44.4932    5.2962   10.7413 C   0  0  0  0  0  0  0  0  0  0  0  0
   44.1967    2.8937   10.7905 C   0  0  0  0  0  0  0  0  0  0  0  0
   44.0799    5.3623   12.2313 C   0  0  0  0  0  0  0  0  0  0  0  0
   43.7858    2.9878   12.2800 C   0  0  0  0  0  0  0  0  0  0  0  0
   46.3712    4.9528   14.2682 C   0  0  0  0  0  0  0  0  0  0  0  0
   50.6453    8.6933   13.4385 C   0  0  0  0  0  0  0  0  0  0  0  0
   45.7956    3.9290   13.2814 C   0  0  0  0  0  0  0  0  0  0  0  0
   49.4980    8.1459   11.0656 Cl  0  0  0  0  0  0  0  0  0  0  0  0
   47.4507    4.5925   17.4990 C   0  0  0  0  0  0  0  0  0  0  0  0
   49.1335    6.0174   19.1587 C   0  0  0  0  0  0  0  0  0  0  0  0
   44.3730    4.0483    8.6709 C   0  0  0  0  0  0  0  0  0  0  0  0
   47.3629    4.4340   18.8877 C   0  0  0  0  0  0  0  0  0  0  0  0
   48.2077    5.1467   19.7206 C   0  0  0  0  0  0  0  0  0  0  0  0
   45.7027    4.6707   12.7736 C   0  0  0  0  0  0  0  0  0  0  0  0
   47.5111    5.5236   15.0091 C   0  0  0  0  0  0  0  0  0  0  0  0
   46.5674    5.8518   12.7370 C   0  0  0  0  0  0  0  0  0  0  0  0
   47.4088    6.2115   13.7158 C   0  0  0  0  0  0  0  0  0  0  0  0
   44.5177    4.6636   12.5015 O   0  0  0  0  0  0  0  0  0  0  0  0
   46.6937    4.8031   15.5452 O   0  0  0  0  0  0  0  0  0  0  0  0
   46.3985    3.5527   13.0255 O   0  0  0  0  0  0  0  0  0  0  0  0
   48.6793    5.8362   15.5926 O   0  0  0  0  0  0  0  0  0  0  0  0
   47.8541    3.7087   15.3116 H   0  0  0  0  0  0  0  0  0  0  0  0
   46.4067    2.9474   13.5170 H   0  0  0  0  0  0  0  0  0  0  0  0
   48.3995    7.3533   14.0371 H   0  0  0  0  0  0  0  0  0  0  0  0
   44.8873    6.4195   12.5703 H   0  0  0  0  0  0  0  0  0  0  0  0
   48.3343    6.3215   12.8154 H   0  0  0  0  0  0  0  0  0  0  0  0
   51.5325    9.1061   15.3399 H   0  0  0  0  0  0  0  0  0  0  0  0
   47.8421    3.6045   15.1345 H   0  0  0  0  0  0  0  0  0  0  0  0
   48.4061    4.3975   13.7311 H   0  0  0  0  0  0  0  0  0  0  0  0
   45.5879    5.2802   10.6653 H   0  0  0  0  0  0  0  0  0  0  0  0
   44.1503    6.2162   10.2523 H   0  0  0  0  0  0  0  0  0  0  0  0
   45.2633    2.6439   10.7219 H   0  0  0  0  0  0  0  0  0  0  0  0
   43.6420    2.0633   10.3368 H   0  0  0  0  0  0  0  0  0  0  0  0
   42.9974    5.5434   12.2814 H   0  0  0  0  0  0  0  0  0  0  0  0
   44.5320    6.2434   12.6977 H   0  0  0  0  0  0  0  0  0  0  0  0
   44.0349    2.0489   12.7899 H   0  0  0  0  0  0  0  0  0  0  0  0
   42.6916    3.0674   12.3370 H   0  0  0  0  0  0  0  0  0  0  0  0
   45.7451    4.9925   15.1665 H   0  0  0  0  0  0  0  0  0  0  0  0
   46.3428    5.9577   13.8363 H   0  0  0  0  0  0  0  0  0  0  0  0
   51.2026    9.4754   12.9313 H   0  0  0  0  0  0  0  0  0  0  0  0
   45.9232    2.9365   13.7331 H   0  0  0  0  0  0  0  0  0  0  0  0
   46.3897    3.9316   12.3602 H   0  0  0  0  0  0  0  0  0  0  0  0
   46.7402    4.0169   16.9149 H   0  0  0  0  0  0  0  0  0  0  0  0
   49.7942    6.5746   19.8204 H   0  0  0  0  0  0  0  0  0  0  0  0
   45.4585    3.9083    8.6079 H   0  0  0  0  0  0  0  0  0  0  0  0
   44.1096    4.9570    8.1187 H   0  0  0  0  0  0  0  0  0  0  0  0
   43.8877    3.2133    8.1531 H   0  0  0  0  0  0  0  0  0  0  0  0
   46.6259    3.7549   19.3096 H   0  0  0  0  0  0  0  0  0  0  0  0
   48.1467    5.0313   20.7991 H   0  0  0  0  0  0  0  0  0  0  0  0
   46.4705    6.4538   11.8417 H   0  0  0  0  0  0  0  0  0  0  0  0
   48.0385    7.0858   13.5961 H   0  0  0  0  0  0  0  0  0  0  0  0
   45.7171    2.8504   13.0611 H   0  0  0  0  0  0  0  0  0  0  0  0
   48.6571    5.3382   16.4368 H   0  0  0  0  0  0  0  0  0  0  0  0
  2  4  1  0
  3  1  1  0
  4  3  2  0
  5  1  2  0
  6  2  2  0
  7  1  1  0
  8  2  1  0
 10  9  1  0
 11 14  1  0
 12  9  1  0
 13 10  2  0
 14 12  2  0
 15 10  1  0
 16 27  1  0
 17 22  1  0
 18 13  1  0
 19  9  1  0
 20 15  2  0
 21 23  1  0
 22 24  1  0
 23 16  1  0
 24 16  1  0
 25 19  1  0
 26 20  1  0
 27 25  1  0
 28 20  1  0
 29 12  1  0
 30 14  1  0
 31 17  1  0
 32 29  2  0
 33 30  2  0
 11 13  1  0
 32 33  1  0
 26 18  2  0
 17 21  1  0
 35 37  1  0
 36 34  1  0
 37 36  2  0
 38 34  2  0
 39 35  2  0
 40 34  1  0
 41 35  1  0
  3 42  1  0
  4 43  1  0
  7 44  1  0
  8 45  1  0
 15 46  1  0
 18 47  1  0
 19 48  1  0
 19 49  1  0
 21 50  1  0
 21 51  1  0
 22 52  1  0
 22 53  1  0
 23 54  1  0
 23 55  1  0
 24 56  1  0
 24 57  1  0
 25 58  1  0
 25 59  1  0
 26 60  1  0
 27 61  1  0
 27 62  1  0
 29 63  1  0
 30 64  1  0
 31 65  1  0
 31 66  1  0
 31 67  1  0
 32 68  1  0
 33 69  1  0
 36 70  1  0
 37 71  1  0
 40 72  1  0
 41 73  1  0
M  END
> <Uni-Dock RESULT> 
ENERGY=   -5.898  LOWER_BOUND=    0.000  UPPER_BOUND=    0.000
INTER + INTRA:          -5.898
INTER:                  -5.898
INTRA:                   0.000
UNBOUND:                 0.000

$$$$

     RDKit          3D

 73 74  0  0  0  0  0  0  0  0999 V2000
   46.6658    7.9394   13.0345 C   0  0  0  0  0  0  0  0  0  0  0  0
   49.3057    8.0512   14.5791 C   0  0  0  0  0  0  0  0  0  0  0  0
   47.8863    8.6252   12.6021 C   0  0  0  0  0  0  0  0  0  0  0  0
   49.0536    8.6389   13.2606 C   0  0  0  0  0  0  0  0  0  0  0  0
   45.5374    8.3657   12.8750 O   0  0  0  0  0  0  0  0  0  0  0  0
   50.3552    7.5362   14.9177 O   0  0  0  0  0  0  0  0  0  0  0  0
   46.9052    6.7121   13.5188 O   0  0  0  0  0  0  0  0  0  0  0  0
   48.2974    8.2493   15.4405 O   0  0  0  0  0  0  0  0  0  0  0  0
   46.2030    8.0705   12.2802 N   0  0  0  0  0  0  0  0  0  0  0  0
   45.7656    6.7309   12.5002 C   0  0  0  0  0  0  0  0  0  0  0  0
   43.3193    7.3260   11.2444 S   0  0  0  0  0  0  0  0  0  0  0  0
   45.3766    9.1484   11.8463 C   0  0  0  0  0  0  0  0  0  0  0  0
   44.4849    6.2949   12.1003 C   0  0  0  0  0  0  0  0  0  0  0  0
   44.0615    8.9344   11.3847 C   0  0  0  0  0  0  0  0  0  0  0  0
   46.5751    5.7739   13.1540 C   0  0  0  0  0  0  0  0  0  0  0  0
   50.0139    9.4482   15.2099 N   0  0  0  0  0  0  0  0  0  0  0  0
   52.1500    7.7031   16.3829 N   0  0  0  0  0  0  0  0  0  0  0  0
   44.0596    4.9713   12.3346 C   0  0  0  0  0  0  0  0  0  0  0  0
   47.6564    8.3354   12.3909 C   0  0  0  0  0  0  0  0  0  0  0  0
   46.1429    4.4639   13.3851 C   0  0  0  0  0  0  0  0  0  0  0  0
   50.7282    7.3181   16.4234 C   0  0  0  0  0  0  0  0  0  0  0  0
   52.4145    8.5800   15.2293 C   0  0  0  0  0  0  0  0  0  0  0  0
   49.7878    8.5457   16.3618 C   0  0  0  0  0  0  0  0  0  0  0  0
   51.4547    9.7937   15.1824 C   0  0  0  0  0  0  0  0  0  0  0  0
   48.0541    8.7684   13.8100 C   0  0  0  0  0  0  0  0  0  0  0  0
   44.8859    4.0552   12.9758 C   0  0  0  0  0  0  0  0  0  0  0  0
   49.5796    8.8836   13.9239 C   0  0  0  0  0  0  0  0  0  0  0  0
   47.1836    3.3530   14.1900 Cl  0  0  0  0  0  0  0  0  0  0  0  0
   45.8128   10.4929   11.8773 C   0  0  0  0  0  0  0  0  0  0  0  0
   43.2522   10.0104   10.9675 C   0  0  0  0  0  0  0  0  0  0  0  0
   53.0147    6.5269   16.3612 C   0  0  0  0  0  0  0  0  0  0  0  0
   45.0042   11.5593   11.4645 C   0  0  0  0  0  0  0  0  0  0  0  0
   43.7208   11.3181   11.0063 C   0  0  0  0  0  0  0  0  0  0  0  0
   49.4436    8.2668   14.5702 C   0  0  0  0  0  0  0  0  0  0  0  0
   46.8482    8.3538   13.0697 C   0  0  0  0  0  0  0  0  0  0  0  0
   48.4245    7.2163   14.6132 C   0  0  0  0  0  0  0  0  0  0  0  0
   47.2838    7.2314   13.9104 C   0  0  0  0  0  0  0  0  0  0  0  0
   49.9601    8.7796   15.5442 O   0  0  0  0  0  0  0  0  0  0  0  0
   47.2019    9.5143   13.1211 O   0  0  0  0  0  0  0  0  0  0  0  0
   49.8430    8.5210   13.3159 O   0  0  0  0  0  0  0  0  0  0  0  0
   45.9172    7.9287   12.2006 O   0  0  0  0  0  0  0  0  0  0  0  0
   47.7858    9.1552   11.6620 H   0  0  0  0  0  0  0  0  0  0  0  0
   49.9204    9.1166   12.8184 H   0  0  0  0  0  0  0  0  0  0  0  0
   46.0141    6.3679   13.7349 H   0  0  0  0  0  0  0  0  0  0  0  0
   48.6144    7.8390   16.2713 H   0  0  0  0  0  0  0  0  0  0  0  0
   47.5632    6.0274   13.5209 H   0  0  0  0  0  0  0  0  0  0  0  0
   43.0713    4.6481   12.0122 H   0  0  0  0  0  0  0  0  0  0  0  0
   47.9801    9.0875   11.6595 H   0  0  0  0  0  0  0  0  0  0  0  0
   48.2346    7.4532   12.0850 H   0  0  0  0  0  0  0  0  0  0  0  0
   50.4882    6.6314   15.6016 H   0  0  0  0  0  0  0  0  0  0  0  0
   50.5270    6.7824   17.3592 H   0  0  0  0  0  0  0  0  0  0  0  0
   52.3367    8.0175   14.2900 H   0  0  0  0  0  0  0  0  0  0  0  0
   53.4411    8.9610   15.2920 H   0  0  0  0  0  0  0  0  0  0  0  0
   49.9293    9.1351   17.2781 H   0  0  0  0  0  0  0  0  0  0  0  0
   48.7462    8.2113   16.4033 H   0  0  0  0  0  0  0  0  0  0  0  0
   51.6805   10.4069   14.3012 H   0  0  0  0  0  0  0  0  0  0  0  0
   51.6640   10.4392   16.0463 H   0  0  0  0  0  0  0  0  0  0  0  0
   47.5913    9.7297   14.0598 H   0  0  0  0  0  0  0  0  0  0  0  0
   47.6695    8.0500   14.5401 H   0  0  0  0  0  0  0  0  0  0  0  0
   44.5425    3.0398   13.1505 H   0  0  0  0  0  0  0  0  0  0  0  0
   49.9149    9.5520   13.1201 H   0  0  0  0  0  0  0  0  0  0  0  0
   50.0379    7.9070   13.7297 H   0  0  0  0  0  0  0  0  0  0  0  0
   46.7971   10.7646   12.2441 H   0  0  0  0  0  0  0  0  0  0  0  0
   42.2416    9.8288   10.6063 H   0  0  0  0  0  0  0  0  0  0  0  0
   52.8531    5.9090   15.4702 H   0  0  0  0  0  0  0  0  0  0  0  0
   52.8421    5.9066   17.2474 H   0  0  0  0  0  0  0  0  0  0  0  0
   54.0688    6.8256   16.3862 H   0  0  0  0  0  0  0  0  0  0  0  0
   45.3849   12.5768   11.5108 H   0  0  0  0  0  0  0  0  0  0  0  0
   43.0856   12.1386   10.6848 H   0  0  0  0  0  0  0  0  0  0  0  0
   48.6475    6.3994   15.2887 H   0  0  0  0  0  0  0  0  0  0  0  0
   46.5949    6.3969   13.9761 H   0  0  0  0  0  0  0  0  0  0  0  0
   50.4858    9.2531   13.4138 H   0  0  0  0  0  0  0  0  0  0  0  0
   45.6909    8.7350   11.6909 H   0  0  0  0  0  0  0  0  0  0  0  0
  2  4  1  0
  3  1  1  0
  4  3  2  0
  5  1  2  0
  6  2  2  0
  7  1  1  0
  8  2  1  0
 10  9  1  0
 11 14  1  0
 12  9  1  0
 13 10  2  0
 14 12  2  0
 15 10  1  0
 16 27  1  0
 17 22  1  0
 18 13  1  0
 19  9  1  0
 20 15  2  0
 21 23  1  0
 22 24  1  0
 23 16  1  0
 24 16  1  0
 25 19  1  0
 26 20  1  0
 27 25  1  0
 28 20  1  0
 29 12  1  0
 30 14  1  0
 31 17  1  0
 32 29  2  0
 33 30  2  0
 11 13  1  0
 32 33  1  0
 26 18  2  0
 17 21  1  0
 35 37  1  0
 36 34  1  0
 37 36  2  0
 38 34  2  0
 39 35  2  0
 40 34  1  0
 41 35  1  0
  3 42  1  0
  4 43  1  0
  7 44  1  0
  8 45  1  0
 15 46  1  0
 18 47  1  0
 19 48  1  0
 19 49  1  0
 21 50  1  0
 21 51  1  0
 22 52  1  0
 22 53  1  0
 23 54  1  0
 23 55  1  0
 24 56  1  0
 24 57  1  0
 25 58  1  0
 25 59  1  0
 26 60  1  0
 27 61  1  0
 27 62  1  0
 29 63  1  0
 30 64  1  0
 31 65  1  0
 31 66  1  0
 31 67  1  0
 32 68  1  0
 33 69  1  0
 36 70  1  0
 37 71  1  0
 40 72  1  0
 41 73  1  0
M  END
> <Uni-Dock RESULT> 
ENERGY=   -5.708  LOWER_BOUND=    3.246  UPPER_BOUND=    7.067
INTER + INTRA:          -5.708
INTER:                  -5.708
INTRA:                   0.000
UNBOUND:                 0.000

$$$$

     RDKit          3D

 73 74  0  0  0  0  0  0  0  0999 V2000
   46.6641    7.9392   13.0369 C   0  0  0  0  0  0  0  0  0  0  0  0
   49.3064    8.0498   14.5774 C   0  0  0  0  0  0  0  0  0  0  0  0
   47.8840    8.6248   12.6028 C   0  0  0  0  0  0  0  0  0  0  0  0
   49.0524    8.6380   13.2595 C   0  0  0  0  0  0  0  0  0  0  0  0
   45.5355    8.3658   12.8794 O   0  0  0  0  0  0  0  0  0  0  0  0
   50.3564    7.5344   14.9141 O   0  0  0  0  0  0  0  0  0  0  0  0
   46.9039    6.7116   13.5204 O   0  0  0  0  0  0  0  0  0  0  0  0
   48.2995    8.2478   15.4404 O   0  0  0  0  0  0  0  0  0  0  0  0
   46.2001    8.0707   12.2834 N   0  0  0  0  0  0  0  0  0  0  0  0
   45.7627    6.7311   12.5037 C   0  0  0  0  0  0  0  0  0  0  0  0
   43.3145    7.3273   11.2520 S   0  0  0  0  0  0  0  0  0  0  0  0
   45.3733    9.1489   11.8513 C   0  0  0  0  0  0  0  0  0  0  0  0
   44.4812    6.2956   12.1057 C   0  0  0  0  0  0  0  0  0  0  0  0
   44.0574    8.9354   11.3917 C   0  0  0  0  0  0  0  0  0  0  0  0
   46.5730    5.7737   13.1559 C   0  0  0  0  0  0  0  0  0  0  0  0
   50.0160    9.4464   15.2075 N   0  0  0  0  0  0  0  0  0  0  0  0
   52.1536    7.7003   16.3765 N   0  0  0  0  0  0  0  0  0  0  0  0
   44.0561    4.9719   12.3401 C   0  0  0  0  0  0  0  0  0  0  0  0
   47.6538    8.3352   12.3919 C   0  0  0  0  0  0  0  0  0  0  0  0
   46.1409    4.4637   13.3871 C   0  0  0  0  0  0  0  0  0  0  0  0
   50.7317    7.3156   16.4192 C   0  0  0  0  0  0  0  0  0  0  0  0
   52.4164    8.5776   15.2228 C   0  0  0  0  0  0  0  0  0  0  0  0
   49.7915    8.5436   16.3595 C   0  0  0  0  0  0  0  0  0  0  0  0
   51.4569    9.7915   15.1778 C   0  0  0  0  0  0  0  0  0  0  0  0
   48.0538    8.7675   13.8105 C   0  0  0  0  0  0  0  0  0  0  0  0
   44.8832    4.0554   12.9797 C   0  0  0  0  0  0  0  0  0  0  0  0
   49.5795    8.8824   13.9220 C   0  0  0  0  0  0  0  0  0  0  0  0
   47.1826    3.3522   14.1900 Cl  0  0  0  0  0  0  0  0  0  0  0  0
   45.8098   10.4933   11.8820 C   0  0  0  0  0  0  0  0  0  0  0  0
   43.2477   10.0117   10.9762 C   0  0  0  0  0  0  0  0  0  0  0  0
   53.0179    6.5239   16.3530 C   0  0  0  0  0  0  0  0  0  0  0  0
   45.0009   11.5601   11.4709 C   0  0  0  0  0  0  0  0  0  0  0  0
   43.7166   11.3193   11.0147 C   0  0  0  0  0  0  0  0  0  0  0  0
   49.4444    8.2654   14.5683 C   0  0  0  0  0  0  0  0  0  0  0  0
   46.8466    8.3535   13.0721 C   0  0  0  0  0  0  0  0  0  0  0  0
   48.4251    7.2151   14.6126 C   0  0  0  0  0  0  0  0  0  0  0  0
   47.2833    7.2307   13.9117 C   0  0  0  0  0  0  0  0  0  0  0  0
   49.9626    8.7777   15.5417 O   0  0  0  0  0  0  0  0  0  0  0  0
   47.2007    9.5140   13.1233 O   0  0  0  0  0  0  0  0  0  0  0  0
   49.8418    8.5199   13.3134 O   0  0  0  0  0  0  0  0  0  0  0  0
   45.9141    7.9290   12.2043 O   0  0  0  0  0  0  0  0  0  0  0  0
   47.7822    9.1552   11.6631 H   0  0  0  0  0  0  0  0  0  0  0  0
   49.9186    9.1156   12.8161 H   0  0  0  0  0  0  0  0  0  0  0  0
   46.0131    6.3676   13.7378 H   0  0  0  0  0  0  0  0  0  0  0  0
   48.6178    7.8371   16.2706 H   0  0  0  0  0  0  0  0  0  0  0  0
   47.5618    6.0268   13.5212 H   0  0  0  0  0  0  0  0  0  0  0  0
   43.0671    4.6491   12.0192 H   0  0  0  0  0  0  0  0  0  0  0  0
   47.9765    9.0874   11.6603 H   0  0  0  0  0  0  0  0  0  0  0  0
   48.2312    7.4530   12.0848 H   0  0  0  0  0  0  0  0  0  0  0  0
   50.4903    6.6293   15.5975 H   0  0  0  0  0  0  0  0  0  0  0  0
   50.5318    6.7797   17.3551 H   0  0  0  0  0  0  0  0  0  0  0  0
   52.3370    8.0155   14.2834 H   0  0  0  0  0  0  0  0  0  0  0  0
   53.4433    8.9583   15.2840 H   0  0  0  0  0  0  0  0  0  0  0  0
   49.9346    9.1326   17.2757 H   0  0  0  0  0  0  0  0  0  0  0  0
   48.7499    8.2094   16.4025 H   0  0  0  0  0  0  0  0  0  0  0  0
   51.6814   10.4050   14.2965 H   0  0  0  0  0  0  0  0  0  0  0  0
   51.6677   10.4367   16.0416 H   0  0  0  0  0  0  0  0  0  0  0  0
   47.5917    9.7289   14.0614 H   0  0  0  0  0  0  0  0  0  0  0  0
   47.6702    8.0490   14.5410 H   0  0  0  0  0  0  0  0  0  0  0  0
   44.5397    3.0401   13.1546 H   0  0  0  0  0  0  0  0  0  0  0  0
   49.9137    9.5509   13.1179 H   0  0  0  0  0  0  0  0  0  0  0  0
   50.0372    7.9057   13.7268 H   0  0  0  0  0  0  0  0  0  0  0  0
   46.7948   10.7646   12.2473 H   0  0  0  0  0  0  0  0  0  0  0  0
   42.2365    9.8306   10.6165 H   0  0  0  0  0  0  0  0  0  0  0  0
   52.8547    5.9064   15.4621 H   0  0  0  0  0  0  0  0  0  0  0  0
   52.8466    5.9034   17.2393 H   0  0  0  0  0  0  0  0  0  0  0  0
   54.0722    6.8223   16.3765 H   0  0  0  0  0  0  0  0  0  0  0  0
   45.3819   12.5774   11.5169 H   0  0  0  0  0  0  0  0  0  0  0  0
   43.0812   12.1402   10.6945 H   0  0  0  0  0  0  0  0  0  0  0  0
   48.6489    6.3979   15.2875 H   0  0  0  0  0  0  0  0  0  0  0  0
   46.5943    6.3963   13.9781 H   0  0  0  0  0  0  0  0  0  0  0  0
   50.4850    9.2519   13.4106 H   0  0  0  0  0  0  0  0  0  0  0  0
   45.6872    8.7355   11.6952 H   0  0  0  0  0  0  0  0  0  0  0  0
  2  4  1  0
  3  1  1  0
  4  3  2  0
  5  1  2  0
  6  2  2  0
  7  1  1  0
  8  2  1  0
 10  9  1  0
 11 14  1  0
 12  9  1  0
 13 10  2  0
 14 12  2  0
 15 10  1  0
 16 27  1  0
 17 22  1  0
 18 13  1  0
 19  9  1  0
 20 15  2  0
 21 23  1  0
 22 24  1  0
 23 16  1  0
 24 16  1  0
 25 19  1  0
 26 20  1  0
 27 25  1  0
 28 20  1  0
 29 12  1  0
 30 14  1  0
 31 17  1  0
 32 29  2  0
 33 30  2  0
 11 13  1  0
 32 33  1  0
 26 18  2  0
 17 21  1  0
 35 37  1  0
 36 34  1  0
 37 36  2  0
 38 34  2  0
 39 35  2  0
 40 34  1  0
 41 35  1  0
  3 42  1  0
  4 43  1  0
  7 44  1  0
  8 45  1  0
 15 46  1  0
 18 47  1  0
 19 48  1  0
 19 49  1  0
 21 50  1  0
 21 51  1  0
 22 52  1  0
 22 53  1  0
 23 54  1  0
 23 55  1  0
 24 56  1  0
 24 57  1  0
 25 58  1  0
 25 59  1  0
 26 60  1  0
 27 61  1  0
 27 62  1  0
 29 63  1  0
 30 64  1  0
 31 65  1  0
 31 66  1  0
 31 67  1  0
 32 68  1  0
 33 69  1  0
 36 70  1  0
 37 71  1  0
 40 72  1  0
 41 73  1  0
M  END
> <Uni-Dock RESULT> 
ENERGY=   -5.707  LOWER_BOUND=    3.246  UPPER_BOUND=    7.066
INTER + INTRA:          -5.707
INTER:                  -5.707
INTRA:                   0.000
UNBOUND:                 0.000

$$$$

     RDKit          3D

 73 74  0  0  0  0  0  0  0  0999 V2000
   44.3081   10.8757   11.5739 C   0  0  0  0  0  0  0  0  0  0  0  0
   41.3241   11.4115   11.1544 C   0  0  0  0  0  0  0  0  0  0  0  0
   43.3943   10.0637   10.7663 C   0  0  0  0  0  0  0  0  0  0  0  0
   42.0970   10.3226   10.5508 C   0  0  0  0  0  0  0  0  0  0  0  0
   45.1938   10.4293   12.2788 O   0  0  0  0  0  0  0  0  0  0  0  0
   40.4265   12.0147   10.5960 O   0  0  0  0  0  0  0  0  0  0  0  0
   44.1577   12.1912   11.3611 O   0  0  0  0  0  0  0  0  0  0  0  0
   41.6152   11.6031   12.4491 O   0  0  0  0  0  0  0  0  0  0  0  0
   45.0567   10.4407   11.3487 N   0  0  0  0  0  0  0  0  0  0  0  0
   45.6204   11.7502   11.3102 C   0  0  0  0  0  0  0  0  0  0  0  0
   48.1167   10.6951   12.0658 S   0  0  0  0  0  0  0  0  0  0  0  0
   45.6875    9.2858   11.8975 C   0  0  0  0  0  0  0  0  0  0  0  0
   46.9730   11.9842   11.6362 C   0  0  0  0  0  0  0  0  0  0  0  0
   47.0460    9.2926   12.2754 C   0  0  0  0  0  0  0  0  0  0  0  0
   44.8536   12.8889   10.9723 C   0  0  0  0  0  0  0  0  0  0  0  0
   40.0665   10.4083   11.6673 N   0  0  0  0  0  0  0  0  0  0  0  0
   38.1495   12.4723   10.6428 N   0  0  0  0  0  0  0  0  0  0  0  0
   47.5152   13.2852   11.6062 C   0  0  0  0  0  0  0  0  0  0  0  0
   43.7653   10.2383   10.6512 C   0  0  0  0  0  0  0  0  0  0  0  0
   45.3998   14.1762   10.9489 C   0  0  0  0  0  0  0  0  0  0  0  0
   39.3631   12.8473   11.3898 C   0  0  0  0  0  0  0  0  0  0  0  0
   38.3467   11.1878    9.9492 C   0  0  0  0  0  0  0  0  0  0  0  0
   39.8458   11.7150   12.3280 C   0  0  0  0  0  0  0  0  0  0  0  0
   38.8404   10.0745   10.9049 C   0  0  0  0  0  0  0  0  0  0  0  0
   42.5676   10.4442   11.5906 C   0  0  0  0  0  0  0  0  0  0  0  0
   46.7317   14.3813   11.2632 C   0  0  0  0  0  0  0  0  0  0  0  0
   41.2539   10.3783   10.8011 C   0  0  0  0  0  0  0  0  0  0  0  0
   44.4038   15.5168   10.5295 Cl  0  0  0  0  0  0  0  0  0  0  0  0
   44.9870    8.0780   12.1203 C   0  0  0  0  0  0  0  0  0  0  0  0
   47.6544    8.1464   12.8255 C   0  0  0  0  0  0  0  0  0  0  0  0
   37.7601   13.5232    9.7071 C   0  0  0  0  0  0  0  0  0  0  0  0
   45.5949    6.9423   12.6699 C   0  0  0  0  0  0  0  0  0  0  0  0
   46.9329    6.9751   13.0220 C   0  0  0  0  0  0  0  0  0  0  0  0
   41.1648   11.2115   11.1394 C   0  0  0  0  0  0  0  0  0  0  0  0
   44.0398   10.5141   11.6325 C   0  0  0  0  0  0  0  0  0  0  0  0
   42.2195   12.1879   11.4194 C   0  0  0  0  0  0  0  0  0  0  0  0
   43.5123   11.8841   11.5968 C   0  0  0  0  0  0  0  0  0  0  0  0
   40.0939   11.1559   11.7126 O   0  0  0  0  0  0  0  0  0  0  0  0
   43.4401    9.4822   11.8563 O   0  0  0  0  0  0  0  0  0  0  0  0
   41.4633   10.4477   10.0787 O   0  0  0  0  0  0  0  0  0  0  0  0
   45.3643   10.5373   11.4132 O   0  0  0  0  0  0  0  0  0  0  0  0
   43.8542    9.1862   10.3266 H   0  0  0  0  0  0  0  0  0  0  0  0
   41.5238    9.6971    9.8761 H   0  0  0  0  0  0  0  0  0  0  0  0
   44.8402   12.6001   11.9322 H   0  0  0  0  0  0  0  0  0  0  0  0
   41.0113   12.3245   12.7212 H   0  0  0  0  0  0  0  0  0  0  0  0
   43.7990   12.8082   10.7346 H   0  0  0  0  0  0  0  0  0  0  0  0
   48.5632   13.4478   11.8523 H   0  0  0  0  0  0  0  0  0  0  0  0
   43.7166    9.2453   10.1855 H   0  0  0  0  0  0  0  0  0  0  0  0
   43.6871   10.9044    9.7815 H   0  0  0  0  0  0  0  0  0  0  0  0
   40.1728   13.1231   10.7020 H   0  0  0  0  0  0  0  0  0  0  0  0
   39.1488   13.7300   12.0047 H   0  0  0  0  0  0  0  0  0  0  0  0
   39.0594   11.3003    9.1221 H   0  0  0  0  0  0  0  0  0  0  0  0
   37.3949   10.8626    9.5119 H   0  0  0  0  0  0  0  0  0  0  0  0
   39.0879   11.5679   13.1096 H   0  0  0  0  0  0  0  0  0  0  0  0
   40.7414   12.0422   12.8658 H   0  0  0  0  0  0  0  0  0  0  0  0
   38.9861    9.1445   10.3414 H   0  0  0  0  0  0  0  0  0  0  0  0
   38.0428    9.8540   11.6273 H   0  0  0  0  0  0  0  0  0  0  0  0
   42.5642    9.6819   12.3778 H   0  0  0  0  0  0  0  0  0  0  0  0
   42.6575   11.4065   12.1033 H   0  0  0  0  0  0  0  0  0  0  0  0
   47.1642   15.3773   11.2469 H   0  0  0  0  0  0  0  0  0  0  0  0
   41.2561    9.4304   10.2473 H   0  0  0  0  0  0  0  0  0  0  0  0
   41.2346   11.1780   10.0517 H   0  0  0  0  0  0  0  0  0  0  0  0
   43.9310    7.9808   11.8911 H   0  0  0  0  0  0  0  0  0  0  0  0
   48.7062    8.1644   13.1053 H   0  0  0  0  0  0  0  0  0  0  0  0
   38.5274   13.7069    8.9460 H   0  0  0  0  0  0  0  0  0  0  0  0
   37.5708   14.4614   10.2399 H   0  0  0  0  0  0  0  0  0  0  0  0
   36.8271   13.2565    9.1978 H   0  0  0  0  0  0  0  0  0  0  0  0
   45.0119    6.0376   12.8248 H   0  0  0  0  0  0  0  0  0  0  0  0
   47.4132    6.0996   13.4499 H   0  0  0  0  0  0  0  0  0  0  0  0
   41.8763   13.2125   11.4957 H   0  0  0  0  0  0  0  0  0  0  0  0
   44.2362   12.6723   11.7699 H   0  0  0  0  0  0  0  0  0  0  0  0
   40.7129    9.8218   10.0166 H   0  0  0  0  0  0  0  0  0  0  0  0
   45.6225    9.5925   11.4553 H   0  0  0  0  0  0  0  0  0  0  0  0
  2  4  1  0
  3  1  1  0
  4  3  2  0
  5  1  2  0
  6  2  2  0
  7  1  1  0
  8  2  1  0
 10  9  1  0
 11 14  1  0
 12  9  1  0
 13 10  2  0
 14 12  2  0
 15 10  1  0
 16 27  1  0
 17 22  1  0
 18 13  1  0
 19  9  1  0
 20 15  2  0
 21 23  1  0
 22 24  1  0
 23 16  1  0
 24 16  1  0
 25 19  1  0
 26 20  1  0
 27 25  1  0
 28 20  1  0
 29 12  1  0
 30 14  1  0
 31 17  1  0
 32 29  2  0
 33 30  2  0
 11 13  1  0
 32 33  1  0
 26 18  2  0
 17 21  1  0
 35 37  1  0
 36 34  1  0
 37 36  2  0
 38 34  2  0
 39 35  2  0
 40 34  1  0
 41 35  1  0
  3 42  1  0
  4 43  1  0
  7 44  1  0
  8 45  1  0
 15 46  1  0
 18 47  1  0
 19 48  1  0
 19 49  1  0
 21 50  1  0
 21 51  1  0
 22 52  1  0
 22 53  1  0
 23 54  1  0
 23 55  1  0
 24 56  1  0
 24 57  1  0
 25 58  1  0
 25 59  1  0
 26 60  1  0
 27 61  1  0
 27 62  1  0
 29 63  1  0
 30 64  1  0
 31 65  1  0
 31 66  1  0
 31 67  1  0
 32 68  1  0
 33 69  1  0
 36 70  1  0
 37 71  1  0
 40 72  1  0
 41 73  1  0
M  END
> <Uni-Dock RESULT> 
ENERGY=   -5.591  LOWER_BOUND=    6.453  UPPER_BOUND=    7.829
INTER + INTRA:          -5.591
INTER:                  -5.591
INTRA:                   0.000
UNBOUND:                 0.000

$$$$

     RDKit          3D

 73 74  0  0  0  0  0  0  0  0999 V2000
   44.4282   11.0754   11.4720 C   0  0  0  0  0  0  0  0  0  0  0  0
   41.4069   11.4336   11.1397 C   0  0  0  0  0  0  0  0  0  0  0  0
   43.5216   10.1441   10.7957 C   0  0  0  0  0  0  0  0  0  0  0  0
   42.2054   10.3222   10.6156 C   0  0  0  0  0  0  0  0  0  0  0  0
   45.3632   10.7442   12.1768 O   0  0  0  0  0  0  0  0  0  0  0  0
   40.4586   11.9353   10.5650 O   0  0  0  0  0  0  0  0  0  0  0  0
   44.2058   12.3535   11.1326 O   0  0  0  0  0  0  0  0  0  0  0  0
   41.7425   11.7722   12.3929 O   0  0  0  0  0  0  0  0  0  0  0  0
   45.1868   10.6522   11.2579 N   0  0  0  0  0  0  0  0  0  0  0  0
   45.6846   11.9739   11.0590 C   0  0  0  0  0  0  0  0  0  0  0  0
   48.2584   11.1135   11.8013 S   0  0  0  0  0  0  0  0  0  0  0  0
   45.8950    9.5897   11.8923 C   0  0  0  0  0  0  0  0  0  0  0  0
   47.0368   12.2994   11.2956 C   0  0  0  0  0  0  0  0  0  0  0  0
   47.2663    9.6953   12.2036 C   0  0  0  0  0  0  0  0  0  0  0  0
   44.8503   13.0363   10.6421 C   0  0  0  0  0  0  0  0  0  0  0  0
   40.2218   10.4358   11.8111 N   0  0  0  0  0  0  0  0  0  0  0  0
   38.1662   12.2955   10.6709 N   0  0  0  0  0  0  0  0  0  0  0  0
   47.5140   13.6126   11.1070 C   0  0  0  0  0  0  0  0  0  0  0  0
   43.8786   10.3217   10.6460 C   0  0  0  0  0  0  0  0  0  0  0  0
   45.3323   14.3367   10.4612 C   0  0  0  0  0  0  0  0  0  0  0  0
   39.3906   12.7993   11.3179 C   0  0  0  0  0  0  0  0  0  0  0  0
   38.3958   10.9553   10.1044 C   0  0  0  0  0  0  0  0  0  0  0  0
   39.9662   11.7935   12.3438 C   0  0  0  0  0  0  0  0  0  0  0  0
   38.9823    9.9708   11.1451 C   0  0  0  0  0  0  0  0  0  0  0  0
   42.7128   10.5725   11.6143 C   0  0  0  0  0  0  0  0  0  0  0  0
   46.6647   14.6315   10.6902 C   0  0  0  0  0  0  0  0  0  0  0  0
   41.3719   10.3670   10.8980 C   0  0  0  0  0  0  0  0  0  0  0  0
   44.2561   15.5813    9.9535 Cl  0  0  0  0  0  0  0  0  0  0  0  0
   45.2636    8.3825   12.2704 C   0  0  0  0  0  0  0  0  0  0  0  0
   47.9519    8.6406   12.8394 C   0  0  0  0  0  0  0  0  0  0  0  0
   37.6876   13.2247    9.6515 C   0  0  0  0  0  0  0  0  0  0  0  0
   45.9481    7.3382   12.9047 C   0  0  0  0  0  0  0  0  0  0  0  0
   47.2966    7.4660   13.1886 C   0  0  0  0  0  0  0  0  0  0  0  0
   41.2569   11.2264   11.1528 C   0  0  0  0  0  0  0  0  0  0  0  0
   44.1804   10.7105   11.5800 C   0  0  0  0  0  0  0  0  0  0  0  0
   42.2741   12.2718   11.2815 C   0  0  0  0  0  0  0  0  0  0  0  0
   43.5864   12.0449   11.4285 C   0  0  0  0  0  0  0  0  0  0  0  0
   40.2150   11.1844   11.7781 O   0  0  0  0  0  0  0  0  0  0  0  0
   43.6411    9.6825   11.9363 O   0  0  0  0  0  0  0  0  0  0  0  0
   41.5472   10.3695   10.1633 O   0  0  0  0  0  0  0  0  0  0  0  0
   45.4918   10.7684   11.2977 O   0  0  0  0  0  0  0  0  0  0  0  0
   44.0044    9.2464   10.4274 H   0  0  0  0  0  0  0  0  0  0  0  0
   41.6352    9.6052   10.0362 H   0  0  0  0  0  0  0  0  0  0  0  0
   44.8911   12.8494   11.6262 H   0  0  0  0  0  0  0  0  0  0  0  0
   41.1164   12.4911   12.6175 H   0  0  0  0  0  0  0  0  0  0  0  0
   43.7918   12.8853   10.4636 H   0  0  0  0  0  0  0  0  0  0  0  0
   48.5622   13.8456   11.2858 H   0  0  0  0  0  0  0  0  0  0  0  0
   43.8583    9.2843   10.2875 H   0  0  0  0  0  0  0  0  0  0  0  0
   43.7319   10.8891    9.7172 H   0  0  0  0  0  0  0  0  0  0  0  0
   40.1564   13.0365   10.5684 H   0  0  0  0  0  0  0  0  0  0  0  0
   39.1599   13.7313   11.8483 H   0  0  0  0  0  0  0  0  0  0  0  0
   39.0669   11.0116    9.2376 H   0  0  0  0  0  0  0  0  0  0  0  0
   37.4432   10.5450    9.7477 H   0  0  0  0  0  0  0  0  0  0  0  0
   39.2498   11.6962   13.1710 H   0  0  0  0  0  0  0  0  0  0  0  0
   40.8668   12.2139   12.8027 H   0  0  0  0  0  0  0  0  0  0  0  0
   39.1489    8.9942   10.6739 H   0  0  0  0  0  0  0  0  0  0  0  0
   38.2272    9.7926   11.9229 H   0  0  0  0  0  0  0  0  0  0  0  0
   42.7792    9.8974   12.4749 H   0  0  0  0  0  0  0  0  0  0  0  0
   42.7777   11.5862   12.0207 H   0  0  0  0  0  0  0  0  0  0  0  0
   47.0477   15.6382   10.5516 H   0  0  0  0  0  0  0  0  0  0  0  0
   41.3965    9.3673   10.4449 H   0  0  0  0  0  0  0  0  0  0  0  0
   41.2825   11.0822   10.0722 H   0  0  0  0  0  0  0  0  0  0  0  0
   44.2048    8.2159   12.1020 H   0  0  0  0  0  0  0  0  0  0  0  0
   49.0123    8.7337   13.0664 H   0  0  0  0  0  0  0  0  0  0  0  0
   38.4125   13.3610    8.8406 H   0  0  0  0  0  0  0  0  0  0  0  0
   37.4757   14.2044   10.0935 H   0  0  0  0  0  0  0  0  0  0  0  0
   36.7480   12.8657    9.2164 H   0  0  0  0  0  0  0  0  0  0  0  0
   45.4164    6.4301   13.1787 H   0  0  0  0  0  0  0  0  0  0  0  0
   47.8361    6.6619   13.6811 H   0  0  0  0  0  0  0  0  0  0  0  0
   41.8854   13.2828   11.2682 H   0  0  0  0  0  0  0  0  0  0  0  0
   44.2781   12.8777   11.4857 H   0  0  0  0  0  0  0  0  0  0  0  0
   40.8258    9.7084   10.2009 H   0  0  0  0  0  0  0  0  0  0  0  0
   45.7969    9.8453   11.4245 H   0  0  0  0  0  0  0  0  0  0  0  0
  2  4  1  0
  3  1  1  0
  4  3  2  0
  5  1  2  0
  6  2  2  0
  7  1  1  0
  8  2  1  0
 10  9  1  0
 11 14  1  0
 12  9  1  0
 13 10  2  0
 14 12  2  0
 15 10  1  0
 16 27  1  0
 17 22  1  0
 18 13  1  0
 19  9  1  0
 20 15  2  0
 21 23  1  0
 22 24  1  0
 23 16  1  0
 24 16  1  0
 25 19  1  0
 26 20  1  0
 27 25  1  0
 28 20  1  0
 29 12  1  0
 30 14  1  0
 31 17  1  0
 32 29  2  0
 33 30  2  0
 11 13  1  0
 32 33  1  0
 26 18  2  0
 17 21  1  0
 35 37  1  0
 36 34  1  0
 37 36  2  0
 38 34  2  0
 39 35  2  0
 40 34  1  0
 41 35  1  0
  3 42  1  0
  4 43  1  0
  7 44  1  0
  8 45  1  0
 15 46  1  0
 18 47  1  0
 19 48  1  0
 19 49  1  0
 21 50  1  0
 21 51  1  0
 22 52  1  0
 22 53  1  0
 23 54  1  0
 23 55  1  0
 24 56  1  0
 24 57  1  0
 25 58  1  0
 25 59  1  0
 26 60  1  0
 27 61  1  0
 27 62  1  0
 29 63  1  0
 30 64  1  0
 31 65  1  0
 31 66  1  0
 31 67  1  0
 32 68  1  0
 33 69  1  0
 36 70  1  0
 37 71  1  0
 40 72  1  0
 41 73  1  0
M  END
> <Uni-Dock RESULT> 
ENERGY=   -5.583  LOWER_BOUND=    6.526  UPPER_BOUND=    7.876
INTER + INTRA:          -5.583
INTER:                  -5.583
INTRA:                   0.000
UNBOUND:                 0.000

$$$$

     RDKit          3D

 73 74  0  0  0  0  0  0  0  0999 V2000
   48.1741    8.7421   17.9687 C   0  0  0  0  0  0  0  0  0  0  0  0
   48.6964    8.9392   14.9595 C   0  0  0  0  0  0  0  0  0  0  0  0
   49.3210    8.1730   17.2564 C   0  0  0  0  0  0  0  0  0  0  0  0
   49.5691    8.2950   15.9449 C   0  0  0  0  0  0  0  0  0  0  0  0
   47.5897    8.1994   18.8877 O   0  0  0  0  0  0  0  0  0  0  0  0
   49.0891    9.5667   13.9934 O   0  0  0  0  0  0  0  0  0  0  0  0
   47.9015    9.9996   17.5908 O   0  0  0  0  0  0  0  0  0  0  0  0
   47.3987    8.6620   15.1511 O   0  0  0  0  0  0  0  0  0  0  0  0
   48.4589    8.5452   18.7936 N   0  0  0  0  0  0  0  0  0  0  0  0
   47.9480    9.8387   19.1101 C   0  0  0  0  0  0  0  0  0  0  0  0
   47.3617    8.9658   21.7198 S   0  0  0  0  0  0  0  0  0  0  0  0
   48.3084    7.3781   19.5987 C   0  0  0  0  0  0  0  0  0  0  0  0
   47.4099   10.1318   20.3809 C   0  0  0  0  0  0  0  0  0  0  0  0
   47.8056    7.4454   20.9144 C   0  0  0  0  0  0  0  0  0  0  0  0
   47.9250   10.8896   18.1648 C   0  0  0  0  0  0  0  0  0  0  0  0
   48.7340    7.6382   13.8839 N   0  0  0  0  0  0  0  0  0  0  0  0
   49.1312    9.6210   11.6715 N   0  0  0  0  0  0  0  0  0  0  0  0
   46.8966   11.4110   20.6775 C   0  0  0  0  0  0  0  0  0  0  0  0
   49.3213    8.4324   17.5943 C   0  0  0  0  0  0  0  0  0  0  0  0
   47.4104   12.1544   18.4674 C   0  0  0  0  0  0  0  0  0  0  0  0
   48.1681    9.8605   12.7608 C   0  0  0  0  0  0  0  0  0  0  0  0
   50.2233    8.7460   12.1314 C   0  0  0  0  0  0  0  0  0  0  0  0
   47.6667    8.5424   13.3984 C   0  0  0  0  0  0  0  0  0  0  0  0
   49.6975    7.4403   12.7756 C   0  0  0  0  0  0  0  0  0  0  0  0
   48.5122    8.0789   16.3373 C   0  0  0  0  0  0  0  0  0  0  0  0
   46.8960   12.4226   19.7237 C   0  0  0  0  0  0  0  0  0  0  0  0
   49.4116    8.1223   15.0953 C   0  0  0  0  0  0  0  0  0  0  0  0
   47.4136   13.3858   17.2638 Cl  0  0  0  0  0  0  0  0  0  0  0  0
   48.6269    6.0862   19.1210 C   0  0  0  0  0  0  0  0  0  0  0  0
   47.6532    6.2823   21.6959 C   0  0  0  0  0  0  0  0  0  0  0  0
   49.6501   10.8781   11.1402 C   0  0  0  0  0  0  0  0  0  0  0  0
   48.4713    4.9328   19.9000 C   0  0  0  0  0  0  0  0  0  0  0  0
   47.9849    5.0304   21.1920 C   0  0  0  0  0  0  0  0  0  0  0  0
   48.8019    8.7386   14.8402 C   0  0  0  0  0  0  0  0  0  0  0  0
   48.2834    8.3495   17.7685 C   0  0  0  0  0  0  0  0  0  0  0  0
   48.0653    9.6808   15.6850 C   0  0  0  0  0  0  0  0  0  0  0  0
   47.8695    9.5317   17.0021 C   0  0  0  0  0  0  0  0  0  0  0  0
   48.4132    8.3062   13.7723 O   0  0  0  0  0  0  0  0  0  0  0  0
   48.5248    7.2326   17.3576 O   0  0  0  0  0  0  0  0  0  0  0  0
   50.0291    8.4939   15.3214 O   0  0  0  0  0  0  0  0  0  0  0  0
   48.3294    8.6552   19.0752 O   0  0  0  0  0  0  0  0  0  0  0  0
   49.9992    7.6114   17.8884 H   0  0  0  0  0  0  0  0  0  0  0  0
   50.4865    7.8966   15.5270 H   0  0  0  0  0  0  0  0  0  0  0  0
   47.1474   10.2569   18.1603 H   0  0  0  0  0  0  0  0  0  0  0  0
   46.9487    9.1237   14.4139 H   0  0  0  0  0  0  0  0  0  0  0  0
   48.2918   10.7474   17.1546 H   0  0  0  0  0  0  0  0  0  0  0  0
   46.4925   11.6236   21.6658 H   0  0  0  0  0  0  0  0  0  0  0  0
   50.1230    7.6984   17.7489 H   0  0  0  0  0  0  0  0  0  0  0  0
   49.8865    9.3606   17.4357 H   0  0  0  0  0  0  0  0  0  0  0  0
   48.6105   10.4978   13.5372 H   0  0  0  0  0  0  0  0  0  0  0  0
   47.2989   10.3970   12.3611 H   0  0  0  0  0  0  0  0  0  0  0  0
   50.8654    9.2732   12.8487 H   0  0  0  0  0  0  0  0  0  0  0  0
   50.8532    8.4731   11.2759 H   0  0  0  0  0  0  0  0  0  0  0  0
   47.0844    7.9944   12.6451 H   0  0  0  0  0  0  0  0  0  0  0  0
   46.9497    8.7703   14.1937 H   0  0  0  0  0  0  0  0  0  0  0  0
   50.5444    6.8306   13.1141 H   0  0  0  0  0  0  0  0  0  0  0  0
   49.2014    6.8419   11.9992 H   0  0  0  0  0  0  0  0  0  0  0  0
   48.0677    7.0823   16.4370 H   0  0  0  0  0  0  0  0  0  0  0  0
   47.6739    8.7732   16.2265 H   0  0  0  0  0  0  0  0  0  0  0  0
   46.4950   13.4020   19.9675 H   0  0  0  0  0  0  0  0  0  0  0  0
   50.2723    7.4709   15.2958 H   0  0  0  0  0  0  0  0  0  0  0  0
   49.8100    9.1351   14.9647 H   0  0  0  0  0  0  0  0  0  0  0  0
   48.9922    5.9255   18.1120 H   0  0  0  0  0  0  0  0  0  0  0  0
   47.2710    6.3508   22.7128 H   0  0  0  0  0  0  0  0  0  0  0  0
   50.1988   11.4531   11.8951 H   0  0  0  0  0  0  0  0  0  0  0  0
   48.8333   11.5003   10.7586 H   0  0  0  0  0  0  0  0  0  0  0  0
   50.3226   10.6888   10.2958 H   0  0  0  0  0  0  0  0  0  0  0  0
   48.7274    3.9608   19.4854 H   0  0  0  0  0  0  0  0  0  0  0  0
   47.8597    4.1415   21.8038 H   0  0  0  0  0  0  0  0  0  0  0  0
   47.6550   10.5333   15.1576 H   0  0  0  0  0  0  0  0  0  0  0  0
   47.3380   10.2934   17.5613 H   0  0  0  0  0  0  0  0  0  0  0  0
   50.4014    7.8337   14.7014 H   0  0  0  0  0  0  0  0  0  0  0  0
   48.6104    7.8171   19.4993 H   0  0  0  0  0  0  0  0  0  0  0  0
  2  4  1  0
  3  1  1  0
  4  3  2  0
  5  1  2  0
  6  2  2  0
  7  1  1  0
  8  2  1  0
 10  9  1  0
 11 14  1  0
 12  9  1  0
 13 10  2  0
 14 12  2  0
 15 10  1  0
 16 27  1  0
 17 22  1  0
 18 13  1  0
 19  9  1  0
 20 15  2  0
 21 23  1  0
 22 24  1  0
 23 16  1  0
 24 16  1  0
 25 19  1  0
 26 20  1  0
 27 25  1  0
 28 20  1  0
 29 12  1  0
 30 14  1  0
 31 17  1  0
 32 29  2  0
 33 30  2  0
 11 13  1  0
 32 33  1  0
 26 18  2  0
 17 21  1  0
 35 37  1  0
 36 34  1  0
 37 36  2  0
 38 34  2  0
 39 35  2  0
 40 34  1  0
 41 35  1  0
  3 42  1  0
  4 43  1  0
  7 44  1  0
  8 45  1  0
 15 46  1  0
 18 47  1  0
 19 48  1  0
 19 49  1  0
 21 50  1  0
 21 51  1  0
 22 52  1  0
 22 53  1  0
 23 54  1  0
 23 55  1  0
 24 56  1  0
 24 57  1  0
 25 58  1  0
 25 59  1  0
 26 60  1  0
 27 61  1  0
 27 62  1  0
 29 63  1  0
 30 64  1  0
 31 65  1  0
 31 66  1  0
 31 67  1  0
 32 68  1  0
 33 69  1  0
 36 70  1  0
 37 71  1  0
 40 72  1  0
 41 73  1  0
M  END
> <Uni-Dock RESULT> 
ENERGY=   -5.320  LOWER_BOUND=    4.151  UPPER_BOUND=    5.634
INTER + INTRA:          -5.320
INTER:                  -5.320
INTRA:                   0.000
UNBOUND:                 0.000

$$$$

     RDKit          3D

 73 74  0  0  0  0  0  0  0  0999 V2000
   44.7946    8.7373   11.9230 C   0  0  0  0  0  0  0  0  0  0  0  0
   43.2973   11.2006   10.8948 C   0  0  0  0  0  0  0  0  0  0  0  0
   44.0617    8.8316   10.6578 C   0  0  0  0  0  0  0  0  0  0  0  0
   43.4409    9.9237   10.1904 C   0  0  0  0  0  0  0  0  0  0  0  0
   44.8094    7.7575   12.6444 O   0  0  0  0  0  0  0  0  0  0  0  0
   43.3016   12.2920   10.3561 O   0  0  0  0  0  0  0  0  0  0  0  0
   45.5674    9.8083   12.1552 O   0  0  0  0  0  0  0  0  0  0  0  0
   43.0275   11.0498   12.1995 O   0  0  0  0  0  0  0  0  0  0  0  0
   45.1398    7.9244   11.7801 N   0  0  0  0  0  0  0  0  0  0  0  0
   46.3103    8.4895   12.3674 C   0  0  0  0  0  0  0  0  0  0  0  0
   47.0228    5.9607   13.3743 S   0  0  0  0  0  0  0  0  0  0  0  0
   44.6341    6.6169   12.0402 C   0  0  0  0  0  0  0  0  0  0  0  0
   47.2104    7.7089   13.1229 C   0  0  0  0  0  0  0  0  0  0  0  0
   45.3807    5.6641   12.7636 C   0  0  0  0  0  0  0  0  0  0  0  0
   46.6208    9.8638   12.2513 C   0  0  0  0  0  0  0  0  0  0  0  0
   41.6307   11.3004   10.6428 N   0  0  0  0  0  0  0  0  0  0  0  0
   42.0241   14.1815    9.9159 N   0  0  0  0  0  0  0  0  0  0  0  0
   48.3577    8.2819   13.7088 C   0  0  0  0  0  0  0  0  0  0  0  0
   44.4654    8.7117   10.7217 C   0  0  0  0  0  0  0  0  0  0  0  0
   47.7597   10.4237   12.8392 C   0  0  0  0  0  0  0  0  0  0  0  0
   42.7265   13.5692   11.0575 C   0  0  0  0  0  0  0  0  0  0  0  0
   41.7060   13.1638    8.8996 C   0  0  0  0  0  0  0  0  0  0  0  0
   41.9609   12.3525   11.6309 C   0  0  0  0  0  0  0  0  0  0  0  0
   40.9513   11.9522    9.4985 C   0  0  0  0  0  0  0  0  0  0  0  0
   43.3640    9.6168   11.2938 C   0  0  0  0  0  0  0  0  0  0  0  0
   48.6341    9.6372   13.5683 C   0  0  0  0  0  0  0  0  0  0  0  0
   42.7965   10.5247   10.1951 C   0  0  0  0  0  0  0  0  0  0  0  0
   48.0724   12.1071   12.6570 Cl  0  0  0  0  0  0  0  0  0  0  0  0
   43.3499    6.2065   11.6146 C   0  0  0  0  0  0  0  0  0  0  0  0
   44.8646    4.3781   13.0215 C   0  0  0  0  0  0  0  0  0  0  0  0
   42.8030   15.2751    9.3423 C   0  0  0  0  0  0  0  0  0  0  0  0
   42.8398    4.9286   11.8757 C   0  0  0  0  0  0  0  0  0  0  0  0
   43.5995    4.0104   12.5794 C   0  0  0  0  0  0  0  0  0  0  0  0
   43.0788   11.1660   10.7658 C   0  0  0  0  0  0  0  0  0  0  0  0
   44.3743    8.6551   11.7719 C   0  0  0  0  0  0  0  0  0  0  0  0
   44.2391   11.1309   11.6583 C   0  0  0  0  0  0  0  0  0  0  0  0
   44.8473   10.0119   12.0746 C   0  0  0  0  0  0  0  0  0  0  0  0
   42.0714   11.8201   10.9548 O   0  0  0  0  0  0  0  0  0  0  0  0
   43.2612    8.3030   11.4377 O   0  0  0  0  0  0  0  0  0  0  0  0
   43.3008   10.4817    9.6345 O   0  0  0  0  0  0  0  0  0  0  0  0
   45.3745    7.7790   11.9587 O   0  0  0  0  0  0  0  0  0  0  0  0
   44.0473    7.9110   10.0859 H   0  0  0  0  0  0  0  0  0  0  0  0
   42.9876    9.9104    9.2059 H   0  0  0  0  0  0  0  0  0  0  0  0
   46.0120    9.5970   13.0017 H   0  0  0  0  0  0  0  0  0  0  0  0
   42.9278   11.9677   12.5262 H   0  0  0  0  0  0  0  0  0  0  0  0
   45.9718   10.5449   11.7128 H   0  0  0  0  0  0  0  0  0  0  0  0
   49.0470    7.6641   14.2818 H   0  0  0  0  0  0  0  0  0  0  0  0
   44.0530    8.0580    9.9420 H   0  0  0  0  0  0  0  0  0  0  0  0
   45.1957    9.3085   10.1590 H   0  0  0  0  0  0  0  0  0  0  0  0
   43.7401   13.2617   10.7702 H   0  0  0  0  0  0  0  0  0  0  0  0
   42.8305   14.3130   11.8570 H   0  0  0  0  0  0  0  0  0  0  0  0
   42.6203   12.8143    8.4029 H   0  0  0  0  0  0  0  0  0  0  0  0
   41.0705   13.6113    8.1257 H   0  0  0  0  0  0  0  0  0  0  0  0
   41.0162   12.7113   12.0621 H   0  0  0  0  0  0  0  0  0  0  0  0
   42.5150   11.9381   12.4792 H   0  0  0  0  0  0  0  0  0  0  0  0
   40.7503   11.2176    8.7088 H   0  0  0  0  0  0  0  0  0  0  0  0
   39.9629   12.2891    9.8396 H   0  0  0  0  0  0  0  0  0  0  0  0
   42.5589    9.0120   11.7259 H   0  0  0  0  0  0  0  0  0  0  0  0
   43.7649   10.2168   12.1162 H   0  0  0  0  0  0  0  0  0  0  0  0
   49.5211   10.0635   14.0276 H   0  0  0  0  0  0  0  0  0  0  0  0
   42.4843    9.8749    9.3672 H   0  0  0  0  0  0  0  0  0  0  0  0
   43.5917   11.1695    9.8036 H   0  0  0  0  0  0  0  0  0  0  0  0
   42.6863    6.8762   11.0775 H   0  0  0  0  0  0  0  0  0  0  0  0
   45.4558    3.6506   13.5746 H   0  0  0  0  0  0  0  0  0  0  0  0
   43.7665   14.9351    8.9451 H   0  0  0  0  0  0  0  0  0  0  0  0
   42.9932   16.0477   10.0952 H   0  0  0  0  0  0  0  0  0  0  0  0
   42.2468   15.7570    8.5302 H   0  0  0  0  0  0  0  0  0  0  0  0
   41.8441    4.6620   11.5297 H   0  0  0  0  0  0  0  0  0  0  0  0
   43.2124    3.0170   12.7877 H   0  0  0  0  0  0  0  0  0  0  0  0
   44.5813   12.1033   11.9911 H   0  0  0  0  0  0  0  0  0  0  0  0
   45.7221   10.0747   12.7117 H   0  0  0  0  0  0  0  0  0  0  0  0
   42.4547   10.5470    9.1460 H   0  0  0  0  0  0  0  0  0  0  0  0
   44.9697    6.9144   11.7357 H   0  0  0  0  0  0  0  0  0  0  0  0
  2  4  1  0
  3  1  1  0
  4  3  2  0
  5  1  2  0
  6  2  2  0
  7  1  1  0
  8  2  1  0
 10  9  1  0
 11 14  1  0
 12  9  1  0
 13 10  2  0
 14 12  2  0
 15 10  1  0
 16 27  1  0
 17 22  1  0
 18 13  1  0
 19  9  1  0
 20 15  2  0
 21 23  1  0
 22 24  1  0
 23 16  1  0
 24 16  1  0
 25 19  1  0
 26 20  1  0
 27 25  1  0
 28 20  1  0
 29 12  1  0
 30 14  1  0
 31 17  1  0
 32 29  2  0
 33 30  2  0
 11 13  1  0
 32 33  1  0
 26 18  2  0
 17 21  1  0
 35 37  1  0
 36 34  1  0
 37 36  2  0
 38 34  2  0
 39 35  2  0
 40 34  1  0
 41 35  1  0
  3 42  1  0
  4 43  1  0
  7 44  1  0
  8 45  1  0
 15 46  1  0
 18 47  1  0
 19 48  1  0
 19 49  1  0
 21 50  1  0
 21 51  1  0
 22 52  1  0
 22 53  1  0
 23 54  1  0
 23 55  1  0
 24 56  1  0
 24 57  1  0
 25 58  1  0
 25 59  1  0
 26 60  1  0
 27 61  1  0
 27 62  1  0
 29 63  1  0
 30 64  1  0
 31 65  1  0
 31 66  1  0
 31 67  1  0
 32 68  1  0
 33 69  1  0
 36 70  1  0
 37 71  1  0
 40 72  1  0
 41 73  1  0
M  END
> <Uni-Dock RESULT> 
ENERGY=   -5.301  LOWER_BOUND=    5.171  UPPER_BOUND=    6.852
INTER + INTRA:          -5.301
INTER:                  -5.301
INTRA:                   0.000
UNBOUND:                 0.000

$$$$

     RDKit          3D

 73 74  0  0  0  0  0  0  0  0999 V2000
   46.8018    7.7072   12.5983 C   0  0  0  0  0  0  0  0  0  0  0  0
   49.5645    8.7484   13.4049 C   0  0  0  0  0  0  0  0  0  0  0  0
   47.5031    7.4043   13.8486 C   0  0  0  0  0  0  0  0  0  0  0  0
   48.6950    7.8936   14.2178 C   0  0  0  0  0  0  0  0  0  0  0  0
   46.1376    6.9084   11.9647 O   0  0  0  0  0  0  0  0  0  0  0  0
   50.2731    9.6337   13.8469 O   0  0  0  0  0  0  0  0  0  0  0  0
   46.8555    9.0078   12.2762 O   0  0  0  0  0  0  0  0  0  0  0  0
   49.6068    8.3761   12.1175 O   0  0  0  0  0  0  0  0  0  0  0  0
   46.0334    7.3021   12.8121 N   0  0  0  0  0  0  0  0  0  0  0  0
   45.4412    8.4359   12.1811 C   0  0  0  0  0  0  0  0  0  0  0  0
   43.2502    6.8534   11.3994 S   0  0  0  0  0  0  0  0  0  0  0  0
   45.5961    5.9530   12.6651 C   0  0  0  0  0  0  0  0  0  0  0  0
   44.2099    8.3446   11.4986 C   0  0  0  0  0  0  0  0  0  0  0  0
   44.3787    5.6338   12.0292 C   0  0  0  0  0  0  0  0  0  0  0  0
   46.0640    9.7050   12.1784 C   0  0  0  0  0  0  0  0  0  0  0  0
   50.9394    7.7974   13.6429 N   0  0  0  0  0  0  0  0  0  0  0  0
   52.4731   10.3284   14.1180 N   0  0  0  0  0  0  0  0  0  0  0  0
   43.6409    9.4700   10.8683 C   0  0  0  0  0  0  0  0  0  0  0  0
   47.1101    7.5601   13.7965 C   0  0  0  0  0  0  0  0  0  0  0  0
   45.4933   10.8149   11.5471 C   0  0  0  0  0  0  0  0  0  0  0  0
   51.4791   10.2182   13.0357 C   0  0  0  0  0  0  0  0  0  0  0  0
   52.1428    9.4060   15.2180 C   0  0  0  0  0  0  0  0  0  0  0  0
   51.2834    8.7559   12.5680 C   0  0  0  0  0  0  0  0  0  0  0  0
   51.9403    7.9528   14.7245 C   0  0  0  0  0  0  0  0  0  0  0  0
   48.5010    7.5344   13.1450 C   0  0  0  0  0  0  0  0  0  0  0  0
   44.2798   10.7046   10.8914 C   0  0  0  0  0  0  0  0  0  0  0  0
   49.5721    7.9557   14.1592 C   0  0  0  0  0  0  0  0  0  0  0  0
   46.3112   12.3298   11.5834 Cl  0  0  0  0  0  0  0  0  0  0  0  0
   46.3643    4.8573   13.1213 C   0  0  0  0  0  0  0  0  0  0  0  0
   43.9631    4.2950   11.8824 C   0  0  0  0  0  0  0  0  0  0  0  0
   52.5817   11.7035   14.5967 C   0  0  0  0  0  0  0  0  0  0  0  0
   45.9489    3.5283   12.9708 C   0  0  0  0  0  0  0  0  0  0  0  0
   44.7440    3.2455   12.3514 C   0  0  0  0  0  0  0  0  0  0  0  0
   49.7204    8.5929   13.5358 C   0  0  0  0  0  0  0  0  0  0  0  0
   47.0864    7.3899   12.7549 C   0  0  0  0  0  0  0  0  0  0  0  0
   48.7442    9.2343   12.6529 C   0  0  0  0  0  0  0  0  0  0  0  0
   47.5482    8.7197   12.3369 C   0  0  0  0  0  0  0  0  0  0  0  0
   50.9030    8.4566   13.2881 O   0  0  0  0  0  0  0  0  0  0  0  0
   47.7525    6.4407   13.1153 O   0  0  0  0  0  0  0  0  0  0  0  0
   49.1840    8.2755   14.7228 O   0  0  0  0  0  0  0  0  0  0  0  0
   45.7496    7.3247   12.6475 O   0  0  0  0  0  0  0  0  0  0  0  0
   46.9718    6.7184   14.4982 H   0  0  0  0  0  0  0  0  0  0  0  0
   49.0955    7.6640   15.1986 H   0  0  0  0  0  0  0  0  0  0  0  0
   46.3293    9.0667   11.4523 H   0  0  0  0  0  0  0  0  0  0  0  0
   50.2393    9.0044   11.7121 H   0  0  0  0  0  0  0  0  0  0  0  0
   47.0254    9.8623   12.6540 H   0  0  0  0  0  0  0  0  0  0  0  0
   42.6857    9.3849   10.3529 H   0  0  0  0  0  0  0  0  0  0  0  0
   47.0672    6.8455   14.6288 H   0  0  0  0  0  0  0  0  0  0  0  0
   46.9457    8.5184   14.3071 H   0  0  0  0  0  0  0  0  0  0  0  0
   50.5137   10.6340   13.3513 H   0  0  0  0  0  0  0  0  0  0  0  0
   51.8174   10.8081   12.1750 H   0  0  0  0  0  0  0  0  0  0  0  0
   51.2403    9.7407   15.7455 H   0  0  0  0  0  0  0  0  0  0  0  0
   52.9611    9.4059   15.9484 H   0  0  0  0  0  0  0  0  0  0  0  0
   52.2190    8.4137   12.1049 H   0  0  0  0  0  0  0  0  0  0  0  0
   50.5450    8.7258   11.7604 H   0  0  0  0  0  0  0  0  0  0  0  0
   51.6828    7.3087   15.5744 H   0  0  0  0  0  0  0  0  0  0  0  0
   52.9014    7.5721   14.3528 H   0  0  0  0  0  0  0  0  0  0  0  0
   48.7262    6.5317   12.7649 H   0  0  0  0  0  0  0  0  0  0  0  0
   48.5169    8.1973   12.2747 H   0  0  0  0  0  0  0  0  0  0  0  0
   43.8291   11.5614   10.3992 H   0  0  0  0  0  0  0  0  0  0  0  0
   49.4562    7.3102   15.0396 H   0  0  0  0  0  0  0  0  0  0  0  0
   49.3774    8.9807   14.4955 H   0  0  0  0  0  0  0  0  0  0  0  0
   47.3298    4.9964   13.5965 H   0  0  0  0  0  0  0  0  0  0  0  0
   43.0170    4.0645   11.3961 H   0  0  0  0  0  0  0  0  0  0  0  0
   51.6411   12.0698   15.0244 H   0  0  0  0  0  0  0  0  0  0  0  0
   52.8734   12.3728   13.7800 H   0  0  0  0  0  0  0  0  0  0  0  0
   53.3617   11.7823   15.3624 H   0  0  0  0  0  0  0  0  0  0  0  0
   46.5777    2.7199   13.3359 H   0  0  0  0  0  0  0  0  0  0  0  0
   44.4135    2.2179   12.2291 H   0  0  0  0  0  0  0  0  0  0  0  0
   49.0661   10.1817   12.2378 H   0  0  0  0  0  0  0  0  0  0  0  0
   46.8699    9.2749   11.6990 H   0  0  0  0  0  0  0  0  0  0  0  0
   49.9116    7.8279   15.2015 H   0  0  0  0  0  0  0  0  0  0  0  0
   45.5377    6.4144   12.9435 H   0  0  0  0  0  0  0  0  0  0  0  0
  2  4  1  0
  3  1  1  0
  4  3  2  0
  5  1  2  0
  6  2  2  0
  7  1  1  0
  8  2  1  0
 10  9  1  0
 11 14  1  0
 12  9  1  0
 13 10  2  0
 14 12  2  0
 15 10  1  0
 16 27  1  0
 17 22  1  0
 18 13  1  0
 19  9  1  0
 20 15  2  0
 21 23  1  0
 22 24  1  0
 23 16  1  0
 24 16  1  0
 25 19  1  0
 26 20  1  0
 27 25  1  0
 28 20  1  0
 29 12  1  0
 30 14  1  0
 31 17  1  0
 32 29  2  0
 33 30  2  0
 11 13  1  0
 32 33  1  0
 26 18  2  0
 17 21  1  0
 35 37  1  0
 36 34  1  0
 37 36  2  0
 38 34  2  0
 39 35  2  0
 40 34  1  0
 41 35  1  0
  3 42  1  0
  4 43  1  0
  7 44  1  0
  8 45  1  0
 15 46  1  0
 18 47  1  0
 19 48  1  0
 19 49  1  0
 21 50  1  0
 21 51  1  0
 22 52  1  0
 22 53  1  0
 23 54  1  0
 23 55  1  0
 24 56  1  0
 24 57  1  0
 25 58  1  0
 25 59  1  0
 26 60  1  0
 27 61  1  0
 27 62  1  0
 29 63  1  0
 30 64  1  0
 31 65  1  0
 31 66  1  0
 31 67  1  0
 32 68  1  0
 33 69  1  0
 36 70  1  0
 37 71  1  0
 40 72  1  0
 41 73  1  0
M  END
> <Uni-Dock RESULT> 
ENERGY=   -5.281  LOWER_BOUND=    3.167  UPPER_BOUND=    6.603
INTER + INTRA:          -5.281
INTER:                  -5.281
INTRA:                   0.000
UNBOUND:                 0.000

$$$$

     RDKit          3D

 73 74  0  0  0  0  0  0  0  0999 V2000
   47.8788    7.5110   13.4034 C   0  0  0  0  0  0  0  0  0  0  0  0
   48.8375   10.3036   12.5975 C   0  0  0  0  0  0  0  0  0  0  0  0
   48.3860    7.8983   12.0845 C   0  0  0  0  0  0  0  0  0  0  0  0
   48.8434    9.1116   11.7452 C   0  0  0  0  0  0  0  0  0  0  0  0
   46.9517    6.7460   13.5926 O   0  0  0  0  0  0  0  0  0  0  0  0
   49.6978   11.1645   12.5886 O   0  0  0  0  0  0  0  0  0  0  0  0
   48.6288    7.9883   14.4074 O   0  0  0  0  0  0  0  0  0  0  0  0
   47.7105   10.4283   13.3131 O   0  0  0  0  0  0  0  0  0  0  0  0
   47.8137    6.6350   13.2340 N   0  0  0  0  0  0  0  0  0  0  0  0
   48.3177    6.4998   14.5615 C   0  0  0  0  0  0  0  0  0  0  0  0
   46.9009    4.0862   14.8507 S   0  0  0  0  0  0  0  0  0  0  0  0
   46.7679    5.8515   12.6639 C   0  0  0  0  0  0  0  0  0  0  0  0
   47.9559    5.4119   15.3837 C   0  0  0  0  0  0  0  0  0  0  0  0
   46.2653    4.7035   13.3105 C   0  0  0  0  0  0  0  0  0  0  0  0
   49.1826    7.4579   15.1382 C   0  0  0  0  0  0  0  0  0  0  0  0
   48.1139   11.2906   11.4340 N   0  0  0  0  0  0  0  0  0  0  0  0
   50.1177   13.4049   12.1406 N   0  0  0  0  0  0  0  0  0  0  0  0
   48.4512    5.2960   16.6986 C   0  0  0  0  0  0  0  0  0  0  0  0
   48.5169    7.5801   12.3355 C   0  0  0  0  0  0  0  0  0  0  0  0
   49.6659    7.3359   16.4450 C   0  0  0  0  0  0  0  0  0  0  0  0
   49.4499   12.5957   13.1754 C   0  0  0  0  0  0  0  0  0  0  0  0
   50.1941   12.6596   10.8722 C   0  0  0  0  0  0  0  0  0  0  0  0
   48.0792   12.0555   12.7014 C   0  0  0  0  0  0  0  0  0  0  0  0
   48.8141   12.1195   10.4248 C   0  0  0  0  0  0  0  0  0  0  0  0
   47.8965    8.9845   12.3814 C   0  0  0  0  0  0  0  0  0  0  0  0
   49.3053    6.2555   17.2306 C   0  0  0  0  0  0  0  0  0  0  0  0
   48.7415    9.9672   11.5607 C   0  0  0  0  0  0  0  0  0  0  0  0
   50.7149    8.5440   17.0815 Cl  0  0  0  0  0  0  0  0  0  0  0  0
   46.1555    6.1904   11.4354 C   0  0  0  0  0  0  0  0  0  0  0  0
   45.2245    3.9434   12.7397 C   0  0  0  0  0  0  0  0  0  0  0  0
   51.4415   13.8356   12.5804 C   0  0  0  0  0  0  0  0  0  0  0  0
   45.1196    5.4338   10.8734 C   0  0  0  0  0  0  0  0  0  0  0  0
   44.6535    4.3058   11.5258 C   0  0  0  0  0  0  0  0  0  0  0  0
   48.7882   10.3862   12.3600 C   0  0  0  0  0  0  0  0  0  0  0  0
   47.7098    7.6642   13.0108 C   0  0  0  0  0  0  0  0  0  0  0  0
   48.8084    9.7825   13.6939 C   0  0  0  0  0  0  0  0  0  0  0  0
   48.3676    8.5500   13.9799 C   0  0  0  0  0  0  0  0  0  0  0  0
   48.3763   11.5011   12.1038 O   0  0  0  0  0  0  0  0  0  0  0  0
   47.1566    7.9636   11.9721 O   0  0  0  0  0  0  0  0  0  0  0  0
   49.3978    9.6091   11.4534 O   0  0  0  0  0  0  0  0  0  0  0  0
   47.7580    6.3981   13.4552 O   0  0  0  0  0  0  0  0  0  0  0  0
   48.3681    7.0994   11.3523 H   0  0  0  0  0  0  0  0  0  0  0  0
   49.2659    9.2763   10.7606 H   0  0  0  0  0  0  0  0  0  0  0  0
   48.1980    7.6317   15.2113 H   0  0  0  0  0  0  0  0  0  0  0  0
   47.8332   11.2694   13.7996 H   0  0  0  0  0  0  0  0  0  0  0  0
   49.4914    8.3408   14.5903 H   0  0  0  0  0  0  0  0  0  0  0  0
   48.1691    4.4459   17.3174 H   0  0  0  0  0  0  0  0  0  0  0  0
   48.5365    7.2070   11.3032 H   0  0  0  0  0  0  0  0  0  0  0  0
   49.5857    7.6268   12.5836 H   0  0  0  0  0  0  0  0  0  0  0  0
   50.0872   11.7570   13.4838 H   0  0  0  0  0  0  0  0  0  0  0  0
   49.2819   13.2159   14.0643 H   0  0  0  0  0  0  0  0  0  0  0  0
   50.9021   11.8251   10.9560 H   0  0  0  0  0  0  0  0  0  0  0  0
   50.5709   13.3233   10.0845 H   0  0  0  0  0  0  0  0  0  0  0  0
   47.4036   12.9095   12.5553 H   0  0  0  0  0  0  0  0  0  0  0  0
   47.6192   11.4700   13.5039 H   0  0  0  0  0  0  0  0  0  0  0  0
   48.9244   11.5615    9.4867 H   0  0  0  0  0  0  0  0  0  0  0  0
   48.1666   12.9727   10.1802 H   0  0  0  0  0  0  0  0  0  0  0  0
   46.8726    8.9626   11.9916 H   0  0  0  0  0  0  0  0  0  0  0  0
   47.8169    9.3228   13.4188 H   0  0  0  0  0  0  0  0  0  0  0  0
   49.6764    6.1524   18.2460 H   0  0  0  0  0  0  0  0  0  0  0  0
   48.8532    9.5381   10.5564 H   0  0  0  0  0  0  0  0  0  0  0  0
   49.7493   10.0310   11.9870 H   0  0  0  0  0  0  0  0  0  0  0  0
   46.4502    7.0719   10.8756 H   0  0  0  0  0  0  0  0  0  0  0  0
   44.8522    3.0552   13.2469 H   0  0  0  0  0  0  0  0  0  0  0  0
   52.1124   12.9893   12.7686 H   0  0  0  0  0  0  0  0  0  0  0  0
   51.3675   14.4283   13.4986 H   0  0  0  0  0  0  0  0  0  0  0  0
   51.9051   14.4809   11.8255 H   0  0  0  0  0  0  0  0  0  0  0  0
   44.6788    5.7382    9.9271 H   0  0  0  0  0  0  0  0  0  0  0  0
   43.8497    3.7130   11.0984 H   0  0  0  0  0  0  0  0  0  0  0  0
   49.2010   10.4244   14.4732 H   0  0  0  0  0  0  0  0  0  0  0  0
   48.4472    8.1661   14.9906 H   0  0  0  0  0  0  0  0  0  0  0  0
   49.2878   10.0946   10.6102 H   0  0  0  0  0  0  0  0  0  0  0  0
   47.3012    5.8887   12.7530 H   0  0  0  0  0  0  0  0  0  0  0  0
  2  4  1  0
  3  1  1  0
  4  3  2  0
  5  1  2  0
  6  2  2  0
  7  1  1  0
  8  2  1  0
 10  9  1  0
 11 14  1  0
 12  9  1  0
 13 10  2  0
 14 12  2  0
 15 10  1  0
 16 27  1  0
 17 22  1  0
 18 13  1  0
 19  9  1  0
 20 15  2  0
 21 23  1  0
 22 24  1  0
 23 16  1  0
 24 16  1  0
 25 19  1  0
 26 20  1  0
 27 25  1  0
 28 20  1  0
 29 12  1  0
 30 14  1  0
 31 17  1  0
 32 29  2  0
 33 30  2  0
 11 13  1  0
 32 33  1  0
 26 18  2  0
 17 21  1  0
 35 37  1  0
 36 34  1  0
 37 36  2  0
 38 34  2  0
 39 35  2  0
 40 34  1  0
 41 35  1  0
  3 42  1  0
  4 43  1  0
  7 44  1  0
  8 45  1  0
 15 46  1  0
 18 47  1  0
 19 48  1  0
 19 49  1  0
 21 50  1  0
 21 51  1  0
 22 52  1  0
 22 53  1  0
 23 54  1  0
 23 55  1  0
 24 56  1  0
 24 57  1  0
 25 58  1  0
 25 59  1  0
 26 60  1  0
 27 61  1  0
 27 62  1  0
 29 63  1  0
 30 64  1  0
 31 65  1  0
 31 66  1  0
 31 67  1  0
 32 68  1  0
 33 69  1  0
 36 70  1  0
 37 71  1  0
 40 72  1  0
 41 73  1  0
M  END
> <Uni-Dock RESULT> 
ENERGY=   -4.878  LOWER_BOUND=    3.338  UPPER_BOUND=    6.417
INTER + INTRA:          -4.878
INTER:                  -4.878
INTRA:                   0.000
UNBOUND:                 0.000

$$$$
