
     RDKit          3D

 73 74  0  0  0  0  0  0  0  0999 V2000
   50.0674    8.5976   12.5508 C   0  0  0  0  0  0  0  0  0  0  0  0
   47.0721    8.1298   12.9981 C   0  0  0  0  0  0  0  0  0  0  0  0
   48.9746    9.2330   11.8090 C   0  0  0  0  0  0  0  0  0  0  0  0
   47.6661    8.9987   11.9783 C   0  0  0  0  0  0  0  0  0  0  0  0
   51.1059    9.1511   12.8616 O   0  0  0  0  0  0  0  0  0  0  0  0
   46.0836    7.4402   12.8297 O   0  0  0  0  0  0  0  0  0  0  0  0
   49.8699    7.2863   12.7493 O   0  0  0  0  0  0  0  0  0  0  0  0
   47.6535    8.2641   14.1991 O   0  0  0  0  0  0  0  0  0  0  0  0
   45.9780    8.0929   12.8171 N   0  0  0  0  0  0  0  0  0  0  0  0
   45.6264    6.7106   12.8011 C   0  0  0  0  0  0  0  0  0  0  0  0
   43.2840    7.3260   11.3669 S   0  0  0  0  0  0  0  0  0  0  0  0
   45.3437    9.1158   12.0519 C   0  0  0  0  0  0  0  0  0  0  0  0
   44.4545    6.2526   12.1619 C   0  0  0  0  0  0  0  0  0  0  0  0
   44.1479    8.8780   11.3438 C   0  0  0  0  0  0  0  0  0  0  0  0
   46.4380    5.7196   13.3996 C   0  0  0  0  0  0  0  0  0  0  0  0
   50.8359    8.8578   13.6742 N   0  0  0  0  0  0  0  0  0  0  0  0
   53.5182    9.1441   12.8017 N   0  0  0  0  0  0  0  0  0  0  0  0
   44.1208    4.8829   12.1445 C   0  0  0  0  0  0  0  0  0  0  0  0
   47.0171    8.5174   13.7845 C   0  0  0  0  0  0  0  0  0  0  0  0
   46.0984    4.3628   13.3765 C   0  0  0  0  0  0  0  0  0  0  0  0
   52.5767   10.1511   12.3059 C   0  0  0  0  0  0  0  0  0  0  0  0
   53.2928    8.8794   14.2349 C   0  0  0  0  0  0  0  0  0  0  0  0
   51.0951    9.7300   12.5091 C   0  0  0  0  0  0  0  0  0  0  0  0
   51.8346    9.0961   14.7247 C   0  0  0  0  0  0  0  0  0  0  0  0
   48.4213    8.4909   13.1637 C   0  0  0  0  0  0  0  0  0  0  0  0
   44.9395    3.9377   12.7512 C   0  0  0  0  0  0  0  0  0  0  0  0
   49.4658    8.9619   14.1828 C   0  0  0  0  0  0  0  0  0  0  0  0
   47.1319    3.2101   14.1302 Cl  0  0  0  0  0  0  0  0  0  0  0  0
   45.8850   10.4171   11.9353 C   0  0  0  0  0  0  0  0  0  0  0  0
   43.5379    9.8953   10.5821 C   0  0  0  0  0  0  0  0  0  0  0  0
   54.9038    9.5013   12.5301 C   0  0  0  0  0  0  0  0  0  0  0  0
   45.2768   11.4243   11.1756 C   0  0  0  0  0  0  0  0  0  0  0  0
   44.0988   11.1637   10.4976 C   0  0  0  0  0  0  0  0  0  0  0  0
   46.9573    7.9706   12.5468 C   0  0  0  0  0  0  0  0  0  0  0  0
   49.9249    8.4043   12.5665 C   0  0  0  0  0  0  0  0  0  0  0  0
   47.6046    9.2843   12.5341 C   0  0  0  0  0  0  0  0  0  0  0  0
   48.9281    9.4831   12.5866 C   0  0  0  0  0  0  0  0  0  0  0  0
   46.0729    7.6208   11.7887 O   0  0  0  0  0  0  0  0  0  0  0  0
   49.8002    7.2742   12.1400 O   0  0  0  0  0  0  0  0  0  0  0  0
   47.3651    7.2229   13.5821 O   0  0  0  0  0  0  0  0  0  0  0  0
   51.0847    8.8544   13.0718 O   0  0  0  0  0  0  0  0  0  0  0  0
   49.3055    9.9515   11.0678 H   0  0  0  0  0  0  0  0  0  0  0  0
   46.9411    9.4695   11.3241 H   0  0  0  0  0  0  0  0  0  0  0  0
   50.6784    6.9959   13.2189 H   0  0  0  0  0  0  0  0  0  0  0  0
   47.1438    7.6581   14.7750 H   0  0  0  0  0  0  0  0  0  0  0  0
   47.3729    5.9732   13.8876 H   0  0  0  0  0  0  0  0  0  0  0  0
   43.2097    4.5462   11.6529 H   0  0  0  0  0  0  0  0  0  0  0  0
   46.9881    7.8968   14.6897 H   0  0  0  0  0  0  0  0  0  0  0  0
   46.7964    9.5158   14.1846 H   0  0  0  0  0  0  0  0  0  0  0  0
   52.7489   11.1062   12.8206 H   0  0  0  0  0  0  0  0  0  0  0  0
   52.7372   10.3286   11.2356 H   0  0  0  0  0  0  0  0  0  0  0  0
   53.5751    7.8362   14.4233 H   0  0  0  0  0  0  0  0  0  0  0  0
   53.9427    9.5061   14.8600 H   0  0  0  0  0  0  0  0  0  0  0  0
   50.5017   10.6515   12.5697 H   0  0  0  0  0  0  0  0  0  0  0  0
   50.7672    9.1899   11.6129 H   0  0  0  0  0  0  0  0  0  0  0  0
   51.6610    8.4247   15.5746 H   0  0  0  0  0  0  0  0  0  0  0  0
   51.7348   10.1238   15.1002 H   0  0  0  0  0  0  0  0  0  0  0  0
   48.6713    7.4798   12.8225 H   0  0  0  0  0  0  0  0  0  0  0  0
   48.4482    9.1243   12.2709 H   0  0  0  0  0  0  0  0  0  0  0  0
   44.6691    2.8861   12.7283 H   0  0  0  0  0  0  0  0  0  0  0  0
   49.3711    8.3284   15.0741 H   0  0  0  0  0  0  0  0  0  0  0  0
   49.2466    9.9900   14.4981 H   0  0  0  0  0  0  0  0  0  0  0  0
   46.8160   10.6918   12.4197 H   0  0  0  0  0  0  0  0  0  0  0  0
   42.6112    9.6979   10.0464 H   0  0  0  0  0  0  0  0  0  0  0  0
   55.1917   10.4407   13.0159 H   0  0  0  0  0  0  0  0  0  0  0  0
   55.5798    8.7120   12.8769 H   0  0  0  0  0  0  0  0  0  0  0  0
   55.0692    9.6079   11.4526 H   0  0  0  0  0  0  0  0  0  0  0  0
   45.7340   12.4087   11.1148 H   0  0  0  0  0  0  0  0  0  0  0  0
   43.6190   11.9375    9.9052 H   0  0  0  0  0  0  0  0  0  0  0  0
   46.9222   10.1221   12.4593 H   0  0  0  0  0  0  0  0  0  0  0  0
   49.3265   10.4911   12.6069 H   0  0  0  0  0  0  0  0  0  0  0  0
   46.8968    6.3715   13.4606 H   0  0  0  0  0  0  0  0  0  0  0  0
   51.6786    8.0763   13.0187 H   0  0  0  0  0  0  0  0  0  0  0  0
  2  4  1  0
  3  1  1  0
  4  3  2  0
  5  1  2  0
  6  2  2  0
  7  1  1  0
  8  2  1  0
 10  9  1  0
 11 14  1  0
 12  9  1  0
 13 10  2  0
 14 12  2  0
 15 10  1  0
 16 27  1  0
 17 22  1  0
 18 13  1  0
 19  9  1  0
 20 15  2  0
 21 23  1  0
 22 24  1  0
 23 16  1  0
 24 16  1  0
 25 19  1  0
 26 20  1  0
 27 25  1  0
 28 20  1  0
 29 12  1  0
 30 14  1  0
 31 17  1  0
 32 29  2  0
 33 30  2  0
 11 13  1  0
 32 33  1  0
 26 18  2  0
 17 21  1  0
 35 37  1  0
 36 34  1  0
 37 36  2  0
 38 34  2  0
 39 35  2  0
 40 34  1  0
 41 35  1  0
  3 42  1  0
  4 43  1  0
  7 44  1  0
  8 45  1  0
 15 46  1  0
 18 47  1  0
 19 48  1  0
 19 49  1  0
 21 50  1  0
 21 51  1  0
 22 52  1  0
 22 53  1  0
 23 54  1  0
 23 55  1  0
 24 56  1  0
 24 57  1  0
 25 58  1  0
 25 59  1  0
 26 60  1  0
 27 61  1  0
 27 62  1  0
 29 63  1  0
 30 64  1  0
 31 65  1  0
 31 66  1  0
 31 67  1  0
 32 68  1  0
 33 69  1  0
 36 70  1  0
 37 71  1  0
 40 72  1  0
 41 73  1  0
M  END
> <Uni-Dock RESULT> 
ENERGY=   -5.661  LOWER_BOUND=    0.000  UPPER_BOUND=    0.000
INTER + INTRA:          -5.661
INTER:                  -5.661
INTRA:                   0.000
UNBOUND:                 0.000

$$$$

     RDKit          3D

 73 74  0  0  0  0  0  0  0  0999 V2000
   50.0263    8.2285   12.7206 C   0  0  0  0  0  0  0  0  0  0  0  0
   46.9698    8.2247   12.9412 C   0  0  0  0  0  0  0  0  0  0  0  0
   49.1105    9.1454   12.0358 C   0  0  0  0  0  0  0  0  0  0  0  0
   47.7724    9.1184   12.1017 C   0  0  0  0  0  0  0  0  0  0  0  0
   51.1149    8.5424   13.1653 O   0  0  0  0  0  0  0  0  0  0  0  0
   45.8974    7.7486   12.6179 O   0  0  0  0  0  0  0  0  0  0  0  0
   49.6030    6.9564   12.6998 O   0  0  0  0  0  0  0  0  0  0  0  0
   47.4736    8.0781   14.1753 O   0  0  0  0  0  0  0  0  0  0  0  0
   45.9010    8.4045   12.7033 N   0  0  0  0  0  0  0  0  0  0  0  0
   45.3308    7.1214   12.4521 C   0  0  0  0  0  0  0  0  0  0  0  0
   43.2344    8.3366   11.0200 S   0  0  0  0  0  0  0  0  0  0  0  0
   45.5013    9.6229   12.0789 C   0  0  0  0  0  0  0  0  0  0  0  0
   44.1511    6.9719   11.6920 C   0  0  0  0  0  0  0  0  0  0  0  0
   44.3393    9.7022   11.2844 C   0  0  0  0  0  0  0  0  0  0  0  0
   45.9225    5.9279   12.9258 C   0  0  0  0  0  0  0  0  0  0  0  0
   50.7405    8.1838   13.9073 N   0  0  0  0  0  0  0  0  0  0  0  0
   53.4913    8.1276   13.2234 N   0  0  0  0  0  0  0  0  0  0  0  0
   43.6006    5.6982   11.4424 C   0  0  0  0  0  0  0  0  0  0  0  0
   46.9199    8.4959   13.7752 C   0  0  0  0  0  0  0  0  0  0  0  0
   45.3688    4.6685   12.6722 C   0  0  0  0  0  0  0  0  0  0  0  0
   52.7667    9.3439   12.8471 C   0  0  0  0  0  0  0  0  0  0  0  0
   53.1190    7.6977   14.5840 C   0  0  0  0  0  0  0  0  0  0  0  0
   51.2252    9.1600   12.9085 C   0  0  0  0  0  0  0  0  0  0  0  0
   51.6831    8.0886   15.0298 C   0  0  0  0  0  0  0  0  0  0  0  0
   48.3436    8.3189   13.2276 C   0  0  0  0  0  0  0  0  0  0  0  0
   44.2062    4.5468   11.9317 C   0  0  0  0  0  0  0  0  0  0  0  0
   49.3715    8.4470   14.3582 C   0  0  0  0  0  0  0  0  0  0  0  0
   46.1408    3.2564   13.2844 Cl  0  0  0  0  0  0  0  0  0  0  0  0
   46.2550   10.8138   12.1958 C   0  0  0  0  0  0  0  0  0  0  0  0
   43.9623   10.9104   10.6639 C   0  0  0  0  0  0  0  0  0  0  0  0
   54.9331    8.2760   13.0797 C   0  0  0  0  0  0  0  0  0  0  0  0
   45.8780   12.0117   11.5757 C   0  0  0  0  0  0  0  0  0  0  0  0
   44.7275   12.0613   10.8081 C   0  0  0  0  0  0  0  0  0  0  0  0
   46.8647    8.1559   12.4653 C   0  0  0  0  0  0  0  0  0  0  0  0
   49.8534    8.0626   12.6986 C   0  0  0  0  0  0  0  0  0  0  0  0
   47.7168    9.3253   12.6918 C   0  0  0  0  0  0  0  0  0  0  0  0
   49.0474    9.2826   12.8398 C   0  0  0  0  0  0  0  0  0  0  0  0
   45.9945    8.0797   11.6191 O   0  0  0  0  0  0  0  0  0  0  0  0
   49.5783    7.0463   12.0935 O   0  0  0  0  0  0  0  0  0  0  0  0
   47.0662    7.2048   13.3884 O   0  0  0  0  0  0  0  0  0  0  0  0
   51.0298    8.2262   13.3248 O   0  0  0  0  0  0  0  0  0  0  0  0
   49.6089    9.8971   11.4343 H   0  0  0  0  0  0  0  0  0  0  0  0
   47.1850    9.7985   11.4952 H   0  0  0  0  0  0  0  0  0  0  0  0
   50.3158    6.4647   13.1567 H   0  0  0  0  0  0  0  0  0  0  0  0
   46.8301    7.4913   14.6228 H   0  0  0  0  0  0  0  0  0  0  0  0
   46.8470    5.9414   13.4929 H   0  0  0  0  0  0  0  0  0  0  0  0
   42.6862    5.6001   10.8598 H   0  0  0  0  0  0  0  0  0  0  0  0
   46.7223    7.7632   14.5687 H   0  0  0  0  0  0  0  0  0  0  0  0
   46.8358    9.4474   14.3166 H   0  0  0  0  0  0  0  0  0  0  0  0
   53.0533   10.1686   13.5139 H   0  0  0  0  0  0  0  0  0  0  0  0
   53.0338    9.6467   11.8274 H   0  0  0  0  0  0  0  0  0  0  0  0
   53.2122    6.6052   14.6190 H   0  0  0  0  0  0  0  0  0  0  0  0
   53.8137    8.1038   15.3312 H   0  0  0  0  0  0  0  0  0  0  0  0
   50.7873   10.1510   13.0846 H   0  0  0  0  0  0  0  0  0  0  0  0
   50.8817    8.8226   11.9233 H   0  0  0  0  0  0  0  0  0  0  0  0
   51.3390    7.3396   15.7536 H   0  0  0  0  0  0  0  0  0  0  0  0
   51.7245    9.0514   15.5575 H   0  0  0  0  0  0  0  0  0  0  0  0
   48.4500    7.3412   12.7438 H   0  0  0  0  0  0  0  0  0  0  0  0
   48.5403    9.0625   12.4483 H   0  0  0  0  0  0  0  0  0  0  0  0
   43.7703    3.5729   11.7300 H   0  0  0  0  0  0  0  0  0  0  0  0
   49.1082    7.7152   15.1326 H   0  0  0  0  0  0  0  0  0  0  0  0
   49.3000    9.4398   14.8207 H   0  0  0  0  0  0  0  0  0  0  0  0
   47.1793   10.8492   12.7625 H   0  0  0  0  0  0  0  0  0  0  0  0
   43.0586   10.9572   10.0590 H   0  0  0  0  0  0  0  0  0  0  0  0
   55.3332    9.0696   13.7212 H   0  0  0  0  0  0  0  0  0  0  0  0
   55.4433    7.3394   13.3302 H   0  0  0  0  0  0  0  0  0  0  0  0
   55.1939    8.5099   12.0419 H   0  0  0  0  0  0  0  0  0  0  0  0
   46.4930   12.9004   11.6934 H   0  0  0  0  0  0  0  0  0  0  0  0
   44.4262   12.9850   10.3225 H   0  0  0  0  0  0  0  0  0  0  0  0
   47.1879   10.2702   12.7169 H   0  0  0  0  0  0  0  0  0  0  0  0
   49.6022   10.1924   13.0384 H   0  0  0  0  0  0  0  0  0  0  0  0
   46.4757    6.4745   13.1113 H   0  0  0  0  0  0  0  0  0  0  0  0
   51.4911    7.3736   13.1787 H   0  0  0  0  0  0  0  0  0  0  0  0
  2  4  1  0
  3  1  1  0
  4  3  2  0
  5  1  2  0
  6  2  2  0
  7  1  1  0
  8  2  1  0
 10  9  1  0
 11 14  1  0
 12  9  1  0
 13 10  2  0
 14 12  2  0
 15 10  1  0
 16 27  1  0
 17 22  1  0
 18 13  1  0
 19  9  1  0
 20 15  2  0
 21 23  1  0
 22 24  1  0
 23 16  1  0
 24 16  1  0
 25 19  1  0
 26 20  1  0
 27 25  1  0
 28 20  1  0
 29 12  1  0
 30 14  1  0
 31 17  1  0
 32 29  2  0
 33 30  2  0
 11 13  1  0
 32 33  1  0
 26 18  2  0
 17 21  1  0
 35 37  1  0
 36 34  1  0
 37 36  2  0
 38 34  2  0
 39 35  2  0
 40 34  1  0
 41 35  1  0
  3 42  1  0
  4 43  1  0
  7 44  1  0
  8 45  1  0
 15 46  1  0
 18 47  1  0
 19 48  1  0
 19 49  1  0
 21 50  1  0
 21 51  1  0
 22 52  1  0
 22 53  1  0
 23 54  1  0
 23 55  1  0
 24 56  1  0
 24 57  1  0
 25 58  1  0
 25 59  1  0
 26 60  1  0
 27 61  1  0
 27 62  1  0
 29 63  1  0
 30 64  1  0
 31 65  1  0
 31 66  1  0
 31 67  1  0
 32 68  1  0
 33 69  1  0
 36 70  1  0
 37 71  1  0
 40 72  1  0
 41 73  1  0
M  END
> <Uni-Dock RESULT> 
ENERGY=   -5.597  LOWER_BOUND=    0.704  UPPER_BOUND=    0.767
INTER + INTRA:          -5.597
INTER:                  -5.597
INTRA:                   0.000
UNBOUND:                 0.000

$$$$

     RDKit          3D

 73 74  0  0  0  0  0  0  0  0999 V2000
   48.7659    7.4931   15.0202 C   0  0  0  0  0  0  0  0  0  0  0  0
   46.8488    7.3405   12.6343 C   0  0  0  0  0  0  0  0  0  0  0  0
   47.7449    6.4653   14.7981 C   0  0  0  0  0  0  0  0  0  0  0  0
   46.8806    6.4209   13.7750 C   0  0  0  0  0  0  0  0  0  0  0  0
   49.8620    7.2853   15.5068 O   0  0  0  0  0  0  0  0  0  0  0  0
   45.8345    7.7217   12.0804 O   0  0  0  0  0  0  0  0  0  0  0  0
   48.3269    8.7312   14.7515 O   0  0  0  0  0  0  0  0  0  0  0  0
   48.0712    7.6296   12.1648 O   0  0  0  0  0  0  0  0  0  0  0  0
   45.9692    7.0779   12.0111 N   0  0  0  0  0  0  0  0  0  0  0  0
   45.2620    8.2971   11.7920 C   0  0  0  0  0  0  0  0  0  0  0  0
   42.9283    6.8352   11.2094 S   0  0  0  0  0  0  0  0  0  0  0  0
   45.3750    5.7858   12.1188 C   0  0  0  0  0  0  0  0  0  0  0  0
   43.8927    8.3070   11.4504 C   0  0  0  0  0  0  0  0  0  0  0  0
   44.0173    5.5662   11.8088 C   0  0  0  0  0  0  0  0  0  0  0  0
   45.8800    9.5615   11.9269 C   0  0  0  0  0  0  0  0  0  0  0  0
   50.1078    7.6888   14.7347 N   0  0  0  0  0  0  0  0  0  0  0  0
   51.4744    7.8405   17.2140 N   0  0  0  0  0  0  0  0  0  0  0  0
   43.2009    9.5181   11.2445 C   0  0  0  0  0  0  0  0  0  0  0  0
   47.4494    7.1452   12.0238 C   0  0  0  0  0  0  0  0  0  0  0  0
   45.1847   10.7578   11.7211 C   0  0  0  0  0  0  0  0  0  0  0  0
   50.8393    6.5547   16.9151 C   0  0  0  0  0  0  0  0  0  0  0  0
   52.1630    8.3723   16.0233 C   0  0  0  0  0  0  0  0  0  0  0  0
   49.8167    6.6540   15.7496 C   0  0  0  0  0  0  0  0  0  0  0  0
   51.5528    7.9419   14.6610 C   0  0  0  0  0  0  0  0  0  0  0  0
   48.0003    7.3529   13.4420 C   0  0  0  0  0  0  0  0  0  0  0  0
   43.8442   10.7430   11.3780 C   0  0  0  0  0  0  0  0  0  0  0  0
   49.5331    7.3897   13.4206 C   0  0  0  0  0  0  0  0  0  0  0  0
   46.0022   12.2629   11.8980 Cl  0  0  0  0  0  0  0  0  0  0  0  0
   46.0996    4.6564   12.5655 C   0  0  0  0  0  0  0  0  0  0  0  0
   43.4402    4.2859   11.9308 C   0  0  0  0  0  0  0  0  0  0  0  0
   52.3657    7.7631   18.3634 C   0  0  0  0  0  0  0  0  0  0  0  0
   45.5217    3.3865   12.6874 C   0  0  0  0  0  0  0  0  0  0  0  0
   44.1881    3.1996   12.3680 C   0  0  0  0  0  0  0  0  0  0  0  0
   46.4246    7.3587   12.8833 C   0  0  0  0  0  0  0  0  0  0  0  0
   48.6147    7.6460   14.9122 C   0  0  0  0  0  0  0  0  0  0  0  0
   47.2934    6.2666   13.3277 C   0  0  0  0  0  0  0  0  0  0  0  0
   48.3003    6.3998   14.2010 C   0  0  0  0  0  0  0  0  0  0  0  0
   45.2110    7.3057   12.8252 O   0  0  0  0  0  0  0  0  0  0  0  0
   47.8796    8.5843   15.1447 O   0  0  0  0  0  0  0  0  0  0  0  0
   47.1297    8.4012   12.4214 O   0  0  0  0  0  0  0  0  0  0  0  0
   49.8861    7.6095   15.3425 O   0  0  0  0  0  0  0  0  0  0  0  0
   47.7275    5.6913   15.5568 H   0  0  0  0  0  0  0  0  0  0  0  0
   46.1142    5.6547   13.7445 H   0  0  0  0  0  0  0  0  0  0  0  0
   49.0902    9.3035   14.9716 H   0  0  0  0  0  0  0  0  0  0  0  0
   47.8959    8.2171   11.4014 H   0  0  0  0  0  0  0  0  0  0  0  0
   46.9212    9.6541   12.2163 H   0  0  0  0  0  0  0  0  0  0  0  0
   42.1462    9.5088   10.9749 H   0  0  0  0  0  0  0  0  0  0  0  0
   47.8125    7.9356   11.3537 H   0  0  0  0  0  0  0  0  0  0  0  0
   47.8871    6.2447   11.5734 H   0  0  0  0  0  0  0  0  0  0  0  0
   51.6064    5.8132   16.6530 H   0  0  0  0  0  0  0  0  0  0  0  0
   50.3131    6.1747   17.7992 H   0  0  0  0  0  0  0  0  0  0  0  0
   52.1347    9.4668   16.0905 H   0  0  0  0  0  0  0  0  0  0  0  0
   53.2209    8.0780   16.0136 H   0  0  0  0  0  0  0  0  0  0  0  0
   49.7532    5.6599   15.2886 H   0  0  0  0  0  0  0  0  0  0  0  0
   48.8321    6.8783   16.1769 H   0  0  0  0  0  0  0  0  0  0  0  0
   51.7641    8.7335   13.9316 H   0  0  0  0  0  0  0  0  0  0  0  0
   52.0671    7.0361   14.3115 H   0  0  0  0  0  0  0  0  0  0  0  0
   47.6166    8.2860   13.8701 H   0  0  0  0  0  0  0  0  0  0  0  0
   47.6480    6.5529   14.1016 H   0  0  0  0  0  0  0  0  0  0  0  0
   43.2972   11.6672   11.2171 H   0  0  0  0  0  0  0  0  0  0  0  0
   49.8378    8.1736   12.7154 H   0  0  0  0  0  0  0  0  0  0  0  0
   49.9266    6.4415   13.0323 H   0  0  0  0  0  0  0  0  0  0  0  0
   47.1427    4.7272   12.8546 H   0  0  0  0  0  0  0  0  0  0  0  0
   42.3922    4.1311   11.6811 H   0  0  0  0  0  0  0  0  0  0  0  0
   53.1882    7.0568   18.2022 H   0  0  0  0  0  0  0  0  0  0  0  0
   52.7938    8.7468   18.5854 H   0  0  0  0  0  0  0  0  0  0  0  0
   51.8147    7.4496   19.2567 H   0  0  0  0  0  0  0  0  0  0  0  0
   46.1202    2.5496   13.0384 H   0  0  0  0  0  0  0  0  0  0  0  0
   43.7299    2.2189   12.4593 H   0  0  0  0  0  0  0  0  0  0  0  0
   47.0534    5.2991   12.9041 H   0  0  0  0  0  0  0  0  0  0  0  0
   48.9189    5.5459   14.4524 H   0  0  0  0  0  0  0  0  0  0  0  0
   46.4490    9.0673   12.1937 H   0  0  0  0  0  0  0  0  0  0  0  0
   50.0021    8.4701   15.7973 H   0  0  0  0  0  0  0  0  0  0  0  0
  2  4  1  0
  3  1  1  0
  4  3  2  0
  5  1  2  0
  6  2  2  0
  7  1  1  0
  8  2  1  0
 10  9  1  0
 11 14  1  0
 12  9  1  0
 13 10  2  0
 14 12  2  0
 15 10  1  0
 16 27  1  0
 17 22  1  0
 18 13  1  0
 19  9  1  0
 20 15  2  0
 21 23  1  0
 22 24  1  0
 23 16  1  0
 24 16  1  0
 25 19  1  0
 26 20  1  0
 27 25  1  0
 28 20  1  0
 29 12  1  0
 30 14  1  0
 31 17  1  0
 32 29  2  0
 33 30  2  0
 11 13  1  0
 32 33  1  0
 26 18  2  0
 17 21  1  0
 35 37  1  0
 36 34  1  0
 37 36  2  0
 38 34  2  0
 39 35  2  0
 40 34  1  0
 41 35  1  0
  3 42  1  0
  4 43  1  0
  7 44  1  0
  8 45  1  0
 15 46  1  0
 18 47  1  0
 19 48  1  0
 19 49  1  0
 21 50  1  0
 21 51  1  0
 22 52  1  0
 22 53  1  0
 23 54  1  0
 23 55  1  0
 24 56  1  0
 24 57  1  0
 25 58  1  0
 25 59  1  0
 26 60  1  0
 27 61  1  0
 27 62  1  0
 29 63  1  0
 30 64  1  0
 31 65  1  0
 31 66  1  0
 31 67  1  0
 32 68  1  0
 33 69  1  0
 36 70  1  0
 37 71  1  0
 40 72  1  0
 41 73  1  0
M  END
> <Uni-Dock RESULT> 
ENERGY=   -5.143  LOWER_BOUND=    2.334  UPPER_BOUND=    4.206
INTER + INTRA:          -5.143
INTER:                  -5.143
INTRA:                   0.000
UNBOUND:                 0.000

$$$$

     RDKit          3D

 73 74  0  0  0  0  0  0  0  0999 V2000
   46.8856    7.3250   12.6963 C   0  0  0  0  0  0  0  0  0  0  0  0
   49.5737    8.3204   13.7801 C   0  0  0  0  0  0  0  0  0  0  0  0
   48.0107    7.8157   11.8952 C   0  0  0  0  0  0  0  0  0  0  0  0
   49.1709    8.2876   12.3714 C   0  0  0  0  0  0  0  0  0  0  0  0
   46.1540    6.4078   12.3725 O   0  0  0  0  0  0  0  0  0  0  0  0
   50.2329    9.2065   14.2913 O   0  0  0  0  0  0  0  0  0  0  0  0
   46.6511    8.0766   13.7817 O   0  0  0  0  0  0  0  0  0  0  0  0
   49.2520    7.1979   14.4396 O   0  0  0  0  0  0  0  0  0  0  0  0
   50.5516    8.8411   13.8415 N   0  0  0  0  0  0  0  0  0  0  0  0
   50.4051    9.8397   14.8494 C   0  0  0  0  0  0  0  0  0  0  0  0
   52.5847   11.2513   13.7634 S   0  0  0  0  0  0  0  0  0  0  0  0
   51.3793    8.9494   12.6851 C   0  0  0  0  0  0  0  0  0  0  0  0
   51.2459   10.9722   14.8966 C   0  0  0  0  0  0  0  0  0  0  0  0
   52.3073    9.9999   12.5335 C   0  0  0  0  0  0  0  0  0  0  0  0
   49.3996    9.7680   15.8408 C   0  0  0  0  0  0  0  0  0  0  0  0
   46.4219    6.1143   13.1857 N   0  0  0  0  0  0  0  0  0  0  0  0
   43.9018    5.6368   11.9780 N   0  0  0  0  0  0  0  0  0  0  0  0
   51.0869   11.9578   15.8921 C   0  0  0  0  0  0  0  0  0  0  0  0
   49.8700    7.5448   14.0668 C   0  0  0  0  0  0  0  0  0  0  0  0
   49.2496   10.7517   16.8241 C   0  0  0  0  0  0  0  0  0  0  0  0
   45.0481    5.6705   11.0665 C   0  0  0  0  0  0  0  0  0  0  0  0
   44.2272    4.8756   13.1985 C   0  0  0  0  0  0  0  0  0  0  0  0
   46.3106    6.2947   11.7226 C   0  0  0  0  0  0  0  0  0  0  0  0
   45.7264    4.8905   13.6054 C   0  0  0  0  0  0  0  0  0  0  0  0
   48.4669    7.5205   13.4433 C   0  0  0  0  0  0  0  0  0  0  0  0
   50.0915   11.8493   16.8561 C   0  0  0  0  0  0  0  0  0  0  0  0
   47.8036    6.1569   13.6715 C   0  0  0  0  0  0  0  0  0  0  0  0
   48.0051   10.5976   18.0042 Cl  0  0  0  0  0  0  0  0  0  0  0  0
   51.3027    8.0302   11.6130 C   0  0  0  0  0  0  0  0  0  0  0  0
   53.1110   10.1010   11.3799 C   0  0  0  0  0  0  0  0  0  0  0  0
   42.6969    5.1332   11.3329 C   0  0  0  0  0  0  0  0  0  0  0  0
   52.1016    8.1357   10.4675 C   0  0  0  0  0  0  0  0  0  0  0  0
   53.0097    9.1734   10.3504 C   0  0  0  0  0  0  0  0  0  0  0  0
   49.5611    8.7755   13.5930 C   0  0  0  0  0  0  0  0  0  0  0  0
   46.9544    7.4837   12.8636 C   0  0  0  0  0  0  0  0  0  0  0  0
   49.4054    7.7398   12.5692 C   0  0  0  0  0  0  0  0  0  0  0  0
   48.2510    7.1297   12.2707 C   0  0  0  0  0  0  0  0  0  0  0  0
   50.1545    9.8258   13.4387 O   0  0  0  0  0  0  0  0  0  0  0  0
   46.6239    8.5347   13.3745 O   0  0  0  0  0  0  0  0  0  0  0  0
   49.0765    8.3818   14.7794 O   0  0  0  0  0  0  0  0  0  0  0  0
   46.1030    6.4541   12.7301 O   0  0  0  0  0  0  0  0  0  0  0  0
   47.8413    7.7714   10.8254 H   0  0  0  0  0  0  0  0  0  0  0  0
   49.9108    8.6957   11.6922 H   0  0  0  0  0  0  0  0  0  0  0  0
   45.8685    7.6562   14.1933 H   0  0  0  0  0  0  0  0  0  0  0  0
   49.6021    7.3478   15.3416 H   0  0  0  0  0  0  0  0  0  0  0  0
   48.6876    8.9502   15.8660 H   0  0  0  0  0  0  0  0  0  0  0  0
   51.7479   12.8224   15.9189 H   0  0  0  0  0  0  0  0  0  0  0  0
   49.8158    7.3104   15.1381 H   0  0  0  0  0  0  0  0  0  0  0  0
   50.4727    6.7121   13.6808 H   0  0  0  0  0  0  0  0  0  0  0  0
   45.2876    4.6517   10.7326 H   0  0  0  0  0  0  0  0  0  0  0  0
   44.8055    6.2543   10.1703 H   0  0  0  0  0  0  0  0  0  0  0  0
   43.6367    5.3034   14.0181 H   0  0  0  0  0  0  0  0  0  0  0  0
   43.9269    3.8239   13.1007 H   0  0  0  0  0  0  0  0  0  0  0  0
   47.1845    5.8745   11.2083 H   0  0  0  0  0  0  0  0  0  0  0  0
   46.3022    7.3728   11.5226 H   0  0  0  0  0  0  0  0  0  0  0  0
   45.7814    4.7758   14.6949 H   0  0  0  0  0  0  0  0  0  0  0  0
   46.2233    4.0157   13.1638 H   0  0  0  0  0  0  0  0  0  0  0  0
   47.8412    8.3099   13.8750 H   0  0  0  0  0  0  0  0  0  0  0  0
   48.5292    7.7389   12.3721 H   0  0  0  0  0  0  0  0  0  0  0  0
   49.9813   12.6175   17.6157 H   0  0  0  0  0  0  0  0  0  0  0  0
   47.8040    5.9626   14.7517 H   0  0  0  0  0  0  0  0  0  0  0  0
   48.4029    5.3645   13.2052 H   0  0  0  0  0  0  0  0  0  0  0  0
   50.6011    7.2029   11.6215 H   0  0  0  0  0  0  0  0  0  0  0  0
   53.8277   10.9142   11.2808 H   0  0  0  0  0  0  0  0  0  0  0  0
   42.8193    4.1053   10.9727 H   0  0  0  0  0  0  0  0  0  0  0  0
   41.8499    5.1572   12.0273 H   0  0  0  0  0  0  0  0  0  0  0  0
   42.4246    5.7650   10.4806 H   0  0  0  0  0  0  0  0  0  0  0  0
   52.0034    7.4050    9.6686 H   0  0  0  0  0  0  0  0  0  0  0  0
   53.6339    9.2648    9.4661 H   0  0  0  0  0  0  0  0  0  0  0  0
   50.3140    7.4971   12.0320 H   0  0  0  0  0  0  0  0  0  0  0  0
   48.2271    6.3473   11.5208 H   0  0  0  0  0  0  0  0  0  0  0  0
   49.2041    9.1604   15.3594 H   0  0  0  0  0  0  0  0  0  0  0  0
   45.2785    6.7789   13.1493 H   0  0  0  0  0  0  0  0  0  0  0  0
  2  4  1  0
  3  1  1  0
  4  3  2  0
  5  1  2  0
  6  2  2  0
  7  1  1  0
  8  2  1  0
 10  9  1  0
 11 14  1  0
 12  9  1  0
 13 10  2  0
 14 12  2  0
 15 10  1  0
 16 27  1  0
 17 22  1  0
 18 13  1  0
 19  9  1  0
 20 15  2  0
 21 23  1  0
 22 24  1  0
 23 16  1  0
 24 16  1  0
 25 19  1  0
 26 20  1  0
 27 25  1  0
 28 20  1  0
 29 12  1  0
 30 14  1  0
 31 17  1  0
 32 29  2  0
 33 30  2  0
 11 13  1  0
 32 33  1  0
 26 18  2  0
 17 21  1  0
 35 37  1  0
 36 34  1  0
 37 36  2  0
 38 34  2  0
 39 35  2  0
 40 34  1  0
 41 35  1  0
  3 42  1  0
  4 43  1  0
  7 44  1  0
  8 45  1  0
 15 46  1  0
 18 47  1  0
 19 48  1  0
 19 49  1  0
 21 50  1  0
 21 51  1  0
 22 52  1  0
 22 53  1  0
 23 54  1  0
 23 55  1  0
 24 56  1  0
 24 57  1  0
 25 58  1  0
 25 59  1  0
 26 60  1  0
 27 61  1  0
 27 62  1  0
 29 63  1  0
 30 64  1  0
 31 65  1  0
 31 66  1  0
 31 67  1  0
 32 68  1  0
 33 69  1  0
 36 70  1  0
 37 71  1  0
 40 72  1  0
 41 73  1  0
M  END
> <Uni-Dock RESULT> 
ENERGY=   -4.876  LOWER_BOUND=    2.883  UPPER_BOUND=    6.611
INTER + INTRA:          -4.876
INTER:                  -4.876
INTRA:                   0.000
UNBOUND:                 0.000

$$$$

     RDKit          3D

 73 74  0  0  0  0  0  0  0  0999 V2000
   49.3632    9.6804   15.7799 C   0  0  0  0  0  0  0  0  0  0  0  0
   47.7679    8.8424   13.3012 C   0  0  0  0  0  0  0  0  0  0  0  0
   48.5587    8.4629   15.6423 C   0  0  0  0  0  0  0  0  0  0  0  0
   47.8298    8.1163   14.5727 C   0  0  0  0  0  0  0  0  0  0  0  0
   50.4196    9.7472   16.3808 O   0  0  0  0  0  0  0  0  0  0  0  0
   46.7699    8.9497   12.6130 O   0  0  0  0  0  0  0  0  0  0  0  0
   48.7547   10.7667   15.2822 O   0  0  0  0  0  0  0  0  0  0  0  0
   48.9681    9.2791   12.8923 O   0  0  0  0  0  0  0  0  0  0  0  0
   47.0172    8.3379   12.6584 N   0  0  0  0  0  0  0  0  0  0  0  0
   46.1437    9.3640   12.1910 C   0  0  0  0  0  0  0  0  0  0  0  0
   44.1646    7.4339   11.6615 S   0  0  0  0  0  0  0  0  0  0  0  0
   46.6397    6.9881   12.9223 C   0  0  0  0  0  0  0  0  0  0  0  0
   44.8371    9.0757   11.7421 C   0  0  0  0  0  0  0  0  0  0  0  0
   45.3795    6.4831   12.5421 C   0  0  0  0  0  0  0  0  0  0  0  0
   46.5229   10.7259   12.1722 C   0  0  0  0  0  0  0  0  0  0  0  0
   50.6762   10.0742   15.5767 N   0  0  0  0  0  0  0  0  0  0  0  0
   51.7221   10.8244   18.1027 N   0  0  0  0  0  0  0  0  0  0  0  0
   43.9787   10.0987   11.2901 C   0  0  0  0  0  0  0  0  0  0  0  0
   48.4551    8.6746   12.7804 C   0  0  0  0  0  0  0  0  0  0  0  0
   45.6635   11.7339   11.7223 C   0  0  0  0  0  0  0  0  0  0  0  0
   51.3474    9.4152   17.9622 C   0  0  0  0  0  0  0  0  0  0  0  0
   52.4365   11.2971   16.9023 C   0  0  0  0  0  0  0  0  0  0  0  0
   50.4546    9.1594   16.7166 C   0  0  0  0  0  0  0  0  0  0  0  0
   52.0578   10.5729   15.5811 C   0  0  0  0  0  0  0  0  0  0  0  0
   48.8069    9.1793   14.1873 C   0  0  0  0  0  0  0  0  0  0  0  0
   44.3895   11.4265   11.2783 C   0  0  0  0  0  0  0  0  0  0  0  0
   50.3051    9.4911   14.2848 C   0  0  0  0  0  0  0  0  0  0  0  0
   46.1935   13.3722   11.7227 Cl  0  0  0  0  0  0  0  0  0  0  0  0
   47.4906    6.0850   13.6008 C   0  0  0  0  0  0  0  0  0  0  0  0
   45.0152    5.1499   12.8195 C   0  0  0  0  0  0  0  0  0  0  0  0
   52.4844   11.0754   19.3183 C   0  0  0  0  0  0  0  0  0  0  0  0
   47.1238    4.7617   13.8765 C   0  0  0  0  0  0  0  0  0  0  0  0
   45.8828    4.2916   13.4838 C   0  0  0  0  0  0  0  0  0  0  0  0
   47.3223    8.8185   13.5088 C   0  0  0  0  0  0  0  0  0  0  0  0
   49.2011    9.7862   15.6369 C   0  0  0  0  0  0  0  0  0  0  0  0
   48.3084    7.9775   14.1908 C   0  0  0  0  0  0  0  0  0  0  0  0
   49.1785    8.4150   15.1104 C   0  0  0  0  0  0  0  0  0  0  0  0
   46.1481    8.5378   13.3615 O   0  0  0  0  0  0  0  0  0  0  0  0
   48.2985   10.5984   15.6563 O   0  0  0  0  0  0  0  0  0  0  0  0
   47.8885    9.8952   12.9453 O   0  0  0  0  0  0  0  0  0  0  0  0
   50.4066   10.0434   16.1693 O   0  0  0  0  0  0  0  0  0  0  0  0
   48.5894    7.8150   16.5109 H   0  0  0  0  0  0  0  0  0  0  0  0
   47.2104    7.2271   14.6027 H   0  0  0  0  0  0  0  0  0  0  0  0
   49.3830   11.4938   15.4695 H   0  0  0  0  0  0  0  0  0  0  0  0
   48.7804    9.7098   12.0333 H   0  0  0  0  0  0  0  0  0  0  0  0
   47.4965   11.0468   12.5266 H   0  0  0  0  0  0  0  0  0  0  0  0
   42.9758    9.8592   10.9408 H   0  0  0  0  0  0  0  0  0  0  0  0
   48.7510    9.4140   12.0245 H   0  0  0  0  0  0  0  0  0  0  0  0
   49.0835    7.8139   12.5165 H   0  0  0  0  0  0  0  0  0  0  0  0
   52.2516    8.7961   17.8849 H   0  0  0  0  0  0  0  0  0  0  0  0
   50.7999    9.0760   18.8499 H   0  0  0  0  0  0  0  0  0  0  0  0
   52.2182   12.3664   16.7915 H   0  0  0  0  0  0  0  0  0  0  0  0
   53.5235   11.2020   17.0257 H   0  0  0  0  0  0  0  0  0  0  0  0
   50.6087    8.1149   16.4165 H   0  0  0  0  0  0  0  0  0  0  0  0
   49.4060    9.2594   17.0213 H   0  0  0  0  0  0  0  0  0  0  0  0
   52.2111   11.2774   14.7544 H   0  0  0  0  0  0  0  0  0  0  0  0
   52.7513    9.7354   15.4235 H   0  0  0  0  0  0  0  0  0  0  0  0
   48.2284   10.0785   14.4285 H   0  0  0  0  0  0  0  0  0  0  0  0
   48.5244    8.4311   14.9352 H   0  0  0  0  0  0  0  0  0  0  0  0
   43.7161   12.2032   10.9281 H   0  0  0  0  0  0  0  0  0  0  0  0
   50.5487   10.2085   13.4908 H   0  0  0  0  0  0  0  0  0  0  0  0
   50.8914    8.5848   14.0860 H   0  0  0  0  0  0  0  0  0  0  0  0
   48.4697    6.3850   13.9586 H   0  0  0  0  0  0  0  0  0  0  0  0
   44.0411    4.7729   12.5134 H   0  0  0  0  0  0  0  0  0  0  0  0
   53.4260   10.5150   19.3392 H   0  0  0  0  0  0  0  0  0  0  0  0
   52.7152   12.1420   19.4145 H   0  0  0  0  0  0  0  0  0  0  0  0
   51.9004   10.7976   20.2024 H   0  0  0  0  0  0  0  0  0  0  0  0
   47.8125    4.1066   14.4039 H   0  0  0  0  0  0  0  0  0  0  0  0
   45.5881    3.2671   13.6928 H   0  0  0  0  0  0  0  0  0  0  0  0
   48.2811    6.9321   13.9088 H   0  0  0  0  0  0  0  0  0  0  0  0
   49.9006    7.7328   15.5443 H   0  0  0  0  0  0  0  0  0  0  0  0
   47.1345   10.3868   12.5597 H   0  0  0  0  0  0  0  0  0  0  0  0
   50.3270   10.9668   16.4888 H   0  0  0  0  0  0  0  0  0  0  0  0
  2  4  1  0
  3  1  1  0
  4  3  2  0
  5  1  2  0
  6  2  2  0
  7  1  1  0
  8  2  1  0
 10  9  1  0
 11 14  1  0
 12  9  1  0
 13 10  2  0
 14 12  2  0
 15 10  1  0
 16 27  1  0
 17 22  1  0
 18 13  1  0
 19  9  1  0
 20 15  2  0
 21 23  1  0
 22 24  1  0
 23 16  1  0
 24 16  1  0
 25 19  1  0
 26 20  1  0
 27 25  1  0
 28 20  1  0
 29 12  1  0
 30 14  1  0
 31 17  1  0
 32 29  2  0
 33 30  2  0
 11 13  1  0
 32 33  1  0
 26 18  2  0
 17 21  1  0
 35 37  1  0
 36 34  1  0
 37 36  2  0
 38 34  2  0
 39 35  2  0
 40 34  1  0
 41 35  1  0
  3 42  1  0
  4 43  1  0
  7 44  1  0
  8 45  1  0
 15 46  1  0
 18 47  1  0
 19 48  1  0
 19 49  1  0
 21 50  1  0
 21 51  1  0
 22 52  1  0
 22 53  1  0
 23 54  1  0
 23 55  1  0
 24 56  1  0
 24 57  1  0
 25 58  1  0
 25 59  1  0
 26 60  1  0
 27 61  1  0
 27 62  1  0
 29 63  1  0
 30 64  1  0
 31 65  1  0
 31 66  1  0
 31 67  1  0
 32 68  1  0
 33 69  1  0
 36 70  1  0
 37 71  1  0
 40 72  1  0
 41 73  1  0
M  END
> <Uni-Dock RESULT> 
ENERGY=   -4.647  LOWER_BOUND=    2.588  UPPER_BOUND=    4.422
INTER + INTRA:          -4.647
INTER:                  -4.647
INTRA:                   0.000
UNBOUND:                 0.000

$$$$

     RDKit          3D

 73 74  0  0  0  0  0  0  0  0999 V2000
   47.6894    7.3666   12.4718 C   0  0  0  0  0  0  0  0  0  0  0  0
   50.2810    8.6687   13.4612 C   0  0  0  0  0  0  0  0  0  0  0  0
   48.6566    6.7693   13.3970 C   0  0  0  0  0  0  0  0  0  0  0  0
   49.8089    7.3229   13.7986 C   0  0  0  0  0  0  0  0  0  0  0  0
   46.4825    7.2289   12.5490 O   0  0  0  0  0  0  0  0  0  0  0  0
   51.4448    8.9652   13.2648 O   0  0  0  0  0  0  0  0  0  0  0  0
   48.2726    7.9865   11.4358 O   0  0  0  0  0  0  0  0  0  0  0  0
   49.3083    9.5902   13.5156 O   0  0  0  0  0  0  0  0  0  0  0  0
   51.2996    8.7873   13.8850 N   0  0  0  0  0  0  0  0  0  0  0  0
   52.1171    9.2690   12.8201 C   0  0  0  0  0  0  0  0  0  0  0  0
   54.4106    8.3530   14.1703 S   0  0  0  0  0  0  0  0  0  0  0  0
   51.7378    7.9389   14.9444 C   0  0  0  0  0  0  0  0  0  0  0  0
   53.5192    9.1092   12.8331 C   0  0  0  0  0  0  0  0  0  0  0  0
   53.1035    7.6564   15.1511 C   0  0  0  0  0  0  0  0  0  0  0  0
   51.5733    9.9099   11.6831 C   0  0  0  0  0  0  0  0  0  0  0  0
   46.5366    8.1324   12.5417 N   0  0  0  0  0  0  0  0  0  0  0  0
   44.4310    6.5705   11.4626 N   0  0  0  0  0  0  0  0  0  0  0  0
   54.3173    9.5815   11.7712 C   0  0  0  0  0  0  0  0  0  0  0  0
   49.9084    9.2929   13.9543 C   0  0  0  0  0  0  0  0  0  0  0  0
   52.3737   10.3745   10.6341 C   0  0  0  0  0  0  0  0  0  0  0  0
   45.0444    6.0522   12.6879 C   0  0  0  0  0  0  0  0  0  0  0  0
   44.2175    8.0264   11.5609 C   0  0  0  0  0  0  0  0  0  0  0  0
   46.4026    6.7357   13.0072 C   0  0  0  0  0  0  0  0  0  0  0  0
   45.2196    8.7798   12.4783 C   0  0  0  0  0  0  0  0  0  0  0  0
   48.9288    8.3761   13.2075 C   0  0  0  0  0  0  0  0  0  0  0  0
   53.7476   10.2146   10.6727 C   0  0  0  0  0  0  0  0  0  0  0  0
   47.4977    8.9144   13.3237 C   0  0  0  0  0  0  0  0  0  0  0  0
   51.6439   11.1505    9.2813 Cl  0  0  0  0  0  0  0  0  0  0  0  0
   50.8335    7.3112   15.8323 C   0  0  0  0  0  0  0  0  0  0  0  0
   53.5217    6.8068   16.1953 C   0  0  0  0  0  0  0  0  0  0  0  0
   43.2029    5.8669   11.1186 C   0  0  0  0  0  0  0  0  0  0  0  0
   51.2532    6.4660   16.8672 C   0  0  0  0  0  0  0  0  0  0  0  0
   52.6015    6.2135   17.0507 C   0  0  0  0  0  0  0  0  0  0  0  0
   50.5974    8.3285   13.2988 C   0  0  0  0  0  0  0  0  0  0  0  0
   47.8776    7.4739   12.3672 C   0  0  0  0  0  0  0  0  0  0  0  0
   49.5608    7.7663   14.1674 C   0  0  0  0  0  0  0  0  0  0  0  0
   48.3305    7.4238   13.7638 C   0  0  0  0  0  0  0  0  0  0  0  0
   51.7541    7.9548   13.2605 O   0  0  0  0  0  0  0  0  0  0  0  0
   48.5517    7.4458   11.3575 O   0  0  0  0  0  0  0  0  0  0  0  0
   50.1574    9.4014   12.6261 O   0  0  0  0  0  0  0  0  0  0  0  0
   46.5361    7.5157   12.3310 O   0  0  0  0  0  0  0  0  0  0  0  0
   48.3682    5.7907   13.7636 H   0  0  0  0  0  0  0  0  0  0  0  0
   50.4896    6.7627   14.4296 H   0  0  0  0  0  0  0  0  0  0  0  0
   47.5187    8.3023   10.8969 H   0  0  0  0  0  0  0  0  0  0  0  0
   49.7671   10.4280   13.3008 H   0  0  0  0  0  0  0  0  0  0  0  0
   50.5037   10.0502   11.5706 H   0  0  0  0  0  0  0  0  0  0  0  0
   55.3983    9.4563   11.7993 H   0  0  0  0  0  0  0  0  0  0  0  0
   49.8432   10.3180   13.5665 H   0  0  0  0  0  0  0  0  0  0  0  0
   49.5893    9.4222   14.9969 H   0  0  0  0  0  0  0  0  0  0  0  0
   44.3629    6.2014   13.5366 H   0  0  0  0  0  0  0  0  0  0  0  0
   45.2179    4.9728   12.6001 H   0  0  0  0  0  0  0  0  0  0  0  0
   44.2928    8.4374   10.5467 H   0  0  0  0  0  0  0  0  0  0  0  0
   43.2072    8.2544   11.9260 H   0  0  0  0  0  0  0  0  0  0  0  0
   46.5521    6.6682   14.0925 H   0  0  0  0  0  0  0  0  0  0  0  0
   47.1995    6.1514   12.5317 H   0  0  0  0  0  0  0  0  0  0  0  0
   45.3170    9.8052   12.1010 H   0  0  0  0  0  0  0  0  0  0  0  0
   44.7944    8.8475   13.4892 H   0  0  0  0  0  0  0  0  0  0  0  0
   49.2067    8.2975   12.1502 H   0  0  0  0  0  0  0  0  0  0  0  0
   48.9868    7.3592   13.6094 H   0  0  0  0  0  0  0  0  0  0  0  0
   54.3758   10.5719    9.8622 H   0  0  0  0  0  0  0  0  0  0  0  0
   47.4986    9.9468   12.9515 H   0  0  0  0  0  0  0  0  0  0  0  0
   47.1963    8.9563   14.3782 H   0  0  0  0  0  0  0  0  0  0  0  0
   49.7608    7.4430   15.7396 H   0  0  0  0  0  0  0  0  0  0  0  0
   54.5804    6.6039   16.3460 H   0  0  0  0  0  0  0  0  0  0  0  0
   42.4379    5.9650   11.8973 H   0  0  0  0  0  0  0  0  0  0  0  0
   42.7902    6.2501   10.1789 H   0  0  0  0  0  0  0  0  0  0  0  0
   43.4010    4.8006   10.9650 H   0  0  0  0  0  0  0  0  0  0  0  0
   50.5185    6.0044   17.5222 H   0  0  0  0  0  0  0  0  0  0  0  0
   52.9377    5.5593   17.8500 H   0  0  0  0  0  0  0  0  0  0  0  0
   49.8654    7.6211   15.1967 H   0  0  0  0  0  0  0  0  0  0  0  0
   47.6091    7.0449   14.4787 H   0  0  0  0  0  0  0  0  0  0  0  0
   50.9169    9.6584   12.0640 H   0  0  0  0  0  0  0  0  0  0  0  0
   46.3306    7.5475   11.3729 H   0  0  0  0  0  0  0  0  0  0  0  0
  2  4  1  0
  3  1  1  0
  4  3  2  0
  5  1  2  0
  6  2  2  0
  7  1  1  0
  8  2  1  0
 10  9  1  0
 11 14  1  0
 12  9  1  0
 13 10  2  0
 14 12  2  0
 15 10  1  0
 16 27  1  0
 17 22  1  0
 18 13  1  0
 19  9  1  0
 20 15  2  0
 21 23  1  0
 22 24  1  0
 23 16  1  0
 24 16  1  0
 25 19  1  0
 26 20  1  0
 27 25  1  0
 28 20  1  0
 29 12  1  0
 30 14  1  0
 31 17  1  0
 32 29  2  0
 33 30  2  0
 11 13  1  0
 32 33  1  0
 26 18  2  0
 17 21  1  0
 35 37  1  0
 36 34  1  0
 37 36  2  0
 38 34  2  0
 39 35  2  0
 40 34  1  0
 41 35  1  0
  3 42  1  0
  4 43  1  0
  7 44  1  0
  8 45  1  0
 15 46  1  0
 18 47  1  0
 19 48  1  0
 19 49  1  0
 21 50  1  0
 21 51  1  0
 22 52  1  0
 22 53  1  0
 23 54  1  0
 23 55  1  0
 24 56  1  0
 24 57  1  0
 25 58  1  0
 25 59  1  0
 26 60  1  0
 27 61  1  0
 27 62  1  0
 29 63  1  0
 30 64  1  0
 31 65  1  0
 31 66  1  0
 31 67  1  0
 32 68  1  0
 33 69  1  0
 36 70  1  0
 37 71  1  0
 40 72  1  0
 41 73  1  0
M  END
> <Uni-Dock RESULT> 
ENERGY=   -4.584  LOWER_BOUND=    2.855  UPPER_BOUND=    7.136
INTER + INTRA:          -4.584
INTER:                  -4.584
INTRA:                   0.000
UNBOUND:                 0.000

$$$$

     RDKit          3D

 73 74  0  0  0  0  0  0  0  0999 V2000
   49.1402   12.9446   16.9301 C   0  0  0  0  0  0  0  0  0  0  0  0
   48.4493   13.2699   19.8979 C   0  0  0  0  0  0  0  0  0  0  0  0
   48.9811   11.8599   17.9030 C   0  0  0  0  0  0  0  0  0  0  0  0
   48.7178   12.0046   19.2089 C   0  0  0  0  0  0  0  0  0  0  0  0
   48.7891   12.8867   15.7661 O   0  0  0  0  0  0  0  0  0  0  0  0
   48.8038   13.5290   21.0329 O   0  0  0  0  0  0  0  0  0  0  0  0
   49.8381   13.9818   17.4148 O   0  0  0  0  0  0  0  0  0  0  0  0
   47.6497   14.0856   19.1953 O   0  0  0  0  0  0  0  0  0  0  0  0
   48.3487   13.0518   20.9812 N   0  0  0  0  0  0  0  0  0  0  0  0
   49.2095   13.9710   21.6510 C   0  0  0  0  0  0  0  0  0  0  0  0
   49.2616   12.2789   23.8997 S   0  0  0  0  0  0  0  0  0  0  0  0
   48.0510   11.7281   21.4207 C   0  0  0  0  0  0  0  0  0  0  0  0
   49.6963   13.7160   22.9509 C   0  0  0  0  0  0  0  0  0  0  0  0
   48.4324   11.2676   22.6975 C   0  0  0  0  0  0  0  0  0  0  0  0
   49.6437   15.1736   21.0476 C   0  0  0  0  0  0  0  0  0  0  0  0
   48.3534   13.6371   16.0237 N   0  0  0  0  0  0  0  0  0  0  0  0
   49.3927   13.1053   13.4402 N   0  0  0  0  0  0  0  0  0  0  0  0
   50.5537   14.6273   23.6007 C   0  0  0  0  0  0  0  0  0  0  0  0
   47.6234   13.5479   19.7881 C   0  0  0  0  0  0  0  0  0  0  0  0
   50.4952   16.0712   21.7004 C   0  0  0  0  0  0  0  0  0  0  0  0
   48.8456   11.9503   14.1562 C   0  0  0  0  0  0  0  0  0  0  0  0
   48.5123   14.2787   13.5917 C   0  0  0  0  0  0  0  0  0  0  0  0
   48.6443   12.2313   15.6709 C   0  0  0  0  0  0  0  0  0  0  0  0
   47.6857   14.3180   14.9064 C   0  0  0  0  0  0  0  0  0  0  0  0
   48.4015   13.2772   18.4922 C   0  0  0  0  0  0  0  0  0  0  0  0
   50.9530   15.8044   22.9787 C   0  0  0  0  0  0  0  0  0  0  0  0
   47.6097   13.7779   17.2782 C   0  0  0  0  0  0  0  0  0  0  0  0
   50.9805   17.5201   20.9067 Cl  0  0  0  0  0  0  0  0  0  0  0  0
   47.3817   10.7921   20.5984 C   0  0  0  0  0  0  0  0  0  0  0  0
   48.1416    9.9528   23.1145 C   0  0  0  0  0  0  0  0  0  0  0  0
   49.6629   12.8105   12.0396 C   0  0  0  0  0  0  0  0  0  0  0  0
   47.0967    9.4859   21.0159 C   0  0  0  0  0  0  0  0  0  0  0  0
   47.4764    9.0646   22.2783 C   0  0  0  0  0  0  0  0  0  0  0  0
   48.8471   13.0505   20.0874 C   0  0  0  0  0  0  0  0  0  0  0  0
   49.2264   13.0758   17.1124 C   0  0  0  0  0  0  0  0  0  0  0  0
   48.1209   12.1905   19.1504 C   0  0  0  0  0  0  0  0  0  0  0  0
   48.2558   12.2288   17.8183 C   0  0  0  0  0  0  0  0  0  0  0  0
   49.4109   12.6663   21.0942 O   0  0  0  0  0  0  0  0  0  0  0  0
   50.2582   13.5527   17.5400 O   0  0  0  0  0  0  0  0  0  0  0  0
   48.7175   14.3483   19.7773 O   0  0  0  0  0  0  0  0  0  0  0  0
   48.8362   13.2405   15.8382 O   0  0  0  0  0  0  0  0  0  0  0  0
   49.0943   10.8686   17.4791 H   0  0  0  0  0  0  0  0  0  0  0  0
   48.6929   11.1361   19.8573 H   0  0  0  0  0  0  0  0  0  0  0  0
   49.8905   14.6026   16.6595 H   0  0  0  0  0  0  0  0  0  0  0  0
   47.5355   14.8624   19.7803 H   0  0  0  0  0  0  0  0  0  0  0  0
   49.3461   15.4398   20.0391 H   0  0  0  0  0  0  0  0  0  0  0  0
   50.9153   14.4191   24.6062 H   0  0  0  0  0  0  0  0  0  0  0  0
   47.3987   14.6185   19.8819 H   0  0  0  0  0  0  0  0  0  0  0  0
   46.6192   13.1080   19.7282 H   0  0  0  0  0  0  0  0  0  0  0  0
   47.8807   11.6632   13.7163 H   0  0  0  0  0  0  0  0  0  0  0  0
   49.5149   11.0873   14.0553 H   0  0  0  0  0  0  0  0  0  0  0  0
   49.1476   15.1720   13.5496 H   0  0  0  0  0  0  0  0  0  0  0  0
   47.8013   14.3502   12.7579 H   0  0  0  0  0  0  0  0  0  0  0  0
   47.8443   11.5659   16.0204 H   0  0  0  0  0  0  0  0  0  0  0  0
   49.5618   11.9418   16.1971 H   0  0  0  0  0  0  0  0  0  0  0  0
   47.5007   15.3697   15.1572 H   0  0  0  0  0  0  0  0  0  0  0  0
   46.7069   13.8530   14.7249 H   0  0  0  0  0  0  0  0  0  0  0  0
   49.3796   13.7707   18.5215 H   0  0  0  0  0  0  0  0  0  0  0  0
   48.6083   12.2062   18.3963 H   0  0  0  0  0  0  0  0  0  0  0  0
   51.6147   16.4957   23.4921 H   0  0  0  0  0  0  0  0  0  0  0  0
   47.3884   14.8407   17.4399 H   0  0  0  0  0  0  0  0  0  0  0  0
   46.6453   13.2574   17.2175 H   0  0  0  0  0  0  0  0  0  0  0  0
   47.0714   11.0406   19.5891 H   0  0  0  0  0  0  0  0  0  0  0  0
   48.4367    9.6145   24.1060 H   0  0  0  0  0  0  0  0  0  0  0  0
   48.7557   12.5264   11.4942 H   0  0  0  0  0  0  0  0  0  0  0  0
   50.1070   13.6797   11.5421 H   0  0  0  0  0  0  0  0  0  0  0  0
   50.3862   11.9926   11.9515 H   0  0  0  0  0  0  0  0  0  0  0  0
   46.5822    8.8023   20.3453 H   0  0  0  0  0  0  0  0  0  0  0  0
   47.2606    8.0537   22.6119 H   0  0  0  0  0  0  0  0  0  0  0  0
   47.4518   11.4787   19.6181 H   0  0  0  0  0  0  0  0  0  0  0  0
   47.6548   11.5798   17.1918 H   0  0  0  0  0  0  0  0  0  0  0  0
   49.2679   14.8089   20.4434 H   0  0  0  0  0  0  0  0  0  0  0  0
   49.5346   13.8109   15.4535 H   0  0  0  0  0  0  0  0  0  0  0  0
  2  4  1  0
  3  1  1  0
  4  3  2  0
  5  1  2  0
  6  2  2  0
  7  1  1  0
  8  2  1  0
 10  9  1  0
 11 14  1  0
 12  9  1  0
 13 10  2  0
 14 12  2  0
 15 10  1  0
 16 27  1  0
 17 22  1  0
 18 13  1  0
 19  9  1  0
 20 15  2  0
 21 23  1  0
 22 24  1  0
 23 16  1  0
 24 16  1  0
 25 19  1  0
 26 20  1  0
 27 25  1  0
 28 20  1  0
 29 12  1  0
 30 14  1  0
 31 17  1  0
 32 29  2  0
 33 30  2  0
 11 13  1  0
 32 33  1  0
 26 18  2  0
 17 21  1  0
 35 37  1  0
 36 34  1  0
 37 36  2  0
 38 34  2  0
 39 35  2  0
 40 34  1  0
 41 35  1  0
  3 42  1  0
  4 43  1  0
  7 44  1  0
  8 45  1  0
 15 46  1  0
 18 47  1  0
 19 48  1  0
 19 49  1  0
 21 50  1  0
 21 51  1  0
 22 52  1  0
 22 53  1  0
 23 54  1  0
 23 55  1  0
 24 56  1  0
 24 57  1  0
 25 58  1  0
 25 59  1  0
 26 60  1  0
 27 61  1  0
 27 62  1  0
 29 63  1  0
 30 64  1  0
 31 65  1  0
 31 66  1  0
 31 67  1  0
 32 68  1  0
 33 69  1  0
 36 70  1  0
 37 71  1  0
 40 72  1  0
 41 73  1  0
M  END
> <Uni-Dock RESULT> 
ENERGY=   -4.451  LOWER_BOUND=    7.795  UPPER_BOUND=    9.925
INTER + INTRA:          -4.451
INTER:                  -4.451
INTRA:                   0.000
UNBOUND:                 0.000

$$$$

     RDKit          3D

 73 74  0  0  0  0  0  0  0  0999 V2000
   51.0459    8.8992   12.2263 C   0  0  0  0  0  0  0  0  0  0  0  0
   48.9279    7.6415   14.0493 C   0  0  0  0  0  0  0  0  0  0  0  0
   50.0023    7.9564   11.8139 C   0  0  0  0  0  0  0  0  0  0  0  0
   49.1011    7.3765   12.6184 C   0  0  0  0  0  0  0  0  0  0  0  0
   51.4367    9.8358   11.5544 O   0  0  0  0  0  0  0  0  0  0  0  0
   48.6237    6.8028   14.8770 O   0  0  0  0  0  0  0  0  0  0  0  0
   51.6337    8.5543   13.3811 O   0  0  0  0  0  0  0  0  0  0  0  0
   49.0114    8.9455   14.3508 O   0  0  0  0  0  0  0  0  0  0  0  0
   48.1547    6.9441   14.4325 N   0  0  0  0  0  0  0  0  0  0  0  0
   48.7174    6.3269   15.5888 C   0  0  0  0  0  0  0  0  0  0  0  0
   46.8911    4.1998   15.3385 S   0  0  0  0  0  0  0  0  0  0  0  0
   47.2355    6.3289   13.5322 C   0  0  0  0  0  0  0  0  0  0  0  0
   48.2442    5.0875   16.0703 C   0  0  0  0  0  0  0  0  0  0  0  0
   46.6282    5.0904   13.8242 C   0  0  0  0  0  0  0  0  0  0  0  0
   49.7923    6.9039   16.3034 C   0  0  0  0  0  0  0  0  0  0  0  0
   51.2153   10.2717   12.3161 N   0  0  0  0  0  0  0  0  0  0  0  0
   53.3019   10.9731   10.5296 N   0  0  0  0  0  0  0  0  0  0  0  0
   48.8133    4.4819   17.2092 C   0  0  0  0  0  0  0  0  0  0  0  0
   48.4694    8.3742   14.2060 C   0  0  0  0  0  0  0  0  0  0  0  0
   50.3505    6.2947   17.4322 C   0  0  0  0  0  0  0  0  0  0  0  0
   52.0939   10.4206    9.9118 C   0  0  0  0  0  0  0  0  0  0  0  0
   52.9523   11.9440   11.5831 C   0  0  0  0  0  0  0  0  0  0  0  0
   51.1641    9.7246   10.9437 C   0  0  0  0  0  0  0  0  0  0  0  0
   51.5912   11.6914   12.2880 C   0  0  0  0  0  0  0  0  0  0  0  0
   49.7059    8.5532   13.3132 C   0  0  0  0  0  0  0  0  0  0  0  0
   49.8643    5.0833   17.8914 C   0  0  0  0  0  0  0  0  0  0  0  0
   49.9848   10.0425   13.0778 C   0  0  0  0  0  0  0  0  0  0  0  0
   51.6559    7.0567   18.2571 Cl  0  0  0  0  0  0  0  0  0  0  0  0
   46.8977    6.9066   12.2863 C   0  0  0  0  0  0  0  0  0  0  0  0
   45.7302    4.4883   12.9197 C   0  0  0  0  0  0  0  0  0  0  0  0
   54.2124   11.5463    9.5478 C   0  0  0  0  0  0  0  0  0  0  0  0
   46.0066    6.3038   11.3896 C   0  0  0  0  0  0  0  0  0  0  0  0
   45.4196    5.0914   11.7071 C   0  0  0  0  0  0  0  0  0  0  0  0
   49.0412    7.1686   13.9733 C   0  0  0  0  0  0  0  0  0  0  0  0
   51.0489    8.7815   12.4362 C   0  0  0  0  0  0  0  0  0  0  0  0
   48.7527    7.8868   12.7299 C   0  0  0  0  0  0  0  0  0  0  0  0
   49.6347    8.6433   12.0637 C   0  0  0  0  0  0  0  0  0  0  0  0
   48.7511    6.0080   14.1924 O   0  0  0  0  0  0  0  0  0  0  0  0
   51.7304    8.0211   13.0935 O   0  0  0  0  0  0  0  0  0  0  0  0
   49.5589    7.9775   14.9086 O   0  0  0  0  0  0  0  0  0  0  0  0
   51.5489    9.9036   11.8942 O   0  0  0  0  0  0  0  0  0  0  0  0
   49.9988    7.7412   10.7514 H   0  0  0  0  0  0  0  0  0  0  0  0
   48.4171    6.6346   12.2219 H   0  0  0  0  0  0  0  0  0  0  0  0
   52.3168    9.2435   13.5114 H   0  0  0  0  0  0  0  0  0  0  0  0
   48.8492    8.9735   15.3160 H   0  0  0  0  0  0  0  0  0  0  0  0
   50.2419    7.8399   15.9901 H   0  0  0  0  0  0  0  0  0  0  0  0
   48.4325    3.5287   17.5719 H   0  0  0  0  0  0  0  0  0  0  0  0
   48.6070    8.9020   15.1589 H   0  0  0  0  0  0  0  0  0  0  0  0
   47.6087    8.9020   13.7746 H   0  0  0  0  0  0  0  0  0  0  0  0
   51.5330   11.2214    9.4109 H   0  0  0  0  0  0  0  0  0  0  0  0
   52.3611    9.6853    9.1431 H   0  0  0  0  0  0  0  0  0  0  0  0
   53.7492   11.9108   12.3362 H   0  0  0  0  0  0  0  0  0  0  0  0
   52.9280   12.9674   11.1856 H   0  0  0  0  0  0  0  0  0  0  0  0
   50.1436    9.7689   10.5420 H   0  0  0  0  0  0  0  0  0  0  0  0
   51.4466    8.6665   10.9993 H   0  0  0  0  0  0  0  0  0  0  0  0
   51.6614   12.0871   13.3087 H   0  0  0  0  0  0  0  0  0  0  0  0
   50.8111   12.2678   11.7719 H   0  0  0  0  0  0  0  0  0  0  0  0
   50.5829    8.0838   13.7733 H   0  0  0  0  0  0  0  0  0  0  0  0
   49.5562    8.0385   12.3584 H   0  0  0  0  0  0  0  0  0  0  0  0
   50.2926    4.6037   18.7665 H   0  0  0  0  0  0  0  0  0  0  0  0
   50.0831   10.5225   14.0598 H   0  0  0  0  0  0  0  0  0  0  0  0
   49.1271   10.5114   12.5785 H   0  0  0  0  0  0  0  0  0  0  0  0
   47.3325    7.8443   11.9571 H   0  0  0  0  0  0  0  0  0  0  0  0
   45.2643    3.5351   13.1628 H   0  0  0  0  0  0  0  0  0  0  0  0
   53.7564   12.3757    8.9953 H   0  0  0  0  0  0  0  0  0  0  0  0
   55.1217   11.9148   10.0354 H   0  0  0  0  0  0  0  0  0  0  0  0
   54.5276   10.7854    8.8256 H   0  0  0  0  0  0  0  0  0  0  0  0
   45.7811    6.7865   10.4419 H   0  0  0  0  0  0  0  0  0  0  0  0
   44.7273    4.6151   11.0188 H   0  0  0  0  0  0  0  0  0  0  0  0
   47.7459    7.7512   12.3544 H   0  0  0  0  0  0  0  0  0  0  0  0
   49.3311    9.1703   11.1664 H   0  0  0  0  0  0  0  0  0  0  0  0
   49.7387    7.3827   15.6654 H   0  0  0  0  0  0  0  0  0  0  0  0
   52.4822    9.9103   12.1939 H   0  0  0  0  0  0  0  0  0  0  0  0
  2  4  1  0
  3  1  1  0
  4  3  2  0
  5  1  2  0
  6  2  2  0
  7  1  1  0
  8  2  1  0
 10  9  1  0
 11 14  1  0
 12  9  1  0
 13 10  2  0
 14 12  2  0
 15 10  1  0
 16 27  1  0
 17 22  1  0
 18 13  1  0
 19  9  1  0
 20 15  2  0
 21 23  1  0
 22 24  1  0
 23 16  1  0
 24 16  1  0
 25 19  1  0
 26 20  1  0
 27 25  1  0
 28 20  1  0
 29 12  1  0
 30 14  1  0
 31 17  1  0
 32 29  2  0
 33 30  2  0
 11 13  1  0
 32 33  1  0
 26 18  2  0
 17 21  1  0
 35 37  1  0
 36 34  1  0
 37 36  2  0
 38 34  2  0
 39 35  2  0
 40 34  1  0
 41 35  1  0
  3 42  1  0
  4 43  1  0
  7 44  1  0
  8 45  1  0
 15 46  1  0
 18 47  1  0
 19 48  1  0
 19 49  1  0
 21 50  1  0
 21 51  1  0
 22 52  1  0
 22 53  1  0
 23 54  1  0
 23 55  1  0
 24 56  1  0
 24 57  1  0
 25 58  1  0
 25 59  1  0
 26 60  1  0
 27 61  1  0
 27 62  1  0
 29 63  1  0
 30 64  1  0
 31 65  1  0
 31 66  1  0
 31 67  1  0
 32 68  1  0
 33 69  1  0
 36 70  1  0
 37 71  1  0
 40 72  1  0
 41 73  1  0
M  END
> <Uni-Dock RESULT> 
ENERGY=   -4.422  LOWER_BOUND=    2.750  UPPER_BOUND=    3.876
INTER + INTRA:          -4.422
INTER:                  -4.422
INTRA:                   0.000
UNBOUND:                 0.000

$$$$
