
     RDKit          3D

 73 74  0  0  0  0  0  0  0  0999 V2000
   49.1207    8.0236   14.8125 C   0  0  0  0  0  0  0  0  0  0  0  0
   46.5386    7.9410   13.1694 C   0  0  0  0  0  0  0  0  0  0  0  0
   48.6013    6.8638   14.0826 C   0  0  0  0  0  0  0  0  0  0  0  0
   47.4513    6.8171   13.3962 C   0  0  0  0  0  0  0  0  0  0  0  0
   50.2987    8.3167   14.8985 O   0  0  0  0  0  0  0  0  0  0  0  0
   45.3257    7.8498   13.1253 O   0  0  0  0  0  0  0  0  0  0  0  0
   48.1705    8.6745   15.4989 O   0  0  0  0  0  0  0  0  0  0  0  0
   47.1800    9.0825   12.8810 O   0  0  0  0  0  0  0  0  0  0  0  0
   46.0309    8.0317   12.8308 N   0  0  0  0  0  0  0  0  0  0  0  0
   45.1882    8.8811   12.0549 C   0  0  0  0  0  0  0  0  0  0  0  0
   43.5023    6.6971   11.4969 S   0  0  0  0  0  0  0  0  0  0  0  0
   45.9496    6.6078   12.8819 C   0  0  0  0  0  0  0  0  0  0  0  0
   44.0415    8.3864   11.3979 C   0  0  0  0  0  0  0  0  0  0  0  0
   44.8756    5.9054   12.2983 C   0  0  0  0  0  0  0  0  0  0  0  0
   45.4635   10.2565   11.8773 C   0  0  0  0  0  0  0  0  0  0  0  0
   50.1701    9.0677   14.9102 N   0  0  0  0  0  0  0  0  0  0  0  0
   51.2715    7.0496   16.7479 N   0  0  0  0  0  0  0  0  0  0  0  0
   43.2198    9.2341   10.6269 C   0  0  0  0  0  0  0  0  0  0  0  0
   47.0077    8.6826   13.7393 C   0  0  0  0  0  0  0  0  0  0  0  0
   44.6431   11.0891   11.1088 C   0  0  0  0  0  0  0  0  0  0  0  0
   50.4206    8.1617   17.2179 C   0  0  0  0  0  0  0  0  0  0  0  0
   51.9877    7.4659   15.5249 C   0  0  0  0  0  0  0  0  0  0  0  0
   49.4485    8.6485   16.1166 C   0  0  0  0  0  0  0  0  0  0  0  0
   51.0256    7.9735   14.4236 C   0  0  0  0  0  0  0  0  0  0  0  0
   48.3671    8.8759   13.0546 C   0  0  0  0  0  0  0  0  0  0  0  0
   43.5178   10.5840   10.4820 C   0  0  0  0  0  0  0  0  0  0  0  0
   49.3636    9.7095   13.8731 C   0  0  0  0  0  0  0  0  0  0  0  0
   45.0399   12.7560   10.9370 Cl  0  0  0  0  0  0  0  0  0  0  0  0
   46.9476    5.8157   13.4966 C   0  0  0  0  0  0  0  0  0  0  0  0
   44.8141    4.4979   12.3465 C   0  0  0  0  0  0  0  0  0  0  0  0
   52.2168    6.6483   17.7875 C   0  0  0  0  0  0  0  0  0  0  0  0
   46.8833    4.4174   13.5408 C   0  0  0  0  0  0  0  0  0  0  0  0
   45.8130    3.7558   12.9650 C   0  0  0  0  0  0  0  0  0  0  0  0
   46.9578    8.1416   12.5429 C   0  0  0  0  0  0  0  0  0  0  0  0
   48.4760    7.2405   14.9660 C   0  0  0  0  0  0  0  0  0  0  0  0
   47.3222    9.0109   13.6633 C   0  0  0  0  0  0  0  0  0  0  0  0
   48.0373    8.6219   14.7275 C   0  0  0  0  0  0  0  0  0  0  0  0
   45.8416    8.0404   12.0717 O   0  0  0  0  0  0  0  0  0  0  0  0
   48.0217    6.2156   14.4994 O   0  0  0  0  0  0  0  0  0  0  0  0
   48.0328    7.5508   12.0020 O   0  0  0  0  0  0  0  0  0  0  0  0
   49.4823    7.2359   15.8551 O   0  0  0  0  0  0  0  0  0  0  0  0
   49.2415    5.9902   14.1296 H   0  0  0  0  0  0  0  0  0  0  0  0
   47.1223    5.8853   12.9506 H   0  0  0  0  0  0  0  0  0  0  0  0
   48.6587    9.3914   15.9532 H   0  0  0  0  0  0  0  0  0  0  0  0
   46.4570    9.7246   12.7262 H   0  0  0  0  0  0  0  0  0  0  0  0
   46.3388   10.7191   12.3192 H   0  0  0  0  0  0  0  0  0  0  0  0
   42.3340    8.8385   10.1326 H   0  0  0  0  0  0  0  0  0  0  0  0
   46.6237    9.6451   14.1010 H   0  0  0  0  0  0  0  0  0  0  0  0
   47.0975    8.1120   14.6669 H   0  0  0  0  0  0  0  0  0  0  0  0
   49.8257    7.8273   18.0765 H   0  0  0  0  0  0  0  0  0  0  0  0
   51.0367    9.0068   17.5540 H   0  0  0  0  0  0  0  0  0  0  0  0
   52.5492    6.6136   15.1235 H   0  0  0  0  0  0  0  0  0  0  0  0
   52.7141    8.2576   15.7550 H   0  0  0  0  0  0  0  0  0  0  0  0
   48.7557    7.8306   15.8946 H   0  0  0  0  0  0  0  0  0  0  0  0
   48.8651    9.4861   16.5160 H   0  0  0  0  0  0  0  0  0  0  0  0
   51.6295    8.3206   13.5769 H   0  0  0  0  0  0  0  0  0  0  0  0
   50.4190    7.1292   14.0738 H   0  0  0  0  0  0  0  0  0  0  0  0
   48.8055    7.9168   12.7633 H   0  0  0  0  0  0  0  0  0  0  0  0
   48.2125    9.4013   12.1036 H   0  0  0  0  0  0  0  0  0  0  0  0
   42.8753   11.2233    9.8838 H   0  0  0  0  0  0  0  0  0  0  0  0
   48.8446   10.5738   14.3074 H   0  0  0  0  0  0  0  0  0  0  0  0
   50.0718   10.1512   13.1589 H   0  0  0  0  0  0  0  0  0  0  0  0
   47.8263    6.2580   13.9546 H   0  0  0  0  0  0  0  0  0  0  0  0
   43.9748    3.9702   11.8979 H   0  0  0  0  0  0  0  0  0  0  0  0
   51.6821    6.3157   18.6840 H   0  0  0  0  0  0  0  0  0  0  0  0
   52.8933    7.4621   18.0726 H   0  0  0  0  0  0  0  0  0  0  0  0
   52.8218    5.8001   17.4487 H   0  0  0  0  0  0  0  0  0  0  0  0
   47.6775    3.8542   14.0249 H   0  0  0  0  0  0  0  0  0  0  0  0
   45.7534    2.6717   12.9942 H   0  0  0  0  0  0  0  0  0  0  0  0
   46.9493   10.0250   13.5877 H   0  0  0  0  0  0  0  0  0  0  0  0
   48.2916    9.3369   15.5014 H   0  0  0  0  0  0  0  0  0  0  0  0
   47.6616    6.9768   11.3009 H   0  0  0  0  0  0  0  0  0  0  0  0
   49.7018    6.2854   15.9504 H   0  0  0  0  0  0  0  0  0  0  0  0
  2  4  1  0
  3  1  1  0
  4  3  2  0
  5  1  2  0
  6  2  2  0
  7  1  1  0
  8  2  1  0
 10  9  1  0
 11 14  1  0
 12  9  1  0
 13 10  2  0
 14 12  2  0
 15 10  1  0
 16 27  1  0
 17 22  1  0
 18 13  1  0
 19  9  1  0
 20 15  2  0
 21 23  1  0
 22 24  1  0
 23 16  1  0
 24 16  1  0
 25 19  1  0
 26 20  1  0
 27 25  1  0
 28 20  1  0
 29 12  1  0
 30 14  1  0
 31 17  1  0
 32 29  2  0
 33 30  2  0
 11 13  1  0
 32 33  1  0
 26 18  2  0
 17 21  1  0
 35 37  1  0
 36 34  1  0
 37 36  2  0
 38 34  2  0
 39 35  2  0
 40 34  1  0
 41 35  1  0
  3 42  1  0
  4 43  1  0
  7 44  1  0
  8 45  1  0
 15 46  1  0
 18 47  1  0
 19 48  1  0
 19 49  1  0
 21 50  1  0
 21 51  1  0
 22 52  1  0
 22 53  1  0
 23 54  1  0
 23 55  1  0
 24 56  1  0
 24 57  1  0
 25 58  1  0
 25 59  1  0
 26 60  1  0
 27 61  1  0
 27 62  1  0
 29 63  1  0
 30 64  1  0
 31 65  1  0
 31 66  1  0
 31 67  1  0
 32 68  1  0
 33 69  1  0
 36 70  1  0
 37 71  1  0
 40 72  1  0
 41 73  1  0
M  END
> <Uni-Dock RESULT> 
ENERGY=   -6.201  LOWER_BOUND=    0.000  UPPER_BOUND=    0.000
INTER + INTRA:          -6.201
INTER:                  -6.201
INTRA:                   0.000
UNBOUND:                 0.000

$$$$

     RDKit          3D

 73 74  0  0  0  0  0  0  0  0999 V2000
   49.3315    8.6050   12.8185 C   0  0  0  0  0  0  0  0  0  0  0  0
   46.3886    8.1560   12.1027 C   0  0  0  0  0  0  0  0  0  0  0  0
   48.2624    9.6038   12.9041 C   0  0  0  0  0  0  0  0  0  0  0  0
   46.9825    9.4177   12.5534 C   0  0  0  0  0  0  0  0  0  0  0  0
   50.2436    8.4970   13.6168 O   0  0  0  0  0  0  0  0  0  0  0  0
   45.5166    8.0639   11.2587 O   0  0  0  0  0  0  0  0  0  0  0  0
   49.2839    7.8878   11.6866 O   0  0  0  0  0  0  0  0  0  0  0  0
   46.8113    7.0993   12.8115 O   0  0  0  0  0  0  0  0  0  0  0  0
   45.8170    7.9610   11.9773 N   0  0  0  0  0  0  0  0  0  0  0  0
   44.8329    6.9293   11.9469 C   0  0  0  0  0  0  0  0  0  0  0  0
   42.9205    8.7815   11.0326 S   0  0  0  0  0  0  0  0  0  0  0  0
   45.5587    9.3562   11.8238 C   0  0  0  0  0  0  0  0  0  0  0  0
   43.5009    7.1877   11.5593 C   0  0  0  0  0  0  0  0  0  0  0  0
   44.2936    9.8366   11.4287 C   0  0  0  0  0  0  0  0  0  0  0  0
   45.1248    5.5987   12.3255 C   0  0  0  0  0  0  0  0  0  0  0  0
   50.2907    7.7396   13.5478 N   0  0  0  0  0  0  0  0  0  0  0  0
   52.0116   10.0582   12.9773 N   0  0  0  0  0  0  0  0  0  0  0  0
   42.5343    6.1612   11.5405 C   0  0  0  0  0  0  0  0  0  0  0  0
   47.2390    7.5470   12.0747 C   0  0  0  0  0  0  0  0  0  0  0  0
   44.1584    4.5875   12.3053 C   0  0  0  0  0  0  0  0  0  0  0  0
   51.9548    8.8814   12.0863 C   0  0  0  0  0  0  0  0  0  0  0  0
   51.6965    9.6404   14.3587 C   0  0  0  0  0  0  0  0  0  0  0  0
   50.5897    8.1578   12.1740 C   0  0  0  0  0  0  0  0  0  0  0  0
   50.3417    8.8979   14.4542 C   0  0  0  0  0  0  0  0  0  0  0  0
   47.7081    7.4930   13.5345 C   0  0  0  0  0  0  0  0  0  0  0  0
   42.8607    4.8621   11.9117 C   0  0  0  0  0  0  0  0  0  0  0  0
   49.1101    6.8936   13.7162 C   0  0  0  0  0  0  0  0  0  0  0  0
   44.5861    2.9882   12.7795 Cl  0  0  0  0  0  0  0  0  0  0  0  0
   46.5430   10.3393   12.0800 C   0  0  0  0  0  0  0  0  0  0  0  0
   44.0495   11.2182   11.2921 C   0  0  0  0  0  0  0  0  0  0  0  0
   53.3289   10.6879   12.9168 C   0  0  0  0  0  0  0  0  0  0  0  0
   46.2957   11.7112   11.9446 C   0  0  0  0  0  0  0  0  0  0  0  0
   45.0455   12.1526   11.5485 C   0  0  0  0  0  0  0  0  0  0  0  0
   46.2607    7.9622   12.8474 C   0  0  0  0  0  0  0  0  0  0  0  0
   48.8706    9.2958   12.2161 C   0  0  0  0  0  0  0  0  0  0  0  0
   47.4540    7.2628   12.3670 C   0  0  0  0  0  0  0  0  0  0  0  0
   48.6342    7.8489   12.1247 C   0  0  0  0  0  0  0  0  0  0  0  0
   45.1481    7.8547   12.3692 O   0  0  0  0  0  0  0  0  0  0  0  0
   48.0563   10.1956   12.1712 O   0  0  0  0  0  0  0  0  0  0  0  0
   46.5071    8.6519   13.9703 O   0  0  0  0  0  0  0  0  0  0  0  0
   50.1887    9.5299   12.3207 O   0  0  0  0  0  0  0  0  0  0  0  0
   48.5847   10.5623   13.2945 H   0  0  0  0  0  0  0  0  0  0  0  0
   46.2841   10.2461   12.5877 H   0  0  0  0  0  0  0  0  0  0  0  0
   50.0606    7.2953   11.7515 H   0  0  0  0  0  0  0  0  0  0  0  0
   46.3168    6.3466   12.4268 H   0  0  0  0  0  0  0  0  0  0  0  0
   46.1133    5.3122   12.6664 H   0  0  0  0  0  0  0  0  0  0  0  0
   41.5125    6.3753   11.2314 H   0  0  0  0  0  0  0  0  0  0  0  0
   47.3975    6.5761   11.5879 H   0  0  0  0  0  0  0  0  0  0  0  0
   47.8657    8.2077   11.4707 H   0  0  0  0  0  0  0  0  0  0  0  0
   52.1062    9.2026   11.0486 H   0  0  0  0  0  0  0  0  0  0  0  0
   52.7559    8.1704   12.3305 H   0  0  0  0  0  0  0  0  0  0  0  0
   51.6490   10.5253   15.0050 H   0  0  0  0  0  0  0  0  0  0  0  0
   52.4881    8.9885   14.7535 H   0  0  0  0  0  0  0  0  0  0  0  0
   49.8225    8.8412   11.7965 H   0  0  0  0  0  0  0  0  0  0  0  0
   50.6185    7.2841   11.5126 H   0  0  0  0  0  0  0  0  0  0  0  0
   50.2070    8.5665   15.4907 H   0  0  0  0  0  0  0  0  0  0  0  0
   49.5375    9.6081   14.2264 H   0  0  0  0  0  0  0  0  0  0  0  0
   47.6373    8.4750   14.0114 H   0  0  0  0  0  0  0  0  0  0  0  0
   47.0129    6.8651   14.1063 H   0  0  0  0  0  0  0  0  0  0  0  0
   42.1044    4.0830   11.8929 H   0  0  0  0  0  0  0  0  0  0  0  0
   49.2120    6.0062   13.0780 H   0  0  0  0  0  0  0  0  0  0  0  0
   49.1568    6.4966   14.7395 H   0  0  0  0  0  0  0  0  0  0  0  0
   47.5420   10.0749   12.4112 H   0  0  0  0  0  0  0  0  0  0  0  0
   43.0697   11.5734   10.9790 H   0  0  0  0  0  0  0  0  0  0  0  0
   53.5486   11.0197   11.8961 H   0  0  0  0  0  0  0  0  0  0  0  0
   54.1293   10.0120   13.2385 H   0  0  0  0  0  0  0  0  0  0  0  0
   53.3562   11.5808   13.5511 H   0  0  0  0  0  0  0  0  0  0  0  0
   47.0867   12.4270   12.1549 H   0  0  0  0  0  0  0  0  0  0  0  0
   44.8435   13.2142   11.4399 H   0  0  0  0  0  0  0  0  0  0  0  0
   47.3168    6.2024   12.1943 H   0  0  0  0  0  0  0  0  0  0  0  0
   49.4794    7.2534   11.7996 H   0  0  0  0  0  0  0  0  0  0  0  0
   45.6579    9.0981   14.1668 H   0  0  0  0  0  0  0  0  0  0  0  0
   50.2462   10.5070   12.3723 H   0  0  0  0  0  0  0  0  0  0  0  0
  2  4  1  0
  3  1  1  0
  4  3  2  0
  5  1  2  0
  6  2  2  0
  7  1  1  0
  8  2  1  0
 10  9  1  0
 11 14  1  0
 12  9  1  0
 13 10  2  0
 14 12  2  0
 15 10  1  0
 16 27  1  0
 17 22  1  0
 18 13  1  0
 19  9  1  0
 20 15  2  0
 21 23  1  0
 22 24  1  0
 23 16  1  0
 24 16  1  0
 25 19  1  0
 26 20  1  0
 27 25  1  0
 28 20  1  0
 29 12  1  0
 30 14  1  0
 31 17  1  0
 32 29  2  0
 33 30  2  0
 11 13  1  0
 32 33  1  0
 26 18  2  0
 17 21  1  0
 35 37  1  0
 36 34  1  0
 37 36  2  0
 38 34  2  0
 39 35  2  0
 40 34  1  0
 41 35  1  0
  3 42  1  0
  4 43  1  0
  7 44  1  0
  8 45  1  0
 15 46  1  0
 18 47  1  0
 19 48  1  0
 19 49  1  0
 21 50  1  0
 21 51  1  0
 22 52  1  0
 22 53  1  0
 23 54  1  0
 23 55  1  0
 24 56  1  0
 24 57  1  0
 25 58  1  0
 25 59  1  0
 26 60  1  0
 27 61  1  0
 27 62  1  0
 29 63  1  0
 30 64  1  0
 31 65  1  0
 31 66  1  0
 31 67  1  0
 32 68  1  0
 33 69  1  0
 36 70  1  0
 37 71  1  0
 40 72  1  0
 41 73  1  0
M  END
> <Uni-Dock RESULT> 
ENERGY=   -5.470  LOWER_BOUND=    2.317  UPPER_BOUND=    4.144
INTER + INTRA:          -5.470
INTER:                  -5.470
INTRA:                   0.000
UNBOUND:                 0.000

$$$$

     RDKit          3D

 73 74  0  0  0  0  0  0  0  0999 V2000
   48.5707   10.2824   12.5393 C   0  0  0  0  0  0  0  0  0  0  0  0
   46.2881    8.2699   12.2013 C   0  0  0  0  0  0  0  0  0  0  0  0
   47.1432   10.6047   12.4604 C   0  0  0  0  0  0  0  0  0  0  0  0
   46.1481    9.7270   12.2731 C   0  0  0  0  0  0  0  0  0  0  0  0
   49.3694   10.8488   13.2620 O   0  0  0  0  0  0  0  0  0  0  0  0
   45.6264    7.5455   11.4811 O   0  0  0  0  0  0  0  0  0  0  0  0
   48.9498    9.3731   11.6298 O   0  0  0  0  0  0  0  0  0  0  0  0
   47.1413    7.7835   13.1141 O   0  0  0  0  0  0  0  0  0  0  0  0
   45.8977    7.7930   12.1756 N   0  0  0  0  0  0  0  0  0  0  0  0
   45.5623    6.4417   12.4840 C   0  0  0  0  0  0  0  0  0  0  0  0
   43.0354    6.7988   11.2964 S   0  0  0  0  0  0  0  0  0  0  0  0
   44.9874    8.7842   11.7008 C   0  0  0  0  0  0  0  0  0  0  0  0
   44.3026    5.8978   12.1545 C   0  0  0  0  0  0  0  0  0  0  0  0
   43.6754    8.4558   11.3033 C   0  0  0  0  0  0  0  0  0  0  0  0
   46.4571    5.5784   13.1572 C   0  0  0  0  0  0  0  0  0  0  0  0
   49.7915   10.2255   13.3804 N   0  0  0  0  0  0  0  0  0  0  0  0
   50.1563   12.8559   12.1110 N   0  0  0  0  0  0  0  0  0  0  0  0
   43.9791    4.5623   12.4714 C   0  0  0  0  0  0  0  0  0  0  0  0
   47.3290    8.1778   12.2565 C   0  0  0  0  0  0  0  0  0  0  0  0
   46.1262    4.2554   13.4689 C   0  0  0  0  0  0  0  0  0  0  0  0
   50.7431   11.6222   11.5493 C   0  0  0  0  0  0  0  0  0  0  0  0
   50.0153   12.7074   13.5740 C   0  0  0  0  0  0  0  0  0  0  0  0
   49.9179   10.3684   11.9260 C   0  0  0  0  0  0  0  0  0  0  0  0
   49.2081   11.4450   13.9621 C   0  0  0  0  0  0  0  0  0  0  0  0
   47.6808    8.7395   13.6403 C   0  0  0  0  0  0  0  0  0  0  0  0
   44.8884    3.7404   13.1268 C   0  0  0  0  0  0  0  0  0  0  0  0
   49.1824    8.9821   13.8503 C   0  0  0  0  0  0  0  0  0  0  0  0
   47.2671    3.2607   14.2902 Cl  0  0  0  0  0  0  0  0  0  0  0  0
   45.3347   10.1533   11.6224 C   0  0  0  0  0  0  0  0  0  0  0  0
   42.7831    9.4472   10.8469 C   0  0  0  0  0  0  0  0  0  0  0  0
   50.9854   14.0150   11.7880 C   0  0  0  0  0  0  0  0  0  0  0  0
   44.4445   11.1352   11.1700 C   0  0  0  0  0  0  0  0  0  0  0  0
   43.1648   10.7816   10.7799 C   0  0  0  0  0  0  0  0  0  0  0  0
   46.2328    8.2367   12.9787 C   0  0  0  0  0  0  0  0  0  0  0  0
   47.8611   10.4734   11.8235 C   0  0  0  0  0  0  0  0  0  0  0  0
   47.6405    8.1233   12.5919 C   0  0  0  0  0  0  0  0  0  0  0  0
   48.3827    9.1317   12.1154 C   0  0  0  0  0  0  0  0  0  0  0  0
   45.3504    7.4743   12.6350 O   0  0  0  0  0  0  0  0  0  0  0  0
   46.7106   10.8061   11.6224 O   0  0  0  0  0  0  0  0  0  0  0  0
   46.0399    9.2192   13.8701 O   0  0  0  0  0  0  0  0  0  0  0  0
   48.8789   11.3469   11.7583 O   0  0  0  0  0  0  0  0  0  0  0  0
   46.9226   11.6602   12.5718 H   0  0  0  0  0  0  0  0  0  0  0  0
   45.1291   10.0780   12.1568 H   0  0  0  0  0  0  0  0  0  0  0  0
   49.9135    9.2821   11.7766 H   0  0  0  0  0  0  0  0  0  0  0  0
   47.1100    6.8151   12.9710 H   0  0  0  0  0  0  0  0  0  0  0  0
   47.4362    5.9171   13.4767 H   0  0  0  0  0  0  0  0  0  0  0  0
   43.0055    4.1552   12.2033 H   0  0  0  0  0  0  0  0  0  0  0  0
   47.9771    7.3253   12.0159 H   0  0  0  0  0  0  0  0  0  0  0  0
   47.5754    8.8817   11.4577 H   0  0  0  0  0  0  0  0  0  0  0  0
   50.7715   11.6977   10.4555 H   0  0  0  0  0  0  0  0  0  0  0  0
   51.7770   11.4909   11.8967 H   0  0  0  0  0  0  0  0  0  0  0  0
   49.4973   13.5843   13.9809 H   0  0  0  0  0  0  0  0  0  0  0  0
   51.0032   12.6590   14.0527 H   0  0  0  0  0  0  0  0  0  0  0  0
   48.9344   10.4594   11.4541 H   0  0  0  0  0  0  0  0  0  0  0  0
   50.4149    9.4876   11.5033 H   0  0  0  0  0  0  0  0  0  0  0  0
   49.1992   11.3690   15.0559 H   0  0  0  0  0  0  0  0  0  0  0  0
   48.1709   11.5784   13.6310 H   0  0  0  0  0  0  0  0  0  0  0  0
   47.1037    9.6421   13.8615 H   0  0  0  0  0  0  0  0  0  0  0  0
   47.3606    8.0208   14.4054 H   0  0  0  0  0  0  0  0  0  0  0  0
   44.6234    2.7145   13.3647 H   0  0  0  0  0  0  0  0  0  0  0  0
   49.7483    8.1321   13.4474 H   0  0  0  0  0  0  0  0  0  0  0  0
   49.3640    8.9380   14.9329 H   0  0  0  0  0  0  0  0  0  0  0  0
   46.3124   10.5130   11.9263 H   0  0  0  0  0  0  0  0  0  0  0  0
   41.7757    9.1770   10.5364 H   0  0  0  0  0  0  0  0  0  0  0  0
   51.0667   14.1374   10.7023 H   0  0  0  0  0  0  0  0  0  0  0  0
   51.9970   13.9323   12.2015 H   0  0  0  0  0  0  0  0  0  0  0  0
   50.5288   14.9326   12.1752 H   0  0  0  0  0  0  0  0  0  0  0  0
   44.7604   12.1749   11.1297 H   0  0  0  0  0  0  0  0  0  0  0  0
   42.4669   11.5353   10.4270 H   0  0  0  0  0  0  0  0  0  0  0  0
   48.0599    7.1306   12.7008 H   0  0  0  0  0  0  0  0  0  0  0  0
   49.4289    8.9720   11.8810 H   0  0  0  0  0  0  0  0  0  0  0  0
   45.0720    9.2200   14.0180 H   0  0  0  0  0  0  0  0  0  0  0  0
   48.4388   12.1999   11.5598 H   0  0  0  0  0  0  0  0  0  0  0  0
  2  4  1  0
  3  1  1  0
  4  3  2  0
  5  1  2  0
  6  2  2  0
  7  1  1  0
  8  2  1  0
 10  9  1  0
 11 14  1  0
 12  9  1  0
 13 10  2  0
 14 12  2  0
 15 10  1  0
 16 27  1  0
 17 22  1  0
 18 13  1  0
 19  9  1  0
 20 15  2  0
 21 23  1  0
 22 24  1  0
 23 16  1  0
 24 16  1  0
 25 19  1  0
 26 20  1  0
 27 25  1  0
 28 20  1  0
 29 12  1  0
 30 14  1  0
 31 17  1  0
 32 29  2  0
 33 30  2  0
 11 13  1  0
 32 33  1  0
 26 18  2  0
 17 21  1  0
 35 37  1  0
 36 34  1  0
 37 36  2  0
 38 34  2  0
 39 35  2  0
 40 34  1  0
 41 35  1  0
  3 42  1  0
  4 43  1  0
  7 44  1  0
  8 45  1  0
 15 46  1  0
 18 47  1  0
 19 48  1  0
 19 49  1  0
 21 50  1  0
 21 51  1  0
 22 52  1  0
 22 53  1  0
 23 54  1  0
 23 55  1  0
 24 56  1  0
 24 57  1  0
 25 58  1  0
 25 59  1  0
 26 60  1  0
 27 61  1  0
 27 62  1  0
 29 63  1  0
 30 64  1  0
 31 65  1  0
 31 66  1  0
 31 67  1  0
 32 68  1  0
 33 69  1  0
 36 70  1  0
 37 71  1  0
 40 72  1  0
 41 73  1  0
M  END
> <Uni-Dock RESULT> 
ENERGY=   -5.167  LOWER_BOUND=    2.534  UPPER_BOUND=    4.741
INTER + INTRA:          -5.167
INTER:                  -5.167
INTRA:                   0.000
UNBOUND:                 0.000

$$$$

     RDKit          3D

 73 74  0  0  0  0  0  0  0  0999 V2000
   42.1717   12.4252   10.8689 C   0  0  0  0  0  0  0  0  0  0  0  0
   44.3232   10.3854   11.6333 C   0  0  0  0  0  0  0  0  0  0  0  0
   43.6182   12.5992   10.7107 C   0  0  0  0  0  0  0  0  0  0  0  0
   44.5610   11.7222   11.0817 C   0  0  0  0  0  0  0  0  0  0  0  0
   41.3362   12.8195   10.0767 O   0  0  0  0  0  0  0  0  0  0  0  0
   45.0111    9.8561   12.4865 O   0  0  0  0  0  0  0  0  0  0  0  0
   41.8381   11.8938   12.0539 O   0  0  0  0  0  0  0  0  0  0  0  0
   43.3332    9.7327   11.0075 O   0  0  0  0  0  0  0  0  0  0  0  0
   44.6776    9.9012   11.7767 N   0  0  0  0  0  0  0  0  0  0  0  0
   44.8728    8.4934   11.8931 C   0  0  0  0  0  0  0  0  0  0  0  0
   47.5433    8.9288   12.6692 S   0  0  0  0  0  0  0  0  0  0  0  0
   45.7090   10.8865   11.8214 C   0  0  0  0  0  0  0  0  0  0  0  0
   46.1192    7.9471   12.2663 C   0  0  0  0  0  0  0  0  0  0  0  0
   47.0314   10.5591   12.1842 C   0  0  0  0  0  0  0  0  0  0  0  0
   43.8424    7.5648   11.6187 C   0  0  0  0  0  0  0  0  0  0  0  0
   40.8581   12.2402   10.2048 N   0  0  0  0  0  0  0  0  0  0  0  0
   40.8435   15.1591   10.5823 N   0  0  0  0  0  0  0  0  0  0  0  0
   46.3028    6.5529   12.3708 C   0  0  0  0  0  0  0  0  0  0  0  0
   43.2793   10.3940   11.7046 C   0  0  0  0  0  0  0  0  0  0  0  0
   44.0348    6.1832   11.7234 C   0  0  0  0  0  0  0  0  0  0  0  0
   40.2387   14.2351   11.5633 C   0  0  0  0  0  0  0  0  0  0  0  0
   40.7967   14.5449    9.2397 C   0  0  0  0  0  0  0  0  0  0  0  0
   40.9178   12.8448   11.5399 C   0  0  0  0  0  0  0  0  0  0  0  0
   41.4561   13.1448    9.2099 C   0  0  0  0  0  0  0  0  0  0  0  0
   42.8067   10.5279   10.2510 C   0  0  0  0  0  0  0  0  0  0  0  0
   45.2632    5.6705   12.1011 C   0  0  0  0  0  0  0  0  0  0  0  0
   41.3128   10.8538   10.1096 C   0  0  0  0  0  0  0  0  0  0  0  0
   42.7334    5.1110   11.3741 Cl  0  0  0  0  0  0  0  0  0  0  0  0
   45.4758   12.2402   11.4835 C   0  0  0  0  0  0  0  0  0  0  0  0
   48.0427   11.5407   12.2132 C   0  0  0  0  0  0  0  0  0  0  0  0
   40.1471   16.4438   10.5861 C   0  0  0  0  0  0  0  0  0  0  0  0
   46.4839   13.2119   11.5120 C   0  0  0  0  0  0  0  0  0  0  0  0
   47.7715   12.8619   11.8789 C   0  0  0  0  0  0  0  0  0  0  0  0
   44.2824   10.1042   10.9068 C   0  0  0  0  0  0  0  0  0  0  0  0
   42.9742   12.7530   11.4176 C   0  0  0  0  0  0  0  0  0  0  0  0
   42.9267   10.2711   11.4343 C   0  0  0  0  0  0  0  0  0  0  0  0
   42.3235   11.4523   11.6236 C   0  0  0  0  0  0  0  0  0  0  0  0
   45.1408    9.3971   11.3979 O   0  0  0  0  0  0  0  0  0  0  0  0
   44.1619   13.0052   11.3960 O   0  0  0  0  0  0  0  0  0  0  0  0
   44.4392   10.7306    9.7319 O   0  0  0  0  0  0  0  0  0  0  0  0
   42.0389   13.7078   11.2880 O   0  0  0  0  0  0  0  0  0  0  0  0
   43.9013   13.5361   10.2445 H   0  0  0  0  0  0  0  0  0  0  0  0
   45.6098   11.9793   10.9861 H   0  0  0  0  0  0  0  0  0  0  0  0
   40.8597   11.8664   12.0316 H   0  0  0  0  0  0  0  0  0  0  0  0
   43.3098    8.8607   11.4528 H   0  0  0  0  0  0  0  0  0  0  0  0
   42.8598    7.8903   11.2962 H   0  0  0  0  0  0  0  0  0  0  0  0
   47.2687    6.1473   12.6675 H   0  0  0  0  0  0  0  0  0  0  0  0
   42.6035    9.7355   12.2653 H   0  0  0  0  0  0  0  0  0  0  0  0
   43.1832   11.3352   12.2514 H   0  0  0  0  0  0  0  0  0  0  0  0
   40.3472   14.6525   12.5717 H   0  0  0  0  0  0  0  0  0  0  0  0
   39.1638   14.1144   11.3714 H   0  0  0  0  0  0  0  0  0  0  0  0
   41.3256   15.1883    8.5261 H   0  0  0  0  0  0  0  0  0  0  0  0
   39.7578   14.4562    8.8931 H   0  0  0  0  0  0  0  0  0  0  0  0
   41.9548   12.9721   11.8666 H   0  0  0  0  0  0  0  0  0  0  0  0
   40.4113   12.2004   12.2677 H   0  0  0  0  0  0  0  0  0  0  0  0
   41.3282   12.7291    8.2034 H   0  0  0  0  0  0  0  0  0  0  0  0
   42.5325   13.2620    9.3855 H   0  0  0  0  0  0  0  0  0  0  0  0
   43.4183   11.2475    9.6988 H   0  0  0  0  0  0  0  0  0  0  0  0
   42.9788    9.5754    9.7340 H   0  0  0  0  0  0  0  0  0  0  0  0
   45.4212    4.5994   12.1851 H   0  0  0  0  0  0  0  0  0  0  0  0
   40.7380   10.2397   10.8150 H   0  0  0  0  0  0  0  0  0  0  0  0
   41.0000   10.4923    9.1205 H   0  0  0  0  0  0  0  0  0  0  0  0
   44.4980   12.5902   11.1689 H   0  0  0  0  0  0  0  0  0  0  0  0
   49.0573   11.2740   12.5025 H   0  0  0  0  0  0  0  0  0  0  0  0
   40.2057   16.9086   11.5764 H   0  0  0  0  0  0  0  0  0  0  0  0
   39.0899   16.3458   10.3143 H   0  0  0  0  0  0  0  0  0  0  0  0
   40.6206   17.1384    9.8836 H   0  0  0  0  0  0  0  0  0  0  0  0
   46.2529   14.2395   11.2420 H   0  0  0  0  0  0  0  0  0  0  0  0
   48.5604   13.6079   11.9047 H   0  0  0  0  0  0  0  0  0  0  0  0
   42.4251    9.3460   11.6905 H   0  0  0  0  0  0  0  0  0  0  0  0
   41.3041   11.4887   11.9900 H   0  0  0  0  0  0  0  0  0  0  0  0
   45.3798   10.5799    9.5054 H   0  0  0  0  0  0  0  0  0  0  0  0
   42.5615   14.5270   11.1594 H   0  0  0  0  0  0  0  0  0  0  0  0
  2  4  1  0
  3  1  1  0
  4  3  2  0
  5  1  2  0
  6  2  2  0
  7  1  1  0
  8  2  1  0
 10  9  1  0
 11 14  1  0
 12  9  1  0
 13 10  2  0
 14 12  2  0
 15 10  1  0
 16 27  1  0
 17 22  1  0
 18 13  1  0
 19  9  1  0
 20 15  2  0
 21 23  1  0
 22 24  1  0
 23 16  1  0
 24 16  1  0
 25 19  1  0
 26 20  1  0
 27 25  1  0
 28 20  1  0
 29 12  1  0
 30 14  1  0
 31 17  1  0
 32 29  2  0
 33 30  2  0
 11 13  1  0
 32 33  1  0
 26 18  2  0
 17 21  1  0
 35 37  1  0
 36 34  1  0
 37 36  2  0
 38 34  2  0
 39 35  2  0
 40 34  1  0
 41 35  1  0
  3 42  1  0
  4 43  1  0
  7 44  1  0
  8 45  1  0
 15 46  1  0
 18 47  1  0
 19 48  1  0
 19 49  1  0
 21 50  1  0
 21 51  1  0
 22 52  1  0
 22 53  1  0
 23 54  1  0
 23 55  1  0
 24 56  1  0
 24 57  1  0
 25 58  1  0
 25 59  1  0
 26 60  1  0
 27 61  1  0
 27 62  1  0
 29 63  1  0
 30 64  1  0
 31 65  1  0
 31 66  1  0
 31 67  1  0
 32 68  1  0
 33 69  1  0
 36 70  1  0
 37 71  1  0
 40 72  1  0
 41 73  1  0
M  END
> <Uni-Dock RESULT> 
ENERGY=   -4.884  LOWER_BOUND=    3.977  UPPER_BOUND=    8.135
INTER + INTRA:          -4.884
INTER:                  -4.884
INTRA:                   0.000
UNBOUND:                 0.000

$$$$

     RDKit          3D

 73 74  0  0  0  0  0  0  0  0999 V2000
   49.6863    5.0871   18.3557 C   0  0  0  0  0  0  0  0  0  0  0  0
   48.5551    7.4516   19.9380 C   0  0  0  0  0  0  0  0  0  0  0  0
   48.7974    4.9993   19.5176 C   0  0  0  0  0  0  0  0  0  0  0  0
   48.3344    6.0332   20.2334 C   0  0  0  0  0  0  0  0  0  0  0  0
   49.6324    4.3539   17.3859 O   0  0  0  0  0  0  0  0  0  0  0  0
   48.7046    8.3187   20.7789 O   0  0  0  0  0  0  0  0  0  0  0  0
   50.6679    5.9858   18.5184 O   0  0  0  0  0  0  0  0  0  0  0  0
   48.4472    7.7341   18.6318 O   0  0  0  0  0  0  0  0  0  0  0  0
   48.3441    7.9845   20.1660 N   0  0  0  0  0  0  0  0  0  0  0  0
   47.9615    9.3474   19.9927 C   0  0  0  0  0  0  0  0  0  0  0  0
   47.1909    9.4742   22.6970 S   0  0  0  0  0  0  0  0  0  0  0  0
   48.0576    7.1836   21.3120 C   0  0  0  0  0  0  0  0  0  0  0  0
   47.4161   10.1038   21.0517 C   0  0  0  0  0  0  0  0  0  0  0  0
   47.5184    7.7407   22.4894 C   0  0  0  0  0  0  0  0  0  0  0  0
   48.0813   10.0111   18.7500 C   0  0  0  0  0  0  0  0  0  0  0  0
   49.8506    4.8935   16.8941 N   0  0  0  0  0  0  0  0  0  0  0  0
   50.9128    2.3320   17.8807 N   0  0  0  0  0  0  0  0  0  0  0  0
   47.0341   11.4485   20.8666 C   0  0  0  0  0  0  0  0  0  0  0  0
   49.1976    7.3750   19.1157 C   0  0  0  0  0  0  0  0  0  0  0  0
   47.6978   11.3450   18.5758 C   0  0  0  0  0  0  0  0  0  0  0  0
   51.7839    3.4938   17.6099 C   0  0  0  0  0  0  0  0  0  0  0  0
   49.7228    2.4000   17.0081 C   0  0  0  0  0  0  0  0  0  0  0  0
   51.0249    4.8329   17.7710 C   0  0  0  0  0  0  0  0  0  0  0  0
   48.9674    3.7439   17.1470 C   0  0  0  0  0  0  0  0  0  0  0  0
   48.3526    6.6714   18.0457 C   0  0  0  0  0  0  0  0  0  0  0  0
   47.1748   12.0704   19.6316 C   0  0  0  0  0  0  0  0  0  0  0  0
   49.1618    6.1819   16.8359 C   0  0  0  0  0  0  0  0  0  0  0  0
   47.8731   12.0893   17.0328 Cl  0  0  0  0  0  0  0  0  0  0  0  0
   48.2732    5.7857   21.3296 C   0  0  0  0  0  0  0  0  0  0  0  0
   47.2297    6.9355   23.6100 C   0  0  0  0  0  0  0  0  0  0  0  0
   51.6386    1.0820   17.6664 C   0  0  0  0  0  0  0  0  0  0  0  0
   47.9835    4.9892   22.4446 C   0  0  0  0  0  0  0  0  0  0  0  0
   47.4610    5.5655   23.5890 C   0  0  0  0  0  0  0  0  0  0  0  0
   47.9332    7.4396   19.4673 C   0  0  0  0  0  0  0  0  0  0  0  0
   49.7541    5.0595   19.3790 C   0  0  0  0  0  0  0  0  0  0  0  0
   49.1503    7.3568   18.6576 C   0  0  0  0  0  0  0  0  0  0  0  0
   49.9431    6.2794   18.5828 C   0  0  0  0  0  0  0  0  0  0  0  0
   47.6560    8.3530   20.2203 O   0  0  0  0  0  0  0  0  0  0  0  0
   49.1379    4.9264   20.4169 O   0  0  0  0  0  0  0  0  0  0  0  0
   47.0830    6.4407   19.1904 O   0  0  0  0  0  0  0  0  0  0  0  0
   50.4230    4.0436   18.8101 O   0  0  0  0  0  0  0  0  0  0  0  0
   48.5150    3.9864   19.7812 H   0  0  0  0  0  0  0  0  0  0  0  0
   47.7390    5.8555   21.1217 H   0  0  0  0  0  0  0  0  0  0  0  0
   51.1908    5.9140   17.6938 H   0  0  0  0  0  0  0  0  0  0  0  0
   48.5848    8.7028   18.5898 H   0  0  0  0  0  0  0  0  0  0  0  0
   48.4617    9.5016   17.8718 H   0  0  0  0  0  0  0  0  0  0  0  0
   46.6220   12.0209   21.6961 H   0  0  0  0  0  0  0  0  0  0  0  0
   49.8464    8.1296   18.6528 H   0  0  0  0  0  0  0  0  0  0  0  0
   49.9259    6.6977   19.5685 H   0  0  0  0  0  0  0  0  0  0  0  0
   52.6251    3.4901   18.3135 H   0  0  0  0  0  0  0  0  0  0  0  0
   52.2030    3.4369   16.5961 H   0  0  0  0  0  0  0  0  0  0  0  0
   49.0320    1.5895   17.2703 H   0  0  0  0  0  0  0  0  0  0  0  0
   50.0085    2.2595   15.9564 H   0  0  0  0  0  0  0  0  0  0  0  0
   50.7348    4.9301   18.8220 H   0  0  0  0  0  0  0  0  0  0  0  0
   51.7142    5.6515   17.5339 H   0  0  0  0  0  0  0  0  0  0  0  0
   48.1389    3.7450   16.4287 H   0  0  0  0  0  0  0  0  0  0  0  0
   48.5336    3.7981   18.1530 H   0  0  0  0  0  0  0  0  0  0  0  0
   47.7623    5.8575   18.4770 H   0  0  0  0  0  0  0  0  0  0  0  0
   47.6023    7.3771   17.6671 H   0  0  0  0  0  0  0  0  0  0  0  0
   46.8747   13.1064   19.5051 H   0  0  0  0  0  0  0  0  0  0  0  0
   49.8794    6.9581   16.5399 H   0  0  0  0  0  0  0  0  0  0  0  0
   48.4644    6.1225   15.9891 H   0  0  0  0  0  0  0  0  0  0  0  0
   48.6634    5.2568   20.4661 H   0  0  0  0  0  0  0  0  0  0  0  0
   46.8206    7.3813   24.5144 H   0  0  0  0  0  0  0  0  0  0  0  0
   52.5059    1.0232   18.3332 H   0  0  0  0  0  0  0  0  0  0  0  0
   51.9908    0.9761   16.6339 H   0  0  0  0  0  0  0  0  0  0  0  0
   51.0008    0.2232   17.9026 H   0  0  0  0  0  0  0  0  0  0  0  0
   48.1666    3.9181   22.4068 H   0  0  0  0  0  0  0  0  0  0  0  0
   47.2333    4.9569   24.4593 H   0  0  0  0  0  0  0  0  0  0  0  0
   49.3928    8.2614   18.1135 H   0  0  0  0  0  0  0  0  0  0  0  0
   50.8115    6.2884   17.9342 H   0  0  0  0  0  0  0  0  0  0  0  0
   46.3393    6.5819   19.8115 H   0  0  0  0  0  0  0  0  0  0  0  0
   50.2419    3.2860   19.4051 H   0  0  0  0  0  0  0  0  0  0  0  0
  2  4  1  0
  3  1  1  0
  4  3  2  0
  5  1  2  0
  6  2  2  0
  7  1  1  0
  8  2  1  0
 10  9  1  0
 11 14  1  0
 12  9  1  0
 13 10  2  0
 14 12  2  0
 15 10  1  0
 16 27  1  0
 17 22  1  0
 18 13  1  0
 19  9  1  0
 20 15  2  0
 21 23  1  0
 22 24  1  0
 23 16  1  0
 24 16  1  0
 25 19  1  0
 26 20  1  0
 27 25  1  0
 28 20  1  0
 29 12  1  0
 30 14  1  0
 31 17  1  0
 32 29  2  0
 33 30  2  0
 11 13  1  0
 32 33  1  0
 26 18  2  0
 17 21  1  0
 35 37  1  0
 36 34  1  0
 37 36  2  0
 38 34  2  0
 39 35  2  0
 40 34  1  0
 41 35  1  0
  3 42  1  0
  4 43  1  0
  7 44  1  0
  8 45  1  0
 15 46  1  0
 18 47  1  0
 19 48  1  0
 19 49  1  0
 21 50  1  0
 21 51  1  0
 22 52  1  0
 22 53  1  0
 23 54  1  0
 23 55  1  0
 24 56  1  0
 24 57  1  0
 25 58  1  0
 25 59  1  0
 26 60  1  0
 27 61  1  0
 27 62  1  0
 29 63  1  0
 30 64  1  0
 31 65  1  0
 31 66  1  0
 31 67  1  0
 32 68  1  0
 33 69  1  0
 36 70  1  0
 37 71  1  0
 40 72  1  0
 41 73  1  0
M  END
> <Uni-Dock RESULT> 
ENERGY=   -4.859  LOWER_BOUND=    5.548  UPPER_BOUND=    7.407
INTER + INTRA:          -4.859
INTER:                  -4.859
INTRA:                   0.000
UNBOUND:                 0.000

$$$$

     RDKit          3D

 73 74  0  0  0  0  0  0  0  0999 V2000
   49.0758    9.2936   14.9956 C   0  0  0  0  0  0  0  0  0  0  0  0
   48.2006    9.0058   17.9154 C   0  0  0  0  0  0  0  0  0  0  0  0
   49.1065   10.3492   16.0117 C   0  0  0  0  0  0  0  0  0  0  0  0
   48.6865   10.2333   17.2790 C   0  0  0  0  0  0  0  0  0  0  0  0
   49.9221    9.1361   14.1353 O   0  0  0  0  0  0  0  0  0  0  0  0
   47.3103    8.9613   18.7441 O   0  0  0  0  0  0  0  0  0  0  0  0
   47.9409    8.5801   15.0207 O   0  0  0  0  0  0  0  0  0  0  0  0
   48.9280    7.9276   17.5899 O   0  0  0  0  0  0  0  0  0  0  0  0
   48.0438    8.8423   18.4892 N   0  0  0  0  0  0  0  0  0  0  0  0
   47.9572    7.8658   19.5248 C   0  0  0  0  0  0  0  0  0  0  0  0
   46.9462    9.8194   21.2812 S   0  0  0  0  0  0  0  0  0  0  0  0
   47.8806   10.2494   18.6624 C   0  0  0  0  0  0  0  0  0  0  0  0
   47.4989    8.1964   20.8178 C   0  0  0  0  0  0  0  0  0  0  0  0
   47.4191   10.7981   19.8762 C   0  0  0  0  0  0  0  0  0  0  0  0
   48.3471    6.5212   19.3268 C   0  0  0  0  0  0  0  0  0  0  0  0
   49.8534    8.3773   14.1258 N   0  0  0  0  0  0  0  0  0  0  0  0
   49.3837   10.5986   12.2528 N   0  0  0  0  0  0  0  0  0  0  0  0
   47.4248    7.2241   21.8364 C   0  0  0  0  0  0  0  0  0  0  0  0
   48.2168    8.3513   17.0991 C   0  0  0  0  0  0  0  0  0  0  0  0
   48.2717    5.5642   20.3442 C   0  0  0  0  0  0  0  0  0  0  0  0
   48.4875    9.4267   12.3252 C   0  0  0  0  0  0  0  0  0  0  0  0
   50.7448   10.1987   12.6646 C   0  0  0  0  0  0  0  0  0  0  0  0
   48.4990    8.7785   13.7305 C   0  0  0  0  0  0  0  0  0  0  0  0
   50.7647    9.5311   14.0610 C   0  0  0  0  0  0  0  0  0  0  0  0
   49.6997    8.2718   16.7135 C   0  0  0  0  0  0  0  0  0  0  0  0
   47.8093    5.9091   21.6018 C   0  0  0  0  0  0  0  0  0  0  0  0
   49.9552    7.5969   15.3581 C   0  0  0  0  0  0  0  0  0  0  0  0
   48.7636    3.9439   20.0306 Cl  0  0  0  0  0  0  0  0  0  0  0  0
   48.1927   11.1774   17.6414 C   0  0  0  0  0  0  0  0  0  0  0  0
   47.2735   12.1910   20.0370 C   0  0  0  0  0  0  0  0  0  0  0  0
   49.3965   11.1556   10.9019 C   0  0  0  0  0  0  0  0  0  0  0  0
   48.0481   12.5607   17.8059 C   0  0  0  0  0  0  0  0  0  0  0  0
   47.5862   13.0697   19.0069 C   0  0  0  0  0  0  0  0  0  0  0  0
   48.9367    8.8193   18.0938 C   0  0  0  0  0  0  0  0  0  0  0  0
   48.4514   10.0085   15.3848 C   0  0  0  0  0  0  0  0  0  0  0  0
   48.5195    8.0559   16.9161 C   0  0  0  0  0  0  0  0  0  0  0  0
   48.3432    8.5767   15.6944 C   0  0  0  0  0  0  0  0  0  0  0  0
   48.3986    8.7725   19.1830 O   0  0  0  0  0  0  0  0  0  0  0  0
   48.3651   10.9514   16.1453 O   0  0  0  0  0  0  0  0  0  0  0  0
   50.0732    9.4945   17.8715 O   0  0  0  0  0  0  0  0  0  0  0  0
   48.6279   10.1705   14.0635 O   0  0  0  0  0  0  0  0  0  0  0  0
   49.5165   11.2888   15.6593 H   0  0  0  0  0  0  0  0  0  0  0  0
   48.6853   11.0985   17.9321 H   0  0  0  0  0  0  0  0  0  0  0  0
   48.0461    7.9461   14.2820 H   0  0  0  0  0  0  0  0  0  0  0  0
   48.5149    7.2030   18.1030 H   0  0  0  0  0  0  0  0  0  0  0  0
   48.7401    6.1812   18.3752 H   0  0  0  0  0  0  0  0  0  0  0  0
   47.0615    7.4935   22.8268 H   0  0  0  0  0  0  0  0  0  0  0  0
   47.7365    7.3732   16.9675 H   0  0  0  0  0  0  0  0  0  0  0  0
   47.6496    8.9769   16.4055 H   0  0  0  0  0  0  0  0  0  0  0  0
   47.4605    9.7391   12.1005 H   0  0  0  0  0  0  0  0  0  0  0  0
   48.7727    8.6731   11.5785 H   0  0  0  0  0  0  0  0  0  0  0  0
   51.3902   11.0848   12.6988 H   0  0  0  0  0  0  0  0  0  0  0  0
   51.1799    9.5046   11.9323 H   0  0  0  0  0  0  0  0  0  0  0  0
   48.0826    9.5028   14.4377 H   0  0  0  0  0  0  0  0  0  0  0  0
   47.8377    7.9046   13.7135 H   0  0  0  0  0  0  0  0  0  0  0  0
   51.7914    9.2075   14.2695 H   0  0  0  0  0  0  0  0  0  0  0  0
   50.4958   10.2841   14.8118 H   0  0  0  0  0  0  0  0  0  0  0  0
   50.1750    9.2562   16.7564 H   0  0  0  0  0  0  0  0  0  0  0  0
   50.2312    7.6828   17.4718 H   0  0  0  0  0  0  0  0  0  0  0  0
   47.7472    5.1725   22.3973 H   0  0  0  0  0  0  0  0  0  0  0  0
   49.3209    6.7053   15.2702 H   0  0  0  0  0  0  0  0  0  0  0  0
   50.9783    7.1979   15.3886 H   0  0  0  0  0  0  0  0  0  0  0  0
   48.5767   10.8589   16.6777 H   0  0  0  0  0  0  0  0  0  0  0  0
   46.9090   12.5991   20.9776 H   0  0  0  0  0  0  0  0  0  0  0  0
   48.3901   11.4749   10.6094 H   0  0  0  0  0  0  0  0  0  0  0  0
   49.7591   10.4370   10.1580 H   0  0  0  0  0  0  0  0  0  0  0  0
   50.0339   12.0457   10.8604 H   0  0  0  0  0  0  0  0  0  0  0  0
   48.3029   13.2324   16.9897 H   0  0  0  0  0  0  0  0  0  0  0  0
   47.4700   14.1407   19.1446 H   0  0  0  0  0  0  0  0  0  0  0  0
   48.3365    7.0045   17.1013 H   0  0  0  0  0  0  0  0  0  0  0  0
   48.0625    7.9360   14.8664 H   0  0  0  0  0  0  0  0  0  0  0  0
   50.2249    9.9864   18.7045 H   0  0  0  0  0  0  0  0  0  0  0  0
   48.6854   11.1430   13.9558 H   0  0  0  0  0  0  0  0  0  0  0  0
  2  4  1  0
  3  1  1  0
  4  3  2  0
  5  1  2  0
  6  2  2  0
  7  1  1  0
  8  2  1  0
 10  9  1  0
 11 14  1  0
 12  9  1  0
 13 10  2  0
 14 12  2  0
 15 10  1  0
 16 27  1  0
 17 22  1  0
 18 13  1  0
 19  9  1  0
 20 15  2  0
 21 23  1  0
 22 24  1  0
 23 16  1  0
 24 16  1  0
 25 19  1  0
 26 20  1  0
 27 25  1  0
 28 20  1  0
 29 12  1  0
 30 14  1  0
 31 17  1  0
 32 29  2  0
 33 30  2  0
 11 13  1  0
 32 33  1  0
 26 18  2  0
 17 21  1  0
 35 37  1  0
 36 34  1  0
 37 36  2  0
 38 34  2  0
 39 35  2  0
 40 34  1  0
 41 35  1  0
  3 42  1  0
  4 43  1  0
  7 44  1  0
  8 45  1  0
 15 46  1  0
 18 47  1  0
 19 48  1  0
 19 49  1  0
 21 50  1  0
 21 51  1  0
 22 52  1  0
 22 53  1  0
 23 54  1  0
 23 55  1  0
 24 56  1  0
 24 57  1  0
 25 58  1  0
 25 59  1  0
 26 60  1  0
 27 61  1  0
 27 62  1  0
 29 63  1  0
 30 64  1  0
 31 65  1  0
 31 66  1  0
 31 67  1  0
 32 68  1  0
 33 69  1  0
 36 70  1  0
 37 71  1  0
 40 72  1  0
 41 73  1  0
M  END
> <Uni-Dock RESULT> 
ENERGY=   -4.546  LOWER_BOUND=    4.053  UPPER_BOUND=    7.106
INTER + INTRA:          -4.546
INTER:                  -4.546
INTRA:                   0.000
UNBOUND:                 0.000

$$$$

     RDKit          3D

 73 74  0  0  0  0  0  0  0  0999 V2000
   45.7967    6.2928   12.2163 C   0  0  0  0  0  0  0  0  0  0  0  0
   48.1370    8.1071   12.9946 C   0  0  0  0  0  0  0  0  0  0  0  0
   46.4533    6.3372   13.5258 C   0  0  0  0  0  0  0  0  0  0  0  0
   47.5028    7.1033   13.8536 C   0  0  0  0  0  0  0  0  0  0  0  0
   44.6014    6.1399   12.0461 O   0  0  0  0  0  0  0  0  0  0  0  0
   49.3300    8.3469   12.9746 O   0  0  0  0  0  0  0  0  0  0  0  0
   46.6675    6.3080   11.1969 O   0  0  0  0  0  0  0  0  0  0  0  0
   47.2489    8.8424   12.3102 O   0  0  0  0  0  0  0  0  0  0  0  0
   48.5736    8.5361   13.0708 N   0  0  0  0  0  0  0  0  0  0  0  0
   49.1325    9.8112   12.7618 C   0  0  0  0  0  0  0  0  0  0  0  0
   51.1508    9.3900   14.6782 S   0  0  0  0  0  0  0  0  0  0  0  0
   48.9469    7.7145   14.1765 C   0  0  0  0  0  0  0  0  0  0  0  0
   50.2729   10.3020   13.4325 C   0  0  0  0  0  0  0  0  0  0  0  0
   50.0671    8.0149   14.9780 C   0  0  0  0  0  0  0  0  0  0  0  0
   48.5660   10.6660   11.7885 C   0  0  0  0  0  0  0  0  0  0  0  0
   44.5758    6.5783   11.4234 N   0  0  0  0  0  0  0  0  0  0  0  0
   44.1233    3.7434   12.0726 N   0  0  0  0  0  0  0  0  0  0  0  0
   50.8123   11.5678   13.1240 C   0  0  0  0  0  0  0  0  0  0  0  0
   47.5956    7.9672   12.1101 C   0  0  0  0  0  0  0  0  0  0  0  0
   49.1074   11.9210   11.4907 C   0  0  0  0  0  0  0  0  0  0  0  0
   44.7794    4.1694   10.8197 C   0  0  0  0  0  0  0  0  0  0  0  0
   43.2026    4.8054   12.5273 C   0  0  0  0  0  0  0  0  0  0  0  0
   45.5004    5.5293   10.9803 C   0  0  0  0  0  0  0  0  0  0  0  0
   43.9098    6.1747   12.6722 C   0  0  0  0  0  0  0  0  0  0  0  0
   46.1561    8.3374   12.4908 C   0  0  0  0  0  0  0  0  0  0  0  0
   50.2325   12.3773   12.1543 C   0  0  0  0  0  0  0  0  0  0  0  0
   45.1117    7.9387   11.4382 C   0  0  0  0  0  0  0  0  0  0  0  0
   48.3642   12.9089   10.2920 Cl  0  0  0  0  0  0  0  0  0  0  0  0
   48.2070    6.5680   14.5494 C   0  0  0  0  0  0  0  0  0  0  0  0
   50.4175    7.2006   16.0741 C   0  0  0  0  0  0  0  0  0  0  0  0
   43.4040    2.4866   11.8769 C   0  0  0  0  0  0  0  0  0  0  0  0
   48.5578    5.7627   15.6403 C   0  0  0  0  0  0  0  0  0  0  0  0
   49.6669    6.0789   16.4048 C   0  0  0  0  0  0  0  0  0  0  0  0
   47.6170    8.6329   13.2428 C   0  0  0  0  0  0  0  0  0  0  0  0
   46.5999    5.8670   12.6917 C   0  0  0  0  0  0  0  0  0  0  0  0
   47.2145    8.1456   11.9220 C   0  0  0  0  0  0  0  0  0  0  0  0
   46.7195    6.9246   11.6794 C   0  0  0  0  0  0  0  0  0  0  0  0
   48.6692    9.1890   13.4913 O   0  0  0  0  0  0  0  0  0  0  0  0
   47.1960    5.7623   13.7445 O   0  0  0  0  0  0  0  0  0  0  0  0
   46.6294    8.5085   14.1407 O   0  0  0  0  0  0  0  0  0  0  0  0
   45.7237    4.9401   12.2719 O   0  0  0  0  0  0  0  0  0  0  0  0
   46.0130    5.6751   14.2626 H   0  0  0  0  0  0  0  0  0  0  0  0
   47.9606    7.0076   14.8316 H   0  0  0  0  0  0  0  0  0  0  0  0
   46.0994    6.2428   10.4022 H   0  0  0  0  0  0  0  0  0  0  0  0
   47.8045    9.4786   11.8145 H   0  0  0  0  0  0  0  0  0  0  0  0
   47.6714   10.3867   11.2432 H   0  0  0  0  0  0  0  0  0  0  0  0
   51.6975   11.9288   13.6452 H   0  0  0  0  0  0  0  0  0  0  0  0
   47.8155    8.2976   11.0868 H   0  0  0  0  0  0  0  0  0  0  0  0
   47.7299    6.8855   12.0322 H   0  0  0  0  0  0  0  0  0  0  0  0
   45.5238    3.4197   10.5253 H   0  0  0  0  0  0  0  0  0  0  0  0
   44.0474    4.2438   10.0039 H   0  0  0  0  0  0  0  0  0  0  0  0
   42.7833    4.5310   13.5028 H   0  0  0  0  0  0  0  0  0  0  0  0
   42.3621    4.9115   11.8275 H   0  0  0  0  0  0  0  0  0  0  0  0
   46.3144    5.3948   11.6996 H   0  0  0  0  0  0  0  0  0  0  0  0
   45.9437    5.8015   10.0156 H   0  0  0  0  0  0  0  0  0  0  0  0
   43.1553    6.9202   12.9502 H   0  0  0  0  0  0  0  0  0  0  0  0
   44.6307    6.1098   13.4963 H   0  0  0  0  0  0  0  0  0  0  0  0
   45.8908    7.9409   13.4753 H   0  0  0  0  0  0  0  0  0  0  0  0
   46.0914    9.4261   12.6124 H   0  0  0  0  0  0  0  0  0  0  0  0
   50.6595   13.3501   11.9292 H   0  0  0  0  0  0  0  0  0  0  0  0
   45.4910    8.1845   10.4378 H   0  0  0  0  0  0  0  0  0  0  0  0
   44.2517    8.6090   11.5726 H   0  0  0  0  0  0  0  0  0  0  0  0
   47.3151    6.2637   14.0114 H   0  0  0  0  0  0  0  0  0  0  0  0
   51.2894    7.4413   16.6791 H   0  0  0  0  0  0  0  0  0  0  0  0
   44.0938    1.6948   11.5647 H   0  0  0  0  0  0  0  0  0  0  0  0
   42.6138    2.5715   11.1222 H   0  0  0  0  0  0  0  0  0  0  0  0
   42.9487    2.1552   12.8167 H   0  0  0  0  0  0  0  0  0  0  0  0
   47.9548    4.8920   15.8862 H   0  0  0  0  0  0  0  0  0  0  0  0
   49.9479    5.4607   17.2525 H   0  0  0  0  0  0  0  0  0  0  0  0
   47.3632    8.8530   11.1154 H   0  0  0  0  0  0  0  0  0  0  0  0
   46.4158    6.6517   10.6753 H   0  0  0  0  0  0  0  0  0  0  0  0
   47.0265    8.8268   14.9772 H   0  0  0  0  0  0  0  0  0  0  0  0
   45.7136    4.2850   13.0009 H   0  0  0  0  0  0  0  0  0  0  0  0
  2  4  1  0
  3  1  1  0
  4  3  2  0
  5  1  2  0
  6  2  2  0
  7  1  1  0
  8  2  1  0
 10  9  1  0
 11 14  1  0
 12  9  1  0
 13 10  2  0
 14 12  2  0
 15 10  1  0
 16 27  1  0
 17 22  1  0
 18 13  1  0
 19  9  1  0
 20 15  2  0
 21 23  1  0
 22 24  1  0
 23 16  1  0
 24 16  1  0
 25 19  1  0
 26 20  1  0
 27 25  1  0
 28 20  1  0
 29 12  1  0
 30 14  1  0
 31 17  1  0
 32 29  2  0
 33 30  2  0
 11 13  1  0
 32 33  1  0
 26 18  2  0
 17 21  1  0
 35 37  1  0
 36 34  1  0
 37 36  2  0
 38 34  2  0
 39 35  2  0
 40 34  1  0
 41 35  1  0
  3 42  1  0
  4 43  1  0
  7 44  1  0
  8 45  1  0
 15 46  1  0
 18 47  1  0
 19 48  1  0
 19 49  1  0
 21 50  1  0
 21 51  1  0
 22 52  1  0
 22 53  1  0
 23 54  1  0
 23 55  1  0
 24 56  1  0
 24 57  1  0
 25 58  1  0
 25 59  1  0
 26 60  1  0
 27 61  1  0
 27 62  1  0
 29 63  1  0
 30 64  1  0
 31 65  1  0
 31 66  1  0
 31 67  1  0
 32 68  1  0
 33 69  1  0
 36 70  1  0
 37 71  1  0
 40 72  1  0
 41 73  1  0
M  END
> <Uni-Dock RESULT> 
ENERGY=   -4.439  LOWER_BOUND=    2.320  UPPER_BOUND=    5.512
INTER + INTRA:          -4.439
INTER:                  -4.439
INTRA:                   0.000
UNBOUND:                 0.000

$$$$

     RDKit          3D

 73 74  0  0  0  0  0  0  0  0999 V2000
   50.2525    8.8247   13.9671 C   0  0  0  0  0  0  0  0  0  0  0  0
   48.8737    8.8715   16.7005 C   0  0  0  0  0  0  0  0  0  0  0  0
   49.4425    7.7468   14.5416 C   0  0  0  0  0  0  0  0  0  0  0  0
   48.8721    7.7525   15.7542 C   0  0  0  0  0  0  0  0  0  0  0  0
   50.2568    9.1357   12.7906 O   0  0  0  0  0  0  0  0  0  0  0  0
   48.9386    8.7551   17.9102 O   0  0  0  0  0  0  0  0  0  0  0  0
   51.1027    9.3648   14.8521 O   0  0  0  0  0  0  0  0  0  0  0  0
   48.6636   10.0553   16.1070 O   0  0  0  0  0  0  0  0  0  0  0  0
   48.6003    8.9887   17.2409 N   0  0  0  0  0  0  0  0  0  0  0  0
   48.0193    9.9023   18.1690 C   0  0  0  0  0  0  0  0  0  0  0  0
   47.3705    7.7576   19.8727 S   0  0  0  0  0  0  0  0  0  0  0  0
   48.4867    7.5672   17.2971 C   0  0  0  0  0  0  0  0  0  0  0  0
   47.4236    9.4599   19.3693 C   0  0  0  0  0  0  0  0  0  0  0  0
   47.9313    6.9118   18.4148 C   0  0  0  0  0  0  0  0  0  0  0  0
   47.9829   11.2957   17.9320 C   0  0  0  0  0  0  0  0  0  0  0  0
   50.3717    9.8764   12.9276 N   0  0  0  0  0  0  0  0  0  0  0  0
   51.8348    7.6832   11.6190 N   0  0  0  0  0  0  0  0  0  0  0  0
   46.8453   10.3718   20.2761 C   0  0  0  0  0  0  0  0  0  0  0  0
   49.4800    9.5520   16.1864 C   0  0  0  0  0  0  0  0  0  0  0  0
   47.4052   12.1924   18.8370 C   0  0  0  0  0  0  0  0  0  0  0  0
   52.5172    8.7094   12.4333 C   0  0  0  0  0  0  0  0  0  0  0  0
   50.6064    8.2601   11.0356 C   0  0  0  0  0  0  0  0  0  0  0  0
   51.5838    9.2985   13.5181 C   0  0  0  0  0  0  0  0  0  0  0  0
   49.6747    8.8701   12.1107 C   0  0  0  0  0  0  0  0  0  0  0  0
   48.6931    9.8601   14.9058 C   0  0  0  0  0  0  0  0  0  0  0  0
   46.8358   11.7366   20.0127 C   0  0  0  0  0  0  0  0  0  0  0  0
   49.5042   10.6159   13.8433 C   0  0  0  0  0  0  0  0  0  0  0  0
   47.3976   13.8775   18.4823 Cl  0  0  0  0  0  0  0  0  0  0  0  0
   48.9000    6.7337   16.2315 C   0  0  0  0  0  0  0  0  0  0  0  0
   47.8150    5.5074   18.4519 C   0  0  0  0  0  0  0  0  0  0  0  0
   52.7201    7.1857   10.5683 C   0  0  0  0  0  0  0  0  0  0  0  0
   48.7811    5.3388   16.2718 C   0  0  0  0  0  0  0  0  0  0  0  0
   48.2379    4.7230   17.3856 C   0  0  0  0  0  0  0  0  0  0  0  0
   48.2378    9.1558   16.3494 C   0  0  0  0  0  0  0  0  0  0  0  0
   50.3730    8.0126   14.5824 C   0  0  0  0  0  0  0  0  0  0  0  0
   49.4137    9.8949   15.8857 C   0  0  0  0  0  0  0  0  0  0  0  0
   50.3474    9.4008   15.0617 C   0  0  0  0  0  0  0  0  0  0  0  0
   47.8701    9.0827   17.5059 O   0  0  0  0  0  0  0  0  0  0  0  0
   49.8331    7.0390   15.0674 O   0  0  0  0  0  0  0  0  0  0  0  0
   47.5264    8.6612   15.3264 O   0  0  0  0  0  0  0  0  0  0  0  0
   51.1516    7.9282   13.4915 O   0  0  0  0  0  0  0  0  0  0  0  0
   49.3205    6.8906   13.8880 H   0  0  0  0  0  0  0  0  0  0  0  0
   48.3519    6.8721   16.1138 H   0  0  0  0  0  0  0  0  0  0  0  0
   51.5899   10.0349   14.3304 H   0  0  0  0  0  0  0  0  0  0  0  0
   48.6594   10.6924   16.8507 H   0  0  0  0  0  0  0  0  0  0  0  0
   48.3891   11.7249   17.0229 H   0  0  0  0  0  0  0  0  0  0  0  0
   46.3965   10.0151   21.2018 H   0  0  0  0  0  0  0  0  0  0  0  0
   49.9914   10.4545   16.5452 H   0  0  0  0  0  0  0  0  0  0  0  0
   50.3185    8.8777   15.9958 H   0  0  0  0  0  0  0  0  0  0  0  0
   53.3834    8.2602   12.9339 H   0  0  0  0  0  0  0  0  0  0  0  0
   52.8905    9.5242   11.7981 H   0  0  0  0  0  0  0  0  0  0  0  0
   50.0517    7.4762   10.5058 H   0  0  0  0  0  0  0  0  0  0  0  0
   50.8578    9.0373   10.3005 H   0  0  0  0  0  0  0  0  0  0  0  0
   51.3340    8.4952   14.2185 H   0  0  0  0  0  0  0  0  0  0  0  0
   52.1370   10.0674   14.0696 H   0  0  0  0  0  0  0  0  0  0  0  0
   48.8207    9.3307   11.6001 H   0  0  0  0  0  0  0  0  0  0  0  0
   49.2869    8.0580   12.7379 H   0  0  0  0  0  0  0  0  0  0  0  0
   48.2464    8.9539   14.4860 H   0  0  0  0  0  0  0  0  0  0  0  0
   47.8324   10.4906   15.1627 H   0  0  0  0  0  0  0  0  0  0  0  0
   46.3854   12.4257   20.7209 H   0  0  0  0  0  0  0  0  0  0  0  0
   50.0887   11.4089   14.3277 H   0  0  0  0  0  0  0  0  0  0  0  0
   48.7823   11.1574   13.2169 H   0  0  0  0  0  0  0  0  0  0  0  0
   49.3193    7.1408   15.3172 H   0  0  0  0  0  0  0  0  0  0  0  0
   47.3908    5.0154   19.3249 H   0  0  0  0  0  0  0  0  0  0  0  0
   53.6182    6.7354   11.0052 H   0  0  0  0  0  0  0  0  0  0  0  0
   53.0334    7.9770    9.8777 H   0  0  0  0  0  0  0  0  0  0  0  0
   52.2234    6.3996    9.9890 H   0  0  0  0  0  0  0  0  0  0  0  0
   49.1131    4.7426   15.4253 H   0  0  0  0  0  0  0  0  0  0  0  0
   48.1417    3.6420   17.4272 H   0  0  0  0  0  0  0  0  0  0  0  0
   49.4981   10.9009   16.2782 H   0  0  0  0  0  0  0  0  0  0  0  0
   51.1731   10.0252   14.7405 H   0  0  0  0  0  0  0  0  0  0  0  0
   46.8011    8.1653   15.7585 H   0  0  0  0  0  0  0  0  0  0  0  0
   51.1093    6.9791   13.2505 H   0  0  0  0  0  0  0  0  0  0  0  0
  2  4  1  0
  3  1  1  0
  4  3  2  0
  5  1  2  0
  6  2  2  0
  7  1  1  0
  8  2  1  0
 10  9  1  0
 11 14  1  0
 12  9  1  0
 13 10  2  0
 14 12  2  0
 15 10  1  0
 16 27  1  0
 17 22  1  0
 18 13  1  0
 19  9  1  0
 20 15  2  0
 21 23  1  0
 22 24  1  0
 23 16  1  0
 24 16  1  0
 25 19  1  0
 26 20  1  0
 27 25  1  0
 28 20  1  0
 29 12  1  0
 30 14  1  0
 31 17  1  0
 32 29  2  0
 33 30  2  0
 11 13  1  0
 32 33  1  0
 26 18  2  0
 17 21  1  0
 35 37  1  0
 36 34  1  0
 37 36  2  0
 38 34  2  0
 39 35  2  0
 40 34  1  0
 41 35  1  0
  3 42  1  0
  4 43  1  0
  7 44  1  0
  8 45  1  0
 15 46  1  0
 18 47  1  0
 19 48  1  0
 19 49  1  0
 21 50  1  0
 21 51  1  0
 22 52  1  0
 22 53  1  0
 23 54  1  0
 23 55  1  0
 24 56  1  0
 24 57  1  0
 25 58  1  0
 25 59  1  0
 26 60  1  0
 27 61  1  0
 27 62  1  0
 29 63  1  0
 30 64  1  0
 31 65  1  0
 31 66  1  0
 31 67  1  0
 32 68  1  0
 33 69  1  0
 36 70  1  0
 37 71  1  0
 40 72  1  0
 41 73  1  0
M  END
> <Uni-Dock RESULT> 
ENERGY=   -4.307  LOWER_BOUND=    3.863  UPPER_BOUND=    5.324
INTER + INTRA:          -4.307
INTER:                  -4.307
INTRA:                   0.000
UNBOUND:                 0.000

$$$$

     RDKit          3D

 73 74  0  0  0  0  0  0  0  0999 V2000
   50.9887    9.3499   14.9164 C   0  0  0  0  0  0  0  0  0  0  0  0
   49.2073    6.8897   15.3014 C   0  0  0  0  0  0  0  0  0  0  0  0
   49.7143    9.0950   14.2391 C   0  0  0  0  0  0  0  0  0  0  0  0
   48.9548    7.9999   14.3787 C   0  0  0  0  0  0  0  0  0  0  0  0
   51.3626   10.4428   15.2996 O   0  0  0  0  0  0  0  0  0  0  0  0
   48.9662    5.7212   15.0610 O   0  0  0  0  0  0  0  0  0  0  0  0
   51.7791    8.2678   14.9622 O   0  0  0  0  0  0  0  0  0  0  0  0
   49.6181    7.3004   16.5099 O   0  0  0  0  0  0  0  0  0  0  0  0
   48.8976    6.3853   15.4751 N   0  0  0  0  0  0  0  0  0  0  0  0
   48.5519    5.4159   16.4623 C   0  0  0  0  0  0  0  0  0  0  0  0
   46.7581    4.2163   14.6549 S   0  0  0  0  0  0  0  0  0  0  0  0
   48.2149    6.5870   14.2382 C   0  0  0  0  0  0  0  0  0  0  0  0
   47.5928    4.4120   16.2102 C   0  0  0  0  0  0  0  0  0  0  0  0
   47.2235    5.6932   13.7846 C   0  0  0  0  0  0  0  0  0  0  0  0
   49.1274    5.4178   17.7538 C   0  0  0  0  0  0  0  0  0  0  0  0
   51.7334   10.1672   15.9055 N   0  0  0  0  0  0  0  0  0  0  0  0
   52.4326   11.5883   13.4247 N   0  0  0  0  0  0  0  0  0  0  0  0
   47.2532    3.4632   17.1966 C   0  0  0  0  0  0  0  0  0  0  0  0
   50.1282    7.1836   15.7022 C   0  0  0  0  0  0  0  0  0  0  0  0
   48.7825    4.4733   18.7264 C   0  0  0  0  0  0  0  0  0  0  0  0
   53.2828   10.5187   13.9859 C   0  0  0  0  0  0  0  0  0  0  0  0
   51.6897   12.2463   14.5189 C   0  0  0  0  0  0  0  0  0  0  0  0
   52.4599    9.5050   14.8168 C   0  0  0  0  0  0  0  0  0  0  0  0
   50.8787   11.2382   15.3687 C   0  0  0  0  0  0  0  0  0  0  0  0
   49.8168    8.4987   16.4286 C   0  0  0  0  0  0  0  0  0  0  0  0
   47.8467    3.4915   18.4532 C   0  0  0  0  0  0  0  0  0  0  0  0
   51.0649    9.2828   16.8589 C   0  0  0  0  0  0  0  0  0  0  0  0
   49.5251    4.5363   20.2788 Cl  0  0  0  0  0  0  0  0  0  0  0  0
   48.4718    7.7022   13.4067 C   0  0  0  0  0  0  0  0  0  0  0  0
   46.5492    5.9112   12.5660 C   0  0  0  0  0  0  0  0  0  0  0  0
   53.2422   12.5607   12.6937 C   0  0  0  0  0  0  0  0  0  0  0  0
   47.7983    7.9158   12.1975 C   0  0  0  0  0  0  0  0  0  0  0  0
   46.8345    7.0173   11.7748 C   0  0  0  0  0  0  0  0  0  0  0  0
   48.8272    7.2805   15.8593 C   0  0  0  0  0  0  0  0  0  0  0  0
   50.6425    8.8691   14.0789 C   0  0  0  0  0  0  0  0  0  0  0  0
   50.2691    7.4289   16.0660 C   0  0  0  0  0  0  0  0  0  0  0  0
   51.0760    8.1725   15.2973 C   0  0  0  0  0  0  0  0  0  0  0  0
   48.2286    6.2224   15.8468 O   0  0  0  0  0  0  0  0  0  0  0  0
   49.6694    8.6427   13.3886 O   0  0  0  0  0  0  0  0  0  0  0  0
   48.2077    8.4683   15.8078 O   0  0  0  0  0  0  0  0  0  0  0  0
   51.5308    9.8273   13.7690 O   0  0  0  0  0  0  0  0  0  0  0  0
   49.3986    9.8943   13.5782 H   0  0  0  0  0  0  0  0  0  0  0  0
   48.0628    7.8770   13.7751 H   0  0  0  0  0  0  0  0  0  0  0  0
   52.5911    8.5890   15.4050 H   0  0  0  0  0  0  0  0  0  0  0  0
   49.7146    6.4695   17.0191 H   0  0  0  0  0  0  0  0  0  0  0  0
   49.8513    6.1691   18.0486 H   0  0  0  0  0  0  0  0  0  0  0  0
   46.5168    2.6901   16.9838 H   0  0  0  0  0  0  0  0  0  0  0  0
   50.8713    6.6045   16.2654 H   0  0  0  0  0  0  0  0  0  0  0  0
   50.6457    7.3552   14.7552 H   0  0  0  0  0  0  0  0  0  0  0  0
   53.7712    9.9750   13.1682 H   0  0  0  0  0  0  0  0  0  0  0  0
   54.0749   10.9435   14.6175 H   0  0  0  0  0  0  0  0  0  0  0  0
   50.9912   12.9785   14.0962 H   0  0  0  0  0  0  0  0  0  0  0  0
   52.3788   12.7931   15.1774 H   0  0  0  0  0  0  0  0  0  0  0  0
   51.7691    8.9961   14.1372 H   0  0  0  0  0  0  0  0  0  0  0  0
   53.1466    8.7543   15.2248 H   0  0  0  0  0  0  0  0  0  0  0  0
   50.4079   11.7878   16.1924 H   0  0  0  0  0  0  0  0  0  0  0  0
   50.0764   10.8230   14.7464 H   0  0  0  0  0  0  0  0  0  0  0  0
   49.1427    9.1280   15.8400 H   0  0  0  0  0  0  0  0  0  0  0  0
   49.2481    8.2733   17.3397 H   0  0  0  0  0  0  0  0  0  0  0  0
   47.5733    2.7543   19.2023 H   0  0  0  0  0  0  0  0  0  0  0  0
   51.8031    8.5888   17.2813 H   0  0  0  0  0  0  0  0  0  0  0  0
   50.7685    9.9117   17.7096 H   0  0  0  0  0  0  0  0  0  0  0  0
   49.1998    8.4604   13.6766 H   0  0  0  0  0  0  0  0  0  0  0  0
   45.7915    5.2083   12.2255 H   0  0  0  0  0  0  0  0  0  0  0  0
   53.7718   12.0744   11.8671 H   0  0  0  0  0  0  0  0  0  0  0  0
   53.9829   13.0525   13.3346 H   0  0  0  0  0  0  0  0  0  0  0  0
   52.6048   13.3327   12.2487 H   0  0  0  0  0  0  0  0  0  0  0  0
   48.0321    8.7901   11.5949 H   0  0  0  0  0  0  0  0  0  0  0  0
   46.3068    7.1734   10.8384 H   0  0  0  0  0  0  0  0  0  0  0  0
   50.6658    6.8645   16.9011 H   0  0  0  0  0  0  0  0  0  0  0  0
   52.1299    8.2547   15.5369 H   0  0  0  0  0  0  0  0  0  0  0  0
   47.2717    8.2412   15.6312 H   0  0  0  0  0  0  0  0  0  0  0  0
   51.1629   10.2282   12.9537 H   0  0  0  0  0  0  0  0  0  0  0  0
  2  4  1  0
  3  1  1  0
  4  3  2  0
  5  1  2  0
  6  2  2  0
  7  1  1  0
  8  2  1  0
 10  9  1  0
 11 14  1  0
 12  9  1  0
 13 10  2  0
 14 12  2  0
 15 10  1  0
 16 27  1  0
 17 22  1  0
 18 13  1  0
 19  9  1  0
 20 15  2  0
 21 23  1  0
 22 24  1  0
 23 16  1  0
 24 16  1  0
 25 19  1  0
 26 20  1  0
 27 25  1  0
 28 20  1  0
 29 12  1  0
 30 14  1  0
 31 17  1  0
 32 29  2  0
 33 30  2  0
 11 13  1  0
 32 33  1  0
 26 18  2  0
 17 21  1  0
 35 37  1  0
 36 34  1  0
 37 36  2  0
 38 34  2  0
 39 35  2  0
 40 34  1  0
 41 35  1  0
  3 42  1  0
  4 43  1  0
  7 44  1  0
  8 45  1  0
 15 46  1  0
 18 47  1  0
 19 48  1  0
 19 49  1  0
 21 50  1  0
 21 51  1  0
 22 52  1  0
 22 53  1  0
 23 54  1  0
 23 55  1  0
 24 56  1  0
 24 57  1  0
 25 58  1  0
 25 59  1  0
 26 60  1  0
 27 61  1  0
 27 62  1  0
 29 63  1  0
 30 64  1  0
 31 65  1  0
 31 66  1  0
 31 67  1  0
 32 68  1  0
 33 69  1  0
 36 70  1  0
 37 71  1  0
 40 72  1  0
 41 73  1  0
M  END
> <Uni-Dock RESULT> 
ENERGY=   -4.303  LOWER_BOUND=    3.190  UPPER_BOUND=    5.413
INTER + INTRA:          -4.303
INTER:                  -4.303
INTRA:                   0.000
UNBOUND:                 0.000

$$$$
