
     RDKit          3D

 73 74  0  0  0  0  0  0  0  0999 V2000
   49.7622    8.3403   13.1440 C   0  0  0  0  0  0  0  0  0  0  0  0
   46.9010    7.6558   12.5404 C   0  0  0  0  0  0  0  0  0  0  0  0
   49.0888    7.1127   13.5881 C   0  0  0  0  0  0  0  0  0  0  0  0
   47.8250    6.7930   13.2795 C   0  0  0  0  0  0  0  0  0  0  0  0
   49.4861    9.0498   12.1977 O   0  0  0  0  0  0  0  0  0  0  0  0
   46.2028    7.2964   11.6116 O   0  0  0  0  0  0  0  0  0  0  0  0
   50.8193    8.5839   13.9354 O   0  0  0  0  0  0  0  0  0  0  0  0
   46.8116    8.8768   13.0866 O   0  0  0  0  0  0  0  0  0  0  0  0
   45.9906    7.2657   12.8815 N   0  0  0  0  0  0  0  0  0  0  0  0
   45.4099    8.4032   12.2466 C   0  0  0  0  0  0  0  0  0  0  0  0
   43.2694    6.8094   11.3549 S   0  0  0  0  0  0  0  0  0  0  0  0
   45.5761    5.9145   12.6944 C   0  0  0  0  0  0  0  0  0  0  0  0
   44.2065    8.3095   11.5159 C   0  0  0  0  0  0  0  0  0  0  0  0
   44.3885    5.5923   12.0058 C   0  0  0  0  0  0  0  0  0  0  0  0
   46.0172    9.6791   12.2886 C   0  0  0  0  0  0  0  0  0  0  0  0
   50.8444    7.8350   13.8767 N   0  0  0  0  0  0  0  0  0  0  0  0
   53.5177    9.2527   13.7772 N   0  0  0  0  0  0  0  0  0  0  0  0
   43.6485    9.4389   10.8829 C   0  0  0  0  0  0  0  0  0  0  0  0
   47.0263    7.5193   13.9104 C   0  0  0  0  0  0  0  0  0  0  0  0
   45.4571   10.7932   11.6551 C   0  0  0  0  0  0  0  0  0  0  0  0
   53.2744    7.9901   14.5003 C   0  0  0  0  0  0  0  0  0  0  0  0
   52.2589    9.8992   13.3696 C   0  0  0  0  0  0  0  0  0  0  0  0
   51.8194    7.7952   14.9827 C   0  0  0  0  0  0  0  0  0  0  0  0
   51.1811    8.8935   12.8996 C   0  0  0  0  0  0  0  0  0  0  0  0
   48.4412    7.5171   13.3133 C   0  0  0  0  0  0  0  0  0  0  0  0
   44.2709   10.6801   10.9515 C   0  0  0  0  0  0  0  0  0  0  0  0
   49.4704    7.9101   14.3808 C   0  0  0  0  0  0  0  0  0  0  0  0
   46.2532   12.3169   11.7483 Cl  0  0  0  0  0  0  0  0  0  0  0  0
   46.3397    4.8198   13.1609 C   0  0  0  0  0  0  0  0  0  0  0  0
   43.9964    4.2514   11.8186 C   0  0  0  0  0  0  0  0  0  0  0  0
   54.3547   10.1727   14.5393 C   0  0  0  0  0  0  0  0  0  0  0  0
   45.9477    3.4887   12.9701 C   0  0  0  0  0  0  0  0  0  0  0  0
   44.7718    3.2030   12.2986 C   0  0  0  0  0  0  0  0  0  0  0  0
   47.3916    8.7360   12.7613 C   0  0  0  0  0  0  0  0  0  0  0  0
   49.3527    7.1934   14.4286 C   0  0  0  0  0  0  0  0  0  0  0  0
   47.8545    7.3764   12.4538 C   0  0  0  0  0  0  0  0  0  0  0  0
   48.6965    6.6765   13.2256 C   0  0  0  0  0  0  0  0  0  0  0  0
   47.3483    9.2882   13.8418 O   0  0  0  0  0  0  0  0  0  0  0  0
   49.4188    6.6088   15.4931 O   0  0  0  0  0  0  0  0  0  0  0  0
   46.9504    9.3252   11.6383 O   0  0  0  0  0  0  0  0  0  0  0  0
   49.9935    8.3468   14.1919 O   0  0  0  0  0  0  0  0  0  0  0  0
   49.6960    6.4271   14.1678 H   0  0  0  0  0  0  0  0  0  0  0  0
   47.4147    5.8305   13.5597 H   0  0  0  0  0  0  0  0  0  0  0  0
   51.1992    9.4087   13.5668 H   0  0  0  0  0  0  0  0  0  0  0  0
   46.2033    9.3604   12.4912 H   0  0  0  0  0  0  0  0  0  0  0  0
   46.9583    9.8389   12.8026 H   0  0  0  0  0  0  0  0  0  0  0  0
   42.7152    9.3521   10.3292 H   0  0  0  0  0  0  0  0  0  0  0  0
   46.9584    6.7909   14.7289 H   0  0  0  0  0  0  0  0  0  0  0  0
   46.8330    8.4676   14.4290 H   0  0  0  0  0  0  0  0  0  0  0  0
   53.5238    7.1695   13.8152 H   0  0  0  0  0  0  0  0  0  0  0  0
   53.9525    7.8781   15.3559 H   0  0  0  0  0  0  0  0  0  0  0  0
   51.8388   10.4882   14.1968 H   0  0  0  0  0  0  0  0  0  0  0  0
   52.4677   10.5993   12.5519 H   0  0  0  0  0  0  0  0  0  0  0  0
   51.5893    8.5649   15.7321 H   0  0  0  0  0  0  0  0  0  0  0  0
   51.7468    6.8233   15.4855 H   0  0  0  0  0  0  0  0  0  0  0  0
   51.5444    8.3936   11.9927 H   0  0  0  0  0  0  0  0  0  0  0  0
   50.2976    9.4666   12.5955 H   0  0  0  0  0  0  0  0  0  0  0  0
   48.6865    6.5255   12.9165 H   0  0  0  0  0  0  0  0  0  0  0  0
   48.4911    8.1985   12.4583 H   0  0  0  0  0  0  0  0  0  0  0  0
   43.8288   11.5398   10.4568 H   0  0  0  0  0  0  0  0  0  0  0  0
   49.2553    8.9126   14.7728 H   0  0  0  0  0  0  0  0  0  0  0  0
   49.3568    7.2096   15.2188 H   0  0  0  0  0  0  0  0  0  0  0  0
   47.2835    4.9622   13.6762 H   0  0  0  0  0  0  0  0  0  0  0  0
   43.0732    4.0189   11.2913 H   0  0  0  0  0  0  0  0  0  0  0  0
   53.8932   10.4578   15.4915 H   0  0  0  0  0  0  0  0  0  0  0  0
   54.5502   11.0840   13.9630 H   0  0  0  0  0  0  0  0  0  0  0  0
   55.3300    9.7201   14.7499 H   0  0  0  0  0  0  0  0  0  0  0  0
   46.5722    2.6814   13.3445 H   0  0  0  0  0  0  0  0  0  0  0  0
   44.4596    2.1740   12.1445 H   0  0  0  0  0  0  0  0  0  0  0  0
   47.4373    6.9286   11.5592 H   0  0  0  0  0  0  0  0  0  0  0  0
   48.9288    5.6440   12.9948 H   0  0  0  0  0  0  0  0  0  0  0  0
   46.6659   10.2137   11.9393 H   0  0  0  0  0  0  0  0  0  0  0  0
   50.3553    8.6021   15.0654 H   0  0  0  0  0  0  0  0  0  0  0  0
  2  4  1  0
  3  1  1  0
  4  3  2  0
  5  1  2  0
  6  2  2  0
  7  1  1  0
  8  2  1  0
 10  9  1  0
 11 14  1  0
 12  9  1  0
 13 10  2  0
 14 12  2  0
 15 10  1  0
 16 27  1  0
 17 22  1  0
 18 13  1  0
 19  9  1  0
 20 15  2  0
 21 23  1  0
 22 24  1  0
 23 16  1  0
 24 16  1  0
 25 19  1  0
 26 20  1  0
 27 25  1  0
 28 20  1  0
 29 12  1  0
 30 14  1  0
 31 17  1  0
 32 29  2  0
 33 30  2  0
 11 13  1  0
 32 33  1  0
 26 18  2  0
 17 21  1  0
 35 37  1  0
 36 34  1  0
 37 36  2  0
 38 34  2  0
 39 35  2  0
 40 34  1  0
 41 35  1  0
  3 42  1  0
  4 43  1  0
  7 44  1  0
  8 45  1  0
 15 46  1  0
 18 47  1  0
 19 48  1  0
 19 49  1  0
 21 50  1  0
 21 51  1  0
 22 52  1  0
 22 53  1  0
 23 54  1  0
 23 55  1  0
 24 56  1  0
 24 57  1  0
 25 58  1  0
 25 59  1  0
 26 60  1  0
 27 61  1  0
 27 62  1  0
 29 63  1  0
 30 64  1  0
 31 65  1  0
 31 66  1  0
 31 67  1  0
 32 68  1  0
 33 69  1  0
 36 70  1  0
 37 71  1  0
 40 72  1  0
 41 73  1  0
M  END
> <Uni-Dock RESULT> 
ENERGY=   -6.078  LOWER_BOUND=    0.000  UPPER_BOUND=    0.000
INTER + INTRA:          -6.078
INTER:                  -6.078
INTRA:                   0.000
UNBOUND:                 0.000

$$$$

     RDKit          3D

 73 74  0  0  0  0  0  0  0  0999 V2000
   48.9822    7.1527   14.9921 C   0  0  0  0  0  0  0  0  0  0  0  0
   46.8001    7.9449   13.0869 C   0  0  0  0  0  0  0  0  0  0  0  0
   48.9683    8.3989   14.2146 C   0  0  0  0  0  0  0  0  0  0  0  0
   47.9715    8.7665   13.3987 C   0  0  0  0  0  0  0  0  0  0  0  0
   48.0396    6.4633   15.3256 O   0  0  0  0  0  0  0  0  0  0  0  0
   45.6493    8.3385   13.0968 O   0  0  0  0  0  0  0  0  0  0  0  0
   50.2426    6.8635   15.3541 O   0  0  0  0  0  0  0  0  0  0  0  0
   47.1462    6.7222   12.6596 O   0  0  0  0  0  0  0  0  0  0  0  0
   46.5365    8.3636   12.1635 N   0  0  0  0  0  0  0  0  0  0  0  0
   45.6466    7.2542   12.0570 C   0  0  0  0  0  0  0  0  0  0  0  0
   43.6948    8.9323   10.9207 S   0  0  0  0  0  0  0  0  0  0  0  0
   46.1780    9.7306   11.9754 C   0  0  0  0  0  0  0  0  0  0  0  0
   44.3424    7.3982   11.5384 C   0  0  0  0  0  0  0  0  0  0  0  0
   44.9237   10.1020   11.4492 C   0  0  0  0  0  0  0  0  0  0  0  0
   46.0074    5.9571   12.4881 C   0  0  0  0  0  0  0  0  0  0  0  0
   50.2331    7.6116   15.4261 N   0  0  0  0  0  0  0  0  0  0  0  0
   51.7191    6.1007   17.5883 N   0  0  0  0  0  0  0  0  0  0  0  0
   43.4679    6.2960   11.4489 C   0  0  0  0  0  0  0  0  0  0  0  0
   47.9733    8.0627   12.3653 C   0  0  0  0  0  0  0  0  0  0  0  0
   45.1317    4.8703   12.3976 C   0  0  0  0  0  0  0  0  0  0  0  0
   52.1876    7.3636   16.9869 C   0  0  0  0  0  0  0  0  0  0  0  0
   50.6175    5.5036   16.8145 C   0  0  0  0  0  0  0  0  0  0  0  0
   51.7036    7.6052   15.5394 C   0  0  0  0  0  0  0  0  0  0  0  0
   49.6239    6.5519   16.2596 C   0  0  0  0  0  0  0  0  0  0  0  0
   48.3475    8.0207   13.8541 C   0  0  0  0  0  0  0  0  0  0  0  0
   43.8601    5.0327   11.8769 C   0  0  0  0  0  0  0  0  0  0  0  0
   49.8071    7.5802   14.0243 C   0  0  0  0  0  0  0  0  0  0  0  0
   45.6397    3.3182   12.9431 Cl  0  0  0  0  0  0  0  0  0  0  0  0
   47.0421   10.7925   12.3284 C   0  0  0  0  0  0  0  0  0  0  0  0
   44.5782   11.4579   11.2787 C   0  0  0  0  0  0  0  0  0  0  0  0
   52.8036    5.1436   17.7772 C   0  0  0  0  0  0  0  0  0  0  0  0
   46.6936   12.1386   12.1600 C   0  0  0  0  0  0  0  0  0  0  0  0
   45.4588   12.4730   11.6320 C   0  0  0  0  0  0  0  0  0  0  0  0
   47.2394    6.8457   13.3216 C   0  0  0  0  0  0  0  0  0  0  0  0
   49.7957    8.3001   13.9174 C   0  0  0  0  0  0  0  0  0  0  0  0
   47.3126    8.1910   13.9064 C   0  0  0  0  0  0  0  0  0  0  0  0
   48.4560    8.8525   14.1293 C   0  0  0  0  0  0  0  0  0  0  0  0
   48.0597    6.2842   12.6242 O   0  0  0  0  0  0  0  0  0  0  0  0
   50.7027    8.8710   13.3424 O   0  0  0  0  0  0  0  0  0  0  0  0
   46.0600    6.2842   13.6323 O   0  0  0  0  0  0  0  0  0  0  0  0
   49.9578    7.1272   14.5458 O   0  0  0  0  0  0  0  0  0  0  0  0
   49.8167    9.0564   14.3655 H   0  0  0  0  0  0  0  0  0  0  0  0
   47.9770    9.7401   12.9239 H   0  0  0  0  0  0  0  0  0  0  0  0
   50.1523    6.0295   15.8608 H   0  0  0  0  0  0  0  0  0  0  0  0
   46.2906    6.2668   12.5217 H   0  0  0  0  0  0  0  0  0  0  0  0
   46.9791    5.7586   12.9263 H   0  0  0  0  0  0  0  0  0  0  0  0
   42.4671    6.4217   11.0393 H   0  0  0  0  0  0  0  0  0  0  0  0
   48.6077    8.7846   11.8345 H   0  0  0  0  0  0  0  0  0  0  0  0
   48.2430    7.1166   11.8777 H   0  0  0  0  0  0  0  0  0  0  0  0
   51.8149    8.1818   17.6167 H   0  0  0  0  0  0  0  0  0  0  0  0
   53.2818    7.4425   17.0156 H   0  0  0  0  0  0  0  0  0  0  0  0
   51.0079    4.9214   15.9682 H   0  0  0  0  0  0  0  0  0  0  0  0
   50.0694    4.8050   17.4579 H   0  0  0  0  0  0  0  0  0  0  0  0
   52.1407    6.8365   14.8875 H   0  0  0  0  0  0  0  0  0  0  0  0
   52.0903    8.5738   15.2004 H   0  0  0  0  0  0  0  0  0  0  0  0
   49.1331    7.0479   17.1066 H   0  0  0  0  0  0  0  0  0  0  0  0
   48.8329    6.0138   15.7247 H   0  0  0  0  0  0  0  0  0  0  0  0
   48.2076    9.0069   14.3109 H   0  0  0  0  0  0  0  0  0  0  0  0
   47.6746    7.3467   14.3935 H   0  0  0  0  0  0  0  0  0  0  0  0
   43.1737    4.1945   11.8026 H   0  0  0  0  0  0  0  0  0  0  0  0
   49.9609    6.5821   13.5944 H   0  0  0  0  0  0  0  0  0  0  0  0
   50.4286    8.2756   13.4447 H   0  0  0  0  0  0  0  0  0  0  0  0
   48.0169   10.6113   12.7684 H   0  0  0  0  0  0  0  0  0  0  0  0
   43.6089   11.7285   10.8644 H   0  0  0  0  0  0  0  0  0  0  0  0
   53.2779    4.8653   16.8293 H   0  0  0  0  0  0  0  0  0  0  0  0
   52.4340    4.2320   18.2598 H   0  0  0  0  0  0  0  0  0  0  0  0
   53.5717    5.5590   18.4390 H   0  0  0  0  0  0  0  0  0  0  0  0
   47.3920   12.9193   12.4510 H   0  0  0  0  0  0  0  0  0  0  0  0
   45.1786   13.5139   11.4984 H   0  0  0  0  0  0  0  0  0  0  0  0
   46.3608    8.6626   14.1218 H   0  0  0  0  0  0  0  0  0  0  0  0
   48.4420    9.8784   14.4767 H   0  0  0  0  0  0  0  0  0  0  0  0
   46.1029    5.4034   13.2043 H   0  0  0  0  0  0  0  0  0  0  0  0
   50.8652    6.8502   14.3031 H   0  0  0  0  0  0  0  0  0  0  0  0
  2  4  1  0
  3  1  1  0
  4  3  2  0
  5  1  2  0
  6  2  2  0
  7  1  1  0
  8  2  1  0
 10  9  1  0
 11 14  1  0
 12  9  1  0
 13 10  2  0
 14 12  2  0
 15 10  1  0
 16 27  1  0
 17 22  1  0
 18 13  1  0
 19  9  1  0
 20 15  2  0
 21 23  1  0
 22 24  1  0
 23 16  1  0
 24 16  1  0
 25 19  1  0
 26 20  1  0
 27 25  1  0
 28 20  1  0
 29 12  1  0
 30 14  1  0
 31 17  1  0
 32 29  2  0
 33 30  2  0
 11 13  1  0
 32 33  1  0
 26 18  2  0
 17 21  1  0
 35 37  1  0
 36 34  1  0
 37 36  2  0
 38 34  2  0
 39 35  2  0
 40 34  1  0
 41 35  1  0
  3 42  1  0
  4 43  1  0
  7 44  1  0
  8 45  1  0
 15 46  1  0
 18 47  1  0
 19 48  1  0
 19 49  1  0
 21 50  1  0
 21 51  1  0
 22 52  1  0
 22 53  1  0
 23 54  1  0
 23 55  1  0
 24 56  1  0
 24 57  1  0
 25 58  1  0
 25 59  1  0
 26 60  1  0
 27 61  1  0
 27 62  1  0
 29 63  1  0
 30 64  1  0
 31 65  1  0
 31 66  1  0
 31 67  1  0
 32 68  1  0
 33 69  1  0
 36 70  1  0
 37 71  1  0
 40 72  1  0
 41 73  1  0
M  END
> <Uni-Dock RESULT> 
ENERGY=   -5.979  LOWER_BOUND=    2.135  UPPER_BOUND=    4.145
INTER + INTRA:          -5.979
INTER:                  -5.979
INTRA:                   0.000
UNBOUND:                 0.000

$$$$

     RDKit          3D

 73 74  0  0  0  0  0  0  0  0999 V2000
   49.8627    8.4711   12.9242 C   0  0  0  0  0  0  0  0  0  0  0  0
   47.0137    7.6800   12.3982 C   0  0  0  0  0  0  0  0  0  0  0  0
   49.2354    7.2399   13.4226 C   0  0  0  0  0  0  0  0  0  0  0  0
   47.9768    6.8717   13.1489 C   0  0  0  0  0  0  0  0  0  0  0  0
   49.5482    9.1386   11.9596 O   0  0  0  0  0  0  0  0  0  0  0  0
   46.3106    7.2677   11.4955 O   0  0  0  0  0  0  0  0  0  0  0  0
   50.9257    8.7738   13.6869 O   0  0  0  0  0  0  0  0  0  0  0  0
   46.8965    8.9160   12.9040 O   0  0  0  0  0  0  0  0  0  0  0  0
   46.1219    7.2748   12.7695 N   0  0  0  0  0  0  0  0  0  0  0  0
   45.4954    8.3714   12.1070 C   0  0  0  0  0  0  0  0  0  0  0  0
   43.3895    6.6838   11.3107 S   0  0  0  0  0  0  0  0  0  0  0  0
   45.7460    5.9060   12.6364 C   0  0  0  0  0  0  0  0  0  0  0  0
   44.2827    8.2162   11.4028 C   0  0  0  0  0  0  0  0  0  0  0  0
   44.5569    5.5244   11.9818 C   0  0  0  0  0  0  0  0  0  0  0  0
   46.0637    9.6658   12.0940 C   0  0  0  0  0  0  0  0  0  0  0  0
   50.9728    8.0244   13.6533 N   0  0  0  0  0  0  0  0  0  0  0  0
   53.5990    9.5177   13.4552 N   0  0  0  0  0  0  0  0  0  0  0  0
   43.6790    9.3056   10.7422 C   0  0  0  0  0  0  0  0  0  0  0  0
   47.1674    7.5950   13.7694 C   0  0  0  0  0  0  0  0  0  0  0  0
   45.4584   10.7397   11.4334 C   0  0  0  0  0  0  0  0  0  0  0  0
   53.4075    8.2743   14.2254 C   0  0  0  0  0  0  0  0  0  0  0  0
   52.3138   10.1115   13.0495 C   0  0  0  0  0  0  0  0  0  0  0  0
   51.9680    8.0525   14.7415 C   0  0  0  0  0  0  0  0  0  0  0  0
   51.2594    9.0580   12.6344 C   0  0  0  0  0  0  0  0  0  0  0  0
   48.5710    7.6148   13.1463 C   0  0  0  0  0  0  0  0  0  0  0  0
   44.2640   10.5666   10.7566 C   0  0  0  0  0  0  0  0  0  0  0  0
   49.6063    8.0755   14.1803 C   0  0  0  0  0  0  0  0  0  0  0  0
   46.2087   12.2892   11.4596 Cl  0  0  0  0  0  0  0  0  0  0  0  0
   46.5511    4.8516   13.1257 C   0  0  0  0  0  0  0  0  0  0  0  0
   44.2030    4.1666   11.8479 C   0  0  0  0  0  0  0  0  0  0  0  0
   54.4207   10.4885   14.1695 C   0  0  0  0  0  0  0  0  0  0  0  0
   46.1970    3.5035   12.9879 C   0  0  0  0  0  0  0  0  0  0  0  0
   45.0187    3.1593   12.3487 C   0  0  0  0  0  0  0  0  0  0  0  0
   47.4747    8.7815   12.5728 C   0  0  0  0  0  0  0  0  0  0  0  0
   49.5116    7.3577   14.2548 C   0  0  0  0  0  0  0  0  0  0  0  0
   47.9737    7.4267   12.3033 C   0  0  0  0  0  0  0  0  0  0  0  0
   48.8504    6.7797   13.0827 C   0  0  0  0  0  0  0  0  0  0  0  0
   47.4335    9.3694   13.6345 O   0  0  0  0  0  0  0  0  0  0  0  0
   49.6145    6.8127   15.3371 O   0  0  0  0  0  0  0  0  0  0  0  0
   46.9957    9.3179   11.4389 O   0  0  0  0  0  0  0  0  0  0  0  0
   50.1122    8.5209   13.9668 O   0  0  0  0  0  0  0  0  0  0  0  0
   49.8737    6.5935   14.0139 H   0  0  0  0  0  0  0  0  0  0  0  0
   47.6014    5.9075   13.4695 H   0  0  0  0  0  0  0  0  0  0  0  0
   51.2734    9.5964   13.2832 H   0  0  0  0  0  0  0  0  0  0  0  0
   46.2631    9.3601   12.3039 H   0  0  0  0  0  0  0  0  0  0  0  0
   47.0084    9.8716   12.5845 H   0  0  0  0  0  0  0  0  0  0  0  0
   42.7391    9.1714   10.2093 H   0  0  0  0  0  0  0  0  0  0  0  0
   47.1366    6.8937   14.6136 H   0  0  0  0  0  0  0  0  0  0  0  0
   46.9542    8.5545   14.2589 H   0  0  0  0  0  0  0  0  0  0  0  0
   53.6699    7.4383   13.5642 H   0  0  0  0  0  0  0  0  0  0  0  0
   54.1038    8.2126   15.0715 H   0  0  0  0  0  0  0  0  0  0  0  0
   51.8906   10.7159   13.8638 H   0  0  0  0  0  0  0  0  0  0  0  0
   52.4865   10.7887   12.2045 H   0  0  0  0  0  0  0  0  0  0  0  0
   51.7276    8.8405   15.4683 H   0  0  0  0  0  0  0  0  0  0  0  0
   51.9344    7.0969   15.2785 H   0  0  0  0  0  0  0  0  0  0  0  0
   51.6217    8.5381   11.7385 H   0  0  0  0  0  0  0  0  0  0  0  0
   50.3534    9.5933   12.3276 H   0  0  0  0  0  0  0  0  0  0  0  0
   48.8396    6.6179   12.7791 H   0  0  0  0  0  0  0  0  0  0  0  0
   48.5847    8.2673   12.2677 H   0  0  0  0  0  0  0  0  0  0  0  0
   43.7869   11.3949   10.2412 H   0  0  0  0  0  0  0  0  0  0  0  0
   49.3675    9.0840   14.5417 H   0  0  0  0  0  0  0  0  0  0  0  0
   49.5292    7.4014   15.0436 H   0  0  0  0  0  0  0  0  0  0  0  0
   47.4991    5.0403   13.6180 H   0  0  0  0  0  0  0  0  0  0  0  0
   43.2782    3.8881   11.3463 H   0  0  0  0  0  0  0  0  0  0  0  0
   53.9676   10.7925   15.1199 H   0  0  0  0  0  0  0  0  0  0  0  0
   54.5777   11.3847   13.5589 H   0  0  0  0  0  0  0  0  0  0  0  0
   55.4130   10.0731   14.3772 H   0  0  0  0  0  0  0  0  0  0  0  0
   46.8525    2.7289   13.3779 H   0  0  0  0  0  0  0  0  0  0  0  0
   44.7356    2.1167   12.2358 H   0  0  0  0  0  0  0  0  0  0  0  0
   47.5547    6.9357   11.4326 H   0  0  0  0  0  0  0  0  0  0  0  0
   49.1103    5.7473   12.8829 H   0  0  0  0  0  0  0  0  0  0  0  0
   46.6894   10.2072   11.7146 H   0  0  0  0  0  0  0  0  0  0  0  0
   50.4815    8.8172   14.8240 H   0  0  0  0  0  0  0  0  0  0  0  0
  2  4  1  0
  3  1  1  0
  4  3  2  0
  5  1  2  0
  6  2  2  0
  7  1  1  0
  8  2  1  0
 10  9  1  0
 11 14  1  0
 12  9  1  0
 13 10  2  0
 14 12  2  0
 15 10  1  0
 16 27  1  0
 17 22  1  0
 18 13  1  0
 19  9  1  0
 20 15  2  0
 21 23  1  0
 22 24  1  0
 23 16  1  0
 24 16  1  0
 25 19  1  0
 26 20  1  0
 27 25  1  0
 28 20  1  0
 29 12  1  0
 30 14  1  0
 31 17  1  0
 32 29  2  0
 33 30  2  0
 11 13  1  0
 32 33  1  0
 26 18  2  0
 17 21  1  0
 35 37  1  0
 36 34  1  0
 37 36  2  0
 38 34  2  0
 39 35  2  0
 40 34  1  0
 41 35  1  0
  3 42  1  0
  4 43  1  0
  7 44  1  0
  8 45  1  0
 15 46  1  0
 18 47  1  0
 19 48  1  0
 19 49  1  0
 21 50  1  0
 21 51  1  0
 22 52  1  0
 22 53  1  0
 23 54  1  0
 23 55  1  0
 24 56  1  0
 24 57  1  0
 25 58  1  0
 25 59  1  0
 26 60  1  0
 27 61  1  0
 27 62  1  0
 29 63  1  0
 30 64  1  0
 31 65  1  0
 31 66  1  0
 31 67  1  0
 32 68  1  0
 33 69  1  0
 36 70  1  0
 37 71  1  0
 40 72  1  0
 41 73  1  0
M  END
> <Uni-Dock RESULT> 
ENERGY=   -5.719  LOWER_BOUND=    0.268  UPPER_BOUND=    0.268
INTER + INTRA:          -5.719
INTER:                  -5.719
INTRA:                   0.000
UNBOUND:                 0.000

$$$$

     RDKit          3D

 73 74  0  0  0  0  0  0  0  0999 V2000
   47.5858    7.0822   12.8385 C   0  0  0  0  0  0  0  0  0  0  0  0
   50.2746    8.3319   13.3154 C   0  0  0  0  0  0  0  0  0  0  0  0
   48.0590    8.3114   12.1884 C   0  0  0  0  0  0  0  0  0  0  0  0
   49.2759    8.8405   12.3728 C   0  0  0  0  0  0  0  0  0  0  0  0
   48.2458    6.1808   13.3150 O   0  0  0  0  0  0  0  0  0  0  0  0
   51.4487    8.1486   13.0561 O   0  0  0  0  0  0  0  0  0  0  0  0
   46.2438    7.0457   12.8068 O   0  0  0  0  0  0  0  0  0  0  0  0
   49.7754    8.2056   14.5531 O   0  0  0  0  0  0  0  0  0  0  0  0
   50.8342    9.2053   13.4616 N   0  0  0  0  0  0  0  0  0  0  0  0
   51.4543    8.4798   14.5214 C   0  0  0  0  0  0  0  0  0  0  0  0
   53.9417    9.5971   13.8273 S   0  0  0  0  0  0  0  0  0  0  0  0
   51.5219    9.9008   12.4243 C   0  0  0  0  0  0  0  0  0  0  0  0
   52.8423    8.5611   14.7614 C   0  0  0  0  0  0  0  0  0  0  0  0
   52.9151   10.1130   12.4718 C   0  0  0  0  0  0  0  0  0  0  0  0
   50.7229    7.6196   15.3720 C   0  0  0  0  0  0  0  0  0  0  0  0
   46.4024    7.3420   12.1346 N   0  0  0  0  0  0  0  0  0  0  0  0
   44.1517    5.3175   12.1820 N   0  0  0  0  0  0  0  0  0  0  0  0
   53.4455    7.8300   15.8052 C   0  0  0  0  0  0  0  0  0  0  0  0
   49.3604    9.3502   13.5114 C   0  0  0  0  0  0  0  0  0  0  0  0
   51.3309    6.8963   16.4032 C   0  0  0  0  0  0  0  0  0  0  0  0
   44.1310    6.5630   11.3919 C   0  0  0  0  0  0  0  0  0  0  0  0
   45.2431    5.3169   13.1709 C   0  0  0  0  0  0  0  0  0  0  0  0
   44.9829    7.7110   11.9783 C   0  0  0  0  0  0  0  0  0  0  0  0
   46.5469    5.9593   12.6404 C   0  0  0  0  0  0  0  0  0  0  0  0
   48.6470    8.2291   12.7415 C   0  0  0  0  0  0  0  0  0  0  0  0
   52.6926    6.9985   16.6265 C   0  0  0  0  0  0  0  0  0  0  0  0
   47.1280    8.3403   12.9248 C   0  0  0  0  0  0  0  0  0  0  0  0
   50.3766    5.8668   17.4002 Cl  0  0  0  0  0  0  0  0  0  0  0  0
   50.8577   10.3936   11.2775 C   0  0  0  0  0  0  0  0  0  0  0  0
   53.5838   10.7929   11.4338 C   0  0  0  0  0  0  0  0  0  0  0  0
   42.8683    5.0472   12.8203 C   0  0  0  0  0  0  0  0  0  0  0  0
   51.5266   11.0660   10.2470 C   0  0  0  0  0  0  0  0  0  0  0  0
   52.8935   11.2682   10.3254 C   0  0  0  0  0  0  0  0  0  0  0  0
   49.5592    7.7522   14.0953 C   0  0  0  0  0  0  0  0  0  0  0  0
   47.3241    8.7690   12.3702 C   0  0  0  0  0  0  0  0  0  0  0  0
   49.6518    7.9408   12.6416 C   0  0  0  0  0  0  0  0  0  0  0  0
   48.6648    8.4365   11.8836 C   0  0  0  0  0  0  0  0  0  0  0  0
   48.8220    8.3136   14.8800 O   0  0  0  0  0  0  0  0  0  0  0  0
   46.7282    9.8001   12.1233 O   0  0  0  0  0  0  0  0  0  0  0  0
   50.4770    6.8559   14.4916 O   0  0  0  0  0  0  0  0  0  0  0  0
   46.7619    7.7439   13.0260 O   0  0  0  0  0  0  0  0  0  0  0  0
   47.3672    8.7709   11.4920 H   0  0  0  0  0  0  0  0  0  0  0  0
   49.5989    9.6973   11.7943 H   0  0  0  0  0  0  0  0  0  0  0  0
   46.0245    6.2027   13.2560 H   0  0  0  0  0  0  0  0  0  0  0  0
   50.5161    7.8299   15.0716 H   0  0  0  0  0  0  0  0  0  0  0  0
   49.6564    7.4729   15.2434 H   0  0  0  0  0  0  0  0  0  0  0  0
   54.5166    7.9093   15.9826 H   0  0  0  0  0  0  0  0  0  0  0  0
   49.0457   10.3312   13.1321 H   0  0  0  0  0  0  0  0  0  0  0  0
   49.0093    9.3816   14.5513 H   0  0  0  0  0  0  0  0  0  0  0  0
   44.5176    6.3213   10.3933 H   0  0  0  0  0  0  0  0  0  0  0  0
   43.1065    6.9233   11.2336 H   0  0  0  0  0  0  0  0  0  0  0  0
   44.9431    5.8545   14.0811 H   0  0  0  0  0  0  0  0  0  0  0  0
   45.4549    4.2821   13.4654 H   0  0  0  0  0  0  0  0  0  0  0  0
   44.5516    8.0149   12.9418 H   0  0  0  0  0  0  0  0  0  0  0  0
   44.9124    8.5748   11.3063 H   0  0  0  0  0  0  0  0  0  0  0  0
   46.9226    5.3481   11.8100 H   0  0  0  0  0  0  0  0  0  0  0  0
   47.3014    5.8895   13.4326 H   0  0  0  0  0  0  0  0  0  0  0  0
   48.8915    8.2833   11.6747 H   0  0  0  0  0  0  0  0  0  0  0  0
   49.0069    7.2519   13.0783 H   0  0  0  0  0  0  0  0  0  0  0  0
   53.1729    6.4408   17.4250 H   0  0  0  0  0  0  0  0  0  0  0  0
   46.8614    8.2629   13.9867 H   0  0  0  0  0  0  0  0  0  0  0  0
   46.8310    9.3445   12.5944 H   0  0  0  0  0  0  0  0  0  0  0  0
   49.7916   10.2546   11.1332 H   0  0  0  0  0  0  0  0  0  0  0  0
   54.6586   10.9554   11.4884 H   0  0  0  0  0  0  0  0  0  0  0  0
   42.5804    5.8401   13.5198 H   0  0  0  0  0  0  0  0  0  0  0  0
   42.9016    4.0985   13.3674 H   0  0  0  0  0  0  0  0  0  0  0  0
   42.0784    4.9471   12.0676 H   0  0  0  0  0  0  0  0  0  0  0  0
   50.9711   11.4225    9.3831 H   0  0  0  0  0  0  0  0  0  0  0  0
   53.4217   11.7876    9.5310 H   0  0  0  0  0  0  0  0  0  0  0  0
   50.6067    7.6893   12.1947 H   0  0  0  0  0  0  0  0  0  0  0  0
   48.8247    8.6389   10.8315 H   0  0  0  0  0  0  0  0  0  0  0  0
   50.3410    6.7981   15.4606 H   0  0  0  0  0  0  0  0  0  0  0  0
   45.8988    8.0968   13.3250 H   0  0  0  0  0  0  0  0  0  0  0  0
  2  4  1  0
  3  1  1  0
  4  3  2  0
  5  1  2  0
  6  2  2  0
  7  1  1  0
  8  2  1  0
 10  9  1  0
 11 14  1  0
 12  9  1  0
 13 10  2  0
 14 12  2  0
 15 10  1  0
 16 27  1  0
 17 22  1  0
 18 13  1  0
 19  9  1  0
 20 15  2  0
 21 23  1  0
 22 24  1  0
 23 16  1  0
 24 16  1  0
 25 19  1  0
 26 20  1  0
 27 25  1  0
 28 20  1  0
 29 12  1  0
 30 14  1  0
 31 17  1  0
 32 29  2  0
 33 30  2  0
 11 13  1  0
 32 33  1  0
 26 18  2  0
 17 21  1  0
 35 37  1  0
 36 34  1  0
 37 36  2  0
 38 34  2  0
 39 35  2  0
 40 34  1  0
 41 35  1  0
  3 42  1  0
  4 43  1  0
  7 44  1  0
  8 45  1  0
 15 46  1  0
 18 47  1  0
 19 48  1  0
 19 49  1  0
 21 50  1  0
 21 51  1  0
 22 52  1  0
 22 53  1  0
 23 54  1  0
 23 55  1  0
 24 56  1  0
 24 57  1  0
 25 58  1  0
 25 59  1  0
 26 60  1  0
 27 61  1  0
 27 62  1  0
 29 63  1  0
 30 64  1  0
 31 65  1  0
 31 66  1  0
 31 67  1  0
 32 68  1  0
 33 69  1  0
 36 70  1  0
 37 71  1  0
 40 72  1  0
 41 73  1  0
M  END
> <Uni-Dock RESULT> 
ENERGY=   -5.004  LOWER_BOUND=    2.738  UPPER_BOUND=    7.073
INTER + INTRA:          -5.004
INTER:                  -5.004
INTRA:                   0.000
UNBOUND:                 0.000

$$$$

     RDKit          3D

 73 74  0  0  0  0  0  0  0  0999 V2000
   48.8425   11.0045   18.0550 C   0  0  0  0  0  0  0  0  0  0  0  0
   48.3278    8.3877   19.4359 C   0  0  0  0  0  0  0  0  0  0  0  0
   48.0943   10.8594   19.3108 C   0  0  0  0  0  0  0  0  0  0  0  0
   47.9047    9.6943   19.9442 C   0  0  0  0  0  0  0  0  0  0  0  0
   49.6785   10.2583   17.5866 O   0  0  0  0  0  0  0  0  0  0  0  0
   48.9148    7.5434   20.0853 O   0  0  0  0  0  0  0  0  0  0  0  0
   48.5029   12.1600   17.4611 O   0  0  0  0  0  0  0  0  0  0  0  0
   47.8808    8.1666   18.1915 O   0  0  0  0  0  0  0  0  0  0  0  0
   47.6547    7.7748   19.9543 N   0  0  0  0  0  0  0  0  0  0  0  0
   48.1248    6.7424   19.0899 C   0  0  0  0  0  0  0  0  0  0  0  0
   48.0666    4.9232   21.2355 S   0  0  0  0  0  0  0  0  0  0  0  0
   47.5772    7.6902   21.3753 C   0  0  0  0  0  0  0  0  0  0  0  0
   48.3669    5.4348   19.5615 C   0  0  0  0  0  0  0  0  0  0  0  0
   47.7683    6.4706   22.0565 C   0  0  0  0  0  0  0  0  0  0  0  0
   48.4005    6.9741   17.7229 C   0  0  0  0  0  0  0  0  0  0  0  0
   48.5093   12.3592   18.1858 N   0  0  0  0  0  0  0  0  0  0  0  0
   49.6670   14.3834   16.2549 N   0  0  0  0  0  0  0  0  0  0  0  0
   48.8425    4.4256   18.6996 C   0  0  0  0  0  0  0  0  0  0  0  0
   47.0873    8.9861   19.3168 C   0  0  0  0  0  0  0  0  0  0  0  0
   48.8748    5.9669   16.8762 C   0  0  0  0  0  0  0  0  0  0  0  0
   48.8105   14.7293   17.4050 C   0  0  0  0  0  0  0  0  0  0  0  0
   49.6452   12.9379   15.9737 C   0  0  0  0  0  0  0  0  0  0  0  0
   47.8259   13.6173   17.8312 C   0  0  0  0  0  0  0  0  0  0  0  0
   49.6201   12.0682   17.2531 C   0  0  0  0  0  0  0  0  0  0  0  0
   48.1492   10.0757   19.1076 C   0  0  0  0  0  0  0  0  0  0  0  0
   49.0963    4.6890   17.3583 C   0  0  0  0  0  0  0  0  0  0  0  0
   47.5541   11.2573   18.3310 C   0  0  0  0  0  0  0  0  0  0  0  0
   49.1894    6.3222   15.2212 Cl  0  0  0  0  0  0  0  0  0  0  0  0
   47.3327    8.8224   22.1862 C   0  0  0  0  0  0  0  0  0  0  0  0
   47.6997    6.4035   23.4628 C   0  0  0  0  0  0  0  0  0  0  0  0
   49.3278   15.1527   15.0629 C   0  0  0  0  0  0  0  0  0  0  0  0
   47.2682    8.7518   23.5836 C   0  0  0  0  0  0  0  0  0  0  0  0
   47.4504    7.5388   24.2244 C   0  0  0  0  0  0  0  0  0  0  0  0
   48.3804    8.6233   18.2536 C   0  0  0  0  0  0  0  0  0  0  0  0
   47.4127   11.3533   19.0386 C   0  0  0  0  0  0  0  0  0  0  0  0
   48.7283    9.2981   19.5110 C   0  0  0  0  0  0  0  0  0  0  0  0
   48.2579   10.4983   19.8751 C   0  0  0  0  0  0  0  0  0  0  0  0
   47.4015    8.7938   17.5556 O   0  0  0  0  0  0  0  0  0  0  0  0
   46.4011   11.9149   19.4133 O   0  0  0  0  0  0  0  0  0  0  0  0
   49.3126    7.7008   17.9658 O   0  0  0  0  0  0  0  0  0  0  0  0
   47.9505   11.5562   17.8276 O   0  0  0  0  0  0  0  0  0  0  0  0
   47.7197   11.7798   19.7435 H   0  0  0  0  0  0  0  0  0  0  0  0
   47.4236    9.6651   20.9142 H   0  0  0  0  0  0  0  0  0  0  0  0
   49.0449   12.1686   16.6446 H   0  0  0  0  0  0  0  0  0  0  0  0
   48.2542    7.2927   17.9559 H   0  0  0  0  0  0  0  0  0  0  0  0
   48.2712    7.9553   17.2801 H   0  0  0  0  0  0  0  0  0  0  0  0
   49.0172    3.4195   19.0769 H   0  0  0  0  0  0  0  0  0  0  0  0
   46.2455    9.3831   19.8992 H   0  0  0  0  0  0  0  0  0  0  0  0
   46.6080    8.7328   18.3620 H   0  0  0  0  0  0  0  0  0  0  0  0
   49.4747   14.9456   18.2518 H   0  0  0  0  0  0  0  0  0  0  0  0
   48.2484   15.6546   17.2255 H   0  0  0  0  0  0  0  0  0  0  0  0
   48.7702   12.6738   15.3638 H   0  0  0  0  0  0  0  0  0  0  0  0
   50.5345   12.6767   15.3877 H   0  0  0  0  0  0  0  0  0  0  0  0
   47.1050   13.4528   17.0187 H   0  0  0  0  0  0  0  0  0  0  0  0
   47.2577   13.9701   18.7004 H   0  0  0  0  0  0  0  0  0  0  0  0
   50.5558   12.2313   17.8026 H   0  0  0  0  0  0  0  0  0  0  0  0
   49.6306   11.0166   16.9438 H   0  0  0  0  0  0  0  0  0  0  0  0
   48.5305   10.4274   20.0728 H   0  0  0  0  0  0  0  0  0  0  0  0
   49.0148    9.6627   18.5803 H   0  0  0  0  0  0  0  0  0  0  0  0
   49.4642    3.9008   16.7081 H   0  0  0  0  0  0  0  0  0  0  0  0
   47.1890   10.9285   17.3495 H   0  0  0  0  0  0  0  0  0  0  0  0
   46.6801   11.6118   18.8933 H   0  0  0  0  0  0  0  0  0  0  0  0
   47.2018    9.8110   21.7593 H   0  0  0  0  0  0  0  0  0  0  0  0
   47.8422    5.4532   23.9738 H   0  0  0  0  0  0  0  0  0  0  0  0
   48.2983   14.9712   14.7340 H   0  0  0  0  0  0  0  0  0  0  0  0
   50.0036   14.9032   14.2373 H   0  0  0  0  0  0  0  0  0  0  0  0
   49.4462   16.2255   15.2514 H   0  0  0  0  0  0  0  0  0  0  0  0
   47.0815    9.6524   24.1632 H   0  0  0  0  0  0  0  0  0  0  0  0
   47.4034    7.4736   25.3077 H   0  0  0  0  0  0  0  0  0  0  0  0
   49.3773    8.7431   20.1786 H   0  0  0  0  0  0  0  0  0  0  0  0
   48.4770   10.9034   20.8555 H   0  0  0  0  0  0  0  0  0  0  0  0
   48.9986    7.3091   17.1239 H   0  0  0  0  0  0  0  0  0  0  0  0
   47.2867   12.1042   17.3607 H   0  0  0  0  0  0  0  0  0  0  0  0
  2  4  1  0
  3  1  1  0
  4  3  2  0
  5  1  2  0
  6  2  2  0
  7  1  1  0
  8  2  1  0
 10  9  1  0
 11 14  1  0
 12  9  1  0
 13 10  2  0
 14 12  2  0
 15 10  1  0
 16 27  1  0
 17 22  1  0
 18 13  1  0
 19  9  1  0
 20 15  2  0
 21 23  1  0
 22 24  1  0
 23 16  1  0
 24 16  1  0
 25 19  1  0
 26 20  1  0
 27 25  1  0
 28 20  1  0
 29 12  1  0
 30 14  1  0
 31 17  1  0
 32 29  2  0
 33 30  2  0
 11 13  1  0
 32 33  1  0
 26 18  2  0
 17 21  1  0
 35 37  1  0
 36 34  1  0
 37 36  2  0
 38 34  2  0
 39 35  2  0
 40 34  1  0
 41 35  1  0
  3 42  1  0
  4 43  1  0
  7 44  1  0
  8 45  1  0
 15 46  1  0
 18 47  1  0
 19 48  1  0
 19 49  1  0
 21 50  1  0
 21 51  1  0
 22 52  1  0
 22 53  1  0
 23 54  1  0
 23 55  1  0
 24 56  1  0
 24 57  1  0
 25 58  1  0
 25 59  1  0
 26 60  1  0
 27 61  1  0
 27 62  1  0
 29 63  1  0
 30 64  1  0
 31 65  1  0
 31 66  1  0
 31 67  1  0
 32 68  1  0
 33 69  1  0
 36 70  1  0
 37 71  1  0
 40 72  1  0
 41 73  1  0
M  END
> <Uni-Dock RESULT> 
ENERGY=   -4.940  LOWER_BOUND=    6.171  UPPER_BOUND=    7.914
INTER + INTRA:          -4.940
INTER:                  -4.940
INTRA:                   0.000
UNBOUND:                 0.000

$$$$

     RDKit          3D

 73 74  0  0  0  0  0  0  0  0999 V2000
   48.2449   11.4695   17.4199 C   0  0  0  0  0  0  0  0  0  0  0  0
   48.1172    8.8342   18.8545 C   0  0  0  0  0  0  0  0  0  0  0  0
   48.6272   10.1806   16.8281 C   0  0  0  0  0  0  0  0  0  0  0  0
   48.5275    9.0030   17.4589 C   0  0  0  0  0  0  0  0  0  0  0  0
   47.4850   11.6773   18.3442 O   0  0  0  0  0  0  0  0  0  0  0  0
   47.2999    8.0240   19.2482 O   0  0  0  0  0  0  0  0  0  0  0  0
   48.8421   12.4669   16.7476 O   0  0  0  0  0  0  0  0  0  0  0  0
   48.8431    9.5962   19.6849 O   0  0  0  0  0  0  0  0  0  0  0  0
   48.5684    7.9106   19.0564 N   0  0  0  0  0  0  0  0  0  0  0  0
   48.2323    8.1859   20.4149 C   0  0  0  0  0  0  0  0  0  0  0  0
   47.5515    5.4820   20.7917 S   0  0  0  0  0  0  0  0  0  0  0  0
   48.2699    6.7025   18.3607 C   0  0  0  0  0  0  0  0  0  0  0  0
   47.7446    7.1799   21.2756 C   0  0  0  0  0  0  0  0  0  0  0  0
   47.7865    5.5608   19.0322 C   0  0  0  0  0  0  0  0  0  0  0  0
   48.3415    9.4822   20.9683 C   0  0  0  0  0  0  0  0  0  0  0  0
   48.6706   11.9915   16.1912 N   0  0  0  0  0  0  0  0  0  0  0  0
   48.2605   14.9294   15.5851 N   0  0  0  0  0  0  0  0  0  0  0  0
   47.4049    7.4671   22.6134 C   0  0  0  0  0  0  0  0  0  0  0  0
   49.4014    8.9108   18.3485 C   0  0  0  0  0  0  0  0  0  0  0  0
   47.9994    9.7578   22.2961 C   0  0  0  0  0  0  0  0  0  0  0  0
   48.8243   13.9560   14.6308 C   0  0  0  0  0  0  0  0  0  0  0  0
   48.2053   14.3840   16.9520 C   0  0  0  0  0  0  0  0  0  0  0  0
   49.5473   12.7577   15.2858 C   0  0  0  0  0  0  0  0  0  0  0  0
   47.8122   12.8881   16.9962 C   0  0  0  0  0  0  0  0  0  0  0  0
   48.5462    9.9437   17.5999 C   0  0  0  0  0  0  0  0  0  0  0  0
   47.5318    8.7535   23.1252 C   0  0  0  0  0  0  0  0  0  0  0  0
   49.4384   11.0325   16.9901 C   0  0  0  0  0  0  0  0  0  0  0  0
   48.1577   11.3615   22.9022 Cl  0  0  0  0  0  0  0  0  0  0  0  0
   48.4132    6.5841   16.9591 C   0  0  0  0  0  0  0  0  0  0  0  0
   47.4850    4.3763   18.3300 C   0  0  0  0  0  0  0  0  0  0  0  0
   48.9710   16.2030   15.5591 C   0  0  0  0  0  0  0  0  0  0  0  0
   48.1097    5.4060   16.2650 C   0  0  0  0  0  0  0  0  0  0  0  0
   47.6458    4.2979   16.9521 C   0  0  0  0  0  0  0  0  0  0  0  0
   48.3939    9.9236   19.2936 C   0  0  0  0  0  0  0  0  0  0  0  0
   49.4028   10.4763   16.5220 C   0  0  0  0  0  0  0  0  0  0  0  0
   47.8064    9.3645   18.0691 C   0  0  0  0  0  0  0  0  0  0  0  0
   48.2883    9.5801   16.8379 C   0  0  0  0  0  0  0  0  0  0  0  0
   49.5311   10.3097   19.4725 O   0  0  0  0  0  0  0  0  0  0  0  0
   50.3366   10.1985   15.7940 O   0  0  0  0  0  0  0  0  0  0  0  0
   47.4771    9.9189   20.2747 O   0  0  0  0  0  0  0  0  0  0  0  0
   49.2171   11.7029   17.0299 O   0  0  0  0  0  0  0  0  0  0  0  0
   48.9707   10.2187   15.8008 H   0  0  0  0  0  0  0  0  0  0  0  0
   48.7383    8.0774   16.9371 H   0  0  0  0  0  0  0  0  0  0  0  0
   48.5313   13.2746   17.2076 H   0  0  0  0  0  0  0  0  0  0  0  0
   48.4550    9.4240   20.5671 H   0  0  0  0  0  0  0  0  0  0  0  0
   48.6799   10.3227   20.3728 H   0  0  0  0  0  0  0  0  0  0  0  0
   47.0371    6.6783   23.2673 H   0  0  0  0  0  0  0  0  0  0  0  0
   50.1018    8.4249   17.6567 H   0  0  0  0  0  0  0  0  0  0  0  0
   50.0809    9.4143   19.0488 H   0  0  0  0  0  0  0  0  0  0  0  0
   47.9911   13.5699   14.0295 H   0  0  0  0  0  0  0  0  0  0  0  0
   49.5055   14.4381   13.9181 H   0  0  0  0  0  0  0  0  0  0  0  0
   49.1756   14.4972   17.4552 H   0  0  0  0  0  0  0  0  0  0  0  0
   47.4740   14.9575   17.5340 H   0  0  0  0  0  0  0  0  0  0  0  0
   50.4316   13.1284   15.8220 H   0  0  0  0  0  0  0  0  0  0  0  0
   49.9068   12.0921   14.4919 H   0  0  0  0  0  0  0  0  0  0  0  0
   46.7887   12.7863   16.6137 H   0  0  0  0  0  0  0  0  0  0  0  0
   47.7735   12.5826   18.0483 H   0  0  0  0  0  0  0  0  0  0  0  0
   47.9683    9.4574   16.8059 H   0  0  0  0  0  0  0  0  0  0  0  0
   47.8070   10.3833   18.2769 H   0  0  0  0  0  0  0  0  0  0  0  0
   47.2641    8.9584   24.1575 H   0  0  0  0  0  0  0  0  0  0  0  0
   50.0072   11.5484   17.7744 H   0  0  0  0  0  0  0  0  0  0  0  0
   50.1706   10.5315   16.3432 H   0  0  0  0  0  0  0  0  0  0  0  0
   48.7498    7.4154   16.3488 H   0  0  0  0  0  0  0  0  0  0  0  0
   47.1196    3.5009   18.8635 H   0  0  0  0  0  0  0  0  0  0  0  0
   50.0262   16.0924   15.8336 H   0  0  0  0  0  0  0  0  0  0  0  0
   48.5075   16.9176   16.2484 H   0  0  0  0  0  0  0  0  0  0  0  0
   48.9189   16.6518   14.5610 H   0  0  0  0  0  0  0  0  0  0  0  0
   48.2329    5.3665   15.1856 H   0  0  0  0  0  0  0  0  0  0  0  0
   47.4067    3.3798   16.4229 H   0  0  0  0  0  0  0  0  0  0  0  0
   46.9546    8.7098   18.2126 H   0  0  0  0  0  0  0  0  0  0  0  0
   47.8680    9.0659   15.9822 H   0  0  0  0  0  0  0  0  0  0  0  0
   47.9546   10.3031   21.0397 H   0  0  0  0  0  0  0  0  0  0  0  0
   50.0310   12.1885   16.7836 H   0  0  0  0  0  0  0  0  0  0  0  0
  2  4  1  0
  3  1  1  0
  4  3  2  0
  5  1  2  0
  6  2  2  0
  7  1  1  0
  8  2  1  0
 10  9  1  0
 11 14  1  0
 12  9  1  0
 13 10  2  0
 14 12  2  0
 15 10  1  0
 16 27  1  0
 17 22  1  0
 18 13  1  0
 19  9  1  0
 20 15  2  0
 21 23  1  0
 22 24  1  0
 23 16  1  0
 24 16  1  0
 25 19  1  0
 26 20  1  0
 27 25  1  0
 28 20  1  0
 29 12  1  0
 30 14  1  0
 31 17  1  0
 32 29  2  0
 33 30  2  0
 11 13  1  0
 32 33  1  0
 26 18  2  0
 17 21  1  0
 35 37  1  0
 36 34  1  0
 37 36  2  0
 38 34  2  0
 39 35  2  0
 40 34  1  0
 41 35  1  0
  3 42  1  0
  4 43  1  0
  7 44  1  0
  8 45  1  0
 15 46  1  0
 18 47  1  0
 19 48  1  0
 19 49  1  0
 21 50  1  0
 21 51  1  0
 22 52  1  0
 22 53  1  0
 23 54  1  0
 23 55  1  0
 24 56  1  0
 24 57  1  0
 25 58  1  0
 25 59  1  0
 26 60  1  0
 27 61  1  0
 27 62  1  0
 29 63  1  0
 30 64  1  0
 31 65  1  0
 31 66  1  0
 31 67  1  0
 32 68  1  0
 33 69  1  0
 36 70  1  0
 37 71  1  0
 40 72  1  0
 41 73  1  0
M  END
> <Uni-Dock RESULT> 
ENERGY=   -4.792  LOWER_BOUND=    5.792  UPPER_BOUND=    7.295
INTER + INTRA:          -4.792
INTER:                  -4.792
INTRA:                   0.000
UNBOUND:                 0.000

$$$$

     RDKit          3D

 73 74  0  0  0  0  0  0  0  0999 V2000
   47.0186    9.9567   12.3686 C   0  0  0  0  0  0  0  0  0  0  0  0
   49.4620    8.7205   13.6018 C   0  0  0  0  0  0  0  0  0  0  0  0
   46.9941    8.8494   13.3335 C   0  0  0  0  0  0  0  0  0  0  0  0
   48.0851    8.3307   13.9125 C   0  0  0  0  0  0  0  0  0  0  0  0
   47.8825   10.7948   12.2068 O   0  0  0  0  0  0  0  0  0  0  0  0
   50.3194    8.9705   14.4273 O   0  0  0  0  0  0  0  0  0  0  0  0
   45.8760    9.9626   11.6631 O   0  0  0  0  0  0  0  0  0  0  0  0
   49.7173    8.6501   12.2876 O   0  0  0  0  0  0  0  0  0  0  0  0
   49.9602    7.8500   13.9040 N   0  0  0  0  0  0  0  0  0  0  0  0
   51.0948    8.4273   13.2610 C   0  0  0  0  0  0  0  0  0  0  0  0
   52.7454    7.4894   15.3377 S   0  0  0  0  0  0  0  0  0  0  0  0
   49.9383    7.3331   15.2325 C   0  0  0  0  0  0  0  0  0  0  0  0
   52.3857    8.3475   13.8249 C   0  0  0  0  0  0  0  0  0  0  0  0
   51.1221    7.1523   15.9769 C   0  0  0  0  0  0  0  0  0  0  0  0
   50.9890    9.1334   12.0409 C   0  0  0  0  0  0  0  0  0  0  0  0
   45.6296    9.7727   12.3473 N   0  0  0  0  0  0  0  0  0  0  0  0
   43.8821   11.7091   10.8100 N   0  0  0  0  0  0  0  0  0  0  0  0
   53.4978    8.9323   13.1853 C   0  0  0  0  0  0  0  0  0  0  0  0
   48.7403    7.6611   13.0844 C   0  0  0  0  0  0  0  0  0  0  0  0
   52.0978    9.7124   11.4154 C   0  0  0  0  0  0  0  0  0  0  0  0
   43.3662   10.5935   11.6256 C   0  0  0  0  0  0  0  0  0  0  0  0
   45.3322   11.5923   10.5810 C   0  0  0  0  0  0  0  0  0  0  0  0
   44.3312    9.3941   11.7590 C   0  0  0  0  0  0  0  0  0  0  0  0
   46.1043   11.0691   11.8155 C   0  0  0  0  0  0  0  0  0  0  0  0
   47.7911    8.8645   13.1819 C   0  0  0  0  0  0  0  0  0  0  0  0
   53.3564    9.6138   11.9819 C   0  0  0  0  0  0  0  0  0  0  0  0
   46.6071    8.6881   12.2226 C   0  0  0  0  0  0  0  0  0  0  0  0
   51.8935   10.5587    9.9299 Cl  0  0  0  0  0  0  0  0  0  0  0  0
   48.7333    6.9975   15.8916 C   0  0  0  0  0  0  0  0  0  0  0  0
   51.0847    6.6505   17.2935 C   0  0  0  0  0  0  0  0  0  0  0  0
   43.1635   11.8489    9.5483 C   0  0  0  0  0  0  0  0  0  0  0  0
   48.7006    6.5019   17.2011 C   0  0  0  0  0  0  0  0  0  0  0  0
   49.8795    6.3259   17.9042 C   0  0  0  0  0  0  0  0  0  0  0  0
   49.3151    9.1603   12.4876 C   0  0  0  0  0  0  0  0  0  0  0  0
   46.4479    8.3510   12.8477 C   0  0  0  0  0  0  0  0  0  0  0  0
   48.5983    9.1904   13.7693 C   0  0  0  0  0  0  0  0  0  0  0  0
   47.3315    8.7863   13.9316 C   0  0  0  0  0  0  0  0  0  0  0  0
   49.0861    8.4703   11.5150 O   0  0  0  0  0  0  0  0  0  0  0  0
   45.7541    7.3525   12.8718 O   0  0  0  0  0  0  0  0  0  0  0  0
   50.3522   10.0119   12.5326 O   0  0  0  0  0  0  0  0  0  0  0  0
   46.3889    9.2534   11.8582 O   0  0  0  0  0  0  0  0  0  0  0  0
   46.0106    8.4797   13.5996 H   0  0  0  0  0  0  0  0  0  0  0  0
   47.9947    7.5771   14.6853 H   0  0  0  0  0  0  0  0  0  0  0  0
   45.9831   10.7242   11.0556 H   0  0  0  0  0  0  0  0  0  0  0  0
   50.6410    8.9644   12.2069 H   0  0  0  0  0  0  0  0  0  0  0  0
   50.0321    9.2698   11.5497 H   0  0  0  0  0  0  0  0  0  0  0  0
   54.4888    8.8555   13.6293 H   0  0  0  0  0  0  0  0  0  0  0  0
   48.2141    6.7389   13.3637 H   0  0  0  0  0  0  0  0  0  0  0  0
   49.0040    7.4677   12.0363 H   0  0  0  0  0  0  0  0  0  0  0  0
   43.1668   10.9896   12.6297 H   0  0  0  0  0  0  0  0  0  0  0  0
   42.3991   10.2340   11.2516 H   0  0  0  0  0  0  0  0  0  0  0  0
   45.5396   10.9188    9.7378 H   0  0  0  0  0  0  0  0  0  0  0  0
   45.7293   12.5775   10.3089 H   0  0  0  0  0  0  0  0  0  0  0  0
   44.4705    8.9404   10.7681 H   0  0  0  0  0  0  0  0  0  0  0  0
   43.8593    8.6372   12.3970 H   0  0  0  0  0  0  0  0  0  0  0  0
   46.0079   11.8056   12.6234 H   0  0  0  0  0  0  0  0  0  0  0  0
   47.1694   11.0410   11.5576 H   0  0  0  0  0  0  0  0  0  0  0  0
   47.4183    8.9745   14.2065 H   0  0  0  0  0  0  0  0  0  0  0  0
   48.3320    9.7904   12.9629 H   0  0  0  0  0  0  0  0  0  0  0  0
   54.2229   10.0601   11.5030 H   0  0  0  0  0  0  0  0  0  0  0  0
   46.9601    8.6012   11.1869 H   0  0  0  0  0  0  0  0  0  0  0  0
   46.1209    7.7362   12.4740 H   0  0  0  0  0  0  0  0  0  0  0  0
   47.7678    7.1285   15.4147 H   0  0  0  0  0  0  0  0  0  0  0  0
   52.0078    6.5097   17.8527 H   0  0  0  0  0  0  0  0  0  0  0  0
   43.2526   10.9544    8.9215 H   0  0  0  0  0  0  0  0  0  0  0  0
   43.5418   12.7072    8.9818 H   0  0  0  0  0  0  0  0  0  0  0  0
   42.0999   12.0383    9.7309 H   0  0  0  0  0  0  0  0  0  0  0  0
   47.7473    6.2623   17.6658 H   0  0  0  0  0  0  0  0  0  0  0  0
   49.8648    5.9431   18.9207 H   0  0  0  0  0  0  0  0  0  0  0  0
   49.1744    9.5297   14.6224 H   0  0  0  0  0  0  0  0  0  0  0  0
   46.8868    8.7453   14.9185 H   0  0  0  0  0  0  0  0  0  0  0  0
   50.7637    9.9228   11.6474 H   0  0  0  0  0  0  0  0  0  0  0  0
   45.8043    8.8380   11.1913 H   0  0  0  0  0  0  0  0  0  0  0  0
  2  4  1  0
  3  1  1  0
  4  3  2  0
  5  1  2  0
  6  2  2  0
  7  1  1  0
  8  2  1  0
 10  9  1  0
 11 14  1  0
 12  9  1  0
 13 10  2  0
 14 12  2  0
 15 10  1  0
 16 27  1  0
 17 22  1  0
 18 13  1  0
 19  9  1  0
 20 15  2  0
 21 23  1  0
 22 24  1  0
 23 16  1  0
 24 16  1  0
 25 19  1  0
 26 20  1  0
 27 25  1  0
 28 20  1  0
 29 12  1  0
 30 14  1  0
 31 17  1  0
 32 29  2  0
 33 30  2  0
 11 13  1  0
 32 33  1  0
 26 18  2  0
 17 21  1  0
 35 37  1  0
 36 34  1  0
 37 36  2  0
 38 34  2  0
 39 35  2  0
 40 34  1  0
 41 35  1  0
  3 42  1  0
  4 43  1  0
  7 44  1  0
  8 45  1  0
 15 46  1  0
 18 47  1  0
 19 48  1  0
 19 49  1  0
 21 50  1  0
 21 51  1  0
 22 52  1  0
 22 53  1  0
 23 54  1  0
 23 55  1  0
 24 56  1  0
 24 57  1  0
 25 58  1  0
 25 59  1  0
 26 60  1  0
 27 61  1  0
 27 62  1  0
 29 63  1  0
 30 64  1  0
 31 65  1  0
 31 66  1  0
 31 67  1  0
 32 68  1  0
 33 69  1  0
 36 70  1  0
 37 71  1  0
 40 72  1  0
 41 73  1  0
M  END
> <Uni-Dock RESULT> 
ENERGY=   -4.716  LOWER_BOUND=    2.797  UPPER_BOUND=    6.251
INTER + INTRA:          -4.716
INTER:                  -4.716
INTRA:                   0.000
UNBOUND:                 0.000

$$$$

     RDKit          3D

 73 74  0  0  0  0  0  0  0  0999 V2000
   43.3457   12.1652   10.9212 C   0  0  0  0  0  0  0  0  0  0  0  0
   44.8956    9.7539   11.8171 C   0  0  0  0  0  0  0  0  0  0  0  0
   43.0025   10.7796   10.5748 C   0  0  0  0  0  0  0  0  0  0  0  0
   43.6728    9.7056   11.0127 C   0  0  0  0  0  0  0  0  0  0  0  0
   43.9854   12.5667   11.8723 O   0  0  0  0  0  0  0  0  0  0  0  0
   45.0986    9.0934   12.8180 O   0  0  0  0  0  0  0  0  0  0  0  0
   42.7970   13.0011   10.0248 O   0  0  0  0  0  0  0  0  0  0  0  0
   45.8354   10.5255   11.2527 O   0  0  0  0  0  0  0  0  0  0  0  0
   45.2978    8.8172   11.5760 N   0  0  0  0  0  0  0  0  0  0  0  0
   46.4697    9.2908   12.2366 C   0  0  0  0  0  0  0  0  0  0  0  0
   46.8558    6.7451   13.3711 S   0  0  0  0  0  0  0  0  0  0  0  0
   44.6491    7.5744   11.8354 C   0  0  0  0  0  0  0  0  0  0  0  0
   47.2307    8.4571   13.0831 C   0  0  0  0  0  0  0  0  0  0  0  0
   45.2425    6.5834   12.6440 C   0  0  0  0  0  0  0  0  0  0  0  0
   46.9199   10.6244   12.1047 C   0  0  0  0  0  0  0  0  0  0  0  0
   42.2567   12.4838   10.0990 N   0  0  0  0  0  0  0  0  0  0  0  0
   41.3125   15.3538    9.9030 N   0  0  0  0  0  0  0  0  0  0  0  0
   48.3808    8.9404   13.7398 C   0  0  0  0  0  0  0  0  0  0  0  0
   44.7841    9.6254   10.4452 C   0  0  0  0  0  0  0  0  0  0  0  0
   48.0608   11.0952   12.7624 C   0  0  0  0  0  0  0  0  0  0  0  0
   40.6510   14.2153    9.2381 C   0  0  0  0  0  0  0  0  0  0  0  0
   42.6438   14.9877   10.4155 C   0  0  0  0  0  0  0  0  0  0  0  0
   41.5875   13.0324    8.9046 C   0  0  0  0  0  0  0  0  0  0  0  0
   42.6961   13.5612   11.0127 C   0  0  0  0  0  0  0  0  0  0  0  0
   43.7336   10.6485   10.9015 C   0  0  0  0  0  0  0  0  0  0  0  0
   48.7975   10.2571   13.5807 C   0  0  0  0  0  0  0  0  0  0  0  0
   43.3233   11.5493    9.7295 C   0  0  0  0  0  0  0  0  0  0  0  0
   48.5498   12.7330   12.5550 Cl  0  0  0  0  0  0  0  0  0  0  0  0
   43.3664    7.2718   11.3235 C   0  0  0  0  0  0  0  0  0  0  0  0
   44.5849    5.3634   12.9011 C   0  0  0  0  0  0  0  0  0  0  0  0
   41.3894   16.5279    9.0409 C   0  0  0  0  0  0  0  0  0  0  0  0
   42.7152    6.0594   11.5839 C   0  0  0  0  0  0  0  0  0  0  0  0
   43.3265    5.1012   12.3735 C   0  0  0  0  0  0  0  0  0  0  0  0
   45.3035   10.8509   11.5234 C   0  0  0  0  0  0  0  0  0  0  0  0
   42.9137   10.9479    9.7108 C   0  0  0  0  0  0  0  0  0  0  0  0
   44.0119   10.2163   11.8172 C   0  0  0  0  0  0  0  0  0  0  0  0
   42.9628   10.2261   10.9843 C   0  0  0  0  0  0  0  0  0  0  0  0
   45.7752   11.1271   10.4390 O   0  0  0  0  0  0  0  0  0  0  0  0
   42.5179   10.4818    8.6596 O   0  0  0  0  0  0  0  0  0  0  0  0
   45.9691   11.0672   12.6693 O   0  0  0  0  0  0  0  0  0  0  0  0
   43.2400   12.2400    9.8559 O   0  0  0  0  0  0  0  0  0  0  0  0
   42.1218   10.6544    9.9555 H   0  0  0  0  0  0  0  0  0  0  0  0
   43.3155    8.7060   10.7973 H   0  0  0  0  0  0  0  0  0  0  0  0
   43.0760   13.8881   10.3345 H   0  0  0  0  0  0  0  0  0  0  0  0
   46.5760   10.5057   11.8927 H   0  0  0  0  0  0  0  0  0  0  0  0
   46.3816   11.3436   11.4976 H   0  0  0  0  0  0  0  0  0  0  0  0
   48.9618    8.2824   14.3838 H   0  0  0  0  0  0  0  0  0  0  0  0
   44.3717    8.9843    9.6551 H   0  0  0  0  0  0  0  0  0  0  0  0
   45.6081   10.1313    9.9250 H   0  0  0  0  0  0  0  0  0  0  0  0
   39.8662   13.8541    9.9154 H   0  0  0  0  0  0  0  0  0  0  0  0
   40.1316   14.5287    8.3235 H   0  0  0  0  0  0  0  0  0  0  0  0
   43.3982   15.0525    9.6192 H   0  0  0  0  0  0  0  0  0  0  0  0
   42.9352   15.7052   11.1918 H   0  0  0  0  0  0  0  0  0  0  0  0
   42.3265   13.3647    8.1627 H   0  0  0  0  0  0  0  0  0  0  0  0
   40.9928   12.2395    8.4350 H   0  0  0  0  0  0  0  0  0  0  0  0
   42.0401   13.5283   11.8917 H   0  0  0  0  0  0  0  0  0  0  0  0
   43.7123   13.3918   11.3873 H   0  0  0  0  0  0  0  0  0  0  0  0
   42.8488   10.1368   11.2965 H   0  0  0  0  0  0  0  0  0  0  0  0
   44.1244   11.2464   11.7307 H   0  0  0  0  0  0  0  0  0  0  0  0
   49.6848   10.6141   14.0951 H   0  0  0  0  0  0  0  0  0  0  0  0
   44.1938   12.0901    9.3361 H   0  0  0  0  0  0  0  0  0  0  0  0
   42.9642   10.8953    8.9239 H   0  0  0  0  0  0  0  0  0  0  0  0
   42.8142    7.9803   10.7153 H   0  0  0  0  0  0  0  0  0  0  0  0
   45.0592    4.6052   13.5213 H   0  0  0  0  0  0  0  0  0  0  0  0
   41.9696   16.3347    8.1316 H   0  0  0  0  0  0  0  0  0  0  0  0
   41.8498   17.3679    9.5731 H   0  0  0  0  0  0  0  0  0  0  0  0
   40.3859   16.8553    8.7473 H   0  0  0  0  0  0  0  0  0  0  0  0
   41.7268    5.8758   11.1701 H   0  0  0  0  0  0  0  0  0  0  0  0
   42.8295    4.1581   12.5822 H   0  0  0  0  0  0  0  0  0  0  0  0
   43.9536    9.6826   12.7588 H   0  0  0  0  0  0  0  0  0  0  0  0
   42.0677    9.6620   11.2164 H   0  0  0  0  0  0  0  0  0  0  0  0
   46.8054   11.4858   12.3759 H   0  0  0  0  0  0  0  0  0  0  0  0
   43.2036   12.5987    8.9454 H   0  0  0  0  0  0  0  0  0  0  0  0
  2  4  1  0
  3  1  1  0
  4  3  2  0
  5  1  2  0
  6  2  2  0
  7  1  1  0
  8  2  1  0
 10  9  1  0
 11 14  1  0
 12  9  1  0
 13 10  2  0
 14 12  2  0
 15 10  1  0
 16 27  1  0
 17 22  1  0
 18 13  1  0
 19  9  1  0
 20 15  2  0
 21 23  1  0
 22 24  1  0
 23 16  1  0
 24 16  1  0
 25 19  1  0
 26 20  1  0
 27 25  1  0
 28 20  1  0
 29 12  1  0
 30 14  1  0
 31 17  1  0
 32 29  2  0
 33 30  2  0
 11 13  1  0
 32 33  1  0
 26 18  2  0
 17 21  1  0
 35 37  1  0
 36 34  1  0
 37 36  2  0
 38 34  2  0
 39 35  2  0
 40 34  1  0
 41 35  1  0
  3 42  1  0
  4 43  1  0
  7 44  1  0
  8 45  1  0
 15 46  1  0
 18 47  1  0
 19 48  1  0
 19 49  1  0
 21 50  1  0
 21 51  1  0
 22 52  1  0
 22 53  1  0
 23 54  1  0
 23 55  1  0
 24 56  1  0
 24 57  1  0
 25 58  1  0
 25 59  1  0
 26 60  1  0
 27 61  1  0
 27 62  1  0
 29 63  1  0
 30 64  1  0
 31 65  1  0
 31 66  1  0
 31 67  1  0
 32 68  1  0
 33 69  1  0
 36 70  1  0
 37 71  1  0
 40 72  1  0
 41 73  1  0
M  END
> <Uni-Dock RESULT> 
ENERGY=   -4.604  LOWER_BOUND=    3.358  UPPER_BOUND=    7.242
INTER + INTRA:          -4.604
INTER:                  -4.604
INTRA:                   0.000
UNBOUND:                 0.000

$$$$

     RDKit          3D

 73 74  0  0  0  0  0  0  0  0999 V2000
   46.5394    8.2917   12.7848 C   0  0  0  0  0  0  0  0  0  0  0  0
   48.6722   10.3476   13.2781 C   0  0  0  0  0  0  0  0  0  0  0  0
   47.6530    8.1255   13.7282 C   0  0  0  0  0  0  0  0  0  0  0  0
   48.5770    9.0634   13.9754 C   0  0  0  0  0  0  0  0  0  0  0  0
   46.0501    9.3240   12.3725 O   0  0  0  0  0  0  0  0  0  0  0  0
   48.8219   11.4261   13.8200 O   0  0  0  0  0  0  0  0  0  0  0  0
   46.0621    7.0857   12.4369 O   0  0  0  0  0  0  0  0  0  0  0  0
   48.7027   10.1929   11.9469 O   0  0  0  0  0  0  0  0  0  0  0  0
   49.6873   10.5539   13.4342 N   0  0  0  0  0  0  0  0  0  0  0  0
   49.4906   11.6012   12.4863 C   0  0  0  0  0  0  0  0  0  0  0  0
   51.1456   13.2893   14.0119 S   0  0  0  0  0  0  0  0  0  0  0  0
   50.2872   10.7049   14.7187 C   0  0  0  0  0  0  0  0  0  0  0  0
   50.0757   12.8737   12.6567 C   0  0  0  0  0  0  0  0  0  0  0  0
   50.9455   11.8940   15.0939 C   0  0  0  0  0  0  0  0  0  0  0  0
   48.6797   11.4351   11.3402 C   0  0  0  0  0  0  0  0  0  0  0  0
   46.2167    6.9822   13.1651 N   0  0  0  0  0  0  0  0  0  0  0  0
   43.6499    5.7199   12.1729 N   0  0  0  0  0  0  0  0  0  0  0  0
   49.8643   13.9045   11.7184 C   0  0  0  0  0  0  0  0  0  0  0  0
   49.3529    9.1767   13.0015 C   0  0  0  0  0  0  0  0  0  0  0  0
   48.4740   12.4648   10.4163 C   0  0  0  0  0  0  0  0  0  0  0  0
   44.5829    5.0728   13.1145 C   0  0  0  0  0  0  0  0  0  0  0  0
   44.2501    6.9058   11.5385 C   0  0  0  0  0  0  0  0  0  0  0  0
   46.0532    5.5283   12.9785 C   0  0  0  0  0  0  0  0  0  0  0  0
   45.1280    7.7358   12.5052 C   0  0  0  0  0  0  0  0  0  0  0  0
   47.9066    8.7994   13.3541 C   0  0  0  0  0  0  0  0  0  0  0  0
   49.0654   13.7024   10.5987 C   0  0  0  0  0  0  0  0  0  0  0  0
   47.5600    7.4209   12.7770 C   0  0  0  0  0  0  0  0  0  0  0  0
   47.4726   12.1906    9.0428 Cl  0  0  0  0  0  0  0  0  0  0  0  0
   50.2356    9.6880   15.6996 C   0  0  0  0  0  0  0  0  0  0  0  0
   51.5247   12.0336   16.3713 C   0  0  0  0  0  0  0  0  0  0  0  0
   43.1450    4.7897   11.1691 C   0  0  0  0  0  0  0  0  0  0  0  0
   50.8101    9.8320   16.9689 C   0  0  0  0  0  0  0  0  0  0  0  0
   51.4583   11.0074   17.3058 C   0  0  0  0  0  0  0  0  0  0  0  0
   48.1048   10.0762   12.2483 C   0  0  0  0  0  0  0  0  0  0  0  0
   47.8769    7.3251   13.4252 C   0  0  0  0  0  0  0  0  0  0  0  0
   47.9452    9.7965   13.6813 C   0  0  0  0  0  0  0  0  0  0  0  0
   47.8881    8.5648   14.2050 C   0  0  0  0  0  0  0  0  0  0  0  0
   48.5728    9.3559   11.3900 O   0  0  0  0  0  0  0  0  0  0  0  0
   48.5625    6.3480   13.6584 O   0  0  0  0  0  0  0  0  0  0  0  0
   47.6839   11.3236   11.9843 O   0  0  0  0  0  0  0  0  0  0  0  0
   46.9221    7.3351   12.4844 O   0  0  0  0  0  0  0  0  0  0  0  0
   47.6741    7.1867   14.2695 H   0  0  0  0  0  0  0  0  0  0  0  0
   49.3198    8.9162   14.7499 H   0  0  0  0  0  0  0  0  0  0  0  0
   45.3334    7.2956   11.8159 H   0  0  0  0  0  0  0  0  0  0  0  0
   48.7296   11.1084   11.6010 H   0  0  0  0  0  0  0  0  0  0  0  0
   48.1673   10.5003   11.1429 H   0  0  0  0  0  0  0  0  0  0  0  0
   50.3289   14.8788   11.8600 H   0  0  0  0  0  0  0  0  0  0  0  0
   50.0513    8.4461   13.4302 H   0  0  0  0  0  0  0  0  0  0  0  0
   49.5262    9.0566   11.9239 H   0  0  0  0  0  0  0  0  0  0  0  0
   44.2396    5.3126   14.1292 H   0  0  0  0  0  0  0  0  0  0  0  0
   44.5393    3.9789   13.0379 H   0  0  0  0  0  0  0  0  0  0  0  0
   44.8696    6.6150   10.6788 H   0  0  0  0  0  0  0  0  0  0  0  0
   43.4481    7.5466   11.1530 H   0  0  0  0  0  0  0  0  0  0  0  0
   46.4300    5.2175   11.9944 H   0  0  0  0  0  0  0  0  0  0  0  0
   46.6512    5.0038   13.7334 H   0  0  0  0  0  0  0  0  0  0  0  0
   44.4858    8.1388   13.2985 H   0  0  0  0  0  0  0  0  0  0  0  0
   45.5066    8.6036   11.9528 H   0  0  0  0  0  0  0  0  0  0  0  0
   47.7700    8.7855   14.4412 H   0  0  0  0  0  0  0  0  0  0  0  0
   47.2158    9.5608   12.9788 H   0  0  0  0  0  0  0  0  0  0  0  0
   48.9113   14.5075    9.8864 H   0  0  0  0  0  0  0  0  0  0  0  0
   47.6670    7.4226   11.6846 H   0  0  0  0  0  0  0  0  0  0  0  0
   48.2974    6.7074   13.1679 H   0  0  0  0  0  0  0  0  0  0  0  0
   49.7264    8.7474   15.5186 H   0  0  0  0  0  0  0  0  0  0  0  0
   52.0359   12.9551   16.6435 H   0  0  0  0  0  0  0  0  0  0  0  0
   43.9490    4.3713   10.5530 H   0  0  0  0  0  0  0  0  0  0  0  0
   42.4264    5.2875   10.5085 H   0  0  0  0  0  0  0  0  0  0  0  0
   42.6097    3.9619   11.6472 H   0  0  0  0  0  0  0  0  0  0  0  0
   50.7398    9.0217   17.6902 H   0  0  0  0  0  0  0  0  0  0  0  0
   51.9062   11.1295   18.2878 H   0  0  0  0  0  0  0  0  0  0  0  0
   47.9149   10.6647   14.3294 H   0  0  0  0  0  0  0  0  0  0  0  0
   47.8630    8.4214   15.2783 H   0  0  0  0  0  0  0  0  0  0  0  0
   47.8281   11.4173   11.0193 H   0  0  0  0  0  0  0  0  0  0  0  0
   47.0379    6.4819   12.0180 H   0  0  0  0  0  0  0  0  0  0  0  0
  2  4  1  0
  3  1  1  0
  4  3  2  0
  5  1  2  0
  6  2  2  0
  7  1  1  0
  8  2  1  0
 10  9  1  0
 11 14  1  0
 12  9  1  0
 13 10  2  0
 14 12  2  0
 15 10  1  0
 16 27  1  0
 17 22  1  0
 18 13  1  0
 19  9  1  0
 20 15  2  0
 21 23  1  0
 22 24  1  0
 23 16  1  0
 24 16  1  0
 25 19  1  0
 26 20  1  0
 27 25  1  0
 28 20  1  0
 29 12  1  0
 30 14  1  0
 31 17  1  0
 32 29  2  0
 33 30  2  0
 11 13  1  0
 32 33  1  0
 26 18  2  0
 17 21  1  0
 35 37  1  0
 36 34  1  0
 37 36  2  0
 38 34  2  0
 39 35  2  0
 40 34  1  0
 41 35  1  0
  3 42  1  0
  4 43  1  0
  7 44  1  0
  8 45  1  0
 15 46  1  0
 18 47  1  0
 19 48  1  0
 19 49  1  0
 21 50  1  0
 21 51  1  0
 22 52  1  0
 22 53  1  0
 23 54  1  0
 23 55  1  0
 24 56  1  0
 24 57  1  0
 25 58  1  0
 25 59  1  0
 26 60  1  0
 27 61  1  0
 27 62  1  0
 29 63  1  0
 30 64  1  0
 31 65  1  0
 31 66  1  0
 31 67  1  0
 32 68  1  0
 33 69  1  0
 36 70  1  0
 37 71  1  0
 40 72  1  0
 41 73  1  0
M  END
> <Uni-Dock RESULT> 
ENERGY=   -4.406  LOWER_BOUND=    2.872  UPPER_BOUND=    6.236
INTER + INTRA:          -4.406
INTER:                  -4.406
INTRA:                   0.000
UNBOUND:                 0.000

$$$$
