
     RDKit          3D

 77 78  0  0  0  0  0  0  0  0999 V2000
   43.6209    9.8635   10.2758 C   0  0  0  0  0  0  0  0  0  0  0  0
   43.9326   11.3555   10.4388 C   0  0  0  0  0  0  0  0  0  0  0  0
   42.7113   12.1661   10.4116 N   0  0  0  0  0  0  0  0  0  0  0  0
   42.6948    9.4383   11.2754 O   0  0  0  0  0  0  0  0  0  0  0  0
   45.4557    6.9524   12.2589 C   0  0  0  0  0  0  0  0  0  0  0  0
   46.5551    7.1808   13.1077 C   0  0  0  0  0  0  0  0  0  0  0  0
   46.9722    8.4759   13.4218 C   0  0  0  0  0  0  0  0  0  0  0  0
   46.2831    9.5774   12.9096 C   0  0  0  0  0  0  0  0  0  0  0  0
   45.1628    9.4022   12.0907 C   0  0  0  0  0  0  0  0  0  0  0  0
   44.7908    8.0840   11.7442 C   0  0  0  0  0  0  0  0  0  0  0  0
   45.0746    5.5676   11.9181 C   0  0  0  0  0  0  0  0  0  0  0  0
   44.7903    4.6320   12.9299 C   0  0  0  0  0  0  0  0  0  0  0  0
   44.4524    3.3118   12.6217 C   0  0  0  0  0  0  0  0  0  0  0  0
   44.3913    2.9032   11.2898 C   0  0  0  0  0  0  0  0  0  0  0  0
   44.6715    3.8121   10.2642 C   0  0  0  0  0  0  0  0  0  0  0  0
   45.0132    5.1347   10.5815 C   0  0  0  0  0  0  0  0  0  0  0  0
   44.5912    3.3350    8.8627 C   0  0  0  0  0  0  0  0  0  0  0  0
   44.8704    4.2951    7.9605 O   0  0  0  0  0  0  0  0  0  0  0  0
   44.2987    2.2080    8.5080 O   0  0  0  0  0  0  0  0  0  0  0  0
   43.7618    7.9076   10.8457 O   0  0  0  0  0  0  0  0  0  0  0  0
   44.4679   10.4949   11.5152 N   0  0  0  0  0  0  0  0  0  0  0  0
   44.8796   11.7583   11.8049 N   0  0  0  0  0  0  0  0  0  0  0  0
   44.1451   12.7206   11.3455 C   0  0  0  0  0  0  0  0  0  0  0  0
   42.8795   12.6885   10.5459 C   0  0  0  0  0  0  0  0  0  0  0  0
   42.6571   14.0416   10.3045 N   0  0  0  0  0  0  0  0  0  0  0  0
   43.6065   14.9001   10.8904 N   0  0  0  0  0  0  0  0  0  0  0  0
   44.4744   14.1571   11.5091 C   0  0  0  0  0  0  0  0  0  0  0  0
   45.6525   14.6114   12.2859 C   0  0  0  0  0  0  0  0  0  0  0  0
   42.2921   11.6652   10.2617 O   0  0  0  0  0  0  0  0  0  0  0  0
   41.6023   14.6233    9.5556 C   0  0  0  0  0  0  0  0  0  0  0  0
   41.5417   16.0162    9.3842 C   0  0  0  0  0  0  0  0  0  0  0  0
   40.5181   16.6322    8.6393 C   0  0  0  0  0  0  0  0  0  0  0  0
   39.5307   15.8329    8.0383 C   0  0  0  0  0  0  0  0  0  0  0  0
   39.5818   14.4438    8.2130 C   0  0  0  0  0  0  0  0  0  0  0  0
   40.6038   13.8474    8.9606 C   0  0  0  0  0  0  0  0  0  0  0  0
   38.4230   16.4346    7.2166 C   0  0  0  0  0  0  0  0  0  0  0  0
   40.5276   18.1286    8.4768 C   0  0  0  0  0  0  0  0  0  0  0  0
   43.1242    9.8873   10.4700 C   0  0  0  0  0  0  0  0  0  0  0  0
   43.5204   11.2752   10.9861 C   0  0  0  0  0  0  0  0  0  0  0  0
   42.7478   12.3557   10.3802 N   0  0  0  0  0  0  0  0  0  0  0  0
   43.9086    8.8754   11.0907 O   0  0  0  0  0  0  0  0  0  0  0  0
   44.5324    9.2654   10.3704 H   0  0  0  0  0  0  0  0  0  0  0  0
   43.1761    9.6623    9.2963 H   0  0  0  0  0  0  0  0  0  0  0  0
   44.4195   11.5213   11.4065 H   0  0  0  0  0  0  0  0  0  0  0  0
   44.6181   11.6905    9.6543 H   0  0  0  0  0  0  0  0  0  0  0  0
   42.0207   11.7006   11.0074 H   0  0  0  0  0  0  0  0  0  0  0  0
   42.3013   12.1132    9.4786 H   0  0  0  0  0  0  0  0  0  0  0  0
   43.0989    9.6281   12.1410 H   0  0  0  0  0  0  0  0  0  0  0  0
   47.1207    6.3398   13.5063 H   0  0  0  0  0  0  0  0  0  0  0  0
   47.8382    8.6263   14.0606 H   0  0  0  0  0  0  0  0  0  0  0  0
   46.6253   10.5780   13.1603 H   0  0  0  0  0  0  0  0  0  0  0  0
   44.8257    4.9348   13.9766 H   0  0  0  0  0  0  0  0  0  0  0  0
   44.2279    2.6080   13.4195 H   0  0  0  0  0  0  0  0  0  0  0  0
   44.1249    1.8744   11.0550 H   0  0  0  0  0  0  0  0  0  0  0  0
   45.2311    5.8426    9.7839 H   0  0  0  0  0  0  0  0  0  0  0  0
   44.7493    3.8436    7.0975 H   0  0  0  0  0  0  0  0  0  0  0  0
   43.7985    8.6713   10.2440 H   0  0  0  0  0  0  0  0  0  0  0  0
   43.4623   10.3112   11.4009 H   0  0  0  0  0  0  0  0  0  0  0  0
   46.5666   14.2076   11.8396 H   0  0  0  0  0  0  0  0  0  0  0  0
   45.7052   15.7040   12.2836 H   0  0  0  0  0  0  0  0  0  0  0  0
   45.5675   14.2612   13.3183 H   0  0  0  0  0  0  0  0  0  0  0  0
   42.3086   16.6430    9.8319 H   0  0  0  0  0  0  0  0  0  0  0  0
   38.8254   13.8052    7.7599 H   0  0  0  0  0  0  0  0  0  0  0  0
   40.5882   12.7655    9.0553 H   0  0  0  0  0  0  0  0  0  0  0  0
   38.8363   17.0322    6.3967 H   0  0  0  0  0  0  0  0  0  0  0  0
   37.7881   15.6617    6.7716 H   0  0  0  0  0  0  0  0  0  0  0  0
   37.7855   17.0668    7.8439 H   0  0  0  0  0  0  0  0  0  0  0  0
   40.7712   18.3948    7.4437 H   0  0  0  0  0  0  0  0  0  0  0  0
   41.2711   18.5983    9.1294 H   0  0  0  0  0  0  0  0  0  0  0  0
   39.5531   18.5527    8.7403 H   0  0  0  0  0  0  0  0  0  0  0  0
   42.0718    9.6823   10.6910 H   0  0  0  0  0  0  0  0  0  0  0  0
   43.2657    9.8141    9.3866 H   0  0  0  0  0  0  0  0  0  0  0  0
   44.5850   11.4467   10.7915 H   0  0  0  0  0  0  0  0  0  0  0  0
   43.4045   11.3082   12.0755 H   0  0  0  0  0  0  0  0  0  0  0  0
   41.7565   12.2209   10.5816 H   0  0  0  0  0  0  0  0  0  0  0  0
   42.8372   12.3225    9.3646 H   0  0  0  0  0  0  0  0  0  0  0  0
   44.8385    9.0469   10.8654 H   0  0  0  0  0  0  0  0  0  0  0  0
  4  1  1  0
  1  2  1  0
  2  3  1  0
 10 20  1  0
  9 21  1  0
 12 13  2  0
 21 22  1  0
  8  9  2  0
 22 23  2  0
 23 24  1  0
 13 14  1  0
  6  7  2  0
 14 15  2  0
  9 10  1  0
 24 25  1  0
 25 26  1  0
 26 27  2  0
 27 23  1  0
 15 16  1  0
 27 28  1  0
 16 11  2  0
 24 29  2  0
  5 11  1  0
 25 30  1  0
 10  5  2  0
 30 31  2  0
 15 17  1  0
 31 32  1  0
  5  6  1  0
 32 33  2  0
  7  8  1  0
 33 34  1  0
 17 18  1  0
 34 35  2  0
 35 30  1  0
 17 19  2  0
 33 36  1  0
 11 12  1  0
 32 37  1  0
 41 38  1  0
 38 39  1  0
 39 40  1  0
  1 42  1  0
  1 43  1  0
  2 44  1  0
  2 45  1  0
  3 46  1  0
  3 47  1  0
  4 48  1  0
  6 49  1  0
  7 50  1  0
  8 51  1  0
 12 52  1  0
 13 53  1  0
 14 54  1  0
 16 55  1  0
 18 56  1  0
 20 57  1  0
 21 58  1  0
 28 59  1  0
 28 60  1  0
 28 61  1  0
 31 62  1  0
 34 63  1  0
 35 64  1  0
 36 65  1  0
 36 66  1  0
 36 67  1  0
 37 68  1  0
 37 69  1  0
 37 70  1  0
 38 71  1  0
 38 72  1  0
 39 73  1  0
 39 74  1  0
 40 75  1  0
 40 76  1  0
 41 77  1  0
M  END
> <Uni-Dock RESULT> 
ENERGY=   -6.151  LOWER_BOUND=    0.000  UPPER_BOUND=    0.000
INTER + INTRA:          -6.151
INTER:                  -6.151
INTRA:                   0.000
UNBOUND:                 0.000

$$$$

     RDKit          3D

 77 78  0  0  0  0  0  0  0  0999 V2000
   47.3633    9.5721   12.0776 C   0  0  0  0  0  0  0  0  0  0  0  0
   48.3847   10.4892   12.7599 C   0  0  0  0  0  0  0  0  0  0  0  0
   47.9120   11.8760   12.8117 N   0  0  0  0  0  0  0  0  0  0  0  0
   46.0987    9.6639   12.7332 O   0  0  0  0  0  0  0  0  0  0  0  0
   46.5086    5.8800   13.2658 C   0  0  0  0  0  0  0  0  0  0  0  0
   47.2079    5.2285   14.2991 C   0  0  0  0  0  0  0  0  0  0  0  0
   48.1517    5.9048   15.0748 C   0  0  0  0  0  0  0  0  0  0  0  0
   48.4034    7.2598   14.8485 C   0  0  0  0  0  0  0  0  0  0  0  0
   47.7083    7.9601   13.8571 C   0  0  0  0  0  0  0  0  0  0  0  0
   46.7964    7.2433   13.0505 C   0  0  0  0  0  0  0  0  0  0  0  0
   45.5507    5.1171   12.4416 C   0  0  0  0  0  0  0  0  0  0  0  0
   44.4878    4.4161   13.0408 C   0  0  0  0  0  0  0  0  0  0  0  0
   43.5887    3.6701   12.2744 C   0  0  0  0  0  0  0  0  0  0  0  0
   43.7370    3.6135   10.8890 C   0  0  0  0  0  0  0  0  0  0  0  0
   44.7861    4.2989   10.2677 C   0  0  0  0  0  0  0  0  0  0  0  0
   45.6866    5.0429   11.0439 C   0  0  0  0  0  0  0  0  0  0  0  0
   44.9035    4.2134    8.7922 C   0  0  0  0  0  0  0  0  0  0  0  0
   45.9412    4.9184    8.3026 O   0  0  0  0  0  0  0  0  0  0  0  0
   44.1620    3.5941    8.0519 O   0  0  0  0  0  0  0  0  0  0  0  0
   46.1958    7.8985   11.9983 O   0  0  0  0  0  0  0  0  0  0  0  0
   47.9707    9.3223   13.5679 N   0  0  0  0  0  0  0  0  0  0  0  0
   48.9004    9.9818   14.3097 N   0  0  0  0  0  0  0  0  0  0  0  0
   49.0225   11.2503   14.0807 C   0  0  0  0  0  0  0  0  0  0  0  0
   48.2902   12.1475   13.1316 C   0  0  0  0  0  0  0  0  0  0  0  0
   48.9537   13.3585   13.3104 N   0  0  0  0  0  0  0  0  0  0  0  0
   49.9743   13.3245   14.2793 N   0  0  0  0  0  0  0  0  0  0  0  0
   50.0262   12.1140   14.7483 C   0  0  0  0  0  0  0  0  0  0  0  0
   50.9350   11.5973   15.7994 C   0  0  0  0  0  0  0  0  0  0  0  0
   47.3586   11.7803   12.4460 O   0  0  0  0  0  0  0  0  0  0  0  0
   48.7099   14.5841   12.6393 C   0  0  0  0  0  0  0  0  0  0  0  0
   49.4972   15.7128   12.9208 C   0  0  0  0  0  0  0  0  0  0  0  0
   49.2952   16.9445   12.2693 C   0  0  0  0  0  0  0  0  0  0  0  0
   48.2834   17.0500   11.2996 C   0  0  0  0  0  0  0  0  0  0  0  0
   47.4899   15.9294   11.0210 C   0  0  0  0  0  0  0  0  0  0  0  0
   47.7008   14.7134   11.6811 C   0  0  0  0  0  0  0  0  0  0  0  0
   48.0334   18.3357   10.5590 C   0  0  0  0  0  0  0  0  0  0  0  0
   50.1912   18.1070   12.6032 C   0  0  0  0  0  0  0  0  0  0  0  0
   46.9346    9.8692   12.1914 C   0  0  0  0  0  0  0  0  0  0  0  0
   47.8502   10.5965   13.1825 C   0  0  0  0  0  0  0  0  0  0  0  0
   48.0559   12.0030   12.8492 N   0  0  0  0  0  0  0  0  0  0  0  0
   46.7716    8.5054   12.5625 O   0  0  0  0  0  0  0  0  0  0  0  0
   47.6964    8.5302   12.1106 H   0  0  0  0  0  0  0  0  0  0  0  0
   47.2219    9.8563   11.0303 H   0  0  0  0  0  0  0  0  0  0  0  0
   48.5424   10.1536   13.7912 H   0  0  0  0  0  0  0  0  0  0  0  0
   49.3463   10.4439   12.2395 H   0  0  0  0  0  0  0  0  0  0  0  0
   46.9335   11.8556   13.1128 H   0  0  0  0  0  0  0  0  0  0  0  0
   47.8653   12.2440   11.8610 H   0  0  0  0  0  0  0  0  0  0  0  0
   46.2389    9.4151   13.6643 H   0  0  0  0  0  0  0  0  0  0  0  0
   47.0436    4.1681   14.4850 H   0  0  0  0  0  0  0  0  0  0  0  0
   48.6956    5.3739   15.8514 H   0  0  0  0  0  0  0  0  0  0  0  0
   49.1453    7.7685   15.4583 H   0  0  0  0  0  0  0  0  0  0  0  0
   44.3514    4.4545   14.1217 H   0  0  0  0  0  0  0  0  0  0  0  0
   42.7694    3.1436   12.7578 H   0  0  0  0  0  0  0  0  0  0  0  0
   43.0323    3.0333   10.2964 H   0  0  0  0  0  0  0  0  0  0  0  0
   46.5031    5.5767   10.5611 H   0  0  0  0  0  0  0  0  0  0  0  0
   45.8704    4.7903    7.3321 H   0  0  0  0  0  0  0  0  0  0  0  0
   46.8425    8.5564   11.6890 H   0  0  0  0  0  0  0  0  0  0  0  0
   47.1345    9.8296   13.2492 H   0  0  0  0  0  0  0  0  0  0  0  0
   51.5508   10.7902   15.3904 H   0  0  0  0  0  0  0  0  0  0  0  0
   51.5873   12.3985   16.1588 H   0  0  0  0  0  0  0  0  0  0  0  0
   50.3457   11.2151   16.6374 H   0  0  0  0  0  0  0  0  0  0  0  0
   50.2925   15.6387   13.6580 H   0  0  0  0  0  0  0  0  0  0  0  0
   46.6978   15.9890   10.2765 H   0  0  0  0  0  0  0  0  0  0  0  0
   47.0535   13.8821   11.4171 H   0  0  0  0  0  0  0  0  0  0  0  0
   48.9448   18.6669   10.0493 H   0  0  0  0  0  0  0  0  0  0  0  0
   47.2566   18.2154    9.7969 H   0  0  0  0  0  0  0  0  0  0  0  0
   47.6996   19.1147   11.2528 H   0  0  0  0  0  0  0  0  0  0  0  0
   50.8552   18.3260   11.7613 H   0  0  0  0  0  0  0  0  0  0  0  0
   50.8155   17.8941   13.4773 H   0  0  0  0  0  0  0  0  0  0  0  0
   49.5987   18.9971   12.8388 H   0  0  0  0  0  0  0  0  0  0  0  0
   45.9441   10.3350   12.1719 H   0  0  0  0  0  0  0  0  0  0  0  0
   47.3466    9.9014   11.1773 H   0  0  0  0  0  0  0  0  0  0  0  0
   48.8229   10.0934   13.2177 H   0  0  0  0  0  0  0  0  0  0  0  0
   47.4334   10.5167   14.1932 H   0  0  0  0  0  0  0  0  0  0  0  0
   47.1577   12.4872   12.8435 H   0  0  0  0  0  0  0  0  0  0  0  0
   48.4288   12.0871   11.9035 H   0  0  0  0  0  0  0  0  0  0  0  0
   47.6511    8.0914   12.5485 H   0  0  0  0  0  0  0  0  0  0  0  0
  4  1  1  0
  1  2  1  0
  2  3  1  0
 10 20  1  0
  9 21  1  0
 12 13  2  0
 21 22  1  0
  8  9  2  0
 22 23  2  0
 23 24  1  0
 13 14  1  0
  6  7  2  0
 14 15  2  0
  9 10  1  0
 24 25  1  0
 25 26  1  0
 26 27  2  0
 27 23  1  0
 15 16  1  0
 27 28  1  0
 16 11  2  0
 24 29  2  0
  5 11  1  0
 25 30  1  0
 10  5  2  0
 30 31  2  0
 15 17  1  0
 31 32  1  0
  5  6  1  0
 32 33  2  0
  7  8  1  0
 33 34  1  0
 17 18  1  0
 34 35  2  0
 35 30  1  0
 17 19  2  0
 33 36  1  0
 11 12  1  0
 32 37  1  0
 41 38  1  0
 38 39  1  0
 39 40  1  0
  1 42  1  0
  1 43  1  0
  2 44  1  0
  2 45  1  0
  3 46  1  0
  3 47  1  0
  4 48  1  0
  6 49  1  0
  7 50  1  0
  8 51  1  0
 12 52  1  0
 13 53  1  0
 14 54  1  0
 16 55  1  0
 18 56  1  0
 20 57  1  0
 21 58  1  0
 28 59  1  0
 28 60  1  0
 28 61  1  0
 31 62  1  0
 34 63  1  0
 35 64  1  0
 36 65  1  0
 36 66  1  0
 36 67  1  0
 37 68  1  0
 37 69  1  0
 37 70  1  0
 38 71  1  0
 38 72  1  0
 39 73  1  0
 39 74  1  0
 40 75  1  0
 40 76  1  0
 41 77  1  0
M  END
> <Uni-Dock RESULT> 
ENERGY=   -5.017  LOWER_BOUND=    4.542  UPPER_BOUND=    5.520
INTER + INTRA:          -5.017
INTER:                  -5.017
INTRA:                   0.000
UNBOUND:                 0.000

$$$$

     RDKit          3D

 77 78  0  0  0  0  0  0  0  0999 V2000
   47.1388   12.3547   11.4896 C   0  0  0  0  0  0  0  0  0  0  0  0
   45.9890   11.3977   11.1553 C   0  0  0  0  0  0  0  0  0  0  0  0
   45.9061   10.2984   12.1217 N   0  0  0  0  0  0  0  0  0  0  0  0
   47.0031   12.8464   12.8227 O   0  0  0  0  0  0  0  0  0  0  0  0
   46.9459   16.3074   11.1529 C   0  0  0  0  0  0  0  0  0  0  0  0
   45.8390   16.9738   10.5943 C   0  0  0  0  0  0  0  0  0  0  0  0
   44.6703   16.2857   10.2618 C   0  0  0  0  0  0  0  0  0  0  0  0
   44.5730   14.9132   10.5014 C   0  0  0  0  0  0  0  0  0  0  0  0
   45.6324   14.2130   11.0876 C   0  0  0  0  0  0  0  0  0  0  0  0
   46.8236   14.9193   11.3675 C   0  0  0  0  0  0  0  0  0  0  0  0
   48.1776   17.0648   11.4498 C   0  0  0  0  0  0  0  0  0  0  0  0
   48.1396   18.1986   12.2823 C   0  0  0  0  0  0  0  0  0  0  0  0
   49.2937   18.9387   12.5515 C   0  0  0  0  0  0  0  0  0  0  0  0
   50.5116   18.5548   11.9913 C   0  0  0  0  0  0  0  0  0  0  0  0
   50.5774   17.4332   11.1582 C   0  0  0  0  0  0  0  0  0  0  0  0
   49.4142   16.6972   10.8899 C   0  0  0  0  0  0  0  0  0  0  0  0
   51.8937   17.0597   10.5871 C   0  0  0  0  0  0  0  0  0  0  0  0
   51.8405   15.9608    9.8103 O   0  0  0  0  0  0  0  0  0  0  0  0
   52.9451   17.6434   10.7755 O   0  0  0  0  0  0  0  0  0  0  0  0
   47.9100   14.2138   11.8357 O   0  0  0  0  0  0  0  0  0  0  0  0
   45.5874   12.8130   11.3021 N   0  0  0  0  0  0  0  0  0  0  0  0
   44.4575   12.1352   10.9654 N   0  0  0  0  0  0  0  0  0  0  0  0
   44.4248   10.8805   11.2837 C   0  0  0  0  0  0  0  0  0  0  0  0
   45.4293   10.0248   11.9913 C   0  0  0  0  0  0  0  0  0  0  0  0
   44.8290    8.7698   11.9351 N   0  0  0  0  0  0  0  0  0  0  0  0
   43.5644    8.7577   11.3167 N   0  0  0  0  0  0  0  0  0  0  0  0
   43.3033    9.9733   10.9398 C   0  0  0  0  0  0  0  0  0  0  0  0
   42.0803   10.4575   10.2559 C   0  0  0  0  0  0  0  0  0  0  0  0
   46.4635   10.4536   12.4598 O   0  0  0  0  0  0  0  0  0  0  0  0
   45.3447    7.5430   12.4257 C   0  0  0  0  0  0  0  0  0  0  0  0
   44.6165    6.3533   12.2597 C   0  0  0  0  0  0  0  0  0  0  0  0
   45.0976    5.1135   12.7220 C   0  0  0  0  0  0  0  0  0  0  0  0
   46.3486    5.0577   13.3601 C   0  0  0  0  0  0  0  0  0  0  0  0
   47.0752    6.2426   13.5356 C   0  0  0  0  0  0  0  0  0  0  0  0
   46.5804    7.4679   13.0741 C   0  0  0  0  0  0  0  0  0  0  0  0
   46.9208    3.7586   13.8591 C   0  0  0  0  0  0  0  0  0  0  0  0
   44.2753    3.8743   12.4896 C   0  0  0  0  0  0  0  0  0  0  0  0
   47.1508   12.2493   12.0128 C   0  0  0  0  0  0  0  0  0  0  0  0
   45.7881   11.5843   11.7883 C   0  0  0  0  0  0  0  0  0  0  0  0
   45.7979   10.1491   12.0564 N   0  0  0  0  0  0  0  0  0  0  0  0
   47.0839   13.6431   11.7351 O   0  0  0  0  0  0  0  0  0  0  0  0
   47.1439   13.2076   10.8040 H   0  0  0  0  0  0  0  0  0  0  0  0
   48.1048   11.8458   11.4144 H   0  0  0  0  0  0  0  0  0  0  0  0
   45.0396   11.9439   11.1916 H   0  0  0  0  0  0  0  0  0  0  0  0
   46.1084   10.9954   10.1447 H   0  0  0  0  0  0  0  0  0  0  0  0
   46.0034   10.7040   13.0569 H   0  0  0  0  0  0  0  0  0  0  0  0
   46.7351    9.7112   12.0249 H   0  0  0  0  0  0  0  0  0  0  0  0
   46.1384   13.2910   12.8785 H   0  0  0  0  0  0  0  0  0  0  0  0
   45.8949   18.0402   10.3809 H   0  0  0  0  0  0  0  0  0  0  0  0
   43.8379   16.8183    9.8100 H   0  0  0  0  0  0  0  0  0  0  0  0
   43.6578   14.3932   10.2312 H   0  0  0  0  0  0  0  0  0  0  0  0
   47.1981   18.5098   12.7352 H   0  0  0  0  0  0  0  0  0  0  0  0
   49.2426   19.8062   13.2050 H   0  0  0  0  0  0  0  0  0  0  0  0
   51.4081   19.1331   12.2063 H   0  0  0  0  0  0  0  0  0  0  0  0
   49.4646   15.8241   10.2419 H   0  0  0  0  0  0  0  0  0  0  0  0
   52.7732   15.8263    9.5360 H   0  0  0  0  0  0  0  0  0  0  0  0
   47.8469   13.3292   11.4352 H   0  0  0  0  0  0  0  0  0  0  0  0
   46.1156   12.5209   12.1351 H   0  0  0  0  0  0  0  0  0  0  0  0
   42.3460   10.8855    9.2842 H   0  0  0  0  0  0  0  0  0  0  0  0
   41.3825    9.6290   10.1035 H   0  0  0  0  0  0  0  0  0  0  0  0
   41.5964   11.2225   10.8692 H   0  0  0  0  0  0  0  0  0  0  0  0
   43.6547    6.3822   11.7541 H   0  0  0  0  0  0  0  0  0  0  0  0
   48.0446    6.2240   14.0306 H   0  0  0  0  0  0  0  0  0  0  0  0
   47.1940    8.3489   13.2386 H   0  0  0  0  0  0  0  0  0  0  0  0
   46.9913    3.0327   13.0415 H   0  0  0  0  0  0  0  0  0  0  0  0
   47.9283    3.8936   14.2656 H   0  0  0  0  0  0  0  0  0  0  0  0
   46.2929    3.3491   14.6577 H   0  0  0  0  0  0  0  0  0  0  0  0
   44.7598    3.2334   11.7466 H   0  0  0  0  0  0  0  0  0  0  0  0
   43.2744    4.1206   12.1199 H   0  0  0  0  0  0  0  0  0  0  0  0
   44.1464    3.3150   13.4220 H   0  0  0  0  0  0  0  0  0  0  0  0
   47.4705   12.1267   13.0526 H   0  0  0  0  0  0  0  0  0  0  0  0
   47.9165   11.8076   11.3664 H   0  0  0  0  0  0  0  0  0  0  0  0
   45.4667   11.7507   10.7541 H   0  0  0  0  0  0  0  0  0  0  0  0
   45.0348   12.0697   12.4194 H   0  0  0  0  0  0  0  0  0  0  0  0
   46.0673    9.9851   13.0269 H   0  0  0  0  0  0  0  0  0  0  0  0
   46.5079    9.6915   11.4845 H   0  0  0  0  0  0  0  0  0  0  0  0
   46.8287   13.7435   10.8024 H   0  0  0  0  0  0  0  0  0  0  0  0
  4  1  1  0
  1  2  1  0
  2  3  1  0
 10 20  1  0
  9 21  1  0
 12 13  2  0
 21 22  1  0
  8  9  2  0
 22 23  2  0
 23 24  1  0
 13 14  1  0
  6  7  2  0
 14 15  2  0
  9 10  1  0
 24 25  1  0
 25 26  1  0
 26 27  2  0
 27 23  1  0
 15 16  1  0
 27 28  1  0
 16 11  2  0
 24 29  2  0
  5 11  1  0
 25 30  1  0
 10  5  2  0
 30 31  2  0
 15 17  1  0
 31 32  1  0
  5  6  1  0
 32 33  2  0
  7  8  1  0
 33 34  1  0
 17 18  1  0
 34 35  2  0
 35 30  1  0
 17 19  2  0
 33 36  1  0
 11 12  1  0
 32 37  1  0
 41 38  1  0
 38 39  1  0
 39 40  1  0
  1 42  1  0
  1 43  1  0
  2 44  1  0
  2 45  1  0
  3 46  1  0
  3 47  1  0
  4 48  1  0
  6 49  1  0
  7 50  1  0
  8 51  1  0
 12 52  1  0
 13 53  1  0
 14 54  1  0
 16 55  1  0
 18 56  1  0
 20 57  1  0
 21 58  1  0
 28 59  1  0
 28 60  1  0
 28 61  1  0
 31 62  1  0
 34 63  1  0
 35 64  1  0
 36 65  1  0
 36 66  1  0
 36 67  1  0
 37 68  1  0
 37 69  1  0
 37 70  1  0
 38 71  1  0
 38 72  1  0
 39 73  1  0
 39 74  1  0
 40 75  1  0
 40 76  1  0
 41 77  1  0
M  END
> <Uni-Dock RESULT> 
ENERGY=   -4.953  LOWER_BOUND=    3.995  UPPER_BOUND=    9.982
INTER + INTRA:          -4.953
INTER:                  -4.953
INTRA:                   0.000
UNBOUND:                 0.000

$$$$

     RDKit          3D

 77 78  0  0  0  0  0  0  0  0999 V2000
   49.0532    7.9022   15.5644 C   0  0  0  0  0  0  0  0  0  0  0  0
   47.8559    8.1665   14.6445 C   0  0  0  0  0  0  0  0  0  0  0  0
   48.2307    9.0036   13.5008 N   0  0  0  0  0  0  0  0  0  0  0  0
   50.1267    7.3193   14.8259 O   0  0  0  0  0  0  0  0  0  0  0  0
   49.8039    4.4288   17.3380 C   0  0  0  0  0  0  0  0  0  0  0  0
   48.9208    3.3342   17.2797 C   0  0  0  0  0  0  0  0  0  0  0  0
   47.7899    3.3576   16.4610 C   0  0  0  0  0  0  0  0  0  0  0  0
   47.5265    4.4721   15.6616 C   0  0  0  0  0  0  0  0  0  0  0  0
   48.3932    5.5699   15.6576 C   0  0  0  0  0  0  0  0  0  0  0  0
   49.5024    5.5458   16.5324 C   0  0  0  0  0  0  0  0  0  0  0  0
   50.9642    4.3802   18.2492 C   0  0  0  0  0  0  0  0  0  0  0  0
   51.8960    3.3288   18.1689 C   0  0  0  0  0  0  0  0  0  0  0  0
   52.9850    3.2577   19.0414 C   0  0  0  0  0  0  0  0  0  0  0  0
   53.1623    4.2423   20.0128 C   0  0  0  0  0  0  0  0  0  0  0  0
   52.2497    5.2972   20.1164 C   0  0  0  0  0  0  0  0  0  0  0  0
   51.1573    5.3601   19.2392 C   0  0  0  0  0  0  0  0  0  0  0  0
   52.4792    6.3234   21.1617 C   0  0  0  0  0  0  0  0  0  0  0  0
   51.5464    7.2948   21.1630 O   0  0  0  0  0  0  0  0  0  0  0  0
   53.4024    6.3403   21.9547 O   0  0  0  0  0  0  0  0  0  0  0  0
   50.2936    6.6699   16.6195 O   0  0  0  0  0  0  0  0  0  0  0  0
   48.1335    6.7363   14.8960 N   0  0  0  0  0  0  0  0  0  0  0  0
   47.0250    6.7707   14.1088 N   0  0  0  0  0  0  0  0  0  0  0  0
   46.8925    7.8113   13.3497 C   0  0  0  0  0  0  0  0  0  0  0  0
   47.7754    9.0067   13.1664 C   0  0  0  0  0  0  0  0  0  0  0  0
   47.0263    9.7861   12.2889 N   0  0  0  0  0  0  0  0  0  0  0  0
   45.8134    9.1992   11.8810 N   0  0  0  0  0  0  0  0  0  0  0  0
   45.7185    8.0477   12.4751 C   0  0  0  0  0  0  0  0  0  0  0  0
   44.6208    7.0597   12.3467 C   0  0  0  0  0  0  0  0  0  0  0  0
   48.8577    9.1289   13.7019 O   0  0  0  0  0  0  0  0  0  0  0  0
   47.3533   11.0682   11.7782 C   0  0  0  0  0  0  0  0  0  0  0  0
   46.4645   11.7343   10.9182 C   0  0  0  0  0  0  0  0  0  0  0  0
   46.7461   13.0120   10.3983 C   0  0  0  0  0  0  0  0  0  0  0  0
   47.9468   13.6490   10.7559 C   0  0  0  0  0  0  0  0  0  0  0  0
   48.8405   12.9855   11.6067 C   0  0  0  0  0  0  0  0  0  0  0  0
   48.5474   11.7133   12.1113 C   0  0  0  0  0  0  0  0  0  0  0  0
   48.2927   15.0213   10.2449 C   0  0  0  0  0  0  0  0  0  0  0  0
   45.7378   13.6776    9.5005 C   0  0  0  0  0  0  0  0  0  0  0  0
   49.4281    7.9631   15.1892 C   0  0  0  0  0  0  0  0  0  0  0  0
   48.2725    7.8611   14.1874 C   0  0  0  0  0  0  0  0  0  0  0  0
   48.0756    9.0817   13.4109 N   0  0  0  0  0  0  0  0  0  0  0  0
   49.5726    6.7497   15.9181 O   0  0  0  0  0  0  0  0  0  0  0  0
   48.7765    7.2184   16.3726 H   0  0  0  0  0  0  0  0  0  0  0  0
   49.4166    8.8336   16.0095 H   0  0  0  0  0  0  0  0  0  0  0  0
   47.4831    7.2141   14.2507 H   0  0  0  0  0  0  0  0  0  0  0  0
   47.0433    8.6422   15.2022 H   0  0  0  0  0  0  0  0  0  0  0  0
   49.1136    8.6398   13.1307 H   0  0  0  0  0  0  0  0  0  0  0  0
   48.4755    9.9345   13.8398 H   0  0  0  0  0  0  0  0  0  0  0  0
   49.7895    6.4958   14.4302 H   0  0  0  0  0  0  0  0  0  0  0  0
   49.0933    2.4601   17.9059 H   0  0  0  0  0  0  0  0  0  0  0  0
   47.1106    2.5096   16.4509 H   0  0  0  0  0  0  0  0  0  0  0  0
   46.6388    4.4748   15.0347 H   0  0  0  0  0  0  0  0  0  0  0  0
   51.7781    2.5540   17.4112 H   0  0  0  0  0  0  0  0  0  0  0  0
   53.6976    2.4411   18.9553 H   0  0  0  0  0  0  0  0  0  0  0  0
   54.0137    4.1838   20.6882 H   0  0  0  0  0  0  0  0  0  0  0  0
   50.4468    6.1809   19.3191 H   0  0  0  0  0  0  0  0  0  0  0  0
   51.8450    7.9010   21.8747 H   0  0  0  0  0  0  0  0  0  0  0  0
   49.7018    7.4261   16.4625 H   0  0  0  0  0  0  0  0  0  0  0  0
   48.9928    7.1975   14.5689 H   0  0  0  0  0  0  0  0  0  0  0  0
   44.1586    6.8927   13.3247 H   0  0  0  0  0  0  0  0  0  0  0  0
   43.8623    7.4296   11.6506 H   0  0  0  0  0  0  0  0  0  0  0  0
   45.0208    6.1150   11.9684 H   0  0  0  0  0  0  0  0  0  0  0  0
   45.5260   11.2576   10.6470 H   0  0  0  0  0  0  0  0  0  0  0  0
   49.7783   13.4580   11.8940 H   0  0  0  0  0  0  0  0  0  0  0  0
   49.2807   11.2547   12.7684 H   0  0  0  0  0  0  0  0  0  0  0  0
   47.5068   15.7372   10.5095 H   0  0  0  0  0  0  0  0  0  0  0  0
   49.2290   15.3868   10.6787 H   0  0  0  0  0  0  0  0  0  0  0  0
   48.4168   15.0011    9.1569 H   0  0  0  0  0  0  0  0  0  0  0  0
   45.2746   14.5247   10.0156 H   0  0  0  0  0  0  0  0  0  0  0  0
   44.9413   12.9849    9.2090 H   0  0  0  0  0  0  0  0  0  0  0  0
   46.2129   14.0294    8.5789 H   0  0  0  0  0  0  0  0  0  0  0  0
   50.3708    8.1588   14.6683 H   0  0  0  0  0  0  0  0  0  0  0  0
   49.2592    8.7745   15.9049 H   0  0  0  0  0  0  0  0  0  0  0  0
   47.3454    7.6263   14.7222 H   0  0  0  0  0  0  0  0  0  0  0  0
   48.4494    7.0193   13.5080 H   0  0  0  0  0  0  0  0  0  0  0  0
   48.9245    9.2924   12.8853 H   0  0  0  0  0  0  0  0  0  0  0  0
   47.9262    9.8736   14.0364 H   0  0  0  0  0  0  0  0  0  0  0  0
   48.7428    6.5983   16.4013 H   0  0  0  0  0  0  0  0  0  0  0  0
  4  1  1  0
  1  2  1  0
  2  3  1  0
 10 20  1  0
  9 21  1  0
 12 13  2  0
 21 22  1  0
  8  9  2  0
 22 23  2  0
 23 24  1  0
 13 14  1  0
  6  7  2  0
 14 15  2  0
  9 10  1  0
 24 25  1  0
 25 26  1  0
 26 27  2  0
 27 23  1  0
 15 16  1  0
 27 28  1  0
 16 11  2  0
 24 29  2  0
  5 11  1  0
 25 30  1  0
 10  5  2  0
 30 31  2  0
 15 17  1  0
 31 32  1  0
  5  6  1  0
 32 33  2  0
  7  8  1  0
 33 34  1  0
 17 18  1  0
 34 35  2  0
 35 30  1  0
 17 19  2  0
 33 36  1  0
 11 12  1  0
 32 37  1  0
 41 38  1  0
 38 39  1  0
 39 40  1  0
  1 42  1  0
  1 43  1  0
  2 44  1  0
  2 45  1  0
  3 46  1  0
  3 47  1  0
  4 48  1  0
  6 49  1  0
  7 50  1  0
  8 51  1  0
 12 52  1  0
 13 53  1  0
 14 54  1  0
 16 55  1  0
 18 56  1  0
 20 57  1  0
 21 58  1  0
 28 59  1  0
 28 60  1  0
 28 61  1  0
 31 62  1  0
 34 63  1  0
 35 64  1  0
 36 65  1  0
 36 66  1  0
 36 67  1  0
 37 68  1  0
 37 69  1  0
 37 70  1  0
 38 71  1  0
 38 72  1  0
 39 73  1  0
 39 74  1  0
 40 75  1  0
 40 76  1  0
 41 77  1  0
M  END
> <Uni-Dock RESULT> 
ENERGY=   -4.689  LOWER_BOUND=    6.070  UPPER_BOUND=    8.775
INTER + INTRA:          -4.689
INTER:                  -4.689
INTRA:                   0.000
UNBOUND:                 0.000

$$$$

     RDKit          3D

 77 78  0  0  0  0  0  0  0  0999 V2000
   47.8488   12.2099   18.0832 C   0  0  0  0  0  0  0  0  0  0  0  0
   48.4539   13.3520   17.2591 C   0  0  0  0  0  0  0  0  0  0  0  0
   47.4142   14.1577   16.6117 N   0  0  0  0  0  0  0  0  0  0  0  0
   46.9226   12.7251   19.0394 O   0  0  0  0  0  0  0  0  0  0  0  0
   49.2044   11.0272   21.6240 C   0  0  0  0  0  0  0  0  0  0  0  0
   50.3785   11.5432   22.2041 C   0  0  0  0  0  0  0  0  0  0  0  0
   51.0581   12.6198   21.6308 C   0  0  0  0  0  0  0  0  0  0  0  0
   50.5653   13.2221   20.4711 C   0  0  0  0  0  0  0  0  0  0  0  0
   49.3830   12.7686   19.8771 C   0  0  0  0  0  0  0  0  0  0  0  0
   48.7409   11.6453   20.4447 C   0  0  0  0  0  0  0  0  0  0  0  0
   48.5409    9.8605   22.2384 C   0  0  0  0  0  0  0  0  0  0  0  0
   48.1447    9.8891   23.5884 C   0  0  0  0  0  0  0  0  0  0  0  0
   47.5380    8.7829   24.1888 C   0  0  0  0  0  0  0  0  0  0  0  0
   47.3149    7.6243   23.4456 C   0  0  0  0  0  0  0  0  0  0  0  0
   47.7011    7.5679   22.1024 C   0  0  0  0  0  0  0  0  0  0  0  0
   48.3125    8.6810   21.5075 C   0  0  0  0  0  0  0  0  0  0  0  0
   47.4415    6.3172   21.3497 C   0  0  0  0  0  0  0  0  0  0  0  0
   47.8444    6.3792   20.0661 O   0  0  0  0  0  0  0  0  0  0  0  0
   46.9139    5.3138   21.7929 O   0  0  0  0  0  0  0  0  0  0  0  0
   47.6427   11.1217   19.7989 O   0  0  0  0  0  0  0  0  0  0  0  0
   48.8787   13.3240   18.6749 N   0  0  0  0  0  0  0  0  0  0  0  0
   49.5453   14.3626   18.1035 N   0  0  0  0  0  0  0  0  0  0  0  0
   48.9842   14.9057   17.0707 C   0  0  0  0  0  0  0  0  0  0  0  0
   47.6888   14.5969   16.3863 C   0  0  0  0  0  0  0  0  0  0  0  0
   47.7186   15.4731   15.3046 N   0  0  0  0  0  0  0  0  0  0  0  0
   48.8517   16.3074   15.2637 N   0  0  0  0  0  0  0  0  0  0  0  0
   49.5960   16.0042   16.2845 C   0  0  0  0  0  0  0  0  0  0  0  0
   50.8865   16.6240   16.6696 C   0  0  0  0  0  0  0  0  0  0  0  0
   46.8971   13.7710   16.7913 O   0  0  0  0  0  0  0  0  0  0  0  0
   46.7519   15.6080   14.2755 C   0  0  0  0  0  0  0  0  0  0  0  0
   46.9523   16.5287   13.2337 C   0  0  0  0  0  0  0  0  0  0  0  0
   46.0230   16.6856   12.1878 C   0  0  0  0  0  0  0  0  0  0  0  0
   44.8632   15.8919   12.1756 C   0  0  0  0  0  0  0  0  0  0  0  0
   44.6545   14.9779   13.2167 C   0  0  0  0  0  0  0  0  0  0  0  0
   45.5862   14.8375   14.2516 C   0  0  0  0  0  0  0  0  0  0  0  0
   43.8439   16.0039   11.0744 C   0  0  0  0  0  0  0  0  0  0  0  0
   46.3127   17.6749   11.0909 C   0  0  0  0  0  0  0  0  0  0  0  0
   47.3794   12.4474   18.1741 C   0  0  0  0  0  0  0  0  0  0  0  0
   48.0694   13.7280   17.6909 C   0  0  0  0  0  0  0  0  0  0  0  0
   47.4847   14.2693   16.4675 N   0  0  0  0  0  0  0  0  0  0  0  0
   47.9898   11.9639   19.3649 O   0  0  0  0  0  0  0  0  0  0  0  0
   48.6308   11.6622   18.6178 H   0  0  0  0  0  0  0  0  0  0  0  0
   47.3126   11.5057   17.4396 H   0  0  0  0  0  0  0  0  0  0  0  0
   49.0238   14.0147   17.9202 H   0  0  0  0  0  0  0  0  0  0  0  0
   49.1406   12.9563   16.5044 H   0  0  0  0  0  0  0  0  0  0  0  0
   46.6853   14.3353   17.3087 H   0  0  0  0  0  0  0  0  0  0  0  0
   46.9437   13.5860   15.9094 H   0  0  0  0  0  0  0  0  0  0  0  0
   47.4096   13.3542   19.6012 H   0  0  0  0  0  0  0  0  0  0  0  0
   50.7939   11.0809   23.0984 H   0  0  0  0  0  0  0  0  0  0  0  0
   51.9754   12.9852   22.0845 H   0  0  0  0  0  0  0  0  0  0  0  0
   51.1104   14.0554   20.0358 H   0  0  0  0  0  0  0  0  0  0  0  0
   48.3041   10.7885   24.1834 H   0  0  0  0  0  0  0  0  0  0  0  0
   47.2317    8.8304   25.2310 H   0  0  0  0  0  0  0  0  0  0  0  0
   46.8395    6.7664   23.9173 H   0  0  0  0  0  0  0  0  0  0  0  0
   48.6130    8.6380   20.4622 H   0  0  0  0  0  0  0  0  0  0  0  0
   47.5838    5.5069   19.6997 H   0  0  0  0  0  0  0  0  0  0  0  0
   47.7891   11.2816   18.8503 H   0  0  0  0  0  0  0  0  0  0  0  0
   47.8513   13.3032   18.6272 H   0  0  0  0  0  0  0  0  0  0  0  0
   51.6747   15.8647   16.6699 H   0  0  0  0  0  0  0  0  0  0  0  0
   51.1501   17.4138   15.9601 H   0  0  0  0  0  0  0  0  0  0  0  0
   50.8003   17.0579   17.6696 H   0  0  0  0  0  0  0  0  0  0  0  0
   47.8531   17.1371   13.2248 H   0  0  0  0  0  0  0  0  0  0  0  0
   43.7614   14.3555   13.2300 H   0  0  0  0  0  0  0  0  0  0  0  0
   45.3668   14.1090   15.0268 H   0  0  0  0  0  0  0  0  0  0  0  0
   44.3129   15.8287   10.0999 H   0  0  0  0  0  0  0  0  0  0  0  0
   43.0443   15.2653   11.1911 H   0  0  0  0  0  0  0  0  0  0  0  0
   43.3823   16.9971   11.0841 H   0  0  0  0  0  0  0  0  0  0  0  0
   46.5378   17.1492   10.1580 H   0  0  0  0  0  0  0  0  0  0  0  0
   47.1729   18.3063   11.3372 H   0  0  0  0  0  0  0  0  0  0  0  0
   45.4577   18.3409   10.9347 H   0  0  0  0  0  0  0  0  0  0  0  0
   46.3232   12.6389   18.3893 H   0  0  0  0  0  0  0  0  0  0  0  0
   47.4354   11.6591   17.4160 H   0  0  0  0  0  0  0  0  0  0  0  0
   49.1325   13.5270   17.5183 H   0  0  0  0  0  0  0  0  0  0  0  0
   48.0309   14.4861   18.4818 H   0  0  0  0  0  0  0  0  0  0  0  0
   46.5008   14.4881   16.6272 H   0  0  0  0  0  0  0  0  0  0  0  0
   47.5018   13.5644   15.7303 H   0  0  0  0  0  0  0  0  0  0  0  0
   48.9193   11.7680   19.1583 H   0  0  0  0  0  0  0  0  0  0  0  0
  4  1  1  0
  1  2  1  0
  2  3  1  0
 10 20  1  0
  9 21  1  0
 12 13  2  0
 21 22  1  0
  8  9  2  0
 22 23  2  0
 23 24  1  0
 13 14  1  0
  6  7  2  0
 14 15  2  0
  9 10  1  0
 24 25  1  0
 25 26  1  0
 26 27  2  0
 27 23  1  0
 15 16  1  0
 27 28  1  0
 16 11  2  0
 24 29  2  0
  5 11  1  0
 25 30  1  0
 10  5  2  0
 30 31  2  0
 15 17  1  0
 31 32  1  0
  5  6  1  0
 32 33  2  0
  7  8  1  0
 33 34  1  0
 17 18  1  0
 34 35  2  0
 35 30  1  0
 17 19  2  0
 33 36  1  0
 11 12  1  0
 32 37  1  0
 41 38  1  0
 38 39  1  0
 39 40  1  0
  1 42  1  0
  1 43  1  0
  2 44  1  0
  2 45  1  0
  3 46  1  0
  3 47  1  0
  4 48  1  0
  6 49  1  0
  7 50  1  0
  8 51  1  0
 12 52  1  0
 13 53  1  0
 14 54  1  0
 16 55  1  0
 18 56  1  0
 20 57  1  0
 21 58  1  0
 28 59  1  0
 28 60  1  0
 28 61  1  0
 31 62  1  0
 34 63  1  0
 35 64  1  0
 36 65  1  0
 36 66  1  0
 36 67  1  0
 37 68  1  0
 37 69  1  0
 37 70  1  0
 38 71  1  0
 38 72  1  0
 39 73  1  0
 39 74  1  0
 40 75  1  0
 40 76  1  0
 41 77  1  0
M  END
> <Uni-Dock RESULT> 
ENERGY=   -4.669  LOWER_BOUND=    7.489  UPPER_BOUND=    9.543
INTER + INTRA:          -4.669
INTER:                  -4.669
INTRA:                   0.000
UNBOUND:                 0.000

$$$$

     RDKit          3D

 77 78  0  0  0  0  0  0  0  0999 V2000
   50.0666    8.8046   17.4472 C   0  0  0  0  0  0  0  0  0  0  0  0
   49.3235   10.0755   17.8741 C   0  0  0  0  0  0  0  0  0  0  0  0
   49.1155   10.9830   16.7417 N   0  0  0  0  0  0  0  0  0  0  0  0
   49.3687    8.1553   16.3848 O   0  0  0  0  0  0  0  0  0  0  0  0
   49.2405    5.1582   18.7871 C   0  0  0  0  0  0  0  0  0  0  0  0
   48.3005    4.9129   19.8057 C   0  0  0  0  0  0  0  0  0  0  0  0
   47.4870    5.9332   20.3029 C   0  0  0  0  0  0  0  0  0  0  0  0
   47.5798    7.2231   19.7755 C   0  0  0  0  0  0  0  0  0  0  0  0
   48.4733    7.5087   18.7380 C   0  0  0  0  0  0  0  0  0  0  0  0
   49.3226    6.4737   18.2867 C   0  0  0  0  0  0  0  0  0  0  0  0
   50.1107    4.0611   18.3202 C   0  0  0  0  0  0  0  0  0  0  0  0
   49.5564    2.8580   17.8455 C   0  0  0  0  0  0  0  0  0  0  0  0
   50.3691    1.8026   17.4238 C   0  0  0  0  0  0  0  0  0  0  0  0
   51.7566    1.9335   17.4685 C   0  0  0  0  0  0  0  0  0  0  0  0
   52.3342    3.1177   17.9382 C   0  0  0  0  0  0  0  0  0  0  0  0
   51.5120    4.1714   18.3629 C   0  0  0  0  0  0  0  0  0  0  0  0
   53.8135    3.2142   17.9651 C   0  0  0  0  0  0  0  0  0  0  0  0
   54.2578    4.3993   18.4253 O   0  0  0  0  0  0  0  0  0  0  0  0
   54.5918    2.3480   17.6109 O   0  0  0  0  0  0  0  0  0  0  0  0
   50.2840    6.7765   17.3479 O   0  0  0  0  0  0  0  0  0  0  0  0
   48.6283    8.8149   18.2108 N   0  0  0  0  0  0  0  0  0  0  0  0
   47.8497    9.8158   18.7024 N   0  0  0  0  0  0  0  0  0  0  0  0
   47.9504   10.9637   18.1118 C   0  0  0  0  0  0  0  0  0  0  0  0
   48.7804   11.3916   16.9413 C   0  0  0  0  0  0  0  0  0  0  0  0
   48.4973   12.7530   16.8700 N   0  0  0  0  0  0  0  0  0  0  0  0
   47.5670   13.2039   17.8255 N   0  0  0  0  0  0  0  0  0  0  0  0
   47.2268   12.1812   18.5510 C   0  0  0  0  0  0  0  0  0  0  0  0
   46.2613   12.1606   19.6758 C   0  0  0  0  0  0  0  0  0  0  0  0
   49.4729   10.6312   16.2970 O   0  0  0  0  0  0  0  0  0  0  0  0
   49.0313   13.6996   15.9587 C   0  0  0  0  0  0  0  0  0  0  0  0
   48.6581   15.0511   16.0437 C   0  0  0  0  0  0  0  0  0  0  0  0
   49.1732   16.0239   15.1659 C   0  0  0  0  0  0  0  0  0  0  0  0
   50.0972   15.6378   14.1797 C   0  0  0  0  0  0  0  0  0  0  0  0
   50.4665   14.2897   14.0853 C   0  0  0  0  0  0  0  0  0  0  0  0
   49.9414   13.3342   14.9631 C   0  0  0  0  0  0  0  0  0  0  0  0
   50.6939   16.6365   13.2255 C   0  0  0  0  0  0  0  0  0  0  0  0
   48.7476   17.4584   15.3288 C   0  0  0  0  0  0  0  0  0  0  0  0
   49.9105    8.8157   16.9369 C   0  0  0  0  0  0  0  0  0  0  0  0
   48.8767    9.8482   17.4003 C   0  0  0  0  0  0  0  0  0  0  0  0
   49.0693   11.1643   16.7983 N   0  0  0  0  0  0  0  0  0  0  0  0
   49.6772    7.5556   17.5551 O   0  0  0  0  0  0  0  0  0  0  0  0
   50.1508    8.1058   18.2852 H   0  0  0  0  0  0  0  0  0  0  0  0
   51.0746    9.0421   17.0933 H   0  0  0  0  0  0  0  0  0  0  0  0
   48.3373    9.8047   18.2679 H   0  0  0  0  0  0  0  0  0  0  0  0
   49.8734   10.5915   18.6672 H   0  0  0  0  0  0  0  0  0  0  0  0
   48.7898   10.4184   15.9519 H   0  0  0  0  0  0  0  0  0  0  0  0
   50.0215   11.3349   16.4306 H   0  0  0  0  0  0  0  0  0  0  0  0
   48.4726    7.9551   16.7097 H   0  0  0  0  0  0  0  0  0  0  0  0
   48.2201    3.9204   20.2465 H   0  0  0  0  0  0  0  0  0  0  0  0
   46.7853    5.7241   21.1057 H   0  0  0  0  0  0  0  0  0  0  0  0
   46.9427    8.0058   20.1786 H   0  0  0  0  0  0  0  0  0  0  0  0
   48.4738    2.7399   17.7962 H   0  0  0  0  0  0  0  0  0  0  0  0
   49.9189    0.8853   17.0521 H   0  0  0  0  0  0  0  0  0  0  0  0
   52.3852    1.1095   17.1362 H   0  0  0  0  0  0  0  0  0  0  0  0
   51.9608    5.0933   18.7284 H   0  0  0  0  0  0  0  0  0  0  0  0
   55.2338    4.3227   18.3566 H   0  0  0  0  0  0  0  0  0  0  0  0
   50.5425    7.6989   17.5181 H   0  0  0  0  0  0  0  0  0  0  0  0
   48.8686    8.8144   17.2107 H   0  0  0  0  0  0  0  0  0  0  0  0
   46.7689   11.8426   20.5918 H   0  0  0  0  0  0  0  0  0  0  0  0
   45.8404   13.1588   19.8276 H   0  0  0  0  0  0  0  0  0  0  0  0
   45.4503   11.4629   19.4494 H   0  0  0  0  0  0  0  0  0  0  0  0
   47.9558   15.3637   16.8122 H   0  0  0  0  0  0  0  0  0  0  0  0
   51.1776   13.9670   13.3268 H   0  0  0  0  0  0  0  0  0  0  0  0
   50.2707   12.3066   14.8391 H   0  0  0  0  0  0  0  0  0  0  0  0
   51.1930   17.4411   13.7768 H   0  0  0  0  0  0  0  0  0  0  0  0
   51.4415   16.1723   12.5743 H   0  0  0  0  0  0  0  0  0  0  0  0
   49.9142   17.0622   12.5849 H   0  0  0  0  0  0  0  0  0  0  0  0
   49.5813   18.0594   15.7046 H   0  0  0  0  0  0  0  0  0  0  0  0
   47.9184   17.5528   16.0379 H   0  0  0  0  0  0  0  0  0  0  0  0
   48.4044   17.8711   14.3743 H   0  0  0  0  0  0  0  0  0  0  0  0
   49.8532    8.6760   15.8526 H   0  0  0  0  0  0  0  0  0  0  0  0
   50.9274    9.1365   17.1861 H   0  0  0  0  0  0  0  0  0  0  0  0
   48.9217    9.9458   18.4907 H   0  0  0  0  0  0  0  0  0  0  0  0
   47.8680    9.4851   17.1720 H   0  0  0  0  0  0  0  0  0  0  0  0
   48.9991   11.0888   15.7831 H   0  0  0  0  0  0  0  0  0  0  0  0
   50.0118   11.5030   16.9924 H   0  0  0  0  0  0  0  0  0  0  0  0
   49.7592    7.6815   18.5155 H   0  0  0  0  0  0  0  0  0  0  0  0
  4  1  1  0
  1  2  1  0
  2  3  1  0
 10 20  1  0
  9 21  1  0
 12 13  2  0
 21 22  1  0
  8  9  2  0
 22 23  2  0
 23 24  1  0
 13 14  1  0
  6  7  2  0
 14 15  2  0
  9 10  1  0
 24 25  1  0
 25 26  1  0
 26 27  2  0
 27 23  1  0
 15 16  1  0
 27 28  1  0
 16 11  2  0
 24 29  2  0
  5 11  1  0
 25 30  1  0
 10  5  2  0
 30 31  2  0
 15 17  1  0
 31 32  1  0
  5  6  1  0
 32 33  2  0
  7  8  1  0
 33 34  1  0
 17 18  1  0
 34 35  2  0
 35 30  1  0
 17 19  2  0
 33 36  1  0
 11 12  1  0
 32 37  1  0
 41 38  1  0
 38 39  1  0
 39 40  1  0
  1 42  1  0
  1 43  1  0
  2 44  1  0
  2 45  1  0
  3 46  1  0
  3 47  1  0
  4 48  1  0
  6 49  1  0
  7 50  1  0
  8 51  1  0
 12 52  1  0
 13 53  1  0
 14 54  1  0
 16 55  1  0
 18 56  1  0
 20 57  1  0
 21 58  1  0
 28 59  1  0
 28 60  1  0
 28 61  1  0
 31 62  1  0
 34 63  1  0
 35 64  1  0
 36 65  1  0
 36 66  1  0
 36 67  1  0
 37 68  1  0
 37 69  1  0
 37 70  1  0
 38 71  1  0
 38 72  1  0
 39 73  1  0
 39 74  1  0
 40 75  1  0
 40 76  1  0
 41 77  1  0
M  END
> <Uni-Dock RESULT> 
ENERGY=   -4.611  LOWER_BOUND=    8.602  UPPER_BOUND=    9.623
INTER + INTRA:          -4.611
INTER:                  -4.611
INTRA:                   0.000
UNBOUND:                 0.000

$$$$

     RDKit          3D

 77 78  0  0  0  0  0  0  0  0999 V2000
   47.6853    8.5646   13.4330 C   0  0  0  0  0  0  0  0  0  0  0  0
   48.0481    9.4526   12.2374 C   0  0  0  0  0  0  0  0  0  0  0  0
   47.0577   10.5146   12.0361 N   0  0  0  0  0  0  0  0  0  0  0  0
   47.5294    9.3570   14.6100 O   0  0  0  0  0  0  0  0  0  0  0  0
   50.3092    7.1234   16.0430 C   0  0  0  0  0  0  0  0  0  0  0  0
   51.7001    7.2807   15.8946 C   0  0  0  0  0  0  0  0  0  0  0  0
   52.2354    8.0906   14.8909 C   0  0  0  0  0  0  0  0  0  0  0  0
   51.3882    8.7822   14.0224 C   0  0  0  0  0  0  0  0  0  0  0  0
   49.9988    8.6866   14.1520 C   0  0  0  0  0  0  0  0  0  0  0  0
   49.4802    7.8209   15.1408 C   0  0  0  0  0  0  0  0  0  0  0  0
   49.7860    6.2239   17.0900 C   0  0  0  0  0  0  0  0  0  0  0  0
   50.1486    6.4042   18.4376 C   0  0  0  0  0  0  0  0  0  0  0  0
   49.6801    5.5452   19.4350 C   0  0  0  0  0  0  0  0  0  0  0  0
   48.8359    4.4870   19.1003 C   0  0  0  0  0  0  0  0  0  0  0  0
   48.4617    4.2833   17.7680 C   0  0  0  0  0  0  0  0  0  0  0  0
   48.9385    5.1477   16.7720 C   0  0  0  0  0  0  0  0  0  0  0  0
   47.5599    3.1478   17.4584 C   0  0  0  0  0  0  0  0  0  0  0  0
   47.2586    3.0536   16.1491 O   0  0  0  0  0  0  0  0  0  0  0  0
   47.1024    2.3592   18.2648 O   0  0  0  0  0  0  0  0  0  0  0  0
   48.1170    7.6320   15.1978 O   0  0  0  0  0  0  0  0  0  0  0  0
   49.1091    9.3358   13.2603 N   0  0  0  0  0  0  0  0  0  0  0  0
   49.6254   10.1133   12.2710 N   0  0  0  0  0  0  0  0  0  0  0  0
   48.7715   10.7721   11.5545 C   0  0  0  0  0  0  0  0  0  0  0  0
   47.2781   10.8460   11.6352 C   0  0  0  0  0  0  0  0  0  0  0  0
   46.9697   11.6451   10.5375 N   0  0  0  0  0  0  0  0  0  0  0  0
   48.0902   12.1024    9.8184 N   0  0  0  0  0  0  0  0  0  0  0  0
   49.1482   11.6176   10.3960 C   0  0  0  0  0  0  0  0  0  0  0  0
   50.5620   11.8342   10.0061 C   0  0  0  0  0  0  0  0  0  0  0  0
   46.6263   10.3045   12.5040 O   0  0  0  0  0  0  0  0  0  0  0  0
   45.6824   12.0355   10.0880 C   0  0  0  0  0  0  0  0  0  0  0  0
   45.5461   12.8273    8.9357 C   0  0  0  0  0  0  0  0  0  0  0  0
   44.2865   13.2271    8.4501 C   0  0  0  0  0  0  0  0  0  0  0  0
   43.1270   12.8152    9.1290 C   0  0  0  0  0  0  0  0  0  0  0  0
   43.2577   12.0323   10.2835 C   0  0  0  0  0  0  0  0  0  0  0  0
   44.5177   11.6473   10.7557 C   0  0  0  0  0  0  0  0  0  0  0  0
   41.7541   13.1975    8.6463 C   0  0  0  0  0  0  0  0  0  0  0  0
   44.2130   14.0563    7.1960 C   0  0  0  0  0  0  0  0  0  0  0  0
   47.4012    8.9335   13.6942 C   0  0  0  0  0  0  0  0  0  0  0  0
   48.0406    9.9372   12.7282 C   0  0  0  0  0  0  0  0  0  0  0  0
   47.0703   10.5964   11.8589 N   0  0  0  0  0  0  0  0  0  0  0  0
   48.3905    8.3210   14.5131 O   0  0  0  0  0  0  0  0  0  0  0  0
   48.4686    7.8226   13.6156 H   0  0  0  0  0  0  0  0  0  0  0  0
   46.7437    8.0358   13.2551 H   0  0  0  0  0  0  0  0  0  0  0  0
   49.0162    9.9321   12.4215 H   0  0  0  0  0  0  0  0  0  0  0  0
   48.1372    8.8508   11.3277 H   0  0  0  0  0  0  0  0  0  0  0  0
   46.8511   10.9194   12.9538 H   0  0  0  0  0  0  0  0  0  0  0  0
   46.1732   10.0912   11.7535 H   0  0  0  0  0  0  0  0  0  0  0  0
   48.3705    9.8266   14.7538 H   0  0  0  0  0  0  0  0  0  0  0  0
   52.3832    6.7389   16.5472 H   0  0  0  0  0  0  0  0  0  0  0  0
   53.3130    8.1774   14.7819 H   0  0  0  0  0  0  0  0  0  0  0  0
   51.8226    9.4036   13.2437 H   0  0  0  0  0  0  0  0  0  0  0  0
   50.8017    7.2303   18.7196 H   0  0  0  0  0  0  0  0  0  0  0  0
   49.9660    5.7088   20.4712 H   0  0  0  0  0  0  0  0  0  0  0  0
   48.4716    3.8223   19.8813 H   0  0  0  0  0  0  0  0  0  0  0  0
   48.6475    4.9900   15.7350 H   0  0  0  0  0  0  0  0  0  0  0  0
   46.6441    2.2895   16.1077 H   0  0  0  0  0  0  0  0  0  0  0  0
   47.7971    7.7164   14.2828 H   0  0  0  0  0  0  0  0  0  0  0  0
   48.2303    9.6211   13.7125 H   0  0  0  0  0  0  0  0  0  0  0  0
   51.0283   10.8746    9.7614 H   0  0  0  0  0  0  0  0  0  0  0  0
   50.6142   12.4907    9.1327 H   0  0  0  0  0  0  0  0  0  0  0  0
   51.1031   12.2997   10.8344 H   0  0  0  0  0  0  0  0  0  0  0  0
   46.4354   13.1391    8.3939 H   0  0  0  0  0  0  0  0  0  0  0  0
   42.3736   11.7049   10.8278 H   0  0  0  0  0  0  0  0  0  0  0  0
   44.5503   11.0376   11.6541 H   0  0  0  0  0  0  0  0  0  0  0  0
   41.6058   12.8654    7.6129 H   0  0  0  0  0  0  0  0  0  0  0  0
   40.9711   12.7342    9.2553 H   0  0  0  0  0  0  0  0  0  0  0  0
   41.6202   14.2830    8.7036 H   0  0  0  0  0  0  0  0  0  0  0  0
   43.7983   13.4634    6.3750 H   0  0  0  0  0  0  0  0  0  0  0  0
   45.2035   14.4087    6.8894 H   0  0  0  0  0  0  0  0  0  0  0  0
   43.5898   14.9426    7.3540 H   0  0  0  0  0  0  0  0  0  0  0  0
   46.6836    9.4367   14.3502 H   0  0  0  0  0  0  0  0  0  0  0  0
   46.8710    8.1450   13.1499 H   0  0  0  0  0  0  0  0  0  0  0  0
   48.7833    9.4240   12.1073 H   0  0  0  0  0  0  0  0  0  0  0  0
   48.5946   10.6924   13.2977 H   0  0  0  0  0  0  0  0  0  0  0  0
   46.3910   11.1026   12.4279 H   0  0  0  0  0  0  0  0  0  0  0  0
   46.5389    9.8996   11.3367 H   0  0  0  0  0  0  0  0  0  0  0  0
   49.0066    7.8516   13.9257 H   0  0  0  0  0  0  0  0  0  0  0  0
  4  1  1  0
  1  2  1  0
  2  3  1  0
 10 20  1  0
  9 21  1  0
 12 13  2  0
 21 22  1  0
  8  9  2  0
 22 23  2  0
 23 24  1  0
 13 14  1  0
  6  7  2  0
 14 15  2  0
  9 10  1  0
 24 25  1  0
 25 26  1  0
 26 27  2  0
 27 23  1  0
 15 16  1  0
 27 28  1  0
 16 11  2  0
 24 29  2  0
  5 11  1  0
 25 30  1  0
 10  5  2  0
 30 31  2  0
 15 17  1  0
 31 32  1  0
  5  6  1  0
 32 33  2  0
  7  8  1  0
 33 34  1  0
 17 18  1  0
 34 35  2  0
 35 30  1  0
 17 19  2  0
 33 36  1  0
 11 12  1  0
 32 37  1  0
 41 38  1  0
 38 39  1  0
 39 40  1  0
  1 42  1  0
  1 43  1  0
  2 44  1  0
  2 45  1  0
  3 46  1  0
  3 47  1  0
  4 48  1  0
  6 49  1  0
  7 50  1  0
  8 51  1  0
 12 52  1  0
 13 53  1  0
 14 54  1  0
 16 55  1  0
 18 56  1  0
 20 57  1  0
 21 58  1  0
 28 59  1  0
 28 60  1  0
 28 61  1  0
 31 62  1  0
 34 63  1  0
 35 64  1  0
 36 65  1  0
 36 66  1  0
 36 67  1  0
 37 68  1  0
 37 69  1  0
 37 70  1  0
 38 71  1  0
 38 72  1  0
 39 73  1  0
 39 74  1  0
 40 75  1  0
 40 76  1  0
 41 77  1  0
M  END
> <Uni-Dock RESULT> 
ENERGY=   -4.599  LOWER_BOUND=    4.501  UPPER_BOUND=    6.163
INTER + INTRA:          -4.599
INTER:                  -4.599
INTRA:                   0.000
UNBOUND:                 0.000

$$$$

     RDKit          3D

 77 78  0  0  0  0  0  0  0  0999 V2000
   50.3174    8.0517   13.7413 C   0  0  0  0  0  0  0  0  0  0  0  0
   51.2337    8.7546   12.7333 C   0  0  0  0  0  0  0  0  0  0  0  0
   50.6490   10.0135   12.2617 N   0  0  0  0  0  0  0  0  0  0  0  0
   50.0177    8.9236   14.8310 O   0  0  0  0  0  0  0  0  0  0  0  0
   51.5845    6.1626   16.9970 C   0  0  0  0  0  0  0  0  0  0  0  0
   52.9483    5.9660   17.2845 C   0  0  0  0  0  0  0  0  0  0  0  0
   53.9460    6.5619   16.5103 C   0  0  0  0  0  0  0  0  0  0  0  0
   53.6013    7.3895   15.4394 C   0  0  0  0  0  0  0  0  0  0  0  0
   52.2600    7.6443   15.1358 C   0  0  0  0  0  0  0  0  0  0  0  0
   51.2682    6.9895   15.8998 C   0  0  0  0  0  0  0  0  0  0  0  0
   50.5625    5.4794   17.8141 C   0  0  0  0  0  0  0  0  0  0  0  0
   50.5352    5.6416   19.2117 C   0  0  0  0  0  0  0  0  0  0  0  0
   49.5886    4.9814   19.9992 C   0  0  0  0  0  0  0  0  0  0  0  0
   48.6478    4.1447   19.3996 C   0  0  0  0  0  0  0  0  0  0  0  0
   48.6539    3.9636   18.0127 C   0  0  0  0  0  0  0  0  0  0  0  0
   49.6092    4.6271   17.2291 C   0  0  0  0  0  0  0  0  0  0  0  0
   47.6333    3.0677   17.4177 C   0  0  0  0  0  0  0  0  0  0  0  0
   47.7270    2.9760   16.0773 O   0  0  0  0  0  0  0  0  0  0  0  0
   46.7720    2.4621   18.0284 O   0  0  0  0  0  0  0  0  0  0  0  0
   49.9495    7.1435   15.5330 O   0  0  0  0  0  0  0  0  0  0  0  0
   51.8726    8.4399   14.0290 N   0  0  0  0  0  0  0  0  0  0  0  0
   52.8402    9.0099   13.2619 N   0  0  0  0  0  0  0  0  0  0  0  0
   52.4353    9.8160   12.3330 C   0  0  0  0  0  0  0  0  0  0  0  0
   51.0555   10.2576   11.9547 C   0  0  0  0  0  0  0  0  0  0  0  0
   51.3025   11.0443   10.8328 N   0  0  0  0  0  0  0  0  0  0  0  0
   52.6646   11.1718   10.5008 N   0  0  0  0  0  0  0  0  0  0  0  0
   53.3427   10.4764   11.3637 C   0  0  0  0  0  0  0  0  0  0  0  0
   54.8153   10.3179   11.4296 C   0  0  0  0  0  0  0  0  0  0  0  0
   50.0585    9.9423   12.5706 O   0  0  0  0  0  0  0  0  0  0  0  0
   50.3512   11.7118   10.0196 C   0  0  0  0  0  0  0  0  0  0  0  0
   50.7713   12.4462    8.8982 C   0  0  0  0  0  0  0  0  0  0  0  0
   49.8587   13.1138    8.0593 C   0  0  0  0  0  0  0  0  0  0  0  0
   48.4842   13.0375    8.3421 C   0  0  0  0  0  0  0  0  0  0  0  0
   48.0606   12.3132    9.4640 C   0  0  0  0  0  0  0  0  0  0  0  0
   48.9813   11.6589   10.2906 C   0  0  0  0  0  0  0  0  0  0  0  0
   47.4621   13.7161    7.4709 C   0  0  0  0  0  0  0  0  0  0  0  0
   50.3765   13.8633    6.8610 C   0  0  0  0  0  0  0  0  0  0  0  0
   50.0697    8.4931   13.9110 C   0  0  0  0  0  0  0  0  0  0  0  0
   51.2003    9.2533   13.2086 C   0  0  0  0  0  0  0  0  0  0  0  0
   50.7344   10.0795   12.0987 N   0  0  0  0  0  0  0  0  0  0  0  0
   50.5798    7.7046   14.9798 O   0  0  0  0  0  0  0  0  0  0  0  0
   50.7974    7.1521   14.1386 H   0  0  0  0  0  0  0  0  0  0  0  0
   49.3723    7.7603   13.2726 H   0  0  0  0  0  0  0  0  0  0  0  0
   52.1890    8.9922   13.2150 H   0  0  0  0  0  0  0  0  0  0  0  0
   51.4392    8.0987   11.8817 H   0  0  0  0  0  0  0  0  0  0  0  0
   50.2838   10.5080   13.0807 H   0  0  0  0  0  0  0  0  0  0  0  0
   49.8144    9.8042   11.7130 H   0  0  0  0  0  0  0  0  0  0  0  0
   50.8658    9.1805   15.2352 H   0  0  0  0  0  0  0  0  0  0  0  0
   53.2446    5.3114   18.1029 H   0  0  0  0  0  0  0  0  0  0  0  0
   54.9921    6.3761   16.7380 H   0  0  0  0  0  0  0  0  0  0  0  0
   54.3911    7.8404   14.8445 H   0  0  0  0  0  0  0  0  0  0  0  0
   51.2579    6.2973   19.6976 H   0  0  0  0  0  0  0  0  0  0  0  0
   49.5804    5.1285   21.0765 H   0  0  0  0  0  0  0  0  0  0  0  0
   47.9110    3.6349   20.0173 H   0  0  0  0  0  0  0  0  0  0  0  0
   49.6143    4.4869   16.1497 H   0  0  0  0  0  0  0  0  0  0  0  0
   46.9828    2.3845   15.8335 H   0  0  0  0  0  0  0  0  0  0  0  0
   49.9519    7.2516   14.5660 H   0  0  0  0  0  0  0  0  0  0  0  0
   50.9991    8.9567   14.1967 H   0  0  0  0  0  0  0  0  0  0  0  0
   55.0778    9.2611   11.3186 H   0  0  0  0  0  0  0  0  0  0  0  0
   55.2908   10.8911   10.6284 H   0  0  0  0  0  0  0  0  0  0  0  0
   55.1800   10.6831   12.3935 H   0  0  0  0  0  0  0  0  0  0  0  0
   51.8307   12.4995    8.6612 H   0  0  0  0  0  0  0  0  0  0  0  0
   47.0012   12.2436    9.7047 H   0  0  0  0  0  0  0  0  0  0  0  0
   48.5880   11.1118   11.1425 H   0  0  0  0  0  0  0  0  0  0  0  0
   47.5540   13.3723    6.4348 H   0  0  0  0  0  0  0  0  0  0  0  0
   46.4423   13.4939    7.8011 H   0  0  0  0  0  0  0  0  0  0  0  0
   47.5934   14.8029    7.5079 H   0  0  0  0  0  0  0  0  0  0  0  0
   50.0939   13.3444    5.9399 H   0  0  0  0  0  0  0  0  0  0  0  0
   51.4684   13.9445    6.8797 H   0  0  0  0  0  0  0  0  0  0  0  0
   49.9773   14.8827    6.8399 H   0  0  0  0  0  0  0  0  0  0  0  0
   49.3377    9.1930   14.3267 H   0  0  0  0  0  0  0  0  0  0  0  0
   49.5484    7.8289   13.2137 H   0  0  0  0  0  0  0  0  0  0  0  0
   51.9423    8.5396   12.8337 H   0  0  0  0  0  0  0  0  0  0  0  0
   51.7275    9.8810   13.9364 H   0  0  0  0  0  0  0  0  0  0  0  0
   50.0647   10.7680   12.4434 H   0  0  0  0  0  0  0  0  0  0  0  0
   50.2284    9.5056   11.4241 H   0  0  0  0  0  0  0  0  0  0  0  0
   51.2062    7.0661   14.5990 H   0  0  0  0  0  0  0  0  0  0  0  0
  4  1  1  0
  1  2  1  0
  2  3  1  0
 10 20  1  0
  9 21  1  0
 12 13  2  0
 21 22  1  0
  8  9  2  0
 22 23  2  0
 23 24  1  0
 13 14  1  0
  6  7  2  0
 14 15  2  0
  9 10  1  0
 24 25  1  0
 25 26  1  0
 26 27  2  0
 27 23  1  0
 15 16  1  0
 27 28  1  0
 16 11  2  0
 24 29  2  0
  5 11  1  0
 25 30  1  0
 10  5  2  0
 30 31  2  0
 15 17  1  0
 31 32  1  0
  5  6  1  0
 32 33  2  0
  7  8  1  0
 33 34  1  0
 17 18  1  0
 34 35  2  0
 35 30  1  0
 17 19  2  0
 33 36  1  0
 11 12  1  0
 32 37  1  0
 41 38  1  0
 38 39  1  0
 39 40  1  0
  1 42  1  0
  1 43  1  0
  2 44  1  0
  2 45  1  0
  3 46  1  0
  3 47  1  0
  4 48  1  0
  6 49  1  0
  7 50  1  0
  8 51  1  0
 12 52  1  0
 13 53  1  0
 14 54  1  0
 16 55  1  0
 18 56  1  0
 20 57  1  0
 21 58  1  0
 28 59  1  0
 28 60  1  0
 28 61  1  0
 31 62  1  0
 34 63  1  0
 35 64  1  0
 36 65  1  0
 36 66  1  0
 36 67  1  0
 37 68  1  0
 37 69  1  0
 37 70  1  0
 38 71  1  0
 38 72  1  0
 39 73  1  0
 39 74  1  0
 40 75  1  0
 40 76  1  0
 41 77  1  0
M  END
> <Uni-Dock RESULT> 
ENERGY=   -4.558  LOWER_BOUND=    6.733  UPPER_BOUND=    8.737
INTER + INTRA:          -4.558
INTER:                  -4.558
INTRA:                   0.000
UNBOUND:                 0.000

$$$$

     RDKit          3D

 77 78  0  0  0  0  0  0  0  0999 V2000
   49.5081    8.3359   15.9124 C   0  0  0  0  0  0  0  0  0  0  0  0
   48.6704    7.0697   16.1240 C   0  0  0  0  0  0  0  0  0  0  0  0
   48.3721    6.4036   14.8526 N   0  0  0  0  0  0  0  0  0  0  0  0
   50.7039    8.0256   15.1974 O   0  0  0  0  0  0  0  0  0  0  0  0
   52.4891    9.4817   18.2735 C   0  0  0  0  0  0  0  0  0  0  0  0
   52.8116    8.8198   19.4732 C   0  0  0  0  0  0  0  0  0  0  0  0
   52.1919    7.6201   19.8288 C   0  0  0  0  0  0  0  0  0  0  0  0
   51.2473    7.0406   18.9789 C   0  0  0  0  0  0  0  0  0  0  0  0
   50.9192    7.6414   17.7592 C   0  0  0  0  0  0  0  0  0  0  0  0
   51.5198    8.8809   17.4445 C   0  0  0  0  0  0  0  0  0  0  0  0
   53.1362   10.7699   17.9562 C   0  0  0  0  0  0  0  0  0  0  0  0
   54.5387   10.8776   17.9159 C   0  0  0  0  0  0  0  0  0  0  0  0
   55.1641   12.0964   17.6411 C   0  0  0  0  0  0  0  0  0  0  0  0
   54.3939   13.2335   17.3994 C   0  0  0  0  0  0  0  0  0  0  0  0
   52.9979   13.1552   17.4357 C   0  0  0  0  0  0  0  0  0  0  0  0
   52.3773   11.9291   17.7154 C   0  0  0  0  0  0  0  0  0  0  0  0
   52.2189   14.3883   17.1693 C   0  0  0  0  0  0  0  0  0  0  0  0
   50.8872   14.1940   17.2204 O   0  0  0  0  0  0  0  0  0  0  0  0
   52.6827   15.4848   16.9160 O   0  0  0  0  0  0  0  0  0  0  0  0
   51.1148    9.5348   16.3019 O   0  0  0  0  0  0  0  0  0  0  0  0
   49.9319    7.1076   16.8941 N   0  0  0  0  0  0  0  0  0  0  0  0
   49.3137    5.9476   17.2431 N   0  0  0  0  0  0  0  0  0  0  0  0
   48.5027    5.4441   16.3683 C   0  0  0  0  0  0  0  0  0  0  0  0
   48.1281    5.9150   14.9972 C   0  0  0  0  0  0  0  0  0  0  0  0
   47.1569    4.9875   14.6296 N   0  0  0  0  0  0  0  0  0  0  0  0
   46.9190    3.9843   15.5881 N   0  0  0  0  0  0  0  0  0  0  0  0
   47.6961    4.2218   16.6019 C   0  0  0  0  0  0  0  0  0  0  0  0
   47.8115    3.4287   17.8490 C   0  0  0  0  0  0  0  0  0  0  0  0
   48.6355    6.8759   14.4568 O   0  0  0  0  0  0  0  0  0  0  0  0
   46.4105    4.9504   13.4241 C   0  0  0  0  0  0  0  0  0  0  0  0
   45.4406    3.9543   13.2236 C   0  0  0  0  0  0  0  0  0  0  0  0
   44.6708    3.8888   12.0466 C   0  0  0  0  0  0  0  0  0  0  0  0
   44.8677    4.8532   11.0434 C   0  0  0  0  0  0  0  0  0  0  0  0
   45.8396    5.8439   11.2348 C   0  0  0  0  0  0  0  0  0  0  0  0
   46.5997    5.8922   12.4090 C   0  0  0  0  0  0  0  0  0  0  0  0
   44.0622    4.8432    9.7725 C   0  0  0  0  0  0  0  0  0  0  0  0
   43.6323    2.8081   11.9081 C   0  0  0  0  0  0  0  0  0  0  0  0
   49.7318    8.1805   15.4533 C   0  0  0  0  0  0  0  0  0  0  0  0
   49.2155    6.7829   15.8134 C   0  0  0  0  0  0  0  0  0  0  0  0
   48.2259    6.2745   14.8680 N   0  0  0  0  0  0  0  0  0  0  0  0
   50.6889    8.6261   16.4071 O   0  0  0  0  0  0  0  0  0  0  0  0
   49.7840    8.7821   16.8727 H   0  0  0  0  0  0  0  0  0  0  0  0
   48.9520    9.0796   15.3333 H   0  0  0  0  0  0  0  0  0  0  0  0
   49.2314    6.3627   16.7455 H   0  0  0  0  0  0  0  0  0  0  0  0
   47.7385    7.3108   16.6444 H   0  0  0  0  0  0  0  0  0  0  0  0
   49.2386    6.3810   14.3073 H   0  0  0  0  0  0  0  0  0  0  0  0
   47.7555    7.0030   14.3031 H   0  0  0  0  0  0  0  0  0  0  0  0
   51.1860    7.3593   15.7190 H   0  0  0  0  0  0  0  0  0  0  0  0
   53.5317    9.2590   20.1621 H   0  0  0  0  0  0  0  0  0  0  0  0
   52.4408    7.1403   20.7714 H   0  0  0  0  0  0  0  0  0  0  0  0
   50.7712    6.1095   19.2746 H   0  0  0  0  0  0  0  0  0  0  0  0
   55.1574    9.9980   18.0950 H   0  0  0  0  0  0  0  0  0  0  0  0
   56.2493   12.1544   17.6061 H   0  0  0  0  0  0  0  0  0  0  0  0
   54.8860   14.1798   17.1831 H   0  0  0  0  0  0  0  0  0  0  0  0
   51.2909   11.8673   17.7436 H   0  0  0  0  0  0  0  0  0  0  0  0
   50.5164   15.0752   16.9987 H   0  0  0  0  0  0  0  0  0  0  0  0
   50.1780    9.3025   16.1789 H   0  0  0  0  0  0  0  0  0  0  0  0
   50.1335    7.2871   15.9015 H   0  0  0  0  0  0  0  0  0  0  0  0
   47.5503    4.0534   18.7089 H   0  0  0  0  0  0  0  0  0  0  0  0
   47.1350    2.5699   17.8117 H   0  0  0  0  0  0  0  0  0  0  0  0
   48.8380    3.0688   17.9604 H   0  0  0  0  0  0  0  0  0  0  0  0
   45.2692    3.2123   13.9992 H   0  0  0  0  0  0  0  0  0  0  0  0
   46.0121    6.5989   10.4696 H   0  0  0  0  0  0  0  0  0  0  0  0
   47.3345    6.6873   12.4969 H   0  0  0  0  0  0  0  0  0  0  0  0
   42.9912    4.8890    9.9981 H   0  0  0  0  0  0  0  0  0  0  0  0
   44.3012    5.7035    9.1391 H   0  0  0  0  0  0  0  0  0  0  0  0
   44.2752    3.9370    9.1953 H   0  0  0  0  0  0  0  0  0  0  0  0
   42.6282    3.2403   11.9594 H   0  0  0  0  0  0  0  0  0  0  0  0
   43.7192    2.0636   12.7065 H   0  0  0  0  0  0  0  0  0  0  0  0
   43.7504    2.2773   10.9577 H   0  0  0  0  0  0  0  0  0  0  0  0
   50.2139    8.1695   14.4704 H   0  0  0  0  0  0  0  0  0  0  0  0
   48.9136    8.9077   15.4236 H   0  0  0  0  0  0  0  0  0  0  0  0
   48.7720    6.8045   16.8151 H   0  0  0  0  0  0  0  0  0  0  0  0
   50.0583    6.0846   15.8725 H   0  0  0  0  0  0  0  0  0  0  0  0
   48.6393    6.2223   13.9364 H   0  0  0  0  0  0  0  0  0  0  0  0
   47.4450    6.9268   14.7948 H   0  0  0  0  0  0  0  0  0  0  0  0
   50.2455    8.6618   17.2715 H   0  0  0  0  0  0  0  0  0  0  0  0
  4  1  1  0
  1  2  1  0
  2  3  1  0
 10 20  1  0
  9 21  1  0
 12 13  2  0
 21 22  1  0
  8  9  2  0
 22 23  2  0
 23 24  1  0
 13 14  1  0
  6  7  2  0
 14 15  2  0
  9 10  1  0
 24 25  1  0
 25 26  1  0
 26 27  2  0
 27 23  1  0
 15 16  1  0
 27 28  1  0
 16 11  2  0
 24 29  2  0
  5 11  1  0
 25 30  1  0
 10  5  2  0
 30 31  2  0
 15 17  1  0
 31 32  1  0
  5  6  1  0
 32 33  2  0
  7  8  1  0
 33 34  1  0
 17 18  1  0
 34 35  2  0
 35 30  1  0
 17 19  2  0
 33 36  1  0
 11 12  1  0
 32 37  1  0
 41 38  1  0
 38 39  1  0
 39 40  1  0
  1 42  1  0
  1 43  1  0
  2 44  1  0
  2 45  1  0
  3 46  1  0
  3 47  1  0
  4 48  1  0
  6 49  1  0
  7 50  1  0
  8 51  1  0
 12 52  1  0
 13 53  1  0
 14 54  1  0
 16 55  1  0
 18 56  1  0
 20 57  1  0
 21 58  1  0
 28 59  1  0
 28 60  1  0
 28 61  1  0
 31 62  1  0
 34 63  1  0
 35 64  1  0
 36 65  1  0
 36 66  1  0
 36 67  1  0
 37 68  1  0
 37 69  1  0
 37 70  1  0
 38 71  1  0
 38 72  1  0
 39 73  1  0
 39 74  1  0
 40 75  1  0
 40 76  1  0
 41 77  1  0
M  END
> <Uni-Dock RESULT> 
ENERGY=   -4.522  LOWER_BOUND=    7.551  UPPER_BOUND=   11.442
INTER + INTRA:          -4.522
INTER:                  -4.522
INTRA:                   0.000
UNBOUND:                 0.000

$$$$
