
     RDKit          3D

 77 78  0  0  0  0  0  0  0  0999 V2000
   48.8479    8.8976   15.3053 C   0  0  0  0  0  0  0  0  0  0  0  0
   48.3632    8.7328   13.8605 C   0  0  0  0  0  0  0  0  0  0  0  0
   47.0378    8.1090   13.8058 N   0  0  0  0  0  0  0  0  0  0  0  0
   47.8974    9.6425   16.0662 O   0  0  0  0  0  0  0  0  0  0  0  0
   45.1774    6.9639   12.0203 C   0  0  0  0  0  0  0  0  0  0  0  0
   44.4637    7.9615   11.3344 C   0  0  0  0  0  0  0  0  0  0  0  0
   44.7547    9.3147   11.5157 C   0  0  0  0  0  0  0  0  0  0  0  0
   45.7673    9.7003   12.3941 C   0  0  0  0  0  0  0  0  0  0  0  0
   46.4951    8.7460   13.1162 C   0  0  0  0  0  0  0  0  0  0  0  0
   46.1940    7.3837   12.9008 C   0  0  0  0  0  0  0  0  0  0  0  0
   44.8513    5.5425   11.7928 C   0  0  0  0  0  0  0  0  0  0  0  0
   44.4896    4.7005   12.8577 C   0  0  0  0  0  0  0  0  0  0  0  0
   44.1671    3.3588   12.6423 C   0  0  0  0  0  0  0  0  0  0  0  0
   44.1982    2.8339   11.3521 C   0  0  0  0  0  0  0  0  0  0  0  0
   44.5522    3.6513   10.2738 C   0  0  0  0  0  0  0  0  0  0  0  0
   44.8761    4.9968   10.4969 C   0  0  0  0  0  0  0  0  0  0  0  0
   44.5756    3.0539    8.9171 C   0  0  0  0  0  0  0  0  0  0  0  0
   44.7900    3.9632    7.9478 O   0  0  0  0  0  0  0  0  0  0  0  0
   44.4102    1.8778    8.6497 O   0  0  0  0  0  0  0  0  0  0  0  0
   46.9351    6.4346   13.5643 O   0  0  0  0  0  0  0  0  0  0  0  0
   47.5425    9.1933   13.9553 N   0  0  0  0  0  0  0  0  0  0  0  0
   48.2155    8.3452   14.7796 N   0  0  0  0  0  0  0  0  0  0  0  0
   49.0102    8.9070   15.6394 C   0  0  0  0  0  0  0  0  0  0  0  0
   49.2969   10.3549   15.8936 C   0  0  0  0  0  0  0  0  0  0  0  0
   50.2415   10.2911   16.9120 N   0  0  0  0  0  0  0  0  0  0  0  0
   50.5596    8.9838   17.3266 N   0  0  0  0  0  0  0  0  0  0  0  0
   49.8567    8.1628   16.6041 C   0  0  0  0  0  0  0  0  0  0  0  0
   49.8492    6.6832   16.6793 C   0  0  0  0  0  0  0  0  0  0  0  0
   48.7532   11.2550   15.2860 O   0  0  0  0  0  0  0  0  0  0  0  0
   50.8897   11.3764   17.5538 C   0  0  0  0  0  0  0  0  0  0  0  0
   50.6409   12.7071   17.1897 C   0  0  0  0  0  0  0  0  0  0  0  0
   51.2881   13.7832   17.8288 C   0  0  0  0  0  0  0  0  0  0  0  0
   52.1986   13.5248   18.8691 C   0  0  0  0  0  0  0  0  0  0  0  0
   52.4596   12.1968   19.2275 C   0  0  0  0  0  0  0  0  0  0  0  0
   51.8120   11.1396   18.5810 C   0  0  0  0  0  0  0  0  0  0  0  0
   52.9237   14.6350   19.5792 C   0  0  0  0  0  0  0  0  0  0  0  0
   50.9660   15.1888   17.3990 C   0  0  0  0  0  0  0  0  0  0  0  0
   48.5942    9.2213   15.3847 C   0  0  0  0  0  0  0  0  0  0  0  0
   47.3239    8.8325   14.6234 C   0  0  0  0  0  0  0  0  0  0  0  0
   47.5265    7.5883   13.8742 N   0  0  0  0  0  0  0  0  0  0  0  0
   49.6490    9.4762   14.4558 O   0  0  0  0  0  0  0  0  0  0  0  0
   49.8068    9.4241   15.3345 H   0  0  0  0  0  0  0  0  0  0  0  0
   48.9753    7.9228   15.7868 H   0  0  0  0  0  0  0  0  0  0  0  0
   48.2859    9.7177   13.3882 H   0  0  0  0  0  0  0  0  0  0  0  0
   49.0778    8.1365   13.2846 H   0  0  0  0  0  0  0  0  0  0  0  0
   46.4437    8.5863   14.4904 H   0  0  0  0  0  0  0  0  0  0  0  0
   47.1067    7.1558   14.1641 H   0  0  0  0  0  0  0  0  0  0  0  0
   47.7857   10.5024   15.6240 H   0  0  0  0  0  0  0  0  0  0  0  0
   43.6643    7.6853   10.6489 H   0  0  0  0  0  0  0  0  0  0  0  0
   44.1956   10.0669   10.9660 H   0  0  0  0  0  0  0  0  0  0  0  0
   45.9847   10.7595   12.5092 H   0  0  0  0  0  0  0  0  0  0  0  0
   44.4666    5.0933   13.8734 H   0  0  0  0  0  0  0  0  0  0  0  0
   43.8971    2.7242   13.4825 H   0  0  0  0  0  0  0  0  0  0  0  0
   43.9495    1.7870   11.1902 H   0  0  0  0  0  0  0  0  0  0  0  0
   45.1662    5.6276    9.6593 H   0  0  0  0  0  0  0  0  0  0  0  0
   44.7849    3.4284    7.1270 H   0  0  0  0  0  0  0  0  0  0  0  0
   47.5776    6.9776   14.0714 H   0  0  0  0  0  0  0  0  0  0  0  0
   47.5438   10.2059   14.1331 H   0  0  0  0  0  0  0  0  0  0  0  0
   50.1227    6.2631   15.7077 H   0  0  0  0  0  0  0  0  0  0  0  0
   48.8512    6.3339   16.9560 H   0  0  0  0  0  0  0  0  0  0  0  0
   50.5675    6.3431   17.4297 H   0  0  0  0  0  0  0  0  0  0  0  0
   49.9353   12.9397   16.3969 H   0  0  0  0  0  0  0  0  0  0  0  0
   53.1700   11.9691   20.0201 H   0  0  0  0  0  0  0  0  0  0  0  0
   52.0420   10.1251   18.8972 H   0  0  0  0  0  0  0  0  0  0  0  0
   52.2224   15.4099   19.9060 H   0  0  0  0  0  0  0  0  0  0  0  0
   53.6736   15.0791   18.9162 H   0  0  0  0  0  0  0  0  0  0  0  0
   53.4369   14.2684   20.4745 H   0  0  0  0  0  0  0  0  0  0  0  0
   51.8832   15.7424   17.1762 H   0  0  0  0  0  0  0  0  0  0  0  0
   50.3530   15.2017   16.4918 H   0  0  0  0  0  0  0  0  0  0  0  0
   50.4103   15.7052   18.1873 H   0  0  0  0  0  0  0  0  0  0  0  0
   48.4213   10.1317   15.9668 H   0  0  0  0  0  0  0  0  0  0  0  0
   48.9076    8.4202   16.0628 H   0  0  0  0  0  0  0  0  0  0  0  0
   46.4885    8.7062   15.3185 H   0  0  0  0  0  0  0  0  0  0  0  0
   47.0680    9.6264   13.9131 H   0  0  0  0  0  0  0  0  0  0  0  0
   46.7948    7.4994   13.1717 H   0  0  0  0  0  0  0  0  0  0  0  0
   48.4036    7.6907   13.3562 H   0  0  0  0  0  0  0  0  0  0  0  0
   50.4507    9.6347   14.9831 H   0  0  0  0  0  0  0  0  0  0  0  0
  4  1  1  0
  1  2  1  0
  2  3  1  0
 10 20  1  0
  9 21  1  0
 12 13  2  0
 21 22  1  0
  8  9  2  0
 22 23  2  0
 23 24  1  0
 13 14  1  0
  6  7  2  0
 14 15  2  0
  9 10  1  0
 24 25  1  0
 25 26  1  0
 26 27  2  0
 27 23  1  0
 15 16  1  0
 27 28  1  0
 16 11  2  0
 24 29  2  0
  5 11  1  0
 25 30  1  0
 10  5  2  0
 30 31  2  0
 15 17  1  0
 31 32  1  0
  5  6  1  0
 32 33  2  0
  7  8  1  0
 33 34  1  0
 17 18  1  0
 34 35  2  0
 35 30  1  0
 17 19  2  0
 33 36  1  0
 11 12  1  0
 32 37  1  0
 41 38  1  0
 38 39  1  0
 39 40  1  0
  1 42  1  0
  1 43  1  0
  2 44  1  0
  2 45  1  0
  3 46  1  0
  3 47  1  0
  4 48  1  0
  6 49  1  0
  7 50  1  0
  8 51  1  0
 12 52  1  0
 13 53  1  0
 14 54  1  0
 16 55  1  0
 18 56  1  0
 20 57  1  0
 21 58  1  0
 28 59  1  0
 28 60  1  0
 28 61  1  0
 31 62  1  0
 34 63  1  0
 35 64  1  0
 36 65  1  0
 36 66  1  0
 36 67  1  0
 37 68  1  0
 37 69  1  0
 37 70  1  0
 38 71  1  0
 38 72  1  0
 39 73  1  0
 39 74  1  0
 40 75  1  0
 40 76  1  0
 41 77  1  0
M  END
> <Uni-Dock RESULT> 
ENERGY=   -5.970  LOWER_BOUND=    0.000  UPPER_BOUND=    0.000
INTER + INTRA:          -5.970
INTER:                  -5.970
INTRA:                   0.000
UNBOUND:                 0.000

$$$$

     RDKit          3D

 77 78  0  0  0  0  0  0  0  0999 V2000
   48.8476    8.8980   15.3054 C   0  0  0  0  0  0  0  0  0  0  0  0
   48.3631    8.7332   13.8607 C   0  0  0  0  0  0  0  0  0  0  0  0
   47.0377    8.1094   13.8058 N   0  0  0  0  0  0  0  0  0  0  0  0
   47.8971    9.6430   16.0663 O   0  0  0  0  0  0  0  0  0  0  0  0
   45.1774    6.9644   12.0203 C   0  0  0  0  0  0  0  0  0  0  0  0
   44.4638    7.9620   11.3343 C   0  0  0  0  0  0  0  0  0  0  0  0
   44.7547    9.3151   11.5155 C   0  0  0  0  0  0  0  0  0  0  0  0
   45.7673    9.7008   12.3940 C   0  0  0  0  0  0  0  0  0  0  0  0
   46.4951    8.7464   13.1162 C   0  0  0  0  0  0  0  0  0  0  0  0
   46.1939    7.3842   12.9008 C   0  0  0  0  0  0  0  0  0  0  0  0
   44.8512    5.5430   11.7928 C   0  0  0  0  0  0  0  0  0  0  0  0
   44.4894    4.7010   12.8577 C   0  0  0  0  0  0  0  0  0  0  0  0
   44.1669    3.3593   12.6422 C   0  0  0  0  0  0  0  0  0  0  0  0
   44.1981    2.8344   11.3521 C   0  0  0  0  0  0  0  0  0  0  0  0
   44.5521    3.6518   10.2738 C   0  0  0  0  0  0  0  0  0  0  0  0
   44.8761    4.9973   10.4968 C   0  0  0  0  0  0  0  0  0  0  0  0
   44.5757    3.0543    8.9170 C   0  0  0  0  0  0  0  0  0  0  0  0
   44.7901    3.9636    7.9478 O   0  0  0  0  0  0  0  0  0  0  0  0
   44.4103    1.8782    8.6497 O   0  0  0  0  0  0  0  0  0  0  0  0
   46.9349    6.4351   13.5644 O   0  0  0  0  0  0  0  0  0  0  0  0
   47.5424    9.1937   13.9554 N   0  0  0  0  0  0  0  0  0  0  0  0
   48.2152    8.3457   14.7797 N   0  0  0  0  0  0  0  0  0  0  0  0
   49.0100    8.9075   15.6396 C   0  0  0  0  0  0  0  0  0  0  0  0
   49.2966   10.3553   15.8937 C   0  0  0  0  0  0  0  0  0  0  0  0
   50.2412   10.2916   16.9122 N   0  0  0  0  0  0  0  0  0  0  0  0
   50.5592    8.9842   17.3269 N   0  0  0  0  0  0  0  0  0  0  0  0
   49.8564    8.1633   16.6044 C   0  0  0  0  0  0  0  0  0  0  0  0
   49.8488    6.6836   16.6796 C   0  0  0  0  0  0  0  0  0  0  0  0
   48.7530   11.2555   15.2861 O   0  0  0  0  0  0  0  0  0  0  0  0
   50.8893   11.3768   17.5541 C   0  0  0  0  0  0  0  0  0  0  0  0
   50.6406   12.7075   17.1899 C   0  0  0  0  0  0  0  0  0  0  0  0
   51.2878   13.7836   17.8290 C   0  0  0  0  0  0  0  0  0  0  0  0
   52.1982   13.5252   18.8694 C   0  0  0  0  0  0  0  0  0  0  0  0
   52.4592   12.1973   19.2278 C   0  0  0  0  0  0  0  0  0  0  0  0
   51.8116   11.1401   18.5813 C   0  0  0  0  0  0  0  0  0  0  0  0
   52.9233   14.6354   19.5796 C   0  0  0  0  0  0  0  0  0  0  0  0
   50.9657   15.1892   17.3992 C   0  0  0  0  0  0  0  0  0  0  0  0
   48.5939    9.2218   15.3848 C   0  0  0  0  0  0  0  0  0  0  0  0
   47.3238    8.8329   14.6234 C   0  0  0  0  0  0  0  0  0  0  0  0
   47.5263    7.5887   13.8743 N   0  0  0  0  0  0  0  0  0  0  0  0
   49.6488    9.4766   14.4560 O   0  0  0  0  0  0  0  0  0  0  0  0
   49.8065    9.4246   15.3348 H   0  0  0  0  0  0  0  0  0  0  0  0
   48.9751    7.9233   15.7870 H   0  0  0  0  0  0  0  0  0  0  0  0
   48.2859    9.7182   13.3883 H   0  0  0  0  0  0  0  0  0  0  0  0
   49.0777    8.1369   13.2848 H   0  0  0  0  0  0  0  0  0  0  0  0
   46.4435    8.5868   14.4903 H   0  0  0  0  0  0  0  0  0  0  0  0
   47.1065    7.1563   14.1642 H   0  0  0  0  0  0  0  0  0  0  0  0
   47.7855   10.5029   15.6240 H   0  0  0  0  0  0  0  0  0  0  0  0
   43.6644    7.6858   10.6487 H   0  0  0  0  0  0  0  0  0  0  0  0
   44.1957   10.0674   10.9658 H   0  0  0  0  0  0  0  0  0  0  0  0
   45.9847   10.7599   12.5091 H   0  0  0  0  0  0  0  0  0  0  0  0
   44.4663    5.0938   13.8734 H   0  0  0  0  0  0  0  0  0  0  0  0
   43.8969    2.7247   13.4825 H   0  0  0  0  0  0  0  0  0  0  0  0
   43.9493    1.7875   11.1902 H   0  0  0  0  0  0  0  0  0  0  0  0
   45.1663    5.6280    9.6593 H   0  0  0  0  0  0  0  0  0  0  0  0
   44.7851    3.4288    7.1270 H   0  0  0  0  0  0  0  0  0  0  0  0
   47.5774    6.9781   14.0716 H   0  0  0  0  0  0  0  0  0  0  0  0
   47.5437   10.2063   14.1331 H   0  0  0  0  0  0  0  0  0  0  0  0
   50.1223    6.2636   15.7080 H   0  0  0  0  0  0  0  0  0  0  0  0
   48.8508    6.3344   16.9562 H   0  0  0  0  0  0  0  0  0  0  0  0
   50.5671    6.3435   17.4300 H   0  0  0  0  0  0  0  0  0  0  0  0
   49.9351   12.9401   16.3971 H   0  0  0  0  0  0  0  0  0  0  0  0
   53.1695   11.9696   20.0205 H   0  0  0  0  0  0  0  0  0  0  0  0
   52.0415   10.1255   18.8976 H   0  0  0  0  0  0  0  0  0  0  0  0
   52.2220   15.4103   19.9062 H   0  0  0  0  0  0  0  0  0  0  0  0
   53.6733   15.0795   18.9166 H   0  0  0  0  0  0  0  0  0  0  0  0
   53.4364   14.2688   20.4749 H   0  0  0  0  0  0  0  0  0  0  0  0
   51.8830   15.7429   17.1764 H   0  0  0  0  0  0  0  0  0  0  0  0
   50.3529   15.2021   16.4920 H   0  0  0  0  0  0  0  0  0  0  0  0
   50.4101   15.7057   18.1874 H   0  0  0  0  0  0  0  0  0  0  0  0
   48.4211   10.1322   15.9669 H   0  0  0  0  0  0  0  0  0  0  0  0
   48.9073    8.4207   16.0630 H   0  0  0  0  0  0  0  0  0  0  0  0
   46.4883    8.7067   15.3185 H   0  0  0  0  0  0  0  0  0  0  0  0
   47.0679    9.6268   13.9131 H   0  0  0  0  0  0  0  0  0  0  0  0
   46.7947    7.4999   13.1718 H   0  0  0  0  0  0  0  0  0  0  0  0
   48.4035    7.6911   13.3564 H   0  0  0  0  0  0  0  0  0  0  0  0
   50.4505    9.6351   14.9834 H   0  0  0  0  0  0  0  0  0  0  0  0
  4  1  1  0
  1  2  1  0
  2  3  1  0
 10 20  1  0
  9 21  1  0
 12 13  2  0
 21 22  1  0
  8  9  2  0
 22 23  2  0
 23 24  1  0
 13 14  1  0
  6  7  2  0
 14 15  2  0
  9 10  1  0
 24 25  1  0
 25 26  1  0
 26 27  2  0
 27 23  1  0
 15 16  1  0
 27 28  1  0
 16 11  2  0
 24 29  2  0
  5 11  1  0
 25 30  1  0
 10  5  2  0
 30 31  2  0
 15 17  1  0
 31 32  1  0
  5  6  1  0
 32 33  2  0
  7  8  1  0
 33 34  1  0
 17 18  1  0
 34 35  2  0
 35 30  1  0
 17 19  2  0
 33 36  1  0
 11 12  1  0
 32 37  1  0
 41 38  1  0
 38 39  1  0
 39 40  1  0
  1 42  1  0
  1 43  1  0
  2 44  1  0
  2 45  1  0
  3 46  1  0
  3 47  1  0
  4 48  1  0
  6 49  1  0
  7 50  1  0
  8 51  1  0
 12 52  1  0
 13 53  1  0
 14 54  1  0
 16 55  1  0
 18 56  1  0
 20 57  1  0
 21 58  1  0
 28 59  1  0
 28 60  1  0
 28 61  1  0
 31 62  1  0
 34 63  1  0
 35 64  1  0
 36 65  1  0
 36 66  1  0
 36 67  1  0
 37 68  1  0
 37 69  1  0
 37 70  1  0
 38 71  1  0
 38 72  1  0
 39 73  1  0
 39 74  1  0
 40 75  1  0
 40 76  1  0
 41 77  1  0
M  END
> <Uni-Dock RESULT> 
ENERGY=   -5.968  LOWER_BOUND=    0.001  UPPER_BOUND=    0.001
INTER + INTRA:          -5.968
INTER:                  -5.968
INTRA:                   0.000
UNBOUND:                 0.000

$$$$

     RDKit          3D

 77 78  0  0  0  0  0  0  0  0999 V2000
   48.4558    8.1644   14.1468 C   0  0  0  0  0  0  0  0  0  0  0  0
   48.7300    6.6691   14.3420 C   0  0  0  0  0  0  0  0  0  0  0  0
   48.9698    6.3458   15.7515 N   0  0  0  0  0  0  0  0  0  0  0  0
   47.3604    8.5792   14.9627 O   0  0  0  0  0  0  0  0  0  0  0  0
   49.8570    4.2762   17.4514 C   0  0  0  0  0  0  0  0  0  0  0  0
   48.8374    3.3329   17.6647 C   0  0  0  0  0  0  0  0  0  0  0  0
   47.6041    3.4410   17.0197 C   0  0  0  0  0  0  0  0  0  0  0  0
   47.3623    4.5021   16.1473 C   0  0  0  0  0  0  0  0  0  0  0  0
   48.3386    5.4794   15.9153 C   0  0  0  0  0  0  0  0  0  0  0  0
   49.5836    5.3368   16.5653 C   0  0  0  0  0  0  0  0  0  0  0  0
   51.1533    4.1218   18.1402 C   0  0  0  0  0  0  0  0  0  0  0  0
   51.6677    5.1417   18.9580 C   0  0  0  0  0  0  0  0  0  0  0  0
   52.8874    4.9915   19.6216 C   0  0  0  0  0  0  0  0  0  0  0  0
   53.6161    3.8126   19.4803 C   0  0  0  0  0  0  0  0  0  0  0  0
   53.1252    2.7802   18.6744 C   0  0  0  0  0  0  0  0  0  0  0  0
   51.9010    2.9377   18.0100 C   0  0  0  0  0  0  0  0  0  0  0  0
   53.9320    1.5427   18.5484 C   0  0  0  0  0  0  0  0  0  0  0  0
   53.2973    0.5706   17.8671 O   0  0  0  0  0  0  0  0  0  0  0  0
   55.0466    1.3652   19.0046 O   0  0  0  0  0  0  0  0  0  0  0  0
   50.5686    6.2605   16.3071 O   0  0  0  0  0  0  0  0  0  0  0  0
   48.0546    6.5052   14.9834 N   0  0  0  0  0  0  0  0  0  0  0  0
   48.8977    7.5559   14.7916 N   0  0  0  0  0  0  0  0  0  0  0  0
   48.4331    8.5259   14.0638 C   0  0  0  0  0  0  0  0  0  0  0  0
   47.0964    8.6933   13.4093 C   0  0  0  0  0  0  0  0  0  0  0  0
   47.2373    9.9183   12.7667 N   0  0  0  0  0  0  0  0  0  0  0  0
   48.4896   10.5327   12.9581 N   0  0  0  0  0  0  0  0  0  0  0  0
   49.2007    9.7448   13.7087 C   0  0  0  0  0  0  0  0  0  0  0  0
   50.5864    9.9681   14.1833 C   0  0  0  0  0  0  0  0  0  0  0  0
   46.2017    7.8784   13.5110 O   0  0  0  0  0  0  0  0  0  0  0  0
   46.2750   10.5875   11.9691 C   0  0  0  0  0  0  0  0  0  0  0  0
   45.0108   10.0369   11.7170 C   0  0  0  0  0  0  0  0  0  0  0  0
   44.0574   10.7042   10.9225 C   0  0  0  0  0  0  0  0  0  0  0  0
   44.3695   11.9617   10.3757 C   0  0  0  0  0  0  0  0  0  0  0  0
   45.6355   12.5097   10.6144 C   0  0  0  0  0  0  0  0  0  0  0  0
   46.5721   11.8333   11.4020 C   0  0  0  0  0  0  0  0  0  0  0  0
   43.3927   12.7135    9.5135 C   0  0  0  0  0  0  0  0  0  0  0  0
   42.7136   10.0641   10.7017 C   0  0  0  0  0  0  0  0  0  0  0  0
   48.0665    8.1432   14.3003 C   0  0  0  0  0  0  0  0  0  0  0  0
   48.2211    7.1299   15.4377 C   0  0  0  0  0  0  0  0  0  0  0  0
   49.5837    6.5889   15.4712 N   0  0  0  0  0  0  0  0  0  0  0  0
   48.2729    7.4899   13.0469 O   0  0  0  0  0  0  0  0  0  0  0  0
   48.2129    8.3805   13.1019 H   0  0  0  0  0  0  0  0  0  0  0  0
   49.3298    8.7606   14.4277 H   0  0  0  0  0  0  0  0  0  0  0  0
   47.8584    6.0934   14.0133 H   0  0  0  0  0  0  0  0  0  0  0  0
   49.5885    6.3572   13.7389 H   0  0  0  0  0  0  0  0  0  0  0  0
   48.2379    6.8048   16.3021 H   0  0  0  0  0  0  0  0  0  0  0  0
   49.8287    6.8064   16.0543 H   0  0  0  0  0  0  0  0  0  0  0  0
   46.5926    8.0367   14.7105 H   0  0  0  0  0  0  0  0  0  0  0  0
   49.0002    2.4998   18.3465 H   0  0  0  0  0  0  0  0  0  0  0  0
   46.8352    2.6932   17.1931 H   0  0  0  0  0  0  0  0  0  0  0  0
   46.3988    4.5585   15.6464 H   0  0  0  0  0  0  0  0  0  0  0  0
   51.1138    6.0724   19.0740 H   0  0  0  0  0  0  0  0  0  0  0  0
   53.2694    5.7972   20.2434 H   0  0  0  0  0  0  0  0  0  0  0  0
   54.5676    3.7020   19.9967 H   0  0  0  0  0  0  0  0  0  0  0  0
   51.5277    2.1401   17.3711 H   0  0  0  0  0  0  0  0  0  0  0  0
   53.9442   -0.1651   17.8616 H   0  0  0  0  0  0  0  0  0  0  0  0
   50.1415    6.8547   15.6518 H   0  0  0  0  0  0  0  0  0  0  0  0
   47.0656    6.5719   14.7107 H   0  0  0  0  0  0  0  0  0  0  0  0
   51.2265    9.1459   13.8524 H   0  0  0  0  0  0  0  0  0  0  0  0
   50.5978   10.0181   15.2751 H   0  0  0  0  0  0  0  0  0  0  0  0
   50.9737   10.9067   13.7786 H   0  0  0  0  0  0  0  0  0  0  0  0
   44.7360    9.0719   12.1337 H   0  0  0  0  0  0  0  0  0  0  0  0
   45.9069   13.4753   10.1917 H   0  0  0  0  0  0  0  0  0  0  0  0
   47.5403   12.3004   11.5649 H   0  0  0  0  0  0  0  0  0  0  0  0
   42.4119   12.7705    9.9971 H   0  0  0  0  0  0  0  0  0  0  0  0
   43.2909   12.2194    8.5415 H   0  0  0  0  0  0  0  0  0  0  0  0
   43.7243   13.7424    9.3380 H   0  0  0  0  0  0  0  0  0  0  0  0
   42.4774   10.0244    9.6339 H   0  0  0  0  0  0  0  0  0  0  0  0
   42.6918    9.0351   11.0753 H   0  0  0  0  0  0  0  0  0  0  0  0
   41.9372   10.6286   11.2265 H   0  0  0  0  0  0  0  0  0  0  0  0
   47.0570    8.5654   14.3058 H   0  0  0  0  0  0  0  0  0  0  0  0
   48.7927    8.9576   14.3971 H   0  0  0  0  0  0  0  0  0  0  0  0
   47.9932    7.6005   16.3988 H   0  0  0  0  0  0  0  0  0  0  0  0
   47.5230    6.2999   15.2829 H   0  0  0  0  0  0  0  0  0  0  0  0
   49.5905    5.7374   16.0294 H   0  0  0  0  0  0  0  0  0  0  0  0
   49.8148    6.3018   14.5161 H   0  0  0  0  0  0  0  0  0  0  0  0
   48.2495    8.1835   12.3655 H   0  0  0  0  0  0  0  0  0  0  0  0
  4  1  1  0
  1  2  1  0
  2  3  1  0
 10 20  1  0
  9 21  1  0
 12 13  2  0
 21 22  1  0
  8  9  2  0
 22 23  2  0
 23 24  1  0
 13 14  1  0
  6  7  2  0
 14 15  2  0
  9 10  1  0
 24 25  1  0
 25 26  1  0
 26 27  2  0
 27 23  1  0
 15 16  1  0
 27 28  1  0
 16 11  2  0
 24 29  2  0
  5 11  1  0
 25 30  1  0
 10  5  2  0
 30 31  2  0
 15 17  1  0
 31 32  1  0
  5  6  1  0
 32 33  2  0
  7  8  1  0
 33 34  1  0
 17 18  1  0
 34 35  2  0
 35 30  1  0
 17 19  2  0
 33 36  1  0
 11 12  1  0
 32 37  1  0
 41 38  1  0
 38 39  1  0
 39 40  1  0
  1 42  1  0
  1 43  1  0
  2 44  1  0
  2 45  1  0
  3 46  1  0
  3 47  1  0
  4 48  1  0
  6 49  1  0
  7 50  1  0
  8 51  1  0
 12 52  1  0
 13 53  1  0
 14 54  1  0
 16 55  1  0
 18 56  1  0
 20 57  1  0
 21 58  1  0
 28 59  1  0
 28 60  1  0
 28 61  1  0
 31 62  1  0
 34 63  1  0
 35 64  1  0
 36 65  1  0
 36 66  1  0
 36 67  1  0
 37 68  1  0
 37 69  1  0
 37 70  1  0
 38 71  1  0
 38 72  1  0
 39 73  1  0
 39 74  1  0
 40 75  1  0
 40 76  1  0
 41 77  1  0
M  END
> <Uni-Dock RESULT> 
ENERGY=   -5.909  LOWER_BOUND=    4.045  UPPER_BOUND=    8.108
INTER + INTRA:          -5.909
INTER:                  -5.909
INTRA:                   0.000
UNBOUND:                 0.000

$$$$

     RDKit          3D

 77 78  0  0  0  0  0  0  0  0999 V2000
   48.3677   10.0260   16.8740 C   0  0  0  0  0  0  0  0  0  0  0  0
   48.1898    9.6771   15.3921 C   0  0  0  0  0  0  0  0  0  0  0  0
   49.2619   10.2495   14.5724 N   0  0  0  0  0  0  0  0  0  0  0  0
   49.6498    9.5998   17.3343 O   0  0  0  0  0  0  0  0  0  0  0  0
   50.0290   10.7071   11.8962 C   0  0  0  0  0  0  0  0  0  0  0  0
   50.5490    9.5364   11.3182 C   0  0  0  0  0  0  0  0  0  0  0  0
   50.5739    8.3307   12.0213 C   0  0  0  0  0  0  0  0  0  0  0  0
   50.0810    8.2715   13.3249 C   0  0  0  0  0  0  0  0  0  0  0  0
   49.5698    9.4143   13.9531 C   0  0  0  0  0  0  0  0  0  0  0  0
   49.5387   10.6165   13.2139 C   0  0  0  0  0  0  0  0  0  0  0  0
   50.0062   11.9606   11.1173 C   0  0  0  0  0  0  0  0  0  0  0  0
   50.6325   13.1241   11.5945 C   0  0  0  0  0  0  0  0  0  0  0  0
   50.6239   14.3072   10.8524 C   0  0  0  0  0  0  0  0  0  0  0  0
   49.9882   14.3470    9.6133 C   0  0  0  0  0  0  0  0  0  0  0  0
   49.3595   13.2019    9.1137 C   0  0  0  0  0  0  0  0  0  0  0  0
   49.3705   12.0179    9.8641 C   0  0  0  0  0  0  0  0  0  0  0  0
   48.6922   13.2863    7.7924 C   0  0  0  0  0  0  0  0  0  0  0  0
   48.2479   12.0941    7.3527 O   0  0  0  0  0  0  0  0  0  0  0  0
   48.5471   14.2952    7.1268 O   0  0  0  0  0  0  0  0  0  0  0  0
   48.9926   11.7339   13.8002 O   0  0  0  0  0  0  0  0  0  0  0  0
   49.0393    9.2834   15.2580 N   0  0  0  0  0  0  0  0  0  0  0  0
   48.6358   10.3627   15.9817 N   0  0  0  0  0  0  0  0  0  0  0  0
   48.3590   10.1332   17.2297 C   0  0  0  0  0  0  0  0  0  0  0  0
   48.4324    8.8645   18.0221 C   0  0  0  0  0  0  0  0  0  0  0  0
   47.9869    9.2756   19.2734 N   0  0  0  0  0  0  0  0  0  0  0  0
   47.6638   10.6436   19.3531 N   0  0  0  0  0  0  0  0  0  0  0  0
   47.8729   11.1635   18.1801 C   0  0  0  0  0  0  0  0  0  0  0  0
   47.6774   12.5758   17.7774 C   0  0  0  0  0  0  0  0  0  0  0  0
   48.8160    7.8115   17.5539 O   0  0  0  0  0  0  0  0  0  0  0  0
   47.8357    8.4802   20.4373 C   0  0  0  0  0  0  0  0  0  0  0  0
   48.1207    7.1076   20.4378 C   0  0  0  0  0  0  0  0  0  0  0  0
   47.9679    6.3199   21.5960 C   0  0  0  0  0  0  0  0  0  0  0  0
   47.5314    6.9212   22.7900 C   0  0  0  0  0  0  0  0  0  0  0  0
   47.2334    8.2891   22.7909 C   0  0  0  0  0  0  0  0  0  0  0  0
   47.3866    9.0566   21.6322 C   0  0  0  0  0  0  0  0  0  0  0  0
   47.3427    6.1259   24.0529 C   0  0  0  0  0  0  0  0  0  0  0  0
   48.3040    4.8546   21.5325 C   0  0  0  0  0  0  0  0  0  0  0  0
   48.6792    9.7519   16.9315 C   0  0  0  0  0  0  0  0  0  0  0  0
   49.4511    9.8565   15.6134 C   0  0  0  0  0  0  0  0  0  0  0  0
   48.7681   10.7585   14.6805 N   0  0  0  0  0  0  0  0  0  0  0  0
   47.3921    9.1822   16.6878 O   0  0  0  0  0  0  0  0  0  0  0  0
   47.5996    9.5377   17.4817 H   0  0  0  0  0  0  0  0  0  0  0  0
   48.2955   11.1069   17.0309 H   0  0  0  0  0  0  0  0  0  0  0  0
   48.2221    8.5896   15.2680 H   0  0  0  0  0  0  0  0  0  0  0  0
   47.2186   10.0301   15.0314 H   0  0  0  0  0  0  0  0  0  0  0  0
   50.1502   10.0453   15.0401 H   0  0  0  0  0  0  0  0  0  0  0  0
   49.1958   11.2674   14.6067 H   0  0  0  0  0  0  0  0  0  0  0  0
   49.7056    8.6401   17.1814 H   0  0  0  0  0  0  0  0  0  0  0  0
   50.9458    9.5594   10.3046 H   0  0  0  0  0  0  0  0  0  0  0  0
   50.9716    7.4367   11.5489 H   0  0  0  0  0  0  0  0  0  0  0  0
   50.0988    7.3186   13.8482 H   0  0  0  0  0  0  0  0  0  0  0  0
   51.1285   13.1119   12.5643 H   0  0  0  0  0  0  0  0  0  0  0  0
   51.1089   15.1973   11.2449 H   0  0  0  0  0  0  0  0  0  0  0  0
   49.9814   15.2722    9.0407 H   0  0  0  0  0  0  0  0  0  0  0  0
   48.8678   11.1322    9.4814 H   0  0  0  0  0  0  0  0  0  0  0  0
   47.8342   12.3076    6.4906 H   0  0  0  0  0  0  0  0  0  0  0  0
   48.7063   11.3993   14.6782 H   0  0  0  0  0  0  0  0  0  0  0  0
   49.2698    8.3972   15.7253 H   0  0  0  0  0  0  0  0  0  0  0  0
   46.9698   12.6276   16.9456 H   0  0  0  0  0  0  0  0  0  0  0  0
   48.6331   13.0053   17.4661 H   0  0  0  0  0  0  0  0  0  0  0  0
   47.2830   13.1532   18.6175 H   0  0  0  0  0  0  0  0  0  0  0  0
   48.4696    6.6160   19.5338 H   0  0  0  0  0  0  0  0  0  0  0  0
   46.8809    8.7761   23.6983 H   0  0  0  0  0  0  0  0  0  0  0  0
   47.1487   10.1164   21.6820 H   0  0  0  0  0  0  0  0  0  0  0  0
   48.2286    5.5183   24.2649 H   0  0  0  0  0  0  0  0  0  0  0  0
   46.4679    5.4737   23.9596 H   0  0  0  0  0  0  0  0  0  0  0  0
   47.1876    6.7800   24.9174 H   0  0  0  0  0  0  0  0  0  0  0  0
   47.4751    4.2529   21.9179 H   0  0  0  0  0  0  0  0  0  0  0  0
   48.4883    4.5282   20.5037 H   0  0  0  0  0  0  0  0  0  0  0  0
   49.2060    4.6498   22.1167 H   0  0  0  0  0  0  0  0  0  0  0  0
   49.2149    9.1039   17.6320 H   0  0  0  0  0  0  0  0  0  0  0  0
   48.5471   10.7380   17.3898 H   0  0  0  0  0  0  0  0  0  0  0  0
   50.4658   10.2227   15.7958 H   0  0  0  0  0  0  0  0  0  0  0  0
   49.5172    8.8656   15.1508 H   0  0  0  0  0  0  0  0  0  0  0  0
   49.1266   10.5998   13.7408 H   0  0  0  0  0  0  0  0  0  0  0  0
   47.7842   10.4765   14.6582 H   0  0  0  0  0  0  0  0  0  0  0  0
   46.9104    9.2140   17.5321 H   0  0  0  0  0  0  0  0  0  0  0  0
  4  1  1  0
  1  2  1  0
  2  3  1  0
 10 20  1  0
  9 21  1  0
 12 13  2  0
 21 22  1  0
  8  9  2  0
 22 23  2  0
 23 24  1  0
 13 14  1  0
  6  7  2  0
 14 15  2  0
  9 10  1  0
 24 25  1  0
 25 26  1  0
 26 27  2  0
 27 23  1  0
 15 16  1  0
 27 28  1  0
 16 11  2  0
 24 29  2  0
  5 11  1  0
 25 30  1  0
 10  5  2  0
 30 31  2  0
 15 17  1  0
 31 32  1  0
  5  6  1  0
 32 33  2  0
  7  8  1  0
 33 34  1  0
 17 18  1  0
 34 35  2  0
 35 30  1  0
 17 19  2  0
 33 36  1  0
 11 12  1  0
 32 37  1  0
 41 38  1  0
 38 39  1  0
 39 40  1  0
  1 42  1  0
  1 43  1  0
  2 44  1  0
  2 45  1  0
  3 46  1  0
  3 47  1  0
  4 48  1  0
  6 49  1  0
  7 50  1  0
  8 51  1  0
 12 52  1  0
 13 53  1  0
 14 54  1  0
 16 55  1  0
 18 56  1  0
 20 57  1  0
 21 58  1  0
 28 59  1  0
 28 60  1  0
 28 61  1  0
 31 62  1  0
 34 63  1  0
 35 64  1  0
 36 65  1  0
 36 66  1  0
 36 67  1  0
 37 68  1  0
 37 69  1  0
 37 70  1  0
 38 71  1  0
 38 72  1  0
 39 73  1  0
 39 74  1  0
 40 75  1  0
 40 76  1  0
 41 77  1  0
M  END
> <Uni-Dock RESULT> 
ENERGY=   -4.937  LOWER_BOUND=    4.780  UPPER_BOUND=    7.029
INTER + INTRA:          -4.937
INTER:                  -4.937
INTRA:                   0.000
UNBOUND:                 0.000

$$$$

     RDKit          3D

 77 78  0  0  0  0  0  0  0  0999 V2000
   48.4469    7.2096   14.5458 C   0  0  0  0  0  0  0  0  0  0  0  0
   48.5725    8.2049   13.3870 C   0  0  0  0  0  0  0  0  0  0  0  0
   47.4358    9.1296   13.3467 N   0  0  0  0  0  0  0  0  0  0  0  0
   48.3057    7.9046   15.7846 O   0  0  0  0  0  0  0  0  0  0  0  0
   46.2143   11.1030   11.7424 C   0  0  0  0  0  0  0  0  0  0  0  0
   46.8904   12.3296   11.8574 C   0  0  0  0  0  0  0  0  0  0  0  0
   48.0503   12.4481   12.6250 C   0  0  0  0  0  0  0  0  0  0  0  0
   48.5581   11.3382   13.3002 C   0  0  0  0  0  0  0  0  0  0  0  0
   47.9110   10.0977   13.2336 C   0  0  0  0  0  0  0  0  0  0  0  0
   46.7505   10.0000   12.4357 C   0  0  0  0  0  0  0  0  0  0  0  0
   44.9985   11.0121   10.9105 C   0  0  0  0  0  0  0  0  0  0  0  0
   43.7813   10.5627   11.4492 C   0  0  0  0  0  0  0  0  0  0  0  0
   42.6266   10.4895   10.6669 C   0  0  0  0  0  0  0  0  0  0  0  0
   42.6684   10.8685    9.3269 C   0  0  0  0  0  0  0  0  0  0  0  0
   43.8668   11.3223    8.7665 C   0  0  0  0  0  0  0  0  0  0  0  0
   45.0226   11.3922    9.5566 C   0  0  0  0  0  0  0  0  0  0  0  0
   43.8701   11.7138    7.3364 C   0  0  0  0  0  0  0  0  0  0  0  0
   45.0347   12.2651    6.9468 O   0  0  0  0  0  0  0  0  0  0  0  0
   42.9433   11.5869    6.5574 O   0  0  0  0  0  0  0  0  0  0  0  0
   46.1344    8.7763   12.3202 O   0  0  0  0  0  0  0  0  0  0  0  0
   48.4987    8.9965   13.8993 N   0  0  0  0  0  0  0  0  0  0  0  0
   47.8737    7.7908   13.9845 N   0  0  0  0  0  0  0  0  0  0  0  0
   48.4200    6.9282   14.7870 C   0  0  0  0  0  0  0  0  0  0  0  0
   49.6280    7.0487   15.6640 C   0  0  0  0  0  0  0  0  0  0  0  0
   49.6959    5.7861   16.2426 N   0  0  0  0  0  0  0  0  0  0  0  0
   48.6699    4.9090   15.8422 N   0  0  0  0  0  0  0  0  0  0  0  0
   47.9156    5.5491   14.9989 C   0  0  0  0  0  0  0  0  0  0  0  0
   46.7075    5.0386   14.3097 C   0  0  0  0  0  0  0  0  0  0  0  0
   50.2841    8.0668   15.7528 O   0  0  0  0  0  0  0  0  0  0  0  0
   50.6613    5.3138   17.1672 C   0  0  0  0  0  0  0  0  0  0  0  0
   51.7229    6.1182   17.6044 C   0  0  0  0  0  0  0  0  0  0  0  0
   52.6815    5.6450   18.5223 C   0  0  0  0  0  0  0  0  0  0  0  0
   52.5698    4.3376   19.0282 C   0  0  0  0  0  0  0  0  0  0  0  0
   51.5184    3.5264   18.5848 C   0  0  0  0  0  0  0  0  0  0  0  0
   50.5772    4.0094   17.6705 C   0  0  0  0  0  0  0  0  0  0  0  0
   53.5697    3.7789   20.0032 C   0  0  0  0  0  0  0  0  0  0  0  0
   53.7889    6.5643   18.9612 C   0  0  0  0  0  0  0  0  0  0  0  0
   48.5513    7.4912   14.8379 C   0  0  0  0  0  0  0  0  0  0  0  0
   47.8726    8.7623   14.3204 C   0  0  0  0  0  0  0  0  0  0  0  0
   47.2404    8.5220   13.0193 N   0  0  0  0  0  0  0  0  0  0  0  0
   49.5985    7.1107   13.9440 O   0  0  0  0  0  0  0  0  0  0  0  0
   49.3327    6.5698   14.6047 H   0  0  0  0  0  0  0  0  0  0  0  0
   47.5680    6.5700   14.4163 H   0  0  0  0  0  0  0  0  0  0  0  0
   49.4812    8.8019   13.5171 H   0  0  0  0  0  0  0  0  0  0  0  0
   48.6511    7.6723   12.4340 H   0  0  0  0  0  0  0  0  0  0  0  0
   47.2848    9.4746   14.2995 H   0  0  0  0  0  0  0  0  0  0  0  0
   46.5874    8.6010   13.1408 H   0  0  0  0  0  0  0  0  0  0  0  0
   49.0874    8.4760   15.8842 H   0  0  0  0  0  0  0  0  0  0  0  0
   46.5093   13.2115   11.3453 H   0  0  0  0  0  0  0  0  0  0  0  0
   48.5609   13.4050   12.6900 H   0  0  0  0  0  0  0  0  0  0  0  0
   49.4701   11.4515   13.8814 H   0  0  0  0  0  0  0  0  0  0  0  0
   43.7328   10.2564   12.4934 H   0  0  0  0  0  0  0  0  0  0  0  0
   41.6975   10.1318   11.1034 H   0  0  0  0  0  0  0  0  0  0  0  0
   41.7668   10.8062    8.7209 H   0  0  0  0  0  0  0  0  0  0  0  0
   45.9577   11.7306    9.1155 H   0  0  0  0  0  0  0  0  0  0  0  0
   44.8891   12.4614    5.9980 H   0  0  0  0  0  0  0  0  0  0  0  0
   46.7115    8.1919   12.8590 H   0  0  0  0  0  0  0  0  0  0  0  0
   49.2446    9.2467   14.5611 H   0  0  0  0  0  0  0  0  0  0  0  0
   46.8436    5.1077   13.2271 H   0  0  0  0  0  0  0  0  0  0  0  0
   45.8380    5.6323   14.6032 H   0  0  0  0  0  0  0  0  0  0  0  0
   46.5352    3.9940   14.5814 H   0  0  0  0  0  0  0  0  0  0  0  0
   51.8306    7.1360   17.2399 H   0  0  0  0  0  0  0  0  0  0  0  0
   51.4171    2.5062   18.9505 H   0  0  0  0  0  0  0  0  0  0  0  0
   49.7746    3.3453   17.3592 H   0  0  0  0  0  0  0  0  0  0  0  0
   53.7259    4.4700   20.8380 H   0  0  0  0  0  0  0  0  0  0  0  0
   54.5246    3.5954   19.4993 H   0  0  0  0  0  0  0  0  0  0  0  0
   53.2244    2.8317   20.4310 H   0  0  0  0  0  0  0  0  0  0  0  0
   54.7625    6.0806   18.8359 H   0  0  0  0  0  0  0  0  0  0  0  0
   53.8071    7.4844   18.3678 H   0  0  0  0  0  0  0  0  0  0  0  0
   53.6526    6.8436   20.0101 H   0  0  0  0  0  0  0  0  0  0  0  0
   48.9900    7.6723   15.8239 H   0  0  0  0  0  0  0  0  0  0  0  0
   47.8354    6.6656   14.9139 H   0  0  0  0  0  0  0  0  0  0  0  0
   47.1173    9.1064   15.0334 H   0  0  0  0  0  0  0  0  0  0  0  0
   48.6224    9.5520   14.2003 H   0  0  0  0  0  0  0  0  0  0  0  0
   47.0479    9.4163   12.5721 H   0  0  0  0  0  0  0  0  0  0  0  0
   47.9363    8.0563   12.4304 H   0  0  0  0  0  0  0  0  0  0  0  0
   49.9415    6.2591   14.2650 H   0  0  0  0  0  0  0  0  0  0  0  0
  4  1  1  0
  1  2  1  0
  2  3  1  0
 10 20  1  0
  9 21  1  0
 12 13  2  0
 21 22  1  0
  8  9  2  0
 22 23  2  0
 23 24  1  0
 13 14  1  0
  6  7  2  0
 14 15  2  0
  9 10  1  0
 24 25  1  0
 25 26  1  0
 26 27  2  0
 27 23  1  0
 15 16  1  0
 27 28  1  0
 16 11  2  0
 24 29  2  0
  5 11  1  0
 25 30  1  0
 10  5  2  0
 30 31  2  0
 15 17  1  0
 31 32  1  0
  5  6  1  0
 32 33  2  0
  7  8  1  0
 33 34  1  0
 17 18  1  0
 34 35  2  0
 35 30  1  0
 17 19  2  0
 33 36  1  0
 11 12  1  0
 32 37  1  0
 41 38  1  0
 38 39  1  0
 39 40  1  0
  1 42  1  0
  1 43  1  0
  2 44  1  0
  2 45  1  0
  3 46  1  0
  3 47  1  0
  4 48  1  0
  6 49  1  0
  7 50  1  0
  8 51  1  0
 12 52  1  0
 13 53  1  0
 14 54  1  0
 16 55  1  0
 18 56  1  0
 20 57  1  0
 21 58  1  0
 28 59  1  0
 28 60  1  0
 28 61  1  0
 31 62  1  0
 34 63  1  0
 35 64  1  0
 36 65  1  0
 36 66  1  0
 36 67  1  0
 37 68  1  0
 37 69  1  0
 37 70  1  0
 38 71  1  0
 38 72  1  0
 39 73  1  0
 39 74  1  0
 40 75  1  0
 40 76  1  0
 41 77  1  0
M  END
> <Uni-Dock RESULT> 
ENERGY=   -4.893  LOWER_BOUND=    3.918  UPPER_BOUND=    5.710
INTER + INTRA:          -4.893
INTER:                  -4.893
INTRA:                   0.000
UNBOUND:                 0.000

$$$$

     RDKit          3D

 77 78  0  0  0  0  0  0  0  0999 V2000
   48.8312    9.0582   17.0239 C   0  0  0  0  0  0  0  0  0  0  0  0
   49.5431   10.3371   16.5689 C   0  0  0  0  0  0  0  0  0  0  0  0
   48.8351   10.9807   15.4584 N   0  0  0  0  0  0  0  0  0  0  0  0
   47.4765    9.3413   17.3734 O   0  0  0  0  0  0  0  0  0  0  0  0
   49.0903   13.0208   13.5264 C   0  0  0  0  0  0  0  0  0  0  0  0
   48.8360   14.2811   14.0938 C   0  0  0  0  0  0  0  0  0  0  0  0
   48.5756   14.4221   15.4579 C   0  0  0  0  0  0  0  0  0  0  0  0
   48.5596   13.2999   16.2861 C   0  0  0  0  0  0  0  0  0  0  0  0
   48.7879   12.0193   15.7666 C   0  0  0  0  0  0  0  0  0  0  0  0
   49.0673   11.9060   14.3874 C   0  0  0  0  0  0  0  0  0  0  0  0
   49.3756   12.9119   12.0824 C   0  0  0  0  0  0  0  0  0  0  0  0
   48.5998   12.0895   11.2483 C   0  0  0  0  0  0  0  0  0  0  0  0
   48.8596   11.9962    9.8792 C   0  0  0  0  0  0  0  0  0  0  0  0
   49.9030   12.7287    9.3172 C   0  0  0  0  0  0  0  0  0  0  0  0
   50.6889   13.5573   10.1247 C   0  0  0  0  0  0  0  0  0  0  0  0
   50.4238   13.6456   11.4984 C   0  0  0  0  0  0  0  0  0  0  0  0
   51.7909   14.3183    9.4886 C   0  0  0  0  0  0  0  0  0  0  0  0
   52.3841   15.1844   10.3312 O   0  0  0  0  0  0  0  0  0  0  0  0
   52.1527   14.2209    8.3303 O   0  0  0  0  0  0  0  0  0  0  0  0
   49.3438   10.6610   13.8737 O   0  0  0  0  0  0  0  0  0  0  0  0
   48.8076   10.9243   16.6621 N   0  0  0  0  0  0  0  0  0  0  0  0
   48.9018    9.6393   16.2247 N   0  0  0  0  0  0  0  0  0  0  0  0
   48.7077    8.7222   17.1235 C   0  0  0  0  0  0  0  0  0  0  0  0
   48.3706    8.8450   18.5776 C   0  0  0  0  0  0  0  0  0  0  0  0
   48.3220    7.5147   18.9794 N   0  0  0  0  0  0  0  0  0  0  0  0
   48.5718    6.5884   17.9489 N   0  0  0  0  0  0  0  0  0  0  0  0
   48.7968    7.2646   16.8617 C   0  0  0  0  0  0  0  0  0  0  0  0
   49.1031    6.7241   15.5167 C   0  0  0  0  0  0  0  0  0  0  0  0
   48.2013    9.9126   19.1311 O   0  0  0  0  0  0  0  0  0  0  0  0
   48.0508    7.0175   20.2791 C   0  0  0  0  0  0  0  0  0  0  0  0
   47.8073    7.8729   21.3627 C   0  0  0  0  0  0  0  0  0  0  0  0
   47.5396    7.3752   22.6535 C   0  0  0  0  0  0  0  0  0  0  0  0
   47.5005    5.9855   22.8657 C   0  0  0  0  0  0  0  0  0  0  0  0
   47.7556    5.1277   21.7892 C   0  0  0  0  0  0  0  0  0  0  0  0
   48.0235    5.6371   20.5149 C   0  0  0  0  0  0  0  0  0  0  0  0
   47.2281    5.4005   24.2245 C   0  0  0  0  0  0  0  0  0  0  0  0
   47.2734    8.3475   23.7706 C   0  0  0  0  0  0  0  0  0  0  0  0
   48.5246    9.2641   17.2218 C   0  0  0  0  0  0  0  0  0  0  0  0
   48.2854   10.4589   16.2947 C   0  0  0  0  0  0  0  0  0  0  0  0
   49.2471   10.4596   15.1878 N   0  0  0  0  0  0  0  0  0  0  0  0
   49.8208    9.3695   17.8126 O   0  0  0  0  0  0  0  0  0  0  0  0
   49.3322    8.6250   17.8951 H   0  0  0  0  0  0  0  0  0  0  0  0
   48.8237    8.3110   16.2240 H   0  0  0  0  0  0  0  0  0  0  0  0
   49.5758   11.0503   17.3992 H   0  0  0  0  0  0  0  0  0  0  0  0
   50.5732   10.1150   16.2729 H   0  0  0  0  0  0  0  0  0  0  0  0
   47.8407   11.0116   15.7031 H   0  0  0  0  0  0  0  0  0  0  0  0
   48.8678   10.3649   14.6451 H   0  0  0  0  0  0  0  0  0  0  0  0
   47.4958   10.0125   18.0781 H   0  0  0  0  0  0  0  0  0  0  0  0
   48.8361   15.1708   13.4663 H   0  0  0  0  0  0  0  0  0  0  0  0
   48.3921   15.4086   15.8748 H   0  0  0  0  0  0  0  0  0  0  0  0
   48.3673   13.4357   17.3477 H   0  0  0  0  0  0  0  0  0  0  0  0
   47.7844   11.5051   11.6727 H   0  0  0  0  0  0  0  0  0  0  0  0
   48.2506   11.3478    9.2545 H   0  0  0  0  0  0  0  0  0  0  0  0
   50.1034   12.6497    8.2507 H   0  0  0  0  0  0  0  0  0  0  0  0
   51.0457   14.2784   12.1280 H   0  0  0  0  0  0  0  0  0  0  0  0
   53.0804   15.5991    9.7806 H   0  0  0  0  0  0  0  0  0  0  0  0
   49.2952   10.0840   14.6671 H   0  0  0  0  0  0  0  0  0  0  0  0
   48.4367   11.1321   17.5982 H   0  0  0  0  0  0  0  0  0  0  0  0
   50.0645    7.1145   15.1725 H   0  0  0  0  0  0  0  0  0  0  0  0
   48.3202    7.0205   14.8140 H   0  0  0  0  0  0  0  0  0  0  0  0
   49.1544    5.6329   15.5549 H   0  0  0  0  0  0  0  0  0  0  0  0
   47.8204    8.9510   21.2287 H   0  0  0  0  0  0  0  0  0  0  0  0
   47.7448    4.0484   21.9296 H   0  0  0  0  0  0  0  0  0  0  0  0
   48.2098    4.9326   19.7080 H   0  0  0  0  0  0  0  0  0  0  0  0
   46.3358    5.8526   24.6700 H   0  0  0  0  0  0  0  0  0  0  0  0
   48.0869    5.5647   24.8839 H   0  0  0  0  0  0  0  0  0  0  0  0
   47.0465    4.3221   24.1661 H   0  0  0  0  0  0  0  0  0  0  0  0
   47.9140    8.1296   24.6307 H   0  0  0  0  0  0  0  0  0  0  0  0
   47.4825    9.3780   23.4655 H   0  0  0  0  0  0  0  0  0  0  0  0
   46.2238    8.2934   24.0744 H   0  0  0  0  0  0  0  0  0  0  0  0
   47.7807    9.2543   18.0243 H   0  0  0  0  0  0  0  0  0  0  0  0
   48.4644    8.3196   16.6702 H   0  0  0  0  0  0  0  0  0  0  0  0
   47.2683   10.4296   15.8925 H   0  0  0  0  0  0  0  0  0  0  0  0
   48.4086   11.3889   16.8607 H   0  0  0  0  0  0  0  0  0  0  0  0
   49.2589   11.3821   14.7571 H   0  0  0  0  0  0  0  0  0  0  0  0
   50.1757   10.3283   15.5984 H   0  0  0  0  0  0  0  0  0  0  0  0
   49.9606    8.5529   18.3221 H   0  0  0  0  0  0  0  0  0  0  0  0
  4  1  1  0
  1  2  1  0
  2  3  1  0
 10 20  1  0
  9 21  1  0
 12 13  2  0
 21 22  1  0
  8  9  2  0
 22 23  2  0
 23 24  1  0
 13 14  1  0
  6  7  2  0
 14 15  2  0
  9 10  1  0
 24 25  1  0
 25 26  1  0
 26 27  2  0
 27 23  1  0
 15 16  1  0
 27 28  1  0
 16 11  2  0
 24 29  2  0
  5 11  1  0
 25 30  1  0
 10  5  2  0
 30 31  2  0
 15 17  1  0
 31 32  1  0
  5  6  1  0
 32 33  2  0
  7  8  1  0
 33 34  1  0
 17 18  1  0
 34 35  2  0
 35 30  1  0
 17 19  2  0
 33 36  1  0
 11 12  1  0
 32 37  1  0
 41 38  1  0
 38 39  1  0
 39 40  1  0
  1 42  1  0
  1 43  1  0
  2 44  1  0
  2 45  1  0
  3 46  1  0
  3 47  1  0
  4 48  1  0
  6 49  1  0
  7 50  1  0
  8 51  1  0
 12 52  1  0
 13 53  1  0
 14 54  1  0
 16 55  1  0
 18 56  1  0
 20 57  1  0
 21 58  1  0
 28 59  1  0
 28 60  1  0
 28 61  1  0
 31 62  1  0
 34 63  1  0
 35 64  1  0
 36 65  1  0
 36 66  1  0
 36 67  1  0
 37 68  1  0
 37 69  1  0
 37 70  1  0
 38 71  1  0
 38 72  1  0
 39 73  1  0
 39 74  1  0
 40 75  1  0
 40 76  1  0
 41 77  1  0
M  END
> <Uni-Dock RESULT> 
ENERGY=   -4.519  LOWER_BOUND=    4.721  UPPER_BOUND=    7.434
INTER + INTRA:          -4.519
INTER:                  -4.519
INTRA:                   0.000
UNBOUND:                 0.000

$$$$

     RDKit          3D

 77 78  0  0  0  0  0  0  0  0999 V2000
   49.9731    7.7667   16.3171 C   0  0  0  0  0  0  0  0  0  0  0  0
   48.5483    7.5245   15.8067 C   0  0  0  0  0  0  0  0  0  0  0  0
   48.3781    8.0131   14.4351 N   0  0  0  0  0  0  0  0  0  0  0  0
   50.9245    7.1690   15.4368 O   0  0  0  0  0  0  0  0  0  0  0  0
   46.4184    8.5274   12.4716 C   0  0  0  0  0  0  0  0  0  0  0  0
   46.0263    7.3383   11.8334 C   0  0  0  0  0  0  0  0  0  0  0  0
   46.5326    6.1005   12.2335 C   0  0  0  0  0  0  0  0  0  0  0  0
   47.4492    6.0262   13.2823 C   0  0  0  0  0  0  0  0  0  0  0  0
   47.8868    7.1838   13.9384 C   0  0  0  0  0  0  0  0  0  0  0  0
   47.3455    8.4209   13.5271 C   0  0  0  0  0  0  0  0  0  0  0  0
   45.8513    9.8167   12.0305 C   0  0  0  0  0  0  0  0  0  0  0  0
   46.6810   10.8708   11.6131 C   0  0  0  0  0  0  0  0  0  0  0  0
   46.1455   12.0865   11.1821 C   0  0  0  0  0  0  0  0  0  0  0  0
   44.7645   12.2694   11.1585 C   0  0  0  0  0  0  0  0  0  0  0  0
   43.9158   11.2351   11.5661 C   0  0  0  0  0  0  0  0  0  0  0  0
   44.4597   10.0177   11.9989 C   0  0  0  0  0  0  0  0  0  0  0  0
   42.4525   11.4706   11.5284 C   0  0  0  0  0  0  0  0  0  0  0  0
   41.7366   10.3648   11.8053 O   0  0  0  0  0  0  0  0  0  0  0  0
   41.9036   12.5253   11.2668 O   0  0  0  0  0  0  0  0  0  0  0  0
   47.7274    9.5597   14.1963 O   0  0  0  0  0  0  0  0  0  0  0  0
   48.7799    7.0427   15.0265 N   0  0  0  0  0  0  0  0  0  0  0  0
   49.3447    8.1194   15.6374 N   0  0  0  0  0  0  0  0  0  0  0  0
   50.2940    7.8542   16.4830 C   0  0  0  0  0  0  0  0  0  0  0  0
   50.8947    6.5431   16.8870 C   0  0  0  0  0  0  0  0  0  0  0  0
   51.8360    6.9326   17.8334 N   0  0  0  0  0  0  0  0  0  0  0  0
   51.8997    8.3223   18.0499 N   0  0  0  0  0  0  0  0  0  0  0  0
   51.0155    8.8792   17.2766 C   0  0  0  0  0  0  0  0  0  0  0  0
   50.7171   10.3249   17.1514 C   0  0  0  0  0  0  0  0  0  0  0  0
   50.5489    5.4806   16.4112 O   0  0  0  0  0  0  0  0  0  0  0  0
   52.7102    6.0963   18.5727 C   0  0  0  0  0  0  0  0  0  0  0  0
   52.6992    4.7020   18.4277 C   0  0  0  0  0  0  0  0  0  0  0  0
   53.5684    3.8738   19.1652 C   0  0  0  0  0  0  0  0  0  0  0  0
   54.4831    4.4541   20.0622 C   0  0  0  0  0  0  0  0  0  0  0  0
   54.4888    5.8452   20.2196 C   0  0  0  0  0  0  0  0  0  0  0  0
   53.6172    6.6532   19.4831 C   0  0  0  0  0  0  0  0  0  0  0  0
   55.4273    3.6167   20.8807 C   0  0  0  0  0  0  0  0  0  0  0  0
   53.5149    2.3852   18.9524 C   0  0  0  0  0  0  0  0  0  0  0  0
   50.1387    7.4554   16.0909 C   0  0  0  0  0  0  0  0  0  0  0  0
   49.3422    7.5431   14.7862 C   0  0  0  0  0  0  0  0  0  0  0  0
   48.2991    8.5693   14.8812 N   0  0  0  0  0  0  0  0  0  0  0  0
   49.2726    7.0541   17.1536 O   0  0  0  0  0  0  0  0  0  0  0  0
   50.1051    7.3380   17.3153 H   0  0  0  0  0  0  0  0  0  0  0  0
   50.1907    8.8382   16.3709 H   0  0  0  0  0  0  0  0  0  0  0  0
   48.3408    6.4493   15.8039 H   0  0  0  0  0  0  0  0  0  0  0  0
   47.8202    8.0080   16.4655 H   0  0  0  0  0  0  0  0  0  0  0  0
   49.1778    7.6810   13.8878 H   0  0  0  0  0  0  0  0  0  0  0  0
   48.4836    9.0282   14.4310 H   0  0  0  0  0  0  0  0  0  0  0  0
   50.7157    6.2194   15.3900 H   0  0  0  0  0  0  0  0  0  0  0  0
   45.3174    7.3717   11.0078 H   0  0  0  0  0  0  0  0  0  0  0  0
   46.2061    5.1941   11.7310 H   0  0  0  0  0  0  0  0  0  0  0  0
   47.8200    5.0498   13.5849 H   0  0  0  0  0  0  0  0  0  0  0  0
   47.7630   10.7466   11.6315 H   0  0  0  0  0  0  0  0  0  0  0  0
   46.8072   12.8906   10.8705 H   0  0  0  0  0  0  0  0  0  0  0  0
   44.3525   13.2198   10.8252 H   0  0  0  0  0  0  0  0  0  0  0  0
   43.7990    9.2195   12.3304 H   0  0  0  0  0  0  0  0  0  0  0  0
   40.8083   10.6730   11.7495 H   0  0  0  0  0  0  0  0  0  0  0  0
   48.3352    9.2121   14.8852 H   0  0  0  0  0  0  0  0  0  0  0  0
   49.2060    6.1108   15.1105 H   0  0  0  0  0  0  0  0  0  0  0  0
   49.6636   10.5053   17.3808 H   0  0  0  0  0  0  0  0  0  0  0  0
   50.9268   10.6569   16.1314 H   0  0  0  0  0  0  0  0  0  0  0  0
   51.3365   10.8964   17.8475 H   0  0  0  0  0  0  0  0  0  0  0  0
   52.0114    4.2246   17.7352 H   0  0  0  0  0  0  0  0  0  0  0  0
   55.1775    6.3183   20.9172 H   0  0  0  0  0  0  0  0  0  0  0  0
   53.6618    7.7291   19.6342 H   0  0  0  0  0  0  0  0  0  0  0  0
   55.9587    2.8991   20.2470 H   0  0  0  0  0  0  0  0  0  0  0  0
   54.8750    3.0771   21.6573 H   0  0  0  0  0  0  0  0  0  0  0  0
   56.1863    4.2350   21.3717 H   0  0  0  0  0  0  0  0  0  0  0  0
   53.4110    1.8636   19.9088 H   0  0  0  0  0  0  0  0  0  0  0  0
   52.6585    2.0977   18.3336 H   0  0  0  0  0  0  0  0  0  0  0  0
   54.4237    2.0443   18.4476 H   0  0  0  0  0  0  0  0  0  0  0  0
   50.9355    6.7112   15.9972 H   0  0  0  0  0  0  0  0  0  0  0  0
   50.5845    8.4230   16.3458 H   0  0  0  0  0  0  0  0  0  0  0  0
   50.0079    7.7778   13.9503 H   0  0  0  0  0  0  0  0  0  0  0  0
   48.8618    6.5787   14.5877 H   0  0  0  0  0  0  0  0  0  0  0  0
   47.6189    8.4228   14.1379 H   0  0  0  0  0  0  0  0  0  0  0  0
   47.7977    8.4055   15.7586 H   0  0  0  0  0  0  0  0  0  0  0  0
   49.7989    7.0945   17.9705 H   0  0  0  0  0  0  0  0  0  0  0  0
  4  1  1  0
  1  2  1  0
  2  3  1  0
 10 20  1  0
  9 21  1  0
 12 13  2  0
 21 22  1  0
  8  9  2  0
 22 23  2  0
 23 24  1  0
 13 14  1  0
  6  7  2  0
 14 15  2  0
  9 10  1  0
 24 25  1  0
 25 26  1  0
 26 27  2  0
 27 23  1  0
 15 16  1  0
 27 28  1  0
 16 11  2  0
 24 29  2  0
  5 11  1  0
 25 30  1  0
 10  5  2  0
 30 31  2  0
 15 17  1  0
 31 32  1  0
  5  6  1  0
 32 33  2  0
  7  8  1  0
 33 34  1  0
 17 18  1  0
 34 35  2  0
 35 30  1  0
 17 19  2  0
 33 36  1  0
 11 12  1  0
 32 37  1  0
 41 38  1  0
 38 39  1  0
 39 40  1  0
  1 42  1  0
  1 43  1  0
  2 44  1  0
  2 45  1  0
  3 46  1  0
  3 47  1  0
  4 48  1  0
  6 49  1  0
  7 50  1  0
  8 51  1  0
 12 52  1  0
 13 53  1  0
 14 54  1  0
 16 55  1  0
 18 56  1  0
 20 57  1  0
 21 58  1  0
 28 59  1  0
 28 60  1  0
 28 61  1  0
 31 62  1  0
 34 63  1  0
 35 64  1  0
 36 65  1  0
 36 66  1  0
 36 67  1  0
 37 68  1  0
 37 69  1  0
 37 70  1  0
 38 71  1  0
 38 72  1  0
 39 73  1  0
 39 74  1  0
 40 75  1  0
 40 76  1  0
 41 77  1  0
M  END
> <Uni-Dock RESULT> 
ENERGY=   -4.404  LOWER_BOUND=    3.372  UPPER_BOUND=    6.005
INTER + INTRA:          -4.404
INTER:                  -4.404
INTRA:                   0.000
UNBOUND:                 0.000

$$$$

     RDKit          3D

 77 78  0  0  0  0  0  0  0  0999 V2000
   42.5534   11.7305   10.6670 C   0  0  0  0  0  0  0  0  0  0  0  0
   43.7988   11.8239   11.5556 C   0  0  0  0  0  0  0  0  0  0  0  0
   44.7496   10.7470   11.2639 N   0  0  0  0  0  0  0  0  0  0  0  0
   42.9251   11.7324    9.2889 O   0  0  0  0  0  0  0  0  0  0  0  0
   47.1062    9.5250   12.2194 C   0  0  0  0  0  0  0  0  0  0  0  0
   48.2379   10.2827   11.8730 C   0  0  0  0  0  0  0  0  0  0  0  0
   48.1160   11.5056   11.2110 C   0  0  0  0  0  0  0  0  0  0  0  0
   46.8540   11.9964   10.8762 C   0  0  0  0  0  0  0  0  0  0  0  0
   45.6957   11.2706   11.1819 C   0  0  0  0  0  0  0  0  0  0  0  0
   45.8453   10.0460   11.8681 C   0  0  0  0  0  0  0  0  0  0  0  0
   47.2731    8.2431   12.9316 C   0  0  0  0  0  0  0  0  0  0  0  0
   46.7536    7.0476   12.4075 C   0  0  0  0  0  0  0  0  0  0  0  0
   46.9228    5.8315   13.0732 C   0  0  0  0  0  0  0  0  0  0  0  0
   47.6199    5.7890   14.2787 C   0  0  0  0  0  0  0  0  0  0  0  0
   48.1498    6.9643   14.8210 C   0  0  0  0  0  0  0  0  0  0  0  0
   47.9754    8.1819   14.1486 C   0  0  0  0  0  0  0  0  0  0  0  0
   48.8828    6.8769   16.1068 C   0  0  0  0  0  0  0  0  0  0  0  0
   49.4662    8.0382   16.4573 O   0  0  0  0  0  0  0  0  0  0  0  0
   48.9902    5.8844   16.8036 O   0  0  0  0  0  0  0  0  0  0  0  0
   44.7141    9.3480   12.2198 O   0  0  0  0  0  0  0  0  0  0  0  0
   44.4412   11.8406   10.8616 N   0  0  0  0  0  0  0  0  0  0  0  0
   43.2781   11.1512   11.0143 N   0  0  0  0  0  0  0  0  0  0  0  0
   42.2223   11.7057   10.5001 C   0  0  0  0  0  0  0  0  0  0  0  0
   42.0732   12.9854    9.7364 C   0  0  0  0  0  0  0  0  0  0  0  0
   40.7050   13.0213    9.4911 N   0  0  0  0  0  0  0  0  0  0  0  0
   39.9964   11.9142    9.9955 N   0  0  0  0  0  0  0  0  0  0  0  0
   40.8552   11.1357   10.5839 C   0  0  0  0  0  0  0  0  0  0  0  0
   40.5802    9.8469   11.2611 C   0  0  0  0  0  0  0  0  0  0  0  0
   43.0105   13.7081    9.4642 O   0  0  0  0  0  0  0  0  0  0  0  0
   39.9801   14.0268    8.8030 C   0  0  0  0  0  0  0  0  0  0  0  0
   40.6079   15.1678    8.2841 C   0  0  0  0  0  0  0  0  0  0  0  0
   39.8839   16.1658    7.6021 C   0  0  0  0  0  0  0  0  0  0  0  0
   38.4975   16.0145    7.4212 C   0  0  0  0  0  0  0  0  0  0  0  0
   37.8643   14.8828    7.9487 C   0  0  0  0  0  0  0  0  0  0  0  0
   38.5962   13.9029    8.6265 C   0  0  0  0  0  0  0  0  0  0  0  0
   37.6750   17.0531    6.7087 C   0  0  0  0  0  0  0  0  0  0  0  0
   40.6207   17.3597    7.0579 C   0  0  0  0  0  0  0  0  0  0  0  0
   42.7494   11.8752   10.3263 C   0  0  0  0  0  0  0  0  0  0  0  0
   44.1353   11.2370   10.4537 C   0  0  0  0  0  0  0  0  0  0  0  0
   44.2504   10.4888   11.7096 N   0  0  0  0  0  0  0  0  0  0  0  0
   42.5605   12.8217   11.3793 O   0  0  0  0  0  0  0  0  0  0  0  0
   41.8839   12.5769   10.8482 H   0  0  0  0  0  0  0  0  0  0  0  0
   42.0016   10.8062   10.8658 H   0  0  0  0  0  0  0  0  0  0  0  0
   44.3079   12.7754   11.3694 H   0  0  0  0  0  0  0  0  0  0  0  0
   43.5160   11.7926   12.6125 H   0  0  0  0  0  0  0  0  0  0  0  0
   44.8536   10.6947   10.2460 H   0  0  0  0  0  0  0  0  0  0  0  0
   44.3229    9.8538   11.5123 H   0  0  0  0  0  0  0  0  0  0  0  0
   43.4221   12.5535    9.1265 H   0  0  0  0  0  0  0  0  0  0  0  0
   49.2338    9.9170   12.1176 H   0  0  0  0  0  0  0  0  0  0  0  0
   49.0057   12.0780   10.9631 H   0  0  0  0  0  0  0  0  0  0  0  0
   46.7831   12.9574   10.3723 H   0  0  0  0  0  0  0  0  0  0  0  0
   46.2005    7.0642   11.4693 H   0  0  0  0  0  0  0  0  0  0  0  0
   46.5058    4.9201   12.6523 H   0  0  0  0  0  0  0  0  0  0  0  0
   47.7459    4.8395   14.7950 H   0  0  0  0  0  0  0  0  0  0  0  0
   48.3747    9.0977   14.5793 H   0  0  0  0  0  0  0  0  0  0  0  0
   49.8970    7.8293   17.3121 H   0  0  0  0  0  0  0  0  0  0  0  0
   43.9918    9.9293   11.8954 H   0  0  0  0  0  0  0  0  0  0  0  0
   44.4895   12.6513   10.2312 H   0  0  0  0  0  0  0  0  0  0  0  0
   40.9098    9.8996   12.3022 H   0  0  0  0  0  0  0  0  0  0  0  0
   41.1171    9.0421   10.7524 H   0  0  0  0  0  0  0  0  0  0  0  0
   39.5087    9.6326   11.2367 H   0  0  0  0  0  0  0  0  0  0  0  0
   41.6791   15.3086    8.3986 H   0  0  0  0  0  0  0  0  0  0  0  0
   36.7903   14.7482    7.8343 H   0  0  0  0  0  0  0  0  0  0  0  0
   38.0626   13.0383    9.0138 H   0  0  0  0  0  0  0  0  0  0  0  0
   38.1311   17.3181    5.7491 H   0  0  0  0  0  0  0  0  0  0  0  0
   37.5839   17.9512    7.3286 H   0  0  0  0  0  0  0  0  0  0  0  0
   36.6661   16.6853    6.4938 H   0  0  0  0  0  0  0  0  0  0  0  0
   40.1444   18.2883    7.3871 H   0  0  0  0  0  0  0  0  0  0  0  0
   41.6575   17.3870    7.4088 H   0  0  0  0  0  0  0  0  0  0  0  0
   40.6368   17.3255    5.9645 H   0  0  0  0  0  0  0  0  0  0  0  0
   42.6630   12.4020    9.3710 H   0  0  0  0  0  0  0  0  0  0  0  0
   41.9602   11.1180   10.3871 H   0  0  0  0  0  0  0  0  0  0  0  0
   44.3222   10.5642    9.6114 H   0  0  0  0  0  0  0  0  0  0  0  0
   44.8994   12.0222   10.4474 H   0  0  0  0  0  0  0  0  0  0  0  0
   45.2345   10.3167   11.9060 H   0  0  0  0  0  0  0  0  0  0  0  0
   43.9174   11.1050   12.4562 H   0  0  0  0  0  0  0  0  0  0  0  0
   41.6428   13.1361   11.3083 H   0  0  0  0  0  0  0  0  0  0  0  0
  4  1  1  0
  1  2  1  0
  2  3  1  0
 10 20  1  0
  9 21  1  0
 12 13  2  0
 21 22  1  0
  8  9  2  0
 22 23  2  0
 23 24  1  0
 13 14  1  0
  6  7  2  0
 14 15  2  0
  9 10  1  0
 24 25  1  0
 25 26  1  0
 26 27  2  0
 27 23  1  0
 15 16  1  0
 27 28  1  0
 16 11  2  0
 24 29  2  0
  5 11  1  0
 25 30  1  0
 10  5  2  0
 30 31  2  0
 15 17  1  0
 31 32  1  0
  5  6  1  0
 32 33  2  0
  7  8  1  0
 33 34  1  0
 17 18  1  0
 34 35  2  0
 35 30  1  0
 17 19  2  0
 33 36  1  0
 11 12  1  0
 32 37  1  0
 41 38  1  0
 38 39  1  0
 39 40  1  0
  1 42  1  0
  1 43  1  0
  2 44  1  0
  2 45  1  0
  3 46  1  0
  3 47  1  0
  4 48  1  0
  6 49  1  0
  7 50  1  0
  8 51  1  0
 12 52  1  0
 13 53  1  0
 14 54  1  0
 16 55  1  0
 18 56  1  0
 20 57  1  0
 21 58  1  0
 28 59  1  0
 28 60  1  0
 28 61  1  0
 31 62  1  0
 34 63  1  0
 35 64  1  0
 36 65  1  0
 36 66  1  0
 36 67  1  0
 37 68  1  0
 37 69  1  0
 37 70  1  0
 38 71  1  0
 38 72  1  0
 39 73  1  0
 39 74  1  0
 40 75  1  0
 40 76  1  0
 41 77  1  0
M  END
> <Uni-Dock RESULT> 
ENERGY=   -4.341  LOWER_BOUND=    5.698  UPPER_BOUND=    9.920
INTER + INTRA:          -4.341
INTER:                  -4.341
INTRA:                   0.000
UNBOUND:                 0.000

$$$$

     RDKit          3D

 77 78  0  0  0  0  0  0  0  0999 V2000
   45.4057   12.1349   11.2630 C   0  0  0  0  0  0  0  0  0  0  0  0
   46.4175   11.5053   12.2270 C   0  0  0  0  0  0  0  0  0  0  0  0
   46.7380   10.1267   11.8453 N   0  0  0  0  0  0  0  0  0  0  0  0
   45.8917   12.0727    9.9224 O   0  0  0  0  0  0  0  0  0  0  0  0
   48.0474    7.8005   12.7586 C   0  0  0  0  0  0  0  0  0  0  0  0
   49.4379    7.9095   12.5866 C   0  0  0  0  0  0  0  0  0  0  0  0
   50.0173    9.0799   12.0939 C   0  0  0  0  0  0  0  0  0  0  0  0
   49.2139   10.1694   11.7571 C   0  0  0  0  0  0  0  0  0  0  0  0
   47.8212   10.1049   11.8916 C   0  0  0  0  0  0  0  0  0  0  0  0
   47.2619    8.9167   12.4097 C   0  0  0  0  0  0  0  0  0  0  0  0
   47.4715    6.5520   13.2954 C   0  0  0  0  0  0  0  0  0  0  0  0
   46.4956    5.8362   12.5819 C   0  0  0  0  0  0  0  0  0  0  0  0
   45.9599    4.6473   13.0821 C   0  0  0  0  0  0  0  0  0  0  0  0
   46.3944    4.1498   14.3087 C   0  0  0  0  0  0  0  0  0  0  0  0
   47.3670    4.8414   15.0380 C   0  0  0  0  0  0  0  0  0  0  0  0
   47.8998    6.0349   14.5312 C   0  0  0  0  0  0  0  0  0  0  0  0
   47.8007    4.2800   16.3399 C   0  0  0  0  0  0  0  0  0  0  0  0
   48.8354    4.9499   16.8808 O   0  0  0  0  0  0  0  0  0  0  0  0
   47.3186    3.3115   16.8981 O   0  0  0  0  0  0  0  0  0  0  0  0
   45.9008    8.8583   12.5952 O   0  0  0  0  0  0  0  0  0  0  0  0
   47.0618   11.2572   11.5806 N   0  0  0  0  0  0  0  0  0  0  0  0
   45.7013   11.2401   11.5686 N   0  0  0  0  0  0  0  0  0  0  0  0
   45.1285   12.2961   11.0752 C   0  0  0  0  0  0  0  0  0  0  0  0
   45.7248   13.5382   10.4882 C   0  0  0  0  0  0  0  0  0  0  0  0
   44.5943   14.2830   10.1709 N   0  0  0  0  0  0  0  0  0  0  0  0
   43.3761   13.6461   10.4755 N   0  0  0  0  0  0  0  0  0  0  0  0
   43.6597   12.4908   10.9998 C   0  0  0  0  0  0  0  0  0  0  0  0
   42.7043   11.4631   11.4754 C   0  0  0  0  0  0  0  0  0  0  0  0
   46.9217   13.7088   10.3734 O   0  0  0  0  0  0  0  0  0  0  0  0
   44.5502   15.5742    9.5872 C   0  0  0  0  0  0  0  0  0  0  0  0
   45.7172   16.2825    9.2683 C   0  0  0  0  0  0  0  0  0  0  0  0
   45.6696   17.5663    8.6896 C   0  0  0  0  0  0  0  0  0  0  0  0
   44.4231   18.1538    8.4091 C   0  0  0  0  0  0  0  0  0  0  0  0
   43.2549   17.4555    8.7375 C   0  0  0  0  0  0  0  0  0  0  0  0
   43.3189   16.1837    9.3150 C   0  0  0  0  0  0  0  0  0  0  0  0
   44.3143   19.5250    7.8001 C   0  0  0  0  0  0  0  0  0  0  0  0
   46.9596   18.2670    8.3592 C   0  0  0  0  0  0  0  0  0  0  0  0
   45.6869   12.1906   10.9575 C   0  0  0  0  0  0  0  0  0  0  0  0
   46.5488   10.9307   11.0761 C   0  0  0  0  0  0  0  0  0  0  0  0
   46.1271   10.1175   12.2212 N   0  0  0  0  0  0  0  0  0  0  0  0
   45.8664   13.0035   12.1184 O   0  0  0  0  0  0  0  0  0  0  0  0
   45.2265   13.1834   11.5200 H   0  0  0  0  0  0  0  0  0  0  0  0
   44.4497   11.6030   11.2998 H   0  0  0  0  0  0  0  0  0  0  0  0
   47.3487   12.0809   12.2039 H   0  0  0  0  0  0  0  0  0  0  0  0
   46.0320   11.5263   13.2512 H   0  0  0  0  0  0  0  0  0  0  0  0
   46.9236   10.1208   10.8378 H   0  0  0  0  0  0  0  0  0  0  0  0
   45.8991    9.5538   11.9427 H   0  0  0  0  0  0  0  0  0  0  0  0
   46.7452   12.5404    9.9041 H   0  0  0  0  0  0  0  0  0  0  0  0
   50.0848    7.0700   12.8359 H   0  0  0  0  0  0  0  0  0  0  0  0
   51.0959    9.1434   11.9796 H   0  0  0  0  0  0  0  0  0  0  0  0
   49.6887   11.0751   11.3874 H   0  0  0  0  0  0  0  0  0  0  0  0
   46.1401    6.2147   11.6244 H   0  0  0  0  0  0  0  0  0  0  0  0
   45.2004    4.1142   12.5158 H   0  0  0  0  0  0  0  0  0  0  0  0
   45.9712    3.2250   14.6955 H   0  0  0  0  0  0  0  0  0  0  0  0
   48.6450    6.5799   15.1067 H   0  0  0  0  0  0  0  0  0  0  0  0
   49.0005    4.4758   17.7222 H   0  0  0  0  0  0  0  0  0  0  0  0
   45.6055    9.7515   12.3126 H   0  0  0  0  0  0  0  0  0  0  0  0
   47.5800   11.9851   11.0720 H   0  0  0  0  0  0  0  0  0  0  0  0
   42.8893   11.2480   12.5312 H   0  0  0  0  0  0  0  0  0  0  0  0
   42.8292   10.5469   10.8926 H   0  0  0  0  0  0  0  0  0  0  0  0
   41.6789   11.8234   11.3592 H   0  0  0  0  0  0  0  0  0  0  0  0
   46.6952   15.8512    9.4633 H   0  0  0  0  0  0  0  0  0  0  0  0
   42.2776   17.8936    8.5432 H   0  0  0  0  0  0  0  0  0  0  0  0
   42.3854   15.6768    9.5474 H   0  0  0  0  0  0  0  0  0  0  0  0
   44.9530   19.6082    6.9145 H   0  0  0  0  0  0  0  0  0  0  0  0
   44.6059   20.2858    8.5317 H   0  0  0  0  0  0  0  0  0  0  0  0
   43.2897   19.7390    7.4781 H   0  0  0  0  0  0  0  0  0  0  0  0
   46.9696   19.2750    8.7852 H   0  0  0  0  0  0  0  0  0  0  0  0
   47.8235   17.7345    8.7703 H   0  0  0  0  0  0  0  0  0  0  0  0
   47.0875   18.3280    7.2744 H   0  0  0  0  0  0  0  0  0  0  0  0
   45.9876   12.7723   10.0808 H   0  0  0  0  0  0  0  0  0  0  0  0
   44.6257   11.9346   10.8671 H   0  0  0  0  0  0  0  0  0  0  0  0
   46.4776   10.3348   10.1613 H   0  0  0  0  0  0  0  0  0  0  0  0
   47.5957   11.2185   11.2228 H   0  0  0  0  0  0  0  0  0  0  0  0
   46.8655    9.4545   12.4489 H   0  0  0  0  0  0  0  0  0  0  0  0
   46.0559   10.7474   13.0251 H   0  0  0  0  0  0  0  0  0  0  0  0
   45.2406   13.7436   12.0381 H   0  0  0  0  0  0  0  0  0  0  0  0
  4  1  1  0
  1  2  1  0
  2  3  1  0
 10 20  1  0
  9 21  1  0
 12 13  2  0
 21 22  1  0
  8  9  2  0
 22 23  2  0
 23 24  1  0
 13 14  1  0
  6  7  2  0
 14 15  2  0
  9 10  1  0
 24 25  1  0
 25 26  1  0
 26 27  2  0
 27 23  1  0
 15 16  1  0
 27 28  1  0
 16 11  2  0
 24 29  2  0
  5 11  1  0
 25 30  1  0
 10  5  2  0
 30 31  2  0
 15 17  1  0
 31 32  1  0
  5  6  1  0
 32 33  2  0
  7  8  1  0
 33 34  1  0
 17 18  1  0
 34 35  2  0
 35 30  1  0
 17 19  2  0
 33 36  1  0
 11 12  1  0
 32 37  1  0
 41 38  1  0
 38 39  1  0
 39 40  1  0
  1 42  1  0
  1 43  1  0
  2 44  1  0
  2 45  1  0
  3 46  1  0
  3 47  1  0
  4 48  1  0
  6 49  1  0
  7 50  1  0
  8 51  1  0
 12 52  1  0
 13 53  1  0
 14 54  1  0
 16 55  1  0
 18 56  1  0
 20 57  1  0
 21 58  1  0
 28 59  1  0
 28 60  1  0
 28 61  1  0
 31 62  1  0
 34 63  1  0
 35 64  1  0
 36 65  1  0
 36 66  1  0
 36 67  1  0
 37 68  1  0
 37 69  1  0
 37 70  1  0
 38 71  1  0
 38 72  1  0
 39 73  1  0
 39 74  1  0
 40 75  1  0
 40 76  1  0
 41 77  1  0
M  END
> <Uni-Dock RESULT> 
ENERGY=   -4.335  LOWER_BOUND=    4.962  UPPER_BOUND=    7.808
INTER + INTRA:          -4.335
INTER:                  -4.335
INTRA:                   0.000
UNBOUND:                 0.000

$$$$
