
     RDKit          3D

 77 78  0  0  0  0  0  0  0  0999 V2000
   44.1572   10.1874   11.6353 C   0  0  0  0  0  0  0  0  0  0  0  0
   43.5030   11.5703   11.5696 C   0  0  0  0  0  0  0  0  0  0  0  0
   42.5175   11.6468   10.4829 N   0  0  0  0  0  0  0  0  0  0  0  0
   44.6301    9.8028   10.3465 O   0  0  0  0  0  0  0  0  0  0  0  0
   46.3779    7.6225   12.2571 C   0  0  0  0  0  0  0  0  0  0  0  0
   47.7088    8.0738   12.2693 C   0  0  0  0  0  0  0  0  0  0  0  0
   48.0127    9.4337   12.1806 C   0  0  0  0  0  0  0  0  0  0  0  0
   46.9886   10.3749   12.0680 C   0  0  0  0  0  0  0  0  0  0  0  0
   45.6475    9.9739   12.0250 C   0  0  0  0  0  0  0  0  0  0  0  0
   45.3662    8.5952   12.1421 C   0  0  0  0  0  0  0  0  0  0  0  0
   46.0877    6.1798   12.3698 C   0  0  0  0  0  0  0  0  0  0  0  0
   46.5777    5.4284   13.4526 C   0  0  0  0  0  0  0  0  0  0  0  0
   46.3117    4.0617   13.5647 C   0  0  0  0  0  0  0  0  0  0  0  0
   45.5471    3.4201   12.5924 C   0  0  0  0  0  0  0  0  0  0  0  0
   45.0477    4.1443   11.5048 C   0  0  0  0  0  0  0  0  0  0  0  0
   45.3210    5.5151   11.3967 C   0  0  0  0  0  0  0  0  0  0  0  0
   44.2349    3.4217   10.4973 C   0  0  0  0  0  0  0  0  0  0  0  0
   43.8432    4.2020    9.4748 O   0  0  0  0  0  0  0  0  0  0  0  0
   43.9308    2.2431   10.5404 O   0  0  0  0  0  0  0  0  0  0  0  0
   44.0509    8.1927   12.1705 O   0  0  0  0  0  0  0  0  0  0  0  0
   44.6432   10.9703   11.9500 N   0  0  0  0  0  0  0  0  0  0  0  0
   43.3518   10.6392   11.6748 N   0  0  0  0  0  0  0  0  0  0  0  0
   42.5757   11.6127   11.3085 C   0  0  0  0  0  0  0  0  0  0  0  0
   42.8658   13.0680   11.1088 C   0  0  0  0  0  0  0  0  0  0  0  0
   41.6194   13.5640   10.7411 N   0  0  0  0  0  0  0  0  0  0  0  0
   40.6033   12.5911   10.6750 N   0  0  0  0  0  0  0  0  0  0  0  0
   41.1346   11.4497   10.9962 C   0  0  0  0  0  0  0  0  0  0  0  0
   40.4594   10.1325   11.0633 C   0  0  0  0  0  0  0  0  0  0  0  0
   43.9700   13.5511   11.2565 O   0  0  0  0  0  0  0  0  0  0  0  0
   41.2817   14.9056   10.4300 C   0  0  0  0  0  0  0  0  0  0  0  0
   42.2301   15.9364   10.4684 C   0  0  0  0  0  0  0  0  0  0  0  0
   41.8866   17.2701   10.1682 C   0  0  0  0  0  0  0  0  0  0  0  0
   40.5650   17.5789    9.7991 C   0  0  0  0  0  0  0  0  0  0  0  0
   39.6131   16.5530    9.7654 C   0  0  0  0  0  0  0  0  0  0  0  0
   39.9681   15.2368   10.0743 C   0  0  0  0  0  0  0  0  0  0  0  0
   40.1419   18.9850    9.4749 C   0  0  0  0  0  0  0  0  0  0  0  0
   42.9523   18.3317   10.2258 C   0  0  0  0  0  0  0  0  0  0  0  0
   43.4155   11.8504   11.0755 C   0  0  0  0  0  0  0  0  0  0  0  0
   44.0750   10.6883   11.8262 C   0  0  0  0  0  0  0  0  0  0  0  0
   44.1975    9.4948   10.9811 N   0  0  0  0  0  0  0  0  0  0  0  0
   42.1512   11.4368   10.5601 O   0  0  0  0  0  0  0  0  0  0  0  0
   43.4447    9.4300   11.9786 H   0  0  0  0  0  0  0  0  0  0  0  0
   45.0059   10.1993   12.3250 H   0  0  0  0  0  0  0  0  0  0  0  0
   43.0199   11.7934   12.5264 H   0  0  0  0  0  0  0  0  0  0  0  0
   44.2676   12.3345   11.3911 H   0  0  0  0  0  0  0  0  0  0  0  0
   43.0250   11.7316    9.6004 H   0  0  0  0  0  0  0  0  0  0  0  0
   42.0047   12.5247   10.5725 H   0  0  0  0  0  0  0  0  0  0  0  0
   43.8277    9.7675    9.7933 H   0  0  0  0  0  0  0  0  0  0  0  0
   48.5255    7.3581   12.3471 H   0  0  0  0  0  0  0  0  0  0  0  0
   49.0496    9.7588   12.2017 H   0  0  0  0  0  0  0  0  0  0  0  0
   47.2500   11.4288   12.0124 H   0  0  0  0  0  0  0  0  0  0  0  0
   47.1627    5.9155   14.2311 H   0  0  0  0  0  0  0  0  0  0  0  0
   46.6945    3.5013   14.4137 H   0  0  0  0  0  0  0  0  0  0  0  0
   45.3375    2.3568   12.6876 H   0  0  0  0  0  0  0  0  0  0  0  0
   44.9285    6.0815   10.5544 H   0  0  0  0  0  0  0  0  0  0  0  0
   43.3254    3.5963    8.9049 H   0  0  0  0  0  0  0  0  0  0  0  0
   43.5644    9.0425   12.0980 H   0  0  0  0  0  0  0  0  0  0  0  0
   44.9990   11.9058   11.7097 H   0  0  0  0  0  0  0  0  0  0  0  0
   40.5403    9.7286   12.0757 H   0  0  0  0  0  0  0  0  0  0  0  0
   39.4023   10.2390   10.8058 H   0  0  0  0  0  0  0  0  0  0  0  0
   40.9307    9.4416   10.3592 H   0  0  0  0  0  0  0  0  0  0  0  0
   43.2622   15.7267   10.7341 H   0  0  0  0  0  0  0  0  0  0  0  0
   38.5809   16.7672    9.4975 H   0  0  0  0  0  0  0  0  0  0  0  0
   39.1950   14.4727   10.0307 H   0  0  0  0  0  0  0  0  0  0  0  0
   40.8273   19.4398    8.7516 H   0  0  0  0  0  0  0  0  0  0  0  0
   40.1210   19.5903   10.3870 H   0  0  0  0  0  0  0  0  0  0  0  0
   39.1414   19.0093    9.0289 H   0  0  0  0  0  0  0  0  0  0  0  0
   43.1852   18.6862    9.2170 H   0  0  0  0  0  0  0  0  0  0  0  0
   42.6218   19.1741   10.8418 H   0  0  0  0  0  0  0  0  0  0  0  0
   43.8774   17.9505   10.6716 H   0  0  0  0  0  0  0  0  0  0  0  0
   43.2575   12.6951   11.7528 H   0  0  0  0  0  0  0  0  0  0  0  0
   44.0405   12.1772   10.2380 H   0  0  0  0  0  0  0  0  0  0  0  0
   45.0640   10.9865   12.1879 H   0  0  0  0  0  0  0  0  0  0  0  0
   43.4639   10.4208   12.6949 H   0  0  0  0  0  0  0  0  0  0  0  0
   44.7293    9.7313   10.1447 H   0  0  0  0  0  0  0  0  0  0  0  0
   43.2548    9.2938   10.6314 H   0  0  0  0  0  0  0  0  0  0  0  0
   41.7542   12.2129   10.1290 H   0  0  0  0  0  0  0  0  0  0  0  0
  4  1  1  0
  1  2  1  0
  2  3  1  0
 10 20  1  0
  9 21  1  0
 12 13  2  0
 21 22  1  0
  8  9  2  0
 22 23  2  0
 23 24  1  0
 13 14  1  0
  6  7  2  0
 14 15  2  0
  9 10  1  0
 24 25  1  0
 25 26  1  0
 26 27  2  0
 27 23  1  0
 15 16  1  0
 27 28  1  0
 16 11  2  0
 24 29  2  0
  5 11  1  0
 25 30  1  0
 10  5  2  0
 30 31  2  0
 15 17  1  0
 31 32  1  0
  5  6  1  0
 32 33  2  0
  7  8  1  0
 33 34  1  0
 17 18  1  0
 34 35  2  0
 35 30  1  0
 17 19  2  0
 33 36  1  0
 11 12  1  0
 32 37  1  0
 41 38  1  0
 38 39  1  0
 39 40  1  0
  1 42  1  0
  1 43  1  0
  2 44  1  0
  2 45  1  0
  3 46  1  0
  3 47  1  0
  4 48  1  0
  6 49  1  0
  7 50  1  0
  8 51  1  0
 12 52  1  0
 13 53  1  0
 14 54  1  0
 16 55  1  0
 18 56  1  0
 20 57  1  0
 21 58  1  0
 28 59  1  0
 28 60  1  0
 28 61  1  0
 31 62  1  0
 34 63  1  0
 35 64  1  0
 36 65  1  0
 36 66  1  0
 36 67  1  0
 37 68  1  0
 37 69  1  0
 37 70  1  0
 38 71  1  0
 38 72  1  0
 39 73  1  0
 39 74  1  0
 40 75  1  0
 40 76  1  0
 41 77  1  0
M  END
> <Uni-Dock RESULT> 
ENERGY=   -5.716  LOWER_BOUND=    0.000  UPPER_BOUND=    0.000
INTER + INTRA:          -5.716
INTER:                  -5.716
INTRA:                   0.000
UNBOUND:                 0.000

$$$$

     RDKit          3D

 77 78  0  0  0  0  0  0  0  0999 V2000
   48.7752    6.7724   15.3902 C   0  0  0  0  0  0  0  0  0  0  0  0
   48.0236    7.5315   14.2932 C   0  0  0  0  0  0  0  0  0  0  0  0
   47.9997    8.9760   14.5599 N   0  0  0  0  0  0  0  0  0  0  0  0
   48.2905    7.1536   16.6757 O   0  0  0  0  0  0  0  0  0  0  0  0
   49.8777    4.2812   17.5057 C   0  0  0  0  0  0  0  0  0  0  0  0
   48.8779    3.3254   17.7546 C   0  0  0  0  0  0  0  0  0  0  0  0
   47.6574    3.3615   17.0775 C   0  0  0  0  0  0  0  0  0  0  0  0
   47.4054    4.3639   16.1399 C   0  0  0  0  0  0  0  0  0  0  0  0
   48.3592    5.3547   15.8753 C   0  0  0  0  0  0  0  0  0  0  0  0
   49.5946    5.2804   16.5547 C   0  0  0  0  0  0  0  0  0  0  0  0
   51.1643    4.2065   18.2248 C   0  0  0  0  0  0  0  0  0  0  0  0
   51.9454    3.0379   18.1853 C   0  0  0  0  0  0  0  0  0  0  0  0
   53.1621    2.9571   18.8668 C   0  0  0  0  0  0  0  0  0  0  0  0
   53.6213    4.0481   19.6017 C   0  0  0  0  0  0  0  0  0  0  0  0
   52.8635    5.2226   19.6579 C   0  0  0  0  0  0  0  0  0  0  0  0
   51.6418    5.2960   18.9742 C   0  0  0  0  0  0  0  0  0  0  0  0
   53.3934    6.3598   20.4477 C   0  0  0  0  0  0  0  0  0  0  0  0
   52.5668    7.4201   20.4692 O   0  0  0  0  0  0  0  0  0  0  0  0
   54.4574    6.3807   21.0401 O   0  0  0  0  0  0  0  0  0  0  0  0
   50.5667    6.2067   16.2546 O   0  0  0  0  0  0  0  0  0  0  0  0
   48.0712    6.3271   14.8860 N   0  0  0  0  0  0  0  0  0  0  0  0
   48.8497    7.4355   14.7506 N   0  0  0  0  0  0  0  0  0  0  0  0
   48.3433    8.4112   14.0608 C   0  0  0  0  0  0  0  0  0  0  0  0
   47.0106    8.5422   13.3911 C   0  0  0  0  0  0  0  0  0  0  0  0
   47.1000    9.8039   12.8123 N   0  0  0  0  0  0  0  0  0  0  0  0
   48.3163   10.4704   13.0568 N   0  0  0  0  0  0  0  0  0  0  0  0
   49.0531    9.6839   13.7827 C   0  0  0  0  0  0  0  0  0  0  0  0
   50.4170    9.9522   14.2958 C   0  0  0  0  0  0  0  0  0  0  0  0
   46.1564    7.6805   13.4381 O   0  0  0  0  0  0  0  0  0  0  0  0
   46.1192   10.4672   12.0321 C   0  0  0  0  0  0  0  0  0  0  0  0
   44.8811    9.8789   11.7417 C   0  0  0  0  0  0  0  0  0  0  0  0
   43.9138   10.5387   10.9569 C   0  0  0  0  0  0  0  0  0  0  0  0
   44.1822   11.8295   10.4668 C   0  0  0  0  0  0  0  0  0  0  0  0
   45.4203   12.4182   10.7495 C   0  0  0  0  0  0  0  0  0  0  0  0
   46.3724   11.7470   11.5222 C   0  0  0  0  0  0  0  0  0  0  0  0
   43.1894   12.5766    9.6197 C   0  0  0  0  0  0  0  0  0  0  0  0
   42.6019    9.8535   10.6822 C   0  0  0  0  0  0  0  0  0  0  0  0
   47.6471    7.9508   14.4063 C   0  0  0  0  0  0  0  0  0  0  0  0
   48.5161    6.7950   14.9144 C   0  0  0  0  0  0  0  0  0  0  0  0
   49.0061    7.0408   16.2757 N   0  0  0  0  0  0  0  0  0  0  0  0
   48.3738    9.1754   14.4924 O   0  0  0  0  0  0  0  0  0  0  0  0
   49.8487    6.9850   15.3523 H   0  0  0  0  0  0  0  0  0  0  0  0
   48.6334    5.6943   15.2737 H   0  0  0  0  0  0  0  0  0  0  0  0
   48.4964    7.3399   13.3246 H   0  0  0  0  0  0  0  0  0  0  0  0
   46.9882    7.1775   14.2395 H   0  0  0  0  0  0  0  0  0  0  0  0
   47.3122    9.1511   15.2950 H   0  0  0  0  0  0  0  0  0  0  0  0
   47.6262    9.4507   13.7372 H   0  0  0  0  0  0  0  0  0  0  0  0
   48.4844    8.1075   16.7359 H   0  0  0  0  0  0  0  0  0  0  0  0
   49.0473    2.5390   18.4883 H   0  0  0  0  0  0  0  0  0  0  0  0
   46.9034    2.6055   17.2806 H   0  0  0  0  0  0  0  0  0  0  0  0
   46.4521    4.3640   15.6170 H   0  0  0  0  0  0  0  0  0  0  0  0
   51.6115    2.1810   17.6026 H   0  0  0  0  0  0  0  0  0  0  0  0
   53.7534    2.0464   18.8170 H   0  0  0  0  0  0  0  0  0  0  0  0
   54.5726    3.9823   20.1255 H   0  0  0  0  0  0  0  0  0  0  0  0
   51.0535    6.2109   19.0118 H   0  0  0  0  0  0  0  0  0  0  0  0
   53.0449    8.0768   21.0167 H   0  0  0  0  0  0  0  0  0  0  0  0
   50.1334    6.7580   15.5672 H   0  0  0  0  0  0  0  0  0  0  0  0
   47.0833    6.3514   14.5982 H   0  0  0  0  0  0  0  0  0  0  0  0
   51.1084    9.1954   13.9164 H   0  0  0  0  0  0  0  0  0  0  0  0
   50.7541   10.9389   13.9676 H   0  0  0  0  0  0  0  0  0  0  0  0
   50.4110    9.9219   15.3886 H   0  0  0  0  0  0  0  0  0  0  0  0
   44.6381    8.8900   12.1195 H   0  0  0  0  0  0  0  0  0  0  0  0
   45.6590   13.4094   10.3703 H   0  0  0  0  0  0  0  0  0  0  0  0
   47.3186   12.2462   11.7189 H   0  0  0  0  0  0  0  0  0  0  0  0
   42.1995   12.5742   10.0883 H   0  0  0  0  0  0  0  0  0  0  0  0
   43.1234   12.1188    8.6272 H   0  0  0  0  0  0  0  0  0  0  0  0
   43.4816   13.6247    9.4908 H   0  0  0  0  0  0  0  0  0  0  0  0
   41.7933   10.3601   11.2182 H   0  0  0  0  0  0  0  0  0  0  0  0
   42.3857    9.8548    9.6091 H   0  0  0  0  0  0  0  0  0  0  0  0
   42.6180    8.8072   11.0059 H   0  0  0  0  0  0  0  0  0  0  0  0
   47.3691    7.7821   13.3616 H   0  0  0  0  0  0  0  0  0  0  0  0
   46.7363    8.0458   15.0066 H   0  0  0  0  0  0  0  0  0  0  0  0
   47.9495    5.8590   14.8903 H   0  0  0  0  0  0  0  0  0  0  0  0
   49.3880    6.6792   14.2617 H   0  0  0  0  0  0  0  0  0  0  0  0
   48.2107    7.1923   16.8944 H   0  0  0  0  0  0  0  0  0  0  0  0
   49.4809    7.9491   16.2492 H   0  0  0  0  0  0  0  0  0  0  0  0
   47.8013    9.8702   14.1246 H   0  0  0  0  0  0  0  0  0  0  0  0
  4  1  1  0
  1  2  1  0
  2  3  1  0
 10 20  1  0
  9 21  1  0
 12 13  2  0
 21 22  1  0
  8  9  2  0
 22 23  2  0
 23 24  1  0
 13 14  1  0
  6  7  2  0
 14 15  2  0
  9 10  1  0
 24 25  1  0
 25 26  1  0
 26 27  2  0
 27 23  1  0
 15 16  1  0
 27 28  1  0
 16 11  2  0
 24 29  2  0
  5 11  1  0
 25 30  1  0
 10  5  2  0
 30 31  2  0
 15 17  1  0
 31 32  1  0
  5  6  1  0
 32 33  2  0
  7  8  1  0
 33 34  1  0
 17 18  1  0
 34 35  2  0
 35 30  1  0
 17 19  2  0
 33 36  1  0
 11 12  1  0
 32 37  1  0
 41 38  1  0
 38 39  1  0
 39 40  1  0
  1 42  1  0
  1 43  1  0
  2 44  1  0
  2 45  1  0
  3 46  1  0
  3 47  1  0
  4 48  1  0
  6 49  1  0
  7 50  1  0
  8 51  1  0
 12 52  1  0
 13 53  1  0
 14 54  1  0
 16 55  1  0
 18 56  1  0
 20 57  1  0
 21 58  1  0
 28 59  1  0
 28 60  1  0
 28 61  1  0
 31 62  1  0
 34 63  1  0
 35 64  1  0
 36 65  1  0
 36 66  1  0
 36 67  1  0
 37 68  1  0
 37 69  1  0
 37 70  1  0
 38 71  1  0
 38 72  1  0
 39 73  1  0
 39 74  1  0
 40 75  1  0
 40 76  1  0
 41 77  1  0
M  END
> <Uni-Dock RESULT> 
ENERGY=   -5.684  LOWER_BOUND=    5.640  UPPER_BOUND=    8.422
INTER + INTRA:          -5.684
INTER:                  -5.684
INTRA:                   0.000
UNBOUND:                 0.000

$$$$

     RDKit          3D

 77 78  0  0  0  0  0  0  0  0999 V2000
   48.8180   10.1298   15.2005 C   0  0  0  0  0  0  0  0  0  0  0  0
   48.3377    9.4961   16.5091 C   0  0  0  0  0  0  0  0  0  0  0  0
   48.8255   10.2416   17.6772 N   0  0  0  0  0  0  0  0  0  0  0  0
   50.2256   10.3513   15.2462 O   0  0  0  0  0  0  0  0  0  0  0  0
   49.7302   10.5896   11.9061 C   0  0  0  0  0  0  0  0  0  0  0  0
   50.2465    9.4130   11.3368 C   0  0  0  0  0  0  0  0  0  0  0  0
   50.2261    8.2028   12.0328 C   0  0  0  0  0  0  0  0  0  0  0  0
   49.6953    8.1446   13.3221 C   0  0  0  0  0  0  0  0  0  0  0  0
   49.1925    9.2946   13.9433 C   0  0  0  0  0  0  0  0  0  0  0  0
   49.2016   10.5001   13.2082 C   0  0  0  0  0  0  0  0  0  0  0  0
   49.7502   11.8502   11.1388 C   0  0  0  0  0  0  0  0  0  0  0  0
   49.1577   11.9288    9.8660 C   0  0  0  0  0  0  0  0  0  0  0  0
   49.1761   13.1165    9.1310 C   0  0  0  0  0  0  0  0  0  0  0  0
   49.7890   14.2512    9.6585 C   0  0  0  0  0  0  0  0  0  0  0  0
   50.3862   14.2001   10.9224 C   0  0  0  0  0  0  0  0  0  0  0  0
   50.3669   13.0040   11.6535 C   0  0  0  0  0  0  0  0  0  0  0  0
   51.0221   15.4327   11.4460 C   0  0  0  0  0  0  0  0  0  0  0  0
   51.6015   15.2603   12.6469 O   0  0  0  0  0  0  0  0  0  0  0  0
   51.0507   16.5129   10.8839 O   0  0  0  0  0  0  0  0  0  0  0  0
   48.6485   11.6227   13.7796 O   0  0  0  0  0  0  0  0  0  0  0  0
   48.6282    9.1754   15.2374 N   0  0  0  0  0  0  0  0  0  0  0  0
   48.3387   10.2814   15.9762 N   0  0  0  0  0  0  0  0  0  0  0  0
   48.1368   10.0879   17.2434 C   0  0  0  0  0  0  0  0  0  0  0  0
   48.1905    8.8329   18.0583 C   0  0  0  0  0  0  0  0  0  0  0  0
   47.8587    9.2968   19.3269 N   0  0  0  0  0  0  0  0  0  0  0  0
   47.6232   10.6836   19.3953 N   0  0  0  0  0  0  0  0  0  0  0  0
   47.7823   11.1657   18.1993 C   0  0  0  0  0  0  0  0  0  0  0  0
   47.6453   12.5789   17.7756 C   0  0  0  0  0  0  0  0  0  0  0  0
   48.4797    7.7500   17.5912 O   0  0  0  0  0  0  0  0  0  0  0  0
   47.7439    8.5396   20.5203 C   0  0  0  0  0  0  0  0  0  0  0  0
   47.9627    7.1557   20.5437 C   0  0  0  0  0  0  0  0  0  0  0  0
   47.8372    6.4063   21.7309 C   0  0  0  0  0  0  0  0  0  0  0  0
   47.5049    7.0600   22.9311 C   0  0  0  0  0  0  0  0  0  0  0  0
   47.2795    8.4415   22.9108 C   0  0  0  0  0  0  0  0  0  0  0  0
   47.3996    9.1690   21.7233 C   0  0  0  0  0  0  0  0  0  0  0  0
   47.3515    6.3092   24.2250 C   0  0  0  0  0  0  0  0  0  0  0  0
   48.0872    4.9224   21.6903 C   0  0  0  0  0  0  0  0  0  0  0  0
   48.6809    9.4231   16.9643 C   0  0  0  0  0  0  0  0  0  0  0  0
   48.5269    9.7664   15.4785 C   0  0  0  0  0  0  0  0  0  0  0  0
   49.5280   10.7458   15.0402 N   0  0  0  0  0  0  0  0  0  0  0  0
   48.6279   10.6167   17.7438 O   0  0  0  0  0  0  0  0  0  0  0  0
   48.3256   11.0919   15.0243 H   0  0  0  0  0  0  0  0  0  0  0  0
   48.5995    9.4713   14.3551 H   0  0  0  0  0  0  0  0  0  0  0  0
   47.2436    9.4615   16.5201 H   0  0  0  0  0  0  0  0  0  0  0  0
   48.7088    8.4677   16.5816 H   0  0  0  0  0  0  0  0  0  0  0  0
   49.8125   10.0134   17.8091 H   0  0  0  0  0  0  0  0  0  0  0  0
   48.3616    9.8773   18.5102 H   0  0  0  0  0  0  0  0  0  0  0  0
   50.3500   10.9751   15.9856 H   0  0  0  0  0  0  0  0  0  0  0  0
   50.6743    9.4350   10.3358 H   0  0  0  0  0  0  0  0  0  0  0  0
   50.6228    7.3043   11.5675 H   0  0  0  0  0  0  0  0  0  0  0  0
   49.6798    7.1883   13.8391 H   0  0  0  0  0  0  0  0  0  0  0  0
   48.6592   11.0575    9.4443 H   0  0  0  0  0  0  0  0  0  0  0  0
   48.7059   13.1571    8.1519 H   0  0  0  0  0  0  0  0  0  0  0  0
   49.7952   15.1755    9.0847 H   0  0  0  0  0  0  0  0  0  0  0  0
   50.8259   12.9637   12.6395 H   0  0  0  0  0  0  0  0  0  0  0  0
   51.9690   16.1438   12.8570 H   0  0  0  0  0  0  0  0  0  0  0  0
   48.3430   11.2916   14.6521 H   0  0  0  0  0  0  0  0  0  0  0  0
   48.8376    8.2824   15.7045 H   0  0  0  0  0  0  0  0  0  0  0  0
   46.8679   12.6604   17.0116 H   0  0  0  0  0  0  0  0  0  0  0  0
   47.3710   13.2023   18.6306 H   0  0  0  0  0  0  0  0  0  0  0  0
   48.5947   12.9333   17.3652 H   0  0  0  0  0  0  0  0  0  0  0  0
   48.2364    6.6252   19.6363 H   0  0  0  0  0  0  0  0  0  0  0  0
   47.0068    8.9691   23.8221 H   0  0  0  0  0  0  0  0  0  0  0  0
   47.2188   10.2411   21.7574 H   0  0  0  0  0  0  0  0  0  0  0  0
   48.2160    5.6606   24.4024 H   0  0  0  0  0  0  0  0  0  0  0  0
   46.4402    5.7028   24.2012 H   0  0  0  0  0  0  0  0  0  0  0  0
   47.2818    6.9926   25.0786 H   0  0  0  0  0  0  0  0  0  0  0  0
   49.0128    4.6821   22.2225 H   0  0  0  0  0  0  0  0  0  0  0  0
   47.2525    4.3801   22.1459 H   0  0  0  0  0  0  0  0  0  0  0  0
   48.1847    4.5580   20.6620 H   0  0  0  0  0  0  0  0  0  0  0  0
   47.8708    8.7607   17.2838 H   0  0  0  0  0  0  0  0  0  0  0  0
   49.6400    8.9294   17.1522 H   0  0  0  0  0  0  0  0  0  0  0  0
   48.6090    8.8592   14.8719 H   0  0  0  0  0  0  0  0  0  0  0  0
   47.5366   10.2008   15.3048 H   0  0  0  0  0  0  0  0  0  0  0  0
   50.4595   10.3789   15.2304 H   0  0  0  0  0  0  0  0  0  0  0  0
   49.4396   11.5480   15.6727 H   0  0  0  0  0  0  0  0  0  0  0  0
   48.6892   10.3482   18.6764 H   0  0  0  0  0  0  0  0  0  0  0  0
  4  1  1  0
  1  2  1  0
  2  3  1  0
 10 20  1  0
  9 21  1  0
 12 13  2  0
 21 22  1  0
  8  9  2  0
 22 23  2  0
 23 24  1  0
 13 14  1  0
  6  7  2  0
 14 15  2  0
  9 10  1  0
 24 25  1  0
 25 26  1  0
 26 27  2  0
 27 23  1  0
 15 16  1  0
 27 28  1  0
 16 11  2  0
 24 29  2  0
  5 11  1  0
 25 30  1  0
 10  5  2  0
 30 31  2  0
 15 17  1  0
 31 32  1  0
  5  6  1  0
 32 33  2  0
  7  8  1  0
 33 34  1  0
 17 18  1  0
 34 35  2  0
 35 30  1  0
 17 19  2  0
 33 36  1  0
 11 12  1  0
 32 37  1  0
 41 38  1  0
 38 39  1  0
 39 40  1  0
  1 42  1  0
  1 43  1  0
  2 44  1  0
  2 45  1  0
  3 46  1  0
  3 47  1  0
  4 48  1  0
  6 49  1  0
  7 50  1  0
  8 51  1  0
 12 52  1  0
 13 53  1  0
 14 54  1  0
 16 55  1  0
 18 56  1  0
 20 57  1  0
 21 58  1  0
 28 59  1  0
 28 60  1  0
 28 61  1  0
 31 62  1  0
 34 63  1  0
 35 64  1  0
 36 65  1  0
 36 66  1  0
 36 67  1  0
 37 68  1  0
 37 69  1  0
 37 70  1  0
 38 71  1  0
 38 72  1  0
 39 73  1  0
 39 74  1  0
 40 75  1  0
 40 76  1  0
 41 77  1  0
M  END
> <Uni-Dock RESULT> 
ENERGY=   -5.183  LOWER_BOUND=    7.019  UPPER_BOUND=   10.942
INTER + INTRA:          -5.183
INTER:                  -5.183
INTRA:                   0.000
UNBOUND:                 0.000

$$$$

     RDKit          3D

 77 78  0  0  0  0  0  0  0  0999 V2000
   46.8163    8.8136   13.2009 C   0  0  0  0  0  0  0  0  0  0  0  0
   47.8772    8.4563   14.2456 C   0  0  0  0  0  0  0  0  0  0  0  0
   49.1927    9.0001   13.8825 N   0  0  0  0  0  0  0  0  0  0  0  0
   47.2796    8.4842   11.8934 O   0  0  0  0  0  0  0  0  0  0  0  0
   43.9680    8.7769   11.2559 C   0  0  0  0  0  0  0  0  0  0  0  0
   43.4757    7.4734   11.0733 C   0  0  0  0  0  0  0  0  0  0  0  0
   44.0357    6.3870   11.7482 C   0  0  0  0  0  0  0  0  0  0  0  0
   45.1108    6.5800   12.6168 C   0  0  0  0  0  0  0  0  0  0  0  0
   45.6544    7.8557   12.8128 C   0  0  0  0  0  0  0  0  0  0  0  0
   45.0534    8.9406   12.1380 C   0  0  0  0  0  0  0  0  0  0  0  0
   43.3439    9.9076   10.5415 C   0  0  0  0  0  0  0  0  0  0  0  0
   41.9658   10.1614   10.6583 C   0  0  0  0  0  0  0  0  0  0  0  0
   41.3661   11.2265    9.9820 C   0  0  0  0  0  0  0  0  0  0  0  0
   42.1373   12.0601    9.1747 C   0  0  0  0  0  0  0  0  0  0  0  0
   43.5105   11.8294    9.0409 C   0  0  0  0  0  0  0  0  0  0  0  0
   44.1055   10.7569    9.7199 C   0  0  0  0  0  0  0  0  0  0  0  0
   44.2925   12.7447    8.1757 C   0  0  0  0  0  0  0  0  0  0  0  0
   45.5906   12.4066    8.0842 O   0  0  0  0  0  0  0  0  0  0  0  0
   43.8521   13.7125    7.5816 O   0  0  0  0  0  0  0  0  0  0  0  0
   45.5329   10.2084   12.3738 O   0  0  0  0  0  0  0  0  0  0  0  0
   46.7195    8.0052   13.7350 N   0  0  0  0  0  0  0  0  0  0  0  0
   47.4327    9.1631   13.7944 N   0  0  0  0  0  0  0  0  0  0  0  0
   48.5694    9.1051   14.4178 C   0  0  0  0  0  0  0  0  0  0  0  0
   49.2605    7.9533   15.0793 C   0  0  0  0  0  0  0  0  0  0  0  0
   50.4152    8.5523   15.5718 N   0  0  0  0  0  0  0  0  0  0  0  0
   50.5264    9.9259   15.2813 N   0  0  0  0  0  0  0  0  0  0  0  0
   49.4690   10.2693   14.6088 C   0  0  0  0  0  0  0  0  0  0  0  0
   49.1407   11.6126   14.0768 C   0  0  0  0  0  0  0  0  0  0  0  0
   48.8086    6.8263   15.0915 O   0  0  0  0  0  0  0  0  0  0  0  0
   51.4602    7.9377   16.3072 C   0  0  0  0  0  0  0  0  0  0  0  0
   51.4321    6.5765   16.6383 C   0  0  0  0  0  0  0  0  0  0  0  0
   52.4688    5.9729   17.3784 C   0  0  0  0  0  0  0  0  0  0  0  0
   53.5735    6.7452   17.7804 C   0  0  0  0  0  0  0  0  0  0  0  0
   53.6026    8.1069   17.4568 C   0  0  0  0  0  0  0  0  0  0  0  0
   52.5622    8.6922   16.7296 C   0  0  0  0  0  0  0  0  0  0  0  0
   54.7041    6.1547   18.5769 C   0  0  0  0  0  0  0  0  0  0  0  0
   52.3803    4.5051   17.7006 C   0  0  0  0  0  0  0  0  0  0  0  0
   48.4038    8.2740   14.1052 C   0  0  0  0  0  0  0  0  0  0  0  0
   46.9691    8.5983   13.6746 C   0  0  0  0  0  0  0  0  0  0  0  0
   46.9161    9.1071   12.2991 N   0  0  0  0  0  0  0  0  0  0  0  0
   49.2305    9.4243   13.9358 O   0  0  0  0  0  0  0  0  0  0  0  0
   46.5861    9.8840   13.2229 H   0  0  0  0  0  0  0  0  0  0  0  0
   45.8929    8.2589   13.3898 H   0  0  0  0  0  0  0  0  0  0  0  0
   47.5727    8.8412   15.2242 H   0  0  0  0  0  0  0  0  0  0  0  0
   47.9684    7.3673   14.3245 H   0  0  0  0  0  0  0  0  0  0  0  0
   49.5816    8.4181   13.1383 H   0  0  0  0  0  0  0  0  0  0  0  0
   49.8261    8.8690   14.6720 H   0  0  0  0  0  0  0  0  0  0  0  0
   48.0721    9.0389   11.7690 H   0  0  0  0  0  0  0  0  0  0  0  0
   42.6436    7.2961   10.3938 H   0  0  0  0  0  0  0  0  0  0  0  0
   43.6312    5.3895   11.5976 H   0  0  0  0  0  0  0  0  0  0  0  0
   45.5220    5.7201   13.1399 H   0  0  0  0  0  0  0  0  0  0  0  0
   41.3497    9.5314   11.2978 H   0  0  0  0  0  0  0  0  0  0  0  0
   40.3002   11.4089   10.0919 H   0  0  0  0  0  0  0  0  0  0  0  0
   41.6666   12.8920    8.6551 H   0  0  0  0  0  0  0  0  0  0  0  0
   45.1747   10.5793    9.6218 H   0  0  0  0  0  0  0  0  0  0  0  0
   45.9681   13.0904    7.4931 H   0  0  0  0  0  0  0  0  0  0  0  0
   46.2519   10.0490   13.0232 H   0  0  0  0  0  0  0  0  0  0  0  0
   47.1524    7.1166   14.0219 H   0  0  0  0  0  0  0  0  0  0  0  0
   48.1960   11.9572   14.5051 H   0  0  0  0  0  0  0  0  0  0  0  0
   49.9298   12.3228   14.3374 H   0  0  0  0  0  0  0  0  0  0  0  0
   49.0486   11.5644   12.9885 H   0  0  0  0  0  0  0  0  0  0  0  0
   50.6004    5.9505   16.3282 H   0  0  0  0  0  0  0  0  0  0  0  0
   54.4381    8.7299   17.7682 H   0  0  0  0  0  0  0  0  0  0  0  0
   52.6307    9.7529   16.4984 H   0  0  0  0  0  0  0  0  0  0  0  0
   55.0672    5.2325   18.1109 H   0  0  0  0  0  0  0  0  0  0  0  0
   54.3718    5.9404   19.5979 H   0  0  0  0  0  0  0  0  0  0  0  0
   55.5551    6.8424   18.6346 H   0  0  0  0  0  0  0  0  0  0  0  0
   53.1330    3.9493   17.1330 H   0  0  0  0  0  0  0  0  0  0  0  0
   52.5329    4.3375   18.7715 H   0  0  0  0  0  0  0  0  0  0  0  0
   51.3964    4.0956   17.4478 H   0  0  0  0  0  0  0  0  0  0  0  0
   48.4238    7.9813   15.1593 H   0  0  0  0  0  0  0  0  0  0  0  0
   48.8166    7.4593   13.5012 H   0  0  0  0  0  0  0  0  0  0  0  0
   46.3392    7.7076   13.7623 H   0  0  0  0  0  0  0  0  0  0  0  0
   46.5560    9.3706   14.3323 H   0  0  0  0  0  0  0  0  0  0  0  0
   47.3335    8.4201   11.6728 H   0  0  0  0  0  0  0  0  0  0  0  0
   47.5603    9.9040   12.2637 H   0  0  0  0  0  0  0  0  0  0  0  0
   50.1167    9.1852   14.2570 H   0  0  0  0  0  0  0  0  0  0  0  0
  4  1  1  0
  1  2  1  0
  2  3  1  0
 10 20  1  0
  9 21  1  0
 12 13  2  0
 21 22  1  0
  8  9  2  0
 22 23  2  0
 23 24  1  0
 13 14  1  0
  6  7  2  0
 14 15  2  0
  9 10  1  0
 24 25  1  0
 25 26  1  0
 26 27  2  0
 27 23  1  0
 15 16  1  0
 27 28  1  0
 16 11  2  0
 24 29  2  0
  5 11  1  0
 25 30  1  0
 10  5  2  0
 30 31  2  0
 15 17  1  0
 31 32  1  0
  5  6  1  0
 32 33  2  0
  7  8  1  0
 33 34  1  0
 17 18  1  0
 34 35  2  0
 35 30  1  0
 17 19  2  0
 33 36  1  0
 11 12  1  0
 32 37  1  0
 41 38  1  0
 38 39  1  0
 39 40  1  0
  1 42  1  0
  1 43  1  0
  2 44  1  0
  2 45  1  0
  3 46  1  0
  3 47  1  0
  4 48  1  0
  6 49  1  0
  7 50  1  0
  8 51  1  0
 12 52  1  0
 13 53  1  0
 14 54  1  0
 16 55  1  0
 18 56  1  0
 20 57  1  0
 21 58  1  0
 28 59  1  0
 28 60  1  0
 28 61  1  0
 31 62  1  0
 34 63  1  0
 35 64  1  0
 36 65  1  0
 36 66  1  0
 36 67  1  0
 37 68  1  0
 37 69  1  0
 37 70  1  0
 38 71  1  0
 38 72  1  0
 39 73  1  0
 39 74  1  0
 40 75  1  0
 40 76  1  0
 41 77  1  0
M  END
> <Uni-Dock RESULT> 
ENERGY=   -5.099  LOWER_BOUND=    4.393  UPPER_BOUND=    9.996
INTER + INTRA:          -5.099
INTER:                  -5.099
INTRA:                   0.000
UNBOUND:                 0.000

$$$$

     RDKit          3D

 77 78  0  0  0  0  0  0  0  0999 V2000
   45.2126    9.9190   11.7504 C   0  0  0  0  0  0  0  0  0  0  0  0
   46.0441    8.8213   12.4199 C   0  0  0  0  0  0  0  0  0  0  0  0
   45.1920    7.8693   13.1449 N   0  0  0  0  0  0  0  0  0  0  0  0
   44.3064   10.4941   12.6888 O   0  0  0  0  0  0  0  0  0  0  0  0
   44.2469   12.8994   10.3077 C   0  0  0  0  0  0  0  0  0  0  0  0
   44.9773   13.9875   10.8152 C   0  0  0  0  0  0  0  0  0  0  0  0
   46.0506   13.7951   11.6872 C   0  0  0  0  0  0  0  0  0  0  0  0
   46.4124   12.5057   12.0796 C   0  0  0  0  0  0  0  0  0  0  0  0
   45.6996   11.3903   11.6224 C   0  0  0  0  0  0  0  0  0  0  0  0
   44.6349   11.6106   10.7217 C   0  0  0  0  0  0  0  0  0  0  0  0
   43.1281   13.1337    9.3739 C   0  0  0  0  0  0  0  0  0  0  0  0
   43.3217   13.8584    8.1846 C   0  0  0  0  0  0  0  0  0  0  0  0
   42.2674   14.0887    7.2975 C   0  0  0  0  0  0  0  0  0  0  0  0
   40.9964   13.5956    7.5851 C   0  0  0  0  0  0  0  0  0  0  0  0
   40.7766   12.8718    8.7618 C   0  0  0  0  0  0  0  0  0  0  0  0
   41.8383   12.6469    9.6492 C   0  0  0  0  0  0  0  0  0  0  0  0
   39.4094   12.3620    9.0243 C   0  0  0  0  0  0  0  0  0  0  0  0
   39.3009   11.7194   10.2003 O   0  0  0  0  0  0  0  0  0  0  0  0
   38.4481   12.4905    8.2876 O   0  0  0  0  0  0  0  0  0  0  0  0
   43.9697   10.5201   10.2107 O   0  0  0  0  0  0  0  0  0  0  0  0
   46.1311   10.1002   12.0182 N   0  0  0  0  0  0  0  0  0  0  0  0
   45.3512    9.0064   11.7983 N   0  0  0  0  0  0  0  0  0  0  0  0
   45.6612    7.9375   12.4657 C   0  0  0  0  0  0  0  0  0  0  0  0
   46.7390    7.6984   13.4771 C   0  0  0  0  0  0  0  0  0  0  0  0
   46.5498    6.3565   13.7904 N   0  0  0  0  0  0  0  0  0  0  0  0
   45.4795    5.7459   13.1084 N   0  0  0  0  0  0  0  0  0  0  0  0
   44.9455    6.6444   12.3365 C   0  0  0  0  0  0  0  0  0  0  0  0
   43.7866    6.4741   11.4291 C   0  0  0  0  0  0  0  0  0  0  0  0
   47.5078    8.5633   13.8450 O   0  0  0  0  0  0  0  0  0  0  0  0
   47.2976    5.5692   14.7023 C   0  0  0  0  0  0  0  0  0  0  0  0
   48.3769    6.0959   15.4243 C   0  0  0  0  0  0  0  0  0  0  0  0
   49.1233    5.3059   16.3219 C   0  0  0  0  0  0  0  0  0  0  0  0
   48.7689    3.9592   16.5193 C   0  0  0  0  0  0  0  0  0  0  0  0
   47.6952    3.4275   15.7954 C   0  0  0  0  0  0  0  0  0  0  0  0
   46.9704    4.2220   14.9025 C   0  0  0  0  0  0  0  0  0  0  0  0
   49.5341    3.0692   17.4594 C   0  0  0  0  0  0  0  0  0  0  0  0
   50.2705    5.9318   17.0690 C   0  0  0  0  0  0  0  0  0  0  0  0
   45.9466    8.6401   12.9564 C   0  0  0  0  0  0  0  0  0  0  0  0
   45.6823    9.6668   11.8497 C   0  0  0  0  0  0  0  0  0  0  0  0
   44.3159   10.1983   11.9161 N   0  0  0  0  0  0  0  0  0  0  0  0
   44.9722    7.6000   12.8931 O   0  0  0  0  0  0  0  0  0  0  0  0
   44.6305    9.5180   10.9139 H   0  0  0  0  0  0  0  0  0  0  0  0
   45.8630   10.7110   11.3687 H   0  0  0  0  0  0  0  0  0  0  0  0
   46.6316    8.2926   11.6624 H   0  0  0  0  0  0  0  0  0  0  0  0
   46.7416    9.2689   13.1365 H   0  0  0  0  0  0  0  0  0  0  0  0
   44.8895    8.3131   14.0140 H   0  0  0  0  0  0  0  0  0  0  0  0
   45.7683    7.0814   13.4431 H   0  0  0  0  0  0  0  0  0  0  0  0
   43.7303    9.7539   12.9560 H   0  0  0  0  0  0  0  0  0  0  0  0
   44.7083   15.0035   10.5309 H   0  0  0  0  0  0  0  0  0  0  0  0
   46.6061   14.6522   12.0588 H   0  0  0  0  0  0  0  0  0  0  0  0
   47.2592   12.3809   12.7501 H   0  0  0  0  0  0  0  0  0  0  0  0
   44.3113   14.2370    7.9342 H   0  0  0  0  0  0  0  0  0  0  0  0
   42.4408   14.6455    6.3802 H   0  0  0  0  0  0  0  0  0  0  0  0
   40.1801   13.7724    6.8880 H   0  0  0  0  0  0  0  0  0  0  0  0
   41.6706   12.0790   10.5624 H   0  0  0  0  0  0  0  0  0  0  0  0
   38.3608   11.4457   10.2301 H   0  0  0  0  0  0  0  0  0  0  0  0
   44.4380    9.7663   10.6311 H   0  0  0  0  0  0  0  0  0  0  0  0
   46.8072   10.1049   12.7942 H   0  0  0  0  0  0  0  0  0  0  0  0
   44.0882    6.6935   10.4017 H   0  0  0  0  0  0  0  0  0  0  0  0
   43.4178    5.4463   11.4801 H   0  0  0  0  0  0  0  0  0  0  0  0
   42.9851    7.1563   11.7248 H   0  0  0  0  0  0  0  0  0  0  0  0
   48.6645    7.1365   15.3055 H   0  0  0  0  0  0  0  0  0  0  0  0
   47.4096    2.3851   15.9184 H   0  0  0  0  0  0  0  0  0  0  0  0
   46.1418    3.7659   14.3654 H   0  0  0  0  0  0  0  0  0  0  0  0
   49.6570    3.5501   18.4358 H   0  0  0  0  0  0  0  0  0  0  0  0
   50.5191    2.8393   17.0402 H   0  0  0  0  0  0  0  0  0  0  0  0
   49.0093    2.1228   17.6310 H   0  0  0  0  0  0  0  0  0  0  0  0
   50.0226    6.0235   18.1310 H   0  0  0  0  0  0  0  0  0  0  0  0
   51.1767    5.3281   16.9562 H   0  0  0  0  0  0  0  0  0  0  0  0
   50.5012    6.9327   16.6885 H   0  0  0  0  0  0  0  0  0  0  0  0
   46.9392    8.1973   12.8303 H   0  0  0  0  0  0  0  0  0  0  0  0
   45.8885    9.1091   13.9442 H   0  0  0  0  0  0  0  0  0  0  0  0
   46.4011   10.4891   11.9193 H   0  0  0  0  0  0  0  0  0  0  0  0
   45.8078    9.1900   10.8716 H   0  0  0  0  0  0  0  0  0  0  0  0
   44.1630   10.6117   12.8348 H   0  0  0  0  0  0  0  0  0  0  0  0
   43.6915    9.3852   11.8989 H   0  0  0  0  0  0  0  0  0  0  0  0
   45.2018    6.9552   13.5840 H   0  0  0  0  0  0  0  0  0  0  0  0
  4  1  1  0
  1  2  1  0
  2  3  1  0
 10 20  1  0
  9 21  1  0
 12 13  2  0
 21 22  1  0
  8  9  2  0
 22 23  2  0
 23 24  1  0
 13 14  1  0
  6  7  2  0
 14 15  2  0
  9 10  1  0
 24 25  1  0
 25 26  1  0
 26 27  2  0
 27 23  1  0
 15 16  1  0
 27 28  1  0
 16 11  2  0
 24 29  2  0
  5 11  1  0
 25 30  1  0
 10  5  2  0
 30 31  2  0
 15 17  1  0
 31 32  1  0
  5  6  1  0
 32 33  2  0
  7  8  1  0
 33 34  1  0
 17 18  1  0
 34 35  2  0
 35 30  1  0
 17 19  2  0
 33 36  1  0
 11 12  1  0
 32 37  1  0
 41 38  1  0
 38 39  1  0
 39 40  1  0
  1 42  1  0
  1 43  1  0
  2 44  1  0
  2 45  1  0
  3 46  1  0
  3 47  1  0
  4 48  1  0
  6 49  1  0
  7 50  1  0
  8 51  1  0
 12 52  1  0
 13 53  1  0
 14 54  1  0
 16 55  1  0
 18 56  1  0
 20 57  1  0
 21 58  1  0
 28 59  1  0
 28 60  1  0
 28 61  1  0
 31 62  1  0
 34 63  1  0
 35 64  1  0
 36 65  1  0
 36 66  1  0
 36 67  1  0
 37 68  1  0
 37 69  1  0
 37 70  1  0
 38 71  1  0
 38 72  1  0
 39 73  1  0
 39 74  1  0
 40 75  1  0
 40 76  1  0
 41 77  1  0
M  END
> <Uni-Dock RESULT> 
ENERGY=   -5.033  LOWER_BOUND=    2.858  UPPER_BOUND=    9.267
INTER + INTRA:          -5.033
INTER:                  -5.033
INTRA:                   0.000
UNBOUND:                 0.000

$$$$

     RDKit          3D

 77 78  0  0  0  0  0  0  0  0999 V2000
   47.0155    9.3576   12.4885 C   0  0  0  0  0  0  0  0  0  0  0  0
   47.3783   10.8330   12.6789 C   0  0  0  0  0  0  0  0  0  0  0  0
   47.7308   11.4682   11.4020 N   0  0  0  0  0  0  0  0  0  0  0  0
   48.0233    8.6951   11.7284 O   0  0  0  0  0  0  0  0  0  0  0  0
   46.4694    6.0011   13.0650 C   0  0  0  0  0  0  0  0  0  0  0  0
   47.3237    5.4951   14.0596 C   0  0  0  0  0  0  0  0  0  0  0  0
   48.1647    6.3379   14.7887 C   0  0  0  0  0  0  0  0  0  0  0  0
   48.1767    7.7095   14.5315 C   0  0  0  0  0  0  0  0  0  0  0  0
   47.3634    8.2591   13.5328 C   0  0  0  0  0  0  0  0  0  0  0  0
   46.5038    7.3887   12.8277 C   0  0  0  0  0  0  0  0  0  0  0  0
   45.5792    5.0872   12.3230 C   0  0  0  0  0  0  0  0  0  0  0  0
   44.6750    4.2521   13.0027 C   0  0  0  0  0  0  0  0  0  0  0  0
   43.8321    3.3808   12.3085 C   0  0  0  0  0  0  0  0  0  0  0  0
   43.8784    3.3301   10.9169 C   0  0  0  0  0  0  0  0  0  0  0  0
   44.7691    4.1500   10.2162 C   0  0  0  0  0  0  0  0  0  0  0  0
   45.6144    5.0199   10.9191 C   0  0  0  0  0  0  0  0  0  0  0  0
   44.7804    4.0663    8.7360 C   0  0  0  0  0  0  0  0  0  0  0  0
   45.7018    4.8636    8.1677 O   0  0  0  0  0  0  0  0  0  0  0  0
   44.0562    3.3601    8.0575 O   0  0  0  0  0  0  0  0  0  0  0  0
   45.6497    7.9242   11.8914 O   0  0  0  0  0  0  0  0  0  0  0  0
   47.3828    9.6622   13.3374 N   0  0  0  0  0  0  0  0  0  0  0  0
   46.7976   10.2218   12.2431 N   0  0  0  0  0  0  0  0  0  0  0  0
   47.1340   11.4464   11.9761 C   0  0  0  0  0  0  0  0  0  0  0  0
   48.0942   12.3656   12.6651 C   0  0  0  0  0  0  0  0  0  0  0  0
   47.9802   13.5256   11.9060 N   0  0  0  0  0  0  0  0  0  0  0  0
   47.0808   13.4276   10.8268 N   0  0  0  0  0  0  0  0  0  0  0  0
   46.5798   12.2289   10.8440 C   0  0  0  0  0  0  0  0  0  0  0  0
   45.5914   11.6554    9.9007 C   0  0  0  0  0  0  0  0  0  0  0  0
   48.7512   12.0360   13.6316 O   0  0  0  0  0  0  0  0  0  0  0  0
   48.6611   14.7542   12.0994 C   0  0  0  0  0  0  0  0  0  0  0  0
   49.5743   14.9385   13.1462 C   0  0  0  0  0  0  0  0  0  0  0  0
   50.2407   16.1654   13.3399 C   0  0  0  0  0  0  0  0  0  0  0  0
   50.0045   17.2300   12.4516 C   0  0  0  0  0  0  0  0  0  0  0  0
   49.0884   17.0519   11.4082 C   0  0  0  0  0  0  0  0  0  0  0  0
   48.4292   15.8316   11.2349 C   0  0  0  0  0  0  0  0  0  0  0  0
   50.6828   18.5622   12.6147 C   0  0  0  0  0  0  0  0  0  0  0  0
   51.2117   16.2992   14.4825 C   0  0  0  0  0  0  0  0  0  0  0  0
   47.8290   11.0789   12.4208 C   0  0  0  0  0  0  0  0  0  0  0  0
   47.0645    9.8037   12.7930 C   0  0  0  0  0  0  0  0  0  0  0  0
   47.1998    8.7682   11.7619 N   0  0  0  0  0  0  0  0  0  0  0  0
   47.3967   11.5459   11.1440 O   0  0  0  0  0  0  0  0  0  0  0  0
   46.0624    9.2510   11.9599 H   0  0  0  0  0  0  0  0  0  0  0  0
   46.9295    8.8579   13.4575 H   0  0  0  0  0  0  0  0  0  0  0  0
   46.5364   11.3616   13.1375 H   0  0  0  0  0  0  0  0  0  0  0  0
   48.2385   10.9199   13.3519 H   0  0  0  0  0  0  0  0  0  0  0  0
   48.6717   11.1637   11.1458 H   0  0  0  0  0  0  0  0  0  0  0  0
   47.8161   12.4739   11.5537 H   0  0  0  0  0  0  0  0  0  0  0  0
   48.0205    9.1542   10.8679 H   0  0  0  0  0  0  0  0  0  0  0  0
   47.3390    4.4274   14.2722 H   0  0  0  0  0  0  0  0  0  0  0  0
   48.8095    5.9240   15.5595 H   0  0  0  0  0  0  0  0  0  0  0  0
   48.8317    8.3468   15.1207 H   0  0  0  0  0  0  0  0  0  0  0  0
   44.6122    4.2898   14.0890 H   0  0  0  0  0  0  0  0  0  0  0  0
   43.1356    2.7490   12.8536 H   0  0  0  0  0  0  0  0  0  0  0  0
   43.2155    2.6544   10.3806 H   0  0  0  0  0  0  0  0  0  0  0  0
   46.3040    5.6629   10.3755 H   0  0  0  0  0  0  0  0  0  0  0  0
   45.5889    4.7025    7.2081 H   0  0  0  0  0  0  0  0  0  0  0  0
   45.8548    8.8834   11.9370 H   0  0  0  0  0  0  0  0  0  0  0  0
   48.1661   10.1389   13.8049 H   0  0  0  0  0  0  0  0  0  0  0  0
   44.6976   11.3451   10.4479 H   0  0  0  0  0  0  0  0  0  0  0  0
   45.3100   12.4011    9.1526 H   0  0  0  0  0  0  0  0  0  0  0  0
   46.0257   10.7887    9.3954 H   0  0  0  0  0  0  0  0  0  0  0  0
   49.7899   14.1301   13.8388 H   0  0  0  0  0  0  0  0  0  0  0  0
   48.8765   17.8638   10.7159 H   0  0  0  0  0  0  0  0  0  0  0  0
   47.7291   15.7391   10.4075 H   0  0  0  0  0  0  0  0  0  0  0  0
   51.7639   18.4352   12.7362 H   0  0  0  0  0  0  0  0  0  0  0  0
   50.2774   19.0853   13.4870 H   0  0  0  0  0  0  0  0  0  0  0  0
   50.5307   19.1992   11.7364 H   0  0  0  0  0  0  0  0  0  0  0  0
   52.2347   16.3709   14.1004 H   0  0  0  0  0  0  0  0  0  0  0  0
   50.9816   17.1874   15.0795 H   0  0  0  0  0  0  0  0  0  0  0  0
   51.1625   15.4370   15.1562 H   0  0  0  0  0  0  0  0  0  0  0  0
   47.6397   11.8615   13.1617 H   0  0  0  0  0  0  0  0  0  0  0  0
   48.9059   10.8868   12.3726 H   0  0  0  0  0  0  0  0  0  0  0  0
   47.4217    9.4170   13.7525 H   0  0  0  0  0  0  0  0  0  0  0  0
   45.9988   10.0340   12.8970 H   0  0  0  0  0  0  0  0  0  0  0  0
   48.1884    8.5666   11.6191 H   0  0  0  0  0  0  0  0  0  0  0  0
   46.9012    9.2004   10.8814 H   0  0  0  0  0  0  0  0  0  0  0  0
   47.8768   12.3731   10.9682 H   0  0  0  0  0  0  0  0  0  0  0  0
  4  1  1  0
  1  2  1  0
  2  3  1  0
 10 20  1  0
  9 21  1  0
 12 13  2  0
 21 22  1  0
  8  9  2  0
 22 23  2  0
 23 24  1  0
 13 14  1  0
  6  7  2  0
 14 15  2  0
  9 10  1  0
 24 25  1  0
 25 26  1  0
 26 27  2  0
 27 23  1  0
 15 16  1  0
 27 28  1  0
 16 11  2  0
 24 29  2  0
  5 11  1  0
 25 30  1  0
 10  5  2  0
 30 31  2  0
 15 17  1  0
 31 32  1  0
  5  6  1  0
 32 33  2  0
  7  8  1  0
 33 34  1  0
 17 18  1  0
 34 35  2  0
 35 30  1  0
 17 19  2  0
 33 36  1  0
 11 12  1  0
 32 37  1  0
 41 38  1  0
 38 39  1  0
 39 40  1  0
  1 42  1  0
  1 43  1  0
  2 44  1  0
  2 45  1  0
  3 46  1  0
  3 47  1  0
  4 48  1  0
  6 49  1  0
  7 50  1  0
  8 51  1  0
 12 52  1  0
 13 53  1  0
 14 54  1  0
 16 55  1  0
 18 56  1  0
 20 57  1  0
 21 58  1  0
 28 59  1  0
 28 60  1  0
 28 61  1  0
 31 62  1  0
 34 63  1  0
 35 64  1  0
 36 65  1  0
 36 66  1  0
 36 67  1  0
 37 68  1  0
 37 69  1  0
 37 70  1  0
 38 71  1  0
 38 72  1  0
 39 73  1  0
 39 74  1  0
 40 75  1  0
 40 76  1  0
 41 77  1  0
M  END
> <Uni-Dock RESULT> 
ENERGY=   -5.000  LOWER_BOUND=    4.106  UPPER_BOUND=    5.325
INTER + INTRA:          -5.000
INTER:                  -5.000
INTRA:                   0.000
UNBOUND:                 0.000

$$$$

     RDKit          3D

 77 78  0  0  0  0  0  0  0  0999 V2000
   49.9684    8.6520   14.0255 C   0  0  0  0  0  0  0  0  0  0  0  0
   49.8739    9.7760   12.9900 C   0  0  0  0  0  0  0  0  0  0  0  0
   48.9451    9.4301   11.9056 N   0  0  0  0  0  0  0  0  0  0  0  0
   50.2124    7.4045   13.3799 O   0  0  0  0  0  0  0  0  0  0  0  0
   51.0979    6.5805   16.5414 C   0  0  0  0  0  0  0  0  0  0  0  0
   52.5005    6.4935   16.5578 C   0  0  0  0  0  0  0  0  0  0  0  0
   53.2849    7.2915   15.7228 C   0  0  0  0  0  0  0  0  0  0  0  0
   52.6810    8.1908   14.8430 C   0  0  0  0  0  0  0  0  0  0  0  0
   51.2864    8.2962   14.7702 C   0  0  0  0  0  0  0  0  0  0  0  0
   50.5172    7.4964   15.6432 C   0  0  0  0  0  0  0  0  0  0  0  0
   50.2963    5.7360   17.4484 C   0  0  0  0  0  0  0  0  0  0  0  0
   50.5143    5.7610   18.8373 C   0  0  0  0  0  0  0  0  0  0  0  0
   49.7633    4.9616   19.7024 C   0  0  0  0  0  0  0  0  0  0  0  0
   48.7767    4.1206   19.1917 C   0  0  0  0  0  0  0  0  0  0  0  0
   48.5398    4.0763   17.8138 C   0  0  0  0  0  0  0  0  0  0  0  0
   49.2991    4.8789   16.9508 C   0  0  0  0  0  0  0  0  0  0  0  0
   47.4769    3.1708   17.3155 C   0  0  0  0  0  0  0  0  0  0  0  0
   47.3633    3.1747   15.9758 O   0  0  0  0  0  0  0  0  0  0  0  0
   46.7580    2.4699   18.0050 O   0  0  0  0  0  0  0  0  0  0  0  0
   49.1488    7.6389   15.6312 O   0  0  0  0  0  0  0  0  0  0  0  0
   50.7230    9.2523   13.8895 N   0  0  0  0  0  0  0  0  0  0  0  0
   49.3913    9.2409   13.6076 N   0  0  0  0  0  0  0  0  0  0  0  0
   49.0194    9.9223   12.5677 C   0  0  0  0  0  0  0  0  0  0  0  0
   49.8220   10.7193   11.5867 C   0  0  0  0  0  0  0  0  0  0  0  0
   48.8362   11.2115   10.7378 N   0  0  0  0  0  0  0  0  0  0  0  0
   47.5292   10.8027   11.0666 N   0  0  0  0  0  0  0  0  0  0  0  0
   47.6099   10.0504   12.1229 C   0  0  0  0  0  0  0  0  0  0  0  0
   46.4962    9.3824   12.8363 C   0  0  0  0  0  0  0  0  0  0  0  0
   51.0316   10.8121   11.6386 O   0  0  0  0  0  0  0  0  0  0  0  0
   49.0100   12.0505    9.6080 C   0  0  0  0  0  0  0  0  0  0  0  0
   50.2746   12.5027    9.2083 C   0  0  0  0  0  0  0  0  0  0  0  0
   50.4405   13.3449    8.0903 C   0  0  0  0  0  0  0  0  0  0  0  0
   49.3152   13.7287    7.3389 C   0  0  0  0  0  0  0  0  0  0  0  0
   48.0493   13.2841    7.7385 C   0  0  0  0  0  0  0  0  0  0  0  0
   47.9009   12.4561    8.8548 C   0  0  0  0  0  0  0  0  0  0  0  0
   49.4333   14.6305    6.1414 C   0  0  0  0  0  0  0  0  0  0  0  0
   51.8262   13.7949    7.7114 C   0  0  0  0  0  0  0  0  0  0  0  0
   49.8772    9.6789   12.4235 C   0  0  0  0  0  0  0  0  0  0  0  0
   50.0863    9.1503   13.8469 C   0  0  0  0  0  0  0  0  0  0  0  0
   49.7219    7.7332   13.9596 N   0  0  0  0  0  0  0  0  0  0  0  0
   48.5304    9.4463   12.0149 O   0  0  0  0  0  0  0  0  0  0  0  0
   49.0395    8.5649   14.5988 H   0  0  0  0  0  0  0  0  0  0  0  0
   50.7873    8.8450   14.7242 H   0  0  0  0  0  0  0  0  0  0  0  0
   49.5471   10.6992   13.4793 H   0  0  0  0  0  0  0  0  0  0  0  0
   50.8601    9.9584   12.5490 H   0  0  0  0  0  0  0  0  0  0  0  0
   49.4121    8.7622   11.2895 H   0  0  0  0  0  0  0  0  0  0  0  0
   48.7999   10.2585   11.3274 H   0  0  0  0  0  0  0  0  0  0  0  0
   49.4331    7.2692   12.8093 H   0  0  0  0  0  0  0  0  0  0  0  0
   52.9945    5.7929   17.2289 H   0  0  0  0  0  0  0  0  0  0  0  0
   54.3682    7.2128   15.7605 H   0  0  0  0  0  0  0  0  0  0  0  0
   53.3135    8.8098   14.2113 H   0  0  0  0  0  0  0  0  0  0  0  0
   51.2691    6.4242   19.2567 H   0  0  0  0  0  0  0  0  0  0  0  0
   49.9436    5.0018   20.7735 H   0  0  0  0  0  0  0  0  0  0  0  0
   48.1904    3.5047   19.8703 H   0  0  0  0  0  0  0  0  0  0  0  0
   49.1124    4.8502   15.8790 H   0  0  0  0  0  0  0  0  0  0  0  0
   46.6350    2.5430   15.8022 H   0  0  0  0  0  0  0  0  0  0  0  0
   49.0111    8.3348   14.9524 H   0  0  0  0  0  0  0  0  0  0  0  0
   51.3916    9.6401   13.2097 H   0  0  0  0  0  0  0  0  0  0  0  0
   46.4613    9.7304   13.8719 H   0  0  0  0  0  0  0  0  0  0  0  0
   45.5453    9.6157   12.3500 H   0  0  0  0  0  0  0  0  0  0  0  0
   46.6480    8.2998   12.8231 H   0  0  0  0  0  0  0  0  0  0  0  0
   51.1642   12.2103    9.7587 H   0  0  0  0  0  0  0  0  0  0  0  0
   47.1611   13.5782    7.1836 H   0  0  0  0  0  0  0  0  0  0  0  0
   46.8979   12.1327    9.1246 H   0  0  0  0  0  0  0  0  0  0  0  0
   50.2092   14.2691    5.4581 H   0  0  0  0  0  0  0  0  0  0  0  0
   49.6756   15.6493    6.4613 H   0  0  0  0  0  0  0  0  0  0  0  0
   48.4967   14.6672    5.5738 H   0  0  0  0  0  0  0  0  0  0  0  0
   52.1338   13.3182    6.7755 H   0  0  0  0  0  0  0  0  0  0  0  0
   51.8578   14.8829    7.5947 H   0  0  0  0  0  0  0  0  0  0  0  0
   52.5599   13.5324    8.4811 H   0  0  0  0  0  0  0  0  0  0  0  0
   50.0721   10.7550   12.3889 H   0  0  0  0  0  0  0  0  0  0  0  0
   50.5451    9.1729   11.7186 H   0  0  0  0  0  0  0  0  0  0  0  0
   51.1287    9.2878   14.1504 H   0  0  0  0  0  0  0  0  0  0  0  0
   49.4547    9.7137   14.5422 H   0  0  0  0  0  0  0  0  0  0  0  0
   50.2697    7.1936   13.2910 H   0  0  0  0  0  0  0  0  0  0  0  0
   48.7590    7.6571   13.6156 H   0  0  0  0  0  0  0  0  0  0  0  0
   48.4339    9.8313   11.1271 H   0  0  0  0  0  0  0  0  0  0  0  0
  4  1  1  0
  1  2  1  0
  2  3  1  0
 10 20  1  0
  9 21  1  0
 12 13  2  0
 21 22  1  0
  8  9  2  0
 22 23  2  0
 23 24  1  0
 13 14  1  0
  6  7  2  0
 14 15  2  0
  9 10  1  0
 24 25  1  0
 25 26  1  0
 26 27  2  0
 27 23  1  0
 15 16  1  0
 27 28  1  0
 16 11  2  0
 24 29  2  0
  5 11  1  0
 25 30  1  0
 10  5  2  0
 30 31  2  0
 15 17  1  0
 31 32  1  0
  5  6  1  0
 32 33  2  0
  7  8  1  0
 33 34  1  0
 17 18  1  0
 34 35  2  0
 35 30  1  0
 17 19  2  0
 33 36  1  0
 11 12  1  0
 32 37  1  0
 41 38  1  0
 38 39  1  0
 39 40  1  0
  1 42  1  0
  1 43  1  0
  2 44  1  0
  2 45  1  0
  3 46  1  0
  3 47  1  0
  4 48  1  0
  6 49  1  0
  7 50  1  0
  8 51  1  0
 12 52  1  0
 13 53  1  0
 14 54  1  0
 16 55  1  0
 18 56  1  0
 20 57  1  0
 21 58  1  0
 28 59  1  0
 28 60  1  0
 28 61  1  0
 31 62  1  0
 34 63  1  0
 35 64  1  0
 36 65  1  0
 36 66  1  0
 36 67  1  0
 37 68  1  0
 37 69  1  0
 37 70  1  0
 38 71  1  0
 38 72  1  0
 39 73  1  0
 39 74  1  0
 40 75  1  0
 40 76  1  0
 41 77  1  0
M  END
> <Uni-Dock RESULT> 
ENERGY=   -4.639  LOWER_BOUND=    5.610  UPPER_BOUND=    7.460
INTER + INTRA:          -4.639
INTER:                  -4.639
INTRA:                   0.000
UNBOUND:                 0.000

$$$$

     RDKit          3D

 77 78  0  0  0  0  0  0  0  0999 V2000
   44.6594   13.1917   11.0452 C   0  0  0  0  0  0  0  0  0  0  0  0
   45.1350   11.7521   11.2593 C   0  0  0  0  0  0  0  0  0  0  0  0
   44.0739   10.9166   11.8375 N   0  0  0  0  0  0  0  0  0  0  0  0
   44.0583   13.6957   12.2357 O   0  0  0  0  0  0  0  0  0  0  0  0
   44.6134   16.6131   10.6111 C   0  0  0  0  0  0  0  0  0  0  0  0
   45.6917   17.2378   11.2609 C   0  0  0  0  0  0  0  0  0  0  0  0
   46.7037   16.4899   11.8659 C   0  0  0  0  0  0  0  0  0  0  0  0
   46.6542   15.0954   11.8423 C   0  0  0  0  0  0  0  0  0  0  0  0
   45.5873   14.4258   11.2304 C   0  0  0  0  0  0  0  0  0  0  0  0
   44.5905   15.2052   10.6040 C   0  0  0  0  0  0  0  0  0  0  0  0
   43.5679   17.4308    9.9658 C   0  0  0  0  0  0  0  0  0  0  0  0
   43.9009   18.3900    8.9931 C   0  0  0  0  0  0  0  0  0  0  0  0
   42.9182   19.1714    8.3806 C   0  0  0  0  0  0  0  0  0  0  0  0
   41.5798   19.0058    8.7310 C   0  0  0  0  0  0  0  0  0  0  0  0
   41.2213   18.0588    9.6961 C   0  0  0  0  0  0  0  0  0  0  0  0
   42.2129   17.2801   10.3091 C   0  0  0  0  0  0  0  0  0  0  0  0
   39.7851   17.9134   10.0338 C   0  0  0  0  0  0  0  0  0  0  0  0
   39.5579   17.0081   11.0015 O   0  0  0  0  0  0  0  0  0  0  0  0
   38.8677   18.5301    9.5226 O   0  0  0  0  0  0  0  0  0  0  0  0
   43.5726   14.5605    9.9398 O   0  0  0  0  0  0  0  0  0  0  0  0
   45.6036   13.0095   11.1986 N   0  0  0  0  0  0  0  0  0  0  0  0
   44.4973   12.3078   10.8289 N   0  0  0  0  0  0  0  0  0  0  0  0
   44.4902   11.0462   11.1332 C   0  0  0  0  0  0  0  0  0  0  0  0
   45.5011   10.2128   11.8578 C   0  0  0  0  0  0  0  0  0  0  0  0
   44.9094    8.9543   11.8345 N   0  0  0  0  0  0  0  0  0  0  0  0
   43.6531    8.9146   11.1992 N   0  0  0  0  0  0  0  0  0  0  0  0
   43.3862   10.1175   10.7871 C   0  0  0  0  0  0  0  0  0  0  0  0
   42.1732   10.5713   10.0673 C   0  0  0  0  0  0  0  0  0  0  0  0
   46.5333   10.6653   12.3099 O   0  0  0  0  0  0  0  0  0  0  0  0
   45.4240    7.7482   12.3742 C   0  0  0  0  0  0  0  0  0  0  0  0
   46.6644    7.6971   13.0242 C   0  0  0  0  0  0  0  0  0  0  0  0
   47.1758    6.4934   13.5498 C   0  0  0  0  0  0  0  0  0  0  0  0
   46.4184    5.3131   13.4418 C   0  0  0  0  0  0  0  0  0  0  0  0
   45.1815    5.3587   12.7878 C   0  0  0  0  0  0  0  0  0  0  0  0
   44.6923    6.5589   12.2644 C   0  0  0  0  0  0  0  0  0  0  0  0
   46.9181    4.0003   13.9786 C   0  0  0  0  0  0  0  0  0  0  0  0
   48.5142    6.5051   14.2386 C   0  0  0  0  0  0  0  0  0  0  0  0
   45.0224   11.4546   11.7380 C   0  0  0  0  0  0  0  0  0  0  0  0
   45.0276   12.7964   10.9973 C   0  0  0  0  0  0  0  0  0  0  0  0
   43.9162   13.6559   11.4215 N   0  0  0  0  0  0  0  0  0  0  0  0
   43.7613   10.8112   11.5630 O   0  0  0  0  0  0  0  0  0  0  0  0
   43.9207   13.2471   10.2388 H   0  0  0  0  0  0  0  0  0  0  0  0
   45.5028   13.8372   10.7844 H   0  0  0  0  0  0  0  0  0  0  0  0
   45.4635   11.3284   10.3048 H   0  0  0  0  0  0  0  0  0  0  0  0
   45.9892   11.7414   11.9453 H   0  0  0  0  0  0  0  0  0  0  0  0
   43.9947   11.1469   12.8297 H   0  0  0  0  0  0  0  0  0  0  0  0
   44.3828    9.9440   11.8210 H   0  0  0  0  0  0  0  0  0  0  0  0
   43.2937   13.1100   12.3891 H   0  0  0  0  0  0  0  0  0  0  0  0
   45.7477   18.3244   11.3005 H   0  0  0  0  0  0  0  0  0  0  0  0
   47.5324   16.9960   12.3541 H   0  0  0  0  0  0  0  0  0  0  0  0
   47.4602   14.5351   12.3100 H   0  0  0  0  0  0  0  0  0  0  0  0
   44.9394   18.5221    8.6938 H   0  0  0  0  0  0  0  0  0  0  0  0
   43.1971   19.9022    7.6260 H   0  0  0  0  0  0  0  0  0  0  0  0
   40.8176   19.6124    8.2466 H   0  0  0  0  0  0  0  0  0  0  0  0
   41.9355   16.5386   11.0560 H   0  0  0  0  0  0  0  0  0  0  0  0
   38.5845   17.0232   11.1105 H   0  0  0  0  0  0  0  0  0  0  0  0
   43.7995   13.6135   10.0660 H   0  0  0  0  0  0  0  0  0  0  0  0
   46.2981   12.5848   11.8283 H   0  0  0  0  0  0  0  0  0  0  0  0
   42.4557   10.9915    9.0986 H   0  0  0  0  0  0  0  0  0  0  0  0
   41.4953    9.7290    9.9060 H   0  0  0  0  0  0  0  0  0  0  0  0
   41.6598   11.3351   10.6574 H   0  0  0  0  0  0  0  0  0  0  0  0
   47.2650    8.5949   13.1375 H   0  0  0  0  0  0  0  0  0  0  0  0
   44.5825    4.4573   12.6777 H   0  0  0  0  0  0  0  0  0  0  0  0
   43.7244    6.5460   11.7682 H   0  0  0  0  0  0  0  0  0  0  0  0
   47.2598    4.1087   15.0136 H   0  0  0  0  0  0  0  0  0  0  0  0
   47.7426    3.6313   13.3598 H   0  0  0  0  0  0  0  0  0  0  0  0
   46.1282    3.2410   13.9787 H   0  0  0  0  0  0  0  0  0  0  0  0
   48.3858    6.3417   15.3131 H   0  0  0  0  0  0  0  0  0  0  0  0
   49.1649    5.7274   13.8260 H   0  0  0  0  0  0  0  0  0  0  0  0
   49.0297    7.4618   14.1018 H   0  0  0  0  0  0  0  0  0  0  0  0
   45.8058   10.8021   11.3410 H   0  0  0  0  0  0  0  0  0  0  0  0
   45.1903   11.6014   12.8101 H   0  0  0  0  0  0  0  0  0  0  0  0
   45.9775   13.3143   11.1627 H   0  0  0  0  0  0  0  0  0  0  0  0
   44.9215   12.6202    9.9215 H   0  0  0  0  0  0  0  0  0  0  0  0
   43.9717   13.8003   12.4287 H   0  0  0  0  0  0  0  0  0  0  0  0
   43.0621   13.1034   11.2931 H   0  0  0  0  0  0  0  0  0  0  0  0
   43.8176    9.9514   12.0138 H   0  0  0  0  0  0  0  0  0  0  0  0
  4  1  1  0
  1  2  1  0
  2  3  1  0
 10 20  1  0
  9 21  1  0
 12 13  2  0
 21 22  1  0
  8  9  2  0
 22 23  2  0
 23 24  1  0
 13 14  1  0
  6  7  2  0
 14 15  2  0
  9 10  1  0
 24 25  1  0
 25 26  1  0
 26 27  2  0
 27 23  1  0
 15 16  1  0
 27 28  1  0
 16 11  2  0
 24 29  2  0
  5 11  1  0
 25 30  1  0
 10  5  2  0
 30 31  2  0
 15 17  1  0
 31 32  1  0
  5  6  1  0
 32 33  2  0
  7  8  1  0
 33 34  1  0
 17 18  1  0
 34 35  2  0
 35 30  1  0
 17 19  2  0
 33 36  1  0
 11 12  1  0
 32 37  1  0
 41 38  1  0
 38 39  1  0
 39 40  1  0
  1 42  1  0
  1 43  1  0
  2 44  1  0
  2 45  1  0
  3 46  1  0
  3 47  1  0
  4 48  1  0
  6 49  1  0
  7 50  1  0
  8 51  1  0
 12 52  1  0
 13 53  1  0
 14 54  1  0
 16 55  1  0
 18 56  1  0
 20 57  1  0
 21 58  1  0
 28 59  1  0
 28 60  1  0
 28 61  1  0
 31 62  1  0
 34 63  1  0
 35 64  1  0
 36 65  1  0
 36 66  1  0
 36 67  1  0
 37 68  1  0
 37 69  1  0
 37 70  1  0
 38 71  1  0
 38 72  1  0
 39 73  1  0
 39 74  1  0
 40 75  1  0
 40 76  1  0
 41 77  1  0
M  END
> <Uni-Dock RESULT> 
ENERGY=   -4.633  LOWER_BOUND=    2.390  UPPER_BOUND=    9.564
INTER + INTRA:          -4.633
INTER:                  -4.633
INTRA:                   0.000
UNBOUND:                 0.000

$$$$

     RDKit          3D

 77 78  0  0  0  0  0  0  0  0999 V2000
   48.1533    8.3204   13.5787 C   0  0  0  0  0  0  0  0  0  0  0  0
   48.4464    9.5133   12.6646 C   0  0  0  0  0  0  0  0  0  0  0  0
   48.3425   10.7853   13.3922 N   0  0  0  0  0  0  0  0  0  0  0  0
   46.9327    8.5278   14.2858 O   0  0  0  0  0  0  0  0  0  0  0  0
   47.2713    5.1881   14.7223 C   0  0  0  0  0  0  0  0  0  0  0  0
   46.3224    4.5740   13.8871 C   0  0  0  0  0  0  0  0  0  0  0  0
   45.9380    5.1563   12.6778 C   0  0  0  0  0  0  0  0  0  0  0  0
   46.4893    6.3751   12.2802 C   0  0  0  0  0  0  0  0  0  0  0  0
   47.4190    7.0398   13.0896 C   0  0  0  0  0  0  0  0  0  0  0  0
   47.8097    6.4171   14.2950 C   0  0  0  0  0  0  0  0  0  0  0  0
   47.6702    4.5394   15.9866 C   0  0  0  0  0  0  0  0  0  0  0  0
   48.1690    3.2247   15.9960 C   0  0  0  0  0  0  0  0  0  0  0  0
   48.5446    2.6015   17.1885 C   0  0  0  0  0  0  0  0  0  0  0  0
   48.4283    3.2853   18.3970 C   0  0  0  0  0  0  0  0  0  0  0  0
   47.9347    4.5940   18.4156 C   0  0  0  0  0  0  0  0  0  0  0  0
   47.5566    5.2125   17.2156 C   0  0  0  0  0  0  0  0  0  0  0  0
   47.8331    5.2847   19.7235 C   0  0  0  0  0  0  0  0  0  0  0  0
   47.3072    6.5187   19.6310 O   0  0  0  0  0  0  0  0  0  0  0  0
   48.1703    4.8246   20.7996 O   0  0  0  0  0  0  0  0  0  0  0  0
   48.7729    7.0249   15.0669 O   0  0  0  0  0  0  0  0  0  0  0  0
   47.9791    8.2546   12.6230 N   0  0  0  0  0  0  0  0  0  0  0  0
   48.7022    9.0537   13.4546 N   0  0  0  0  0  0  0  0  0  0  0  0
   48.8972   10.2722   13.0529 C   0  0  0  0  0  0  0  0  0  0  0  0
   48.4349   10.9760   11.8149 C   0  0  0  0  0  0  0  0  0  0  0  0
   48.9932   12.2399   11.9746 N   0  0  0  0  0  0  0  0  0  0  0  0
   49.7280   12.4044   13.1647 N   0  0  0  0  0  0  0  0  0  0  0  0
   49.6836   11.2772   13.8095 C   0  0  0  0  0  0  0  0  0  0  0  0
   50.3060   10.9664   15.1177 C   0  0  0  0  0  0  0  0  0  0  0  0
   47.7377   10.4482   10.9724 O   0  0  0  0  0  0  0  0  0  0  0  0
   48.8946   13.3450   11.0916 C   0  0  0  0  0  0  0  0  0  0  0  0
   48.1822   13.2700    9.8873 C   0  0  0  0  0  0  0  0  0  0  0  0
   48.0961   14.3686    9.0083 C   0  0  0  0  0  0  0  0  0  0  0  0
   48.7207   15.5812    9.3516 C   0  0  0  0  0  0  0  0  0  0  0  0
   49.4385   15.6584   10.5509 C   0  0  0  0  0  0  0  0  0  0  0  0
   49.5216   14.5570   11.4076 C   0  0  0  0  0  0  0  0  0  0  0  0
   48.6665   16.7825    8.4487 C   0  0  0  0  0  0  0  0  0  0  0  0
   47.3137   14.2246    7.7303 C   0  0  0  0  0  0  0  0  0  0  0  0
   48.1297    9.9929   12.6670 C   0  0  0  0  0  0  0  0  0  0  0  0
   48.3064    8.5347   13.1047 C   0  0  0  0  0  0  0  0  0  0  0  0
   47.7124    8.2872   14.4236 N   0  0  0  0  0  0  0  0  0  0  0  0
   48.6684   10.8639   13.6602 O   0  0  0  0  0  0  0  0  0  0  0  0
   48.9541    8.1795   14.3122 H   0  0  0  0  0  0  0  0  0  0  0  0
   48.0599    7.4031   12.9906 H   0  0  0  0  0  0  0  0  0  0  0  0
   49.4488    9.4102   12.2369 H   0  0  0  0  0  0  0  0  0  0  0  0
   47.7272    9.5334   11.8384 H   0  0  0  0  0  0  0  0  0  0  0  0
   47.3513   10.9964   13.5213 H   0  0  0  0  0  0  0  0  0  0  0  0
   48.6902   11.5321   12.7895 H   0  0  0  0  0  0  0  0  0  0  0  0
   47.0940    9.3274   14.8204 H   0  0  0  0  0  0  0  0  0  0  0  0
   45.8713    3.6273   14.1799 H   0  0  0  0  0  0  0  0  0  0  0  0
   45.2092    4.6572   12.0445 H   0  0  0  0  0  0  0  0  0  0  0  0
   46.1828    6.8027   11.3287 H   0  0  0  0  0  0  0  0  0  0  0  0
   48.2831    2.6804   15.0600 H   0  0  0  0  0  0  0  0  0  0  0  0
   48.9343    1.5871   17.1722 H   0  0  0  0  0  0  0  0  0  0  0  0
   48.7280    2.7977   19.3222 H   0  0  0  0  0  0  0  0  0  0  0  0
   47.1779    6.2327   17.2273 H   0  0  0  0  0  0  0  0  0  0  0  0
   47.3059    6.8411   20.5560 H   0  0  0  0  0  0  0  0  0  0  0  0
   48.9884    7.8298   14.5473 H   0  0  0  0  0  0  0  0  0  0  0  0
   47.4845    8.6610   11.8170 H   0  0  0  0  0  0  0  0  0  0  0  0
   51.0091   10.1375   15.0031 H   0  0  0  0  0  0  0  0  0  0  0  0
   50.8440   11.8402   15.4945 H   0  0  0  0  0  0  0  0  0  0  0  0
   49.5309   10.6869   15.8363 H   0  0  0  0  0  0  0  0  0  0  0  0
   47.6757   12.3524    9.6023 H   0  0  0  0  0  0  0  0  0  0  0  0
   49.9432   16.5798   10.8331 H   0  0  0  0  0  0  0  0  0  0  0  0
   50.0872   14.6658   12.3304 H   0  0  0  0  0  0  0  0  0  0  0  0
   47.6365   16.9897    8.1393 H   0  0  0  0  0  0  0  0  0  0  0  0
   49.2861   16.6137    7.5619 H   0  0  0  0  0  0  0  0  0  0  0  0
   49.0369   17.6809    8.9550 H   0  0  0  0  0  0  0  0  0  0  0  0
   46.4001   14.8251    7.7788 H   0  0  0  0  0  0  0  0  0  0  0  0
   47.9159   14.5442    6.8738 H   0  0  0  0  0  0  0  0  0  0  0  0
   47.0245   13.1837    7.5498 H   0  0  0  0  0  0  0  0  0  0  0  0
   48.6563   10.1697   11.7243 H   0  0  0  0  0  0  0  0  0  0  0  0
   47.0699   10.2335   12.5338 H   0  0  0  0  0  0  0  0  0  0  0  0
   47.8573    7.8629   12.3666 H   0  0  0  0  0  0  0  0  0  0  0  0
   49.3741    8.2998   13.1701 H   0  0  0  0  0  0  0  0  0  0  0  0
   46.7251    8.5382   14.3974 H   0  0  0  0  0  0  0  0  0  0  0  0
   48.1301    8.9748   15.0592 H   0  0  0  0  0  0  0  0  0  0  0  0
   48.5707   11.7710   13.3236 H   0  0  0  0  0  0  0  0  0  0  0  0
  4  1  1  0
  1  2  1  0
  2  3  1  0
 10 20  1  0
  9 21  1  0
 12 13  2  0
 21 22  1  0
  8  9  2  0
 22 23  2  0
 23 24  1  0
 13 14  1  0
  6  7  2  0
 14 15  2  0
  9 10  1  0
 24 25  1  0
 25 26  1  0
 26 27  2  0
 27 23  1  0
 15 16  1  0
 27 28  1  0
 16 11  2  0
 24 29  2  0
  5 11  1  0
 25 30  1  0
 10  5  2  0
 30 31  2  0
 15 17  1  0
 31 32  1  0
  5  6  1  0
 32 33  2  0
  7  8  1  0
 33 34  1  0
 17 18  1  0
 34 35  2  0
 35 30  1  0
 17 19  2  0
 33 36  1  0
 11 12  1  0
 32 37  1  0
 41 38  1  0
 38 39  1  0
 39 40  1  0
  1 42  1  0
  1 43  1  0
  2 44  1  0
  2 45  1  0
  3 46  1  0
  3 47  1  0
  4 48  1  0
  6 49  1  0
  7 50  1  0
  8 51  1  0
 12 52  1  0
 13 53  1  0
 14 54  1  0
 16 55  1  0
 18 56  1  0
 20 57  1  0
 21 58  1  0
 28 59  1  0
 28 60  1  0
 28 61  1  0
 31 62  1  0
 34 63  1  0
 35 64  1  0
 36 65  1  0
 36 66  1  0
 36 67  1  0
 37 68  1  0
 37 69  1  0
 37 70  1  0
 38 71  1  0
 38 72  1  0
 39 73  1  0
 39 74  1  0
 40 75  1  0
 40 76  1  0
 41 77  1  0
M  END
> <Uni-Dock RESULT> 
ENERGY=   -4.577  LOWER_BOUND=    5.302  UPPER_BOUND=    6.905
INTER + INTRA:          -4.577
INTER:                  -4.577
INTRA:                   0.000
UNBOUND:                 0.000

$$$$
