
     RDKit          3D

 77 78  0  0  0  0  0  0  0  0999 V2000
   44.2593   12.0976   11.7820 C   0  0  0  0  0  0  0  0  0  0  0  0
   44.9245   11.1094   10.8198 C   0  0  0  0  0  0  0  0  0  0  0  0
   43.9696   10.0580   10.4355 N   0  0  0  0  0  0  0  0  0  0  0  0
   43.0447   12.5740   11.2071 O   0  0  0  0  0  0  0  0  0  0  0  0
   46.9279    7.7139   12.3433 C   0  0  0  0  0  0  0  0  0  0  0  0
   48.2842    8.0271   12.1372 C   0  0  0  0  0  0  0  0  0  0  0  0
   48.7005    9.3386   11.9004 C   0  0  0  0  0  0  0  0  0  0  0  0
   47.7627   10.3708   11.8489 C   0  0  0  0  0  0  0  0  0  0  0  0
   46.3957   10.1049   12.0019 C   0  0  0  0  0  0  0  0  0  0  0  0
   46.0042    8.7757   12.2745 C   0  0  0  0  0  0  0  0  0  0  0  0
   46.5302    6.3198   12.6320 C   0  0  0  0  0  0  0  0  0  0  0  0
   47.1554    5.5955   13.6647 C   0  0  0  0  0  0  0  0  0  0  0  0
   46.7979    4.2745   13.9438 C   0  0  0  0  0  0  0  0  0  0  0  0
   45.8032    3.6518   13.1929 C   0  0  0  0  0  0  0  0  0  0  0  0
   45.1657    4.3478   12.1594 C   0  0  0  0  0  0  0  0  0  0  0  0
   45.5307    5.6724   11.8829 C   0  0  0  0  0  0  0  0  0  0  0  0
   44.1125    3.6430   11.3880 C   0  0  0  0  0  0  0  0  0  0  0  0
   43.6333    4.3655   10.3589 O   0  0  0  0  0  0  0  0  0  0  0  0
   43.6995    2.5200   11.6120 O   0  0  0  0  0  0  0  0  0  0  0  0
   44.6724    8.5238   12.5187 O   0  0  0  0  0  0  0  0  0  0  0  0
   45.4822   11.1913   11.9698 N   0  0  0  0  0  0  0  0  0  0  0  0
   44.1600   10.9569   11.7133 N   0  0  0  0  0  0  0  0  0  0  0  0
   43.4868   11.9637   11.2428 C   0  0  0  0  0  0  0  0  0  0  0  0
   43.9313   13.3553   10.9152 C   0  0  0  0  0  0  0  0  0  0  0  0
   42.7484   13.9451   10.4820 N   0  0  0  0  0  0  0  0  0  0  0  0
   41.6349   13.0820   10.4798 N   0  0  0  0  0  0  0  0  0  0  0  0
   42.0402   11.9233   10.9091 C   0  0  0  0  0  0  0  0  0  0  0  0
   41.2214   10.7017   11.0939 C   0  0  0  0  0  0  0  0  0  0  0  0
   45.0815   13.7278   11.0356 O   0  0  0  0  0  0  0  0  0  0  0  0
   42.5585   15.2890   10.0703 C   0  0  0  0  0  0  0  0  0  0  0  0
   43.6081   16.2187   10.0725 C   0  0  0  0  0  0  0  0  0  0  0  0
   43.4094   17.5601    9.6856 C   0  0  0  0  0  0  0  0  0  0  0  0
   42.1352   17.9769    9.2577 C   0  0  0  0  0  0  0  0  0  0  0  0
   41.0827   17.0522    9.2581 C   0  0  0  0  0  0  0  0  0  0  0  0
   41.2936   15.7278    9.6575 C   0  0  0  0  0  0  0  0  0  0  0  0
   41.8659   19.3956    8.8405 C   0  0  0  0  0  0  0  0  0  0  0  0
   44.5808   18.5070    9.7112 C   0  0  0  0  0  0  0  0  0  0  0  0
   44.1868   10.4029   10.7025 C   0  0  0  0  0  0  0  0  0  0  0  0
   44.7808   11.8156   10.6734 C   0  0  0  0  0  0  0  0  0  0  0  0
   44.1755   12.6768   11.6927 N   0  0  0  0  0  0  0  0  0  0  0  0
   44.3310    9.8296   12.0021 O   0  0  0  0  0  0  0  0  0  0  0  0
   44.9131   12.9531   11.9758 H   0  0  0  0  0  0  0  0  0  0  0  0
   44.0176   11.6174   12.7360 H   0  0  0  0  0  0  0  0  0  0  0  0
   45.2275   11.6383    9.9083 H   0  0  0  0  0  0  0  0  0  0  0  0
   45.8151   10.6664   11.2774 H   0  0  0  0  0  0  0  0  0  0  0  0
   43.7518    9.4899   11.2539 H   0  0  0  0  0  0  0  0  0  0  0  0
   44.4265    9.4277    9.7753 H   0  0  0  0  0  0  0  0  0  0  0  0
   42.6932   11.8060   10.7115 H   0  0  0  0  0  0  0  0  0  0  0  0
   49.0363    7.2403   12.1631 H   0  0  0  0  0  0  0  0  0  0  0  0
   49.7576    9.5543   11.7624 H   0  0  0  0  0  0  0  0  0  0  0  0
   48.1129   11.3856   11.6778 H   0  0  0  0  0  0  0  0  0  0  0  0
   47.9233    6.0692   14.2764 H   0  0  0  0  0  0  0  0  0  0  0  0
   47.2893    3.7389   14.7523 H   0  0  0  0  0  0  0  0  0  0  0  0
   45.5233    2.6244   13.4170 H   0  0  0  0  0  0  0  0  0  0  0  0
   45.0297    6.2153   11.0839 H   0  0  0  0  0  0  0  0  0  0  0  0
   42.9577    3.7760    9.9600 H   0  0  0  0  0  0  0  0  0  0  0  0
   44.2582    9.4076   12.3992 H   0  0  0  0  0  0  0  0  0  0  0  0
   45.9129   12.0560   11.6150 H   0  0  0  0  0  0  0  0  0  0  0  0
   41.0644   10.5287   12.1621 H   0  0  0  0  0  0  0  0  0  0  0  0
   40.2519   10.8245   10.6023 H   0  0  0  0  0  0  0  0  0  0  0  0
   41.7328    9.8387   10.6588 H   0  0  0  0  0  0  0  0  0  0  0  0
   44.6069   15.9248   10.3841 H   0  0  0  0  0  0  0  0  0  0  0  0
   40.0833   17.3550    8.9487 H   0  0  0  0  0  0  0  0  0  0  0  0
   40.4464   15.0445    9.6404 H   0  0  0  0  0  0  0  0  0  0  0  0
   42.6256   19.7417    8.1326 H   0  0  0  0  0  0  0  0  0  0  0  0
   41.8559   20.0501    9.7179 H   0  0  0  0  0  0  0  0  0  0  0  0
   40.8974   19.4883    8.3389 H   0  0  0  0  0  0  0  0  0  0  0  0
   45.4236   18.0854   10.2720 H   0  0  0  0  0  0  0  0  0  0  0  0
   44.3106   19.4465   10.2042 H   0  0  0  0  0  0  0  0  0  0  0  0
   44.9210   18.7135    8.6895 H   0  0  0  0  0  0  0  0  0  0  0  0
   44.6940    9.7569    9.9788 H   0  0  0  0  0  0  0  0  0  0  0  0
   43.1191   10.4215   10.4602 H   0  0  0  0  0  0  0  0  0  0  0  0
   44.6489   12.2620    9.6835 H   0  0  0  0  0  0  0  0  0  0  0  0
   45.8546   11.7610   10.8794 H   0  0  0  0  0  0  0  0  0  0  0  0
   44.1466   12.1478   12.5695 H   0  0  0  0  0  0  0  0  0  0  0  0
   43.1925   12.8210   11.4614 H   0  0  0  0  0  0  0  0  0  0  0  0
   45.2797    9.8479   12.2199 H   0  0  0  0  0  0  0  0  0  0  0  0
  4  1  1  0
  1  2  1  0
  2  3  1  0
 10 20  1  0
  9 21  1  0
 12 13  2  0
 21 22  1  0
  8  9  2  0
 22 23  2  0
 23 24  1  0
 13 14  1  0
  6  7  2  0
 14 15  2  0
  9 10  1  0
 24 25  1  0
 25 26  1  0
 26 27  2  0
 27 23  1  0
 15 16  1  0
 27 28  1  0
 16 11  2  0
 24 29  2  0
  5 11  1  0
 25 30  1  0
 10  5  2  0
 30 31  2  0
 15 17  1  0
 31 32  1  0
  5  6  1  0
 32 33  2  0
  7  8  1  0
 33 34  1  0
 17 18  1  0
 34 35  2  0
 35 30  1  0
 17 19  2  0
 33 36  1  0
 11 12  1  0
 32 37  1  0
 41 38  1  0
 38 39  1  0
 39 40  1  0
  1 42  1  0
  1 43  1  0
  2 44  1  0
  2 45  1  0
  3 46  1  0
  3 47  1  0
  4 48  1  0
  6 49  1  0
  7 50  1  0
  8 51  1  0
 12 52  1  0
 13 53  1  0
 14 54  1  0
 16 55  1  0
 18 56  1  0
 20 57  1  0
 21 58  1  0
 28 59  1  0
 28 60  1  0
 28 61  1  0
 31 62  1  0
 34 63  1  0
 35 64  1  0
 36 65  1  0
 36 66  1  0
 36 67  1  0
 37 68  1  0
 37 69  1  0
 37 70  1  0
 38 71  1  0
 38 72  1  0
 39 73  1  0
 39 74  1  0
 40 75  1  0
 40 76  1  0
 41 77  1  0
M  END
> <Uni-Dock RESULT> 
ENERGY=   -5.829  LOWER_BOUND=    0.000  UPPER_BOUND=    0.000
INTER + INTRA:          -5.829
INTER:                  -5.829
INTRA:                   0.000
UNBOUND:                 0.000

$$$$

     RDKit          3D

 77 78  0  0  0  0  0  0  0  0999 V2000
   49.9610    6.0182   16.6228 C   0  0  0  0  0  0  0  0  0  0  0  0
   48.4783    6.3902   16.5330 C   0  0  0  0  0  0  0  0  0  0  0  0
   47.6526    5.1726   16.5075 N   0  0  0  0  0  0  0  0  0  0  0  0
   50.1623    5.1360   17.7246 O   0  0  0  0  0  0  0  0  0  0  0  0
   46.6453    6.8323   12.7503 C   0  0  0  0  0  0  0  0  0  0  0  0
   46.4674    8.2243   12.6450 C   0  0  0  0  0  0  0  0  0  0  0  0
   47.1745    9.1120   13.4582 C   0  0  0  0  0  0  0  0  0  0  0  0
   48.0697    8.6245   14.4115 C   0  0  0  0  0  0  0  0  0  0  0  0
   48.2486    7.2462   14.5874 C   0  0  0  0  0  0  0  0  0  0  0  0
   47.5476    6.3708   13.7291 C   0  0  0  0  0  0  0  0  0  0  0  0
   45.9094    5.9257   11.8439 C   0  0  0  0  0  0  0  0  0  0  0  0
   45.9492    6.1188   10.4499 C   0  0  0  0  0  0  0  0  0  0  0  0
   45.2518    5.2769    9.5807 C   0  0  0  0  0  0  0  0  0  0  0  0
   44.4999    4.2213   10.0919 C   0  0  0  0  0  0  0  0  0  0  0  0
   44.4415    4.0068   11.4737 C   0  0  0  0  0  0  0  0  0  0  0  0
   45.1418    4.8566   12.3408 C   0  0  0  0  0  0  0  0  0  0  0  0
   43.6283    2.8698   11.9708 C   0  0  0  0  0  0  0  0  0  0  0  0
   43.5608    2.8108   13.3134 O   0  0  0  0  0  0  0  0  0  0  0  0
   43.0480    2.0549   11.2772 O   0  0  0  0  0  0  0  0  0  0  0  0
   47.7902    5.0192   13.8345 O   0  0  0  0  0  0  0  0  0  0  0  0
   49.1910    6.7986   15.5503 N   0  0  0  0  0  0  0  0  0  0  0  0
   49.1119    5.5218   16.0326 N   0  0  0  0  0  0  0  0  0  0  0  0
   49.6586    5.3197   17.1938 C   0  0  0  0  0  0  0  0  0  0  0  0
   50.3577    6.2733   18.1122 C   0  0  0  0  0  0  0  0  0  0  0  0
   50.7286    5.4446   19.1661 N   0  0  0  0  0  0  0  0  0  0  0  0
   50.3236    4.1030   19.0213 N   0  0  0  0  0  0  0  0  0  0  0  0
   49.6928    4.0073   17.8882 C   0  0  0  0  0  0  0  0  0  0  0  0
   49.0953    2.7862   17.2977 C   0  0  0  0  0  0  0  0  0  0  0  0
   50.4799    7.4572   17.8681 O   0  0  0  0  0  0  0  0  0  0  0  0
   51.4623    5.8044   20.3253 C   0  0  0  0  0  0  0  0  0  0  0  0
   51.9279    7.1110   20.5301 C   0  0  0  0  0  0  0  0  0  0  0  0
   52.6781    7.4588   21.6724 C   0  0  0  0  0  0  0  0  0  0  0  0
   52.9456    6.4825   22.6500 C   0  0  0  0  0  0  0  0  0  0  0  0
   52.4859    5.1747   22.4471 C   0  0  0  0  0  0  0  0  0  0  0  0
   51.7540    4.8428   21.3016 C   0  0  0  0  0  0  0  0  0  0  0  0
   53.7452    6.7965   23.8834 C   0  0  0  0  0  0  0  0  0  0  0  0
   53.1476    8.8814   21.8305 C   0  0  0  0  0  0  0  0  0  0  0  0
   48.0360    5.4665   16.4431 C   0  0  0  0  0  0  0  0  0  0  0  0
   48.9190    6.5303   17.1047 C   0  0  0  0  0  0  0  0  0  0  0  0
   50.3362    6.1610   17.0580 N   0  0  0  0  0  0  0  0  0  0  0  0
   48.4567    5.2375   15.0981 O   0  0  0  0  0  0  0  0  0  0  0  0
   50.5782    6.9092   16.7714 H   0  0  0  0  0  0  0  0  0  0  0  0
   50.2954    5.5074   15.7138 H   0  0  0  0  0  0  0  0  0  0  0  0
   48.1953    6.9703   17.4194 H   0  0  0  0  0  0  0  0  0  0  0  0
   48.2871    6.9989   15.6431 H   0  0  0  0  0  0  0  0  0  0  0  0
   47.8289    4.6682   15.6389 H   0  0  0  0  0  0  0  0  0  0  0  0
   46.6697    5.4456   16.4739 H   0  0  0  0  0  0  0  0  0  0  0  0
   49.3484    4.5922   17.7519 H   0  0  0  0  0  0  0  0  0  0  0  0
   45.7688    8.6318   11.9162 H   0  0  0  0  0  0  0  0  0  0  0  0
   47.0304   10.1838   13.3427 H   0  0  0  0  0  0  0  0  0  0  0  0
   48.6194    9.3359   15.0227 H   0  0  0  0  0  0  0  0  0  0  0  0
   46.5458    6.9273   10.0275 H   0  0  0  0  0  0  0  0  0  0  0  0
   45.3052    5.4412    8.5073 H   0  0  0  0  0  0  0  0  0  0  0  0
   43.9624    3.5640    9.4113 H   0  0  0  0  0  0  0  0  0  0  0  0
   45.1018    4.6850   13.4147 H   0  0  0  0  0  0  0  0  0  0  0  0
   43.0037    2.0203   13.4803 H   0  0  0  0  0  0  0  0  0  0  0  0
   48.4301    4.9702   14.5796 H   0  0  0  0  0  0  0  0  0  0  0  0
   49.4946    7.5519   16.1823 H   0  0  0  0  0  0  0  0  0  0  0  0
   49.7104    2.4513   16.4580 H   0  0  0  0  0  0  0  0  0  0  0  0
   49.0484    1.9928   18.0494 H   0  0  0  0  0  0  0  0  0  0  0  0
   48.0830    2.9985   16.9427 H   0  0  0  0  0  0  0  0  0  0  0  0
   51.7261    7.8911   19.8008 H   0  0  0  0  0  0  0  0  0  0  0  0
   52.6958    4.3971   23.1803 H   0  0  0  0  0  0  0  0  0  0  0  0
   51.4164    3.8143   21.1873 H   0  0  0  0  0  0  0  0  0  0  0  0
   53.3755    7.7085   24.3625 H   0  0  0  0  0  0  0  0  0  0  0  0
   54.8019    6.9197   23.6251 H   0  0  0  0  0  0  0  0  0  0  0  0
   53.6699    5.9944   24.6243 H   0  0  0  0  0  0  0  0  0  0  0  0
   53.0498    9.4413   20.8926 H   0  0  0  0  0  0  0  0  0  0  0  0
   54.2059    8.9129   22.1092 H   0  0  0  0  0  0  0  0  0  0  0  0
   52.5513    9.3924   22.5958 H   0  0  0  0  0  0  0  0  0  0  0  0
   46.9896    5.7878   16.4307 H   0  0  0  0  0  0  0  0  0  0  0  0
   48.0987    4.5148   16.9812 H   0  0  0  0  0  0  0  0  0  0  0  0
   48.6100    6.6879   18.1422 H   0  0  0  0  0  0  0  0  0  0  0  0
   48.8049    7.4789   16.5703 H   0  0  0  0  0  0  0  0  0  0  0  0
   50.5422    5.8384   16.1078 H   0  0  0  0  0  0  0  0  0  0  0  0
   50.4802    5.3318   17.6345 H   0  0  0  0  0  0  0  0  0  0  0  0
   48.4276    6.0954   14.6387 H   0  0  0  0  0  0  0  0  0  0  0  0
  4  1  1  0
  1  2  1  0
  2  3  1  0
 10 20  1  0
  9 21  1  0
 12 13  2  0
 21 22  1  0
  8  9  2  0
 22 23  2  0
 23 24  1  0
 13 14  1  0
  6  7  2  0
 14 15  2  0
  9 10  1  0
 24 25  1  0
 25 26  1  0
 26 27  2  0
 27 23  1  0
 15 16  1  0
 27 28  1  0
 16 11  2  0
 24 29  2  0
  5 11  1  0
 25 30  1  0
 10  5  2  0
 30 31  2  0
 15 17  1  0
 31 32  1  0
  5  6  1  0
 32 33  2  0
  7  8  1  0
 33 34  1  0
 17 18  1  0
 34 35  2  0
 35 30  1  0
 17 19  2  0
 33 36  1  0
 11 12  1  0
 32 37  1  0
 41 38  1  0
 38 39  1  0
 39 40  1  0
  1 42  1  0
  1 43  1  0
  2 44  1  0
  2 45  1  0
  3 46  1  0
  3 47  1  0
  4 48  1  0
  6 49  1  0
  7 50  1  0
  8 51  1  0
 12 52  1  0
 13 53  1  0
 14 54  1  0
 16 55  1  0
 18 56  1  0
 20 57  1  0
 21 58  1  0
 28 59  1  0
 28 60  1  0
 28 61  1  0
 31 62  1  0
 34 63  1  0
 35 64  1  0
 36 65  1  0
 36 66  1  0
 36 67  1  0
 37 68  1  0
 37 69  1  0
 37 70  1  0
 38 71  1  0
 38 72  1  0
 39 73  1  0
 39 74  1  0
 40 75  1  0
 40 76  1  0
 41 77  1  0
M  END
> <Uni-Dock RESULT> 
ENERGY=   -5.267  LOWER_BOUND=    6.621  UPPER_BOUND=   11.092
INTER + INTRA:          -5.267
INTER:                  -5.267
INTRA:                   0.000
UNBOUND:                 0.000

$$$$

     RDKit          3D

 77 78  0  0  0  0  0  0  0  0999 V2000
   47.9773    9.4452   16.6290 C   0  0  0  0  0  0  0  0  0  0  0  0
   49.3748    9.7807   16.1006 C   0  0  0  0  0  0  0  0  0  0  0  0
   49.5979   11.2342   16.1494 N   0  0  0  0  0  0  0  0  0  0  0  0
   47.8033   10.0339   17.9158 O   0  0  0  0  0  0  0  0  0  0  0  0
   49.9352   10.5703   11.9863 C   0  0  0  0  0  0  0  0  0  0  0  0
   50.6054    9.4197   11.5312 C   0  0  0  0  0  0  0  0  0  0  0  0
   50.6032    8.2356   12.2710 C   0  0  0  0  0  0  0  0  0  0  0  0
   49.9397    8.1793   13.4975 C   0  0  0  0  0  0  0  0  0  0  0  0
   49.2964    9.3104   14.0164 C   0  0  0  0  0  0  0  0  0  0  0  0
   49.2839   10.4852   13.2329 C   0  0  0  0  0  0  0  0  0  0  0  0
   49.9253   11.7931   11.1559 C   0  0  0  0  0  0  0  0  0  0  0  0
   49.5267   11.7398    9.8067 C   0  0  0  0  0  0  0  0  0  0  0  0
   49.5209   12.8842    9.0061 C   0  0  0  0  0  0  0  0  0  0  0  0
   49.9140   14.1083    9.5430 C   0  0  0  0  0  0  0  0  0  0  0  0
   50.3162   14.1901   10.8811 C   0  0  0  0  0  0  0  0  0  0  0  0
   50.3220   13.0376   11.6785 C   0  0  0  0  0  0  0  0  0  0  0  0
   50.7255   15.5152   11.4080 C   0  0  0  0  0  0  0  0  0  0  0  0
   51.1847   15.4665   12.6719 O   0  0  0  0  0  0  0  0  0  0  0  0
   50.6849   16.5665   10.7956 O   0  0  0  0  0  0  0  0  0  0  0  0
   48.5739   11.5712   13.6948 O   0  0  0  0  0  0  0  0  0  0  0  0
   48.6109    9.1967   15.2546 N   0  0  0  0  0  0  0  0  0  0  0  0
   48.3270   10.3219   15.9772 N   0  0  0  0  0  0  0  0  0  0  0  0
   48.1426   10.1457   17.2513 C   0  0  0  0  0  0  0  0  0  0  0  0
   48.2066    8.8963   18.0736 C   0  0  0  0  0  0  0  0  0  0  0  0
   47.8923    9.3668   19.3443 N   0  0  0  0  0  0  0  0  0  0  0  0
   47.6658   10.7557   19.4107 N   0  0  0  0  0  0  0  0  0  0  0  0
   47.8140   11.2317   18.2096 C   0  0  0  0  0  0  0  0  0  0  0  0
   47.6603   12.6424   17.7815 C   0  0  0  0  0  0  0  0  0  0  0  0
   48.4919    7.8113   17.6070 O   0  0  0  0  0  0  0  0  0  0  0  0
   47.7679    8.6073   20.5356 C   0  0  0  0  0  0  0  0  0  0  0  0
   47.9473    7.2167   20.5486 C   0  0  0  0  0  0  0  0  0  0  0  0
   47.7987    6.4622   21.7306 C   0  0  0  0  0  0  0  0  0  0  0  0
   47.4911    7.1176   22.9374 C   0  0  0  0  0  0  0  0  0  0  0  0
   47.3067    8.5064   22.9280 C   0  0  0  0  0  0  0  0  0  0  0  0
   47.4450    9.2389   21.7438 C   0  0  0  0  0  0  0  0  0  0  0  0
   47.3152    6.3624   24.2250 C   0  0  0  0  0  0  0  0  0  0  0  0
   48.0058    4.9712   21.6743 C   0  0  0  0  0  0  0  0  0  0  0  0
   49.3630   10.8086   16.1157 C   0  0  0  0  0  0  0  0  0  0  0  0
   49.2308    9.4044   16.7157 C   0  0  0  0  0  0  0  0  0  0  0  0
   47.8476    9.1089   17.0987 N   0  0  0  0  0  0  0  0  0  0  0  0
   48.4846   10.9574   15.0001 O   0  0  0  0  0  0  0  0  0  0  0  0
   47.8440    8.3630   16.7190 H   0  0  0  0  0  0  0  0  0  0  0  0
   47.1998    9.8406   15.9671 H   0  0  0  0  0  0  0  0  0  0  0  0
   50.1283    9.3029   16.7380 H   0  0  0  0  0  0  0  0  0  0  0  0
   49.4990    9.4104   15.0777 H   0  0  0  0  0  0  0  0  0  0  0  0
   48.9720   11.6902   15.4858 H   0  0  0  0  0  0  0  0  0  0  0  0
   50.5429   11.4306   15.8177 H   0  0  0  0  0  0  0  0  0  0  0  0
   48.2991   10.8769   17.8660 H   0  0  0  0  0  0  0  0  0  0  0  0
   51.1387    9.4380   10.5822 H   0  0  0  0  0  0  0  0  0  0  0  0
   51.1146    7.3561   11.8863 H   0  0  0  0  0  0  0  0  0  0  0  0
   49.9398    7.2419   14.0479 H   0  0  0  0  0  0  0  0  0  0  0  0
   49.1981   10.7961    9.3714 H   0  0  0  0  0  0  0  0  0  0  0  0
   49.2006   12.8191    7.9692 H   0  0  0  0  0  0  0  0  0  0  0  0
   49.9028   14.9988    8.9178 H   0  0  0  0  0  0  0  0  0  0  0  0
   50.6281   13.1032   12.7208 H   0  0  0  0  0  0  0  0  0  0  0  0
   51.4056   16.4016   12.8716 H   0  0  0  0  0  0  0  0  0  0  0  0
   48.2380   11.2579   14.5643 H   0  0  0  0  0  0  0  0  0  0  0  0
   48.8464    8.3291   15.7555 H   0  0  0  0  0  0  0  0  0  0  0  0
   46.7320   12.7497   17.2137 H   0  0  0  0  0  0  0  0  0  0  0  0
   47.6247   13.2964   18.6577 H   0  0  0  0  0  0  0  0  0  0  0  0
   48.5051   12.9372   17.1529 H   0  0  0  0  0  0  0  0  0  0  0  0
   48.1992    6.6828   19.6361 H   0  0  0  0  0  0  0  0  0  0  0  0
   47.0501    9.0342   23.8455 H   0  0  0  0  0  0  0  0  0  0  0  0
   47.2936   10.3160   21.7849 H   0  0  0  0  0  0  0  0  0  0  0  0
   48.1459    5.6672   24.3825 H   0  0  0  0  0  0  0  0  0  0  0  0
   46.3708    5.8089   24.2102 H   0  0  0  0  0  0  0  0  0  0  0  0
   47.2974    7.0378   25.0860 H   0  0  0  0  0  0  0  0  0  0  0  0
   48.0150    4.6076   20.6397 H   0  0  0  0  0  0  0  0  0  0  0  0
   47.1935    4.4462   22.1872 H   0  0  0  0  0  0  0  0  0  0  0  0
   48.9639    4.7059   22.1369 H   0  0  0  0  0  0  0  0  0  0  0  0
   50.3886   10.9881   15.7778 H   0  0  0  0  0  0  0  0  0  0  0  0
   49.1029   11.5758   16.8526 H   0  0  0  0  0  0  0  0  0  0  0  0
   49.8874    9.2998   17.5843 H   0  0  0  0  0  0  0  0  0  0  0  0
   49.5351    8.6623   15.9706 H   0  0  0  0  0  0  0  0  0  0  0  0
   47.2422    9.3977   16.3245 H   0  0  0  0  0  0  0  0  0  0  0  0
   47.5779    9.7272   17.8640 H   0  0  0  0  0  0  0  0  0  0  0  0
   48.7035   10.2510   14.3668 H   0  0  0  0  0  0  0  0  0  0  0  0
  4  1  1  0
  1  2  1  0
  2  3  1  0
 10 20  1  0
  9 21  1  0
 12 13  2  0
 21 22  1  0
  8  9  2  0
 22 23  2  0
 23 24  1  0
 13 14  1  0
  6  7  2  0
 14 15  2  0
  9 10  1  0
 24 25  1  0
 25 26  1  0
 26 27  2  0
 27 23  1  0
 15 16  1  0
 27 28  1  0
 16 11  2  0
 24 29  2  0
  5 11  1  0
 25 30  1  0
 10  5  2  0
 30 31  2  0
 15 17  1  0
 31 32  1  0
  5  6  1  0
 32 33  2  0
  7  8  1  0
 33 34  1  0
 17 18  1  0
 34 35  2  0
 35 30  1  0
 17 19  2  0
 33 36  1  0
 11 12  1  0
 32 37  1  0
 41 38  1  0
 38 39  1  0
 39 40  1  0
  1 42  1  0
  1 43  1  0
  2 44  1  0
  2 45  1  0
  3 46  1  0
  3 47  1  0
  4 48  1  0
  6 49  1  0
  7 50  1  0
  8 51  1  0
 12 52  1  0
 13 53  1  0
 14 54  1  0
 16 55  1  0
 18 56  1  0
 20 57  1  0
 21 58  1  0
 28 59  1  0
 28 60  1  0
 28 61  1  0
 31 62  1  0
 34 63  1  0
 35 64  1  0
 36 65  1  0
 36 66  1  0
 36 67  1  0
 37 68  1  0
 37 69  1  0
 37 70  1  0
 38 71  1  0
 38 72  1  0
 39 73  1  0
 39 74  1  0
 40 75  1  0
 40 76  1  0
 41 77  1  0
M  END
> <Uni-Dock RESULT> 
ENERGY=   -5.131  LOWER_BOUND=    6.434  UPPER_BOUND=   10.745
INTER + INTRA:          -5.131
INTER:                  -5.131
INTRA:                   0.000
UNBOUND:                 0.000

$$$$

     RDKit          3D

 77 78  0  0  0  0  0  0  0  0999 V2000
   47.8732    8.6037   14.4880 C   0  0  0  0  0  0  0  0  0  0  0  0
   47.6818    8.2530   13.0097 C   0  0  0  0  0  0  0  0  0  0  0  0
   48.0532    9.3999   12.1662 N   0  0  0  0  0  0  0  0  0  0  0  0
   49.1972    9.0918   14.6917 O   0  0  0  0  0  0  0  0  0  0  0  0
   43.9714    9.0073   11.1315 C   0  0  0  0  0  0  0  0  0  0  0  0
   43.4289    7.7186   10.9724 C   0  0  0  0  0  0  0  0  0  0  0  0
   43.9103    6.6309   11.7034 C   0  0  0  0  0  0  0  0  0  0  0  0
   44.9617    6.8050   12.6045 C   0  0  0  0  0  0  0  0  0  0  0  0
   45.5668    8.0582   12.7657 C   0  0  0  0  0  0  0  0  0  0  0  0
   45.0387    9.1488   12.0404 C   0  0  0  0  0  0  0  0  0  0  0  0
   43.4080   10.1421   10.3701 C   0  0  0  0  0  0  0  0  0  0  0  0
   42.0249   10.4045   10.3936 C   0  0  0  0  0  0  0  0  0  0  0  0
   41.4758   11.4669    9.6721 C   0  0  0  0  0  0  0  0  0  0  0  0
   42.3034   12.2905    8.9121 C   0  0  0  0  0  0  0  0  0  0  0  0
   43.6819   12.0520    8.8697 C   0  0  0  0  0  0  0  0  0  0  0  0
   44.2265   10.9828    9.5940 C   0  0  0  0  0  0  0  0  0  0  0  0
   44.5226   12.9561    8.0470 C   0  0  0  0  0  0  0  0  0  0  0  0
   45.8144   12.5826    7.9971 O   0  0  0  0  0  0  0  0  0  0  0  0
   44.1303   13.9390    7.4454 O   0  0  0  0  0  0  0  0  0  0  0  0
   45.5679   10.4003   12.2648 O   0  0  0  0  0  0  0  0  0  0  0  0
   46.6143    8.1923   13.7147 N   0  0  0  0  0  0  0  0  0  0  0  0
   47.4794    9.2469   13.6238 N   0  0  0  0  0  0  0  0  0  0  0  0
   48.6398    9.0779   14.1834 C   0  0  0  0  0  0  0  0  0  0  0  0
   49.1999    7.8941   14.9088 C   0  0  0  0  0  0  0  0  0  0  0  0
   50.4600    8.3499   15.2821 N   0  0  0  0  0  0  0  0  0  0  0  0
   50.7544    9.6600   14.8557 N   0  0  0  0  0  0  0  0  0  0  0  0
   49.7164   10.1007   14.2081 C   0  0  0  0  0  0  0  0  0  0  0  0
   49.5515   11.4354   13.5848 C   0  0  0  0  0  0  0  0  0  0  0  0
   48.5897    6.8522   15.0447 O   0  0  0  0  0  0  0  0  0  0  0  0
   51.4375    7.6526   16.0368 C   0  0  0  0  0  0  0  0  0  0  0  0
   51.2108    6.3575   16.5241 C   0  0  0  0  0  0  0  0  0  0  0  0
   52.1759    5.6771   17.2948 C   0  0  0  0  0  0  0  0  0  0  0  0
   53.4117    6.2953   17.5616 C   0  0  0  0  0  0  0  0  0  0  0  0
   53.6407    7.5910   17.0802 C   0  0  0  0  0  0  0  0  0  0  0  0
   52.6672    8.2576   16.3279 C   0  0  0  0  0  0  0  0  0  0  0  0
   54.4736    5.6189   18.3826 C   0  0  0  0  0  0  0  0  0  0  0  0
   51.8678    4.2872   17.7870 C   0  0  0  0  0  0  0  0  0  0  0  0
   47.8951    9.1489   12.5529 C   0  0  0  0  0  0  0  0  0  0  0  0
   48.1752    7.9457   13.4602 C   0  0  0  0  0  0  0  0  0  0  0  0
   48.2368    8.3364   14.8712 N   0  0  0  0  0  0  0  0  0  0  0  0
   46.6900    9.8025   12.9517 O   0  0  0  0  0  0  0  0  0  0  0  0
   47.7245    7.7231   15.1200 H   0  0  0  0  0  0  0  0  0  0  0  0
   47.1720    9.3837   14.8024 H   0  0  0  0  0  0  0  0  0  0  0  0
   48.3390    7.4154   12.7474 H   0  0  0  0  0  0  0  0  0  0  0  0
   46.6459    7.9565   12.8152 H   0  0  0  0  0  0  0  0  0  0  0  0
   47.3895   10.1581   12.3233 H   0  0  0  0  0  0  0  0  0  0  0  0
   47.9424    9.1341   11.1870 H   0  0  0  0  0  0  0  0  0  0  0  0
   49.4034    9.5837   13.8704 H   0  0  0  0  0  0  0  0  0  0  0  0
   42.6140    7.5522   10.2698 H   0  0  0  0  0  0  0  0  0  0  0  0
   43.4600    5.6494   11.5732 H   0  0  0  0  0  0  0  0  0  0  0  0
   45.3092    5.9459   13.1727 H   0  0  0  0  0  0  0  0  0  0  0  0
   41.3616    9.7840   10.9960 H   0  0  0  0  0  0  0  0  0  0  0  0
   40.4057   11.6546    9.7131 H   0  0  0  0  0  0  0  0  0  0  0  0
   41.8727   13.1207    8.3559 H   0  0  0  0  0  0  0  0  0  0  0  0
   45.2993   10.8022    9.5663 H   0  0  0  0  0  0  0  0  0  0  0  0
   46.2295   13.2683    7.4309 H   0  0  0  0  0  0  0  0  0  0  0  0
   46.2842   10.2207   12.9141 H   0  0  0  0  0  0  0  0  0  0  0  0
   46.9702    7.2824   14.0378 H   0  0  0  0  0  0  0  0  0  0  0  0
   48.8575   12.0317   14.1835 H   0  0  0  0  0  0  0  0  0  0  0  0
   50.5174   11.9466   13.5368 H   0  0  0  0  0  0  0  0  0  0  0  0
   49.1558   11.3290   12.5710 H   0  0  0  0  0  0  0  0  0  0  0  0
   50.2723    5.8473   16.3235 H   0  0  0  0  0  0  0  0  0  0  0  0
   54.5819    8.0979   17.2889 H   0  0  0  0  0  0  0  0  0  0  0  0
   52.8899    9.2626   15.9739 H   0  0  0  0  0  0  0  0  0  0  0  0
   54.6397    4.5951   18.0328 H   0  0  0  0  0  0  0  0  0  0  0  0
   54.1806    5.6037   19.4373 H   0  0  0  0  0  0  0  0  0  0  0  0
   55.4323    6.1413   18.3058 H   0  0  0  0  0  0  0  0  0  0  0  0
   50.8011    4.0540   17.6844 H   0  0  0  0  0  0  0  0  0  0  0  0
   52.1129    4.1876   18.8494 H   0  0  0  0  0  0  0  0  0  0  0  0
   52.4349    3.5481   17.2088 H   0  0  0  0  0  0  0  0  0  0  0  0
   47.7897    8.8294   11.5112 H   0  0  0  0  0  0  0  0  0  0  0  0
   48.7083    9.8802   12.6092 H   0  0  0  0  0  0  0  0  0  0  0  0
   49.1107    7.4600   13.1678 H   0  0  0  0  0  0  0  0  0  0  0  0
   47.3670    7.2153   13.3526 H   0  0  0  0  0  0  0  0  0  0  0  0
   47.4376    8.9488   15.0594 H   0  0  0  0  0  0  0  0  0  0  0  0
   49.0466    8.9408   15.0111 H   0  0  0  0  0  0  0  0  0  0  0  0
   45.9811    9.1356   12.9287 H   0  0  0  0  0  0  0  0  0  0  0  0
  4  1  1  0
  1  2  1  0
  2  3  1  0
 10 20  1  0
  9 21  1  0
 12 13  2  0
 21 22  1  0
  8  9  2  0
 22 23  2  0
 23 24  1  0
 13 14  1  0
  6  7  2  0
 14 15  2  0
  9 10  1  0
 24 25  1  0
 25 26  1  0
 26 27  2  0
 27 23  1  0
 15 16  1  0
 27 28  1  0
 16 11  2  0
 24 29  2  0
  5 11  1  0
 25 30  1  0
 10  5  2  0
 30 31  2  0
 15 17  1  0
 31 32  1  0
  5  6  1  0
 32 33  2  0
  7  8  1  0
 33 34  1  0
 17 18  1  0
 34 35  2  0
 35 30  1  0
 17 19  2  0
 33 36  1  0
 11 12  1  0
 32 37  1  0
 41 38  1  0
 38 39  1  0
 39 40  1  0
  1 42  1  0
  1 43  1  0
  2 44  1  0
  2 45  1  0
  3 46  1  0
  3 47  1  0
  4 48  1  0
  6 49  1  0
  7 50  1  0
  8 51  1  0
 12 52  1  0
 13 53  1  0
 14 54  1  0
 16 55  1  0
 18 56  1  0
 20 57  1  0
 21 58  1  0
 28 59  1  0
 28 60  1  0
 28 61  1  0
 31 62  1  0
 34 63  1  0
 35 64  1  0
 36 65  1  0
 36 66  1  0
 36 67  1  0
 37 68  1  0
 37 69  1  0
 37 70  1  0
 38 71  1  0
 38 72  1  0
 39 73  1  0
 39 74  1  0
 40 75  1  0
 40 76  1  0
 41 77  1  0
M  END
> <Uni-Dock RESULT> 
ENERGY=   -5.009  LOWER_BOUND=    3.986  UPPER_BOUND=    9.804
INTER + INTRA:          -5.009
INTER:                  -5.009
INTRA:                   0.000
UNBOUND:                 0.000

$$$$

     RDKit          3D

 77 78  0  0  0  0  0  0  0  0999 V2000
   49.0905    9.2387   13.1211 C   0  0  0  0  0  0  0  0  0  0  0  0
   47.8138    8.7638   13.8207 C   0  0  0  0  0  0  0  0  0  0  0  0
   47.7724    9.2767   15.1991 N   0  0  0  0  0  0  0  0  0  0  0  0
   49.1942   10.6560   13.2351 O   0  0  0  0  0  0  0  0  0  0  0  0
   47.8165    5.1159   15.9554 C   0  0  0  0  0  0  0  0  0  0  0  0
   47.0606    4.2643   15.1286 C   0  0  0  0  0  0  0  0  0  0  0  0
   46.8310    4.5692   13.7856 C   0  0  0  0  0  0  0  0  0  0  0  0
   47.3423    5.7473   13.2393 C   0  0  0  0  0  0  0  0  0  0  0  0
   48.0622    6.6508   14.0318 C   0  0  0  0  0  0  0  0  0  0  0  0
   48.3099    6.3026   15.3778 C   0  0  0  0  0  0  0  0  0  0  0  0
   48.0728    4.7392   17.3616 C   0  0  0  0  0  0  0  0  0  0  0  0
   48.6083    3.4764   17.6789 C   0  0  0  0  0  0  0  0  0  0  0  0
   48.8473    3.1017   19.0030 C   0  0  0  0  0  0  0  0  0  0  0  0
   48.5553    3.9874   20.0380 C   0  0  0  0  0  0  0  0  0  0  0  0
   48.0211    5.2489   19.7515 C   0  0  0  0  0  0  0  0  0  0  0  0
   47.7814    5.6180   18.4208 C   0  0  0  0  0  0  0  0  0  0  0  0
   47.7271    6.1576   20.8867 C   0  0  0  0  0  0  0  0  0  0  0  0
   47.1284    7.3025   20.5105 O   0  0  0  0  0  0  0  0  0  0  0  0
   47.9679    5.9314   22.0584 O   0  0  0  0  0  0  0  0  0  0  0  0
   49.0961    7.1417   16.1358 O   0  0  0  0  0  0  0  0  0  0  0  0
   48.5865    7.8223   13.4247 N   0  0  0  0  0  0  0  0  0  0  0  0
   48.9288    8.8930   14.2028 N   0  0  0  0  0  0  0  0  0  0  0  0
   48.9474   10.0459   13.6040 C   0  0  0  0  0  0  0  0  0  0  0  0
   48.6352   10.4027   12.1839 C   0  0  0  0  0  0  0  0  0  0  0  0
   48.8640   11.7747   12.1706 N   0  0  0  0  0  0  0  0  0  0  0  0
   49.2557   12.3110   13.4130 N   0  0  0  0  0  0  0  0  0  0  0  0
   49.3027   11.3283   14.2634 C   0  0  0  0  0  0  0  0  0  0  0  0
   49.6801   11.4017   15.6949 C   0  0  0  0  0  0  0  0  0  0  0  0
   48.2683    9.5863   11.3621 O   0  0  0  0  0  0  0  0  0  0  0  0
   48.7587   12.6529   11.0619 C   0  0  0  0  0  0  0  0  0  0  0  0
   48.4045   12.1937    9.7853 C   0  0  0  0  0  0  0  0  0  0  0  0
   48.3247   13.0663    8.6806 C   0  0  0  0  0  0  0  0  0  0  0  0
   48.5774   14.4389    8.8615 C   0  0  0  0  0  0  0  0  0  0  0  0
   48.9359   14.9012   10.1345 C   0  0  0  0  0  0  0  0  0  0  0  0
   49.0233   14.0199   11.2178 C   0  0  0  0  0  0  0  0  0  0  0  0
   48.5128   15.4124    7.7182 C   0  0  0  0  0  0  0  0  0  0  0  0
   47.9382   12.5069    7.3364 C   0  0  0  0  0  0  0  0  0  0  0  0
   47.9539    9.1190   14.7753 C   0  0  0  0  0  0  0  0  0  0  0  0
   47.8401    9.2275   13.2506 C   0  0  0  0  0  0  0  0  0  0  0  0
   49.1238    9.5778   12.6370 N   0  0  0  0  0  0  0  0  0  0  0  0
   48.9620    8.1732   15.1325 O   0  0  0  0  0  0  0  0  0  0  0  0
   49.0750    8.9737   12.0597 H   0  0  0  0  0  0  0  0  0  0  0  0
   49.9803    8.7954   13.5804 H   0  0  0  0  0  0  0  0  0  0  0  0
   46.9401    9.1583   13.2884 H   0  0  0  0  0  0  0  0  0  0  0  0
   47.7577    7.6703   13.8192 H   0  0  0  0  0  0  0  0  0  0  0  0
   48.5205    8.8423   15.7392 H   0  0  0  0  0  0  0  0  0  0  0  0
   46.9024    8.9696   15.6355 H   0  0  0  0  0  0  0  0  0  0  0  0
   48.8176   10.8567   14.1165 H   0  0  0  0  0  0  0  0  0  0  0  0
   46.6422    3.3431   15.5307 H   0  0  0  0  0  0  0  0  0  0  0  0
   46.2583    3.8836   13.1652 H   0  0  0  0  0  0  0  0  0  0  0  0
   47.1627    5.9553   12.1876 H   0  0  0  0  0  0  0  0  0  0  0  0
   48.8609    2.7751   16.8838 H   0  0  0  0  0  0  0  0  0  0  0  0
   49.2696    2.1241   19.2222 H   0  0  0  0  0  0  0  0  0  0  0  0
   48.7483    3.6941   21.0680 H   0  0  0  0  0  0  0  0  0  0  0  0
   47.3727    6.6017   18.1983 H   0  0  0  0  0  0  0  0  0  0  0  0
   47.0068    7.7860   21.3559 H   0  0  0  0  0  0  0  0  0  0  0  0
   49.2913    7.8780   15.5138 H   0  0  0  0  0  0  0  0  0  0  0  0
   48.1892    7.9920   12.4907 H   0  0  0  0  0  0  0  0  0  0  0  0
   50.6716   10.9613   15.8313 H   0  0  0  0  0  0  0  0  0  0  0  0
   49.7009   12.4453   16.0222 H   0  0  0  0  0  0  0  0  0  0  0  0
   48.9541   10.8541   16.3022 H   0  0  0  0  0  0  0  0  0  0  0  0
   48.1896   11.1419    9.6156 H   0  0  0  0  0  0  0  0  0  0  0  0
   49.1541   15.9560   10.2962 H   0  0  0  0  0  0  0  0  0  0  0  0
   49.3043   14.4245   12.1885 H   0  0  0  0  0  0  0  0  0  0  0  0
   47.5885   15.2783    7.1474 H   0  0  0  0  0  0  0  0  0  0  0  0
   49.3754   15.2751    7.0582 H   0  0  0  0  0  0  0  0  0  0  0  0
   48.5206   16.4478    8.0731 H   0  0  0  0  0  0  0  0  0  0  0  0
   47.9975   11.4119    7.3270 H   0  0  0  0  0  0  0  0  0  0  0  0
   48.6158   12.8674    6.5557 H   0  0  0  0  0  0  0  0  0  0  0  0
   46.9090   12.7941    7.0903 H   0  0  0  0  0  0  0  0  0  0  0  0
   47.0030    8.7954   15.2103 H   0  0  0  0  0  0  0  0  0  0  0  0
   48.2258   10.0830   15.2177 H   0  0  0  0  0  0  0  0  0  0  0  0
   47.0835    9.9693   12.9787 H   0  0  0  0  0  0  0  0  0  0  0  0
   47.5287    8.2612   12.8411 H   0  0  0  0  0  0  0  0  0  0  0  0
   49.8428    8.9826   13.0591 H   0  0  0  0  0  0  0  0  0  0  0  0
   49.3833   10.5200   12.9297 H   0  0  0  0  0  0  0  0  0  0  0  0
   48.7269    7.3294   14.7075 H   0  0  0  0  0  0  0  0  0  0  0  0
  4  1  1  0
  1  2  1  0
  2  3  1  0
 10 20  1  0
  9 21  1  0
 12 13  2  0
 21 22  1  0
  8  9  2  0
 22 23  2  0
 23 24  1  0
 13 14  1  0
  6  7  2  0
 14 15  2  0
  9 10  1  0
 24 25  1  0
 25 26  1  0
 26 27  2  0
 27 23  1  0
 15 16  1  0
 27 28  1  0
 16 11  2  0
 24 29  2  0
  5 11  1  0
 25 30  1  0
 10  5  2  0
 30 31  2  0
 15 17  1  0
 31 32  1  0
  5  6  1  0
 32 33  2  0
  7  8  1  0
 33 34  1  0
 17 18  1  0
 34 35  2  0
 35 30  1  0
 17 19  2  0
 33 36  1  0
 11 12  1  0
 32 37  1  0
 41 38  1  0
 38 39  1  0
 39 40  1  0
  1 42  1  0
  1 43  1  0
  2 44  1  0
  2 45  1  0
  3 46  1  0
  3 47  1  0
  4 48  1  0
  6 49  1  0
  7 50  1  0
  8 51  1  0
 12 52  1  0
 13 53  1  0
 14 54  1  0
 16 55  1  0
 18 56  1  0
 20 57  1  0
 21 58  1  0
 28 59  1  0
 28 60  1  0
 28 61  1  0
 31 62  1  0
 34 63  1  0
 35 64  1  0
 36 65  1  0
 36 66  1  0
 36 67  1  0
 37 68  1  0
 37 69  1  0
 37 70  1  0
 38 71  1  0
 38 72  1  0
 39 73  1  0
 39 74  1  0
 40 75  1  0
 40 76  1  0
 41 77  1  0
M  END
> <Uni-Dock RESULT> 
ENERGY=   -4.869  LOWER_BOUND=    4.992  UPPER_BOUND=    6.836
INTER + INTRA:          -4.869
INTER:                  -4.869
INTRA:                   0.000
UNBOUND:                 0.000

$$$$

     RDKit          3D

 77 78  0  0  0  0  0  0  0  0999 V2000
   44.1552   11.1838   11.6128 C   0  0  0  0  0  0  0  0  0  0  0  0
   44.0821   11.5160   10.1197 C   0  0  0  0  0  0  0  0  0  0  0  0
   45.2262   12.3560    9.7324 N   0  0  0  0  0  0  0  0  0  0  0  0
   45.4335   10.6282   11.9125 O   0  0  0  0  0  0  0  0  0  0  0  0
   42.0369   14.9839    8.8333 C   0  0  0  0  0  0  0  0  0  0  0  0
   40.8694   14.4635    8.2449 C   0  0  0  0  0  0  0  0  0  0  0  0
   40.4415   13.1604    8.5059 C   0  0  0  0  0  0  0  0  0  0  0  0
   41.1840   12.3379    9.3544 C   0  0  0  0  0  0  0  0  0  0  0  0
   42.3780   12.7930    9.9288 C   0  0  0  0  0  0  0  0  0  0  0  0
   42.7705   14.1259    9.6764 C   0  0  0  0  0  0  0  0  0  0  0  0
   42.4359   16.3818    8.5653 C   0  0  0  0  0  0  0  0  0  0  0  0
   41.5219   17.4362    8.7522 C   0  0  0  0  0  0  0  0  0  0  0  0
   41.8802   18.7613    8.4943 C   0  0  0  0  0  0  0  0  0  0  0  0
   43.1651   19.0573    8.0442 C   0  0  0  0  0  0  0  0  0  0  0  0
   44.0937   18.0285    7.8485 C   0  0  0  0  0  0  0  0  0  0  0  0
   43.7271   16.7007    8.1070 C   0  0  0  0  0  0  0  0  0  0  0  0
   45.4495   18.3928    7.3688 C   0  0  0  0  0  0  0  0  0  0  0  0
   46.2310   17.3257    7.1215 O   0  0  0  0  0  0  0  0  0  0  0  0
   45.8577   19.5250    7.1856 O   0  0  0  0  0  0  0  0  0  0  0  0
   43.8927   14.6082   10.3128 O   0  0  0  0  0  0  0  0  0  0  0  0
   43.0841   11.9298   10.8075 N   0  0  0  0  0  0  0  0  0  0  0  0
   44.4078   12.1578   11.0620 N   0  0  0  0  0  0  0  0  0  0  0  0
   45.0932   11.1293   11.4627 C   0  0  0  0  0  0  0  0  0  0  0  0
   44.6691    9.7100   11.6797 C   0  0  0  0  0  0  0  0  0  0  0  0
   45.8456    9.1192   12.1288 N   0  0  0  0  0  0  0  0  0  0  0  0
   46.9481    9.9940   12.1927 N   0  0  0  0  0  0  0  0  0  0  0  0
   46.5386   11.1649   11.8026 C   0  0  0  0  0  0  0  0  0  0  0  0
   47.3394   12.4091   11.7154 C   0  0  0  0  0  0  0  0  0  0  0  0
   43.5413    9.3156   11.4588 O   0  0  0  0  0  0  0  0  0  0  0  0
   46.0324    7.7713   12.5285 C   0  0  0  0  0  0  0  0  0  0  0  0
   44.9794    6.8454   12.5233 C   0  0  0  0  0  0  0  0  0  0  0  0
   45.1638    5.5124   12.9447 C   0  0  0  0  0  0  0  0  0  0  0  0
   46.4405    5.0852   13.3549 C   0  0  0  0  0  0  0  0  0  0  0  0
   47.4944    6.0083   13.3657 C   0  0  0  0  0  0  0  0  0  0  0  0
   47.2916    7.3310   12.9568 C   0  0  0  0  0  0  0  0  0  0  0  0
   46.6922    3.6781   13.8196 C   0  0  0  0  0  0  0  0  0  0  0  0
   43.9896    4.5693   12.9138 C   0  0  0  0  0  0  0  0  0  0  0  0
   44.8774   12.1580   10.0090 C   0  0  0  0  0  0  0  0  0  0  0  0
   44.1899   10.8458   10.4024 C   0  0  0  0  0  0  0  0  0  0  0  0
   44.2001   10.6450   11.8538 N   0  0  0  0  0  0  0  0  0  0  0  0
   44.2645   13.2604   10.6782 O   0  0  0  0  0  0  0  0  0  0  0  0
   43.3851   10.4573   11.8887 H   0  0  0  0  0  0  0  0  0  0  0  0
   44.0244   12.0830   12.2238 H   0  0  0  0  0  0  0  0  0  0  0  0
   44.1340   10.5877    9.5383 H   0  0  0  0  0  0  0  0  0  0  0  0
   43.1404   12.0223    9.8834 H   0  0  0  0  0  0  0  0  0  0  0  0
   45.1418   13.2649   10.1872 H   0  0  0  0  0  0  0  0  0  0  0  0
   45.1699   12.5422    8.7304 H   0  0  0  0  0  0  0  0  0  0  0  0
   46.0497   11.1016   11.3165 H   0  0  0  0  0  0  0  0  0  0  0  0
   40.2756   15.0799    7.5720 H   0  0  0  0  0  0  0  0  0  0  0  0
   39.5253   12.7903    8.0514 H   0  0  0  0  0  0  0  0  0  0  0  0
   40.8225   11.3322    9.5537 H   0  0  0  0  0  0  0  0  0  0  0  0
   40.5173   17.2291    9.1209 H   0  0  0  0  0  0  0  0  0  0  0  0
   41.1593   19.5591    8.6546 H   0  0  0  0  0  0  0  0  0  0  0  0
   43.4425   20.0914    7.8498 H   0  0  0  0  0  0  0  0  0  0  0  0
   44.4518   15.9020    7.9614 H   0  0  0  0  0  0  0  0  0  0  0  0
   47.0762   17.7249    6.8226 H   0  0  0  0  0  0  0  0  0  0  0  0
   44.2113   13.8254   10.8155 H   0  0  0  0  0  0  0  0  0  0  0  0
   42.7459   10.9590   10.7599 H   0  0  0  0  0  0  0  0  0  0  0  0
   47.0479   13.0851   12.5239 H   0  0  0  0  0  0  0  0  0  0  0  0
   48.4039   12.1748   11.8075 H   0  0  0  0  0  0  0  0  0  0  0  0
   47.1661   12.8995   10.7535 H   0  0  0  0  0  0  0  0  0  0  0  0
   43.9849    7.1403   12.1989 H   0  0  0  0  0  0  0  0  0  0  0  0
   48.4874    5.7067   13.6963 H   0  0  0  0  0  0  0  0  0  0  0  0
   48.1401    8.0124   12.9810 H   0  0  0  0  0  0  0  0  0  0  0  0
   46.2691    2.9560   13.1142 H   0  0  0  0  0  0  0  0  0  0  0  0
   46.2521    3.5249   14.8103 H   0  0  0  0  0  0  0  0  0  0  0  0
   47.7635    3.4652   13.8894 H   0  0  0  0  0  0  0  0  0  0  0  0
   43.0447    5.1112   12.7876 H   0  0  0  0  0  0  0  0  0  0  0  0
   43.9126    4.0132   13.8537 H   0  0  0  0  0  0  0  0  0  0  0  0
   44.0928    3.8660   12.0789 H   0  0  0  0  0  0  0  0  0  0  0  0
   44.8048   12.3221    8.9292 H   0  0  0  0  0  0  0  0  0  0  0  0
   45.9368   12.1439   10.2858 H   0  0  0  0  0  0  0  0  0  0  0  0
   44.6754   10.0000    9.9068 H   0  0  0  0  0  0  0  0  0  0  0  0
   43.1448   10.8732   10.0780 H   0  0  0  0  0  0  0  0  0  0  0  0
   43.9167   11.5266   12.2916 H   0  0  0  0  0  0  0  0  0  0  0  0
   45.1639   10.5172   12.1625 H   0  0  0  0  0  0  0  0  0  0  0  0
   43.3181   13.2436   10.4506 H   0  0  0  0  0  0  0  0  0  0  0  0
  4  1  1  0
  1  2  1  0
  2  3  1  0
 10 20  1  0
  9 21  1  0
 12 13  2  0
 21 22  1  0
  8  9  2  0
 22 23  2  0
 23 24  1  0
 13 14  1  0
  6  7  2  0
 14 15  2  0
  9 10  1  0
 24 25  1  0
 25 26  1  0
 26 27  2  0
 27 23  1  0
 15 16  1  0
 27 28  1  0
 16 11  2  0
 24 29  2  0
  5 11  1  0
 25 30  1  0
 10  5  2  0
 30 31  2  0
 15 17  1  0
 31 32  1  0
  5  6  1  0
 32 33  2  0
  7  8  1  0
 33 34  1  0
 17 18  1  0
 34 35  2  0
 35 30  1  0
 17 19  2  0
 33 36  1  0
 11 12  1  0
 32 37  1  0
 41 38  1  0
 38 39  1  0
 39 40  1  0
  1 42  1  0
  1 43  1  0
  2 44  1  0
  2 45  1  0
  3 46  1  0
  3 47  1  0
  4 48  1  0
  6 49  1  0
  7 50  1  0
  8 51  1  0
 12 52  1  0
 13 53  1  0
 14 54  1  0
 16 55  1  0
 18 56  1  0
 20 57  1  0
 21 58  1  0
 28 59  1  0
 28 60  1  0
 28 61  1  0
 31 62  1  0
 34 63  1  0
 35 64  1  0
 36 65  1  0
 36 66  1  0
 36 67  1  0
 37 68  1  0
 37 69  1  0
 37 70  1  0
 38 71  1  0
 38 72  1  0
 39 73  1  0
 39 74  1  0
 40 75  1  0
 40 76  1  0
 41 77  1  0
M  END
> <Uni-Dock RESULT> 
ENERGY=   -4.713  LOWER_BOUND=    1.984  UPPER_BOUND=    9.838
INTER + INTRA:          -4.713
INTER:                  -4.713
INTRA:                   0.000
UNBOUND:                 0.000

$$$$

     RDKit          3D

 77 78  0  0  0  0  0  0  0  0999 V2000
   47.9665    9.2007   14.6064 C   0  0  0  0  0  0  0  0  0  0  0  0
   48.9723    9.8616   13.6595 C   0  0  0  0  0  0  0  0  0  0  0  0
   50.3365    9.4115   13.9774 N   0  0  0  0  0  0  0  0  0  0  0  0
   48.1507    7.7871   14.5818 O   0  0  0  0  0  0  0  0  0  0  0  0
   50.7332   13.5583   14.7072 C   0  0  0  0  0  0  0  0  0  0  0  0
   50.1033   14.4673   13.8371 C   0  0  0  0  0  0  0  0  0  0  0  0
   48.9135   14.1430   13.1825 C   0  0  0  0  0  0  0  0  0  0  0  0
   48.3309   12.8891   13.3724 C   0  0  0  0  0  0  0  0  0  0  0  0
   48.9426   11.9319   14.1923 C   0  0  0  0  0  0  0  0  0  0  0  0
   50.1267   12.2969   14.8697 C   0  0  0  0  0  0  0  0  0  0  0  0
   51.9701   13.9527   15.4140 C   0  0  0  0  0  0  0  0  0  0  0  0
   52.0210   15.1478   16.1565 C   0  0  0  0  0  0  0  0  0  0  0  0
   53.1848   15.5393   16.8221 C   0  0  0  0  0  0  0  0  0  0  0  0
   54.3231   14.7386   16.7582 C   0  0  0  0  0  0  0  0  0  0  0  0
   54.3011   13.5458   16.0263 C   0  0  0  0  0  0  0  0  0  0  0  0
   53.1308   13.1597   15.3587 C   0  0  0  0  0  0  0  0  0  0  0  0
   55.5373   12.7265   15.9880 C   0  0  0  0  0  0  0  0  0  0  0  0
   55.4400   11.6540   15.1811 O   0  0  0  0  0  0  0  0  0  0  0  0
   56.5664   12.9647   16.5930 O   0  0  0  0  0  0  0  0  0  0  0  0
   50.6812   11.3937   15.7492 O   0  0  0  0  0  0  0  0  0  0  0  0
   48.2978   10.6805   14.3770 N   0  0  0  0  0  0  0  0  0  0  0  0
   49.0190    9.6055   14.8163 N   0  0  0  0  0  0  0  0  0  0  0  0
   48.5290    8.4375   14.5264 C   0  0  0  0  0  0  0  0  0  0  0  0
   47.2939    8.0694   13.7646 C   0  0  0  0  0  0  0  0  0  0  0  0
   47.3167    6.6800   13.8254 N   0  0  0  0  0  0  0  0  0  0  0  0
   48.4260    6.1459   14.5101 N   0  0  0  0  0  0  0  0  0  0  0  0
   49.1492    7.1464   14.9190 C   0  0  0  0  0  0  0  0  0  0  0  0
   50.4083    7.0803   15.6982 C   0  0  0  0  0  0  0  0  0  0  0  0
   46.5573    8.8940   13.2607 O   0  0  0  0  0  0  0  0  0  0  0  0
   46.3566    5.7806   13.2955 C   0  0  0  0  0  0  0  0  0  0  0  0
   45.2095    6.2321   12.6274 C   0  0  0  0  0  0  0  0  0  0  0  0
   44.2452    5.3351   12.1234 C   0  0  0  0  0  0  0  0  0  0  0  0
   44.4462    3.9494   12.2650 C   0  0  0  0  0  0  0  0  0  0  0  0
   45.5889    3.4941   12.9358 C   0  0  0  0  0  0  0  0  0  0  0  0
   46.5298    4.3979   13.4415 C   0  0  0  0  0  0  0  0  0  0  0  0
   43.4483    2.9490   11.7527 C   0  0  0  0  0  0  0  0  0  0  0  0
   43.0357    5.8875   11.4155 C   0  0  0  0  0  0  0  0  0  0  0  0
   49.8675    9.5283   14.0395 C   0  0  0  0  0  0  0  0  0  0  0  0
   48.4559    9.3767   13.4619 C   0  0  0  0  0  0  0  0  0  0  0  0
   47.5207    8.8417   14.4550 N   0  0  0  0  0  0  0  0  0  0  0  0
   49.8416   10.3502   15.2067 O   0  0  0  0  0  0  0  0  0  0  0  0
   46.9396    9.4245   14.3023 H   0  0  0  0  0  0  0  0  0  0  0  0
   48.1101    9.5437   15.6363 H   0  0  0  0  0  0  0  0  0  0  0  0
   48.7508    9.5621   12.6282 H   0  0  0  0  0  0  0  0  0  0  0  0
   48.9055   10.9524   13.7270 H   0  0  0  0  0  0  0  0  0  0  0  0
   50.5993    9.7669   14.8965 H   0  0  0  0  0  0  0  0  0  0  0  0
   50.9847    9.8439   13.3182 H   0  0  0  0  0  0  0  0  0  0  0  0
   49.1162    7.6702   14.4675 H   0  0  0  0  0  0  0  0  0  0  0  0
   50.5404   15.4492   13.6635 H   0  0  0  0  0  0  0  0  0  0  0  0
   48.4389   14.8720   12.5295 H   0  0  0  0  0  0  0  0  0  0  0  0
   47.3968   12.6656   12.8633 H   0  0  0  0  0  0  0  0  0  0  0  0
   51.1366   15.7800   16.2348 H   0  0  0  0  0  0  0  0  0  0  0  0
   53.1967   16.4625   17.3963 H   0  0  0  0  0  0  0  0  0  0  0  0
   55.2263   15.0441   17.2828 H   0  0  0  0  0  0  0  0  0  0  0  0
   53.1121   12.2286   14.7957 H   0  0  0  0  0  0  0  0  0  0  0  0
   56.3175   11.2229   15.2661 H   0  0  0  0  0  0  0  0  0  0  0  0
   50.0863   10.6152   15.6658 H   0  0  0  0  0  0  0  0  0  0  0  0
   47.5369   10.5274   13.7012 H   0  0  0  0  0  0  0  0  0  0  0  0
   50.2146    7.3950   16.7273 H   0  0  0  0  0  0  0  0  0  0  0  0
   50.7921    6.0559   15.7007 H   0  0  0  0  0  0  0  0  0  0  0  0
   51.1591    7.7392   15.2535 H   0  0  0  0  0  0  0  0  0  0  0  0
   45.0321    7.2954   12.4893 H   0  0  0  0  0  0  0  0  0  0  0  0
   45.7579    2.4271   13.0742 H   0  0  0  0  0  0  0  0  0  0  0  0
   47.4027    3.9982   13.9544 H   0  0  0  0  0  0  0  0  0  0  0  0
   43.1654    3.1784   10.7205 H   0  0  0  0  0  0  0  0  0  0  0  0
   42.5559    2.9494   12.3869 H   0  0  0  0  0  0  0  0  0  0  0  0
   43.8617    1.9356   11.7519 H   0  0  0  0  0  0  0  0  0  0  0  0
   42.9274    6.9647   11.5902 H   0  0  0  0  0  0  0  0  0  0  0  0
   42.1198    5.4134   11.7830 H   0  0  0  0  0  0  0  0  0  0  0  0
   43.1245    5.7251   10.3347 H   0  0  0  0  0  0  0  0  0  0  0  0
   50.5369    9.9874   13.3051 H   0  0  0  0  0  0  0  0  0  0  0  0
   50.2815    8.5550   14.3232 H   0  0  0  0  0  0  0  0  0  0  0  0
   48.4742    8.7281   12.5812 H   0  0  0  0  0  0  0  0  0  0  0  0
   48.0847   10.3586   13.1509 H   0  0  0  0  0  0  0  0  0  0  0  0
   47.6675    9.3557   15.3288 H   0  0  0  0  0  0  0  0  0  0  0  0
   47.7940    7.8860   14.6843 H   0  0  0  0  0  0  0  0  0  0  0  0
   49.4424   11.2002   14.9498 H   0  0  0  0  0  0  0  0  0  0  0  0
  4  1  1  0
  1  2  1  0
  2  3  1  0
 10 20  1  0
  9 21  1  0
 12 13  2  0
 21 22  1  0
  8  9  2  0
 22 23  2  0
 23 24  1  0
 13 14  1  0
  6  7  2  0
 14 15  2  0
  9 10  1  0
 24 25  1  0
 25 26  1  0
 26 27  2  0
 27 23  1  0
 15 16  1  0
 27 28  1  0
 16 11  2  0
 24 29  2  0
  5 11  1  0
 25 30  1  0
 10  5  2  0
 30 31  2  0
 15 17  1  0
 31 32  1  0
  5  6  1  0
 32 33  2  0
  7  8  1  0
 33 34  1  0
 17 18  1  0
 34 35  2  0
 35 30  1  0
 17 19  2  0
 33 36  1  0
 11 12  1  0
 32 37  1  0
 41 38  1  0
 38 39  1  0
 39 40  1  0
  1 42  1  0
  1 43  1  0
  2 44  1  0
  2 45  1  0
  3 46  1  0
  3 47  1  0
  4 48  1  0
  6 49  1  0
  7 50  1  0
  8 51  1  0
 12 52  1  0
 13 53  1  0
 14 54  1  0
 16 55  1  0
 18 56  1  0
 20 57  1  0
 21 58  1  0
 28 59  1  0
 28 60  1  0
 28 61  1  0
 31 62  1  0
 34 63  1  0
 35 64  1  0
 36 65  1  0
 36 66  1  0
 36 67  1  0
 37 68  1  0
 37 69  1  0
 37 70  1  0
 38 71  1  0
 38 72  1  0
 39 73  1  0
 39 74  1  0
 40 75  1  0
 40 76  1  0
 41 77  1  0
M  END
> <Uni-Dock RESULT> 
ENERGY=   -4.500  LOWER_BOUND=    5.374  UPPER_BOUND=   10.146
INTER + INTRA:          -4.500
INTER:                  -4.500
INTRA:                   0.000
UNBOUND:                 0.000

$$$$

     RDKit          3D

 77 78  0  0  0  0  0  0  0  0999 V2000
   49.0284    5.4661   16.7103 C   0  0  0  0  0  0  0  0  0  0  0  0
   48.6289    6.4035   17.8533 C   0  0  0  0  0  0  0  0  0  0  0  0
   49.4158    7.6449   17.7870 N   0  0  0  0  0  0  0  0  0  0  0  0
   48.9392    6.1651   15.4709 O   0  0  0  0  0  0  0  0  0  0  0  0
   50.6496    6.1836   21.5590 C   0  0  0  0  0  0  0  0  0  0  0  0
   49.6957    5.5888   22.4055 C   0  0  0  0  0  0  0  0  0  0  0  0
   48.5941    4.9020   21.8914 C   0  0  0  0  0  0  0  0  0  0  0  0
   48.4121    4.8068   20.5110 C   0  0  0  0  0  0  0  0  0  0  0  0
   49.3082    5.4207   19.6263 C   0  0  0  0  0  0  0  0  0  0  0  0
   50.4324    6.0796   20.1708 C   0  0  0  0  0  0  0  0  0  0  0  0
   51.8244    6.8671   22.1400 C   0  0  0  0  0  0  0  0  0  0  0  0
   52.6405    6.2130   23.0825 C   0  0  0  0  0  0  0  0  0  0  0  0
   53.7484    6.8483   23.6478 C   0  0  0  0  0  0  0  0  0  0  0  0
   54.0625    8.1543   23.2782 C   0  0  0  0  0  0  0  0  0  0  0  0
   53.2678    8.8290   22.3443 C   0  0  0  0  0  0  0  0  0  0  0  0
   52.1560    8.1867   21.7824 C   0  0  0  0  0  0  0  0  0  0  0  0
   53.6423   10.2180   21.9817 C   0  0  0  0  0  0  0  0  0  0  0  0
   52.7611   10.8075   21.1530 O   0  0  0  0  0  0  0  0  0  0  0  0
   54.6263   10.8149   22.3783 O   0  0  0  0  0  0  0  0  0  0  0  0
   51.3656    6.6039   19.3041 O   0  0  0  0  0  0  0  0  0  0  0  0
   49.0970    5.2725   18.2302 N   0  0  0  0  0  0  0  0  0  0  0  0
   49.6777    6.1528   17.3603 N   0  0  0  0  0  0  0  0  0  0  0  0
   49.1031    6.2659   16.2004 C   0  0  0  0  0  0  0  0  0  0  0  0
   47.8814    5.5923   15.6571 C   0  0  0  0  0  0  0  0  0  0  0  0
   47.8084    6.1143   14.3699 N   0  0  0  0  0  0  0  0  0  0  0  0
   48.8205    7.0443   14.0611 N   0  0  0  0  0  0  0  0  0  0  0  0
   49.5796    7.1559   15.1111 C   0  0  0  0  0  0  0  0  0  0  0  0
   50.7838    8.0076   15.2577 C   0  0  0  0  0  0  0  0  0  0  0  0
   47.2109    4.8146   16.3066 O   0  0  0  0  0  0  0  0  0  0  0  0
   46.8548    5.8006   13.3680 C   0  0  0  0  0  0  0  0  0  0  0  0
   45.8347    4.8634   13.5851 C   0  0  0  0  0  0  0  0  0  0  0  0
   44.9033    4.5365   12.5780 C   0  0  0  0  0  0  0  0  0  0  0  0
   44.9752    5.1839   11.3305 C   0  0  0  0  0  0  0  0  0  0  0  0
   45.9956    6.1178   11.1080 C   0  0  0  0  0  0  0  0  0  0  0  0
   46.9199    6.4213   12.1136 C   0  0  0  0  0  0  0  0  0  0  0  0
   44.0126    4.8696   10.2198 C   0  0  0  0  0  0  0  0  0  0  0  0
   43.8321    3.5208   12.8781 C   0  0  0  0  0  0  0  0  0  0  0  0
   49.2979    7.1751   17.7346 C   0  0  0  0  0  0  0  0  0  0  0  0
   48.1956    6.2059   17.2929 C   0  0  0  0  0  0  0  0  0  0  0  0
   48.6779    5.2666   16.2769 N   0  0  0  0  0  0  0  0  0  0  0  0
   50.4340    6.4527   18.2098 O   0  0  0  0  0  0  0  0  0  0  0  0
   48.3657    4.5966   16.6694 H   0  0  0  0  0  0  0  0  0  0  0  0
   50.0592    5.1162   16.8290 H   0  0  0  0  0  0  0  0  0  0  0  0
   47.5702    6.6701   17.7508 H   0  0  0  0  0  0  0  0  0  0  0  0
   48.7720    5.9129   18.8217 H   0  0  0  0  0  0  0  0  0  0  0  0
   50.3939    7.4305   17.9802 H   0  0  0  0  0  0  0  0  0  0  0  0
   49.1142    8.2630   18.5412 H   0  0  0  0  0  0  0  0  0  0  0  0
   49.2064    7.0815   15.6894 H   0  0  0  0  0  0  0  0  0  0  0  0
   49.8078    5.6552   23.4863 H   0  0  0  0  0  0  0  0  0  0  0  0
   47.8821    4.4365   22.5691 H   0  0  0  0  0  0  0  0  0  0  0  0
   47.5547    4.2543   20.1349 H   0  0  0  0  0  0  0  0  0  0  0  0
   52.4236    5.1849   23.3723 H   0  0  0  0  0  0  0  0  0  0  0  0
   54.3685    6.3191   24.3672 H   0  0  0  0  0  0  0  0  0  0  0  0
   54.9298    8.6441   23.7164 H   0  0  0  0  0  0  0  0  0  0  0  0
   51.5427    8.7093   21.0510 H   0  0  0  0  0  0  0  0  0  0  0  0
   53.1443   11.6993   21.0079 H   0  0  0  0  0  0  0  0  0  0  0  0
   50.9764    6.4106   18.4220 H   0  0  0  0  0  0  0  0  0  0  0  0
   48.1633    4.8990   18.0118 H   0  0  0  0  0  0  0  0  0  0  0  0
   51.6772    7.3772   15.2459 H   0  0  0  0  0  0  0  0  0  0  0  0
   50.8369    8.7237   14.4324 H   0  0  0  0  0  0  0  0  0  0  0  0
   50.7411    8.5573   16.2020 H   0  0  0  0  0  0  0  0  0  0  0  0
   45.7435    4.3565   14.5421 H   0  0  0  0  0  0  0  0  0  0  0  0
   46.0834    6.6187   10.1449 H   0  0  0  0  0  0  0  0  0  0  0  0
   47.6948    7.1541   11.8956 H   0  0  0  0  0  0  0  0  0  0  0  0
   42.9811    4.8845   10.5857 H   0  0  0  0  0  0  0  0  0  0  0  0
   44.2373    3.8861    9.7945 H   0  0  0  0  0  0  0  0  0  0  0  0
   44.0756    5.6082    9.4145 H   0  0  0  0  0  0  0  0  0  0  0  0
   44.0552    2.9636   13.7959 H   0  0  0  0  0  0  0  0  0  0  0  0
   43.7571    2.7847   12.0711 H   0  0  0  0  0  0  0  0  0  0  0  0
   42.8650    4.0205   13.0098 H   0  0  0  0  0  0  0  0  0  0  0  0
   48.9387    7.8266   18.5376 H   0  0  0  0  0  0  0  0  0  0  0  0
   49.6247    7.8038   16.8998 H   0  0  0  0  0  0  0  0  0  0  0  0
   47.3350    6.7605   16.9077 H   0  0  0  0  0  0  0  0  0  0  0  0
   47.8618    5.6201   18.1554 H   0  0  0  0  0  0  0  0  0  0  0  0
   49.5844    4.9076   16.5908 H   0  0  0  0  0  0  0  0  0  0  0  0
   48.9010    5.7854   15.4274 H   0  0  0  0  0  0  0  0  0  0  0  0
   50.1254    5.8741   18.9294 H   0  0  0  0  0  0  0  0  0  0  0  0
  4  1  1  0
  1  2  1  0
  2  3  1  0
 10 20  1  0
  9 21  1  0
 12 13  2  0
 21 22  1  0
  8  9  2  0
 22 23  2  0
 23 24  1  0
 13 14  1  0
  6  7  2  0
 14 15  2  0
  9 10  1  0
 24 25  1  0
 25 26  1  0
 26 27  2  0
 27 23  1  0
 15 16  1  0
 27 28  1  0
 16 11  2  0
 24 29  2  0
  5 11  1  0
 25 30  1  0
 10  5  2  0
 30 31  2  0
 15 17  1  0
 31 32  1  0
  5  6  1  0
 32 33  2  0
  7  8  1  0
 33 34  1  0
 17 18  1  0
 34 35  2  0
 35 30  1  0
 17 19  2  0
 33 36  1  0
 11 12  1  0
 32 37  1  0
 41 38  1  0
 38 39  1  0
 39 40  1  0
  1 42  1  0
  1 43  1  0
  2 44  1  0
  2 45  1  0
  3 46  1  0
  3 47  1  0
  4 48  1  0
  6 49  1  0
  7 50  1  0
  8 51  1  0
 12 52  1  0
 13 53  1  0
 14 54  1  0
 16 55  1  0
 18 56  1  0
 20 57  1  0
 21 58  1  0
 28 59  1  0
 28 60  1  0
 28 61  1  0
 31 62  1  0
 34 63  1  0
 35 64  1  0
 36 65  1  0
 36 66  1  0
 36 67  1  0
 37 68  1  0
 37 69  1  0
 37 70  1  0
 38 71  1  0
 38 72  1  0
 39 73  1  0
 39 74  1  0
 40 75  1  0
 40 76  1  0
 41 77  1  0
M  END
> <Uni-Dock RESULT> 
ENERGY=   -4.473  LOWER_BOUND=    7.443  UPPER_BOUND=   11.443
INTER + INTRA:          -4.473
INTER:                  -4.473
INTRA:                   0.000
UNBOUND:                 0.000

$$$$

     RDKit          3D

 77 78  0  0  0  0  0  0  0  0999 V2000
   48.5633    7.6587   14.0195 C   0  0  0  0  0  0  0  0  0  0  0  0
   48.4335    7.6799   15.5452 C   0  0  0  0  0  0  0  0  0  0  0  0
   49.5120    8.4902   16.1327 N   0  0  0  0  0  0  0  0  0  0  0  0
   48.6399    8.9961   13.5318 O   0  0  0  0  0  0  0  0  0  0  0  0
   50.3798    4.7304   17.8639 C   0  0  0  0  0  0  0  0  0  0  0  0
   49.3166    3.9200   18.3032 C   0  0  0  0  0  0  0  0  0  0  0  0
   48.0687    3.9543   17.6780 C   0  0  0  0  0  0  0  0  0  0  0  0
   47.8497    4.8161   16.6023 C   0  0  0  0  0  0  0  0  0  0  0  0
   48.8614    5.6763   16.1561 C   0  0  0  0  0  0  0  0  0  0  0  0
   50.1244    5.5974   16.7830 C   0  0  0  0  0  0  0  0  0  0  0  0
   51.6986    4.6365   18.5249 C   0  0  0  0  0  0  0  0  0  0  0  0
   52.3319    3.3895   18.6866 C   0  0  0  0  0  0  0  0  0  0  0  0
   53.5734    3.2827   19.3174 C   0  0  0  0  0  0  0  0  0  0  0  0
   54.2075    4.4260   19.7987 C   0  0  0  0  0  0  0  0  0  0  0  0
   53.6003    5.6786   19.6526 C   0  0  0  0  0  0  0  0  0  0  0  0
   52.3533    5.7787   19.0207 C   0  0  0  0  0  0  0  0  0  0  0  0
   54.3141    6.8671   20.1806 C   0  0  0  0  0  0  0  0  0  0  0  0
   53.6029    8.0047   20.0763 O   0  0  0  0  0  0  0  0  0  0  0  0
   55.4237    6.8649   20.6811 O   0  0  0  0  0  0  0  0  0  0  0  0
   51.1492    6.3729   16.2878 O   0  0  0  0  0  0  0  0  0  0  0  0
   48.6004    6.5147   15.0404 N   0  0  0  0  0  0  0  0  0  0  0  0
   49.3759    7.6203   14.8281 N   0  0  0  0  0  0  0  0  0  0  0  0
   48.8340    8.5652   14.1199 C   0  0  0  0  0  0  0  0  0  0  0  0
   47.4730    8.6507   13.5019 C   0  0  0  0  0  0  0  0  0  0  0  0
   47.5192    9.8860   12.8641 N   0  0  0  0  0  0  0  0  0  0  0  0
   48.7321   10.5826   13.0325 N   0  0  0  0  0  0  0  0  0  0  0  0
   49.5084    9.8401   13.7654 C   0  0  0  0  0  0  0  0  0  0  0  0
   50.8929   10.1470   14.1966 C   0  0  0  0  0  0  0  0  0  0  0  0
   46.6340    7.7808   13.6270 O   0  0  0  0  0  0  0  0  0  0  0  0
   46.5035   10.4847   12.0757 C   0  0  0  0  0  0  0  0  0  0  0  0
   45.2799    9.8439   11.8345 C   0  0  0  0  0  0  0  0  0  0  0  0
   44.2823   10.4321   11.0300 C   0  0  0  0  0  0  0  0  0  0  0  0
   44.5012   11.7068   10.4752 C   0  0  0  0  0  0  0  0  0  0  0  0
   45.7242   12.3487   10.7101 C   0  0  0  0  0  0  0  0  0  0  0  0
   46.7090   11.7455   11.5002 C   0  0  0  0  0  0  0  0  0  0  0  0
   43.4752   12.3776    9.6054 C   0  0  0  0  0  0  0  0  0  0  0  0
   42.9902    9.6891   10.8117 C   0  0  0  0  0  0  0  0  0  0  0  0
   49.2766    8.2003   15.8196 C   0  0  0  0  0  0  0  0  0  0  0  0
   47.9565    7.9798   15.0727 C   0  0  0  0  0  0  0  0  0  0  0  0
   48.1674    7.8591   13.6276 N   0  0  0  0  0  0  0  0  0  0  0  0
   50.1953    7.1473   15.5270 O   0  0  0  0  0  0  0  0  0  0  0  0
   47.6988    7.1688   13.5615 H   0  0  0  0  0  0  0  0  0  0  0  0
   49.4711    7.1315   13.7081 H   0  0  0  0  0  0  0  0  0  0  0  0
   47.4776    8.1405   15.8218 H   0  0  0  0  0  0  0  0  0  0  0  0
   48.4588    6.6621   15.9482 H   0  0  0  0  0  0  0  0  0  0  0  0
   50.4047    8.0241   15.9719 H   0  0  0  0  0  0  0  0  0  0  0  0
   49.3896    8.5109   17.1458 H   0  0  0  0  0  0  0  0  0  0  0  0
   49.1366    9.4788   14.2241 H   0  0  0  0  0  0  0  0  0  0  0  0
   49.4567    3.2449   19.1458 H   0  0  0  0  0  0  0  0  0  0  0  0
   47.2702    3.3036   18.0273 H   0  0  0  0  0  0  0  0  0  0  0  0
   46.8741    4.8140   16.1226 H   0  0  0  0  0  0  0  0  0  0  0  0
   51.8620    2.4845   18.3015 H   0  0  0  0  0  0  0  0  0  0  0  0
   54.0463    2.3094   19.4226 H   0  0  0  0  0  0  0  0  0  0  0  0
   55.1773    4.3396   20.2845 H   0  0  0  0  0  0  0  0  0  0  0  0
   51.8849    6.7537   18.9011 H   0  0  0  0  0  0  0  0  0  0  0  0
   54.2003    8.6841   20.4566 H   0  0  0  0  0  0  0  0  0  0  0  0
   50.7115    6.8770   15.5658 H   0  0  0  0  0  0  0  0  0  0  0  0
   47.5991    6.5560   14.8061 H   0  0  0  0  0  0  0  0  0  0  0  0
   51.5941    9.5238   13.6349 H   0  0  0  0  0  0  0  0  0  0  0  0
   51.1171   11.2012   14.0088 H   0  0  0  0  0  0  0  0  0  0  0  0
   51.0057    9.9455   15.2654 H   0  0  0  0  0  0  0  0  0  0  0  0
   45.0745    8.8652   12.2601 H   0  0  0  0  0  0  0  0  0  0  0  0
   45.9247   13.3276   10.2768 H   0  0  0  0  0  0  0  0  0  0  0  0
   47.6431   12.2822   11.6562 H   0  0  0  0  0  0  0  0  0  0  0  0
   42.4873   12.3431   10.0753 H   0  0  0  0  0  0  0  0  0  0  0  0
   43.4339   11.8882    8.6270 H   0  0  0  0  0  0  0  0  0  0  0  0
   43.7150   13.4334    9.4451 H   0  0  0  0  0  0  0  0  0  0  0  0
   43.0750    8.6403   11.1204 H   0  0  0  0  0  0  0  0  0  0  0  0
   42.7177    9.6861    9.7514 H   0  0  0  0  0  0  0  0  0  0  0  0
   42.1858   10.1519   11.3959 H   0  0  0  0  0  0  0  0  0  0  0  0
   49.1079    8.2247   16.9009 H   0  0  0  0  0  0  0  0  0  0  0  0
   49.7427    9.1453   15.5213 H   0  0  0  0  0  0  0  0  0  0  0  0
   47.2621    8.7994   15.2798 H   0  0  0  0  0  0  0  0  0  0  0  0
   47.4950    7.0499   15.4200 H   0  0  0  0  0  0  0  0  0  0  0  0
   48.9554    7.2214   13.4807 H   0  0  0  0  0  0  0  0  0  0  0  0
   48.5048    8.7521   13.2678 H   0  0  0  0  0  0  0  0  0  0  0  0
   49.7581    6.3108   15.7659 H   0  0  0  0  0  0  0  0  0  0  0  0
  4  1  1  0
  1  2  1  0
  2  3  1  0
 10 20  1  0
  9 21  1  0
 12 13  2  0
 21 22  1  0
  8  9  2  0
 22 23  2  0
 23 24  1  0
 13 14  1  0
  6  7  2  0
 14 15  2  0
  9 10  1  0
 24 25  1  0
 25 26  1  0
 26 27  2  0
 27 23  1  0
 15 16  1  0
 27 28  1  0
 16 11  2  0
 24 29  2  0
  5 11  1  0
 25 30  1  0
 10  5  2  0
 30 31  2  0
 15 17  1  0
 31 32  1  0
  5  6  1  0
 32 33  2  0
  7  8  1  0
 33 34  1  0
 17 18  1  0
 34 35  2  0
 35 30  1  0
 17 19  2  0
 33 36  1  0
 11 12  1  0
 32 37  1  0
 41 38  1  0
 38 39  1  0
 39 40  1  0
  1 42  1  0
  1 43  1  0
  2 44  1  0
  2 45  1  0
  3 46  1  0
  3 47  1  0
  4 48  1  0
  6 49  1  0
  7 50  1  0
  8 51  1  0
 12 52  1  0
 13 53  1  0
 14 54  1  0
 16 55  1  0
 18 56  1  0
 20 57  1  0
 21 58  1  0
 28 59  1  0
 28 60  1  0
 28 61  1  0
 31 62  1  0
 34 63  1  0
 35 64  1  0
 36 65  1  0
 36 66  1  0
 36 67  1  0
 37 68  1  0
 37 69  1  0
 37 70  1  0
 38 71  1  0
 38 72  1  0
 39 73  1  0
 39 74  1  0
 40 75  1  0
 40 76  1  0
 41 77  1  0
M  END
> <Uni-Dock RESULT> 
ENERGY=   -4.371  LOWER_BOUND=    5.569  UPPER_BOUND=    8.372
INTER + INTRA:          -4.371
INTER:                  -4.371
INTRA:                   0.000
UNBOUND:                 0.000

$$$$
