
     RDKit          3D

 77 78  0  0  0  0  0  0  0  0999 V2000
   47.8063    8.1386   14.1783 C   0  0  0  0  0  0  0  0  0  0  0  0
   48.0180    9.6040   14.5748 C   0  0  0  0  0  0  0  0  0  0  0  0
   49.4391    9.9693   14.5654 N   0  0  0  0  0  0  0  0  0  0  0  0
   48.4030    7.8910   12.9062 O   0  0  0  0  0  0  0  0  0  0  0  0
   45.0790    6.9697   11.9461 C   0  0  0  0  0  0  0  0  0  0  0  0
   44.3538    7.9435   11.2382 C   0  0  0  0  0  0  0  0  0  0  0  0
   44.5921    9.3054   11.4305 C   0  0  0  0  0  0  0  0  0  0  0  0
   45.5702    9.7241   12.3327 C   0  0  0  0  0  0  0  0  0  0  0  0
   46.3373    8.7928   13.0440 C   0  0  0  0  0  0  0  0  0  0  0  0
   46.0615    7.4223   12.8482 C   0  0  0  0  0  0  0  0  0  0  0  0
   44.7853    5.5392   11.7333 C   0  0  0  0  0  0  0  0  0  0  0  0
   44.4125    4.7075   12.8027 C   0  0  0  0  0  0  0  0  0  0  0  0
   44.1186    3.3564   12.6026 C   0  0  0  0  0  0  0  0  0  0  0  0
   44.1904    2.8099   11.3227 C   0  0  0  0  0  0  0  0  0  0  0  0
   44.5590    3.6162   10.2407 C   0  0  0  0  0  0  0  0  0  0  0  0
   44.8529    4.9717   10.4492 C   0  0  0  0  0  0  0  0  0  0  0  0
   44.6512    3.0834    8.8603 C   0  0  0  0  0  0  0  0  0  0  0  0
   44.3534    1.7735    8.7845 O   0  0  0  0  0  0  0  0  0  0  0  0
   44.9548    3.7174    7.8660 O   0  0  0  0  0  0  0  0  0  0  0  0
   46.7851    6.4974   13.5644 O   0  0  0  0  0  0  0  0  0  0  0  0
   47.2925    9.2733   13.9720 N   0  0  0  0  0  0  0  0  0  0  0  0
   48.2010    8.4401   14.5495 N   0  0  0  0  0  0  0  0  0  0  0  0
   49.1844    9.0162   15.1709 C   0  0  0  0  0  0  0  0  0  0  0  0
   49.5071   10.4683   15.3457 C   0  0  0  0  0  0  0  0  0  0  0  0
   50.6622   10.4188   16.1189 N   0  0  0  0  0  0  0  0  0  0  0  0
   51.0993    9.1160   16.4266 N   0  0  0  0  0  0  0  0  0  0  0  0
   50.2590    8.2844   15.8860 C   0  0  0  0  0  0  0  0  0  0  0  0
   50.3063    6.8042   15.9319 C   0  0  0  0  0  0  0  0  0  0  0  0
   48.8401   11.3592   14.8602 O   0  0  0  0  0  0  0  0  0  0  0  0
   51.4236   11.5132   16.6017 C   0  0  0  0  0  0  0  0  0  0  0  0
   51.0501   12.8412   16.3533 C   0  0  0  0  0  0  0  0  0  0  0  0
   51.8089   13.9266   16.8357 C   0  0  0  0  0  0  0  0  0  0  0  0
   52.9707   13.6787   17.5889 C   0  0  0  0  0  0  0  0  0  0  0  0
   53.3472   12.3538   17.8393 C   0  0  0  0  0  0  0  0  0  0  0  0
   52.5838   11.2884   17.3530 C   0  0  0  0  0  0  0  0  0  0  0  0
   53.8165   14.8008   18.1253 C   0  0  0  0  0  0  0  0  0  0  0  0
   51.3525   15.3302   16.5401 C   0  0  0  0  0  0  0  0  0  0  0  0
   47.8529    7.9565   14.4915 C   0  0  0  0  0  0  0  0  0  0  0  0
   48.9601    8.9243   14.0599 C   0  0  0  0  0  0  0  0  0  0  0  0
   49.1353   10.0444   14.9797 N   0  0  0  0  0  0  0  0  0  0  0  0
   47.7259    6.8889   13.5599 O   0  0  0  0  0  0  0  0  0  0  0  0
   46.7369    7.9168   14.1118 H   0  0  0  0  0  0  0  0  0  0  0  0
   48.2643    7.4667   14.9117 H   0  0  0  0  0  0  0  0  0  0  0  0
   47.5012   10.2545   13.8610 H   0  0  0  0  0  0  0  0  0  0  0  0
   47.5969    9.7903   15.5676 H   0  0  0  0  0  0  0  0  0  0  0  0
   49.9476    9.3447   15.1895 H   0  0  0  0  0  0  0  0  0  0  0  0
   49.7898    9.7318   13.6318 H   0  0  0  0  0  0  0  0  0  0  0  0
   48.2142    6.9639   12.6809 H   0  0  0  0  0  0  0  0  0  0  0  0
   43.5767    7.6415   10.5378 H   0  0  0  0  0  0  0  0  0  0  0  0
   44.0087   10.0403   10.8817 H   0  0  0  0  0  0  0  0  0  0  0  0
   45.7301   10.7903   12.4733 H   0  0  0  0  0  0  0  0  0  0  0  0
   44.3555    5.1177   13.8100 H   0  0  0  0  0  0  0  0  0  0  0  0
   43.8373    2.7332   13.4473 H   0  0  0  0  0  0  0  0  0  0  0  0
   43.9616    1.7571   11.1803 H   0  0  0  0  0  0  0  0  0  0  0  0
   45.1501    5.5893    9.6027 H   0  0  0  0  0  0  0  0  0  0  0  0
   44.4564    1.5672    7.8319 H   0  0  0  0  0  0  0  0  0  0  0  0
   47.3966    7.0603   14.0882 H   0  0  0  0  0  0  0  0  0  0  0  0
   47.4870   10.2805   13.8940 H   0  0  0  0  0  0  0  0  0  0  0  0
   49.3787    6.4195   16.3631 H   0  0  0  0  0  0  0  0  0  0  0  0
   51.1488    6.4741   16.5452 H   0  0  0  0  0  0  0  0  0  0  0  0
   50.4245    6.4107   14.9187 H   0  0  0  0  0  0  0  0  0  0  0  0
   50.1554   13.0648   15.7785 H   0  0  0  0  0  0  0  0  0  0  0  0
   54.2423   12.1349   18.4179 H   0  0  0  0  0  0  0  0  0  0  0  0
   52.9155   10.2763   17.5727 H   0  0  0  0  0  0  0  0  0  0  0  0
   54.2181   15.4003   17.3023 H   0  0  0  0  0  0  0  0  0  0  0  0
   54.6665   14.4230   18.7038 H   0  0  0  0  0  0  0  0  0  0  0  0
   53.2258   15.4398   18.7893 H   0  0  0  0  0  0  0  0  0  0  0  0
   50.4536   15.3395   15.9145 H   0  0  0  0  0  0  0  0  0  0  0  0
   51.1135   15.8540   17.4712 H   0  0  0  0  0  0  0  0  0  0  0  0
   52.1314   15.8785   16.0013 H   0  0  0  0  0  0  0  0  0  0  0  0
   46.8869    8.4676   14.5623 H   0  0  0  0  0  0  0  0  0  0  0  0
   48.0804    7.5218   15.4703 H   0  0  0  0  0  0  0  0  0  0  0  0
   48.7366    9.3121   13.0594 H   0  0  0  0  0  0  0  0  0  0  0  0
   49.9063    8.3796   13.9652 H   0  0  0  0  0  0  0  0  0  0  0  0
   49.3879    9.6918   15.9029 H   0  0  0  0  0  0  0  0  0  0  0  0
   48.2521   10.5394   15.0986 H   0  0  0  0  0  0  0  0  0  0  0  0
   47.5013    7.2776   12.6967 H   0  0  0  0  0  0  0  0  0  0  0  0
  4  1  1  0
  1  2  1  0
  2  3  1  0
 10 20  1  0
  9 21  1  0
 12 13  2  0
 21 22  1  0
  8  9  2  0
 22 23  2  0
 23 24  1  0
 13 14  1  0
  6  7  2  0
 14 15  2  0
  9 10  1  0
 24 25  1  0
 25 26  1  0
 26 27  2  0
 27 23  1  0
 15 16  1  0
 27 28  1  0
 16 11  2  0
 24 29  2  0
  5 11  1  0
 25 30  1  0
 10  5  2  0
 30 31  2  0
 15 17  1  0
 31 32  1  0
  5  6  1  0
 32 33  2  0
  7  8  1  0
 33 34  1  0
 17 18  1  0
 34 35  2  0
 35 30  1  0
 17 19  2  0
 33 36  1  0
 11 12  1  0
 32 37  1  0
 41 38  1  0
 38 39  1  0
 39 40  1  0
  1 42  1  0
  1 43  1  0
  2 44  1  0
  2 45  1  0
  3 46  1  0
  3 47  1  0
  4 48  1  0
  6 49  1  0
  7 50  1  0
  8 51  1  0
 12 52  1  0
 13 53  1  0
 14 54  1  0
 16 55  1  0
 18 56  1  0
 20 57  1  0
 21 58  1  0
 28 59  1  0
 28 60  1  0
 28 61  1  0
 31 62  1  0
 34 63  1  0
 35 64  1  0
 36 65  1  0
 36 66  1  0
 36 67  1  0
 37 68  1  0
 37 69  1  0
 37 70  1  0
 38 71  1  0
 38 72  1  0
 39 73  1  0
 39 74  1  0
 40 75  1  0
 40 76  1  0
 41 77  1  0
M  END
> <Uni-Dock RESULT> 
ENERGY=   -5.657  LOWER_BOUND=    0.000  UPPER_BOUND=    0.000
INTER + INTRA:          -5.657
INTER:                  -5.657
INTRA:                   0.000
UNBOUND:                 0.000

$$$$

     RDKit          3D

 77 78  0  0  0  0  0  0  0  0999 V2000
   49.1061    7.2966   15.6092 C   0  0  0  0  0  0  0  0  0  0  0  0
   47.7543    7.5628   14.9375 C   0  0  0  0  0  0  0  0  0  0  0  0
   47.9168    8.1735   13.6132 N   0  0  0  0  0  0  0  0  0  0  0  0
   49.9193    6.4918   14.7569 O   0  0  0  0  0  0  0  0  0  0  0  0
   49.8997    4.2117   17.5173 C   0  0  0  0  0  0  0  0  0  0  0  0
   49.0040    3.1335   17.4149 C   0  0  0  0  0  0  0  0  0  0  0  0
   47.8157    3.2460   16.6909 C   0  0  0  0  0  0  0  0  0  0  0  0
   47.5005    4.4414   16.0448 C   0  0  0  0  0  0  0  0  0  0  0  0
   48.3716    5.5370   16.0956 C   0  0  0  0  0  0  0  0  0  0  0  0
   49.5558    5.4050   16.8526 C   0  0  0  0  0  0  0  0  0  0  0  0
   51.1362    4.0639   18.3091 C   0  0  0  0  0  0  0  0  0  0  0  0
   51.4208    4.9284   19.3796 C   0  0  0  0  0  0  0  0  0  0  0  0
   52.5828    4.7818   20.1413 C   0  0  0  0  0  0  0  0  0  0  0  0
   53.4852    3.7617   19.8463 C   0  0  0  0  0  0  0  0  0  0  0  0
   53.2257    2.8875   18.7856 C   0  0  0  0  0  0  0  0  0  0  0  0
   52.0572    3.0408   18.0252 C   0  0  0  0  0  0  0  0  0  0  0  0
   54.1536    1.7871   18.4303 C   0  0  0  0  0  0  0  0  0  0  0  0
   55.2397    1.7426   19.2233 O   0  0  0  0  0  0  0  0  0  0  0  0
   53.9983    0.9805   17.5316 O   0  0  0  0  0  0  0  0  0  0  0  0
   50.4050    6.4837   16.9379 O   0  0  0  0  0  0  0  0  0  0  0  0
   47.9857    6.7367   15.4505 N   0  0  0  0  0  0  0  0  0  0  0  0
   48.8589    7.7690   15.2926 N   0  0  0  0  0  0  0  0  0  0  0  0
   48.4915    8.7017   14.4678 C   0  0  0  0  0  0  0  0  0  0  0  0
   47.2573    8.8272   13.6287 C   0  0  0  0  0  0  0  0  0  0  0  0
   47.4580   10.0498   12.9967 N   0  0  0  0  0  0  0  0  0  0  0  0
   48.6706   10.6834   13.3301 N   0  0  0  0  0  0  0  0  0  0  0  0
   49.2890    9.9197   14.1811 C   0  0  0  0  0  0  0  0  0  0  0  0
   50.6068   10.1638   14.8132 C   0  0  0  0  0  0  0  0  0  0  0  0
   46.3869    7.9811   13.5984 O   0  0  0  0  0  0  0  0  0  0  0  0
   46.5968   10.6938   12.0726 C   0  0  0  0  0  0  0  0  0  0  0  0
   45.3653   10.1388   11.6982 C   0  0  0  0  0  0  0  0  0  0  0  0
   44.5113   10.7822   10.7800 C   0  0  0  0  0  0  0  0  0  0  0  0
   44.8967   12.0149   10.2226 C   0  0  0  0  0  0  0  0  0  0  0  0
   46.1259   12.5727   10.5939 C   0  0  0  0  0  0  0  0  0  0  0  0
   46.9617   11.9212   11.5056 C   0  0  0  0  0  0  0  0  0  0  0  0
   44.0232   12.7419    9.2374 C   0  0  0  0  0  0  0  0  0  0  0  0
   43.1988   10.1379   10.4224 C   0  0  0  0  0  0  0  0  0  0  0  0
   49.1879    7.6151   15.7686 C   0  0  0  0  0  0  0  0  0  0  0  0
   48.8372    7.6354   14.2767 C   0  0  0  0  0  0  0  0  0  0  0  0
   47.6195    8.3851   13.9826 N   0  0  0  0  0  0  0  0  0  0  0  0
   50.3789    6.8710   15.9957 O   0  0  0  0  0  0  0  0  0  0  0  0
   48.9592    6.7662   16.5549 H   0  0  0  0  0  0  0  0  0  0  0  0
   49.6346    8.2353   15.8059 H   0  0  0  0  0  0  0  0  0  0  0  0
   47.2187    6.6164   14.8056 H   0  0  0  0  0  0  0  0  0  0  0  0
   47.1410    8.2125   15.5694 H   0  0  0  0  0  0  0  0  0  0  0  0
   48.4540    9.0341   13.7071 H   0  0  0  0  0  0  0  0  0  0  0  0
   48.5335    7.5489   13.0835 H   0  0  0  0  0  0  0  0  0  0  0  0
   50.7480    6.3203   15.2361 H   0  0  0  0  0  0  0  0  0  0  0  0
   49.2222    2.1944   17.9208 H   0  0  0  0  0  0  0  0  0  0  0  0
   47.1319    2.4027   16.6376 H   0  0  0  0  0  0  0  0  0  0  0  0
   46.5642    4.5083   15.4960 H   0  0  0  0  0  0  0  0  0  0  0  0
   50.7281    5.7334   19.6210 H   0  0  0  0  0  0  0  0  0  0  0  0
   52.7820    5.4667   20.9613 H   0  0  0  0  0  0  0  0  0  0  0  0
   54.3867    3.6594   20.4445 H   0  0  0  0  0  0  0  0  0  0  0  0
   51.8689    2.3625   17.1940 H   0  0  0  0  0  0  0  0  0  0  0  0
   55.7500    0.9819   18.8748 H   0  0  0  0  0  0  0  0  0  0  0  0
   49.9526    7.1589   16.3860 H   0  0  0  0  0  0  0  0  0  0  0  0
   47.1807    6.6356   14.8180 H   0  0  0  0  0  0  0  0  0  0  0  0
   50.5004   10.1553   15.9008 H   0  0  0  0  0  0  0  0  0  0  0  0
   50.9992   11.1348   14.5004 H   0  0  0  0  0  0  0  0  0  0  0  0
   51.3072    9.3801   14.5123 H   0  0  0  0  0  0  0  0  0  0  0  0
   45.0378    9.1900   12.1149 H   0  0  0  0  0  0  0  0  0  0  0  0
   46.4482   13.5243   10.1761 H   0  0  0  0  0  0  0  0  0  0  0  0
   47.9070   12.3928   11.7638 H   0  0  0  0  0  0  0  0  0  0  0  0
   43.8794   12.1351    8.3377 H   0  0  0  0  0  0  0  0  0  0  0  0
   44.4714   13.6918    8.9266 H   0  0  0  0  0  0  0  0  0  0  0  0
   43.0506   12.9689    9.6851 H   0  0  0  0  0  0  0  0  0  0  0  0
   43.0759    9.1691   10.9181 H   0  0  0  0  0  0  0  0  0  0  0  0
   42.3665   10.7772   10.7336 H   0  0  0  0  0  0  0  0  0  0  0  0
   43.1420    9.9626    9.3436 H   0  0  0  0  0  0  0  0  0  0  0  0
   48.3828    7.1631   16.3575 H   0  0  0  0  0  0  0  0  0  0  0  0
   49.3518    8.6318   16.1402 H   0  0  0  0  0  0  0  0  0  0  0  0
   48.7229    6.6073   13.9144 H   0  0  0  0  0  0  0  0  0  0  0  0
   49.6728    8.0613   13.7098 H   0  0  0  0  0  0  0  0  0  0  0  0
   47.7360    9.3548   14.2768 H   0  0  0  0  0  0  0  0  0  0  0  0
   46.8422    8.0159   14.5291 H   0  0  0  0  0  0  0  0  0  0  0  0
   50.2215    5.9626   15.6852 H   0  0  0  0  0  0  0  0  0  0  0  0
  4  1  1  0
  1  2  1  0
  2  3  1  0
 10 20  1  0
  9 21  1  0
 12 13  2  0
 21 22  1  0
  8  9  2  0
 22 23  2  0
 23 24  1  0
 13 14  1  0
  6  7  2  0
 14 15  2  0
  9 10  1  0
 24 25  1  0
 25 26  1  0
 26 27  2  0
 27 23  1  0
 15 16  1  0
 27 28  1  0
 16 11  2  0
 24 29  2  0
  5 11  1  0
 25 30  1  0
 10  5  2  0
 30 31  2  0
 15 17  1  0
 31 32  1  0
  5  6  1  0
 32 33  2  0
  7  8  1  0
 33 34  1  0
 17 18  1  0
 34 35  2  0
 35 30  1  0
 17 19  2  0
 33 36  1  0
 11 12  1  0
 32 37  1  0
 41 38  1  0
 38 39  1  0
 39 40  1  0
  1 42  1  0
  1 43  1  0
  2 44  1  0
  2 45  1  0
  3 46  1  0
  3 47  1  0
  4 48  1  0
  6 49  1  0
  7 50  1  0
  8 51  1  0
 12 52  1  0
 13 53  1  0
 14 54  1  0
 16 55  1  0
 18 56  1  0
 20 57  1  0
 21 58  1  0
 28 59  1  0
 28 60  1  0
 28 61  1  0
 31 62  1  0
 34 63  1  0
 35 64  1  0
 36 65  1  0
 36 66  1  0
 36 67  1  0
 37 68  1  0
 37 69  1  0
 37 70  1  0
 38 71  1  0
 38 72  1  0
 39 73  1  0
 39 74  1  0
 40 75  1  0
 40 76  1  0
 41 77  1  0
M  END
> <Uni-Dock RESULT> 
ENERGY=   -5.341  LOWER_BOUND=    3.827  UPPER_BOUND=    8.001
INTER + INTRA:          -5.341
INTER:                  -5.341
INTRA:                   0.000
UNBOUND:                 0.000

$$$$

     RDKit          3D

 77 78  0  0  0  0  0  0  0  0999 V2000
   49.1062    7.2966   15.6091 C   0  0  0  0  0  0  0  0  0  0  0  0
   47.7544    7.5628   14.9375 C   0  0  0  0  0  0  0  0  0  0  0  0
   47.9169    8.1735   13.6132 N   0  0  0  0  0  0  0  0  0  0  0  0
   49.9194    6.4917   14.7568 O   0  0  0  0  0  0  0  0  0  0  0  0
   49.8996    4.2117   17.5173 C   0  0  0  0  0  0  0  0  0  0  0  0
   49.0038    3.1336   17.4150 C   0  0  0  0  0  0  0  0  0  0  0  0
   47.8156    3.2461   16.6910 C   0  0  0  0  0  0  0  0  0  0  0  0
   47.5003    4.4416   16.0449 C   0  0  0  0  0  0  0  0  0  0  0  0
   48.3716    5.5370   16.0956 C   0  0  0  0  0  0  0  0  0  0  0  0
   49.5558    5.4050   16.8526 C   0  0  0  0  0  0  0  0  0  0  0  0
   51.1362    4.0638   18.3091 C   0  0  0  0  0  0  0  0  0  0  0  0
   51.4209    4.9282   19.3795 C   0  0  0  0  0  0  0  0  0  0  0  0
   52.5829    4.7816   20.1411 C   0  0  0  0  0  0  0  0  0  0  0  0
   53.4852    3.7614   19.8461 C   0  0  0  0  0  0  0  0  0  0  0  0
   53.2256    2.8872   18.7855 C   0  0  0  0  0  0  0  0  0  0  0  0
   52.0571    3.0406   18.0251 C   0  0  0  0  0  0  0  0  0  0  0  0
   54.1534    1.7868   18.4302 C   0  0  0  0  0  0  0  0  0  0  0  0
   55.2395    1.7422   19.2232 O   0  0  0  0  0  0  0  0  0  0  0  0
   53.9979    0.9800   17.5315 O   0  0  0  0  0  0  0  0  0  0  0  0
   50.4051    6.4836   16.9378 O   0  0  0  0  0  0  0  0  0  0  0  0
   47.9858    6.7368   15.4505 N   0  0  0  0  0  0  0  0  0  0  0  0
   48.8590    7.7690   15.2925 N   0  0  0  0  0  0  0  0  0  0  0  0
   48.4917    8.7017   14.4677 C   0  0  0  0  0  0  0  0  0  0  0  0
   47.2574    8.8273   13.6287 C   0  0  0  0  0  0  0  0  0  0  0  0
   47.4582   10.0498   12.9966 N   0  0  0  0  0  0  0  0  0  0  0  0
   48.6710   10.6833   13.3299 N   0  0  0  0  0  0  0  0  0  0  0  0
   49.2893    9.9196   14.1809 C   0  0  0  0  0  0  0  0  0  0  0  0
   50.6071   10.1636   14.8129 C   0  0  0  0  0  0  0  0  0  0  0  0
   46.3870    7.9812   13.5984 O   0  0  0  0  0  0  0  0  0  0  0  0
   46.5970   10.6939   12.0725 C   0  0  0  0  0  0  0  0  0  0  0  0
   45.3655   10.1389   11.6982 C   0  0  0  0  0  0  0  0  0  0  0  0
   44.5115   10.7824   10.7800 C   0  0  0  0  0  0  0  0  0  0  0  0
   44.8970   12.0150   10.2226 C   0  0  0  0  0  0  0  0  0  0  0  0
   46.1262   12.5727   10.5937 C   0  0  0  0  0  0  0  0  0  0  0  0
   46.9621   11.9212   11.5055 C   0  0  0  0  0  0  0  0  0  0  0  0
   44.0235   12.7420    9.2373 C   0  0  0  0  0  0  0  0  0  0  0  0
   43.1989   10.1382   10.4225 C   0  0  0  0  0  0  0  0  0  0  0  0
   49.1880    7.6150   15.7685 C   0  0  0  0  0  0  0  0  0  0  0  0
   48.8373    7.6353   14.2767 C   0  0  0  0  0  0  0  0  0  0  0  0
   47.6197    8.3851   13.9826 N   0  0  0  0  0  0  0  0  0  0  0  0
   50.3790    6.8709   15.9956 O   0  0  0  0  0  0  0  0  0  0  0  0
   48.9594    6.7662   16.5548 H   0  0  0  0  0  0  0  0  0  0  0  0
   49.6348    8.2352   15.8058 H   0  0  0  0  0  0  0  0  0  0  0  0
   47.2187    6.6165   14.8056 H   0  0  0  0  0  0  0  0  0  0  0  0
   47.1412    8.2126   15.5694 H   0  0  0  0  0  0  0  0  0  0  0  0
   48.4542    9.0341   13.7070 H   0  0  0  0  0  0  0  0  0  0  0  0
   48.5335    7.5488   13.0834 H   0  0  0  0  0  0  0  0  0  0  0  0
   50.7480    6.3201   15.2360 H   0  0  0  0  0  0  0  0  0  0  0  0
   49.2219    2.1944   17.9209 H   0  0  0  0  0  0  0  0  0  0  0  0
   47.1317    2.4029   16.6378 H   0  0  0  0  0  0  0  0  0  0  0  0
   46.5641    4.5085   15.4962 H   0  0  0  0  0  0  0  0  0  0  0  0
   50.7283    5.7334   19.6209 H   0  0  0  0  0  0  0  0  0  0  0  0
   52.7823    5.4665   20.9611 H   0  0  0  0  0  0  0  0  0  0  0  0
   54.3867    3.6591   20.4443 H   0  0  0  0  0  0  0  0  0  0  0  0
   51.8686    2.3623   17.1939 H   0  0  0  0  0  0  0  0  0  0  0  0
   55.7497    0.9814   18.8746 H   0  0  0  0  0  0  0  0  0  0  0  0
   49.9527    7.1588   16.3858 H   0  0  0  0  0  0  0  0  0  0  0  0
   47.1807    6.6357   14.8181 H   0  0  0  0  0  0  0  0  0  0  0  0
   50.5008   10.1551   15.9006 H   0  0  0  0  0  0  0  0  0  0  0  0
   50.9997   11.1346   14.5001 H   0  0  0  0  0  0  0  0  0  0  0  0
   51.3074    9.3798   14.5120 H   0  0  0  0  0  0  0  0  0  0  0  0
   45.0379    9.1902   12.1150 H   0  0  0  0  0  0  0  0  0  0  0  0
   46.4486   13.5243   10.1759 H   0  0  0  0  0  0  0  0  0  0  0  0
   47.9074   12.3927   11.7635 H   0  0  0  0  0  0  0  0  0  0  0  0
   43.8796   12.1353    8.3377 H   0  0  0  0  0  0  0  0  0  0  0  0
   44.4718   13.6919    8.9265 H   0  0  0  0  0  0  0  0  0  0  0  0
   43.0509   12.9692    9.6851 H   0  0  0  0  0  0  0  0  0  0  0  0
   43.0760    9.1694   10.9182 H   0  0  0  0  0  0  0  0  0  0  0  0
   42.3667   10.7776   10.7337 H   0  0  0  0  0  0  0  0  0  0  0  0
   43.1421    9.9628    9.3437 H   0  0  0  0  0  0  0  0  0  0  0  0
   48.3829    7.1631   16.3575 H   0  0  0  0  0  0  0  0  0  0  0  0
   49.3521    8.6317   16.1400 H   0  0  0  0  0  0  0  0  0  0  0  0
   48.7229    6.6073   13.9143 H   0  0  0  0  0  0  0  0  0  0  0  0
   49.6729    8.0612   13.7097 H   0  0  0  0  0  0  0  0  0  0  0  0
   47.7363    9.3548   14.2767 H   0  0  0  0  0  0  0  0  0  0  0  0
   46.8423    8.0160   14.5291 H   0  0  0  0  0  0  0  0  0  0  0  0
   50.2215    5.9624   15.6851 H   0  0  0  0  0  0  0  0  0  0  0  0
  4  1  1  0
  1  2  1  0
  2  3  1  0
 10 20  1  0
  9 21  1  0
 12 13  2  0
 21 22  1  0
  8  9  2  0
 22 23  2  0
 23 24  1  0
 13 14  1  0
  6  7  2  0
 14 15  2  0
  9 10  1  0
 24 25  1  0
 25 26  1  0
 26 27  2  0
 27 23  1  0
 15 16  1  0
 27 28  1  0
 16 11  2  0
 24 29  2  0
  5 11  1  0
 25 30  1  0
 10  5  2  0
 30 31  2  0
 15 17  1  0
 31 32  1  0
  5  6  1  0
 32 33  2  0
  7  8  1  0
 33 34  1  0
 17 18  1  0
 34 35  2  0
 35 30  1  0
 17 19  2  0
 33 36  1  0
 11 12  1  0
 32 37  1  0
 41 38  1  0
 38 39  1  0
 39 40  1  0
  1 42  1  0
  1 43  1  0
  2 44  1  0
  2 45  1  0
  3 46  1  0
  3 47  1  0
  4 48  1  0
  6 49  1  0
  7 50  1  0
  8 51  1  0
 12 52  1  0
 13 53  1  0
 14 54  1  0
 16 55  1  0
 18 56  1  0
 20 57  1  0
 21 58  1  0
 28 59  1  0
 28 60  1  0
 28 61  1  0
 31 62  1  0
 34 63  1  0
 35 64  1  0
 36 65  1  0
 36 66  1  0
 36 67  1  0
 37 68  1  0
 37 69  1  0
 37 70  1  0
 38 71  1  0
 38 72  1  0
 39 73  1  0
 39 74  1  0
 40 75  1  0
 40 76  1  0
 41 77  1  0
M  END
> <Uni-Dock RESULT> 
ENERGY=   -5.341  LOWER_BOUND=    3.827  UPPER_BOUND=    8.000
INTER + INTRA:          -5.341
INTER:                  -5.341
INTRA:                   0.000
UNBOUND:                 0.000

$$$$

     RDKit          3D

 77 78  0  0  0  0  0  0  0  0999 V2000
   49.4113    7.1912   15.3165 C   0  0  0  0  0  0  0  0  0  0  0  0
   48.9977    8.4285   14.5120 C   0  0  0  0  0  0  0  0  0  0  0  0
   47.5386    8.5648   14.4369 N   0  0  0  0  0  0  0  0  0  0  0  0
   48.8218    7.2395   16.6149 O   0  0  0  0  0  0  0  0  0  0  0  0
   52.2165    7.1441   17.7487 C   0  0  0  0  0  0  0  0  0  0  0  0
   52.7703    8.3786   18.1288 C   0  0  0  0  0  0  0  0  0  0  0  0
   52.3398    9.5739   17.5502 C   0  0  0  0  0  0  0  0  0  0  0  0
   51.3368    9.5606   16.5809 C   0  0  0  0  0  0  0  0  0  0  0  0
   50.7354    8.3590   16.1857 C   0  0  0  0  0  0  0  0  0  0  0  0
   51.2042    7.1622   16.7696 C   0  0  0  0  0  0  0  0  0  0  0  0
   52.7113    5.8983   18.3661 C   0  0  0  0  0  0  0  0  0  0  0  0
   53.2325    4.8560   17.5811 C   0  0  0  0  0  0  0  0  0  0  0  0
   53.7161    3.6816   18.1630 C   0  0  0  0  0  0  0  0  0  0  0  0
   53.6893    3.5279   19.5478 C   0  0  0  0  0  0  0  0  0  0  0  0
   53.1756    4.5505   20.3522 C   0  0  0  0  0  0  0  0  0  0  0  0
   52.6916    5.7266   19.7609 C   0  0  0  0  0  0  0  0  0  0  0  0
   53.1237    4.4362   21.8295 C   0  0  0  0  0  0  0  0  0  0  0  0
   53.6086    3.2649   22.2804 O   0  0  0  0  0  0  0  0  0  0  0  0
   52.7021    5.2800   22.5994 O   0  0  0  0  0  0  0  0  0  0  0  0
   50.6450    5.9716   16.3672 O   0  0  0  0  0  0  0  0  0  0  0  0
   49.7466    8.4000   15.1733 N   0  0  0  0  0  0  0  0  0  0  0  0
   48.9873    7.3090   14.8797 N   0  0  0  0  0  0  0  0  0  0  0  0
   47.9478    7.5256   14.1329 C   0  0  0  0  0  0  0  0  0  0  0  0
   47.4201    8.7985   13.5459 C   0  0  0  0  0  0  0  0  0  0  0  0
   46.3073    8.3542   12.8399 N   0  0  0  0  0  0  0  0  0  0  0  0
   46.0754    6.9684   12.9341 N   0  0  0  0  0  0  0  0  0  0  0  0
   47.0132    6.4655   13.6807 C   0  0  0  0  0  0  0  0  0  0  0  0
   47.1854    5.0465   14.0708 C   0  0  0  0  0  0  0  0  0  0  0  0
   47.9349    9.8812   13.7387 O   0  0  0  0  0  0  0  0  0  0  0  0
   45.4072    9.1340   12.0702 C   0  0  0  0  0  0  0  0  0  0  0  0
   45.5741   10.5168   11.9131 C   0  0  0  0  0  0  0  0  0  0  0  0
   44.6779   11.2886   11.1465 C   0  0  0  0  0  0  0  0  0  0  0  0
   43.5870   10.6617   10.5177 C   0  0  0  0  0  0  0  0  0  0  0  0
   43.4167    9.2808   10.6721 C   0  0  0  0  0  0  0  0  0  0  0  0
   44.3144    8.5296   11.4365 C   0  0  0  0  0  0  0  0  0  0  0  0
   42.6009   11.4394    9.6900 C   0  0  0  0  0  0  0  0  0  0  0  0
   44.9144   12.7690   11.0109 C   0  0  0  0  0  0  0  0  0  0  0  0
   49.4010    6.9208   15.0710 C   0  0  0  0  0  0  0  0  0  0  0  0
   48.1517    7.7963   15.2184 C   0  0  0  0  0  0  0  0  0  0  0  0
   47.8397    8.5601   14.0140 N   0  0  0  0  0  0  0  0  0  0  0  0
   49.6571    6.2029   16.2722 O   0  0  0  0  0  0  0  0  0  0  0  0
   50.4994    7.1602   15.4277 H   0  0  0  0  0  0  0  0  0  0  0  0
   49.0780    6.2742   14.8193 H   0  0  0  0  0  0  0  0  0  0  0  0
   49.3929    9.3284   14.9956 H   0  0  0  0  0  0  0  0  0  0  0  0
   49.4148    8.3777   13.5014 H   0  0  0  0  0  0  0  0  0  0  0  0
   47.1455    7.7168   14.0313 H   0  0  0  0  0  0  0  0  0  0  0  0
   47.2004    8.5605   15.4047 H   0  0  0  0  0  0  0  0  0  0  0  0
   49.1384    6.4574   17.0984 H   0  0  0  0  0  0  0  0  0  0  0  0
   53.5633    8.4134   18.8742 H   0  0  0  0  0  0  0  0  0  0  0  0
   52.7930   10.5152   17.8504 H   0  0  0  0  0  0  0  0  0  0  0  0
   51.0258   10.5031   16.1370 H   0  0  0  0  0  0  0  0  0  0  0  0
   53.2570    4.9582   16.4970 H   0  0  0  0  0  0  0  0  0  0  0  0
   54.1098    2.8882   17.5332 H   0  0  0  0  0  0  0  0  0  0  0  0
   54.0662    2.6088   19.9884 H   0  0  0  0  0  0  0  0  0  0  0  0
   52.2829    6.5129   20.3943 H   0  0  0  0  0  0  0  0  0  0  0  0
   53.5101    3.3326   23.2533 H   0  0  0  0  0  0  0  0  0  0  0  0
   49.9724    6.2596   15.7116 H   0  0  0  0  0  0  0  0  0  0  0  0
   49.4040    9.3454   14.9562 H   0  0  0  0  0  0  0  0  0  0  0  0
   48.1714    4.6954   13.7562 H   0  0  0  0  0  0  0  0  0  0  0  0
   46.4184    4.4303   13.5947 H   0  0  0  0  0  0  0  0  0  0  0  0
   47.0978    4.9527   15.1565 H   0  0  0  0  0  0  0  0  0  0  0  0
   46.4096   11.0290   12.3828 H   0  0  0  0  0  0  0  0  0  0  0  0
   42.5802    8.7718   10.1974 H   0  0  0  0  0  0  0  0  0  0  0  0
   44.1415    7.4599   11.5280 H   0  0  0  0  0  0  0  0  0  0  0  0
   42.0923   12.1862   10.3079 H   0  0  0  0  0  0  0  0  0  0  0  0
   41.8325   10.7871    9.2612 H   0  0  0  0  0  0  0  0  0  0  0  0
   43.1097   11.9374    8.8586 H   0  0  0  0  0  0  0  0  0  0  0  0
   45.7840   13.0942   11.5918 H   0  0  0  0  0  0  0  0  0  0  0  0
   45.1000   13.0279    9.9636 H   0  0  0  0  0  0  0  0  0  0  0  0
   44.0483   13.3282   11.3782 H   0  0  0  0  0  0  0  0  0  0  0  0
   50.2828    7.5269   14.8382 H   0  0  0  0  0  0  0  0  0  0  0  0
   49.2676    6.1907   14.2662 H   0  0  0  0  0  0  0  0  0  0  0  0
   48.2872    8.4879   16.0578 H   0  0  0  0  0  0  0  0  0  0  0  0
   47.2935    7.1684   15.4836 H   0  0  0  0  0  0  0  0  0  0  0  0
   47.6680    7.9201   13.2385 H   0  0  0  0  0  0  0  0  0  0  0  0
   48.6436    9.1246   13.7412 H   0  0  0  0  0  0  0  0  0  0  0  0
   49.7976    6.8553   16.9801 H   0  0  0  0  0  0  0  0  0  0  0  0
  4  1  1  0
  1  2  1  0
  2  3  1  0
 10 20  1  0
  9 21  1  0
 12 13  2  0
 21 22  1  0
  8  9  2  0
 22 23  2  0
 23 24  1  0
 13 14  1  0
  6  7  2  0
 14 15  2  0
  9 10  1  0
 24 25  1  0
 25 26  1  0
 26 27  2  0
 27 23  1  0
 15 16  1  0
 27 28  1  0
 16 11  2  0
 24 29  2  0
  5 11  1  0
 25 30  1  0
 10  5  2  0
 30 31  2  0
 15 17  1  0
 31 32  1  0
  5  6  1  0
 32 33  2  0
  7  8  1  0
 33 34  1  0
 17 18  1  0
 34 35  2  0
 35 30  1  0
 17 19  2  0
 33 36  1  0
 11 12  1  0
 32 37  1  0
 41 38  1  0
 38 39  1  0
 39 40  1  0
  1 42  1  0
  1 43  1  0
  2 44  1  0
  2 45  1  0
  3 46  1  0
  3 47  1  0
  4 48  1  0
  6 49  1  0
  7 50  1  0
  8 51  1  0
 12 52  1  0
 13 53  1  0
 14 54  1  0
 16 55  1  0
 18 56  1  0
 20 57  1  0
 21 58  1  0
 28 59  1  0
 28 60  1  0
 28 61  1  0
 31 62  1  0
 34 63  1  0
 35 64  1  0
 36 65  1  0
 36 66  1  0
 36 67  1  0
 37 68  1  0
 37 69  1  0
 37 70  1  0
 38 71  1  0
 38 72  1  0
 39 73  1  0
 39 74  1  0
 40 75  1  0
 40 76  1  0
 41 77  1  0
M  END
> <Uni-Dock RESULT> 
ENERGY=   -4.895  LOWER_BOUND=    3.696  UPPER_BOUND=    8.774
INTER + INTRA:          -4.895
INTER:                  -4.895
INTRA:                   0.000
UNBOUND:                 0.000

$$$$

     RDKit          3D

 77 78  0  0  0  0  0  0  0  0999 V2000
   44.7623   12.8079    9.2606 C   0  0  0  0  0  0  0  0  0  0  0  0
   44.0647   13.8375   10.1564 C   0  0  0  0  0  0  0  0  0  0  0  0
   43.7251   13.2744   11.4682 N   0  0  0  0  0  0  0  0  0  0  0  0
   45.9152   12.2920    9.9241 O   0  0  0  0  0  0  0  0  0  0  0  0
   47.6670   13.5869    7.0827 C   0  0  0  0  0  0  0  0  0  0  0  0
   48.3090   14.8230    7.2700 C   0  0  0  0  0  0  0  0  0  0  0  0
   47.8220   15.7606    8.1824 C   0  0  0  0  0  0  0  0  0  0  0  0
   46.6825   15.4776    8.9357 C   0  0  0  0  0  0  0  0  0  0  0  0
   46.0210   14.2500    8.8042 C   0  0  0  0  0  0  0  0  0  0  0  0
   46.5204   13.3283    7.8588 C   0  0  0  0  0  0  0  0  0  0  0  0
   48.1974   12.6286    6.0936 C   0  0  0  0  0  0  0  0  0  0  0  0
   47.3975   12.1547    5.0401 C   0  0  0  0  0  0  0  0  0  0  0  0
   47.9008   11.2596    4.0930 C   0  0  0  0  0  0  0  0  0  0  0  0
   49.2207   10.8211    4.1811 C   0  0  0  0  0  0  0  0  0  0  0  0
   50.0383   11.2775    5.2203 C   0  0  0  0  0  0  0  0  0  0  0  0
   49.5260   12.1760    6.1677 C   0  0  0  0  0  0  0  0  0  0  0  0
   51.4483   10.8409    5.3593 C   0  0  0  0  0  0  0  0  0  0  0  0
   51.8251    9.9769    4.3992 O   0  0  0  0  0  0  0  0  0  0  0  0
   52.2266   11.1961    6.2257 O   0  0  0  0  0  0  0  0  0  0  0  0
   45.8616   12.1318    7.6960 O   0  0  0  0  0  0  0  0  0  0  0  0
   44.8497   14.0292    9.5682 N   0  0  0  0  0  0  0  0  0  0  0  0
   44.2708   12.7993    9.6385 N   0  0  0  0  0  0  0  0  0  0  0  0
   43.3711   12.6476   10.5619 C   0  0  0  0  0  0  0  0  0  0  0  0
   42.8674   13.6069   11.5960 C   0  0  0  0  0  0  0  0  0  0  0  0
   41.9049   12.8478   12.2530 N   0  0  0  0  0  0  0  0  0  0  0  0
   41.7664   11.5351   11.7623 N   0  0  0  0  0  0  0  0  0  0  0  0
   42.6079   11.3942   10.7816 C   0  0  0  0  0  0  0  0  0  0  0  0
   42.8315   10.1827    9.9583 C   0  0  0  0  0  0  0  0  0  0  0  0
   43.2995   14.7348   11.7208 O   0  0  0  0  0  0  0  0  0  0  0  0
   41.0853   13.2479   13.3387 C   0  0  0  0  0  0  0  0  0  0  0  0
   41.1494   14.5405   13.8771 C   0  0  0  0  0  0  0  0  0  0  0  0
   40.3325   14.9350   14.9557 C   0  0  0  0  0  0  0  0  0  0  0  0
   39.4249   14.0141   15.5098 C   0  0  0  0  0  0  0  0  0  0  0  0
   39.3577   12.7221   14.9750 C   0  0  0  0  0  0  0  0  0  0  0  0
   40.1755   12.3465   13.9053 C   0  0  0  0  0  0  0  0  0  0  0  0
   38.5319   14.3838   16.6622 C   0  0  0  0  0  0  0  0  0  0  0  0
   40.4441   16.3393   15.4859 C   0  0  0  0  0  0  0  0  0  0  0  0
   44.4857   12.6245    9.1077 C   0  0  0  0  0  0  0  0  0  0  0  0
   44.5017   12.7447   10.6355 C   0  0  0  0  0  0  0  0  0  0  0  0
   43.3723   13.5039   11.1642 N   0  0  0  0  0  0  0  0  0  0  0  0
   45.6072   11.8786    8.6497 O   0  0  0  0  0  0  0  0  0  0  0  0
   45.0787   13.2763    8.3237 H   0  0  0  0  0  0  0  0  0  0  0  0
   44.0919   11.9726    9.0324 H   0  0  0  0  0  0  0  0  0  0  0  0
   44.7318   14.6905   10.3216 H   0  0  0  0  0  0  0  0  0  0  0  0
   43.1575   14.2078    9.6691 H   0  0  0  0  0  0  0  0  0  0  0  0
   43.1412   12.4501   11.3357 H   0  0  0  0  0  0  0  0  0  0  0  0
   44.5989   12.9038   11.8558 H   0  0  0  0  0  0  0  0  0  0  0  0
   46.3427   11.6727    9.3079 H   0  0  0  0  0  0  0  0  0  0  0  0
   49.1927   15.0719    6.6846 H   0  0  0  0  0  0  0  0  0  0  0  0
   48.3276   16.7157    8.2997 H   0  0  0  0  0  0  0  0  0  0  0  0
   46.3161   16.2279    9.6320 H   0  0  0  0  0  0  0  0  0  0  0  0
   46.3626   12.4843    4.9590 H   0  0  0  0  0  0  0  0  0  0  0  0
   47.2600   10.9043    3.2903 H   0  0  0  0  0  0  0  0  0  0  0  0
   49.5999   10.1229    3.4397 H   0  0  0  0  0  0  0  0  0  0  0  0
   50.1664   12.5172    6.9800 H   0  0  0  0  0  0  0  0  0  0  0  0
   52.7601    9.7808    4.6180 H   0  0  0  0  0  0  0  0  0  0  0  0
   45.1316   12.1965    8.3503 H   0  0  0  0  0  0  0  0  0  0  0  0
   44.6979   14.7186   10.3165 H   0  0  0  0  0  0  0  0  0  0  0  0
   42.6715   10.4200    8.9035 H   0  0  0  0  0  0  0  0  0  0  0  0
   42.1370    9.3929   10.2559 H   0  0  0  0  0  0  0  0  0  0  0  0
   43.8569    9.8300   10.0980 H   0  0  0  0  0  0  0  0  0  0  0  0
   41.8372   15.2756   13.4677 H   0  0  0  0  0  0  0  0  0  0  0  0
   38.6653   11.9904   15.3864 H   0  0  0  0  0  0  0  0  0  0  0  0
   40.0882   11.3321   13.5233 H   0  0  0  0  0  0  0  0  0  0  0  0
   39.1325   14.6471   17.5386 H   0  0  0  0  0  0  0  0  0  0  0  0
   37.8783   13.5524   16.9477 H   0  0  0  0  0  0  0  0  0  0  0  0
   37.8898   15.2279   16.3916 H   0  0  0  0  0  0  0  0  0  0  0  0
   41.2217   16.9075   14.9644 H   0  0  0  0  0  0  0  0  0  0  0  0
   39.4973   16.8714   15.3495 H   0  0  0  0  0  0  0  0  0  0  0  0
   40.7065   16.3256   16.5483 H   0  0  0  0  0  0  0  0  0  0  0  0
   44.5125   13.6112    8.6335 H   0  0  0  0  0  0  0  0  0  0  0  0
   43.5803   12.1094    8.7707 H   0  0  0  0  0  0  0  0  0  0  0  0
   45.4359   13.2207   10.9548 H   0  0  0  0  0  0  0  0  0  0  0  0
   44.5082   11.7437   11.0817 H   0  0  0  0  0  0  0  0  0  0  0  0
   42.5000   13.0411   10.9086 H   0  0  0  0  0  0  0  0  0  0  0  0
   43.3394   14.4265   10.7318 H   0  0  0  0  0  0  0  0  0  0  0  0
   46.4094   12.3515    8.9314 H   0  0  0  0  0  0  0  0  0  0  0  0
  4  1  1  0
  1  2  1  0
  2  3  1  0
 10 20  1  0
  9 21  1  0
 12 13  2  0
 21 22  1  0
  8  9  2  0
 22 23  2  0
 23 24  1  0
 13 14  1  0
  6  7  2  0
 14 15  2  0
  9 10  1  0
 24 25  1  0
 25 26  1  0
 26 27  2  0
 27 23  1  0
 15 16  1  0
 27 28  1  0
 16 11  2  0
 24 29  2  0
  5 11  1  0
 25 30  1  0
 10  5  2  0
 30 31  2  0
 15 17  1  0
 31 32  1  0
  5  6  1  0
 32 33  2  0
  7  8  1  0
 33 34  1  0
 17 18  1  0
 34 35  2  0
 35 30  1  0
 17 19  2  0
 33 36  1  0
 11 12  1  0
 32 37  1  0
 41 38  1  0
 38 39  1  0
 39 40  1  0
  1 42  1  0
  1 43  1  0
  2 44  1  0
  2 45  1  0
  3 46  1  0
  3 47  1  0
  4 48  1  0
  6 49  1  0
  7 50  1  0
  8 51  1  0
 12 52  1  0
 13 53  1  0
 14 54  1  0
 16 55  1  0
 18 56  1  0
 20 57  1  0
 21 58  1  0
 28 59  1  0
 28 60  1  0
 28 61  1  0
 31 62  1  0
 34 63  1  0
 35 64  1  0
 36 65  1  0
 36 66  1  0
 36 67  1  0
 37 68  1  0
 37 69  1  0
 37 70  1  0
 38 71  1  0
 38 72  1  0
 39 73  1  0
 39 74  1  0
 40 75  1  0
 40 76  1  0
 41 77  1  0
M  END
> <Uni-Dock RESULT> 
ENERGY=   -4.845  LOWER_BOUND=    7.658  UPPER_BOUND=    9.783
INTER + INTRA:          -4.845
INTER:                  -4.845
INTRA:                   0.000
UNBOUND:                 0.000

$$$$

     RDKit          3D

 77 78  0  0  0  0  0  0  0  0999 V2000
   47.0872    8.7106   13.1175 C   0  0  0  0  0  0  0  0  0  0  0  0
   47.8524    7.5117   13.6887 C   0  0  0  0  0  0  0  0  0  0  0  0
   48.3875    7.7956   15.0252 N   0  0  0  0  0  0  0  0  0  0  0  0
   46.0562    9.1019   14.0227 O   0  0  0  0  0  0  0  0  0  0  0  0
   43.8879    8.4293   11.2541 C   0  0  0  0  0  0  0  0  0  0  0  0
   43.2235    7.1911   11.2831 C   0  0  0  0  0  0  0  0  0  0  0  0
   43.7864    6.0824   11.9177 C   0  0  0  0  0  0  0  0  0  0  0  0
   45.0270    6.1909   12.5461 C   0  0  0  0  0  0  0  0  0  0  0  0
   45.7177    7.4091   12.5670 C   0  0  0  0  0  0  0  0  0  0  0  0
   45.1375    8.5092   11.8990 C   0  0  0  0  0  0  0  0  0  0  0  0
   43.2727    9.5743   10.5553 C   0  0  0  0  0  0  0  0  0  0  0  0
   43.9452   10.2363    9.5143 C   0  0  0  0  0  0  0  0  0  0  0  0
   43.3597   11.3107    8.8400 C   0  0  0  0  0  0  0  0  0  0  0  0
   42.0835   11.7438    9.1948 C   0  0  0  0  0  0  0  0  0  0  0  0
   41.3923   11.1020   10.2277 C   0  0  0  0  0  0  0  0  0  0  0  0
   41.9866   10.0242   10.9003 C   0  0  0  0  0  0  0  0  0  0  0  0
   40.0336   11.5245   10.6440 C   0  0  0  0  0  0  0  0  0  0  0  0
   39.5703   12.5689    9.9334 O   0  0  0  0  0  0  0  0  0  0  0  0
   39.3627   11.0158   11.5236 O   0  0  0  0  0  0  0  0  0  0  0  0
   45.8201    9.7033   11.8837 O   0  0  0  0  0  0  0  0  0  0  0  0
   46.9887    7.4540   13.1892 N   0  0  0  0  0  0  0  0  0  0  0  0
   47.6245    8.6357   13.4179 N   0  0  0  0  0  0  0  0  0  0  0  0
   48.6447    8.5852   14.2190 C   0  0  0  0  0  0  0  0  0  0  0  0
   49.2393    7.4306   14.9650 C   0  0  0  0  0  0  0  0  0  0  0  0
   50.3126    8.0275   15.6178 N   0  0  0  0  0  0  0  0  0  0  0  0
   50.4413    9.4095   15.3793 N   0  0  0  0  0  0  0  0  0  0  0  0
   49.4838    9.7571   14.5717 C   0  0  0  0  0  0  0  0  0  0  0  0
   49.2055   11.1121   14.0407 C   0  0  0  0  0  0  0  0  0  0  0  0
   48.7792    6.3076   14.9254 O   0  0  0  0  0  0  0  0  0  0  0  0
   51.2512    7.4055   16.4796 C   0  0  0  0  0  0  0  0  0  0  0  0
   51.2032    6.0325   16.7581 C   0  0  0  0  0  0  0  0  0  0  0  0
   52.1384    5.4174   17.6145 C   0  0  0  0  0  0  0  0  0  0  0  0
   53.1506    6.1942   18.2066 C   0  0  0  0  0  0  0  0  0  0  0  0
   53.2020    7.5658   17.9311 C   0  0  0  0  0  0  0  0  0  0  0  0
   52.2663    8.1608   17.0798 C   0  0  0  0  0  0  0  0  0  0  0  0
   54.1720    5.5874   19.1290 C   0  0  0  0  0  0  0  0  0  0  0  0
   52.0375    3.9374   17.8697 C   0  0  0  0  0  0  0  0  0  0  0  0
   47.3487    8.9164   12.9666 C   0  0  0  0  0  0  0  0  0  0  0  0
   47.5308    8.4935   14.4285 C   0  0  0  0  0  0  0  0  0  0  0  0
   48.6864    7.6259   14.6362 N   0  0  0  0  0  0  0  0  0  0  0  0
   46.2097    9.7567   12.8238 O   0  0  0  0  0  0  0  0  0  0  0  0
   46.6292    8.4441   12.1602 H   0  0  0  0  0  0  0  0  0  0  0  0
   47.7569    9.5638   12.9665 H   0  0  0  0  0  0  0  0  0  0  0  0
   47.1769    6.6537   13.7747 H   0  0  0  0  0  0  0  0  0  0  0  0
   48.6699    7.2317   13.0172 H   0  0  0  0  0  0  0  0  0  0  0  0
   48.9837    8.6204   14.9769 H   0  0  0  0  0  0  0  0  0  0  0  0
   47.5898    8.0953   15.5954 H   0  0  0  0  0  0  0  0  0  0  0  0
   45.5778    9.8386   13.6052 H   0  0  0  0  0  0  0  0  0  0  0  0
   42.2599    7.0785   10.7888 H   0  0  0  0  0  0  0  0  0  0  0  0
   43.2600    5.1314   11.9147 H   0  0  0  0  0  0  0  0  0  0  0  0
   45.4499    5.3107   13.0243 H   0  0  0  0  0  0  0  0  0  0  0  0
   44.9449    9.9131    9.2273 H   0  0  0  0  0  0  0  0  0  0  0  0
   43.9029   11.8089    8.0414 H   0  0  0  0  0  0  0  0  0  0  0  0
   41.6397   12.5821    8.6644 H   0  0  0  0  0  0  0  0  0  0  0  0
   41.4456    9.5378   11.7110 H   0  0  0  0  0  0  0  0  0  0  0  0
   38.6820   12.7323   10.3140 H   0  0  0  0  0  0  0  0  0  0  0  0
   46.6271    9.4975   12.4048 H   0  0  0  0  0  0  0  0  0  0  0  0
   47.2086    6.6266   13.7596 H   0  0  0  0  0  0  0  0  0  0  0  0
   49.2134   11.0879   12.9481 H   0  0  0  0  0  0  0  0  0  0  0  0
   49.9669   11.8152   14.3878 H   0  0  0  0  0  0  0  0  0  0  0  0
   48.2240   11.4461   14.3878 H   0  0  0  0  0  0  0  0  0  0  0  0
   50.4359    5.4052   16.3123 H   0  0  0  0  0  0  0  0  0  0  0  0
   53.9739    8.1894   18.3776 H   0  0  0  0  0  0  0  0  0  0  0  0
   52.3459    9.2295   16.8954 H   0  0  0  0  0  0  0  0  0  0  0  0
   53.6824    5.1639   20.0116 H   0  0  0  0  0  0  0  0  0  0  0  0
   54.8931    6.3344   19.4781 H   0  0  0  0  0  0  0  0  0  0  0  0
   54.7353    4.8043   18.6118 H   0  0  0  0  0  0  0  0  0  0  0  0
   51.1736    3.4975   17.3602 H   0  0  0  0  0  0  0  0  0  0  0  0
   52.9339    3.4282   17.5016 H   0  0  0  0  0  0  0  0  0  0  0  0
   51.9195    3.7427   18.9402 H   0  0  0  0  0  0  0  0  0  0  0  0
   47.2165    8.0449   12.3168 H   0  0  0  0  0  0  0  0  0  0  0  0
   48.2227    9.4739   12.6146 H   0  0  0  0  0  0  0  0  0  0  0  0
   46.6275    7.9783   14.7749 H   0  0  0  0  0  0  0  0  0  0  0  0
   47.6270    9.3851   15.0585 H   0  0  0  0  0  0  0  0  0  0  0  0
   49.5362    8.1165   14.3575 H   0  0  0  0  0  0  0  0  0  0  0  0
   48.6216    6.8080   14.0312 H   0  0  0  0  0  0  0  0  0  0  0  0
   45.4323    9.2499   13.1160 H   0  0  0  0  0  0  0  0  0  0  0  0
  4  1  1  0
  1  2  1  0
  2  3  1  0
 10 20  1  0
  9 21  1  0
 12 13  2  0
 21 22  1  0
  8  9  2  0
 22 23  2  0
 23 24  1  0
 13 14  1  0
  6  7  2  0
 14 15  2  0
  9 10  1  0
 24 25  1  0
 25 26  1  0
 26 27  2  0
 27 23  1  0
 15 16  1  0
 27 28  1  0
 16 11  2  0
 24 29  2  0
  5 11  1  0
 25 30  1  0
 10  5  2  0
 30 31  2  0
 15 17  1  0
 31 32  1  0
  5  6  1  0
 32 33  2  0
  7  8  1  0
 33 34  1  0
 17 18  1  0
 34 35  2  0
 35 30  1  0
 17 19  2  0
 33 36  1  0
 11 12  1  0
 32 37  1  0
 41 38  1  0
 38 39  1  0
 39 40  1  0
  1 42  1  0
  1 43  1  0
  2 44  1  0
  2 45  1  0
  3 46  1  0
  3 47  1  0
  4 48  1  0
  6 49  1  0
  7 50  1  0
  8 51  1  0
 12 52  1  0
 13 53  1  0
 14 54  1  0
 16 55  1  0
 18 56  1  0
 20 57  1  0
 21 58  1  0
 28 59  1  0
 28 60  1  0
 28 61  1  0
 31 62  1  0
 34 63  1  0
 35 64  1  0
 36 65  1  0
 36 66  1  0
 36 67  1  0
 37 68  1  0
 37 69  1  0
 37 70  1  0
 38 71  1  0
 38 72  1  0
 39 73  1  0
 39 74  1  0
 40 75  1  0
 40 76  1  0
 41 77  1  0
M  END
> <Uni-Dock RESULT> 
ENERGY=   -4.827  LOWER_BOUND=    3.190  UPPER_BOUND=    5.584
INTER + INTRA:          -4.827
INTER:                  -4.827
INTRA:                   0.000
UNBOUND:                 0.000

$$$$

     RDKit          3D

 77 78  0  0  0  0  0  0  0  0999 V2000
   48.7427    9.9473   15.6651 C   0  0  0  0  0  0  0  0  0  0  0  0
   48.2298   10.0459   17.1061 C   0  0  0  0  0  0  0  0  0  0  0  0
   48.9216    9.1048   17.9943 N   0  0  0  0  0  0  0  0  0  0  0  0
   50.1555   10.1449   15.6402 O   0  0  0  0  0  0  0  0  0  0  0  0
   49.3564   12.8853   13.4790 C   0  0  0  0  0  0  0  0  0  0  0  0
   49.3496   14.1565   14.0786 C   0  0  0  0  0  0  0  0  0  0  0  0
   49.0395   14.3176   15.4301 C   0  0  0  0  0  0  0  0  0  0  0  0
   48.7362   13.2056   16.2159 C   0  0  0  0  0  0  0  0  0  0  0  0
   48.7538   11.9151   15.6718 C   0  0  0  0  0  0  0  0  0  0  0  0
   49.0485   11.7813   14.2977 C   0  0  0  0  0  0  0  0  0  0  0  0
   49.6677   12.7549   12.0424 C   0  0  0  0  0  0  0  0  0  0  0  0
   48.7624   12.1484   11.1553 C   0  0  0  0  0  0  0  0  0  0  0  0
   49.0468   12.0370    9.7921 C   0  0  0  0  0  0  0  0  0  0  0  0
   50.2470   12.5345    9.2878 C   0  0  0  0  0  0  0  0  0  0  0  0
   51.1656   13.1428   10.1496 C   0  0  0  0  0  0  0  0  0  0  0  0
   50.8733   13.2508   11.5171 C   0  0  0  0  0  0  0  0  0  0  0  0
   52.4563   13.6869    9.6638 C   0  0  0  0  0  0  0  0  0  0  0  0
   52.6283   13.5210    8.3397 O   0  0  0  0  0  0  0  0  0  0  0  0
   53.3036   14.2371   10.3435 O   0  0  0  0  0  0  0  0  0  0  0  0
   49.0376   10.5228   13.7427 O   0  0  0  0  0  0  0  0  0  0  0  0
   48.4044   10.8260   16.5062 N   0  0  0  0  0  0  0  0  0  0  0  0
   48.5872    9.5383   16.1044 N   0  0  0  0  0  0  0  0  0  0  0  0
   48.4847    8.6349   17.0310 C   0  0  0  0  0  0  0  0  0  0  0  0
   48.2155    8.7725   18.4979 C   0  0  0  0  0  0  0  0  0  0  0  0
   48.2087    7.4467   18.9182 N   0  0  0  0  0  0  0  0  0  0  0  0
   48.4574    6.5120   17.8947 N   0  0  0  0  0  0  0  0  0  0  0  0
   48.6225    7.1773   16.7901 C   0  0  0  0  0  0  0  0  0  0  0  0
   48.9141    6.6264   15.4459 C   0  0  0  0  0  0  0  0  0  0  0  0
   48.0745    9.8454   19.0487 O   0  0  0  0  0  0  0  0  0  0  0  0
   47.9948    6.9605   20.2329 C   0  0  0  0  0  0  0  0  0  0  0  0
   47.7263    7.8218   21.3057 C   0  0  0  0  0  0  0  0  0  0  0  0
   47.5132    7.3350   22.6110 C   0  0  0  0  0  0  0  0  0  0  0  0
   47.5671    5.9500   22.8508 C   0  0  0  0  0  0  0  0  0  0  0  0
   47.8349    5.0863   21.7821 C   0  0  0  0  0  0  0  0  0  0  0  0
   48.0446    5.5854   20.4932 C   0  0  0  0  0  0  0  0  0  0  0  0
   47.3486    5.3789   24.2250 C   0  0  0  0  0  0  0  0  0  0  0  0
   47.2236    8.3105   23.7202 C   0  0  0  0  0  0  0  0  0  0  0  0
   48.5481    9.6730   15.5224 C   0  0  0  0  0  0  0  0  0  0  0  0
   49.2948    9.4083   16.8343 C   0  0  0  0  0  0  0  0  0  0  0  0
   48.4041    9.1209   17.9548 N   0  0  0  0  0  0  0  0  0  0  0  0
   49.4635    9.9484   14.4688 O   0  0  0  0  0  0  0  0  0  0  0  0
   48.2715   10.7150   15.0439 H   0  0  0  0  0  0  0  0  0  0  0  0
   48.5239    8.9620   15.2404 H   0  0  0  0  0  0  0  0  0  0  0  0
   48.4055   11.0571   17.4887 H   0  0  0  0  0  0  0  0  0  0  0  0
   47.1524    9.8559   17.1364 H   0  0  0  0  0  0  0  0  0  0  0  0
   48.8097    8.1598   17.6304 H   0  0  0  0  0  0  0  0  0  0  0  0
   49.9233    9.2969   17.8909 H   0  0  0  0  0  0  0  0  0  0  0  0
   50.4297   10.1091   14.7078 H   0  0  0  0  0  0  0  0  0  0  0  0
   49.5708   15.0407   13.4829 H   0  0  0  0  0  0  0  0  0  0  0  0
   49.0270   15.3123   15.8682 H   0  0  0  0  0  0  0  0  0  0  0  0
   48.4874   13.3575   17.2633 H   0  0  0  0  0  0  0  0  0  0  0  0
   47.8217   11.7507   11.5336 H   0  0  0  0  0  0  0  0  0  0  0  0
   48.3318   11.5592    9.1276 H   0  0  0  0  0  0  0  0  0  0  0  0
   50.4578   12.4397    8.2259 H   0  0  0  0  0  0  0  0  0  0  0  0
   51.5995   13.7159   12.1826 H   0  0  0  0  0  0  0  0  0  0  0  0
   53.5069   13.9202    8.1684 H   0  0  0  0  0  0  0  0  0  0  0  0
   48.8191    9.9501   14.5105 H   0  0  0  0  0  0  0  0  0  0  0  0
   48.3655   11.0574   17.5078 H   0  0  0  0  0  0  0  0  0  0  0  0
   48.1440    6.9493   14.7409 H   0  0  0  0  0  0  0  0  0  0  0  0
   48.9290    5.5340   15.4828 H   0  0  0  0  0  0  0  0  0  0  0  0
   49.8888    6.9870   15.1067 H   0  0  0  0  0  0  0  0  0  0  0  0
   47.6739    8.8963   21.1513 H   0  0  0  0  0  0  0  0  0  0  0  0
   47.8835    4.0109   21.9410 H   0  0  0  0  0  0  0  0  0  0  0  0
   48.2495    4.8763   19.6947 H   0  0  0  0  0  0  0  0  0  0  0  0
   48.1149    5.7461   24.9149 H   0  0  0  0  0  0  0  0  0  0  0  0
   47.4058    4.2850   24.2200 H   0  0  0  0  0  0  0  0  0  0  0  0
   46.3573    5.6539   24.5990 H   0  0  0  0  0  0  0  0  0  0  0  0
   47.2546    9.3462   23.3657 H   0  0  0  0  0  0  0  0  0  0  0  0
   46.2249    8.1307   24.1308 H   0  0  0  0  0  0  0  0  0  0  0  0
   47.9690    8.2149   24.5158 H   0  0  0  0  0  0  0  0  0  0  0  0
   47.8691   10.5268   15.6196 H   0  0  0  0  0  0  0  0  0  0  0  0
   47.9562    8.7988   15.2322 H   0  0  0  0  0  0  0  0  0  0  0  0
   49.9163   10.2764   17.0825 H   0  0  0  0  0  0  0  0  0  0  0  0
   49.9898    8.5720   16.6980 H   0  0  0  0  0  0  0  0  0  0  0  0
   47.8543    8.2868   17.7487 H   0  0  0  0  0  0  0  0  0  0  0  0
   47.7332    9.8797   18.0704 H   0  0  0  0  0  0  0  0  0  0  0  0
   49.9715   10.7391   14.7202 H   0  0  0  0  0  0  0  0  0  0  0  0
  4  1  1  0
  1  2  1  0
  2  3  1  0
 10 20  1  0
  9 21  1  0
 12 13  2  0
 21 22  1  0
  8  9  2  0
 22 23  2  0
 23 24  1  0
 13 14  1  0
  6  7  2  0
 14 15  2  0
  9 10  1  0
 24 25  1  0
 25 26  1  0
 26 27  2  0
 27 23  1  0
 15 16  1  0
 27 28  1  0
 16 11  2  0
 24 29  2  0
  5 11  1  0
 25 30  1  0
 10  5  2  0
 30 31  2  0
 15 17  1  0
 31 32  1  0
  5  6  1  0
 32 33  2  0
  7  8  1  0
 33 34  1  0
 17 18  1  0
 34 35  2  0
 35 30  1  0
 17 19  2  0
 33 36  1  0
 11 12  1  0
 32 37  1  0
 41 38  1  0
 38 39  1  0
 39 40  1  0
  1 42  1  0
  1 43  1  0
  2 44  1  0
  2 45  1  0
  3 46  1  0
  3 47  1  0
  4 48  1  0
  6 49  1  0
  7 50  1  0
  8 51  1  0
 12 52  1  0
 13 53  1  0
 14 54  1  0
 16 55  1  0
 18 56  1  0
 20 57  1  0
 21 58  1  0
 28 59  1  0
 28 60  1  0
 28 61  1  0
 31 62  1  0
 34 63  1  0
 35 64  1  0
 36 65  1  0
 36 66  1  0
 36 67  1  0
 37 68  1  0
 37 69  1  0
 37 70  1  0
 38 71  1  0
 38 72  1  0
 39 73  1  0
 39 74  1  0
 40 75  1  0
 40 76  1  0
 41 77  1  0
M  END
> <Uni-Dock RESULT> 
ENERGY=   -4.664  LOWER_BOUND=    4.678  UPPER_BOUND=    7.721
INTER + INTRA:          -4.664
INTER:                  -4.664
INTRA:                   0.000
UNBOUND:                 0.000

$$$$

     RDKit          3D

 77 78  0  0  0  0  0  0  0  0999 V2000
   49.4651   10.3812   14.7056 C   0  0  0  0  0  0  0  0  0  0  0  0
   48.3027    9.9385   13.8099 C   0  0  0  0  0  0  0  0  0  0  0  0
   47.5593    8.8188   14.3987 N   0  0  0  0  0  0  0  0  0  0  0  0
   48.9772   10.7025   16.0073 O   0  0  0  0  0  0  0  0  0  0  0  0
   50.3700   13.9290   15.3228 C   0  0  0  0  0  0  0  0  0  0  0  0
   49.4574   14.9155   14.9114 C   0  0  0  0  0  0  0  0  0  0  0  0
   48.2922   14.5801   14.2196 C   0  0  0  0  0  0  0  0  0  0  0  0
   48.0099   13.2450   13.9303 C   0  0  0  0  0  0  0  0  0  0  0  0
   48.8748   12.2226   14.3405 C   0  0  0  0  0  0  0  0  0  0  0  0
   50.0572   12.5898   15.0188 C   0  0  0  0  0  0  0  0  0  0  0  0
   51.6024   14.3221   16.0333 C   0  0  0  0  0  0  0  0  0  0  0  0
   52.8696   13.9730   15.5367 C   0  0  0  0  0  0  0  0  0  0  0  0
   54.0389   14.3566   16.1981 C   0  0  0  0  0  0  0  0  0  0  0  0
   53.9622   15.1020   17.3731 C   0  0  0  0  0  0  0  0  0  0  0  0
   52.7128   15.4626   17.8888 C   0  0  0  0  0  0  0  0  0  0  0  0
   51.5433   15.0737   17.2195 C   0  0  0  0  0  0  0  0  0  0  0  0
   52.5768   16.2536   19.1353 C   0  0  0  0  0  0  0  0  0  0  0  0
   53.7629   16.5627   19.6903 O   0  0  0  0  0  0  0  0  0  0  0  0
   51.5315   16.6150   19.6445 O   0  0  0  0  0  0  0  0  0  0  0  0
   50.9317   11.5985   15.3990 O   0  0  0  0  0  0  0  0  0  0  0  0
   48.5568   10.8882   13.9902 N   0  0  0  0  0  0  0  0  0  0  0  0
   49.2399    9.8352   14.5168 N   0  0  0  0  0  0  0  0  0  0  0  0
   48.7051    8.6658   14.3388 C   0  0  0  0  0  0  0  0  0  0  0  0
   47.4298    8.2730   13.6585 C   0  0  0  0  0  0  0  0  0  0  0  0
   47.4448    6.8884   13.7892 N   0  0  0  0  0  0  0  0  0  0  0  0
   48.5625    6.3826   14.4806 N   0  0  0  0  0  0  0  0  0  0  0  0
   49.3079    7.3950   14.8114 C   0  0  0  0  0  0  0  0  0  0  0  0
   50.5874    7.3612   15.5578 C   0  0  0  0  0  0  0  0  0  0  0  0
   46.6626    9.0782   13.1715 O   0  0  0  0  0  0  0  0  0  0  0  0
   46.4730    5.9680   13.3210 C   0  0  0  0  0  0  0  0  0  0  0  0
   45.3389    6.3866   12.6115 C   0  0  0  0  0  0  0  0  0  0  0  0
   44.3755    5.4688   12.1468 C   0  0  0  0  0  0  0  0  0  0  0  0
   44.5510    4.0955   12.3952 C   0  0  0  0  0  0  0  0  0  0  0  0
   45.6824    3.6733   13.1035 C   0  0  0  0  0  0  0  0  0  0  0  0
   46.6284    4.5966   13.5582 C   0  0  0  0  0  0  0  0  0  0  0  0
   43.5522    3.0751   11.9226 C   0  0  0  0  0  0  0  0  0  0  0  0
   43.1817    5.9801   11.3857 C   0  0  0  0  0  0  0  0  0  0  0  0
   49.7368   10.1551   14.6131 C   0  0  0  0  0  0  0  0  0  0  0  0
   48.3948    9.5300   15.0096 C   0  0  0  0  0  0  0  0  0  0  0  0
   47.7557    8.8004   13.9184 N   0  0  0  0  0  0  0  0  0  0  0  0
   50.3112   10.8530   15.7116 O   0  0  0  0  0  0  0  0  0  0  0  0
   49.9486   11.2680   14.2849 H   0  0  0  0  0  0  0  0  0  0  0  0
   50.2081    9.5827   14.8023 H   0  0  0  0  0  0  0  0  0  0  0  0
   47.6037   10.7716   13.6791 H   0  0  0  0  0  0  0  0  0  0  0  0
   48.6761    9.6529   12.8217 H   0  0  0  0  0  0  0  0  0  0  0  0
   48.2016    8.0471   14.5720 H   0  0  0  0  0  0  0  0  0  0  0  0
   47.2753    9.1244   15.3352 H   0  0  0  0  0  0  0  0  0  0  0  0
   49.7395   11.0099   16.5271 H   0  0  0  0  0  0  0  0  0  0  0  0
   49.6620   15.9654   15.1146 H   0  0  0  0  0  0  0  0  0  0  0  0
   47.6083   15.3619   13.8993 H   0  0  0  0  0  0  0  0  0  0  0  0
   47.1016   13.0096   13.3810 H   0  0  0  0  0  0  0  0  0  0  0  0
   52.9473   13.3872   14.6218 H   0  0  0  0  0  0  0  0  0  0  0  0
   55.0069   14.0698   15.7958 H   0  0  0  0  0  0  0  0  0  0  0  0
   54.8787   15.3924   17.8797 H   0  0  0  0  0  0  0  0  0  0  0  0
   50.5746   15.3492   17.6344 H   0  0  0  0  0  0  0  0  0  0  0  0
   53.5183   17.0741   20.4899 H   0  0  0  0  0  0  0  0  0  0  0  0
   50.4793   10.7821   15.0922 H   0  0  0  0  0  0  0  0  0  0  0  0
   47.5992   10.7618   13.6362 H   0  0  0  0  0  0  0  0  0  0  0  0
   51.3732    7.8329   14.9625 H   0  0  0  0  0  0  0  0  0  0  0  0
   50.8717    6.3272   15.7692 H   0  0  0  0  0  0  0  0  0  0  0  0
   50.4745    7.9021   16.5012 H   0  0  0  0  0  0  0  0  0  0  0  0
   45.1777    7.4403   12.4001 H   0  0  0  0  0  0  0  0  0  0  0  0
   45.8410    2.6168   13.3102 H   0  0  0  0  0  0  0  0  0  0  0  0
   47.4911    4.2219   14.1040 H   0  0  0  0  0  0  0  0  0  0  0  0
   42.5775    3.2544   12.3874 H   0  0  0  0  0  0  0  0  0  0  0  0
   43.8611    2.0576   12.1857 H   0  0  0  0  0  0  0  0  0  0  0  0
   43.4514    3.1161   10.8335 H   0  0  0  0  0  0  0  0  0  0  0  0
   43.1853    7.0730   11.3150 H   0  0  0  0  0  0  0  0  0  0  0  0
   43.1846    5.5821   10.3659 H   0  0  0  0  0  0  0  0  0  0  0  0
   42.2551    5.6883   11.8898 H   0  0  0  0  0  0  0  0  0  0  0  0
   49.6145   10.8602   13.7841 H   0  0  0  0  0  0  0  0  0  0  0  0
   50.4453    9.3813   14.3001 H   0  0  0  0  0  0  0  0  0  0  0  0
   47.7164   10.3150   15.3631 H   0  0  0  0  0  0  0  0  0  0  0  0
   48.5420    8.8560   15.8611 H   0  0  0  0  0  0  0  0  0  0  0  0
   48.3632    8.0395   13.6145 H   0  0  0  0  0  0  0  0  0  0  0  0
   47.6424    9.4111   13.1100 H   0  0  0  0  0  0  0  0  0  0  0  0
   49.6890   11.5541   15.9720 H   0  0  0  0  0  0  0  0  0  0  0  0
  4  1  1  0
  1  2  1  0
  2  3  1  0
 10 20  1  0
  9 21  1  0
 12 13  2  0
 21 22  1  0
  8  9  2  0
 22 23  2  0
 23 24  1  0
 13 14  1  0
  6  7  2  0
 14 15  2  0
  9 10  1  0
 24 25  1  0
 25 26  1  0
 26 27  2  0
 27 23  1  0
 15 16  1  0
 27 28  1  0
 16 11  2  0
 24 29  2  0
  5 11  1  0
 25 30  1  0
 10  5  2  0
 30 31  2  0
 15 17  1  0
 31 32  1  0
  5  6  1  0
 32 33  2  0
  7  8  1  0
 33 34  1  0
 17 18  1  0
 34 35  2  0
 35 30  1  0
 17 19  2  0
 33 36  1  0
 11 12  1  0
 32 37  1  0
 41 38  1  0
 38 39  1  0
 39 40  1  0
  1 42  1  0
  1 43  1  0
  2 44  1  0
  2 45  1  0
  3 46  1  0
  3 47  1  0
  4 48  1  0
  6 49  1  0
  7 50  1  0
  8 51  1  0
 12 52  1  0
 13 53  1  0
 14 54  1  0
 16 55  1  0
 18 56  1  0
 20 57  1  0
 21 58  1  0
 28 59  1  0
 28 60  1  0
 28 61  1  0
 31 62  1  0
 34 63  1  0
 35 64  1  0
 36 65  1  0
 36 66  1  0
 36 67  1  0
 37 68  1  0
 37 69  1  0
 37 70  1  0
 38 71  1  0
 38 72  1  0
 39 73  1  0
 39 74  1  0
 40 75  1  0
 40 76  1  0
 41 77  1  0
M  END
> <Uni-Dock RESULT> 
ENERGY=   -4.539  LOWER_BOUND=    2.493  UPPER_BOUND=   10.022
INTER + INTRA:          -4.539
INTER:                  -4.539
INTRA:                   0.000
UNBOUND:                 0.000

$$$$

     RDKit          3D

 77 78  0  0  0  0  0  0  0  0999 V2000
   49.4643   10.3675   14.7184 C   0  0  0  0  0  0  0  0  0  0  0  0
   48.3015    9.9303   13.8205 C   0  0  0  0  0  0  0  0  0  0  0  0
   47.5543    8.8114   14.4059 N   0  0  0  0  0  0  0  0  0  0  0  0
   48.9761   10.6872   16.0203 O   0  0  0  0  0  0  0  0  0  0  0  0
   50.3789   13.9113   15.3449 C   0  0  0  0  0  0  0  0  0  0  0  0
   49.4695   14.9013   14.9349 C   0  0  0  0  0  0  0  0  0  0  0  0
   48.3040   14.5709   14.2412 C   0  0  0  0  0  0  0  0  0  0  0  0
   48.0181   13.2374   13.9484 C   0  0  0  0  0  0  0  0  0  0  0  0
   48.8797   12.2115   14.3570 C   0  0  0  0  0  0  0  0  0  0  0  0
   50.0625   12.5737   15.0373 C   0  0  0  0  0  0  0  0  0  0  0  0
   51.6117   14.2991   16.0574 C   0  0  0  0  0  0  0  0  0  0  0  0
   52.8783   13.9475   15.5613 C   0  0  0  0  0  0  0  0  0  0  0  0
   54.0480   14.3262   16.2248 C   0  0  0  0  0  0  0  0  0  0  0  0
   53.9723   15.0690   17.4015 C   0  0  0  0  0  0  0  0  0  0  0  0
   52.7235   15.4320   17.9168 C   0  0  0  0  0  0  0  0  0  0  0  0
   51.5535   15.0480   17.2454 C   0  0  0  0  0  0  0  0  0  0  0  0
   52.5886   16.2204   19.1650 C   0  0  0  0  0  0  0  0  0  0  0  0
   53.7750   16.5248   19.7220 O   0  0  0  0  0  0  0  0  0  0  0  0
   51.5438   16.5836   19.6741 O   0  0  0  0  0  0  0  0  0  0  0  0
   50.9337   11.5789   15.4160 O   0  0  0  0  0  0  0  0  0  0  0  0
   48.5581   10.8789   14.0032 N   0  0  0  0  0  0  0  0  0  0  0  0
   49.2378    9.8226   14.5280 N   0  0  0  0  0  0  0  0  0  0  0  0
   48.6997    8.6552   14.3467 C   0  0  0  0  0  0  0  0  0  0  0  0
   47.4240    8.2677   13.6643 C   0  0  0  0  0  0  0  0  0  0  0  0
   47.4349    6.8827   13.7916 N   0  0  0  0  0  0  0  0  0  0  0  0
   48.5505    6.3721   14.4829 N   0  0  0  0  0  0  0  0  0  0  0  0
   49.2984    7.3815   14.8168 C   0  0  0  0  0  0  0  0  0  0  0  0
   50.5771    7.3423   15.5644 C   0  0  0  0  0  0  0  0  0  0  0  0
   46.6595    9.0762   13.1783 O   0  0  0  0  0  0  0  0  0  0  0  0
   46.4609    5.9663   13.3203 C   0  0  0  0  0  0  0  0  0  0  0  0
   45.3287    6.3898   12.6107 C   0  0  0  0  0  0  0  0  0  0  0  0
   44.3631    5.4760   12.1429 C   0  0  0  0  0  0  0  0  0  0  0  0
   44.5344    4.1015   12.3882 C   0  0  0  0  0  0  0  0  0  0  0  0
   45.6639    3.6744   13.0965 C   0  0  0  0  0  0  0  0  0  0  0  0
   46.6121    4.5939   13.5543 C   0  0  0  0  0  0  0  0  0  0  0  0
   43.5331    3.0851   11.9122 C   0  0  0  0  0  0  0  0  0  0  0  0
   43.1715    5.9924   11.3818 C   0  0  0  0  0  0  0  0  0  0  0  0
   49.7354   10.1409   14.6255 C   0  0  0  0  0  0  0  0  0  0  0  0
   48.3913    9.5187   15.0193 C   0  0  0  0  0  0  0  0  0  0  0  0
   47.7512    8.7936   13.9257 N   0  0  0  0  0  0  0  0  0  0  0  0
   50.3108   10.8345   15.7263 O   0  0  0  0  0  0  0  0  0  0  0  0
   49.9508   11.2540   14.3002 H   0  0  0  0  0  0  0  0  0  0  0  0
   50.2050    9.5666   14.8138 H   0  0  0  0  0  0  0  0  0  0  0  0
   47.6050   10.7658   13.6910 H   0  0  0  0  0  0  0  0  0  0  0  0
   48.6751    9.6460   12.8319 H   0  0  0  0  0  0  0  0  0  0  0  0
   48.1943    8.0374   14.5779 H   0  0  0  0  0  0  0  0  0  0  0  0
   47.2703    9.1155   15.3428 H   0  0  0  0  0  0  0  0  0  0  0  0
   49.7387   10.9911   16.5416 H   0  0  0  0  0  0  0  0  0  0  0  0
   49.6769   15.9502   15.1408 H   0  0  0  0  0  0  0  0  0  0  0  0
   47.6226   15.3555   13.9221 H   0  0  0  0  0  0  0  0  0  0  0  0
   47.1097   13.0058   13.3977 H   0  0  0  0  0  0  0  0  0  0  0  0
   52.9552   13.3637   14.6451 H   0  0  0  0  0  0  0  0  0  0  0  0
   55.0156   14.0376   15.8227 H   0  0  0  0  0  0  0  0  0  0  0  0
   54.8892   15.3555   17.9096 H   0  0  0  0  0  0  0  0  0  0  0  0
   50.5852   15.3254   17.6600 H   0  0  0  0  0  0  0  0  0  0  0  0
   53.5311   17.0350   20.5225 H   0  0  0  0  0  0  0  0  0  0  0  0
   50.4793   10.7646   15.1069 H   0  0  0  0  0  0  0  0  0  0  0  0
   47.6005   10.7561   13.6480 H   0  0  0  0  0  0  0  0  0  0  0  0
   51.3648    7.8131   14.9710 H   0  0  0  0  0  0  0  0  0  0  0  0
   50.8582    6.3069   15.7737 H   0  0  0  0  0  0  0  0  0  0  0  0
   50.4649    7.8813   16.5089 H   0  0  0  0  0  0  0  0  0  0  0  0
   45.1707    7.4445   12.4017 H   0  0  0  0  0  0  0  0  0  0  0  0
   45.8193    2.6169   13.3009 H   0  0  0  0  0  0  0  0  0  0  0  0
   47.4732    4.2154   14.1001 H   0  0  0  0  0  0  0  0  0  0  0  0
   42.5585    3.2661   12.3765 H   0  0  0  0  0  0  0  0  0  0  0  0
   43.8389    2.0662   12.1732 H   0  0  0  0  0  0  0  0  0  0  0  0
   43.4336    3.1290   10.8231 H   0  0  0  0  0  0  0  0  0  0  0  0
   43.1784    7.0855   11.3137 H   0  0  0  0  0  0  0  0  0  0  0  0
   43.1743    5.5969   10.3611 H   0  0  0  0  0  0  0  0  0  0  0  0
   42.2436    5.7021   11.8843 H   0  0  0  0  0  0  0  0  0  0  0  0
   49.6160   10.8483   13.7981 H   0  0  0  0  0  0  0  0  0  0  0  0
   50.4420    9.3658   14.3114 H   0  0  0  0  0  0  0  0  0  0  0  0
   47.7148   10.3048   15.3740 H   0  0  0  0  0  0  0  0  0  0  0  0
   48.5357    8.8422   15.8693 H   0  0  0  0  0  0  0  0  0  0  0  0
   48.3568    8.0316   13.6206 H   0  0  0  0  0  0  0  0  0  0  0  0
   47.6404    9.4064   13.1187 H   0  0  0  0  0  0  0  0  0  0  0  0
   49.6904   11.5368   15.9877 H   0  0  0  0  0  0  0  0  0  0  0  0
  4  1  1  0
  1  2  1  0
  2  3  1  0
 10 20  1  0
  9 21  1  0
 12 13  2  0
 21 22  1  0
  8  9  2  0
 22 23  2  0
 23 24  1  0
 13 14  1  0
  6  7  2  0
 14 15  2  0
  9 10  1  0
 24 25  1  0
 25 26  1  0
 26 27  2  0
 27 23  1  0
 15 16  1  0
 27 28  1  0
 16 11  2  0
 24 29  2  0
  5 11  1  0
 25 30  1  0
 10  5  2  0
 30 31  2  0
 15 17  1  0
 31 32  1  0
  5  6  1  0
 32 33  2  0
  7  8  1  0
 33 34  1  0
 17 18  1  0
 34 35  2  0
 35 30  1  0
 17 19  2  0
 33 36  1  0
 11 12  1  0
 32 37  1  0
 41 38  1  0
 38 39  1  0
 39 40  1  0
  1 42  1  0
  1 43  1  0
  2 44  1  0
  2 45  1  0
  3 46  1  0
  3 47  1  0
  4 48  1  0
  6 49  1  0
  7 50  1  0
  8 51  1  0
 12 52  1  0
 13 53  1  0
 14 54  1  0
 16 55  1  0
 18 56  1  0
 20 57  1  0
 21 58  1  0
 28 59  1  0
 28 60  1  0
 28 61  1  0
 31 62  1  0
 34 63  1  0
 35 64  1  0
 36 65  1  0
 36 66  1  0
 36 67  1  0
 37 68  1  0
 37 69  1  0
 37 70  1  0
 38 71  1  0
 38 72  1  0
 39 73  1  0
 39 74  1  0
 40 75  1  0
 40 76  1  0
 41 77  1  0
M  END
> <Uni-Dock RESULT> 
ENERGY=   -4.535  LOWER_BOUND=    2.489  UPPER_BOUND=   10.023
INTER + INTRA:          -4.535
INTER:                  -4.535
INTRA:                   0.000
UNBOUND:                 0.000

$$$$
