
     RDKit          3D

 77 78  0  0  0  0  0  0  0  0999 V2000
   48.3067    7.8574   13.9985 C   0  0  0  0  0  0  0  0  0  0  0  0
   49.5722    7.1916   14.5460 C   0  0  0  0  0  0  0  0  0  0  0  0
   50.3714    8.1012   15.3609 N   0  0  0  0  0  0  0  0  0  0  0  0
   47.6120    6.9687   13.1282 O   0  0  0  0  0  0  0  0  0  0  0  0
   45.3567    6.6997   12.1730 C   0  0  0  0  0  0  0  0  0  0  0  0
   44.7737    7.8450   11.6048 C   0  0  0  0  0  0  0  0  0  0  0  0
   45.1740    9.1258   11.9909 C   0  0  0  0  0  0  0  0  0  0  0  0
   46.1873    9.2870   12.9360 C   0  0  0  0  0  0  0  0  0  0  0  0
   46.8322    8.1752   13.4884 C   0  0  0  0  0  0  0  0  0  0  0  0
   46.3686    6.8924   13.1309 C   0  0  0  0  0  0  0  0  0  0  0  0
   44.8770    5.3657   11.7741 C   0  0  0  0  0  0  0  0  0  0  0  0
   44.2501    4.5147   12.6987 C   0  0  0  0  0  0  0  0  0  0  0  0
   43.7669    3.2617   12.3145 C   0  0  0  0  0  0  0  0  0  0  0  0
   43.9038    2.8387   10.9933 C   0  0  0  0  0  0  0  0  0  0  0  0
   44.5297    3.6663   10.0550 C   0  0  0  0  0  0  0  0  0  0  0  0
   45.0109    4.9240   10.4464 C   0  0  0  0  0  0  0  0  0  0  0  0
   44.6590    3.1748    8.6618 C   0  0  0  0  0  0  0  0  0  0  0  0
   45.2914    4.0446    7.8550 O   0  0  0  0  0  0  0  0  0  0  0  0
   44.2542    2.1070    8.2401 O   0  0  0  0  0  0  0  0  0  0  0  0
   46.9158    5.7956   13.7571 O   0  0  0  0  0  0  0  0  0  0  0  0
   47.8712    8.2957   14.4455 N   0  0  0  0  0  0  0  0  0  0  0  0
   48.2628    9.5477   14.8194 N   0  0  0  0  0  0  0  0  0  0  0  0
   49.4496    9.6537   15.3281 C   0  0  0  0  0  0  0  0  0  0  0  0
   50.5077    8.6195   15.5453 C   0  0  0  0  0  0  0  0  0  0  0  0
   51.5336    9.3679   16.1130 N   0  0  0  0  0  0  0  0  0  0  0  0
   51.2345   10.7346   16.2739 N   0  0  0  0  0  0  0  0  0  0  0  0
   50.0309   10.9254   15.8219 C   0  0  0  0  0  0  0  0  0  0  0  0
   49.2767   12.2002   15.7889 C   0  0  0  0  0  0  0  0  0  0  0  0
   50.3671    7.4529   15.2395 O   0  0  0  0  0  0  0  0  0  0  0  0
   52.8119    8.9081   16.5179 C   0  0  0  0  0  0  0  0  0  0  0  0
   53.7335    9.7939   17.0987 C   0  0  0  0  0  0  0  0  0  0  0  0
   55.0117    9.3740   17.5124 C   0  0  0  0  0  0  0  0  0  0  0  0
   55.3899    8.0339   17.3209 C   0  0  0  0  0  0  0  0  0  0  0  0
   54.4697    7.1448   16.7520 C   0  0  0  0  0  0  0  0  0  0  0  0
   53.1991    7.5756   16.3554 C   0  0  0  0  0  0  0  0  0  0  0  0
   56.7427    7.5264   17.7388 C   0  0  0  0  0  0  0  0  0  0  0  0
   55.9501   10.3758   18.1292 C   0  0  0  0  0  0  0  0  0  0  0  0
   50.1838    8.0107   14.0980 C   0  0  0  0  0  0  0  0  0  0  0  0
   48.7079    7.7259   14.3954 C   0  0  0  0  0  0  0  0  0  0  0  0
   47.9943    7.2138   13.2300 N   0  0  0  0  0  0  0  0  0  0  0  0
   50.8620    8.4238   15.2803 O   0  0  0  0  0  0  0  0  0  0  0  0
   47.6290    8.1318   14.8137 H   0  0  0  0  0  0  0  0  0  0  0  0
   48.5460    8.7669   13.4370 H   0  0  0  0  0  0  0  0  0  0  0  0
   49.2897    6.3183   15.1437 H   0  0  0  0  0  0  0  0  0  0  0  0
   50.1803    6.8133   13.7170 H   0  0  0  0  0  0  0  0  0  0  0  0
   50.6938    8.8845   14.7941 H   0  0  0  0  0  0  0  0  0  0  0  0
   51.2097    7.6167   15.6829 H   0  0  0  0  0  0  0  0  0  0  0  0
   48.1808    6.8161   12.3546 H   0  0  0  0  0  0  0  0  0  0  0  0
   43.9762    7.7430   10.8701 H   0  0  0  0  0  0  0  0  0  0  0  0
   44.6952    9.9999   11.5554 H   0  0  0  0  0  0  0  0  0  0  0  0
   46.4858   10.2924   13.2216 H   0  0  0  0  0  0  0  0  0  0  0  0
   44.1354    4.8321   13.7338 H   0  0  0  0  0  0  0  0  0  0  0  0
   43.2842    2.6179   13.0453 H   0  0  0  0  0  0  0  0  0  0  0  0
   43.5246    1.8611   10.7001 H   0  0  0  0  0  0  0  0  0  0  0  0
   45.5032    5.5676    9.7197 H   0  0  0  0  0  0  0  0  0  0  0  0
   45.3124    3.5854    6.9894 H   0  0  0  0  0  0  0  0  0  0  0  0
   47.2023    6.1005   14.6360 H   0  0  0  0  0  0  0  0  0  0  0  0
   48.5955    7.5743   14.3043 H   0  0  0  0  0  0  0  0  0  0  0  0
   49.9082   13.0209   16.1404 H   0  0  0  0  0  0  0  0  0  0  0  0
   48.4001   12.1224   16.4380 H   0  0  0  0  0  0  0  0  0  0  0  0
   48.9511   12.4110   14.7669 H   0  0  0  0  0  0  0  0  0  0  0  0
   53.4579   10.8370   17.2412 H   0  0  0  0  0  0  0  0  0  0  0  0
   54.7368    6.0994   16.6058 H   0  0  0  0  0  0  0  0  0  0  0  0
   52.5365    6.8365   15.9126 H   0  0  0  0  0  0  0  0  0  0  0  0
   57.5353    8.1762   17.3527 H   0  0  0  0  0  0  0  0  0  0  0  0
   56.8060    7.4795   18.8308 H   0  0  0  0  0  0  0  0  0  0  0  0
   56.9316    6.5221   17.3443 H   0  0  0  0  0  0  0  0  0  0  0  0
   56.7931   10.5672   17.4575 H   0  0  0  0  0  0  0  0  0  0  0  0
   56.3252   10.0073   19.0900 H   0  0  0  0  0  0  0  0  0  0  0  0
   55.4512   11.3318   18.3215 H   0  0  0  0  0  0  0  0  0  0  0  0
   50.6894    7.1210   13.7081 H   0  0  0  0  0  0  0  0  0  0  0  0
   50.2805    8.8101   13.3565 H   0  0  0  0  0  0  0  0  0  0  0  0
   48.6282    7.0067   15.2190 H   0  0  0  0  0  0  0  0  0  0  0  0
   48.2265    8.6462   14.7451 H   0  0  0  0  0  0  0  0  0  0  0  0
   47.0209    7.0417   13.4801 H   0  0  0  0  0  0  0  0  0  0  0  0
   48.3817    6.3123   12.9536 H   0  0  0  0  0  0  0  0  0  0  0  0
   50.8234    7.6868   15.9133 H   0  0  0  0  0  0  0  0  0  0  0  0
  4  1  1  0
  1  2  1  0
  2  3  1  0
 10 20  1  0
  9 21  1  0
 12 13  2  0
 21 22  1  0
  8  9  2  0
 22 23  2  0
 23 24  1  0
 13 14  1  0
  6  7  2  0
 14 15  2  0
  9 10  1  0
 24 25  1  0
 25 26  1  0
 26 27  2  0
 27 23  1  0
 15 16  1  0
 27 28  1  0
 16 11  2  0
 24 29  2  0
  5 11  1  0
 25 30  1  0
 10  5  2  0
 30 31  2  0
 15 17  1  0
 31 32  1  0
  5  6  1  0
 32 33  2  0
  7  8  1  0
 33 34  1  0
 17 18  1  0
 34 35  2  0
 35 30  1  0
 17 19  2  0
 33 36  1  0
 11 12  1  0
 32 37  1  0
 41 38  1  0
 38 39  1  0
 39 40  1  0
  1 42  1  0
  1 43  1  0
  2 44  1  0
  2 45  1  0
  3 46  1  0
  3 47  1  0
  4 48  1  0
  6 49  1  0
  7 50  1  0
  8 51  1  0
 12 52  1  0
 13 53  1  0
 14 54  1  0
 16 55  1  0
 18 56  1  0
 20 57  1  0
 21 58  1  0
 28 59  1  0
 28 60  1  0
 28 61  1  0
 31 62  1  0
 34 63  1  0
 35 64  1  0
 36 65  1  0
 36 66  1  0
 36 67  1  0
 37 68  1  0
 37 69  1  0
 37 70  1  0
 38 71  1  0
 38 72  1  0
 39 73  1  0
 39 74  1  0
 40 75  1  0
 40 76  1  0
 41 77  1  0
M  END
> <Uni-Dock RESULT> 
ENERGY=   -5.982  LOWER_BOUND=    0.000  UPPER_BOUND=    0.000
INTER + INTRA:          -5.982
INTER:                  -5.982
INTRA:                   0.000
UNBOUND:                 0.000

$$$$

     RDKit          3D

 77 78  0  0  0  0  0  0  0  0999 V2000
   47.9196    9.5352   12.5416 C   0  0  0  0  0  0  0  0  0  0  0  0
   49.4047    9.2992   12.8306 C   0  0  0  0  0  0  0  0  0  0  0  0
   50.0895   10.5168   13.2535 N   0  0  0  0  0  0  0  0  0  0  0  0
   47.3153    8.3486   12.0351 O   0  0  0  0  0  0  0  0  0  0  0  0
   45.0619    7.3891   11.7651 C   0  0  0  0  0  0  0  0  0  0  0  0
   44.0850    8.2270   11.2013 C   0  0  0  0  0  0  0  0  0  0  0  0
   44.2029    9.6170   11.2642 C   0  0  0  0  0  0  0  0  0  0  0  0
   45.3169   10.1980   11.8702 C   0  0  0  0  0  0  0  0  0  0  0  0
   46.3395    9.4022   12.3974 C   0  0  0  0  0  0  0  0  0  0  0  0
   46.1690    8.0025   12.3789 C   0  0  0  0  0  0  0  0  0  0  0  0
   44.8810    5.9283   11.7193 C   0  0  0  0  0  0  0  0  0  0  0  0
   44.7212    5.1806   12.8973 C   0  0  0  0  0  0  0  0  0  0  0  0
   44.5184    3.7993   12.8539 C   0  0  0  0  0  0  0  0  0  0  0  0
   44.4722    3.1414   11.6258 C   0  0  0  0  0  0  0  0  0  0  0  0
   44.6344    3.8636   10.4387 C   0  0  0  0  0  0  0  0  0  0  0  0
   44.8355    5.2505   10.4887 C   0  0  0  0  0  0  0  0  0  0  0  0
   44.5835    3.1233    9.1547 C   0  0  0  0  0  0  0  0  0  0  0  0
   44.7692    3.9154    8.0845 O   0  0  0  0  0  0  0  0  0  0  0  0
   44.3969    1.9272    9.0261 O   0  0  0  0  0  0  0  0  0  0  0  0
   47.1120    7.2154   12.9999 O   0  0  0  0  0  0  0  0  0  0  0  0
   47.4911    9.9528   13.0144 N   0  0  0  0  0  0  0  0  0  0  0  0
   47.6059   11.3108   13.0725 N   0  0  0  0  0  0  0  0  0  0  0  0
   48.8024   11.7832   13.2258 C   0  0  0  0  0  0  0  0  0  0  0  0
   50.1192   11.0796   13.3124 C   0  0  0  0  0  0  0  0  0  0  0  0
   51.0061   12.1404   13.4650 N   0  0  0  0  0  0  0  0  0  0  0  0
   50.3954   13.4092   13.4855 N   0  0  0  0  0  0  0  0  0  0  0  0
   49.1160   13.2276   13.3446 C   0  0  0  0  0  0  0  0  0  0  0  0
   48.0604   14.2668   13.3153 C   0  0  0  0  0  0  0  0  0  0  0  0
   50.2322    9.8730   13.2396 O   0  0  0  0  0  0  0  0  0  0  0  0
   52.4171   12.0724   13.5830 C   0  0  0  0  0  0  0  0  0  0  0  0
   53.1721   13.2436   13.7543 C   0  0  0  0  0  0  0  0  0  0  0  0
   54.5743   13.2154   13.8745 C   0  0  0  0  0  0  0  0  0  0  0  0
   55.2455   11.9827   13.7998 C   0  0  0  0  0  0  0  0  0  0  0  0
   54.4952   10.8112   13.6400 C   0  0  0  0  0  0  0  0  0  0  0  0
   53.1010   10.8551   13.5324 C   0  0  0  0  0  0  0  0  0  0  0  0
   56.7420   11.8885   13.9179 C   0  0  0  0  0  0  0  0  0  0  0  0
   55.3221   14.5084   14.0576 C   0  0  0  0  0  0  0  0  0  0  0  0
   49.6625   10.1162   12.1152 C   0  0  0  0  0  0  0  0  0  0  0  0
   48.4179    9.5843   12.8334 C   0  0  0  0  0  0  0  0  0  0  0  0
   47.6309    8.6879   11.9927 N   0  0  0  0  0  0  0  0  0  0  0  0
   50.4464   10.9143   12.9967 O   0  0  0  0  0  0  0  0  0  0  0  0
   47.3878    9.8231   13.4544 H   0  0  0  0  0  0  0  0  0  0  0  0
   47.7791   10.3315   11.8028 H   0  0  0  0  0  0  0  0  0  0  0  0
   49.5029    8.5356   13.6096 H   0  0  0  0  0  0  0  0  0  0  0  0
   49.8960    8.8942   11.9392 H   0  0  0  0  0  0  0  0  0  0  0  0
   50.0596   11.2103   12.5072 H   0  0  0  0  0  0  0  0  0  0  0  0
   51.0760   10.3103   13.4130 H   0  0  0  0  0  0  0  0  0  0  0  0
   47.7216    8.1614   11.1717 H   0  0  0  0  0  0  0  0  0  0  0  0
   43.2036    7.7954   10.7291 H   0  0  0  0  0  0  0  0  0  0  0  0
   43.4251   10.2487   10.8410 H   0  0  0  0  0  0  0  0  0  0  0  0
   45.3908   11.2819   11.9070 H   0  0  0  0  0  0  0  0  0  0  0  0
   44.7541    5.6811   13.8637 H   0  0  0  0  0  0  0  0  0  0  0  0
   44.3964    3.2387   13.7771 H   0  0  0  0  0  0  0  0  0  0  0  0
   44.3134    2.0646   11.5988 H   0  0  0  0  0  0  0  0  0  0  0  0
   44.9674    5.8140    9.5669 H   0  0  0  0  0  0  0  0  0  0  0  0
   44.7230    3.2961    7.3262 H   0  0  0  0  0  0  0  0  0  0  0  0
   47.4910    7.7586   13.7132 H   0  0  0  0  0  0  0  0  0  0  0  0
   48.3329    9.3957   12.8000 H   0  0  0  0  0  0  0  0  0  0  0  0
   48.5106   15.2625   13.3554 H   0  0  0  0  0  0  0  0  0  0  0  0
   47.3997   14.1399   14.1774 H   0  0  0  0  0  0  0  0  0  0  0  0
   47.4759   14.1745   12.3963 H   0  0  0  0  0  0  0  0  0  0  0  0
   52.6659   14.2058   13.8012 H   0  0  0  0  0  0  0  0  0  0  0  0
   54.9932    9.8442   13.5921 H   0  0  0  0  0  0  0  0  0  0  0  0
   52.5799    9.9104   13.4010 H   0  0  0  0  0  0  0  0  0  0  0  0
   57.2284   12.5978   13.2396 H   0  0  0  0  0  0  0  0  0  0  0  0
   57.0518   12.0941   14.9476 H   0  0  0  0  0  0  0  0  0  0  0  0
   57.1016   10.8896   13.6480 H   0  0  0  0  0  0  0  0  0  0  0  0
   55.9160   14.7310   13.1653 H   0  0  0  0  0  0  0  0  0  0  0  0
   55.9818   14.4485   14.9298 H   0  0  0  0  0  0  0  0  0  0  0  0
   54.6402   15.3494   14.2246 H   0  0  0  0  0  0  0  0  0  0  0  0
   50.2898    9.2971   11.7481 H   0  0  0  0  0  0  0  0  0  0  0  0
   49.3783   10.7375   11.2600 H   0  0  0  0  0  0  0  0  0  0  0  0
   48.7145    9.0609   13.7499 H   0  0  0  0  0  0  0  0  0  0  0  0
   47.7963   10.4292   13.1511 H   0  0  0  0  0  0  0  0  0  0  0  0
   46.8176    8.3638   12.5153 H   0  0  0  0  0  0  0  0  0  0  0  0
   48.1751    7.8561   11.7667 H   0  0  0  0  0  0  0  0  0  0  0  0
   50.7448   10.3417   13.7237 H   0  0  0  0  0  0  0  0  0  0  0  0
  4  1  1  0
  1  2  1  0
  2  3  1  0
 10 20  1  0
  9 21  1  0
 12 13  2  0
 21 22  1  0
  8  9  2  0
 22 23  2  0
 23 24  1  0
 13 14  1  0
  6  7  2  0
 14 15  2  0
  9 10  1  0
 24 25  1  0
 25 26  1  0
 26 27  2  0
 27 23  1  0
 15 16  1  0
 27 28  1  0
 16 11  2  0
 24 29  2  0
  5 11  1  0
 25 30  1  0
 10  5  2  0
 30 31  2  0
 15 17  1  0
 31 32  1  0
  5  6  1  0
 32 33  2  0
  7  8  1  0
 33 34  1  0
 17 18  1  0
 34 35  2  0
 35 30  1  0
 17 19  2  0
 33 36  1  0
 11 12  1  0
 32 37  1  0
 41 38  1  0
 38 39  1  0
 39 40  1  0
  1 42  1  0
  1 43  1  0
  2 44  1  0
  2 45  1  0
  3 46  1  0
  3 47  1  0
  4 48  1  0
  6 49  1  0
  7 50  1  0
  8 51  1  0
 12 52  1  0
 13 53  1  0
 14 54  1  0
 16 55  1  0
 18 56  1  0
 20 57  1  0
 21 58  1  0
 28 59  1  0
 28 60  1  0
 28 61  1  0
 31 62  1  0
 34 63  1  0
 35 64  1  0
 36 65  1  0
 36 66  1  0
 36 67  1  0
 37 68  1  0
 37 69  1  0
 37 70  1  0
 38 71  1  0
 38 72  1  0
 39 73  1  0
 39 74  1  0
 40 75  1  0
 40 76  1  0
 41 77  1  0
M  END
> <Uni-Dock RESULT> 
ENERGY=   -5.327  LOWER_BOUND=    2.638  UPPER_BOUND=    3.039
INTER + INTRA:          -5.327
INTER:                  -5.327
INTRA:                   0.000
UNBOUND:                 0.000

$$$$

     RDKit          3D

 77 78  0  0  0  0  0  0  0  0999 V2000
   48.7047    7.2266   15.1925 C   0  0  0  0  0  0  0  0  0  0  0  0
   49.3109    6.1054   16.0412 C   0  0  0  0  0  0  0  0  0  0  0  0
   50.1393    6.6167   17.1287 N   0  0  0  0  0  0  0  0  0  0  0  0
   47.9906    6.6839   14.0856 O   0  0  0  0  0  0  0  0  0  0  0  0
   46.2601    7.3831   12.4770 C   0  0  0  0  0  0  0  0  0  0  0  0
   46.4480    8.6277   11.8524 C   0  0  0  0  0  0  0  0  0  0  0  0
   47.2349    9.6193   12.4418 C   0  0  0  0  0  0  0  0  0  0  0  0
   47.8731    9.3755   13.6579 C   0  0  0  0  0  0  0  0  0  0  0  0
   47.7570    8.1323   14.2888 C   0  0  0  0  0  0  0  0  0  0  0  0
   46.9071    7.1688   13.7074 C   0  0  0  0  0  0  0  0  0  0  0  0
   45.3867    6.3783   11.8474 C   0  0  0  0  0  0  0  0  0  0  0  0
   44.1998    5.9581   12.4693 C   0  0  0  0  0  0  0  0  0  0  0  0
   43.3549    5.0283   11.8591 C   0  0  0  0  0  0  0  0  0  0  0  0
   43.6856    4.5019   10.6113 C   0  0  0  0  0  0  0  0  0  0  0  0
   44.8654    4.9007    9.9741 C   0  0  0  0  0  0  0  0  0  0  0  0
   45.7085    5.8361   10.5910 C   0  0  0  0  0  0  0  0  0  0  0  0
   45.1812    4.3118    8.6502 C   0  0  0  0  0  0  0  0  0  0  0  0
   46.3451    4.7541    8.1433 O   0  0  0  0  0  0  0  0  0  0  0  0
   44.4957    3.5100    8.0427 O   0  0  0  0  0  0  0  0  0  0  0  0
   46.6928    5.9873   14.3801 O   0  0  0  0  0  0  0  0  0  0  0  0
   48.3952    7.8414   15.5209 N   0  0  0  0  0  0  0  0  0  0  0  0
   49.1657    8.8104   16.0937 N   0  0  0  0  0  0  0  0  0  0  0  0
   50.0587    8.4112   16.9431 C   0  0  0  0  0  0  0  0  0  0  0  0
   50.4275    7.0312   17.3861 C   0  0  0  0  0  0  0  0  0  0  0  0
   51.4511    7.2813   18.2942 N   0  0  0  0  0  0  0  0  0  0  0  0
   51.7545    8.6458   18.4656 N   0  0  0  0  0  0  0  0  0  0  0  0
   50.9613    9.3214   17.6885 C   0  0  0  0  0  0  0  0  0  0  0  0
   50.8992   10.7933   17.5312 C   0  0  0  0  0  0  0  0  0  0  0  0
   49.8859    6.0314   16.9605 O   0  0  0  0  0  0  0  0  0  0  0  0
   52.2026    6.3291   19.0276 C   0  0  0  0  0  0  0  0  0  0  0  0
   53.1951    6.7491   19.9276 C   0  0  0  0  0  0  0  0  0  0  0  0
   53.9615    5.8331   20.6725 C   0  0  0  0  0  0  0  0  0  0  0  0
   53.7459    4.4552   20.4980 C   0  0  0  0  0  0  0  0  0  0  0  0
   52.7495    4.0324   19.6094 C   0  0  0  0  0  0  0  0  0  0  0  0
   51.9891    4.9559   18.8840 C   0  0  0  0  0  0  0  0  0  0  0  0
   54.5352    3.4281   21.2624 C   0  0  0  0  0  0  0  0  0  0  0  0
   55.0085    6.3516   21.6209 C   0  0  0  0  0  0  0  0  0  0  0  0
   50.3256    6.5356   15.8649 C   0  0  0  0  0  0  0  0  0  0  0  0
   48.8641    6.9570   15.6802 C   0  0  0  0  0  0  0  0  0  0  0  0
   48.3905    6.7396   14.3170 N   0  0  0  0  0  0  0  0  0  0  0  0
   50.7205    6.6813   17.2255 O   0  0  0  0  0  0  0  0  0  0  0  0
   48.0063    7.8270   15.7847 H   0  0  0  0  0  0  0  0  0  0  0  0
   49.4799    7.8954   14.8034 H   0  0  0  0  0  0  0  0  0  0  0  0
   48.5043    5.4906   16.4546 H   0  0  0  0  0  0  0  0  0  0  0  0
   49.9089    5.4422   15.4067 H   0  0  0  0  0  0  0  0  0  0  0  0
   50.9305    7.1355   16.7495 H   0  0  0  0  0  0  0  0  0  0  0  0
   50.5341    5.8325   17.6488 H   0  0  0  0  0  0  0  0  0  0  0  0
   48.6385    6.2434   13.5098 H   0  0  0  0  0  0  0  0  0  0  0  0
   45.9540    8.8424   10.9059 H   0  0  0  0  0  0  0  0  0  0  0  0
   47.3503   10.5842   11.9531 H   0  0  0  0  0  0  0  0  0  0  0  0
   48.4828   10.1598   14.0991 H   0  0  0  0  0  0  0  0  0  0  0  0
   43.9283    6.3613   13.4436 H   0  0  0  0  0  0  0  0  0  0  0  0
   42.4403    4.7162   12.3569 H   0  0  0  0  0  0  0  0  0  0  0  0
   43.0224    3.7778   10.1408 H   0  0  0  0  0  0  0  0  0  0  0  0
   46.6299    6.1441   10.1000 H   0  0  0  0  0  0  0  0  0  0  0  0
   46.4233    4.2772    7.2906 H   0  0  0  0  0  0  0  0  0  0  0  0
   46.8017    6.1905   15.3258 H   0  0  0  0  0  0  0  0  0  0  0  0
   48.7300    6.8656   15.5476 H   0  0  0  0  0  0  0  0  0  0  0  0
   51.6879   11.2689   18.1208 H   0  0  0  0  0  0  0  0  0  0  0  0
   49.9277   11.1566   17.8776 H   0  0  0  0  0  0  0  0  0  0  0  0
   51.0291   11.0586   16.4788 H   0  0  0  0  0  0  0  0  0  0  0  0
   53.3808    7.8128   20.0629 H   0  0  0  0  0  0  0  0  0  0  0  0
   52.5568    2.9702   19.4679 H   0  0  0  0  0  0  0  0  0  0  0  0
   51.2381    4.5609   18.2048 H   0  0  0  0  0  0  0  0  0  0  0  0
   55.6088    3.6305   21.1859 H   0  0  0  0  0  0  0  0  0  0  0  0
   54.2353    3.4304   22.3154 H   0  0  0  0  0  0  0  0  0  0  0  0
   54.3704    2.4208   20.8646 H   0  0  0  0  0  0  0  0  0  0  0  0
   56.0088    6.1033   21.2520 H   0  0  0  0  0  0  0  0  0  0  0  0
   54.8692    5.9194   22.6176 H   0  0  0  0  0  0  0  0  0  0  0  0
   54.9520    7.4402   21.7293 H   0  0  0  0  0  0  0  0  0  0  0  0
   50.4772    5.4902   15.5761 H   0  0  0  0  0  0  0  0  0  0  0  0
   50.9867    7.1575   15.2530 H   0  0  0  0  0  0  0  0  0  0  0  0
   48.2279    6.4046   16.3816 H   0  0  0  0  0  0  0  0  0  0  0  0
   48.7588    8.0163   15.9405 H   0  0  0  0  0  0  0  0  0  0  0  0
   47.4171    7.0353   14.2477 H   0  0  0  0  0  0  0  0  0  0  0  0
   48.4026    5.7438   14.0994 H   0  0  0  0  0  0  0  0  0  0  0  0
   50.1690    6.0822   17.7568 H   0  0  0  0  0  0  0  0  0  0  0  0
  4  1  1  0
  1  2  1  0
  2  3  1  0
 10 20  1  0
  9 21  1  0
 12 13  2  0
 21 22  1  0
  8  9  2  0
 22 23  2  0
 23 24  1  0
 13 14  1  0
  6  7  2  0
 14 15  2  0
  9 10  1  0
 24 25  1  0
 25 26  1  0
 26 27  2  0
 27 23  1  0
 15 16  1  0
 27 28  1  0
 16 11  2  0
 24 29  2  0
  5 11  1  0
 25 30  1  0
 10  5  2  0
 30 31  2  0
 15 17  1  0
 31 32  1  0
  5  6  1  0
 32 33  2  0
  7  8  1  0
 33 34  1  0
 17 18  1  0
 34 35  2  0
 35 30  1  0
 17 19  2  0
 33 36  1  0
 11 12  1  0
 32 37  1  0
 41 38  1  0
 38 39  1  0
 39 40  1  0
  1 42  1  0
  1 43  1  0
  2 44  1  0
  2 45  1  0
  3 46  1  0
  3 47  1  0
  4 48  1  0
  6 49  1  0
  7 50  1  0
  8 51  1  0
 12 52  1  0
 13 53  1  0
 14 54  1  0
 16 55  1  0
 18 56  1  0
 20 57  1  0
 21 58  1  0
 28 59  1  0
 28 60  1  0
 28 61  1  0
 31 62  1  0
 34 63  1  0
 35 64  1  0
 36 65  1  0
 36 66  1  0
 36 67  1  0
 37 68  1  0
 37 69  1  0
 37 70  1  0
 38 71  1  0
 38 72  1  0
 39 73  1  0
 39 74  1  0
 40 75  1  0
 40 76  1  0
 41 77  1  0
M  END
> <Uni-Dock RESULT> 
ENERGY=   -5.104  LOWER_BOUND=    2.377  UPPER_BOUND=    2.679
INTER + INTRA:          -5.104
INTER:                  -5.104
INTRA:                   0.000
UNBOUND:                 0.000

$$$$

     RDKit          3D

 77 78  0  0  0  0  0  0  0  0999 V2000
   49.3844    7.2678   14.9462 C   0  0  0  0  0  0  0  0  0  0  0  0
   50.2166    8.3789   14.3000 C   0  0  0  0  0  0  0  0  0  0  0  0
   49.4193    9.2355   13.4278 N   0  0  0  0  0  0  0  0  0  0  0  0
   50.2185    6.3969   15.7049 O   0  0  0  0  0  0  0  0  0  0  0  0
   50.0007    4.7288   17.5053 C   0  0  0  0  0  0  0  0  0  0  0  0
   48.9923    3.7628   17.3491 C   0  0  0  0  0  0  0  0  0  0  0  0
   47.8792    4.0056   16.5417 C   0  0  0  0  0  0  0  0  0  0  0  0
   47.7656    5.2122   15.8511 C   0  0  0  0  0  0  0  0  0  0  0  0
   48.7715    6.1809   15.9353 C   0  0  0  0  0  0  0  0  0  0  0  0
   49.8547    5.9402   16.8055 C   0  0  0  0  0  0  0  0  0  0  0  0
   51.1372    4.4550   18.4009 C   0  0  0  0  0  0  0  0  0  0  0  0
   51.3488    5.2215   19.5585 C   0  0  0  0  0  0  0  0  0  0  0  0
   52.4082    4.9432   20.4252 C   0  0  0  0  0  0  0  0  0  0  0  0
   53.2765    3.8889   20.1461 C   0  0  0  0  0  0  0  0  0  0  0  0
   53.0899    3.1145   18.9962 C   0  0  0  0  0  0  0  0  0  0  0  0
   52.0232    3.3976   18.1310 C   0  0  0  0  0  0  0  0  0  0  0  0
   54.0400    2.0062   18.7350 C   0  0  0  0  0  0  0  0  0  0  0  0
   53.7738    1.3443   17.5955 O   0  0  0  0  0  0  0  0  0  0  0  0
   54.9775    1.6867   19.4427 O   0  0  0  0  0  0  0  0  0  0  0  0
   50.7885    6.9350   16.9862 O   0  0  0  0  0  0  0  0  0  0  0  0
   48.6982    7.4164   15.2438 N   0  0  0  0  0  0  0  0  0  0  0  0
   47.6114    7.6507   14.4533 N   0  0  0  0  0  0  0  0  0  0  0  0
   47.7550    8.5410   13.5233 C   0  0  0  0  0  0  0  0  0  0  0  0
   48.9504    9.3492   13.1305 C   0  0  0  0  0  0  0  0  0  0  0  0
   48.4567   10.1019   12.0700 N   0  0  0  0  0  0  0  0  0  0  0  0
   47.1038    9.8573   11.7648 N   0  0  0  0  0  0  0  0  0  0  0  0
   46.6757    8.9517   12.5932 C   0  0  0  0  0  0  0  0  0  0  0  0
   45.3121    8.3771   12.6676 C   0  0  0  0  0  0  0  0  0  0  0  0
   50.0259    9.2551   13.6859 O   0  0  0  0  0  0  0  0  0  0  0  0
   49.1619   11.0477   11.2841 C   0  0  0  0  0  0  0  0  0  0  0  0
   48.5076   11.7446   10.2557 C   0  0  0  0  0  0  0  0  0  0  0  0
   49.1749   12.6903    9.4546 C   0  0  0  0  0  0  0  0  0  0  0  0
   50.5423   12.9321    9.6721 C   0  0  0  0  0  0  0  0  0  0  0  0
   51.1959   12.2471   10.7039 C   0  0  0  0  0  0  0  0  0  0  0  0
   50.5159   11.3176   11.4982 C   0  0  0  0  0  0  0  0  0  0  0  0
   51.3106   13.9277    8.8469 C   0  0  0  0  0  0  0  0  0  0  0  0
   48.4129   13.4027    8.3700 C   0  0  0  0  0  0  0  0  0  0  0  0
   49.8649    8.0429   13.2954 C   0  0  0  0  0  0  0  0  0  0  0  0
   49.5024    7.8055   14.7651 C   0  0  0  0  0  0  0  0  0  0  0  0
   50.1016    6.5851   15.2957 N   0  0  0  0  0  0  0  0  0  0  0  0
   49.3343    9.2849   12.8433 O   0  0  0  0  0  0  0  0  0  0  0  0
   48.6321    7.6892   15.6210 H   0  0  0  0  0  0  0  0  0  0  0  0
   48.8639    6.6692   14.1910 H   0  0  0  0  0  0  0  0  0  0  0  0
   50.6781    8.9863   15.0858 H   0  0  0  0  0  0  0  0  0  0  0  0
   51.0405    7.9394   13.7271 H   0  0  0  0  0  0  0  0  0  0  0  0
   49.0396    8.6892   12.6556 H   0  0  0  0  0  0  0  0  0  0  0  0
   50.0224    9.9436   13.0081 H   0  0  0  0  0  0  0  0  0  0  0  0
   50.8127    5.9468   15.0806 H   0  0  0  0  0  0  0  0  0  0  0  0
   49.0569    2.8164   17.8840 H   0  0  0  0  0  0  0  0  0  0  0  0
   47.0985    3.2538   16.4509 H   0  0  0  0  0  0  0  0  0  0  0  0
   46.8924    5.3810   15.2261 H   0  0  0  0  0  0  0  0  0  0  0  0
   50.6781    6.0474   19.7897 H   0  0  0  0  0  0  0  0  0  0  0  0
   52.5545    5.5481   21.3164 H   0  0  0  0  0  0  0  0  0  0  0  0
   54.1002    3.6770   20.8260 H   0  0  0  0  0  0  0  0  0  0  0  0
   51.8788    2.8000   17.2328 H   0  0  0  0  0  0  0  0  0  0  0  0
   54.4781    0.6641   17.5520 H   0  0  0  0  0  0  0  0  0  0  0  0
   50.3208    7.7758   16.8378 H   0  0  0  0  0  0  0  0  0  0  0  0
   49.6271    7.7109   14.9044 H   0  0  0  0  0  0  0  0  0  0  0  0
   44.6929    8.7696   11.8563 H   0  0  0  0  0  0  0  0  0  0  0  0
   44.8556    8.6438   13.6248 H   0  0  0  0  0  0  0  0  0  0  0  0
   45.3644    7.2885   12.5839 H   0  0  0  0  0  0  0  0  0  0  0  0
   47.4520   11.5576   10.0685 H   0  0  0  0  0  0  0  0  0  0  0  0
   52.2518   12.4279   10.8983 H   0  0  0  0  0  0  0  0  0  0  0  0
   51.0842   10.8144   12.2760 H   0  0  0  0  0  0  0  0  0  0  0  0
   51.1483   13.7507    7.7783 H   0  0  0  0  0  0  0  0  0  0  0  0
   51.0004   14.9463    9.1014 H   0  0  0  0  0  0  0  0  0  0  0  0
   52.3884   13.8464    9.0246 H   0  0  0  0  0  0  0  0  0  0  0  0
   48.7662   13.0798    7.3854 H   0  0  0  0  0  0  0  0  0  0  0  0
   48.5363   14.4868    8.4648 H   0  0  0  0  0  0  0  0  0  0  0  0
   47.3391   13.1929    8.4260 H   0  0  0  0  0  0  0  0  0  0  0  0
   50.9504    8.0635   13.1522 H   0  0  0  0  0  0  0  0  0  0  0  0
   49.4528    7.2497   12.6635 H   0  0  0  0  0  0  0  0  0  0  0  0
   49.8222    8.6630   15.3686 H   0  0  0  0  0  0  0  0  0  0  0  0
   48.4123    7.7515   14.8633 H   0  0  0  0  0  0  0  0  0  0  0  0
   49.8303    6.4740   16.2723 H   0  0  0  0  0  0  0  0  0  0  0  0
   51.1178    6.6654   15.2890 H   0  0  0  0  0  0  0  0  0  0  0  0
   49.7489    9.9898   13.3692 H   0  0  0  0  0  0  0  0  0  0  0  0
  4  1  1  0
  1  2  1  0
  2  3  1  0
 10 20  1  0
  9 21  1  0
 12 13  2  0
 21 22  1  0
  8  9  2  0
 22 23  2  0
 23 24  1  0
 13 14  1  0
  6  7  2  0
 14 15  2  0
  9 10  1  0
 24 25  1  0
 25 26  1  0
 26 27  2  0
 27 23  1  0
 15 16  1  0
 27 28  1  0
 16 11  2  0
 24 29  2  0
  5 11  1  0
 25 30  1  0
 10  5  2  0
 30 31  2  0
 15 17  1  0
 31 32  1  0
  5  6  1  0
 32 33  2  0
  7  8  1  0
 33 34  1  0
 17 18  1  0
 34 35  2  0
 35 30  1  0
 17 19  2  0
 33 36  1  0
 11 12  1  0
 32 37  1  0
 41 38  1  0
 38 39  1  0
 39 40  1  0
  1 42  1  0
  1 43  1  0
  2 44  1  0
  2 45  1  0
  3 46  1  0
  3 47  1  0
  4 48  1  0
  6 49  1  0
  7 50  1  0
  8 51  1  0
 12 52  1  0
 13 53  1  0
 14 54  1  0
 16 55  1  0
 18 56  1  0
 20 57  1  0
 21 58  1  0
 28 59  1  0
 28 60  1  0
 28 61  1  0
 31 62  1  0
 34 63  1  0
 35 64  1  0
 36 65  1  0
 36 66  1  0
 36 67  1  0
 37 68  1  0
 37 69  1  0
 37 70  1  0
 38 71  1  0
 38 72  1  0
 39 73  1  0
 39 74  1  0
 40 75  1  0
 40 76  1  0
 41 77  1  0
M  END
> <Uni-Dock RESULT> 
ENERGY=   -5.086  LOWER_BOUND=    4.013  UPPER_BOUND=    7.975
INTER + INTRA:          -5.086
INTER:                  -5.086
INTRA:                   0.000
UNBOUND:                 0.000

$$$$

     RDKit          3D

 77 78  0  0  0  0  0  0  0  0999 V2000
   45.0263   10.6988   11.6228 C   0  0  0  0  0  0  0  0  0  0  0  0
   45.0078   12.2149   11.4091 C   0  0  0  0  0  0  0  0  0  0  0  0
   43.6521   12.7457   11.3059 N   0  0  0  0  0  0  0  0  0  0  0  0
   46.3646   10.2102   11.6148 O   0  0  0  0  0  0  0  0  0  0  0  0
   47.6133    8.2212   12.3603 C   0  0  0  0  0  0  0  0  0  0  0  0
   47.0668    6.9719   12.0212 C   0  0  0  0  0  0  0  0  0  0  0  0
   45.7035    6.8288   11.7550 C   0  0  0  0  0  0  0  0  0  0  0  0
   44.8622    7.9406   11.7963 C   0  0  0  0  0  0  0  0  0  0  0  0
   45.3724    9.2125   12.0772 C   0  0  0  0  0  0  0  0  0  0  0  0
   46.7396    9.3227   12.4046 C   0  0  0  0  0  0  0  0  0  0  0  0
   49.0474    8.3250   12.6788 C   0  0  0  0  0  0  0  0  0  0  0  0
   49.4796    8.6957   13.9625 C   0  0  0  0  0  0  0  0  0  0  0  0
   50.8393    8.7644   14.2748 C   0  0  0  0  0  0  0  0  0  0  0  0
   51.7922    8.4621   13.3032 C   0  0  0  0  0  0  0  0  0  0  0  0
   51.3865    8.0958   12.0155 C   0  0  0  0  0  0  0  0  0  0  0  0
   50.0199    8.0265   11.7088 C   0  0  0  0  0  0  0  0  0  0  0  0
   52.4334    7.7877   11.0114 C   0  0  0  0  0  0  0  0  0  0  0  0
   51.9278    7.4664    9.8078 O   0  0  0  0  0  0  0  0  0  0  0  0
   53.6354    7.8081   11.2026 O   0  0  0  0  0  0  0  0  0  0  0  0
   47.2266   10.5486   12.7975 O   0  0  0  0  0  0  0  0  0  0  0  0
   44.5530   10.3687   12.1214 N   0  0  0  0  0  0  0  0  0  0  0  0
   43.2220   10.2274   11.8584 N   0  0  0  0  0  0  0  0  0  0  0  0
   42.5920   11.2940   11.4792 C   0  0  0  0  0  0  0  0  0  0  0  0
   43.0935   12.6816   11.2350 C   0  0  0  0  0  0  0  0  0  0  0  0
   41.9347   13.3452   10.8454 N   0  0  0  0  0  0  0  0  0  0  0  0
   40.7822   12.5362   10.8228 N   0  0  0  0  0  0  0  0  0  0  0  0
   41.1396   11.3397   11.1837 C   0  0  0  0  0  0  0  0  0  0  0  0
   40.2713   10.1469   11.3197 C   0  0  0  0  0  0  0  0  0  0  0  0
   44.2569   12.9999   11.3733 O   0  0  0  0  0  0  0  0  0  0  0  0
   41.8076   14.7055   10.4677 C   0  0  0  0  0  0  0  0  0  0  0  0
   40.5531   15.2311   10.1193 C   0  0  0  0  0  0  0  0  0  0  0  0
   40.3882   16.5762    9.7386 C   0  0  0  0  0  0  0  0  0  0  0  0
   41.5131   17.4171    9.6830 C   0  0  0  0  0  0  0  0  0  0  0  0
   42.7643   16.8997   10.0401 C   0  0  0  0  0  0  0  0  0  0  0  0
   42.9099   15.5629   10.4263 C   0  0  0  0  0  0  0  0  0  0  0  0
   41.4012   18.8620    9.2803 C   0  0  0  0  0  0  0  0  0  0  0  0
   39.0147   17.0747    9.3790 C   0  0  0  0  0  0  0  0  0  0  0  0
   44.3786   12.0679   10.4989 C   0  0  0  0  0  0  0  0  0  0  0  0
   44.8468   11.2439   11.7030 C   0  0  0  0  0  0  0  0  0  0  0  0
   46.0137   10.4232   11.3956 N   0  0  0  0  0  0  0  0  0  0  0  0
   43.2959   12.9179   10.8645 O   0  0  0  0  0  0  0  0  0  0  0  0
   44.5760   10.4373   12.5860 H   0  0  0  0  0  0  0  0  0  0  0  0
   44.4688   10.1787   10.8365 H   0  0  0  0  0  0  0  0  0  0  0  0
   45.5284   12.7020   12.2405 H   0  0  0  0  0  0  0  0  0  0  0  0
   45.5696   12.4684   10.5034 H   0  0  0  0  0  0  0  0  0  0  0  0
   43.1824   12.3460   10.4944 H   0  0  0  0  0  0  0  0  0  0  0  0
   43.6958   13.7523   11.1443 H   0  0  0  0  0  0  0  0  0  0  0  0
   46.7199   10.3510   10.7208 H   0  0  0  0  0  0  0  0  0  0  0  0
   47.7037    6.0891   11.9895 H   0  0  0  0  0  0  0  0  0  0  0  0
   45.2958    5.8493   11.5157 H   0  0  0  0  0  0  0  0  0  0  0  0
   43.8043    7.8085   11.5839 H   0  0  0  0  0  0  0  0  0  0  0  0
   48.7467    8.9337   14.7317 H   0  0  0  0  0  0  0  0  0  0  0  0
   51.1534    9.0530   15.2746 H   0  0  0  0  0  0  0  0  0  0  0  0
   52.8505    8.5172   13.5532 H   0  0  0  0  0  0  0  0  0  0  0  0
   49.7016    7.7470   10.7061 H   0  0  0  0  0  0  0  0  0  0  0  0
   52.7226    7.3051    9.2575 H   0  0  0  0  0  0  0  0  0  0  0  0
   46.4782   11.0195   13.2046 H   0  0  0  0  0  0  0  0  0  0  0  0
   45.0461   11.1914   11.7408 H   0  0  0  0  0  0  0  0  0  0  0  0
   39.2540   10.3823   10.9950 H   0  0  0  0  0  0  0  0  0  0  0  0
   40.2468    9.8310   12.3664 H   0  0  0  0  0  0  0  0  0  0  0  0
   40.6637    9.3318   10.7061 H   0  0  0  0  0  0  0  0  0  0  0  0
   39.6759   14.5875   10.1461 H   0  0  0  0  0  0  0  0  0  0  0  0
   43.6473   17.5363   10.0163 H   0  0  0  0  0  0  0  0  0  0  0  0
   43.9099   15.2228   10.6823 H   0  0  0  0  0  0  0  0  0  0  0  0
   40.8397   18.9600    8.3451 H   0  0  0  0  0  0  0  0  0  0  0  0
   40.9032   19.4349   10.0692 H   0  0  0  0  0  0  0  0  0  0  0  0
   42.3878   19.3062    9.1093 H   0  0  0  0  0  0  0  0  0  0  0  0
   38.9628   17.3003    8.3090 H   0  0  0  0  0  0  0  0  0  0  0  0
   38.7718   17.9747    9.9540 H   0  0  0  0  0  0  0  0  0  0  0  0
   38.2431   16.3298    9.6022 H   0  0  0  0  0  0  0  0  0  0  0  0
   45.1870   12.6946   10.1079 H   0  0  0  0  0  0  0  0  0  0  0  0
   44.0355   11.4119    9.6926 H   0  0  0  0  0  0  0  0  0  0  0  0
   45.0788   11.9116   12.5409 H   0  0  0  0  0  0  0  0  0  0  0  0
   44.0257   10.6018   12.0416 H   0  0  0  0  0  0  0  0  0  0  0  0
   46.2834    9.8970   12.2263 H   0  0  0  0  0  0  0  0  0  0  0  0
   46.8075   11.0200   11.1654 H   0  0  0  0  0  0  0  0  0  0  0  0
   43.6237   13.5369   11.5389 H   0  0  0  0  0  0  0  0  0  0  0  0
  4  1  1  0
  1  2  1  0
  2  3  1  0
 10 20  1  0
  9 21  1  0
 12 13  2  0
 21 22  1  0
  8  9  2  0
 22 23  2  0
 23 24  1  0
 13 14  1  0
  6  7  2  0
 14 15  2  0
  9 10  1  0
 24 25  1  0
 25 26  1  0
 26 27  2  0
 27 23  1  0
 15 16  1  0
 27 28  1  0
 16 11  2  0
 24 29  2  0
  5 11  1  0
 25 30  1  0
 10  5  2  0
 30 31  2  0
 15 17  1  0
 31 32  1  0
  5  6  1  0
 32 33  2  0
  7  8  1  0
 33 34  1  0
 17 18  1  0
 34 35  2  0
 35 30  1  0
 17 19  2  0
 33 36  1  0
 11 12  1  0
 32 37  1  0
 41 38  1  0
 38 39  1  0
 39 40  1  0
  1 42  1  0
  1 43  1  0
  2 44  1  0
  2 45  1  0
  3 46  1  0
  3 47  1  0
  4 48  1  0
  6 49  1  0
  7 50  1  0
  8 51  1  0
 12 52  1  0
 13 53  1  0
 14 54  1  0
 16 55  1  0
 18 56  1  0
 20 57  1  0
 21 58  1  0
 28 59  1  0
 28 60  1  0
 28 61  1  0
 31 62  1  0
 34 63  1  0
 35 64  1  0
 36 65  1  0
 36 66  1  0
 36 67  1  0
 37 68  1  0
 37 69  1  0
 37 70  1  0
 38 71  1  0
 38 72  1  0
 39 73  1  0
 39 74  1  0
 40 75  1  0
 40 76  1  0
 41 77  1  0
M  END
> <Uni-Dock RESULT> 
ENERGY=   -4.901  LOWER_BOUND=    5.460  UPPER_BOUND=   10.241
INTER + INTRA:          -4.901
INTER:                  -4.901
INTRA:                   0.000
UNBOUND:                 0.000

$$$$

     RDKit          3D

 77 78  0  0  0  0  0  0  0  0999 V2000
   45.0086    9.5545   11.6915 C   0  0  0  0  0  0  0  0  0  0  0  0
   46.2610    9.2532   12.5194 C   0  0  0  0  0  0  0  0  0  0  0  0
   46.3345    7.8540   12.9280 N   0  0  0  0  0  0  0  0  0  0  0  0
   44.9248   10.9471   11.4025 O   0  0  0  0  0  0  0  0  0  0  0  0
   43.7831   12.4416    9.8106 C   0  0  0  0  0  0  0  0  0  0  0  0
   42.4042   12.2370    9.6339 C   0  0  0  0  0  0  0  0  0  0  0  0
   41.8171   11.0003    9.9093 C   0  0  0  0  0  0  0  0  0  0  0  0
   42.5950    9.9489   10.3941 C   0  0  0  0  0  0  0  0  0  0  0  0
   43.9618   10.1238   10.6354 C   0  0  0  0  0  0  0  0  0  0  0  0
   44.5446   11.3607   10.2906 C   0  0  0  0  0  0  0  0  0  0  0  0
   44.3744   13.7457    9.4665 C   0  0  0  0  0  0  0  0  0  0  0  0
   45.3126   13.8648    8.4283 C   0  0  0  0  0  0  0  0  0  0  0  0
   45.8510   15.1057    8.0804 C   0  0  0  0  0  0  0  0  0  0  0  0
   45.4575   16.2523    8.7688 C   0  0  0  0  0  0  0  0  0  0  0  0
   44.5285   16.1586    9.8106 C   0  0  0  0  0  0  0  0  0  0  0  0
   43.9900   14.9101   10.1538 C   0  0  0  0  0  0  0  0  0  0  0  0
   44.1419   17.4023   10.5196 C   0  0  0  0  0  0  0  0  0  0  0  0
   43.2591   17.1886   11.5108 O   0  0  0  0  0  0  0  0  0  0  0  0
   44.5494   18.5224   10.2720 O   0  0  0  0  0  0  0  0  0  0  0  0
   45.9080   11.5038   10.4128 O   0  0  0  0  0  0  0  0  0  0  0  0
   44.7859    9.0837   11.1345 N   0  0  0  0  0  0  0  0  0  0  0  0
   44.2100    7.8772   11.4056 N   0  0  0  0  0  0  0  0  0  0  0  0
   44.8405    7.1103   12.2379 C   0  0  0  0  0  0  0  0  0  0  0  0
   46.1039    7.3419   13.0039 C   0  0  0  0  0  0  0  0  0  0  0  0
   46.2355    6.1529   13.7139 N   0  0  0  0  0  0  0  0  0  0  0  0
   45.2094    5.2182   13.4759 N   0  0  0  0  0  0  0  0  0  0  0  0
   44.3854    5.7531   12.6248 C   0  0  0  0  0  0  0  0  0  0  0  0
   43.1561    5.1458   12.0634 C   0  0  0  0  0  0  0  0  0  0  0  0
   46.7440    8.3710   12.9314 O   0  0  0  0  0  0  0  0  0  0  0  0
   47.2582    5.8079   14.6328 C   0  0  0  0  0  0  0  0  0  0  0  0
   47.2587    4.5489   15.2543 C   0  0  0  0  0  0  0  0  0  0  0  0
   48.2568    4.1713   16.1722 C   0  0  0  0  0  0  0  0  0  0  0  0
   49.2736    5.0861   16.4961 C   0  0  0  0  0  0  0  0  0  0  0  0
   49.2828    6.3387   15.8703 C   0  0  0  0  0  0  0  0  0  0  0  0
   48.2891    6.6952   14.9522 C   0  0  0  0  0  0  0  0  0  0  0  0
   50.3654    4.7423   17.4719 C   0  0  0  0  0  0  0  0  0  0  0  0
   48.1979    2.8054   16.8009 C   0  0  0  0  0  0  0  0  0  0  0  0
   45.6135    8.8338   13.3260 C   0  0  0  0  0  0  0  0  0  0  0  0
   45.4744    9.2530   11.8588 C   0  0  0  0  0  0  0  0  0  0  0  0
   44.9361   10.6018   11.7142 N   0  0  0  0  0  0  0  0  0  0  0  0
   46.2223    7.5500   13.4243 O   0  0  0  0  0  0  0  0  0  0  0  0
   45.0324    9.0121   10.7406 H   0  0  0  0  0  0  0  0  0  0  0  0
   44.0981    9.2616   12.2252 H   0  0  0  0  0  0  0  0  0  0  0  0
   47.1501    9.5099   11.9336 H   0  0  0  0  0  0  0  0  0  0  0  0
   46.2817    9.8949   13.4071 H   0  0  0  0  0  0  0  0  0  0  0  0
   45.5437    7.6245   13.5287 H   0  0  0  0  0  0  0  0  0  0  0  0
   47.1731    7.7112   13.4916 H   0  0  0  0  0  0  0  0  0  0  0  0
   44.7961   11.4117   12.2469 H   0  0  0  0  0  0  0  0  0  0  0  0
   41.7788   13.0417    9.2501 H   0  0  0  0  0  0  0  0  0  0  0  0
   40.7517   10.8553    9.7453 H   0  0  0  0  0  0  0  0  0  0  0  0
   42.1185    8.9947   10.6042 H   0  0  0  0  0  0  0  0  0  0  0  0
   45.6287   12.9780    7.8813 H   0  0  0  0  0  0  0  0  0  0  0  0
   46.5757   15.1768    7.2733 H   0  0  0  0  0  0  0  0  0  0  0  0
   45.8806   17.2167    8.4924 H   0  0  0  0  0  0  0  0  0  0  0  0
   43.2712   14.8336   10.9675 H   0  0  0  0  0  0  0  0  0  0  0  0
   43.1119   18.0815   11.8873 H   0  0  0  0  0  0  0  0  0  0  0  0
   46.2856   10.6147   10.2922 H   0  0  0  0  0  0  0  0  0  0  0  0
   45.4949    9.4495   11.7890 H   0  0  0  0  0  0  0  0  0  0  0  0
   42.9716    4.1723   12.5260 H   0  0  0  0  0  0  0  0  0  0  0  0
   43.2759    5.0105   10.9849 H   0  0  0  0  0  0  0  0  0  0  0  0
   42.3010    5.8001   12.2520 H   0  0  0  0  0  0  0  0  0  0  0  0
   46.4701    3.8359   15.0218 H   0  0  0  0  0  0  0  0  0  0  0  0
   50.0680    7.0583   16.0968 H   0  0  0  0  0  0  0  0  0  0  0  0
   48.3501    7.6858   14.5094 H   0  0  0  0  0  0  0  0  0  0  0  0
   49.9425    4.3405   18.3989 H   0  0  0  0  0  0  0  0  0  0  0  0
   51.0466    4.0075   17.0306 H   0  0  0  0  0  0  0  0  0  0  0  0
   50.9506    5.6273   17.7444 H   0  0  0  0  0  0  0  0  0  0  0  0
   47.9692    2.8902   17.8681 H   0  0  0  0  0  0  0  0  0  0  0  0
   49.1523    2.2838   16.6723 H   0  0  0  0  0  0  0  0  0  0  0  0
   47.4236    2.1819   16.3408 H   0  0  0  0  0  0  0  0  0  0  0  0
   46.2280    9.5463   13.8863 H   0  0  0  0  0  0  0  0  0  0  0  0
   44.6314    8.7793   13.8064 H   0  0  0  0  0  0  0  0  0  0  0  0
   46.4500    9.1927   11.3624 H   0  0  0  0  0  0  0  0  0  0  0  0
   44.8227    8.5405   11.3406 H   0  0  0  0  0  0  0  0  0  0  0  0
   44.8635   10.8308   10.7233 H   0  0  0  0  0  0  0  0  0  0  0  0
   45.5826   11.2791   12.1172 H   0  0  0  0  0  0  0  0  0  0  0  0
   47.1166    7.6200   13.0492 H   0  0  0  0  0  0  0  0  0  0  0  0
  4  1  1  0
  1  2  1  0
  2  3  1  0
 10 20  1  0
  9 21  1  0
 12 13  2  0
 21 22  1  0
  8  9  2  0
 22 23  2  0
 23 24  1  0
 13 14  1  0
  6  7  2  0
 14 15  2  0
  9 10  1  0
 24 25  1  0
 25 26  1  0
 26 27  2  0
 27 23  1  0
 15 16  1  0
 27 28  1  0
 16 11  2  0
 24 29  2  0
  5 11  1  0
 25 30  1  0
 10  5  2  0
 30 31  2  0
 15 17  1  0
 31 32  1  0
  5  6  1  0
 32 33  2  0
  7  8  1  0
 33 34  1  0
 17 18  1  0
 34 35  2  0
 35 30  1  0
 17 19  2  0
 33 36  1  0
 11 12  1  0
 32 37  1  0
 41 38  1  0
 38 39  1  0
 39 40  1  0
  1 42  1  0
  1 43  1  0
  2 44  1  0
  2 45  1  0
  3 46  1  0
  3 47  1  0
  4 48  1  0
  6 49  1  0
  7 50  1  0
  8 51  1  0
 12 52  1  0
 13 53  1  0
 14 54  1  0
 16 55  1  0
 18 56  1  0
 20 57  1  0
 21 58  1  0
 28 59  1  0
 28 60  1  0
 28 61  1  0
 31 62  1  0
 34 63  1  0
 35 64  1  0
 36 65  1  0
 36 66  1  0
 36 67  1  0
 37 68  1  0
 37 69  1  0
 37 70  1  0
 38 71  1  0
 38 72  1  0
 39 73  1  0
 39 74  1  0
 40 75  1  0
 40 76  1  0
 41 77  1  0
M  END
> <Uni-Dock RESULT> 
ENERGY=   -4.854  LOWER_BOUND=    4.754  UPPER_BOUND=    8.156
INTER + INTRA:          -4.854
INTER:                  -4.854
INTRA:                   0.000
UNBOUND:                 0.000

$$$$

     RDKit          3D

 77 78  0  0  0  0  0  0  0  0999 V2000
   49.5508    8.8778   19.1216 C   0  0  0  0  0  0  0  0  0  0  0  0
   50.9183    8.2295   18.8887 C   0  0  0  0  0  0  0  0  0  0  0  0
   50.8086    6.8429   18.4467 N   0  0  0  0  0  0  0  0  0  0  0  0
   49.7051   10.1923   19.6488 O   0  0  0  0  0  0  0  0  0  0  0  0
   48.3864   12.2610   19.8788 C   0  0  0  0  0  0  0  0  0  0  0  0
   47.0818   12.1225   20.3820 C   0  0  0  0  0  0  0  0  0  0  0  0
   46.3918   10.9131   20.2753 C   0  0  0  0  0  0  0  0  0  0  0  0
   47.0048    9.8075   19.6859 C   0  0  0  0  0  0  0  0  0  0  0  0
   48.3214    9.8850   19.2194 C   0  0  0  0  0  0  0  0  0  0  0  0
   48.9757   11.1327   19.2803 C   0  0  0  0  0  0  0  0  0  0  0  0
   49.0656   13.5646   19.9688 C   0  0  0  0  0  0  0  0  0  0  0  0
   49.4132   14.2819   18.8126 C   0  0  0  0  0  0  0  0  0  0  0  0
   50.0294   15.5326   18.8967 C   0  0  0  0  0  0  0  0  0  0  0  0
   50.3089   16.0877   20.1446 C   0  0  0  0  0  0  0  0  0  0  0  0
   49.9773   15.3899   21.3108 C   0  0  0  0  0  0  0  0  0  0  0  0
   49.3569   14.1356   21.2198 C   0  0  0  0  0  0  0  0  0  0  0  0
   50.2972   16.0148   22.6171 C   0  0  0  0  0  0  0  0  0  0  0  0
   49.9505   15.2473   23.6650 O   0  0  0  0  0  0  0  0  0  0  0  0
   50.8174   17.1032   22.7804 O   0  0  0  0  0  0  0  0  0  0  0  0
   50.2262   11.2493   18.7173 O   0  0  0  0  0  0  0  0  0  0  0  0
   48.9831    8.7830   18.6212 N   0  0  0  0  0  0  0  0  0  0  0  0
   48.3085    7.6017   18.5204 N   0  0  0  0  0  0  0  0  0  0  0  0
   49.0303    6.5338   18.3895 C   0  0  0  0  0  0  0  0  0  0  0  0
   50.5159    6.3638   18.3694 C   0  0  0  0  0  0  0  0  0  0  0  0
   50.6489    4.9884   18.2092 N   0  0  0  0  0  0  0  0  0  0  0  0
   49.4272    4.2929   18.1256 N   0  0  0  0  0  0  0  0  0  0  0  0
   48.4728    5.1689   18.2315 C   0  0  0  0  0  0  0  0  0  0  0  0
   47.0137    4.9150   18.1912 C   0  0  0  0  0  0  0  0  0  0  0  0
   51.2910    7.2908   18.4872 O   0  0  0  0  0  0  0  0  0  0  0  0
   51.8523    4.2425   18.1390 C   0  0  0  0  0  0  0  0  0  0  0  0
   51.8151    2.8514   17.9521 C   0  0  0  0  0  0  0  0  0  0  0  0
   52.9887    2.0778   17.8781 C   0  0  0  0  0  0  0  0  0  0  0  0
   54.2371    2.7086   18.0165 C   0  0  0  0  0  0  0  0  0  0  0  0
   54.2789    4.0973   18.1922 C   0  0  0  0  0  0  0  0  0  0  0  0
   53.1035    4.8536   18.2533 C   0  0  0  0  0  0  0  0  0  0  0  0
   55.5256    1.9356   17.9499 C   0  0  0  0  0  0  0  0  0  0  0  0
   52.8769    0.5910   17.6750 C   0  0  0  0  0  0  0  0  0  0  0  0
   50.6330    7.4040   19.5836 C   0  0  0  0  0  0  0  0  0  0  0  0
   49.9456    8.5567   18.8444 C   0  0  0  0  0  0  0  0  0  0  0  0
   49.7696    9.7333   19.6896 N   0  0  0  0  0  0  0  0  0  0  0  0
   50.8642    6.3104   18.7010 O   0  0  0  0  0  0  0  0  0  0  0  0
   48.9921    8.9528   18.1829 H   0  0  0  0  0  0  0  0  0  0  0  0
   48.9489    8.2957   19.8277 H   0  0  0  0  0  0  0  0  0  0  0  0
   51.4686    8.8091   18.1399 H   0  0  0  0  0  0  0  0  0  0  0  0
   51.5112    8.2741   19.8089 H   0  0  0  0  0  0  0  0  0  0  0  0
   50.3557    6.2823   19.1674 H   0  0  0  0  0  0  0  0  0  0  0  0
   51.7438    6.4527   18.3261 H   0  0  0  0  0  0  0  0  0  0  0  0
   50.1056   10.1065   20.5306 H   0  0  0  0  0  0  0  0  0  0  0  0
   46.5812   12.9743   20.8400 H   0  0  0  0  0  0  0  0  0  0  0  0
   45.3744   10.8322   20.6513 H   0  0  0  0  0  0  0  0  0  0  0  0
   46.4514    8.8746   19.6143 H   0  0  0  0  0  0  0  0  0  0  0  0
   49.2003   13.8612   17.8312 H   0  0  0  0  0  0  0  0  0  0  0  0
   50.2901   16.0721   17.9898 H   0  0  0  0  0  0  0  0  0  0  0  0
   50.7890   17.0632   20.2033 H   0  0  0  0  0  0  0  0  0  0  0  0
   49.1027   13.5881   22.1255 H   0  0  0  0  0  0  0  0  0  0  0  0
   50.2296   15.7754   24.4421 H   0  0  0  0  0  0  0  0  0  0  0  0
   50.2618   10.5941   17.9983 H   0  0  0  0  0  0  0  0  0  0  0  0
   49.9814    8.7598   18.8815 H   0  0  0  0  0  0  0  0  0  0  0  0
   46.8196    3.8404   18.1316 H   0  0  0  0  0  0  0  0  0  0  0  0
   46.5824    5.4038   17.3132 H   0  0  0  0  0  0  0  0  0  0  0  0
   46.5436    5.3144   19.0936 H   0  0  0  0  0  0  0  0  0  0  0  0
   50.8546    2.3488   17.8560 H   0  0  0  0  0  0  0  0  0  0  0  0
   55.2353    4.6085   18.2891 H   0  0  0  0  0  0  0  0  0  0  0  0
   53.2061    5.9255   18.4001 H   0  0  0  0  0  0  0  0  0  0  0  0
   55.4911    1.0689   18.6188 H   0  0  0  0  0  0  0  0  0  0  0  0
   55.7107    1.6004   16.9242 H   0  0  0  0  0  0  0  0  0  0  0  0
   56.3763    2.5495   18.2653 H   0  0  0  0  0  0  0  0  0  0  0  0
   53.1974    0.0611   18.5777 H   0  0  0  0  0  0  0  0  0  0  0  0
   53.4930    0.2734   16.8270 H   0  0  0  0  0  0  0  0  0  0  0  0
   51.8465    0.2892   17.4574 H   0  0  0  0  0  0  0  0  0  0  0  0
   51.5970    7.7168   19.9986 H   0  0  0  0  0  0  0  0  0  0  0  0
   50.0072    7.0464   20.4075 H   0  0  0  0  0  0  0  0  0  0  0  0
   50.5288    8.8273   17.9564 H   0  0  0  0  0  0  0  0  0  0  0  0
   48.9695    8.2189   18.4782 H   0  0  0  0  0  0  0  0  0  0  0  0
   49.3096   10.4678   19.1526 H   0  0  0  0  0  0  0  0  0  0  0  0
   50.6791   10.1053   19.9613 H   0  0  0  0  0  0  0  0  0  0  0  0
   51.4681    6.6185   18.0040 H   0  0  0  0  0  0  0  0  0  0  0  0
  4  1  1  0
  1  2  1  0
  2  3  1  0
 10 20  1  0
  9 21  1  0
 12 13  2  0
 21 22  1  0
  8  9  2  0
 22 23  2  0
 23 24  1  0
 13 14  1  0
  6  7  2  0
 14 15  2  0
  9 10  1  0
 24 25  1  0
 25 26  1  0
 26 27  2  0
 27 23  1  0
 15 16  1  0
 27 28  1  0
 16 11  2  0
 24 29  2  0
  5 11  1  0
 25 30  1  0
 10  5  2  0
 30 31  2  0
 15 17  1  0
 31 32  1  0
  5  6  1  0
 32 33  2  0
  7  8  1  0
 33 34  1  0
 17 18  1  0
 34 35  2  0
 35 30  1  0
 17 19  2  0
 33 36  1  0
 11 12  1  0
 32 37  1  0
 41 38  1  0
 38 39  1  0
 39 40  1  0
  1 42  1  0
  1 43  1  0
  2 44  1  0
  2 45  1  0
  3 46  1  0
  3 47  1  0
  4 48  1  0
  6 49  1  0
  7 50  1  0
  8 51  1  0
 12 52  1  0
 13 53  1  0
 14 54  1  0
 16 55  1  0
 18 56  1  0
 20 57  1  0
 21 58  1  0
 28 59  1  0
 28 60  1  0
 28 61  1  0
 31 62  1  0
 34 63  1  0
 35 64  1  0
 36 65  1  0
 36 66  1  0
 36 67  1  0
 37 68  1  0
 37 69  1  0
 37 70  1  0
 38 71  1  0
 38 72  1  0
 39 73  1  0
 39 74  1  0
 40 75  1  0
 40 76  1  0
 41 77  1  0
M  END
> <Uni-Dock RESULT> 
ENERGY=   -4.741  LOWER_BOUND=    6.017  UPPER_BOUND=    9.798
INTER + INTRA:          -4.741
INTER:                  -4.741
INTRA:                   0.000
UNBOUND:                 0.000

$$$$

     RDKit          3D

 77 78  0  0  0  0  0  0  0  0999 V2000
   46.6462   12.8888    9.5200 C   0  0  0  0  0  0  0  0  0  0  0  0
   45.3455   12.1036    9.3289 C   0  0  0  0  0  0  0  0  0  0  0  0
   44.2651   12.6027   10.1738 N   0  0  0  0  0  0  0  0  0  0  0  0
   47.6978   12.3056    8.7560 O   0  0  0  0  0  0  0  0  0  0  0  0
   49.9076   12.9346    7.8659 C   0  0  0  0  0  0  0  0  0  0  0  0
   50.7922   13.5585    8.7619 C   0  0  0  0  0  0  0  0  0  0  0  0
   50.3198   14.2388    9.8862 C   0  0  0  0  0  0  0  0  0  0  0  0
   48.9513   14.2858   10.1519 C   0  0  0  0  0  0  0  0  0  0  0  0
   48.0386   13.6336    9.3160 C   0  0  0  0  0  0  0  0  0  0  0  0
   48.5326   13.0070    8.1533 C   0  0  0  0  0  0  0  0  0  0  0  0
   50.4395   12.2653    6.6668 C   0  0  0  0  0  0  0  0  0  0  0  0
   50.1314   12.7331    5.3790 C   0  0  0  0  0  0  0  0  0  0  0  0
   50.6602   12.1183    4.2418 C   0  0  0  0  0  0  0  0  0  0  0  0
   51.5093   11.0209    4.3757 C   0  0  0  0  0  0  0  0  0  0  0  0
   51.8267   10.5329    5.6477 C   0  0  0  0  0  0  0  0  0  0  0  0
   51.2943   11.1557    6.7857 C   0  0  0  0  0  0  0  0  0  0  0  0
   52.7294    9.3603    5.7441 C   0  0  0  0  0  0  0  0  0  0  0  0
   52.9485    8.9695    7.0116 O   0  0  0  0  0  0  0  0  0  0  0  0
   53.2443    8.7758    4.8086 O   0  0  0  0  0  0  0  0  0  0  0  0
   47.6329   12.4651    7.2637 O   0  0  0  0  0  0  0  0  0  0  0  0
   46.6412   13.6506    9.5547 N   0  0  0  0  0  0  0  0  0  0  0  0
   46.1819   14.3133   10.6550 N   0  0  0  0  0  0  0  0  0  0  0  0
   45.0123   13.9669   11.0914 C   0  0  0  0  0  0  0  0  0  0  0  0
   44.0708   12.9101   10.6085 C   0  0  0  0  0  0  0  0  0  0  0  0
   43.0079   13.0400   11.4964 N   0  0  0  0  0  0  0  0  0  0  0  0
   43.1797   14.0488   12.4639 N   0  0  0  0  0  0  0  0  0  0  0  0
   44.3381   14.5987   12.2511 C   0  0  0  0  0  0  0  0  0  0  0  0
   44.9543   15.7136   13.0078 C   0  0  0  0  0  0  0  0  0  0  0  0
   44.3156   12.1844    9.6664 O   0  0  0  0  0  0  0  0  0  0  0  0
   41.8163   12.2729   11.5305 C   0  0  0  0  0  0  0  0  0  0  0  0
   40.8233   12.5466   12.4846 C   0  0  0  0  0  0  0  0  0  0  0  0
   39.6278   11.8062   12.5493 C   0  0  0  0  0  0  0  0  0  0  0  0
   39.4266   10.7464   11.6483 C   0  0  0  0  0  0  0  0  0  0  0  0
   40.4099   10.4772   10.6883 C   0  0  0  0  0  0  0  0  0  0  0  0
   41.5883   11.2290   10.6304 C   0  0  0  0  0  0  0  0  0  0  0  0
   38.1721    9.9170   11.6703 C   0  0  0  0  0  0  0  0  0  0  0  0
   38.6044   12.1536   13.5964 C   0  0  0  0  0  0  0  0  0  0  0  0
   45.3125   11.9122   10.4280 C   0  0  0  0  0  0  0  0  0  0  0  0
   46.0751   12.8159    9.4536 C   0  0  0  0  0  0  0  0  0  0  0  0
   47.3801   12.2703    9.0941 N   0  0  0  0  0  0  0  0  0  0  0  0
   44.0128   12.4357   10.6834 O   0  0  0  0  0  0  0  0  0  0  0  0
   46.5246   13.9264    9.1922 H   0  0  0  0  0  0  0  0  0  0  0  0
   46.9541   12.9000   10.5711 H   0  0  0  0  0  0  0  0  0  0  0  0
   45.0426   12.1592    8.2779 H   0  0  0  0  0  0  0  0  0  0  0  0
   45.5177   11.0433    9.5438 H   0  0  0  0  0  0  0  0  0  0  0  0
   44.5126   12.4934   11.1565 H   0  0  0  0  0  0  0  0  0  0  0  0
   43.4306   12.0350   10.0240 H   0  0  0  0  0  0  0  0  0  0  0  0
   47.8703   11.4229    9.1255 H   0  0  0  0  0  0  0  0  0  0  0  0
   51.8641   13.5403    8.5708 H   0  0  0  0  0  0  0  0  0  0  0  0
   51.0192   14.7340   10.5560 H   0  0  0  0  0  0  0  0  0  0  0  0
   48.6041   14.8188   11.0334 H   0  0  0  0  0  0  0  0  0  0  0  0
   49.4703   13.5899    5.2592 H   0  0  0  0  0  0  0  0  0  0  0  0
   50.4098   12.4960    3.2537 H   0  0  0  0  0  0  0  0  0  0  0  0
   51.9185   10.5464    3.4852 H   0  0  0  0  0  0  0  0  0  0  0  0
   51.5352   10.7747    7.7765 H   0  0  0  0  0  0  0  0  0  0  0  0
   53.5398    8.1936    6.9166 H   0  0  0  0  0  0  0  0  0  0  0  0
   46.8139   12.9828    7.3576 H   0  0  0  0  0  0  0  0  0  0  0  0
   46.2084   12.7471    9.3072 H   0  0  0  0  0  0  0  0  0  0  0  0
   44.3216   15.9882   13.8563 H   0  0  0  0  0  0  0  0  0  0  0  0
   45.0667   16.5814   12.3519 H   0  0  0  0  0  0  0  0  0  0  0  0
   45.9376   15.4110   13.3772 H   0  0  0  0  0  0  0  0  0  0  0  0
   40.9720   13.3564   13.1961 H   0  0  0  0  0  0  0  0  0  0  0  0
   40.2695    9.6689    9.9724 H   0  0  0  0  0  0  0  0  0  0  0  0
   42.3142   10.9623    9.8668 H   0  0  0  0  0  0  0  0  0  0  0  0
   37.9603    9.5636   12.6851 H   0  0  0  0  0  0  0  0  0  0  0  0
   37.3254   10.5057   11.3026 H   0  0  0  0  0  0  0  0  0  0  0  0
   38.2693    9.0291   11.0361 H   0  0  0  0  0  0  0  0  0  0  0  0
   38.5386   11.3535   14.3406 H   0  0  0  0  0  0  0  0  0  0  0  0
   37.6224   12.3056   13.1358 H   0  0  0  0  0  0  0  0  0  0  0  0
   38.8622   13.0796   14.1219 H   0  0  0  0  0  0  0  0  0  0  0  0
   45.1993   10.9001   10.0255 H   0  0  0  0  0  0  0  0  0  0  0  0
   45.8419   11.8418   11.3835 H   0  0  0  0  0  0  0  0  0  0  0  0
   45.4791   12.9683    8.5462 H   0  0  0  0  0  0  0  0  0  0  0  0
   46.2034   13.8060    9.9054 H   0  0  0  0  0  0  0  0  0  0  0  0
   47.8445   12.9070    8.4472 H   0  0  0  0  0  0  0  0  0  0  0  0
   47.2629   11.3900    8.5937 H   0  0  0  0  0  0  0  0  0  0  0  0
   43.5276   12.4404    9.8408 H   0  0  0  0  0  0  0  0  0  0  0  0
  4  1  1  0
  1  2  1  0
  2  3  1  0
 10 20  1  0
  9 21  1  0
 12 13  2  0
 21 22  1  0
  8  9  2  0
 22 23  2  0
 23 24  1  0
 13 14  1  0
  6  7  2  0
 14 15  2  0
  9 10  1  0
 24 25  1  0
 25 26  1  0
 26 27  2  0
 27 23  1  0
 15 16  1  0
 27 28  1  0
 16 11  2  0
 24 29  2  0
  5 11  1  0
 25 30  1  0
 10  5  2  0
 30 31  2  0
 15 17  1  0
 31 32  1  0
  5  6  1  0
 32 33  2  0
  7  8  1  0
 33 34  1  0
 17 18  1  0
 34 35  2  0
 35 30  1  0
 17 19  2  0
 33 36  1  0
 11 12  1  0
 32 37  1  0
 41 38  1  0
 38 39  1  0
 39 40  1  0
  1 42  1  0
  1 43  1  0
  2 44  1  0
  2 45  1  0
  3 46  1  0
  3 47  1  0
  4 48  1  0
  6 49  1  0
  7 50  1  0
  8 51  1  0
 12 52  1  0
 13 53  1  0
 14 54  1  0
 16 55  1  0
 18 56  1  0
 20 57  1  0
 21 58  1  0
 28 59  1  0
 28 60  1  0
 28 61  1  0
 31 62  1  0
 34 63  1  0
 35 64  1  0
 36 65  1  0
 36 66  1  0
 36 67  1  0
 37 68  1  0
 37 69  1  0
 37 70  1  0
 38 71  1  0
 38 72  1  0
 39 73  1  0
 39 74  1  0
 40 75  1  0
 40 76  1  0
 41 77  1  0
M  END
> <Uni-Dock RESULT> 
ENERGY=   -4.630  LOWER_BOUND=    7.899  UPPER_BOUND=   10.800
INTER + INTRA:          -4.630
INTER:                  -4.630
INTRA:                   0.000
UNBOUND:                 0.000

$$$$

     RDKit          3D

 77 78  0  0  0  0  0  0  0  0999 V2000
   51.0736    9.0529   12.7994 C   0  0  0  0  0  0  0  0  0  0  0  0
   50.5891    8.1101   13.9044 C   0  0  0  0  0  0  0  0  0  0  0  0
   49.7225    8.7813   14.8681 N   0  0  0  0  0  0  0  0  0  0  0  0
   51.9952    8.3851   11.9425 O   0  0  0  0  0  0  0  0  0  0  0  0
   52.9396    8.6415    9.6811 C   0  0  0  0  0  0  0  0  0  0  0  0
   53.4195    9.9175    9.3409 C   0  0  0  0  0  0  0  0  0  0  0  0
   52.9499   11.0617    9.9893 C   0  0  0  0  0  0  0  0  0  0  0  0
   52.0083   10.9494   11.0122 C   0  0  0  0  0  0  0  0  0  0  0  0
   51.5425    9.6949   11.4198 C   0  0  0  0  0  0  0  0  0  0  0  0
   51.9828    8.5594   10.7089 C   0  0  0  0  0  0  0  0  0  0  0  0
   53.4246    7.4622    8.9444 C   0  0  0  0  0  0  0  0  0  0  0  0
   52.5540    6.6907    8.1575 C   0  0  0  0  0  0  0  0  0  0  0  0
   53.0187    5.5903    7.4335 C   0  0  0  0  0  0  0  0  0  0  0  0
   54.3677    5.2429    7.4856 C   0  0  0  0  0  0  0  0  0  0  0  0
   55.2536    5.9926    8.2668 C   0  0  0  0  0  0  0  0  0  0  0  0
   54.7813    7.0975    8.9898 C   0  0  0  0  0  0  0  0  0  0  0  0
   56.6790    5.5848    8.2978 C   0  0  0  0  0  0  0  0  0  0  0  0
   57.4309    6.3651    9.0936 O   0  0  0  0  0  0  0  0  0  0  0  0
   57.1692    4.6522    7.6880 O   0  0  0  0  0  0  0  0  0  0  0  0
   51.4412    7.3338   11.0236 O   0  0  0  0  0  0  0  0  0  0  0  0
   50.5919    9.5369   12.4598 N   0  0  0  0  0  0  0  0  0  0  0  0
   50.1364   10.6555   13.0938 N   0  0  0  0  0  0  0  0  0  0  0  0
   49.6359   10.4854   14.2766 C   0  0  0  0  0  0  0  0  0  0  0  0
   49.5042    9.2474   15.1052 C   0  0  0  0  0  0  0  0  0  0  0  0
   48.8981    9.7332   16.2592 N   0  0  0  0  0  0  0  0  0  0  0  0
   48.6388   11.1173   16.2401 N   0  0  0  0  0  0  0  0  0  0  0  0
   49.0619   11.5767   15.1001 C   0  0  0  0  0  0  0  0  0  0  0  0
   48.9969   12.9759   14.6172 C   0  0  0  0  0  0  0  0  0  0  0  0
   49.8887    8.1573   14.7342 O   0  0  0  0  0  0  0  0  0  0  0  0
   48.5417    8.9993   17.4184 C   0  0  0  0  0  0  0  0  0  0  0  0
   47.9118    9.6393   18.4977 C   0  0  0  0  0  0  0  0  0  0  0  0
   47.5438    8.9437   19.6649 C   0  0  0  0  0  0  0  0  0  0  0  0
   47.8327    7.5719   19.7668 C   0  0  0  0  0  0  0  0  0  0  0  0
   48.4510    6.9277   18.6882 C   0  0  0  0  0  0  0  0  0  0  0  0
   48.8013    7.6311   17.5307 C   0  0  0  0  0  0  0  0  0  0  0  0
   47.4676    6.7755   20.9894 C   0  0  0  0  0  0  0  0  0  0  0  0
   46.8702    9.6911   20.7838 C   0  0  0  0  0  0  0  0  0  0  0  0
   50.9863    8.8198   14.6689 C   0  0  0  0  0  0  0  0  0  0  0  0
   50.6917    8.8160   13.1652 C   0  0  0  0  0  0  0  0  0  0  0  0
   51.8813    8.5409   12.3659 N   0  0  0  0  0  0  0  0  0  0  0  0
   49.7864    9.0040   15.4137 O   0  0  0  0  0  0  0  0  0  0  0  0
   50.2332    9.3992   12.1888 H   0  0  0  0  0  0  0  0  0  0  0  0
   51.5732    9.9334   13.2175 H   0  0  0  0  0  0  0  0  0  0  0  0
   50.0504    7.2712   13.4512 H   0  0  0  0  0  0  0  0  0  0  0  0
   51.4498    7.6773   14.4260 H   0  0  0  0  0  0  0  0  0  0  0  0
   50.2373    9.5223   15.3424 H   0  0  0  0  0  0  0  0  0  0  0  0
   49.4452    8.1172   15.5915 H   0  0  0  0  0  0  0  0  0  0  0  0
   52.7844    8.1767   12.4707 H   0  0  0  0  0  0  0  0  0  0  0  0
   54.1498   10.0295    8.5408 H   0  0  0  0  0  0  0  0  0  0  0  0
   53.3177   12.0425    9.6965 H   0  0  0  0  0  0  0  0  0  0  0  0
   51.6570   11.8520   11.5058 H   0  0  0  0  0  0  0  0  0  0  0  0
   51.4980    6.9508    8.1065 H   0  0  0  0  0  0  0  0  0  0  0  0
   52.3287    5.0063    6.8299 H   0  0  0  0  0  0  0  0  0  0  0  0
   54.7237    4.3843    6.9186 H   0  0  0  0  0  0  0  0  0  0  0  0
   55.4674    7.6792    9.6027 H   0  0  0  0  0  0  0  0  0  0  0  0
   58.3266    5.9733    9.0239 H   0  0  0  0  0  0  0  0  0  0  0  0
   50.5467    7.5122   11.3636 H   0  0  0  0  0  0  0  0  0  0  0  0
   50.7918    8.6969   13.0249 H   0  0  0  0  0  0  0  0  0  0  0  0
   48.5967   13.6265   15.3997 H   0  0  0  0  0  0  0  0  0  0  0  0
   48.3442   13.0295   13.7414 H   0  0  0  0  0  0  0  0  0  0  0  0
   49.9977   13.3193   14.3427 H   0  0  0  0  0  0  0  0  0  0  0  0
   47.6937   10.7037   18.4368 H   0  0  0  0  0  0  0  0  0  0  0  0
   48.6730    5.8630   18.7404 H   0  0  0  0  0  0  0  0  0  0  0  0
   49.2865    7.0729   16.7343 H   0  0  0  0  0  0  0  0  0  0  0  0
   47.8171    7.2791   21.8971 H   0  0  0  0  0  0  0  0  0  0  0  0
   46.3823    6.6399   21.0397 H   0  0  0  0  0  0  0  0  0  0  0  0
   47.9334    5.7842   20.9739 H   0  0  0  0  0  0  0  0  0  0  0  0
   47.5370    9.7568   21.6495 H   0  0  0  0  0  0  0  0  0  0  0  0
   45.9419    9.1880   21.0753 H   0  0  0  0  0  0  0  0  0  0  0  0
   46.6057   10.7117   20.4864 H   0  0  0  0  0  0  0  0  0  0  0  0
   51.4434    7.8766   14.9865 H   0  0  0  0  0  0  0  0  0  0  0  0
   51.6714    9.6340   14.9256 H   0  0  0  0  0  0  0  0  0  0  0  0
   49.9192    8.0710   12.9411 H   0  0  0  0  0  0  0  0  0  0  0  0
   50.2730    9.7870   12.8775 H   0  0  0  0  0  0  0  0  0  0  0  0
   51.6320    8.5500   11.3772 H   0  0  0  0  0  0  0  0  0  0  0  0
   52.2245    7.6019   12.5652 H   0  0  0  0  0  0  0  0  0  0  0  0
   49.2058    8.2468   15.2266 H   0  0  0  0  0  0  0  0  0  0  0  0
  4  1  1  0
  1  2  1  0
  2  3  1  0
 10 20  1  0
  9 21  1  0
 12 13  2  0
 21 22  1  0
  8  9  2  0
 22 23  2  0
 23 24  1  0
 13 14  1  0
  6  7  2  0
 14 15  2  0
  9 10  1  0
 24 25  1  0
 25 26  1  0
 26 27  2  0
 27 23  1  0
 15 16  1  0
 27 28  1  0
 16 11  2  0
 24 29  2  0
  5 11  1  0
 25 30  1  0
 10  5  2  0
 30 31  2  0
 15 17  1  0
 31 32  1  0
  5  6  1  0
 32 33  2  0
  7  8  1  0
 33 34  1  0
 17 18  1  0
 34 35  2  0
 35 30  1  0
 17 19  2  0
 33 36  1  0
 11 12  1  0
 32 37  1  0
 41 38  1  0
 38 39  1  0
 39 40  1  0
  1 42  1  0
  1 43  1  0
  2 44  1  0
  2 45  1  0
  3 46  1  0
  3 47  1  0
  4 48  1  0
  6 49  1  0
  7 50  1  0
  8 51  1  0
 12 52  1  0
 13 53  1  0
 14 54  1  0
 16 55  1  0
 18 56  1  0
 20 57  1  0
 21 58  1  0
 28 59  1  0
 28 60  1  0
 28 61  1  0
 31 62  1  0
 34 63  1  0
 35 64  1  0
 36 65  1  0
 36 66  1  0
 36 67  1  0
 37 68  1  0
 37 69  1  0
 37 70  1  0
 38 71  1  0
 38 72  1  0
 39 73  1  0
 39 74  1  0
 40 75  1  0
 40 76  1  0
 41 77  1  0
M  END
> <Uni-Dock RESULT> 
ENERGY=   -4.560  LOWER_BOUND=    4.926  UPPER_BOUND=    7.018
INTER + INTRA:          -4.560
INTER:                  -4.560
INTRA:                   0.000
UNBOUND:                 0.000

$$$$
