
     RDKit          3D

 77 78  0  0  0  0  0  0  0  0999 V2000
   48.6867    8.3579   13.7798 C   0  0  0  0  0  0  0  0  0  0  0  0
   49.4841    7.9611   15.0269 C   0  0  0  0  0  0  0  0  0  0  0  0
   49.1649    6.6121   15.5024 N   0  0  0  0  0  0  0  0  0  0  0  0
   47.2862    8.2977   14.0318 O   0  0  0  0  0  0  0  0  0  0  0  0
   50.4139    4.6501   17.5338 C   0  0  0  0  0  0  0  0  0  0  0  0
   49.5755    3.5245   17.6044 C   0  0  0  0  0  0  0  0  0  0  0  0
   48.2922    3.5413   17.0539 C   0  0  0  0  0  0  0  0  0  0  0  0
   47.8228    4.6844   16.4061 C   0  0  0  0  0  0  0  0  0  0  0  0
   48.6298    5.8227   16.2844 C   0  0  0  0  0  0  0  0  0  0  0  0
   49.9111    5.7904   16.8780 C   0  0  0  0  0  0  0  0  0  0  0  0
   51.7635    4.6000   18.1310 C   0  0  0  0  0  0  0  0  0  0  0  0
   51.9433    4.2512   19.4818 C   0  0  0  0  0  0  0  0  0  0  0  0
   53.2186    4.1846   20.0486 C   0  0  0  0  0  0  0  0  0  0  0  0
   54.3405    4.4663   19.2719 C   0  0  0  0  0  0  0  0  0  0  0  0
   54.1894    4.8173   17.9260 C   0  0  0  0  0  0  0  0  0  0  0  0
   52.9072    4.8812   17.3629 C   0  0  0  0  0  0  0  0  0  0  0  0
   55.4107    5.1108   17.1387 C   0  0  0  0  0  0  0  0  0  0  0  0
   55.1538    5.4023   15.8512 O   0  0  0  0  0  0  0  0  0  0  0  0
   56.5518    5.0955   17.5634 O   0  0  0  0  0  0  0  0  0  0  0  0
   50.6857    6.9270   16.8316 O   0  0  0  0  0  0  0  0  0  0  0  0
   48.0908    6.9693   15.6499 N   0  0  0  0  0  0  0  0  0  0  0  0
   48.8850    8.0267   15.3263 N   0  0  0  0  0  0  0  0  0  0  0  0
   48.4074    8.8572   14.4508 C   0  0  0  0  0  0  0  0  0  0  0  0
   47.1163    8.8397   13.6922 C   0  0  0  0  0  0  0  0  0  0  0  0
   47.2107   10.0005   12.9318 N   0  0  0  0  0  0  0  0  0  0  0  0
   48.4046   10.7232   13.1213 N   0  0  0  0  0  0  0  0  0  0  0  0
   49.1160   10.0789   13.9971 C   0  0  0  0  0  0  0  0  0  0  0  0
   50.4546   10.4492   14.5135 C   0  0  0  0  0  0  0  0  0  0  0  0
   46.2918    7.9559   13.8071 O   0  0  0  0  0  0  0  0  0  0  0  0
   46.2646   10.5047   12.0035 C   0  0  0  0  0  0  0  0  0  0  0  0
   45.0589    9.8408   11.7394 C   0  0  0  0  0  0  0  0  0  0  0  0
   44.1205   10.3493   10.8184 C   0  0  0  0  0  0  0  0  0  0  0  0
   44.3994   11.5472   10.1348 C   0  0  0  0  0  0  0  0  0  0  0  0
   45.6007   12.2151   10.3994 C   0  0  0  0  0  0  0  0  0  0  0  0
   46.5186   11.6999   11.3186 C   0  0  0  0  0  0  0  0  0  0  0  0
   43.4326   12.1339    9.1432 C   0  0  0  0  0  0  0  0  0  0  0  0
   42.8474    9.5850   10.5691 C   0  0  0  0  0  0  0  0  0  0  0  0
   48.9900    6.7860   14.8440 C   0  0  0  0  0  0  0  0  0  0  0  0
   48.9174    8.2561   14.4202 C   0  0  0  0  0  0  0  0  0  0  0  0
   47.7352    8.5441   13.6148 N   0  0  0  0  0  0  0  0  0  0  0  0
   50.1026    6.5724   15.7081 O   0  0  0  0  0  0  0  0  0  0  0  0
   48.9344    9.3832   13.4875 H   0  0  0  0  0  0  0  0  0  0  0  0
   48.9164    7.6994   12.9354 H   0  0  0  0  0  0  0  0  0  0  0  0
   50.5548    8.0168   14.8079 H   0  0  0  0  0  0  0  0  0  0  0  0
   49.2726    8.6648   15.8391 H   0  0  0  0  0  0  0  0  0  0  0  0
   48.2264    6.6021   15.8978 H   0  0  0  0  0  0  0  0  0  0  0  0
   49.1802    5.9502   14.7289 H   0  0  0  0  0  0  0  0  0  0  0  0
   47.0772    7.3706   14.2325 H   0  0  0  0  0  0  0  0  0  0  0  0
   49.9240    2.6156   18.0918 H   0  0  0  0  0  0  0  0  0  0  0  0
   47.6585    2.6614   17.1301 H   0  0  0  0  0  0  0  0  0  0  0  0
   46.8166    4.6758   15.9941 H   0  0  0  0  0  0  0  0  0  0  0  0
   51.0787    4.0392   20.1086 H   0  0  0  0  0  0  0  0  0  0  0  0
   53.3355    3.9165   21.0961 H   0  0  0  0  0  0  0  0  0  0  0  0
   55.3317    4.4149   19.7181 H   0  0  0  0  0  0  0  0  0  0  0  0
   52.7871    5.1565   16.3163 H   0  0  0  0  0  0  0  0  0  0  0  0
   56.0405    5.5676   15.4705 H   0  0  0  0  0  0  0  0  0  0  0  0
   50.1101    7.5602   16.3510 H   0  0  0  0  0  0  0  0  0  0  0  0
   47.2353    6.7822   15.1093 H   0  0  0  0  0  0  0  0  0  0  0  0
   51.1751    9.6701   14.2526 H   0  0  0  0  0  0  0  0  0  0  0  0
   50.4141   10.5570   15.6006 H   0  0  0  0  0  0  0  0  0  0  0  0
   50.7782   11.3957   14.0716 H   0  0  0  0  0  0  0  0  0  0  0  0
   44.8194    8.9094   12.2455 H   0  0  0  0  0  0  0  0  0  0  0  0
   45.8371   13.1471    9.8899 H   0  0  0  0  0  0  0  0  0  0  0  0
   47.4385   12.2535   11.4899 H   0  0  0  0  0  0  0  0  0  0  0  0
   42.5157   12.4495    9.6506 H   0  0  0  0  0  0  0  0  0  0  0  0
   43.8549   13.0114    8.6416 H   0  0  0  0  0  0  0  0  0  0  0  0
   43.1886   11.4029    8.3665 H   0  0  0  0  0  0  0  0  0  0  0  0
   42.8399    9.1877    9.5494 H   0  0  0  0  0  0  0  0  0  0  0  0
   41.9763   10.2322   10.7134 H   0  0  0  0  0  0  0  0  0  0  0  0
   42.7417    8.7412   11.2588 H   0  0  0  0  0  0  0  0  0  0  0  0
   49.1110    6.1382   13.9699 H   0  0  0  0  0  0  0  0  0  0  0  0
   48.0820    6.4777   15.3737 H   0  0  0  0  0  0  0  0  0  0  0  0
   49.8189    8.5129   13.8531 H   0  0  0  0  0  0  0  0  0  0  0  0
   48.9216    8.8976   15.3089 H   0  0  0  0  0  0  0  0  0  0  0  0
   47.7342    9.5306   13.3577 H   0  0  0  0  0  0  0  0  0  0  0  0
   46.8919    8.3918   14.1669 H   0  0  0  0  0  0  0  0  0  0  0  0
   49.9226    7.0492   16.5359 H   0  0  0  0  0  0  0  0  0  0  0  0
  4  1  1  0
  1  2  1  0
  2  3  1  0
 10 20  1  0
  9 21  1  0
 12 13  2  0
 21 22  1  0
  8  9  2  0
 22 23  2  0
 23 24  1  0
 13 14  1  0
  6  7  2  0
 14 15  2  0
  9 10  1  0
 24 25  1  0
 25 26  1  0
 26 27  2  0
 27 23  1  0
 15 16  1  0
 27 28  1  0
 16 11  2  0
 24 29  2  0
  5 11  1  0
 25 30  1  0
 10  5  2  0
 30 31  2  0
 15 17  1  0
 31 32  1  0
  5  6  1  0
 32 33  2  0
  7  8  1  0
 33 34  1  0
 17 18  1  0
 34 35  2  0
 35 30  1  0
 17 19  2  0
 33 36  1  0
 11 12  1  0
 32 37  1  0
 41 38  1  0
 38 39  1  0
 39 40  1  0
  1 42  1  0
  1 43  1  0
  2 44  1  0
  2 45  1  0
  3 46  1  0
  3 47  1  0
  4 48  1  0
  6 49  1  0
  7 50  1  0
  8 51  1  0
 12 52  1  0
 13 53  1  0
 14 54  1  0
 16 55  1  0
 18 56  1  0
 20 57  1  0
 21 58  1  0
 28 59  1  0
 28 60  1  0
 28 61  1  0
 31 62  1  0
 34 63  1  0
 35 64  1  0
 36 65  1  0
 36 66  1  0
 36 67  1  0
 37 68  1  0
 37 69  1  0
 37 70  1  0
 38 71  1  0
 38 72  1  0
 39 73  1  0
 39 74  1  0
 40 75  1  0
 40 76  1  0
 41 77  1  0
M  END
> <Uni-Dock RESULT> 
ENERGY=   -5.247  LOWER_BOUND=    0.000  UPPER_BOUND=    0.000
INTER + INTRA:          -5.247
INTER:                  -5.247
INTRA:                   0.000
UNBOUND:                 0.000

$$$$

     RDKit          3D

 77 78  0  0  0  0  0  0  0  0999 V2000
   44.7824   10.5050   10.8325 C   0  0  0  0  0  0  0  0  0  0  0  0
   44.5848   12.0203   10.9490 C   0  0  0  0  0  0  0  0  0  0  0  0
   45.7910   12.7196   11.4003 N   0  0  0  0  0  0  0  0  0  0  0  0
   45.1757    9.9465   12.0823 O   0  0  0  0  0  0  0  0  0  0  0  0
   46.6933   15.6696   11.5390 C   0  0  0  0  0  0  0  0  0  0  0  0
   47.9521   15.6975   12.1633 C   0  0  0  0  0  0  0  0  0  0  0  0
   48.4543   14.5788   12.8315 C   0  0  0  0  0  0  0  0  0  0  0  0
   47.7113   13.3989   12.8784 C   0  0  0  0  0  0  0  0  0  0  0  0
   46.4635   13.3109   12.2482 C   0  0  0  0  0  0  0  0  0  0  0  0
   45.9646   14.4664   11.6070 C   0  0  0  0  0  0  0  0  0  0  0  0
   46.1901   16.8721   10.8453 C   0  0  0  0  0  0  0  0  0  0  0  0
   46.0993   18.1067   11.5133 C   0  0  0  0  0  0  0  0  0  0  0  0
   45.6409   19.2523   10.8579 C   0  0  0  0  0  0  0  0  0  0  0  0
   45.2640   19.1833    9.5184 C   0  0  0  0  0  0  0  0  0  0  0  0
   45.3430   17.9674    8.8310 C   0  0  0  0  0  0  0  0  0  0  0  0
   45.8050   16.8217    9.4938 C   0  0  0  0  0  0  0  0  0  0  0  0
   44.9294   17.9405    7.4078 C   0  0  0  0  0  0  0  0  0  0  0  0
   45.0783   16.7327    6.8353 O   0  0  0  0  0  0  0  0  0  0  0  0
   44.5004   18.8873    6.7735 O   0  0  0  0  0  0  0  0  0  0  0  0
   44.7079   14.4171   11.0485 O   0  0  0  0  0  0  0  0  0  0  0  0
   45.7340   12.1012   12.3581 N   0  0  0  0  0  0  0  0  0  0  0  0
   44.6180   11.8879   11.6079 N   0  0  0  0  0  0  0  0  0  0  0  0
   44.2255   10.6558   11.4994 C   0  0  0  0  0  0  0  0  0  0  0  0
   44.8169    9.3919   12.0432 C   0  0  0  0  0  0  0  0  0  0  0  0
   43.9245    8.4309   11.5797 N   0  0  0  0  0  0  0  0  0  0  0  0
   42.8642    8.9468   10.8094 N   0  0  0  0  0  0  0  0  0  0  0  0
   43.0178   10.2355   10.7474 C   0  0  0  0  0  0  0  0  0  0  0  0
   42.1527   11.2094   10.0412 C   0  0  0  0  0  0  0  0  0  0  0  0
   45.8376    9.3666   12.7004 O   0  0  0  0  0  0  0  0  0  0  0  0
   43.9816    7.0288   11.7838 C   0  0  0  0  0  0  0  0  0  0  0  0
   45.0111    6.4284   12.5214 C   0  0  0  0  0  0  0  0  0  0  0  0
   45.0600    5.0341   12.7242 C   0  0  0  0  0  0  0  0  0  0  0  0
   44.0597    4.2170   12.1659 C   0  0  0  0  0  0  0  0  0  0  0  0
   43.0277    4.8138   11.4324 C   0  0  0  0  0  0  0  0  0  0  0  0
   42.9913    6.1981   11.2440 C   0  0  0  0  0  0  0  0  0  0  0  0
   44.0637    2.7247   12.3529 C   0  0  0  0  0  0  0  0  0  0  0  0
   46.1974    4.4466   13.5169 C   0  0  0  0  0  0  0  0  0  0  0  0
   45.8569   12.0684   11.1434 C   0  0  0  0  0  0  0  0  0  0  0  0
   44.6388   11.1456   11.0395 C   0  0  0  0  0  0  0  0  0  0  0  0
   44.9303    9.7886   11.4898 N   0  0  0  0  0  0  0  0  0  0  0  0
   45.5015   13.4019   10.7890 O   0  0  0  0  0  0  0  0  0  0  0  0
   43.8457   10.0276   10.5281 H   0  0  0  0  0  0  0  0  0  0  0  0
   45.5461   10.2602   10.0868 H   0  0  0  0  0  0  0  0  0  0  0  0
   44.2821   12.4240    9.9780 H   0  0  0  0  0  0  0  0  0  0  0  0
   43.7827   12.2337   11.6637 H   0  0  0  0  0  0  0  0  0  0  0  0
   45.9664   12.5014   12.3795 H   0  0  0  0  0  0  0  0  0  0  0  0
   46.6010   12.4110   10.8662 H   0  0  0  0  0  0  0  0  0  0  0  0
   46.0353   10.3394   12.3066 H   0  0  0  0  0  0  0  0  0  0  0  0
   48.5574   16.6017   12.1284 H   0  0  0  0  0  0  0  0  0  0  0  0
   49.4264   14.6282   13.3155 H   0  0  0  0  0  0  0  0  0  0  0  0
   48.1199   12.5447   13.4130 H   0  0  0  0  0  0  0  0  0  0  0  0
   46.3776   18.1787   12.5634 H   0  0  0  0  0  0  0  0  0  0  0  0
   45.5749   20.1964   11.3938 H   0  0  0  0  0  0  0  0  0  0  0  0
   44.9058   20.0778    9.0125 H   0  0  0  0  0  0  0  0  0  0  0  0
   45.8651   15.8738    8.9616 H   0  0  0  0  0  0  0  0  0  0  0  0
   44.7711   16.8732    5.9165 H   0  0  0  0  0  0  0  0  0  0  0  0
   44.4200   13.5001   11.2469 H   0  0  0  0  0  0  0  0  0  0  0  0
   46.2974   11.3036   12.6831 H   0  0  0  0  0  0  0  0  0  0  0  0
   42.7302   11.7130    9.2620 H   0  0  0  0  0  0  0  0  0  0  0  0
   41.7760   11.9510   10.7506 H   0  0  0  0  0  0  0  0  0  0  0  0
   41.3064   10.6932    9.5796 H   0  0  0  0  0  0  0  0  0  0  0  0
   45.8021    7.0324   12.9576 H   0  0  0  0  0  0  0  0  0  0  0  0
   42.2379    4.2053   10.9965 H   0  0  0  0  0  0  0  0  0  0  0  0
   42.1706    6.6155   10.6659 H   0  0  0  0  0  0  0  0  0  0  0  0
   43.9038    2.4753   13.4065 H   0  0  0  0  0  0  0  0  0  0  0  0
   43.2681    2.2451   11.7723 H   0  0  0  0  0  0  0  0  0  0  0  0
   45.0132    2.2982   12.0154 H   0  0  0  0  0  0  0  0  0  0  0  0
   46.8362    3.8407   12.8669 H   0  0  0  0  0  0  0  0  0  0  0  0
   45.8159    3.8251   14.3333 H   0  0  0  0  0  0  0  0  0  0  0  0
   46.8203    5.2263   13.9674 H   0  0  0  0  0  0  0  0  0  0  0  0
   46.6502   11.7379   10.4654 H   0  0  0  0  0  0  0  0  0  0  0  0
   46.2620   12.0820   12.1611 H   0  0  0  0  0  0  0  0  0  0  0  0
   44.2928   11.1207   10.0003 H   0  0  0  0  0  0  0  0  0  0  0  0
   43.8113   11.5581   11.6280 H   0  0  0  0  0  0  0  0  0  0  0  0
   44.0918    9.2156   11.3996 H   0  0  0  0  0  0  0  0  0  0  0  0
   45.1674    9.7939   12.4813 H   0  0  0  0  0  0  0  0  0  0  0  0
   44.8949   13.7320   11.4731 H   0  0  0  0  0  0  0  0  0  0  0  0
  4  1  1  0
  1  2  1  0
  2  3  1  0
 10 20  1  0
  9 21  1  0
 12 13  2  0
 21 22  1  0
  8  9  2  0
 22 23  2  0
 23 24  1  0
 13 14  1  0
  6  7  2  0
 14 15  2  0
  9 10  1  0
 24 25  1  0
 25 26  1  0
 26 27  2  0
 27 23  1  0
 15 16  1  0
 27 28  1  0
 16 11  2  0
 24 29  2  0
  5 11  1  0
 25 30  1  0
 10  5  2  0
 30 31  2  0
 15 17  1  0
 31 32  1  0
  5  6  1  0
 32 33  2  0
  7  8  1  0
 33 34  1  0
 17 18  1  0
 34 35  2  0
 35 30  1  0
 17 19  2  0
 33 36  1  0
 11 12  1  0
 32 37  1  0
 41 38  1  0
 38 39  1  0
 39 40  1  0
  1 42  1  0
  1 43  1  0
  2 44  1  0
  2 45  1  0
  3 46  1  0
  3 47  1  0
  4 48  1  0
  6 49  1  0
  7 50  1  0
  8 51  1  0
 12 52  1  0
 13 53  1  0
 14 54  1  0
 16 55  1  0
 18 56  1  0
 20 57  1  0
 21 58  1  0
 28 59  1  0
 28 60  1  0
 28 61  1  0
 31 62  1  0
 34 63  1  0
 35 64  1  0
 36 65  1  0
 36 66  1  0
 36 67  1  0
 37 68  1  0
 37 69  1  0
 37 70  1  0
 38 71  1  0
 38 72  1  0
 39 73  1  0
 39 74  1  0
 40 75  1  0
 40 76  1  0
 41 77  1  0
M  END
> <Uni-Dock RESULT> 
ENERGY=   -5.190  LOWER_BOUND=    5.723  UPPER_BOUND=   10.999
INTER + INTRA:          -5.190
INTER:                  -5.190
INTRA:                   0.000
UNBOUND:                 0.000

$$$$

     RDKit          3D

 77 78  0  0  0  0  0  0  0  0999 V2000
   51.2292    5.1398   18.4199 C   0  0  0  0  0  0  0  0  0  0  0  0
   50.0193    5.6612   17.6370 C   0  0  0  0  0  0  0  0  0  0  0  0
   50.3961    6.3730   16.4126 N   0  0  0  0  0  0  0  0  0  0  0  0
   52.1002    6.2078   18.7796 O   0  0  0  0  0  0  0  0  0  0  0  0
   48.8899    7.3934   13.9175 C   0  0  0  0  0  0  0  0  0  0  0  0
   49.8157    8.0868   13.1193 C   0  0  0  0  0  0  0  0  0  0  0  0
   51.0705    8.4489   13.6137 C   0  0  0  0  0  0  0  0  0  0  0  0
   51.4333    8.1121   14.9181 C   0  0  0  0  0  0  0  0  0  0  0  0
   50.5573    7.3971   15.7447 C   0  0  0  0  0  0  0  0  0  0  0  0
   49.2825    7.0714   15.2310 C   0  0  0  0  0  0  0  0  0  0  0  0
   47.5696    7.0303   13.3647 C   0  0  0  0  0  0  0  0  0  0  0  0
   46.7240    8.0087   12.8114 C   0  0  0  0  0  0  0  0  0  0  0  0
   45.4812    7.6695   12.2707 C   0  0  0  0  0  0  0  0  0  0  0  0
   45.0607    6.3412   12.2735 C   0  0  0  0  0  0  0  0  0  0  0  0
   45.8818    5.3486   12.8192 C   0  0  0  0  0  0  0  0  0  0  0  0
   47.1282    5.6952   13.3591 C   0  0  0  0  0  0  0  0  0  0  0  0
   45.3926    3.9494   12.8027 C   0  0  0  0  0  0  0  0  0  0  0  0
   46.2733    3.0739   13.3189 O   0  0  0  0  0  0  0  0  0  0  0  0
   44.3168    3.5768   12.3707 O   0  0  0  0  0  0  0  0  0  0  0  0
   48.3841    6.4352   16.0569 O   0  0  0  0  0  0  0  0  0  0  0  0
   50.9608    7.1133   17.0730 N   0  0  0  0  0  0  0  0  0  0  0  0
   50.2444    6.2575   17.8528 N   0  0  0  0  0  0  0  0  0  0  0  0
   50.8548    5.7818   18.8946 C   0  0  0  0  0  0  0  0  0  0  0  0
   52.2543    5.9903   19.3853 C   0  0  0  0  0  0  0  0  0  0  0  0
   52.2755    5.2156   20.5402 N   0  0  0  0  0  0  0  0  0  0  0  0
   51.0657    4.5484   20.8139 N   0  0  0  0  0  0  0  0  0  0  0  0
   50.2264    4.8600   19.8723 C   0  0  0  0  0  0  0  0  0  0  0  0
   48.8267    4.3957   19.7281 C   0  0  0  0  0  0  0  0  0  0  0  0
   53.0641    6.6837   18.8042 O   0  0  0  0  0  0  0  0  0  0  0  0
   53.3612    5.0231   21.4318 C   0  0  0  0  0  0  0  0  0  0  0  0
   54.6062    5.6333   21.2264 C   0  0  0  0  0  0  0  0  0  0  0  0
   55.6806    5.4412   22.1186 C   0  0  0  0  0  0  0  0  0  0  0  0
   55.5099    4.6083   23.2399 C   0  0  0  0  0  0  0  0  0  0  0  0
   54.2666    4.0009   23.4504 C   0  0  0  0  0  0  0  0  0  0  0  0
   53.2101    4.2049   22.5586 C   0  0  0  0  0  0  0  0  0  0  0  0
   56.6226    4.3704   24.2235 C   0  0  0  0  0  0  0  0  0  0  0  0
   56.9976    6.1152   21.8386 C   0  0  0  0  0  0  0  0  0  0  0  0
   50.8697    5.9495   16.7139 C   0  0  0  0  0  0  0  0  0  0  0  0
   50.7031    5.5071   18.1708 C   0  0  0  0  0  0  0  0  0  0  0  0
   51.9535    5.5793   18.9194 N   0  0  0  0  0  0  0  0  0  0  0  0
   49.6089    5.9581   16.0501 O   0  0  0  0  0  0  0  0  0  0  0  0
   50.8967    4.6495   19.3403 H   0  0  0  0  0  0  0  0  0  0  0  0
   51.7977    4.4105   17.8332 H   0  0  0  0  0  0  0  0  0  0  0  0
   49.3665    4.8231   17.3745 H   0  0  0  0  0  0  0  0  0  0  0  0
   49.4428    6.3494   18.2645 H   0  0  0  0  0  0  0  0  0  0  0  0
   50.8306    7.2618   16.6539 H   0  0  0  0  0  0  0  0  0  0  0  0
   51.0761    5.8317   15.8823 H   0  0  0  0  0  0  0  0  0  0  0  0
   52.4291    6.5924   17.9504 H   0  0  0  0  0  0  0  0  0  0  0  0
   49.5621    8.3483   12.0934 H   0  0  0  0  0  0  0  0  0  0  0  0
   51.7657    8.9939   12.9802 H   0  0  0  0  0  0  0  0  0  0  0  0
   52.4121    8.4137   15.2829 H   0  0  0  0  0  0  0  0  0  0  0  0
   47.0292    9.0538   12.8104 H   0  0  0  0  0  0  0  0  0  0  0  0
   44.8409    8.4420   11.8510 H   0  0  0  0  0  0  0  0  0  0  0  0
   44.0911    6.0819   11.8529 H   0  0  0  0  0  0  0  0  0  0  0  0
   47.7679    4.9247   13.7864 H   0  0  0  0  0  0  0  0  0  0  0  0
   45.8163    2.2119   13.2383 H   0  0  0  0  0  0  0  0  0  0  0  0
   48.8865    6.3488   16.8954 H   0  0  0  0  0  0  0  0  0  0  0  0
   51.9686    7.2407   17.2380 H   0  0  0  0  0  0  0  0  0  0  0  0
   48.7233    3.8306   18.7984 H   0  0  0  0  0  0  0  0  0  0  0  0
   48.1525    5.2561   19.7068 H   0  0  0  0  0  0  0  0  0  0  0  0
   48.5572    3.7504   20.5687 H   0  0  0  0  0  0  0  0  0  0  0  0
   54.7708    6.2750   20.3650 H   0  0  0  0  0  0  0  0  0  0  0  0
   54.1061    3.3583   24.3138 H   0  0  0  0  0  0  0  0  0  0  0  0
   52.2635    3.7108   22.7634 H   0  0  0  0  0  0  0  0  0  0  0  0
   56.8668    5.2985   24.7497 H   0  0  0  0  0  0  0  0  0  0  0  0
   56.3415    3.6250   24.9753 H   0  0  0  0  0  0  0  0  0  0  0  0
   57.5134    3.9942   23.7115 H   0  0  0  0  0  0  0  0  0  0  0  0
   57.7590    5.3679   21.5948 H   0  0  0  0  0  0  0  0  0  0  0  0
   57.3238    6.6966   22.7068 H   0  0  0  0  0  0  0  0  0  0  0  0
   56.9246    6.8080   20.9938 H   0  0  0  0  0  0  0  0  0  0  0  0
   51.5310    5.2631   16.1756 H   0  0  0  0  0  0  0  0  0  0  0  0
   51.2970    6.9561   16.6485 H   0  0  0  0  0  0  0  0  0  0  0  0
   50.3202    4.4809   18.1946 H   0  0  0  0  0  0  0  0  0  0  0  0
   49.9449    6.1283   18.6613 H   0  0  0  0  0  0  0  0  0  0  0  0
   51.7908    5.2742   19.8785 H   0  0  0  0  0  0  0  0  0  0  0  0
   52.2698    6.5467   18.9771 H   0  0  0  0  0  0  0  0  0  0  0  0
   49.0742    6.6633   16.4523 H   0  0  0  0  0  0  0  0  0  0  0  0
  4  1  1  0
  1  2  1  0
  2  3  1  0
 10 20  1  0
  9 21  1  0
 12 13  2  0
 21 22  1  0
  8  9  2  0
 22 23  2  0
 23 24  1  0
 13 14  1  0
  6  7  2  0
 14 15  2  0
  9 10  1  0
 24 25  1  0
 25 26  1  0
 26 27  2  0
 27 23  1  0
 15 16  1  0
 27 28  1  0
 16 11  2  0
 24 29  2  0
  5 11  1  0
 25 30  1  0
 10  5  2  0
 30 31  2  0
 15 17  1  0
 31 32  1  0
  5  6  1  0
 32 33  2  0
  7  8  1  0
 33 34  1  0
 17 18  1  0
 34 35  2  0
 35 30  1  0
 17 19  2  0
 33 36  1  0
 11 12  1  0
 32 37  1  0
 41 38  1  0
 38 39  1  0
 39 40  1  0
  1 42  1  0
  1 43  1  0
  2 44  1  0
  2 45  1  0
  3 46  1  0
  3 47  1  0
  4 48  1  0
  6 49  1  0
  7 50  1  0
  8 51  1  0
 12 52  1  0
 13 53  1  0
 14 54  1  0
 16 55  1  0
 18 56  1  0
 20 57  1  0
 21 58  1  0
 28 59  1  0
 28 60  1  0
 28 61  1  0
 31 62  1  0
 34 63  1  0
 35 64  1  0
 36 65  1  0
 36 66  1  0
 36 67  1  0
 37 68  1  0
 37 69  1  0
 37 70  1  0
 38 71  1  0
 38 72  1  0
 39 73  1  0
 39 74  1  0
 40 75  1  0
 40 76  1  0
 41 77  1  0
M  END
> <Uni-Dock RESULT> 
ENERGY=   -4.987  LOWER_BOUND=    3.013  UPPER_BOUND=   10.069
INTER + INTRA:          -4.987
INTER:                  -4.987
INTRA:                   0.000
UNBOUND:                 0.000

$$$$

     RDKit          3D

 77 78  0  0  0  0  0  0  0  0999 V2000
   46.7076    8.8450   13.5270 C   0  0  0  0  0  0  0  0  0  0  0  0
   48.0226    8.0915   13.7540 C   0  0  0  0  0  0  0  0  0  0  0  0
   49.0910    8.9518   14.2699 N   0  0  0  0  0  0  0  0  0  0  0  0
   46.8900    9.9207   12.6115 O   0  0  0  0  0  0  0  0  0  0  0  0
   51.8856    8.4814   15.4966 C   0  0  0  0  0  0  0  0  0  0  0  0
   52.4678    9.7413   15.7170 C   0  0  0  0  0  0  0  0  0  0  0  0
   51.9224   10.8992   15.1583 C   0  0  0  0  0  0  0  0  0  0  0  0
   50.7703   10.8234   14.3751 C   0  0  0  0  0  0  0  0  0  0  0  0
   50.1360    9.5953   14.1485 C   0  0  0  0  0  0  0  0  0  0  0  0
   50.7264    8.4358   14.6982 C   0  0  0  0  0  0  0  0  0  0  0  0
   52.4912    7.2765   16.0983 C   0  0  0  0  0  0  0  0  0  0  0  0
   53.8430    6.9586   15.8745 C   0  0  0  0  0  0  0  0  0  0  0  0
   54.4270    5.8299   16.4550 C   0  0  0  0  0  0  0  0  0  0  0  0
   53.6667    4.9963   17.2727 C   0  0  0  0  0  0  0  0  0  0  0  0
   52.3194    5.2888   17.5104 C   0  0  0  0  0  0  0  0  0  0  0  0
   51.7397    6.4235   16.9260 C   0  0  0  0  0  0  0  0  0  0  0  0
   51.5489    4.3729   18.3849 C   0  0  0  0  0  0  0  0  0  0  0  0
   50.2767    4.7660   18.5740 O   0  0  0  0  0  0  0  0  0  0  0  0
   51.9779    3.3610   18.9092 O   0  0  0  0  0  0  0  0  0  0  0  0
   50.1567    7.2140   14.4215 O   0  0  0  0  0  0  0  0  0  0  0  0
   48.9904    9.5693   13.3151 N   0  0  0  0  0  0  0  0  0  0  0  0
   48.2210    8.4500   13.2202 N   0  0  0  0  0  0  0  0  0  0  0  0
   47.0270    8.6128   12.7386 C   0  0  0  0  0  0  0  0  0  0  0  0
   46.3181    9.8518   12.2858 C   0  0  0  0  0  0  0  0  0  0  0  0
   45.0861    9.3496   11.8801 N   0  0  0  0  0  0  0  0  0  0  0  0
   44.9465    7.9570   12.0378 N   0  0  0  0  0  0  0  0  0  0  0  0
   46.0591    7.5071   12.5356 C   0  0  0  0  0  0  0  0  0  0  0  0
   46.3848    6.1035   12.8812 C   0  0  0  0  0  0  0  0  0  0  0  0
   46.8189   10.9569   12.3330 O   0  0  0  0  0  0  0  0  0  0  0  0
   43.9868   10.0763   11.3564 C   0  0  0  0  0  0  0  0  0  0  0  0
   44.0320   11.4663   11.1833 C   0  0  0  0  0  0  0  0  0  0  0  0
   42.9371   12.1826   10.6582 C   0  0  0  0  0  0  0  0  0  0  0  0
   41.7618   11.4930   10.3073 C   0  0  0  0  0  0  0  0  0  0  0  0
   41.7148   10.1042   10.4748 C   0  0  0  0  0  0  0  0  0  0  0  0
   42.8105    9.4082   10.9927 C   0  0  0  0  0  0  0  0  0  0  0  0
   40.5656   12.2082    9.7419 C   0  0  0  0  0  0  0  0  0  0  0  0
   43.0419   13.6769   10.5057 C   0  0  0  0  0  0  0  0  0  0  0  0
   48.4260    9.1738   14.3234 C   0  0  0  0  0  0  0  0  0  0  0  0
   47.3237    8.5442   13.4663 C   0  0  0  0  0  0  0  0  0  0  0  0
   46.4273    9.5429   12.8933 N   0  0  0  0  0  0  0  0  0  0  0  0
   49.3329    8.1738   14.7792 O   0  0  0  0  0  0  0  0  0  0  0  0
   45.9557    8.1684   13.1089 H   0  0  0  0  0  0  0  0  0  0  0  0
   46.3150    9.2503   14.4655 H   0  0  0  0  0  0  0  0  0  0  0  0
   47.8555    7.2709   14.4584 H   0  0  0  0  0  0  0  0  0  0  0  0
   48.3657    7.6557   12.8095 H   0  0  0  0  0  0  0  0  0  0  0  0
   49.3943    9.5948   13.5407 H   0  0  0  0  0  0  0  0  0  0  0  0
   48.7514    9.5099   15.0508 H   0  0  0  0  0  0  0  0  0  0  0  0
   47.5156   10.5379   13.0254 H   0  0  0  0  0  0  0  0  0  0  0  0
   53.3588    9.8287   16.3364 H   0  0  0  0  0  0  0  0  0  0  0  0
   52.3968   11.8611   15.3349 H   0  0  0  0  0  0  0  0  0  0  0  0
   50.3705   11.7378   13.9434 H   0  0  0  0  0  0  0  0  0  0  0  0
   54.4507    7.5907   15.2290 H   0  0  0  0  0  0  0  0  0  0  0  0
   55.4730    5.6000   16.2661 H   0  0  0  0  0  0  0  0  0  0  0  0
   54.1253    4.1173   17.7213 H   0  0  0  0  0  0  0  0  0  0  0  0
   50.6907    6.6518   17.1076 H   0  0  0  0  0  0  0  0  0  0  0  0
   49.9064    4.0754   19.1608 H   0  0  0  0  0  0  0  0  0  0  0  0
   49.3983    7.4553   13.8474 H   0  0  0  0  0  0  0  0  0  0  0  0
   48.5753   10.4963   13.1493 H   0  0  0  0  0  0  0  0  0  0  0  0
   46.5806    6.0274   13.9537 H   0  0  0  0  0  0  0  0  0  0  0  0
   47.2707    5.7827   12.3267 H   0  0  0  0  0  0  0  0  0  0  0  0
   45.5461    5.4501   12.6253 H   0  0  0  0  0  0  0  0  0  0  0  0
   44.9227   12.0274   11.4531 H   0  0  0  0  0  0  0  0  0  0  0  0
   40.8207    9.5461   10.2041 H   0  0  0  0  0  0  0  0  0  0  0  0
   42.7264    8.3301   11.1057 H   0  0  0  0  0  0  0  0  0  0  0  0
   40.8048   12.6264    8.7592 H   0  0  0  0  0  0  0  0  0  0  0  0
   39.7142   11.5303    9.6175 H   0  0  0  0  0  0  0  0  0  0  0  0
   40.2455   13.0106   10.4135 H   0  0  0  0  0  0  0  0  0  0  0  0
   42.3564   14.1754   11.1980 H   0  0  0  0  0  0  0  0  0  0  0  0
   42.8038   13.9760    9.4800 H   0  0  0  0  0  0  0  0  0  0  0  0
   44.0544   14.0343   10.7205 H   0  0  0  0  0  0  0  0  0  0  0  0
   47.9973    9.6676   15.2013 H   0  0  0  0  0  0  0  0  0  0  0  0
   48.9956    9.9190   13.7574 H   0  0  0  0  0  0  0  0  0  0  0  0
   46.7471    7.8424   14.0788 H   0  0  0  0  0  0  0  0  0  0  0  0
   47.7741    7.9507   12.6625 H   0  0  0  0  0  0  0  0  0  0  0  0
   45.7134    9.0753   12.3356 H   0  0  0  0  0  0  0  0  0  0  0  0
   46.9416   10.1457   12.2519 H   0  0  0  0  0  0  0  0  0  0  0  0
   49.8040    7.8327   14.0003 H   0  0  0  0  0  0  0  0  0  0  0  0
  4  1  1  0
  1  2  1  0
  2  3  1  0
 10 20  1  0
  9 21  1  0
 12 13  2  0
 21 22  1  0
  8  9  2  0
 22 23  2  0
 23 24  1  0
 13 14  1  0
  6  7  2  0
 14 15  2  0
  9 10  1  0
 24 25  1  0
 25 26  1  0
 26 27  2  0
 27 23  1  0
 15 16  1  0
 27 28  1  0
 16 11  2  0
 24 29  2  0
  5 11  1  0
 25 30  1  0
 10  5  2  0
 30 31  2  0
 15 17  1  0
 31 32  1  0
  5  6  1  0
 32 33  2  0
  7  8  1  0
 33 34  1  0
 17 18  1  0
 34 35  2  0
 35 30  1  0
 17 19  2  0
 33 36  1  0
 11 12  1  0
 32 37  1  0
 41 38  1  0
 38 39  1  0
 39 40  1  0
  1 42  1  0
  1 43  1  0
  2 44  1  0
  2 45  1  0
  3 46  1  0
  3 47  1  0
  4 48  1  0
  6 49  1  0
  7 50  1  0
  8 51  1  0
 12 52  1  0
 13 53  1  0
 14 54  1  0
 16 55  1  0
 18 56  1  0
 20 57  1  0
 21 58  1  0
 28 59  1  0
 28 60  1  0
 28 61  1  0
 31 62  1  0
 34 63  1  0
 35 64  1  0
 36 65  1  0
 36 66  1  0
 36 67  1  0
 37 68  1  0
 37 69  1  0
 37 70  1  0
 38 71  1  0
 38 72  1  0
 39 73  1  0
 39 74  1  0
 40 75  1  0
 40 76  1  0
 41 77  1  0
M  END
> <Uni-Dock RESULT> 
ENERGY=   -4.974  LOWER_BOUND=    2.074  UPPER_BOUND=    3.876
INTER + INTRA:          -4.974
INTER:                  -4.974
INTRA:                   0.000
UNBOUND:                 0.000

$$$$

     RDKit          3D

 77 78  0  0  0  0  0  0  0  0999 V2000
   44.7346   11.2295   10.9103 C   0  0  0  0  0  0  0  0  0  0  0  0
   45.9214   10.9112   11.8262 C   0  0  0  0  0  0  0  0  0  0  0  0
   46.0595    9.4788   12.1036 N   0  0  0  0  0  0  0  0  0  0  0  0
   43.5139   10.7702   11.4825 O   0  0  0  0  0  0  0  0  0  0  0  0
   48.2391    7.6887   13.3606 C   0  0  0  0  0  0  0  0  0  0  0  0
   47.7281    6.3810   13.4224 C   0  0  0  0  0  0  0  0  0  0  0  0
   46.3711    6.1230   13.2169 C   0  0  0  0  0  0  0  0  0  0  0  0
   45.4946    7.1700   12.9307 C   0  0  0  0  0  0  0  0  0  0  0  0
   45.9589    8.4877   12.8305 C   0  0  0  0  0  0  0  0  0  0  0  0
   47.3297    8.7251   13.0745 C   0  0  0  0  0  0  0  0  0  0  0  0
   49.6787    7.9267   13.5880 C   0  0  0  0  0  0  0  0  0  0  0  0
   50.3084    7.4782   14.7630 C   0  0  0  0  0  0  0  0  0  0  0  0
   51.6737    7.6844   14.9766 C   0  0  0  0  0  0  0  0  0  0  0  0
   52.4359    8.3449   14.0153 C   0  0  0  0  0  0  0  0  0  0  0  0
   51.8339    8.8026   12.8383 C   0  0  0  0  0  0  0  0  0  0  0  0
   50.4639    8.5915   12.6294 C   0  0  0  0  0  0  0  0  0  0  0  0
   52.6832    9.5020   11.8448 C   0  0  0  0  0  0  0  0  0  0  0  0
   52.0123    9.8677   10.7381 O   0  0  0  0  0  0  0  0  0  0  0  0
   53.8715    9.7388   11.9657 O   0  0  0  0  0  0  0  0  0  0  0  0
   47.7857   10.0234   13.0535 O   0  0  0  0  0  0  0  0  0  0  0  0
   45.0204    9.5179   12.5745 N   0  0  0  0  0  0  0  0  0  0  0  0
   45.4334   10.7791   12.2703 N   0  0  0  0  0  0  0  0  0  0  0  0
   44.5540   11.5523   11.7108 C   0  0  0  0  0  0  0  0  0  0  0  0
   43.1381   11.2845   11.3029 C   0  0  0  0  0  0  0  0  0  0  0  0
   42.7512   12.5115   10.7745 N   0  0  0  0  0  0  0  0  0  0  0  0
   43.7575   13.4967   10.7973 N   0  0  0  0  0  0  0  0  0  0  0  0
   44.8135   12.9636   11.3347 C   0  0  0  0  0  0  0  0  0  0  0  0
   46.1261   13.6107   11.5667 C   0  0  0  0  0  0  0  0  0  0  0  0
   42.5988   10.2065   11.4487 O   0  0  0  0  0  0  0  0  0  0  0  0
   41.4926   12.8547   10.2185 C   0  0  0  0  0  0  0  0  0  0  0  0
   40.4410   11.9316   10.1388 C   0  0  0  0  0  0  0  0  0  0  0  0
   39.1907   12.2801    9.5886 C   0  0  0  0  0  0  0  0  0  0  0  0
   38.9894   13.5823    9.0948 C   0  0  0  0  0  0  0  0  0  0  0  0
   40.0361   14.5079    9.1769 C   0  0  0  0  0  0  0  0  0  0  0  0
   41.2684   14.1479    9.7291 C   0  0  0  0  0  0  0  0  0  0  0  0
   37.6751   14.0065    8.4992 C   0  0  0  0  0  0  0  0  0  0  0  0
   38.1028   11.2413    9.5205 C   0  0  0  0  0  0  0  0  0  0  0  0
   45.6703    9.6781   11.5529 C   0  0  0  0  0  0  0  0  0  0  0  0
   45.1547   11.1162   11.4437 C   0  0  0  0  0  0  0  0  0  0  0  0
   43.7590   11.1751   11.0220 N   0  0  0  0  0  0  0  0  0  0  0  0
   47.0012    9.6648   12.0616 O   0  0  0  0  0  0  0  0  0  0  0  0
   44.6541   12.3112   10.7640 H   0  0  0  0  0  0  0  0  0  0  0  0
   44.8551   10.7621    9.9273 H   0  0  0  0  0  0  0  0  0  0  0  0
   46.8450   11.2748   11.3656 H   0  0  0  0  0  0  0  0  0  0  0  0
   45.7987   11.4306   12.7827 H   0  0  0  0  0  0  0  0  0  0  0  0
   45.2992    9.1728   12.7081 H   0  0  0  0  0  0  0  0  0  0  0  0
   46.0010    8.9428   11.2399 H   0  0  0  0  0  0  0  0  0  0  0  0
   43.5826    9.8037   11.5507 H   0  0  0  0  0  0  0  0  0  0  0  0
   48.3941    5.5452   13.6298 H   0  0  0  0  0  0  0  0  0  0  0  0
   45.9979    5.1040   13.2799 H   0  0  0  0  0  0  0  0  0  0  0  0
   44.4410    6.9445   12.7842 H   0  0  0  0  0  0  0  0  0  0  0  0
   49.7278    6.9706   15.5316 H   0  0  0  0  0  0  0  0  0  0  0  0
   52.1405    7.3329   15.8938 H   0  0  0  0  0  0  0  0  0  0  0  0
   53.4986    8.5049   14.1867 H   0  0  0  0  0  0  0  0  0  0  0  0
   49.9927    8.9490   11.7153 H   0  0  0  0  0  0  0  0  0  0  0  0
   52.6939   10.3068   10.1893 H   0  0  0  0  0  0  0  0  0  0  0  0
   46.9713   10.5343   12.8566 H   0  0  0  0  0  0  0  0  0  0  0  0
   44.1105    9.1771   12.2353 H   0  0  0  0  0  0  0  0  0  0  0  0
   46.8972   13.0878   10.9954 H   0  0  0  0  0  0  0  0  0  0  0  0
   46.3738   13.5722   12.6308 H   0  0  0  0  0  0  0  0  0  0  0  0
   46.0914   14.6551   11.2446 H   0  0  0  0  0  0  0  0  0  0  0  0
   40.5691   10.9162   10.5040 H   0  0  0  0  0  0  0  0  0  0  0  0
   39.9041   15.5235    8.8092 H   0  0  0  0  0  0  0  0  0  0  0  0
   42.0516   14.9008    9.7701 H   0  0  0  0  0  0  0  0  0  0  0  0
   36.8943   14.0042    9.2661 H   0  0  0  0  0  0  0  0  0  0  0  0
   37.7307   15.0184    8.0832 H   0  0  0  0  0  0  0  0  0  0  0  0
   37.3893   13.3359    7.6832 H   0  0  0  0  0  0  0  0  0  0  0  0
   37.8941   10.9819    8.4781 H   0  0  0  0  0  0  0  0  0  0  0  0
   37.1876   11.6120    9.9931 H   0  0  0  0  0  0  0  0  0  0  0  0
   38.3885   10.3230   10.0441 H   0  0  0  0  0  0  0  0  0  0  0  0
   45.6786    9.1956   10.5704 H   0  0  0  0  0  0  0  0  0  0  0  0
   45.0431    9.0786   12.2218 H   0  0  0  0  0  0  0  0  0  0  0  0
   45.7766   11.6692   10.7313 H   0  0  0  0  0  0  0  0  0  0  0  0
   45.2687   11.6240   12.4082 H   0  0  0  0  0  0  0  0  0  0  0  0
   43.4652   12.1496   10.9628 H   0  0  0  0  0  0  0  0  0  0  0  0
   43.1637   10.7393   11.7255 H   0  0  0  0  0  0  0  0  0  0  0  0
   46.9628    9.9735   12.9826 H   0  0  0  0  0  0  0  0  0  0  0  0
  4  1  1  0
  1  2  1  0
  2  3  1  0
 10 20  1  0
  9 21  1  0
 12 13  2  0
 21 22  1  0
  8  9  2  0
 22 23  2  0
 23 24  1  0
 13 14  1  0
  6  7  2  0
 14 15  2  0
  9 10  1  0
 24 25  1  0
 25 26  1  0
 26 27  2  0
 27 23  1  0
 15 16  1  0
 27 28  1  0
 16 11  2  0
 24 29  2  0
  5 11  1  0
 25 30  1  0
 10  5  2  0
 30 31  2  0
 15 17  1  0
 31 32  1  0
  5  6  1  0
 32 33  2  0
  7  8  1  0
 33 34  1  0
 17 18  1  0
 34 35  2  0
 35 30  1  0
 17 19  2  0
 33 36  1  0
 11 12  1  0
 32 37  1  0
 41 38  1  0
 38 39  1  0
 39 40  1  0
  1 42  1  0
  1 43  1  0
  2 44  1  0
  2 45  1  0
  3 46  1  0
  3 47  1  0
  4 48  1  0
  6 49  1  0
  7 50  1  0
  8 51  1  0
 12 52  1  0
 13 53  1  0
 14 54  1  0
 16 55  1  0
 18 56  1  0
 20 57  1  0
 21 58  1  0
 28 59  1  0
 28 60  1  0
 28 61  1  0
 31 62  1  0
 34 63  1  0
 35 64  1  0
 36 65  1  0
 36 66  1  0
 36 67  1  0
 37 68  1  0
 37 69  1  0
 37 70  1  0
 38 71  1  0
 38 72  1  0
 39 73  1  0
 39 74  1  0
 40 75  1  0
 40 76  1  0
 41 77  1  0
M  END
> <Uni-Dock RESULT> 
ENERGY=   -4.793  LOWER_BOUND=    3.721  UPPER_BOUND=    5.828
INTER + INTRA:          -4.793
INTER:                  -4.793
INTRA:                   0.000
UNBOUND:                 0.000

$$$$

     RDKit          3D

 77 78  0  0  0  0  0  0  0  0999 V2000
   50.2196    8.6174   15.8005 C   0  0  0  0  0  0  0  0  0  0  0  0
   50.1496    8.6777   17.3303 C   0  0  0  0  0  0  0  0  0  0  0  0
   49.0767    9.5487   17.8182 N   0  0  0  0  0  0  0  0  0  0  0  0
   50.4190    9.9156   15.2496 O   0  0  0  0  0  0  0  0  0  0  0  0
   47.7344   10.0533   20.5530 C   0  0  0  0  0  0  0  0  0  0  0  0
   46.8054   11.0939   20.3820 C   0  0  0  0  0  0  0  0  0  0  0  0
   46.8038   11.8815   19.2289 C   0  0  0  0  0  0  0  0  0  0  0  0
   47.7263   11.6357   18.2115 C   0  0  0  0  0  0  0  0  0  0  0  0
   48.6547   10.5926   18.3211 C   0  0  0  0  0  0  0  0  0  0  0  0
   48.6559    9.8320   19.5113 C   0  0  0  0  0  0  0  0  0  0  0  0
   47.7114    9.2430   21.7872 C   0  0  0  0  0  0  0  0  0  0  0  0
   47.7970    9.8512   23.0526 C   0  0  0  0  0  0  0  0  0  0  0  0
   47.7581    9.0920   24.2249 C   0  0  0  0  0  0  0  0  0  0  0  0
   47.6322    7.7063   24.1521 C   0  0  0  0  0  0  0  0  0  0  0  0
   47.5468    7.0760   22.9060 C   0  0  0  0  0  0  0  0  0  0  0  0
   47.5852    7.8435   21.7335 C   0  0  0  0  0  0  0  0  0  0  0  0
   47.4162    5.5997   22.8767 C   0  0  0  0  0  0  0  0  0  0  0  0
   47.3069    5.1020   21.6322 O   0  0  0  0  0  0  0  0  0  0  0  0
   47.3963    4.8677   23.8496 O   0  0  0  0  0  0  0  0  0  0  0  0
   49.6109    8.8531   19.6646 O   0  0  0  0  0  0  0  0  0  0  0  0
   49.5933   10.4099   17.2756 N   0  0  0  0  0  0  0  0  0  0  0  0
   50.3824    9.3012   17.2312 N   0  0  0  0  0  0  0  0  0  0  0  0
   50.9391    9.0377   16.0889 C   0  0  0  0  0  0  0  0  0  0  0  0
   50.8393    9.7396   14.7698 C   0  0  0  0  0  0  0  0  0  0  0  0
   51.6718    8.9676   13.9664 N   0  0  0  0  0  0  0  0  0  0  0  0
   52.2622    7.8720   14.6259 N   0  0  0  0  0  0  0  0  0  0  0  0
   51.8511    7.8907   15.8583 C   0  0  0  0  0  0  0  0  0  0  0  0
   52.1980    6.9331   16.9345 C   0  0  0  0  0  0  0  0  0  0  0  0
   50.1497   10.7232   14.5927 O   0  0  0  0  0  0  0  0  0  0  0  0
   51.9639    9.1563   12.5916 C   0  0  0  0  0  0  0  0  0  0  0  0
   51.4062   10.2089   11.8531 C   0  0  0  0  0  0  0  0  0  0  0  0
   51.7036   10.3936   10.4875 C   0  0  0  0  0  0  0  0  0  0  0  0
   52.5727    9.4962    9.8399 C   0  0  0  0  0  0  0  0  0  0  0  0
   53.1348    8.4465   10.5755 C   0  0  0  0  0  0  0  0  0  0  0  0
   52.8331    8.2796   11.9299 C   0  0  0  0  0  0  0  0  0  0  0  0
   52.9243    9.6482    8.3855 C   0  0  0  0  0  0  0  0  0  0  0  0
   51.0648   11.5370    9.7446 C   0  0  0  0  0  0  0  0  0  0  0  0
   49.0496    9.3232   17.1527 C   0  0  0  0  0  0  0  0  0  0  0  0
   50.3017    8.7679   16.4672 C   0  0  0  0  0  0  0  0  0  0  0  0
   50.4598    9.2720   15.1070 N   0  0  0  0  0  0  0  0  0  0  0  0
   48.9888    8.8847   18.5070 O   0  0  0  0  0  0  0  0  0  0  0  0
   51.0566    7.9850   15.4886 H   0  0  0  0  0  0  0  0  0  0  0  0
   49.3009    8.1977   15.3772 H   0  0  0  0  0  0  0  0  0  0  0  0
   49.9978    7.6697   17.7282 H   0  0  0  0  0  0  0  0  0  0  0  0
   51.0981    9.0541   17.7283 H   0  0  0  0  0  0  0  0  0  0  0  0
   49.3118   10.5209   17.6264 H   0  0  0  0  0  0  0  0  0  0  0  0
   48.2044    9.3418   17.3355 H   0  0  0  0  0  0  0  0  0  0  0  0
   49.6397   10.4440   15.4884 H   0  0  0  0  0  0  0  0  0  0  0  0
   46.0660   11.2963   21.1550 H   0  0  0  0  0  0  0  0  0  0  0  0
   46.0817   12.6873   19.1242 H   0  0  0  0  0  0  0  0  0  0  0  0
   47.7109   12.2689   17.3277 H   0  0  0  0  0  0  0  0  0  0  0  0
   47.9078   10.9315   23.1304 H   0  0  0  0  0  0  0  0  0  0  0  0
   47.8294    9.5818   25.1933 H   0  0  0  0  0  0  0  0  0  0  0  0
   47.6041    7.1189   25.0677 H   0  0  0  0  0  0  0  0  0  0  0  0
   47.5213    7.3549   20.7626 H   0  0  0  0  0  0  0  0  0  0  0  0
   47.2288    4.1367   21.7755 H   0  0  0  0  0  0  0  0  0  0  0  0
   50.1220    8.9184   18.8294 H   0  0  0  0  0  0  0  0  0  0  0  0
   49.3503   10.9053   16.4068 H   0  0  0  0  0  0  0  0  0  0  0  0
   51.2929    6.4260   17.2781 H   0  0  0  0  0  0  0  0  0  0  0  0
   52.6545    7.4679   17.7716 H   0  0  0  0  0  0  0  0  0  0  0  0
   52.9034    6.1866   16.5591 H   0  0  0  0  0  0  0  0  0  0  0  0
   50.7251   10.9130   12.3236 H   0  0  0  0  0  0  0  0  0  0  0  0
   53.8157    7.7431   10.1005 H   0  0  0  0  0  0  0  0  0  0  0  0
   53.2931    7.4487   12.4592 H   0  0  0  0  0  0  0  0  0  0  0  0
   53.4982   10.5669    8.2294 H   0  0  0  0  0  0  0  0  0  0  0  0
   53.5335    8.8101    8.0299 H   0  0  0  0  0  0  0  0  0  0  0  0
   52.0184    9.6735    7.7723 H   0  0  0  0  0  0  0  0  0  0  0  0
   50.3643   11.1552    8.9955 H   0  0  0  0  0  0  0  0  0  0  0  0
   51.8272   12.1482    9.2512 H   0  0  0  0  0  0  0  0  0  0  0  0
   50.5084   12.1958   10.4194 H   0  0  0  0  0  0  0  0  0  0  0  0
   48.1449    8.9760   16.6435 H   0  0  0  0  0  0  0  0  0  0  0  0
   49.0442   10.4187   17.1479 H   0  0  0  0  0  0  0  0  0  0  0  0
   50.2475    7.6739   16.4487 H   0  0  0  0  0  0  0  0  0  0  0  0
   51.1894    9.0206   17.0582 H   0  0  0  0  0  0  0  0  0  0  0  0
   51.3029    8.8733   14.6952 H   0  0  0  0  0  0  0  0  0  0  0  0
   50.5999   10.2816   15.1237 H   0  0  0  0  0  0  0  0  0  0  0  0
   49.7254    9.3057   18.9815 H   0  0  0  0  0  0  0  0  0  0  0  0
  4  1  1  0
  1  2  1  0
  2  3  1  0
 10 20  1  0
  9 21  1  0
 12 13  2  0
 21 22  1  0
  8  9  2  0
 22 23  2  0
 23 24  1  0
 13 14  1  0
  6  7  2  0
 14 15  2  0
  9 10  1  0
 24 25  1  0
 25 26  1  0
 26 27  2  0
 27 23  1  0
 15 16  1  0
 27 28  1  0
 16 11  2  0
 24 29  2  0
  5 11  1  0
 25 30  1  0
 10  5  2  0
 30 31  2  0
 15 17  1  0
 31 32  1  0
  5  6  1  0
 32 33  2  0
  7  8  1  0
 33 34  1  0
 17 18  1  0
 34 35  2  0
 35 30  1  0
 17 19  2  0
 33 36  1  0
 11 12  1  0
 32 37  1  0
 41 38  1  0
 38 39  1  0
 39 40  1  0
  1 42  1  0
  1 43  1  0
  2 44  1  0
  2 45  1  0
  3 46  1  0
  3 47  1  0
  4 48  1  0
  6 49  1  0
  7 50  1  0
  8 51  1  0
 12 52  1  0
 13 53  1  0
 14 54  1  0
 16 55  1  0
 18 56  1  0
 20 57  1  0
 21 58  1  0
 28 59  1  0
 28 60  1  0
 28 61  1  0
 31 62  1  0
 34 63  1  0
 35 64  1  0
 36 65  1  0
 36 66  1  0
 36 67  1  0
 37 68  1  0
 37 69  1  0
 37 70  1  0
 38 71  1  0
 38 72  1  0
 39 73  1  0
 39 74  1  0
 40 75  1  0
 40 76  1  0
 41 77  1  0
M  END
> <Uni-Dock RESULT> 
ENERGY=   -4.793  LOWER_BOUND=    4.708  UPPER_BOUND=    6.544
INTER + INTRA:          -4.793
INTER:                  -4.793
INTRA:                   0.000
UNBOUND:                 0.000

$$$$

     RDKit          3D

 77 78  0  0  0  0  0  0  0  0999 V2000
   48.2049   10.0409   13.3041 C   0  0  0  0  0  0  0  0  0  0  0  0
   48.7110    9.1098   14.4111 C   0  0  0  0  0  0  0  0  0  0  0  0
   48.2264    9.4892   15.7411 N   0  0  0  0  0  0  0  0  0  0  0  0
   48.6007   11.3864   13.5516 O   0  0  0  0  0  0  0  0  0  0  0  0
   48.1926    8.1550   18.5258 C   0  0  0  0  0  0  0  0  0  0  0  0
   47.6527    9.0832   19.4325 C   0  0  0  0  0  0  0  0  0  0  0  0
   47.4921   10.4262   19.0849 C   0  0  0  0  0  0  0  0  0  0  0  0
   47.8567   10.8690   17.8132 C   0  0  0  0  0  0  0  0  0  0  0  0
   48.3732    9.9781   16.8637 C   0  0  0  0  0  0  0  0  0  0  0  0
   48.5555    8.6322   17.2516 C   0  0  0  0  0  0  0  0  0  0  0  0
   48.3534    6.7432   18.9277 C   0  0  0  0  0  0  0  0  0  0  0  0
   49.0778    6.3990   20.0833 C   0  0  0  0  0  0  0  0  0  0  0  0
   49.2189    5.0664   20.4790 C   0  0  0  0  0  0  0  0  0  0  0  0
   48.6359    4.0512   19.7236 C   0  0  0  0  0  0  0  0  0  0  0  0
   47.9115    4.3661   18.5689 C   0  0  0  0  0  0  0  0  0  0  0  0
   47.7725    5.7052   18.1778 C   0  0  0  0  0  0  0  0  0  0  0  0
   47.3107    3.2536   17.7952 C   0  0  0  0  0  0  0  0  0  0  0  0
   46.6087    3.6699   16.7264 O   0  0  0  0  0  0  0  0  0  0  0  0
   47.4059    2.0691   18.0613 O   0  0  0  0  0  0  0  0  0  0  0  0
   49.1317    7.7621   16.3545 O   0  0  0  0  0  0  0  0  0  0  0  0
   48.7623   10.4871   15.5999 N   0  0  0  0  0  0  0  0  0  0  0  0
   49.0804    9.6473   14.5765 N   0  0  0  0  0  0  0  0  0  0  0  0
   49.0742   10.1641   13.3862 C   0  0  0  0  0  0  0  0  0  0  0  0
   48.7404   11.5495   12.9257 C   0  0  0  0  0  0  0  0  0  0  0  0
   48.9332   11.4531   11.5516 N   0  0  0  0  0  0  0  0  0  0  0  0
   49.3337   10.1771   11.1097 N   0  0  0  0  0  0  0  0  0  0  0  0
   49.4209    9.4114   12.1558 C   0  0  0  0  0  0  0  0  0  0  0  0
   49.8018    7.9799   12.1908 C   0  0  0  0  0  0  0  0  0  0  0  0
   48.3897   12.4329   13.6813 O   0  0  0  0  0  0  0  0  0  0  0  0
   48.7575   12.4716   10.5808 C   0  0  0  0  0  0  0  0  0  0  0  0
   48.3434   13.7645   10.9294 C   0  0  0  0  0  0  0  0  0  0  0  0
   48.1744   14.7740    9.9600 C   0  0  0  0  0  0  0  0  0  0  0  0
   48.4147   14.4807    8.6049 C   0  0  0  0  0  0  0  0  0  0  0  0
   48.8324   13.1918    8.2537 C   0  0  0  0  0  0  0  0  0  0  0  0
   48.9994   12.2033    9.2274 C   0  0  0  0  0  0  0  0  0  0  0  0
   48.2508   15.5208    7.5309 C   0  0  0  0  0  0  0  0  0  0  0  0
   47.7171   16.1410   10.3950 C   0  0  0  0  0  0  0  0  0  0  0  0
   47.8916    9.7424   15.1771 C   0  0  0  0  0  0  0  0  0  0  0  0
   48.5641    9.7281   13.8010 C   0  0  0  0  0  0  0  0  0  0  0  0
   48.3779   10.9825   13.0790 N   0  0  0  0  0  0  0  0  0  0  0  0
   48.1822    8.5402   15.8845 O   0  0  0  0  0  0  0  0  0  0  0  0
   48.6227    9.7371   12.3392 H   0  0  0  0  0  0  0  0  0  0  0  0
   47.1130   10.0086   13.2263 H   0  0  0  0  0  0  0  0  0  0  0  0
   48.3956    8.0840   14.1971 H   0  0  0  0  0  0  0  0  0  0  0  0
   49.8060    9.1244   14.4332 H   0  0  0  0  0  0  0  0  0  0  0  0
   48.6770   10.3538   16.0354 H   0  0  0  0  0  0  0  0  0  0  0  0
   47.2225    9.6574   15.7185 H   0  0  0  0  0  0  0  0  0  0  0  0
   48.1737   11.6559   14.3815 H   0  0  0  0  0  0  0  0  0  0  0  0
   47.3470    8.7596   20.4260 H   0  0  0  0  0  0  0  0  0  0  0  0
   47.0816   11.1272   19.8072 H   0  0  0  0  0  0  0  0  0  0  0  0
   47.7308   11.9213   17.5700 H   0  0  0  0  0  0  0  0  0  0  0  0
   49.5510    7.1767   20.6805 H   0  0  0  0  0  0  0  0  0  0  0  0
   49.7862    4.8215   21.3740 H   0  0  0  0  0  0  0  0  0  0  0  0
   48.7500    3.0146   20.0347 H   0  0  0  0  0  0  0  0  0  0  0  0
   47.2112    5.9525   17.2782 H   0  0  0  0  0  0  0  0  0  0  0  0
   46.2804    2.8383   16.3275 H   0  0  0  0  0  0  0  0  0  0  0  0
   49.3014    8.3360   15.5767 H   0  0  0  0  0  0  0  0  0  0  0  0
   48.3978   11.4286   15.4003 H   0  0  0  0  0  0  0  0  0  0  0  0
   48.9684    7.3895   12.5796 H   0  0  0  0  0  0  0  0  0  0  0  0
   50.6741    7.8455   12.8360 H   0  0  0  0  0  0  0  0  0  0  0  0
   50.0448    7.6319   11.1830 H   0  0  0  0  0  0  0  0  0  0  0  0
   48.1421   14.0186   11.9667 H   0  0  0  0  0  0  0  0  0  0  0  0
   49.0322   12.9412    7.2138 H   0  0  0  0  0  0  0  0  0  0  0  0
   49.3243   11.2168    8.9062 H   0  0  0  0  0  0  0  0  0  0  0  0
   48.9939   16.3144    7.6567 H   0  0  0  0  0  0  0  0  0  0  0  0
   48.3870   15.0918    6.5322 H   0  0  0  0  0  0  0  0  0  0  0  0
   47.2455   15.9516    7.5641 H   0  0  0  0  0  0  0  0  0  0  0  0
   46.7119   16.3418   10.0118 H   0  0  0  0  0  0  0  0  0  0  0  0
   48.4054   16.9103   10.0306 H   0  0  0  0  0  0  0  0  0  0  0  0
   47.6837   16.2270   11.4861 H   0  0  0  0  0  0  0  0  0  0  0  0
   46.8045    9.8204   15.0743 H   0  0  0  0  0  0  0  0  0  0  0  0
   48.2382   10.5871   15.7824 H   0  0  0  0  0  0  0  0  0  0  0  0
   48.1574    8.9007   13.2094 H   0  0  0  0  0  0  0  0  0  0  0  0
   49.6351    9.5255   13.9152 H   0  0  0  0  0  0  0  0  0  0  0  0
   48.8406   10.9220   12.1726 H   0  0  0  0  0  0  0  0  0  0  0  0
   48.8321   11.7444   13.5814 H   0  0  0  0  0  0  0  0  0  0  0  0
   49.1333    8.5445   16.0854 H   0  0  0  0  0  0  0  0  0  0  0  0
  4  1  1  0
  1  2  1  0
  2  3  1  0
 10 20  1  0
  9 21  1  0
 12 13  2  0
 21 22  1  0
  8  9  2  0
 22 23  2  0
 23 24  1  0
 13 14  1  0
  6  7  2  0
 14 15  2  0
  9 10  1  0
 24 25  1  0
 25 26  1  0
 26 27  2  0
 27 23  1  0
 15 16  1  0
 27 28  1  0
 16 11  2  0
 24 29  2  0
  5 11  1  0
 25 30  1  0
 10  5  2  0
 30 31  2  0
 15 17  1  0
 31 32  1  0
  5  6  1  0
 32 33  2  0
  7  8  1  0
 33 34  1  0
 17 18  1  0
 34 35  2  0
 35 30  1  0
 17 19  2  0
 33 36  1  0
 11 12  1  0
 32 37  1  0
 41 38  1  0
 38 39  1  0
 39 40  1  0
  1 42  1  0
  1 43  1  0
  2 44  1  0
  2 45  1  0
  3 46  1  0
  3 47  1  0
  4 48  1  0
  6 49  1  0
  7 50  1  0
  8 51  1  0
 12 52  1  0
 13 53  1  0
 14 54  1  0
 16 55  1  0
 18 56  1  0
 20 57  1  0
 21 58  1  0
 28 59  1  0
 28 60  1  0
 28 61  1  0
 31 62  1  0
 34 63  1  0
 35 64  1  0
 36 65  1  0
 36 66  1  0
 36 67  1  0
 37 68  1  0
 37 69  1  0
 37 70  1  0
 38 71  1  0
 38 72  1  0
 39 73  1  0
 39 74  1  0
 40 75  1  0
 40 76  1  0
 41 77  1  0
M  END
> <Uni-Dock RESULT> 
ENERGY=   -4.679  LOWER_BOUND=    3.519  UPPER_BOUND=    4.778
INTER + INTRA:          -4.679
INTER:                  -4.679
INTRA:                   0.000
UNBOUND:                 0.000

$$$$

     RDKit          3D

 77 78  0  0  0  0  0  0  0  0999 V2000
   49.1099    9.4657   17.6856 C   0  0  0  0  0  0  0  0  0  0  0  0
   48.9418   10.1632   16.3314 C   0  0  0  0  0  0  0  0  0  0  0  0
   49.0273   11.6231   16.4273 N   0  0  0  0  0  0  0  0  0  0  0  0
   48.1206    9.9067   18.6104 O   0  0  0  0  0  0  0  0  0  0  0  0
   49.3026   13.9413   14.4061 C   0  0  0  0  0  0  0  0  0  0  0  0
   49.2432   15.1436   15.1314 C   0  0  0  0  0  0  0  0  0  0  0  0
   48.8226   15.1664   16.4629 C   0  0  0  0  0  0  0  0  0  0  0  0
   48.4640   13.9806   17.1045 C   0  0  0  0  0  0  0  0  0  0  0  0
   48.5325   12.7527   16.4342 C   0  0  0  0  0  0  0  0  0  0  0  0
   48.9301   12.7616   15.0788 C   0  0  0  0  0  0  0  0  0  0  0  0
   49.7470   13.9537   12.9979 C   0  0  0  0  0  0  0  0  0  0  0  0
   49.1148   14.7761   12.0479 C   0  0  0  0  0  0  0  0  0  0  0  0
   49.5416   14.8059   10.7179 C   0  0  0  0  0  0  0  0  0  0  0  0
   50.6121   14.0113   10.3131 C   0  0  0  0  0  0  0  0  0  0  0  0
   51.2575   13.1830   11.2376 C   0  0  0  0  0  0  0  0  0  0  0  0
   50.8253   13.1585   12.5709 C   0  0  0  0  0  0  0  0  0  0  0  0
   52.3900   12.3533   10.7617 C   0  0  0  0  0  0  0  0  0  0  0  0
   52.9589   11.6233   11.7375 O   0  0  0  0  0  0  0  0  0  0  0  0
   52.8071   12.3070    9.6186 O   0  0  0  0  0  0  0  0  0  0  0  0
   48.9299   11.5724   14.3861 O   0  0  0  0  0  0  0  0  0  0  0  0
   48.1213   11.5834   17.1207 N   0  0  0  0  0  0  0  0  0  0  0  0
   48.3515   10.3482   16.5962 N   0  0  0  0  0  0  0  0  0  0  0  0
   48.2763    9.3502   17.4223 C   0  0  0  0  0  0  0  0  0  0  0  0
   48.0039    9.3206   18.8946 C   0  0  0  0  0  0  0  0  0  0  0  0
   48.0537    7.9585   19.1718 N   0  0  0  0  0  0  0  0  0  0  0  0
   48.3337    7.1485   18.0541 N   0  0  0  0  0  0  0  0  0  0  0  0
   48.4684    7.9332   17.0274 C   0  0  0  0  0  0  0  0  0  0  0  0
   48.7746    7.5404   15.6318 C   0  0  0  0  0  0  0  0  0  0  0  0
   47.8172   10.3226   19.5545 O   0  0  0  0  0  0  0  0  0  0  0  0
   47.8732    7.3251   20.4276 C   0  0  0  0  0  0  0  0  0  0  0  0
   47.6096    8.0549   21.5948 C   0  0  0  0  0  0  0  0  0  0  0  0
   47.4271    7.4190   22.8397 C   0  0  0  0  0  0  0  0  0  0  0  0
   47.5215    6.0175   22.9225 C   0  0  0  0  0  0  0  0  0  0  0  0
   47.7803    5.2853   21.7581 C   0  0  0  0  0  0  0  0  0  0  0  0
   47.9546    5.9305   20.5307 C   0  0  0  0  0  0  0  0  0  0  0  0
   47.3340    5.2891   24.2250 C   0  0  0  0  0  0  0  0  0  0  0  0
   47.1571    8.2580   24.0606 C   0  0  0  0  0  0  0  0  0  0  0  0
   49.2809   11.2364   16.9571 C   0  0  0  0  0  0  0  0  0  0  0  0
   48.8703    9.7694   17.1162 C   0  0  0  0  0  0  0  0  0  0  0  0
   48.5605    9.4266   18.5003 N   0  0  0  0  0  0  0  0  0  0  0  0
   49.4768   11.5510   15.5813 O   0  0  0  0  0  0  0  0  0  0  0  0
   49.0022    8.3832   17.5652 H   0  0  0  0  0  0  0  0  0  0  0  0
   50.0983    9.6629   18.1139 H   0  0  0  0  0  0  0  0  0  0  0  0
   49.7113    9.8067   15.6398 H   0  0  0  0  0  0  0  0  0  0  0  0
   47.9657    9.9089   15.9043 H   0  0  0  0  0  0  0  0  0  0  0  0
   48.2010   11.9835   16.9011 H   0  0  0  0  0  0  0  0  0  0  0  0
   49.8403   11.8957   16.9762 H   0  0  0  0  0  0  0  0  0  0  0  0
   48.2691   10.8568   18.7478 H   0  0  0  0  0  0  0  0  0  0  0  0
   49.5317   16.0803   14.6576 H   0  0  0  0  0  0  0  0  0  0  0  0
   48.7754   16.1103   16.9999 H   0  0  0  0  0  0  0  0  0  0  0  0
   48.1308   14.0259   18.1386 H   0  0  0  0  0  0  0  0  0  0  0  0
   48.2689   15.3954   12.3416 H   0  0  0  0  0  0  0  0  0  0  0  0
   49.0366   15.4462    9.9983 H   0  0  0  0  0  0  0  0  0  0  0  0
   50.9400   14.0364    9.2757 H   0  0  0  0  0  0  0  0  0  0  0  0
   51.3245   12.5129   13.2916 H   0  0  0  0  0  0  0  0  0  0  0  0
   53.6757   11.1410   11.2771 H   0  0  0  0  0  0  0  0  0  0  0  0
   48.6206   10.9304   15.0609 H   0  0  0  0  0  0  0  0  0  0  0  0
   48.0432   11.7048   18.1396 H   0  0  0  0  0  0  0  0  0  0  0  0
   49.7272    7.9820   15.3287 H   0  0  0  0  0  0  0  0  0  0  0  0
   47.9825    7.8939   14.9664 H   0  0  0  0  0  0  0  0  0  0  0  0
   48.8468    6.4519   15.5560 H   0  0  0  0  0  0  0  0  0  0  0  0
   47.5393    9.1389   21.5639 H   0  0  0  0  0  0  0  0  0  0  0  0
   47.8508    4.2000   21.7935 H   0  0  0  0  0  0  0  0  0  0  0  0
   48.1550    5.3196   19.6540 H   0  0  0  0  0  0  0  0  0  0  0  0
   46.3032    5.4006   24.5755 H   0  0  0  0  0  0  0  0  0  0  0  0
   47.5359    4.2177   24.1186 H   0  0  0  0  0  0  0  0  0  0  0  0
   48.0225    5.6749   24.9829 H   0  0  0  0  0  0  0  0  0  0  0  0
   48.0029    8.1996   24.7525 H   0  0  0  0  0  0  0  0  0  0  0  0
   46.2486    7.9173   24.5675 H   0  0  0  0  0  0  0  0  0  0  0  0
   47.0076    9.3112   23.8013 H   0  0  0  0  0  0  0  0  0  0  0  0
   50.2184   11.4342   17.4865 H   0  0  0  0  0  0  0  0  0  0  0  0
   48.5153   11.9110   17.3559 H   0  0  0  0  0  0  0  0  0  0  0  0
   49.6793    9.1269   16.7517 H   0  0  0  0  0  0  0  0  0  0  0  0
   48.0018    9.5578   16.4822 H   0  0  0  0  0  0  0  0  0  0  0  0
   48.2958    8.4435   18.5534 H   0  0  0  0  0  0  0  0  0  0  0  0
   47.7506    9.9581   18.8181 H   0  0  0  0  0  0  0  0  0  0  0  0
   48.6095   11.4989   15.1454 H   0  0  0  0  0  0  0  0  0  0  0  0
  4  1  1  0
  1  2  1  0
  2  3  1  0
 10 20  1  0
  9 21  1  0
 12 13  2  0
 21 22  1  0
  8  9  2  0
 22 23  2  0
 23 24  1  0
 13 14  1  0
  6  7  2  0
 14 15  2  0
  9 10  1  0
 24 25  1  0
 25 26  1  0
 26 27  2  0
 27 23  1  0
 15 16  1  0
 27 28  1  0
 16 11  2  0
 24 29  2  0
  5 11  1  0
 25 30  1  0
 10  5  2  0
 30 31  2  0
 15 17  1  0
 31 32  1  0
  5  6  1  0
 32 33  2  0
  7  8  1  0
 33 34  1  0
 17 18  1  0
 34 35  2  0
 35 30  1  0
 17 19  2  0
 33 36  1  0
 11 12  1  0
 32 37  1  0
 41 38  1  0
 38 39  1  0
 39 40  1  0
  1 42  1  0
  1 43  1  0
  2 44  1  0
  2 45  1  0
  3 46  1  0
  3 47  1  0
  4 48  1  0
  6 49  1  0
  7 50  1  0
  8 51  1  0
 12 52  1  0
 13 53  1  0
 14 54  1  0
 16 55  1  0
 18 56  1  0
 20 57  1  0
 21 58  1  0
 28 59  1  0
 28 60  1  0
 28 61  1  0
 31 62  1  0
 34 63  1  0
 35 64  1  0
 36 65  1  0
 36 66  1  0
 36 67  1  0
 37 68  1  0
 37 69  1  0
 37 70  1  0
 38 71  1  0
 38 72  1  0
 39 73  1  0
 39 74  1  0
 40 75  1  0
 40 76  1  0
 41 77  1  0
M  END
> <Uni-Dock RESULT> 
ENERGY=   -4.626  LOWER_BOUND=    4.719  UPPER_BOUND=    9.268
INTER + INTRA:          -4.626
INTER:                  -4.626
INTRA:                   0.000
UNBOUND:                 0.000

$$$$

     RDKit          3D

 77 78  0  0  0  0  0  0  0  0999 V2000
   48.1778    8.6323   14.7853 C   0  0  0  0  0  0  0  0  0  0  0  0
   47.5881    9.2962   13.5362 C   0  0  0  0  0  0  0  0  0  0  0  0
   46.3634    8.6421   13.0671 N   0  0  0  0  0  0  0  0  0  0  0  0
   48.4750    7.2613   14.5396 O   0  0  0  0  0  0  0  0  0  0  0  0
   44.1432    9.3408   11.0378 C   0  0  0  0  0  0  0  0  0  0  0  0
   43.2676    8.2433   10.9750 C   0  0  0  0  0  0  0  0  0  0  0  0
   43.6115    7.0094   11.5310 C   0  0  0  0  0  0  0  0  0  0  0  0
   44.8379    6.8494   12.1765 C   0  0  0  0  0  0  0  0  0  0  0  0
   45.7340    7.9199   12.2905 C   0  0  0  0  0  0  0  0  0  0  0  0
   45.3755    9.1478   11.6914 C   0  0  0  0  0  0  0  0  0  0  0  0
   43.7501   10.6302   10.4348 C   0  0  0  0  0  0  0  0  0  0  0  0
   43.3637   10.7084    9.0846 C   0  0  0  0  0  0  0  0  0  0  0  0
   42.9736   11.9220    8.5125 C   0  0  0  0  0  0  0  0  0  0  0  0
   42.9627   13.0826    9.2833 C   0  0  0  0  0  0  0  0  0  0  0  0
   43.3440   13.0327   10.6285 C   0  0  0  0  0  0  0  0  0  0  0  0
   43.7332   11.8118   11.1970 C   0  0  0  0  0  0  0  0  0  0  0  0
   43.3193   14.2924   11.4094 C   0  0  0  0  0  0  0  0  0  0  0  0
   43.6698   14.1247   12.6969 O   0  0  0  0  0  0  0  0  0  0  0  0
   43.0133   15.3899   10.9798 O   0  0  0  0  0  0  0  0  0  0  0  0
   46.2779   10.1861   11.7302 O   0  0  0  0  0  0  0  0  0  0  0  0
   46.9815    7.6933   12.9230 N   0  0  0  0  0  0  0  0  0  0  0  0
   47.8031    8.7319   13.2392 N   0  0  0  0  0  0  0  0  0  0  0  0
   48.7299    8.4857   14.1136 C   0  0  0  0  0  0  0  0  0  0  0  0
   49.0432    7.2365   14.8779 C   0  0  0  0  0  0  0  0  0  0  0  0
   50.1438    7.6268   15.6335 N   0  0  0  0  0  0  0  0  0  0  0  0
   50.5387    8.9642   15.4361 N   0  0  0  0  0  0  0  0  0  0  0  0
   49.7325    9.4839   14.5596 C   0  0  0  0  0  0  0  0  0  0  0  0
   49.7490   10.8700   14.0361 C   0  0  0  0  0  0  0  0  0  0  0  0
   48.3977    6.2138   14.7699 O   0  0  0  0  0  0  0  0  0  0  0  0
   50.8743    6.8448   16.5640 C   0  0  0  0  0  0  0  0  0  0  0  0
   50.5394    5.5112   16.8358 C   0  0  0  0  0  0  0  0  0  0  0  0
   51.2721    4.7377   17.7590 C   0  0  0  0  0  0  0  0  0  0  0  0
   52.3615    5.3155   18.4369 C   0  0  0  0  0  0  0  0  0  0  0  0
   52.7013    6.6458   18.1646 C   0  0  0  0  0  0  0  0  0  0  0  0
   51.9674    7.3978   17.2433 C   0  0  0  0  0  0  0  0  0  0  0  0
   53.1772    4.5348   19.4304 C   0  0  0  0  0  0  0  0  0  0  0  0
   50.8573    3.3134   18.0167 C   0  0  0  0  0  0  0  0  0  0  0  0
   46.5777    8.5205   13.7257 C   0  0  0  0  0  0  0  0  0  0  0  0
   48.0190    8.8263   14.1442 C   0  0  0  0  0  0  0  0  0  0  0  0
   48.6001    7.7603   14.9537 N   0  0  0  0  0  0  0  0  0  0  0  0
   46.0861    9.5378   12.8575 O   0  0  0  0  0  0  0  0  0  0  0  0
   49.1071    9.1341   15.0726 H   0  0  0  0  0  0  0  0  0  0  0  0
   47.4847    8.6914   15.6311 H   0  0  0  0  0  0  0  0  0  0  0  0
   47.3703   10.3470   13.7503 H   0  0  0  0  0  0  0  0  0  0  0  0
   48.3204    9.2664   12.7223 H   0  0  0  0  0  0  0  0  0  0  0  0
   46.5913    7.7299   12.6759 H   0  0  0  0  0  0  0  0  0  0  0  0
   45.7213    8.4926   13.8431 H   0  0  0  0  0  0  0  0  0  0  0  0
   47.6309    6.8224   14.3432 H   0  0  0  0  0  0  0  0  0  0  0  0
   42.2987    8.3468   10.4895 H   0  0  0  0  0  0  0  0  0  0  0  0
   42.9214    6.1724   11.4608 H   0  0  0  0  0  0  0  0  0  0  0  0
   45.0865    5.8762   12.5929 H   0  0  0  0  0  0  0  0  0  0  0  0
   43.3769    9.8151    8.4624 H   0  0  0  0  0  0  0  0  0  0  0  0
   42.6819   11.9614    7.4655 H   0  0  0  0  0  0  0  0  0  0  0  0
   42.6599   14.0258    8.8330 H   0  0  0  0  0  0  0  0  0  0  0  0
   44.0326   11.7710   12.2430 H   0  0  0  0  0  0  0  0  0  0  0  0
   43.6052   15.0262   13.0732 H   0  0  0  0  0  0  0  0  0  0  0  0
   47.0378    9.7929   12.2109 H   0  0  0  0  0  0  0  0  0  0  0  0
   47.0195    6.8211   13.4680 H   0  0  0  0  0  0  0  0  0  0  0  0
   48.8129   11.3701   14.2968 H   0  0  0  0  0  0  0  0  0  0  0  0
   49.8608   10.8527   12.9487 H   0  0  0  0  0  0  0  0  0  0  0  0
   50.5832   11.4259   14.4730 H   0  0  0  0  0  0  0  0  0  0  0  0
   49.6983    5.0402   16.3342 H   0  0  0  0  0  0  0  0  0  0  0  0
   53.5438    7.1140   18.6695 H   0  0  0  0  0  0  0  0  0  0  0  0
   52.2685    8.4274   17.0659 H   0  0  0  0  0  0  0  0  0  0  0  0
   53.7142    3.7256   18.9258 H   0  0  0  0  0  0  0  0  0  0  0  0
   53.9198    5.1689   19.9269 H   0  0  0  0  0  0  0  0  0  0  0  0
   52.5342    4.1170   20.2109 H   0  0  0  0  0  0  0  0  0  0  0  0
   50.4775    3.2104   19.0378 H   0  0  0  0  0  0  0  0  0  0  0  0
   51.7042    2.6348   17.8737 H   0  0  0  0  0  0  0  0  0  0  0  0
   50.0663    2.9932   17.3305 H   0  0  0  0  0  0  0  0  0  0  0  0
   45.9226    8.4773   14.6016 H   0  0  0  0  0  0  0  0  0  0  0  0
   46.5091    7.5613   13.2011 H   0  0  0  0  0  0  0  0  0  0  0  0
   48.0396    9.7663   14.7064 H   0  0  0  0  0  0  0  0  0  0  0  0
   48.6361    8.9888   13.2531 H   0  0  0  0  0  0  0  0  0  0  0  0
   49.5552    8.0114   15.2071 H   0  0  0  0  0  0  0  0  0  0  0  0
   48.6659    6.9031   14.4058 H   0  0  0  0  0  0  0  0  0  0  0  0
   46.5908    9.4806   12.0287 H   0  0  0  0  0  0  0  0  0  0  0  0
  4  1  1  0
  1  2  1  0
  2  3  1  0
 10 20  1  0
  9 21  1  0
 12 13  2  0
 21 22  1  0
  8  9  2  0
 22 23  2  0
 23 24  1  0
 13 14  1  0
  6  7  2  0
 14 15  2  0
  9 10  1  0
 24 25  1  0
 25 26  1  0
 26 27  2  0
 27 23  1  0
 15 16  1  0
 27 28  1  0
 16 11  2  0
 24 29  2  0
  5 11  1  0
 25 30  1  0
 10  5  2  0
 30 31  2  0
 15 17  1  0
 31 32  1  0
  5  6  1  0
 32 33  2  0
  7  8  1  0
 33 34  1  0
 17 18  1  0
 34 35  2  0
 35 30  1  0
 17 19  2  0
 33 36  1  0
 11 12  1  0
 32 37  1  0
 41 38  1  0
 38 39  1  0
 39 40  1  0
  1 42  1  0
  1 43  1  0
  2 44  1  0
  2 45  1  0
  3 46  1  0
  3 47  1  0
  4 48  1  0
  6 49  1  0
  7 50  1  0
  8 51  1  0
 12 52  1  0
 13 53  1  0
 14 54  1  0
 16 55  1  0
 18 56  1  0
 20 57  1  0
 21 58  1  0
 28 59  1  0
 28 60  1  0
 28 61  1  0
 31 62  1  0
 34 63  1  0
 35 64  1  0
 36 65  1  0
 36 66  1  0
 36 67  1  0
 37 68  1  0
 37 69  1  0
 37 70  1  0
 38 71  1  0
 38 72  1  0
 39 73  1  0
 39 74  1  0
 40 75  1  0
 40 76  1  0
 41 77  1  0
M  END
> <Uni-Dock RESULT> 
ENERGY=   -4.617  LOWER_BOUND=    2.312  UPPER_BOUND=    9.723
INTER + INTRA:          -4.617
INTER:                  -4.617
INTRA:                   0.000
UNBOUND:                 0.000

$$$$
