
     RDKit          3D

 77 78  0  0  0  0  0  0  0  0999 V2000
   42.5898   10.1520   10.2768 C   0  0  0  0  0  0  0  0  0  0  0  0
   42.6627   11.4331   11.1154 C   0  0  0  0  0  0  0  0  0  0  0  0
   41.6698   12.4312   10.7292 N   0  0  0  0  0  0  0  0  0  0  0  0
   43.6024    9.2352   10.6696 O   0  0  0  0  0  0  0  0  0  0  0  0
   39.3807   13.7339    9.5120 C   0  0  0  0  0  0  0  0  0  0  0  0
   38.1341   13.0851    9.4753 C   0  0  0  0  0  0  0  0  0  0  0  0
   38.0231   11.7136    9.7080 C   0  0  0  0  0  0  0  0  0  0  0  0
   39.1586   10.9581    9.9981 C   0  0  0  0  0  0  0  0  0  0  0  0
   40.4212   11.5603   10.0723 C   0  0  0  0  0  0  0  0  0  0  0  0
   40.5096   12.9458    9.8113 C   0  0  0  0  0  0  0  0  0  0  0  0
   39.4627   15.1804    9.2239 C   0  0  0  0  0  0  0  0  0  0  0  0
   40.0797   16.0736   10.1162 C   0  0  0  0  0  0  0  0  0  0  0  0
   40.1377   17.4444    9.8476 C   0  0  0  0  0  0  0  0  0  0  0  0
   39.5733   17.9504    8.6766 C   0  0  0  0  0  0  0  0  0  0  0  0
   38.9567   17.0832    7.7702 C   0  0  0  0  0  0  0  0  0  0  0  0
   38.9046   15.7096    8.0469 C   0  0  0  0  0  0  0  0  0  0  0  0
   38.3340   17.5660    6.5141 C   0  0  0  0  0  0  0  0  0  0  0  0
   38.5359   18.8790    6.2977 O   0  0  0  0  0  0  0  0  0  0  0  0
   37.6981   16.8867    5.7281 O   0  0  0  0  0  0  0  0  0  0  0  0
   41.7532   13.5362    9.8228 O   0  0  0  0  0  0  0  0  0  0  0  0
   41.5474   10.7413   10.3288 N   0  0  0  0  0  0  0  0  0  0  0  0
   42.7614   11.2789   10.6272 N   0  0  0  0  0  0  0  0  0  0  0  0
   43.6429   10.4593   11.1136 C   0  0  0  0  0  0  0  0  0  0  0  0
   43.5455    8.9973   11.4230 C   0  0  0  0  0  0  0  0  0  0  0  0
   44.8169    8.7177   11.9130 N   0  0  0  0  0  0  0  0  0  0  0  0
   45.6814    9.8287   11.9524 N   0  0  0  0  0  0  0  0  0  0  0  0
   45.0237   10.8509   11.4917 C   0  0  0  0  0  0  0  0  0  0  0  0
   45.5166   12.2405   11.3440 C   0  0  0  0  0  0  0  0  0  0  0  0
   42.5340    8.3482   11.2491 O   0  0  0  0  0  0  0  0  0  0  0  0
   45.3102    7.4690   12.3679 C   0  0  0  0  0  0  0  0  0  0  0  0
   44.5244    6.3089   12.3452 C   0  0  0  0  0  0  0  0  0  0  0  0
   45.0219    5.0680   12.7928 C   0  0  0  0  0  0  0  0  0  0  0  0
   46.3304    4.9901   13.3016 C   0  0  0  0  0  0  0  0  0  0  0  0
   47.1210    6.1457   13.3185 C   0  0  0  0  0  0  0  0  0  0  0  0
   46.6177    7.3659   12.8587 C   0  0  0  0  0  0  0  0  0  0  0  0
   46.9113    3.6940   13.7972 C   0  0  0  0  0  0  0  0  0  0  0  0
   44.1212    3.8620   12.7513 C   0  0  0  0  0  0  0  0  0  0  0  0
   43.0547   10.5461   11.1780 C   0  0  0  0  0  0  0  0  0  0  0  0
   41.9927   11.6504   11.1516 C   0  0  0  0  0  0  0  0  0  0  0  0
   41.3668   11.7728    9.8303 N   0  0  0  0  0  0  0  0  0  0  0  0
   42.4824    9.3148   10.7418 O   0  0  0  0  0  0  0  0  0  0  0  0
   42.7348   10.3773    9.2158 H   0  0  0  0  0  0  0  0  0  0  0  0
   41.6178    9.6616   10.3903 H   0  0  0  0  0  0  0  0  0  0  0  0
   42.5273   11.1821   12.1734 H   0  0  0  0  0  0  0  0  0  0  0  0
   43.6664   11.8670   11.0379 H   0  0  0  0  0  0  0  0  0  0  0  0
   40.7345   12.0260   10.7607 H   0  0  0  0  0  0  0  0  0  0  0  0
   41.8247   12.7088    9.7598 H   0  0  0  0  0  0  0  0  0  0  0  0
   43.4670    9.0343   11.6122 H   0  0  0  0  0  0  0  0  0  0  0  0
   37.2306   13.6520    9.2580 H   0  0  0  0  0  0  0  0  0  0  0  0
   37.0502   11.2328    9.6553 H   0  0  0  0  0  0  0  0  0  0  0  0
   39.0485    9.8899   10.1622 H   0  0  0  0  0  0  0  0  0  0  0  0
   40.5264   15.6961   11.0342 H   0  0  0  0  0  0  0  0  0  0  0  0
   40.6221   18.1142   10.5545 H   0  0  0  0  0  0  0  0  0  0  0  0
   39.6205   19.0180    8.4806 H   0  0  0  0  0  0  0  0  0  0  0  0
   38.4338   15.0415    7.3268 H   0  0  0  0  0  0  0  0  0  0  0  0
   38.0888   19.0448    5.4415 H   0  0  0  0  0  0  0  0  0  0  0  0
   42.3484   12.7812   10.0246 H   0  0  0  0  0  0  0  0  0  0  0  0
   41.3169    9.7819   10.6222 H   0  0  0  0  0  0  0  0  0  0  0  0
   45.4190   12.5583   10.3020 H   0  0  0  0  0  0  0  0  0  0  0  0
   46.5679   12.2992   11.6370 H   0  0  0  0  0  0  0  0  0  0  0  0
   44.9303   12.9068   11.9814 H   0  0  0  0  0  0  0  0  0  0  0  0
   43.5034    6.3402   11.9761 H   0  0  0  0  0  0  0  0  0  0  0  0
   48.1418    6.1087   13.6934 H   0  0  0  0  0  0  0  0  0  0  0  0
   47.2687    8.2372   12.8961 H   0  0  0  0  0  0  0  0  0  0  0  0
   47.1061    3.0223   12.9543 H   0  0  0  0  0  0  0  0  0  0  0  0
   46.2286    3.2074   14.5022 H   0  0  0  0  0  0  0  0  0  0  0  0
   47.8571    3.8558   14.3253 H   0  0  0  0  0  0  0  0  0  0  0  0
   43.7755    3.6172   13.7604 H   0  0  0  0  0  0  0  0  0  0  0  0
   43.2429    4.0407   12.1227 H   0  0  0  0  0  0  0  0  0  0  0  0
   44.6467    3.0008   12.3256 H   0  0  0  0  0  0  0  0  0  0  0  0
   43.8895   10.7926   10.5139 H   0  0  0  0  0  0  0  0  0  0  0  0
   43.4351   10.4148   12.1958 H   0  0  0  0  0  0  0  0  0  0  0  0
   42.4380   12.6074   11.4418 H   0  0  0  0  0  0  0  0  0  0  0  0
   41.2036   11.4149   11.8733 H   0  0  0  0  0  0  0  0  0  0  0  0
   42.0878   11.9578    9.1359 H   0  0  0  0  0  0  0  0  0  0  0  0
   41.0202   10.8384    9.5887 H   0  0  0  0  0  0  0  0  0  0  0  0
   43.1650    8.6301   10.8554 H   0  0  0  0  0  0  0  0  0  0  0  0
  4  1  1  0
  1  2  1  0
  2  3  1  0
 10 20  1  0
  9 21  1  0
 12 13  2  0
 21 22  1  0
  8  9  2  0
 22 23  2  0
 23 24  1  0
 13 14  1  0
  6  7  2  0
 14 15  2  0
  9 10  1  0
 24 25  1  0
 25 26  1  0
 26 27  2  0
 27 23  1  0
 15 16  1  0
 27 28  1  0
 16 11  2  0
 24 29  2  0
  5 11  1  0
 25 30  1  0
 10  5  2  0
 30 31  2  0
 15 17  1  0
 31 32  1  0
  5  6  1  0
 32 33  2  0
  7  8  1  0
 33 34  1  0
 17 18  1  0
 34 35  2  0
 35 30  1  0
 17 19  2  0
 33 36  1  0
 11 12  1  0
 32 37  1  0
 41 38  1  0
 38 39  1  0
 39 40  1  0
  1 42  1  0
  1 43  1  0
  2 44  1  0
  2 45  1  0
  3 46  1  0
  3 47  1  0
  4 48  1  0
  6 49  1  0
  7 50  1  0
  8 51  1  0
 12 52  1  0
 13 53  1  0
 14 54  1  0
 16 55  1  0
 18 56  1  0
 20 57  1  0
 21 58  1  0
 28 59  1  0
 28 60  1  0
 28 61  1  0
 31 62  1  0
 34 63  1  0
 35 64  1  0
 36 65  1  0
 36 66  1  0
 36 67  1  0
 37 68  1  0
 37 69  1  0
 37 70  1  0
 38 71  1  0
 38 72  1  0
 39 73  1  0
 39 74  1  0
 40 75  1  0
 40 76  1  0
 41 77  1  0
M  END
> <Uni-Dock RESULT> 
ENERGY=   -5.243  LOWER_BOUND=    0.000  UPPER_BOUND=    0.000
INTER + INTRA:          -5.243
INTER:                  -5.243
INTRA:                   0.000
UNBOUND:                 0.000

$$$$

     RDKit          3D

 77 78  0  0  0  0  0  0  0  0999 V2000
   48.0524    8.2731   15.1028 C   0  0  0  0  0  0  0  0  0  0  0  0
   49.4739    7.9383   14.6366 C   0  0  0  0  0  0  0  0  0  0  0  0
   50.1495    6.9723   15.4977 N   0  0  0  0  0  0  0  0  0  0  0  0
   47.4597    9.2452   14.2520 O   0  0  0  0  0  0  0  0  0  0  0  0
   50.6817    4.9682   17.5272 C   0  0  0  0  0  0  0  0  0  0  0  0
   49.8087    3.8787   17.6919 C   0  0  0  0  0  0  0  0  0  0  0  0
   48.5259    3.8875   17.1423 C   0  0  0  0  0  0  0  0  0  0  0  0
   48.0894    4.9843   16.4002 C   0  0  0  0  0  0  0  0  0  0  0  0
   48.9291    6.0845   16.1844 C   0  0  0  0  0  0  0  0  0  0  0  0
   50.2145    6.0603   16.7696 C   0  0  0  0  0  0  0  0  0  0  0  0
   52.0184    4.9376   18.1553 C   0  0  0  0  0  0  0  0  0  0  0  0
   53.1873    5.1557   17.4065 C   0  0  0  0  0  0  0  0  0  0  0  0
   54.4511    5.1067   18.0023 C   0  0  0  0  0  0  0  0  0  0  0  0
   54.5698    4.8336   19.3650 C   0  0  0  0  0  0  0  0  0  0  0  0
   53.4229    4.6164   20.1338 C   0  0  0  0  0  0  0  0  0  0  0  0
   52.1592    4.6691   19.5283 C   0  0  0  0  0  0  0  0  0  0  0  0
   53.4895    4.3147   21.5840 C   0  0  0  0  0  0  0  0  0  0  0  0
   54.7376    4.3954   22.0812 O   0  0  0  0  0  0  0  0  0  0  0  0
   52.5445    4.0206   22.2940 O   0  0  0  0  0  0  0  0  0  0  0  0
   51.0256    7.1619   16.6140 O   0  0  0  0  0  0  0  0  0  0  0  0
   48.4226    7.1903   15.4593 N   0  0  0  0  0  0  0  0  0  0  0  0
   49.2398    8.1897   15.0288 N   0  0  0  0  0  0  0  0  0  0  0  0
   48.7346    8.9982   14.1476 C   0  0  0  0  0  0  0  0  0  0  0  0
   47.3847    9.0102   13.4992 C   0  0  0  0  0  0  0  0  0  0  0  0
   47.4733   10.1175   12.6620 N   0  0  0  0  0  0  0  0  0  0  0  0
   48.7137   10.7824   12.7079 N   0  0  0  0  0  0  0  0  0  0  0  0
   49.4621   10.1529   13.5642 C   0  0  0  0  0  0  0  0  0  0  0  0
   50.8555   10.4808   13.9472 C   0  0  0  0  0  0  0  0  0  0  0  0
   46.5277    8.1828   13.7354 O   0  0  0  0  0  0  0  0  0  0  0  0
   46.4748   10.6221   11.7914 C   0  0  0  0  0  0  0  0  0  0  0  0
   45.2064   10.0337   11.6982 C   0  0  0  0  0  0  0  0  0  0  0  0
   44.2146   10.5433   10.8354 C   0  0  0  0  0  0  0  0  0  0  0  0
   44.5074   11.6541   10.0245 C   0  0  0  0  0  0  0  0  0  0  0  0
   45.7712   12.2492   10.1208 C   0  0  0  0  0  0  0  0  0  0  0  0
   46.7394   11.7403   10.9909 C   0  0  0  0  0  0  0  0  0  0  0  0
   43.4896   12.2366    9.0823 C   0  0  0  0  0  0  0  0  0  0  0  0
   42.8757    9.8570   10.7755 C   0  0  0  0  0  0  0  0  0  0  0  0
   48.7162    8.4096   14.2516 C   0  0  0  0  0  0  0  0  0  0  0  0
   49.5579    7.2627   14.8209 C   0  0  0  0  0  0  0  0  0  0  0  0
   49.2653    7.0236   16.2385 N   0  0  0  0  0  0  0  0  0  0  0  0
   47.3317    8.1499   14.4750 O   0  0  0  0  0  0  0  0  0  0  0  0
   48.0658    8.6800   16.1185 H   0  0  0  0  0  0  0  0  0  0  0  0
   47.4174    7.3814   15.1023 H   0  0  0  0  0  0  0  0  0  0  0  0
   49.4370    7.5446   13.6147 H   0  0  0  0  0  0  0  0  0  0  0  0
   50.0688    8.8572   14.5810 H   0  0  0  0  0  0  0  0  0  0  0  0
   49.5854    6.1275   15.5874 H   0  0  0  0  0  0  0  0  0  0  0  0
   50.2349    7.3561   16.4392 H   0  0  0  0  0  0  0  0  0  0  0  0
   47.4458    8.8775   13.3509 H   0  0  0  0  0  0  0  0  0  0  0  0
   50.1263    3.0066   18.2608 H   0  0  0  0  0  0  0  0  0  0  0  0
   47.8639    3.0406   17.2999 H   0  0  0  0  0  0  0  0  0  0  0  0
   47.0820    4.9735   15.9937 H   0  0  0  0  0  0  0  0  0  0  0  0
   53.1133    5.3714   16.3422 H   0  0  0  0  0  0  0  0  0  0  0  0
   55.3401    5.2803   17.4003 H   0  0  0  0  0  0  0  0  0  0  0  0
   55.5574    4.7936   19.8162 H   0  0  0  0  0  0  0  0  0  0  0  0
   51.2716    4.5118   20.1398 H   0  0  0  0  0  0  0  0  0  0  0  0
   54.6225    4.1897   23.0325 H   0  0  0  0  0  0  0  0  0  0  0  0
   50.4643    7.7698   16.0845 H   0  0  0  0  0  0  0  0  0  0  0  0
   47.5237    7.0143   14.9895 H   0  0  0  0  0  0  0  0  0  0  0  0
   50.9140   10.6398   15.0278 H   0  0  0  0  0  0  0  0  0  0  0  0
   51.1816   11.3899   13.4357 H   0  0  0  0  0  0  0  0  0  0  0  0
   51.5160    9.6567   13.6670 H   0  0  0  0  0  0  0  0  0  0  0  0
   44.9558    9.1629   12.2971 H   0  0  0  0  0  0  0  0  0  0  0  0
   46.0176   13.1188    9.5150 H   0  0  0  0  0  0  0  0  0  0  0  0
   47.7084   12.2343   11.0272 H   0  0  0  0  0  0  0  0  0  0  0  0
   42.7025   12.7472    9.6475 H   0  0  0  0  0  0  0  0  0  0  0  0
   43.0435   11.4531    8.4603 H   0  0  0  0  0  0  0  0  0  0  0  0
   43.9447   12.9658    8.4033 H   0  0  0  0  0  0  0  0  0  0  0  0
   42.7929    9.2764    9.8514 H   0  0  0  0  0  0  0  0  0  0  0  0
   42.7377    9.1756   11.6212 H   0  0  0  0  0  0  0  0  0  0  0  0
   42.0629   10.5892   10.8215 H   0  0  0  0  0  0  0  0  0  0  0  0
   48.9715    9.3577   14.7359 H   0  0  0  0  0  0  0  0  0  0  0  0
   48.8863    8.5018   13.1744 H   0  0  0  0  0  0  0  0  0  0  0  0
   50.6235    7.4788   14.6929 H   0  0  0  0  0  0  0  0  0  0  0  0
   49.3347    6.3404   14.2747 H   0  0  0  0  0  0  0  0  0  0  0  0
   49.4329    7.8802   16.7624 H   0  0  0  0  0  0  0  0  0  0  0  0
   48.2513    6.8848   16.3034 H   0  0  0  0  0  0  0  0  0  0  0  0
   46.8357    8.8565   14.0253 H   0  0  0  0  0  0  0  0  0  0  0  0
  4  1  1  0
  1  2  1  0
  2  3  1  0
 10 20  1  0
  9 21  1  0
 12 13  2  0
 21 22  1  0
  8  9  2  0
 22 23  2  0
 23 24  1  0
 13 14  1  0
  6  7  2  0
 14 15  2  0
  9 10  1  0
 24 25  1  0
 25 26  1  0
 26 27  2  0
 27 23  1  0
 15 16  1  0
 27 28  1  0
 16 11  2  0
 24 29  2  0
  5 11  1  0
 25 30  1  0
 10  5  2  0
 30 31  2  0
 15 17  1  0
 31 32  1  0
  5  6  1  0
 32 33  2  0
  7  8  1  0
 33 34  1  0
 17 18  1  0
 34 35  2  0
 35 30  1  0
 17 19  2  0
 33 36  1  0
 11 12  1  0
 32 37  1  0
 41 38  1  0
 38 39  1  0
 39 40  1  0
  1 42  1  0
  1 43  1  0
  2 44  1  0
  2 45  1  0
  3 46  1  0
  3 47  1  0
  4 48  1  0
  6 49  1  0
  7 50  1  0
  8 51  1  0
 12 52  1  0
 13 53  1  0
 14 54  1  0
 16 55  1  0
 18 56  1  0
 20 57  1  0
 21 58  1  0
 28 59  1  0
 28 60  1  0
 28 61  1  0
 31 62  1  0
 34 63  1  0
 35 64  1  0
 36 65  1  0
 36 66  1  0
 36 67  1  0
 37 68  1  0
 37 69  1  0
 37 70  1  0
 38 71  1  0
 38 72  1  0
 39 73  1  0
 39 74  1  0
 40 75  1  0
 40 76  1  0
 41 77  1  0
M  END
> <Uni-Dock RESULT> 
ENERGY=   -5.120  LOWER_BOUND=    6.192  UPPER_BOUND=   13.311
INTER + INTRA:          -5.120
INTER:                  -5.120
INTRA:                   0.000
UNBOUND:                 0.000

$$$$

     RDKit          3D

 77 78  0  0  0  0  0  0  0  0999 V2000
   48.0411    8.2828   15.0879 C   0  0  0  0  0  0  0  0  0  0  0  0
   49.4620    7.9455   14.6219 C   0  0  0  0  0  0  0  0  0  0  0  0
   50.1366    6.9801   15.4844 N   0  0  0  0  0  0  0  0  0  0  0  0
   47.4494    9.2542   14.2357 O   0  0  0  0  0  0  0  0  0  0  0  0
   50.6668    4.9786   17.5171 C   0  0  0  0  0  0  0  0  0  0  0  0
   49.7925    3.8904   17.6836 C   0  0  0  0  0  0  0  0  0  0  0  0
   48.5097    3.8999   17.1343 C   0  0  0  0  0  0  0  0  0  0  0  0
   48.0743    4.9960   16.3905 C   0  0  0  0  0  0  0  0  0  0  0  0
   48.9153    6.0949   16.1728 C   0  0  0  0  0  0  0  0  0  0  0  0
   50.2009    6.0701   16.7578 C   0  0  0  0  0  0  0  0  0  0  0  0
   52.0037    4.9473   18.1449 C   0  0  0  0  0  0  0  0  0  0  0  0
   53.1726    5.1629   17.3955 C   0  0  0  0  0  0  0  0  0  0  0  0
   54.4366    5.1133   17.9911 C   0  0  0  0  0  0  0  0  0  0  0  0
   54.5553    4.8421   19.3542 C   0  0  0  0  0  0  0  0  0  0  0  0
   53.4082    4.6276   20.1235 C   0  0  0  0  0  0  0  0  0  0  0  0
   52.1445    4.6809   19.5182 C   0  0  0  0  0  0  0  0  0  0  0  0
   53.4748    4.3282   21.5742 C   0  0  0  0  0  0  0  0  0  0  0  0
   54.7231    4.4082   22.0710 O   0  0  0  0  0  0  0  0  0  0  0  0
   52.5296    4.0364   22.2849 O   0  0  0  0  0  0  0  0  0  0  0  0
   51.0133    7.1704   16.6002 O   0  0  0  0  0  0  0  0  0  0  0  0
   48.4100    7.2001   15.4460 N   0  0  0  0  0  0  0  0  0  0  0  0
   49.2283    8.1979   15.0138 N   0  0  0  0  0  0  0  0  0  0  0  0
   48.7240    9.0056   14.1314 C   0  0  0  0  0  0  0  0  0  0  0  0
   47.3739    9.0182   13.4833 C   0  0  0  0  0  0  0  0  0  0  0  0
   47.4636   10.1240   12.6443 N   0  0  0  0  0  0  0  0  0  0  0  0
   48.7049   10.7875   12.6888 N   0  0  0  0  0  0  0  0  0  0  0  0
   49.4527   10.1584   13.5460 C   0  0  0  0  0  0  0  0  0  0  0  0
   50.8466   10.4852   13.9282 C   0  0  0  0  0  0  0  0  0  0  0  0
   46.5160    8.1922   13.7210 O   0  0  0  0  0  0  0  0  0  0  0  0
   46.4656   10.6285   11.7731 C   0  0  0  0  0  0  0  0  0  0  0  0
   45.1965   10.0414   11.6811 C   0  0  0  0  0  0  0  0  0  0  0  0
   44.2051   10.5508   10.8177 C   0  0  0  0  0  0  0  0  0  0  0  0
   44.4991   11.6600   10.0050 C   0  0  0  0  0  0  0  0  0  0  0  0
   45.7636   12.2537   10.1000 C   0  0  0  0  0  0  0  0  0  0  0  0
   46.7313   11.7450   10.9707 C   0  0  0  0  0  0  0  0  0  0  0  0
   43.4818   12.2423    9.0621 C   0  0  0  0  0  0  0  0  0  0  0  0
   42.8654    9.8661   10.7592 C   0  0  0  0  0  0  0  0  0  0  0  0
   48.7048    8.4171   14.2364 C   0  0  0  0  0  0  0  0  0  0  0  0
   49.5453    7.2701   14.8073 C   0  0  0  0  0  0  0  0  0  0  0  0
   49.2527    7.0337   16.2254 N   0  0  0  0  0  0  0  0  0  0  0  0
   47.3201    8.1595   14.4604 O   0  0  0  0  0  0  0  0  0  0  0  0
   48.0552    8.6914   16.1029 H   0  0  0  0  0  0  0  0  0  0  0  0
   47.4049    7.3919   15.0890 H   0  0  0  0  0  0  0  0  0  0  0  0
   49.4244    7.5502   13.6007 H   0  0  0  0  0  0  0  0  0  0  0  0
   50.0581    8.8636   14.5647 H   0  0  0  0  0  0  0  0  0  0  0  0
   49.5715    6.1361   15.5756 H   0  0  0  0  0  0  0  0  0  0  0  0
   50.2227    7.3653   16.4253 H   0  0  0  0  0  0  0  0  0  0  0  0
   47.4348    8.8852   13.3352 H   0  0  0  0  0  0  0  0  0  0  0  0
   50.1092    3.0189   18.2539 H   0  0  0  0  0  0  0  0  0  0  0  0
   47.8467    3.0541   17.2934 H   0  0  0  0  0  0  0  0  0  0  0  0
   47.0668    4.9858   15.9843 H   0  0  0  0  0  0  0  0  0  0  0  0
   53.0987    5.3769   16.3308 H   0  0  0  0  0  0  0  0  0  0  0  0
   55.3256    5.2848   17.3886 H   0  0  0  0  0  0  0  0  0  0  0  0
   55.5429    4.8017   19.8052 H   0  0  0  0  0  0  0  0  0  0  0  0
   51.2568    4.5257   20.1302 H   0  0  0  0  0  0  0  0  0  0  0  0
   54.6080    4.2041   23.0227 H   0  0  0  0  0  0  0  0  0  0  0  0
   50.4526    7.7782   16.0699 H   0  0  0  0  0  0  0  0  0  0  0  0
   47.5108    7.0245   14.9767 H   0  0  0  0  0  0  0  0  0  0  0  0
   50.9055   10.6458   15.0085 H   0  0  0  0  0  0  0  0  0  0  0  0
   51.1737   11.3931   13.4151 H   0  0  0  0  0  0  0  0  0  0  0  0
   51.5061    9.6599   13.6491 H   0  0  0  0  0  0  0  0  0  0  0  0
   44.9449    9.1719   12.2815 H   0  0  0  0  0  0  0  0  0  0  0  0
   46.0109   13.1221    9.4928 H   0  0  0  0  0  0  0  0  0  0  0  0
   47.7010   12.2379   11.0060 H   0  0  0  0  0  0  0  0  0  0  0  0
   42.6955   12.7547    9.6266 H   0  0  0  0  0  0  0  0  0  0  0  0
   43.0346   11.4583    8.4415 H   0  0  0  0  0  0  0  0  0  0  0  0
   43.9376   12.9698    8.3818 H   0  0  0  0  0  0  0  0  0  0  0  0
   42.7816    9.2841    9.8361 H   0  0  0  0  0  0  0  0  0  0  0  0
   42.7267    9.1863   11.6060 H   0  0  0  0  0  0  0  0  0  0  0  0
   42.0534   10.5994   10.8043 H   0  0  0  0  0  0  0  0  0  0  0  0
   48.9614    9.3657   14.7190 H   0  0  0  0  0  0  0  0  0  0  0  0
   48.8748    8.5074   13.1590 H   0  0  0  0  0  0  0  0  0  0  0  0
   50.6111    7.4847   14.6787 H   0  0  0  0  0  0  0  0  0  0  0  0
   49.3208    6.3472   14.2626 H   0  0  0  0  0  0  0  0  0  0  0  0
   49.4215    7.8909   16.7479 H   0  0  0  0  0  0  0  0  0  0  0  0
   48.2385    6.8962   16.2906 H   0  0  0  0  0  0  0  0  0  0  0  0
   46.8248    8.8660   14.0097 H   0  0  0  0  0  0  0  0  0  0  0  0
  4  1  1  0
  1  2  1  0
  2  3  1  0
 10 20  1  0
  9 21  1  0
 12 13  2  0
 21 22  1  0
  8  9  2  0
 22 23  2  0
 23 24  1  0
 13 14  1  0
  6  7  2  0
 14 15  2  0
  9 10  1  0
 24 25  1  0
 25 26  1  0
 26 27  2  0
 27 23  1  0
 15 16  1  0
 27 28  1  0
 16 11  2  0
 24 29  2  0
  5 11  1  0
 25 30  1  0
 10  5  2  0
 30 31  2  0
 15 17  1  0
 31 32  1  0
  5  6  1  0
 32 33  2  0
  7  8  1  0
 33 34  1  0
 17 18  1  0
 34 35  2  0
 35 30  1  0
 17 19  2  0
 33 36  1  0
 11 12  1  0
 32 37  1  0
 41 38  1  0
 38 39  1  0
 39 40  1  0
  1 42  1  0
  1 43  1  0
  2 44  1  0
  2 45  1  0
  3 46  1  0
  3 47  1  0
  4 48  1  0
  6 49  1  0
  7 50  1  0
  8 51  1  0
 12 52  1  0
 13 53  1  0
 14 54  1  0
 16 55  1  0
 18 56  1  0
 20 57  1  0
 21 58  1  0
 28 59  1  0
 28 60  1  0
 28 61  1  0
 31 62  1  0
 34 63  1  0
 35 64  1  0
 36 65  1  0
 36 66  1  0
 36 67  1  0
 37 68  1  0
 37 69  1  0
 37 70  1  0
 38 71  1  0
 38 72  1  0
 39 73  1  0
 39 74  1  0
 40 75  1  0
 40 76  1  0
 41 77  1  0
M  END
> <Uni-Dock RESULT> 
ENERGY=   -5.114  LOWER_BOUND=    6.179  UPPER_BOUND=   13.297
INTER + INTRA:          -5.114
INTER:                  -5.114
INTRA:                   0.000
UNBOUND:                 0.000

$$$$

     RDKit          3D

 77 78  0  0  0  0  0  0  0  0999 V2000
   43.8418   10.4780   12.1749 C   0  0  0  0  0  0  0  0  0  0  0  0
   45.2252   10.6947   11.5511 C   0  0  0  0  0  0  0  0  0  0  0  0
   46.2259    9.7434   12.0253 N   0  0  0  0  0  0  0  0  0  0  0  0
   42.9206   11.4545   11.7079 O   0  0  0  0  0  0  0  0  0  0  0  0
   47.4998    7.4619   13.2862 C   0  0  0  0  0  0  0  0  0  0  0  0
   46.9487    6.1763   13.1450 C   0  0  0  0  0  0  0  0  0  0  0  0
   45.6400    5.9934   12.6961 C   0  0  0  0  0  0  0  0  0  0  0  0
   44.8533    7.0953   12.3631 C   0  0  0  0  0  0  0  0  0  0  0  0
   45.3628    8.3965   12.4610 C   0  0  0  0  0  0  0  0  0  0  0  0
   46.6827    8.5557   12.9386 C   0  0  0  0  0  0  0  0  0  0  0  0
   48.8763    7.6167   13.7996 C   0  0  0  0  0  0  0  0  0  0  0  0
   49.8443    8.3536   13.0963 C   0  0  0  0  0  0  0  0  0  0  0  0
   51.1508    8.4811   13.5773 C   0  0  0  0  0  0  0  0  0  0  0  0
   51.5162    7.8674   14.7755 C   0  0  0  0  0  0  0  0  0  0  0  0
   50.5716    7.1316   15.4968 C   0  0  0  0  0  0  0  0  0  0  0  0
   49.2631    7.0104   15.0078 C   0  0  0  0  0  0  0  0  0  0  0  0
   50.9057    6.4522   16.7717 C   0  0  0  0  0  0  0  0  0  0  0  0
   52.1523    6.7230   17.2010 O   0  0  0  0  0  0  0  0  0  0  0  0
   50.1660    5.7182   17.4022 O   0  0  0  0  0  0  0  0  0  0  0  0
   47.1726    9.8327   13.0955 O   0  0  0  0  0  0  0  0  0  0  0  0
   44.5091    9.4826   12.1506 N   0  0  0  0  0  0  0  0  0  0  0  0
   44.9924   10.7475   12.0146 N   0  0  0  0  0  0  0  0  0  0  0  0
   44.1910   11.6067   11.4624 C   0  0  0  0  0  0  0  0  0  0  0  0
   42.8036   11.4370   10.9246 C   0  0  0  0  0  0  0  0  0  0  0  0
   42.5058   12.7197   10.4765 N   0  0  0  0  0  0  0  0  0  0  0  0
   43.5417   13.6552   10.6633 N   0  0  0  0  0  0  0  0  0  0  0  0
   44.5297   13.0338   11.2354 C   0  0  0  0  0  0  0  0  0  0  0  0
   45.8402   13.6041   11.6268 C   0  0  0  0  0  0  0  0  0  0  0  0
   42.2139   10.3754   10.9331 O   0  0  0  0  0  0  0  0  0  0  0  0
   41.3060   13.1624    9.8649 C   0  0  0  0  0  0  0  0  0  0  0  0
   40.2183   12.3031    9.6590 C   0  0  0  0  0  0  0  0  0  0  0  0
   39.0248   12.7499    9.0559 C   0  0  0  0  0  0  0  0  0  0  0  0
   38.9258   14.0840    8.6229 C   0  0  0  0  0  0  0  0  0  0  0  0
   40.0079   14.9472    8.8342 C   0  0  0  0  0  0  0  0  0  0  0  0
   41.1795   14.4925    9.4456 C   0  0  0  0  0  0  0  0  0  0  0  0
   37.6787   14.6136    7.9692 C   0  0  0  0  0  0  0  0  0  0  0  0
   37.8977   11.7720    8.8544 C   0  0  0  0  0  0  0  0  0  0  0  0
   44.3306   11.0316   11.3760 C   0  0  0  0  0  0  0  0  0  0  0  0
   45.4953   10.0446   11.5077 C   0  0  0  0  0  0  0  0  0  0  0  0
   45.4646    9.3339   12.7909 N   0  0  0  0  0  0  0  0  0  0  0  0
   43.0944   10.3503   11.5800 O   0  0  0  0  0  0  0  0  0  0  0  0
   43.8934   10.5600   13.2648 H   0  0  0  0  0  0  0  0  0  0  0  0
   43.4487    9.4868   11.9270 H   0  0  0  0  0  0  0  0  0  0  0  0
   45.1469   10.6202   10.4607 H   0  0  0  0  0  0  0  0  0  0  0  0
   45.5655   11.7162   11.7567 H   0  0  0  0  0  0  0  0  0  0  0  0
   45.9018    8.7885   11.8738 H   0  0  0  0  0  0  0  0  0  0  0  0
   46.3422    9.8455   13.0338 H   0  0  0  0  0  0  0  0  0  0  0  0
   42.8745   11.3750   10.7389 H   0  0  0  0  0  0  0  0  0  0  0  0
   47.5430    5.2982   13.3914 H   0  0  0  0  0  0  0  0  0  0  0  0
   45.2316    4.9900   12.6135 H   0  0  0  0  0  0  0  0  0  0  0  0
   43.8332    6.9281   12.0288 H   0  0  0  0  0  0  0  0  0  0  0  0
   49.5763    8.8401   12.1602 H   0  0  0  0  0  0  0  0  0  0  0  0
   51.8808    9.0579   13.0140 H   0  0  0  0  0  0  0  0  0  0  0  0
   52.5355    7.9697   15.1371 H   0  0  0  0  0  0  0  0  0  0  0  0
   48.5318    6.4461   15.5851 H   0  0  0  0  0  0  0  0  0  0  0  0
   52.2208    6.2267   18.0434 H   0  0  0  0  0  0  0  0  0  0  0  0
   46.4138   10.3906   12.8162 H   0  0  0  0  0  0  0  0  0  0  0  0
   43.6248    9.2120   11.6984 H   0  0  0  0  0  0  0  0  0  0  0  0
   46.0042   13.4522   12.6975 H   0  0  0  0  0  0  0  0  0  0  0  0
   45.8628   14.6755   11.4118 H   0  0  0  0  0  0  0  0  0  0  0  0
   46.6370   13.1102   11.0655 H   0  0  0  0  0  0  0  0  0  0  0  0
   40.2706   11.2622    9.9647 H   0  0  0  0  0  0  0  0  0  0  0  0
   39.9507   15.9879    8.5217 H   0  0  0  0  0  0  0  0  0  0  0  0
   41.9949   15.1998    9.5839 H   0  0  0  0  0  0  0  0  0  0  0  0
   36.8753   14.7027    8.7081 H   0  0  0  0  0  0  0  0  0  0  0  0
   37.3565   13.9537    7.1565 H   0  0  0  0  0  0  0  0  0  0  0  0
   37.8463   15.6038    7.5318 H   0  0  0  0  0  0  0  0  0  0  0  0
   37.8340   11.4852    7.8001 H   0  0  0  0  0  0  0  0  0  0  0  0
   38.0456   10.8639    9.4477 H   0  0  0  0  0  0  0  0  0  0  0  0
   36.9451   12.2080    9.1730 H   0  0  0  0  0  0  0  0  0  0  0  0
   44.4109   11.8303   12.1205 H   0  0  0  0  0  0  0  0  0  0  0  0
   44.3255   11.4754   10.3756 H   0  0  0  0  0  0  0  0  0  0  0  0
   46.4487   10.5711   11.3974 H   0  0  0  0  0  0  0  0  0  0  0  0
   45.4311    9.2963   10.7110 H   0  0  0  0  0  0  0  0  0  0  0  0
   45.4883   10.0132   13.5487 H   0  0  0  0  0  0  0  0  0  0  0  0
   44.5333    8.9106   12.8629 H   0  0  0  0  0  0  0  0  0  0  0  0
   42.3851   10.9933   11.4039 H   0  0  0  0  0  0  0  0  0  0  0  0
  4  1  1  0
  1  2  1  0
  2  3  1  0
 10 20  1  0
  9 21  1  0
 12 13  2  0
 21 22  1  0
  8  9  2  0
 22 23  2  0
 23 24  1  0
 13 14  1  0
  6  7  2  0
 14 15  2  0
  9 10  1  0
 24 25  1  0
 25 26  1  0
 26 27  2  0
 27 23  1  0
 15 16  1  0
 27 28  1  0
 16 11  2  0
 24 29  2  0
  5 11  1  0
 25 30  1  0
 10  5  2  0
 30 31  2  0
 15 17  1  0
 31 32  1  0
  5  6  1  0
 32 33  2  0
  7  8  1  0
 33 34  1  0
 17 18  1  0
 34 35  2  0
 35 30  1  0
 17 19  2  0
 33 36  1  0
 11 12  1  0
 32 37  1  0
 41 38  1  0
 38 39  1  0
 39 40  1  0
  1 42  1  0
  1 43  1  0
  2 44  1  0
  2 45  1  0
  3 46  1  0
  3 47  1  0
  4 48  1  0
  6 49  1  0
  7 50  1  0
  8 51  1  0
 12 52  1  0
 13 53  1  0
 14 54  1  0
 16 55  1  0
 18 56  1  0
 20 57  1  0
 21 58  1  0
 28 59  1  0
 28 60  1  0
 28 61  1  0
 31 62  1  0
 34 63  1  0
 35 64  1  0
 36 65  1  0
 36 66  1  0
 36 67  1  0
 37 68  1  0
 37 69  1  0
 37 70  1  0
 38 71  1  0
 38 72  1  0
 39 73  1  0
 39 74  1  0
 40 75  1  0
 40 76  1  0
 41 77  1  0
M  END
> <Uni-Dock RESULT> 
ENERGY=   -5.055  LOWER_BOUND=    3.117  UPPER_BOUND=   10.294
INTER + INTRA:          -5.055
INTER:                  -5.055
INTRA:                   0.000
UNBOUND:                 0.000

$$$$

     RDKit          3D

 77 78  0  0  0  0  0  0  0  0999 V2000
   48.4107    7.4455   13.7867 C   0  0  0  0  0  0  0  0  0  0  0  0
   47.6975    8.7053   14.2907 C   0  0  0  0  0  0  0  0  0  0  0  0
   46.6062    9.1356   13.4217 N   0  0  0  0  0  0  0  0  0  0  0  0
   49.4859    7.0972   14.6485 O   0  0  0  0  0  0  0  0  0  0  0  0
   44.5803    9.2013   11.3457 C   0  0  0  0  0  0  0  0  0  0  0  0
   43.7678    8.0776   11.1140 C   0  0  0  0  0  0  0  0  0  0  0  0
   44.1065    6.8213   11.6184 C   0  0  0  0  0  0  0  0  0  0  0  0
   45.2626    6.6611   12.3814 C   0  0  0  0  0  0  0  0  0  0  0  0
   46.0931    7.7534   12.6633 C   0  0  0  0  0  0  0  0  0  0  0  0
   45.7397    9.0098   12.1229 C   0  0  0  0  0  0  0  0  0  0  0  0
   44.2080   10.5072   10.7641 C   0  0  0  0  0  0  0  0  0  0  0  0
   44.0884   11.6589   11.5602 C   0  0  0  0  0  0  0  0  0  0  0  0
   43.7172   12.8883   11.0076 C   0  0  0  0  0  0  0  0  0  0  0  0
   43.4538   12.9881    9.6415 C   0  0  0  0  0  0  0  0  0  0  0  0
   43.5690   11.8586    8.8263 C   0  0  0  0  0  0  0  0  0  0  0  0
   43.9435   10.6299    9.3886 C   0  0  0  0  0  0  0  0  0  0  0  0
   43.2941   11.9044    7.3699 C   0  0  0  0  0  0  0  0  0  0  0  0
   43.0497   13.1490    6.9196 O   0  0  0  0  0  0  0  0  0  0  0  0
   43.2798   10.9464    6.6178 O   0  0  0  0  0  0  0  0  0  0  0  0
   46.5805   10.0774   12.3438 O   0  0  0  0  0  0  0  0  0  0  0  0
   47.2769    7.5290   13.4071 N   0  0  0  0  0  0  0  0  0  0  0  0
   48.0113    8.5636   13.8993 N   0  0  0  0  0  0  0  0  0  0  0  0
   48.9048    8.2547   14.7890 C   0  0  0  0  0  0  0  0  0  0  0  0
   49.2622    6.9302   15.3898 C   0  0  0  0  0  0  0  0  0  0  0  0
   50.2858    7.2745   16.2664 N   0  0  0  0  0  0  0  0  0  0  0  0
   50.5959    8.6480   16.2864 N   0  0  0  0  0  0  0  0  0  0  0  0
   49.8092    9.2376   15.4360 C   0  0  0  0  0  0  0  0  0  0  0  0
   49.7616   10.6831   15.1132 C   0  0  0  0  0  0  0  0  0  0  0  0
   48.6997    5.8949   15.0961 O   0  0  0  0  0  0  0  0  0  0  0  0
   51.0187    6.4102   17.1181 C   0  0  0  0  0  0  0  0  0  0  0  0
   50.7887    5.0281   17.1470 C   0  0  0  0  0  0  0  0  0  0  0  0
   51.5248    4.1719   17.9913 C   0  0  0  0  0  0  0  0  0  0  0  0
   52.4978    4.7149   18.8489 C   0  0  0  0  0  0  0  0  0  0  0  0
   52.7356    6.0944   18.8169 C   0  0  0  0  0  0  0  0  0  0  0  0
   52.0067    6.9284   17.9646 C   0  0  0  0  0  0  0  0  0  0  0  0
   53.3093    3.8496   19.7740 C   0  0  0  0  0  0  0  0  0  0  0  0
   51.2201    2.6973   17.9812 C   0  0  0  0  0  0  0  0  0  0  0  0
   48.3451    8.0847   14.6646 C   0  0  0  0  0  0  0  0  0  0  0  0
   47.0284    8.6143   14.0869 C   0  0  0  0  0  0  0  0  0  0  0  0
   46.9092    8.3294   12.6526 N   0  0  0  0  0  0  0  0  0  0  0  0
   48.4701    6.6919   14.3844 O   0  0  0  0  0  0  0  0  0  0  0  0
   48.8226    7.6101   12.7864 H   0  0  0  0  0  0  0  0  0  0  0  0
   47.7215    6.5966   13.7349 H   0  0  0  0  0  0  0  0  0  0  0  0
   47.3044    8.5214   15.2969 H   0  0  0  0  0  0  0  0  0  0  0  0
   48.4224    9.5205   14.3980 H   0  0  0  0  0  0  0  0  0  0  0  0
   45.9452    8.3713   13.2840 H   0  0  0  0  0  0  0  0  0  0  0  0
   46.9749    9.3601   12.4973 H   0  0  0  0  0  0  0  0  0  0  0  0
   49.1146    6.9474   15.5356 H   0  0  0  0  0  0  0  0  0  0  0  0
   42.8561    8.1757   10.5275 H   0  0  0  0  0  0  0  0  0  0  0  0
   43.4712    5.9651   11.4093 H   0  0  0  0  0  0  0  0  0  0  0  0
   45.5121    5.6708   12.7518 H   0  0  0  0  0  0  0  0  0  0  0  0
   44.2914   11.5996   12.6280 H   0  0  0  0  0  0  0  0  0  0  0  0
   43.6329   13.7649   11.6459 H   0  0  0  0  0  0  0  0  0  0  0  0
   43.1618   13.9478    9.2241 H   0  0  0  0  0  0  0  0  0  0  0  0
   44.0434    9.7594    8.7415 H   0  0  0  0  0  0  0  0  0  0  0  0
   42.9043   13.0240    5.9585 H   0  0  0  0  0  0  0  0  0  0  0  0
   47.3039    9.6761   12.8735 H   0  0  0  0  0  0  0  0  0  0  0  0
   47.3368    6.5965   13.8390 H   0  0  0  0  0  0  0  0  0  0  0  0
   49.9240   10.8279   14.0413 H   0  0  0  0  0  0  0  0  0  0  0  0
   50.5383   11.2173   15.6662 H   0  0  0  0  0  0  0  0  0  0  0  0
   48.7846   11.0879   15.3885 H   0  0  0  0  0  0  0  0  0  0  0  0
   50.0308    4.5806   16.5107 H   0  0  0  0  0  0  0  0  0  0  0  0
   53.4935    6.5372   19.4600 H   0  0  0  0  0  0  0  0  0  0  0  0
   52.2244    7.9946   17.9788 H   0  0  0  0  0  0  0  0  0  0  0  0
   54.0246    3.2517   19.1992 H   0  0  0  0  0  0  0  0  0  0  0  0
   52.6593    3.1849   20.3532 H   0  0  0  0  0  0  0  0  0  0  0  0
   53.8744    4.4529   20.4926 H   0  0  0  0  0  0  0  0  0  0  0  0
   50.6616    2.4236   18.8818 H   0  0  0  0  0  0  0  0  0  0  0  0
   50.6202    2.4192   17.1088 H   0  0  0  0  0  0  0  0  0  0  0  0
   52.1438    2.1114   17.9315 H   0  0  0  0  0  0  0  0  0  0  0  0
   49.2014    8.6036   14.2218 H   0  0  0  0  0  0  0  0  0  0  0  0
   48.3636    8.2271   15.7496 H   0  0  0  0  0  0  0  0  0  0  0  0
   46.9488    9.6925   14.2592 H   0  0  0  0  0  0  0  0  0  0  0  0
   46.1870    8.1305   14.5935 H   0  0  0  0  0  0  0  0  0  0  0  0
   47.7017    8.7412   12.1640 H   0  0  0  0  0  0  0  0  0  0  0  0
   47.0479    7.3188   12.5477 H   0  0  0  0  0  0  0  0  0  0  0  0
   49.2731    6.3831   14.8400 H   0  0  0  0  0  0  0  0  0  0  0  0
  4  1  1  0
  1  2  1  0
  2  3  1  0
 10 20  1  0
  9 21  1  0
 12 13  2  0
 21 22  1  0
  8  9  2  0
 22 23  2  0
 23 24  1  0
 13 14  1  0
  6  7  2  0
 14 15  2  0
  9 10  1  0
 24 25  1  0
 25 26  1  0
 26 27  2  0
 27 23  1  0
 15 16  1  0
 27 28  1  0
 16 11  2  0
 24 29  2  0
  5 11  1  0
 25 30  1  0
 10  5  2  0
 30 31  2  0
 15 17  1  0
 31 32  1  0
  5  6  1  0
 32 33  2  0
  7  8  1  0
 33 34  1  0
 17 18  1  0
 34 35  2  0
 35 30  1  0
 17 19  2  0
 33 36  1  0
 11 12  1  0
 32 37  1  0
 41 38  1  0
 38 39  1  0
 39 40  1  0
  1 42  1  0
  1 43  1  0
  2 44  1  0
  2 45  1  0
  3 46  1  0
  3 47  1  0
  4 48  1  0
  6 49  1  0
  7 50  1  0
  8 51  1  0
 12 52  1  0
 13 53  1  0
 14 54  1  0
 16 55  1  0
 18 56  1  0
 20 57  1  0
 21 58  1  0
 28 59  1  0
 28 60  1  0
 28 61  1  0
 31 62  1  0
 34 63  1  0
 35 64  1  0
 36 65  1  0
 36 66  1  0
 36 67  1  0
 37 68  1  0
 37 69  1  0
 37 70  1  0
 38 71  1  0
 38 72  1  0
 39 73  1  0
 39 74  1  0
 40 75  1  0
 40 76  1  0
 41 77  1  0
M  END
> <Uni-Dock RESULT> 
ENERGY=   -5.024  LOWER_BOUND=    4.458  UPPER_BOUND=    7.274
INTER + INTRA:          -5.024
INTER:                  -5.024
INTRA:                   0.000
UNBOUND:                 0.000

$$$$

     RDKit          3D

 77 78  0  0  0  0  0  0  0  0999 V2000
   48.0287    9.1021   12.9560 C   0  0  0  0  0  0  0  0  0  0  0  0
   47.5725    8.2172   14.1216 C   0  0  0  0  0  0  0  0  0  0  0  0
   48.6586    7.8512   15.0258 N   0  0  0  0  0  0  0  0  0  0  0  0
   46.9405    9.3932   12.0893 O   0  0  0  0  0  0  0  0  0  0  0  0
   51.2314    7.7418   16.3626 C   0  0  0  0  0  0  0  0  0  0  0  0
   51.9004    8.9290   16.7082 C   0  0  0  0  0  0  0  0  0  0  0  0
   51.5369   10.1553   16.1498 C   0  0  0  0  0  0  0  0  0  0  0  0
   50.4825   10.2256   15.2401 C   0  0  0  0  0  0  0  0  0  0  0  0
   49.7664    9.0764   14.8816 C   0  0  0  0  0  0  0  0  0  0  0  0
   50.1681    7.8444   15.4441 C   0  0  0  0  0  0  0  0  0  0  0  0
   51.6692    6.4575   16.9467 C   0  0  0  0  0  0  0  0  0  0  0  0
   50.7688    5.6077   17.6114 C   0  0  0  0  0  0  0  0  0  0  0  0
   51.1922    4.4022   18.1790 C   0  0  0  0  0  0  0  0  0  0  0  0
   52.5322    4.0241   18.0946 C   0  0  0  0  0  0  0  0  0  0  0  0
   53.4480    4.8492   17.4357 C   0  0  0  0  0  0  0  0  0  0  0  0
   53.0143    6.0557   16.8679 C   0  0  0  0  0  0  0  0  0  0  0  0
   54.8850    4.5016   17.3222 C   0  0  0  0  0  0  0  0  0  0  0  0
   55.1698    3.2778   17.8046 O   0  0  0  0  0  0  0  0  0  0  0  0
   55.7542    5.2125   16.8501 O   0  0  0  0  0  0  0  0  0  0  0  0
   49.5097    6.7004   15.0528 O   0  0  0  0  0  0  0  0  0  0  0  0
   48.7319    9.1956   13.9220 N   0  0  0  0  0  0  0  0  0  0  0  0
   47.8606    8.1766   13.6890 N   0  0  0  0  0  0  0  0  0  0  0  0
   46.7979    8.4808   13.0082 C   0  0  0  0  0  0  0  0  0  0  0  0
   46.3503    9.7909   12.4373 C   0  0  0  0  0  0  0  0  0  0  0  0
   45.1463    9.4484   11.8308 N   0  0  0  0  0  0  0  0  0  0  0  0
   44.7930    8.0920   11.9663 N   0  0  0  0  0  0  0  0  0  0  0  0
   45.7367    7.5092   12.6441 C   0  0  0  0  0  0  0  0  0  0  0  0
   45.8052    6.0829   13.0400 C   0  0  0  0  0  0  0  0  0  0  0  0
   46.9817   10.8204   12.5641 O   0  0  0  0  0  0  0  0  0  0  0  0
   44.2656   10.3018   11.1198 C   0  0  0  0  0  0  0  0  0  0  0  0
   44.5491   11.6598   10.9211 C   0  0  0  0  0  0  0  0  0  0  0  0
   43.6729   12.5031   10.2076 C   0  0  0  0  0  0  0  0  0  0  0  0
   42.4689   11.9814    9.7026 C   0  0  0  0  0  0  0  0  0  0  0  0
   42.1861   10.6232    9.8926 C   0  0  0  0  0  0  0  0  0  0  0  0
   43.0713    9.7971   10.5907 C   0  0  0  0  0  0  0  0  0  0  0  0
   41.4947   12.8358    8.9383 C   0  0  0  0  0  0  0  0  0  0  0  0
   44.0326   13.9555   10.0393 C   0  0  0  0  0  0  0  0  0  0  0  0
   47.1226    8.7410   13.4378 C   0  0  0  0  0  0  0  0  0  0  0  0
   47.9927    8.4091   14.6546 C   0  0  0  0  0  0  0  0  0  0  0  0
   49.4158    8.3404   14.3043 N   0  0  0  0  0  0  0  0  0  0  0  0
   47.5819    9.9465   12.8298 O   0  0  0  0  0  0  0  0  0  0  0  0
   48.8001    8.5963   12.3672 H   0  0  0  0  0  0  0  0  0  0  0  0
   48.4435   10.0481   13.3183 H   0  0  0  0  0  0  0  0  0  0  0  0
   46.7929    8.7381   14.6887 H   0  0  0  0  0  0  0  0  0  0  0  0
   47.1003    7.3085   13.7308 H   0  0  0  0  0  0  0  0  0  0  0  0
   49.1299    8.6894   15.3654 H   0  0  0  0  0  0  0  0  0  0  0  0
   49.3629    7.3187   14.5147 H   0  0  0  0  0  0  0  0  0  0  0  0
   46.2589    9.8467   12.6158 H   0  0  0  0  0  0  0  0  0  0  0  0
   52.7226    8.9039   17.4211 H   0  0  0  0  0  0  0  0  0  0  0  0
   52.0821   11.0555   16.4195 H   0  0  0  0  0  0  0  0  0  0  0  0
   50.2270   11.1895   14.8088 H   0  0  0  0  0  0  0  0  0  0  0  0
   49.7192    5.8864   17.6856 H   0  0  0  0  0  0  0  0  0  0  0  0
   50.4747    3.7621   18.6872 H   0  0  0  0  0  0  0  0  0  0  0  0
   52.8505    3.0872   18.5433 H   0  0  0  0  0  0  0  0  0  0  0  0
   53.7340    6.6843   16.3450 H   0  0  0  0  0  0  0  0  0  0  0  0
   56.1331    3.1854   17.6498 H   0  0  0  0  0  0  0  0  0  0  0  0
   48.8528    7.0401   14.4063 H   0  0  0  0  0  0  0  0  0  0  0  0
   48.4700   10.1656   13.6982 H   0  0  0  0  0  0  0  0  0  0  0  0
   46.7268    5.6366   12.6554 H   0  0  0  0  0  0  0  0  0  0  0  0
   44.9494    5.5385   12.6330 H   0  0  0  0  0  0  0  0  0  0  0  0
   45.7931    6.0042   14.1298 H   0  0  0  0  0  0  0  0  0  0  0  0
   45.4617   12.0973   11.3153 H   0  0  0  0  0  0  0  0  0  0  0  0
   41.2681   10.1918    9.4988 H   0  0  0  0  0  0  0  0  0  0  0  0
   42.8056    8.7493   10.7166 H   0  0  0  0  0  0  0  0  0  0  0  0
   41.9029   13.0814    7.9521 H   0  0  0  0  0  0  0  0  0  0  0  0
   41.2776   13.7600    9.4846 H   0  0  0  0  0  0  0  0  0  0  0  0
   40.5407   12.3187    8.7894 H   0  0  0  0  0  0  0  0  0  0  0  0
   43.4199   14.5730   10.7035 H   0  0  0  0  0  0  0  0  0  0  0  0
   45.0854   14.1368   10.2782 H   0  0  0  0  0  0  0  0  0  0  0  0
   43.8827   14.2739    9.0024 H   0  0  0  0  0  0  0  0  0  0  0  0
   47.1713    7.9394   12.6937 H   0  0  0  0  0  0  0  0  0  0  0  0
   46.0816    8.8785   13.7466 H   0  0  0  0  0  0  0  0  0  0  0  0
   47.6732    7.4605   15.0979 H   0  0  0  0  0  0  0  0  0  0  0  0
   47.8737    9.1905   15.4123 H   0  0  0  0  0  0  0  0  0  0  0  0
   49.5460    7.6427   13.5745 H   0  0  0  0  0  0  0  0  0  0  0  0
   49.6419    9.2288   13.8447 H   0  0  0  0  0  0  0  0  0  0  0  0
   46.9526   10.1619   12.1189 H   0  0  0  0  0  0  0  0  0  0  0  0
  4  1  1  0
  1  2  1  0
  2  3  1  0
 10 20  1  0
  9 21  1  0
 12 13  2  0
 21 22  1  0
  8  9  2  0
 22 23  2  0
 23 24  1  0
 13 14  1  0
  6  7  2  0
 14 15  2  0
  9 10  1  0
 24 25  1  0
 25 26  1  0
 26 27  2  0
 27 23  1  0
 15 16  1  0
 27 28  1  0
 16 11  2  0
 24 29  2  0
  5 11  1  0
 25 30  1  0
 10  5  2  0
 30 31  2  0
 15 17  1  0
 31 32  1  0
  5  6  1  0
 32 33  2  0
  7  8  1  0
 33 34  1  0
 17 18  1  0
 34 35  2  0
 35 30  1  0
 17 19  2  0
 33 36  1  0
 11 12  1  0
 32 37  1  0
 41 38  1  0
 38 39  1  0
 39 40  1  0
  1 42  1  0
  1 43  1  0
  2 44  1  0
  2 45  1  0
  3 46  1  0
  3 47  1  0
  4 48  1  0
  6 49  1  0
  7 50  1  0
  8 51  1  0
 12 52  1  0
 13 53  1  0
 14 54  1  0
 16 55  1  0
 18 56  1  0
 20 57  1  0
 21 58  1  0
 28 59  1  0
 28 60  1  0
 28 61  1  0
 31 62  1  0
 34 63  1  0
 35 64  1  0
 36 65  1  0
 36 66  1  0
 36 67  1  0
 37 68  1  0
 37 69  1  0
 37 70  1  0
 38 71  1  0
 38 72  1  0
 39 73  1  0
 39 74  1  0
 40 75  1  0
 40 76  1  0
 41 77  1  0
M  END
> <Uni-Dock RESULT> 
ENERGY=   -4.880  LOWER_BOUND=    5.308  UPPER_BOUND=   12.487
INTER + INTRA:          -4.880
INTER:                  -4.880
INTRA:                   0.000
UNBOUND:                 0.000

$$$$

     RDKit          3D

 77 78  0  0  0  0  0  0  0  0999 V2000
   49.2428    7.8420   15.6704 C   0  0  0  0  0  0  0  0  0  0  0  0
   48.4805    6.9792   14.6584 C   0  0  0  0  0  0  0  0  0  0  0  0
   47.6721    7.7619   13.7283 N   0  0  0  0  0  0  0  0  0  0  0  0
   49.9792    7.0272   16.5726 O   0  0  0  0  0  0  0  0  0  0  0  0
   46.5322    9.9692   12.2295 C   0  0  0  0  0  0  0  0  0  0  0  0
   47.3662   10.9658   11.6931 C   0  0  0  0  0  0  0  0  0  0  0  0
   48.6855   11.1161   12.1227 C   0  0  0  0  0  0  0  0  0  0  0  0
   49.2082   10.2610   13.0920 C   0  0  0  0  0  0  0  0  0  0  0  0
   48.4276    9.2351   13.6399 C   0  0  0  0  0  0  0  0  0  0  0  0
   47.0889    9.1179   13.2042 C   0  0  0  0  0  0  0  0  0  0  0  0
   45.1301    9.8650   11.7762 C   0  0  0  0  0  0  0  0  0  0  0  0
   44.6034    8.6570   11.2883 C   0  0  0  0  0  0  0  0  0  0  0  0
   43.2812    8.5687   10.8427 C   0  0  0  0  0  0  0  0  0  0  0  0
   42.4578    9.6942   10.8739 C   0  0  0  0  0  0  0  0  0  0  0  0
   42.9556   10.9073   11.3579 C   0  0  0  0  0  0  0  0  0  0  0  0
   44.2824   10.9864   11.8043 C   0  0  0  0  0  0  0  0  0  0  0  0
   42.1284   12.1370   11.4072 C   0  0  0  0  0  0  0  0  0  0  0  0
   40.8463   11.9228   11.0583 O   0  0  0  0  0  0  0  0  0  0  0  0
   42.5201   13.2461   11.7236 O   0  0  0  0  0  0  0  0  0  0  0  0
   46.2953    8.1512   13.7797 O   0  0  0  0  0  0  0  0  0  0  0  0
   48.9930    8.4210   14.6511 N   0  0  0  0  0  0  0  0  0  0  0  0
   48.3779    7.2818   15.0704 N   0  0  0  0  0  0  0  0  0  0  0  0
   49.1008    6.4745   15.7851 C   0  0  0  0  0  0  0  0  0  0  0  0
   50.5293    6.5770   16.2230 C   0  0  0  0  0  0  0  0  0  0  0  0
   50.6950    5.4051   16.9536 N   0  0  0  0  0  0  0  0  0  0  0  0
   49.5484    4.5896   17.0113 N   0  0  0  0  0  0  0  0  0  0  0  0
   48.6093    5.1897   16.3423 C   0  0  0  0  0  0  0  0  0  0  0  0
   47.2238    4.7135   16.1197 C   0  0  0  0  0  0  0  0  0  0  0  0
   51.2494    7.5084   15.9252 O   0  0  0  0  0  0  0  0  0  0  0  0
   51.8661    4.9615   17.6179 C   0  0  0  0  0  0  0  0  0  0  0  0
   53.0448    5.7195   17.6277 C   0  0  0  0  0  0  0  0  0  0  0  0
   54.2051    5.2769   18.2952 C   0  0  0  0  0  0  0  0  0  0  0  0
   54.1952    4.0312   18.9474 C   0  0  0  0  0  0  0  0  0  0  0  0
   53.0169    3.2748   18.9461 C   0  0  0  0  0  0  0  0  0  0  0  0
   51.8707    3.7335   18.2910 C   0  0  0  0  0  0  0  0  0  0  0  0
   55.4054    3.5069   19.6710 C   0  0  0  0  0  0  0  0  0  0  0  0
   55.4416    6.1353   18.2579 C   0  0  0  0  0  0  0  0  0  0  0  0
   49.1887    6.8190   15.3043 C   0  0  0  0  0  0  0  0  0  0  0  0
   48.4616    7.3774   14.0765 C   0  0  0  0  0  0  0  0  0  0  0  0
   47.9197    8.7176   14.3271 N   0  0  0  0  0  0  0  0  0  0  0  0
   50.1989    7.7337   15.7250 O   0  0  0  0  0  0  0  0  0  0  0  0
   48.5487    8.4504   16.2583 H   0  0  0  0  0  0  0  0  0  0  0  0
   49.9420    8.5164   15.1657 H   0  0  0  0  0  0  0  0  0  0  0  0
   49.1936    6.3710   14.0907 H   0  0  0  0  0  0  0  0  0  0  0  0
   47.8390    6.2677   15.1910 H   0  0  0  0  0  0  0  0  0  0  0  0
   48.2527    8.4538   13.2551 H   0  0  0  0  0  0  0  0  0  0  0  0
   46.9702    8.2898   14.2476 H   0  0  0  0  0  0  0  0  0  0  0  0
   50.5981    6.4914   16.0462 H   0  0  0  0  0  0  0  0  0  0  0  0
   46.9858   11.6427   10.9301 H   0  0  0  0  0  0  0  0  0  0  0  0
   49.3035   11.9063   11.7056 H   0  0  0  0  0  0  0  0  0  0  0  0
   50.2338   10.4063   13.4198 H   0  0  0  0  0  0  0  0  0  0  0  0
   45.2314    7.7684   11.2579 H   0  0  0  0  0  0  0  0  0  0  0  0
   42.8978    7.6213   10.4707 H   0  0  0  0  0  0  0  0  0  0  0  0
   41.4334    9.6146   10.5209 H   0  0  0  0  0  0  0  0  0  0  0  0
   44.6555   11.9335   12.1922 H   0  0  0  0  0  0  0  0  0  0  0  0
   40.4295   12.8049   11.1520 H   0  0  0  0  0  0  0  0  0  0  0  0
   46.9031    7.7302   14.4264 H   0  0  0  0  0  0  0  0  0  0  0  0
   50.0083    8.5394   14.7734 H   0  0  0  0  0  0  0  0  0  0  0  0
   46.5132    5.4594   16.4872 H   0  0  0  0  0  0  0  0  0  0  0  0
   47.0597    3.7731   16.6520 H   0  0  0  0  0  0  0  0  0  0  0  0
   47.0589    4.5528   15.0515 H   0  0  0  0  0  0  0  0  0  0  0  0
   53.0903    6.6770   17.1169 H   0  0  0  0  0  0  0  0  0  0  0  0
   52.9790    2.3143   19.4561 H   0  0  0  0  0  0  0  0  0  0  0  0
   50.9805    3.1079   18.3140 H   0  0  0  0  0  0  0  0  0  0  0  0
   55.5748    4.0828   20.5871 H   0  0  0  0  0  0  0  0  0  0  0  0
   56.2941    3.5647   19.0333 H   0  0  0  0  0  0  0  0  0  0  0  0
   55.2791    2.4557   19.9517 H   0  0  0  0  0  0  0  0  0  0  0  0
   56.1762    5.7051   17.5700 H   0  0  0  0  0  0  0  0  0  0  0  0
   55.2125    7.1517   17.9219 H   0  0  0  0  0  0  0  0  0  0  0  0
   55.8827    6.2226   19.2563 H   0  0  0  0  0  0  0  0  0  0  0  0
   48.4917    6.6692   16.1351 H   0  0  0  0  0  0  0  0  0  0  0  0
   49.6617    5.8631   15.0584 H   0  0  0  0  0  0  0  0  0  0  0  0
   47.6549    6.7006   13.7771 H   0  0  0  0  0  0  0  0  0  0  0  0
   49.1638    7.4533   13.2398 H   0  0  0  0  0  0  0  0  0  0  0  0
   47.2889    8.6782   15.1251 H   0  0  0  0  0  0  0  0  0  0  0  0
   48.7053    9.2884   14.6568 H   0  0  0  0  0  0  0  0  0  0  0  0
   50.6869    7.3024   16.4485 H   0  0  0  0  0  0  0  0  0  0  0  0
  4  1  1  0
  1  2  1  0
  2  3  1  0
 10 20  1  0
  9 21  1  0
 12 13  2  0
 21 22  1  0
  8  9  2  0
 22 23  2  0
 23 24  1  0
 13 14  1  0
  6  7  2  0
 14 15  2  0
  9 10  1  0
 24 25  1  0
 25 26  1  0
 26 27  2  0
 27 23  1  0
 15 16  1  0
 27 28  1  0
 16 11  2  0
 24 29  2  0
  5 11  1  0
 25 30  1  0
 10  5  2  0
 30 31  2  0
 15 17  1  0
 31 32  1  0
  5  6  1  0
 32 33  2  0
  7  8  1  0
 33 34  1  0
 17 18  1  0
 34 35  2  0
 35 30  1  0
 17 19  2  0
 33 36  1  0
 11 12  1  0
 32 37  1  0
 41 38  1  0
 38 39  1  0
 39 40  1  0
  1 42  1  0
  1 43  1  0
  2 44  1  0
  2 45  1  0
  3 46  1  0
  3 47  1  0
  4 48  1  0
  6 49  1  0
  7 50  1  0
  8 51  1  0
 12 52  1  0
 13 53  1  0
 14 54  1  0
 16 55  1  0
 18 56  1  0
 20 57  1  0
 21 58  1  0
 28 59  1  0
 28 60  1  0
 28 61  1  0
 31 62  1  0
 34 63  1  0
 35 64  1  0
 36 65  1  0
 36 66  1  0
 36 67  1  0
 37 68  1  0
 37 69  1  0
 37 70  1  0
 38 71  1  0
 38 72  1  0
 39 73  1  0
 39 74  1  0
 40 75  1  0
 40 76  1  0
 41 77  1  0
M  END
> <Uni-Dock RESULT> 
ENERGY=   -4.750  LOWER_BOUND=    5.317  UPPER_BOUND=    9.039
INTER + INTRA:          -4.750
INTER:                  -4.750
INTRA:                   0.000
UNBOUND:                 0.000

$$$$

     RDKit          3D

 77 78  0  0  0  0  0  0  0  0999 V2000
   44.9136   10.5925   11.8962 C   0  0  0  0  0  0  0  0  0  0  0  0
   46.4427   10.6347   11.9948 C   0  0  0  0  0  0  0  0  0  0  0  0
   47.0130    9.4401   12.6105 N   0  0  0  0  0  0  0  0  0  0  0  0
   44.4127   11.7946   11.3268 O   0  0  0  0  0  0  0  0  0  0  0  0
   47.3301    6.7753   13.7135 C   0  0  0  0  0  0  0  0  0  0  0  0
   46.7805    5.6647   13.0496 C   0  0  0  0  0  0  0  0  0  0  0  0
   45.8136    5.8194   12.0552 C   0  0  0  0  0  0  0  0  0  0  0  0
   45.3823    7.0941   11.6899 C   0  0  0  0  0  0  0  0  0  0  0  0
   45.9168    8.2351   12.3020 C   0  0  0  0  0  0  0  0  0  0  0  0
   46.8779    8.0505   13.3206 C   0  0  0  0  0  0  0  0  0  0  0  0
   48.3244    6.5694   14.7865 C   0  0  0  0  0  0  0  0  0  0  0  0
   49.5754    7.2089   14.7616 C   0  0  0  0  0  0  0  0  0  0  0  0
   50.5201    6.9957   15.7699 C   0  0  0  0  0  0  0  0  0  0  0  0
   50.2306    6.1312   16.8257 C   0  0  0  0  0  0  0  0  0  0  0  0
   48.9922    5.4852   16.8765 C   0  0  0  0  0  0  0  0  0  0  0  0
   48.0500    5.7062   15.8618 C   0  0  0  0  0  0  0  0  0  0  0  0
   48.6334    4.5505   17.9702 C   0  0  0  0  0  0  0  0  0  0  0  0
   49.5631    4.4961   18.9419 O   0  0  0  0  0  0  0  0  0  0  0  0
   47.6175    3.8810   18.0298 O   0  0  0  0  0  0  0  0  0  0  0  0
   47.3656    9.1622   13.9699 O   0  0  0  0  0  0  0  0  0  0  0  0
   45.4143    9.5039   11.9241 N   0  0  0  0  0  0  0  0  0  0  0  0
   46.0295   10.6540   12.3122 N   0  0  0  0  0  0  0  0  0  0  0  0
   45.6618   11.7335   11.6918 C   0  0  0  0  0  0  0  0  0  0  0  0
   44.6676   11.9313   10.5893 C   0  0  0  0  0  0  0  0  0  0  0  0
   44.7387   13.3039   10.3756 N   0  0  0  0  0  0  0  0  0  0  0  0
   45.6603   13.9736   11.2033 N   0  0  0  0  0  0  0  0  0  0  0  0
   46.2074   13.0839   11.9772 C   0  0  0  0  0  0  0  0  0  0  0  0
   47.2408   13.3128   13.0143 C   0  0  0  0  0  0  0  0  0  0  0  0
   44.0374   11.0197   10.0927 O   0  0  0  0  0  0  0  0  0  0  0  0
   44.0051   14.0689    9.4343 C   0  0  0  0  0  0  0  0  0  0  0  0
   43.0541   13.4863    8.5858 C   0  0  0  0  0  0  0  0  0  0  0  0
   42.3225   14.2527    7.6556 C   0  0  0  0  0  0  0  0  0  0  0  0
   42.5673   15.6334    7.5522 C   0  0  0  0  0  0  0  0  0  0  0  0
   43.5112   16.2201    8.4038 C   0  0  0  0  0  0  0  0  0  0  0  0
   44.2189   15.4490    9.3301 C   0  0  0  0  0  0  0  0  0  0  0  0
   41.8200   16.4988    6.5745 C   0  0  0  0  0  0  0  0  0  0  0  0
   41.3229   13.5623    6.7659 C   0  0  0  0  0  0  0  0  0  0  0  0
   45.7673   11.1648   11.5397 C   0  0  0  0  0  0  0  0  0  0  0  0
   46.6362    9.9607   11.9181 C   0  0  0  0  0  0  0  0  0  0  0  0
   45.9485    9.0660   12.8557 N   0  0  0  0  0  0  0  0  0  0  0  0
   44.5147   10.7148   11.0275 O   0  0  0  0  0  0  0  0  0  0  0  0
   44.4664   10.4798   12.8885 H   0  0  0  0  0  0  0  0  0  0  0  0
   44.5817    9.7532   11.2767 H   0  0  0  0  0  0  0  0  0  0  0  0
   46.8674   10.7599   10.9925 H   0  0  0  0  0  0  0  0  0  0  0  0
   46.7505   11.5207   12.5621 H   0  0  0  0  0  0  0  0  0  0  0  0
   46.7013    8.6062   12.1131 H   0  0  0  0  0  0  0  0  0  0  0  0
   46.6624    9.3477   13.5641 H   0  0  0  0  0  0  0  0  0  0  0  0
   44.8093   11.8885   10.4430 H   0  0  0  0  0  0  0  0  0  0  0  0
   47.1041    4.6585   13.3102 H   0  0  0  0  0  0  0  0  0  0  0  0
   45.3910    4.9438   11.5705 H   0  0  0  0  0  0  0  0  0  0  0  0
   44.6190    7.1883   10.9226 H   0  0  0  0  0  0  0  0  0  0  0  0
   49.8177    7.8877   13.9460 H   0  0  0  0  0  0  0  0  0  0  0  0
   51.4807    7.5040   15.7275 H   0  0  0  0  0  0  0  0  0  0  0  0
   50.9743    5.9699   17.6012 H   0  0  0  0  0  0  0  0  0  0  0  0
   47.0830    5.2080   15.9189 H   0  0  0  0  0  0  0  0  0  0  0  0
   49.1870    3.8625   19.5882 H   0  0  0  0  0  0  0  0  0  0  0  0
   46.8799    9.8967   13.5343 H   0  0  0  0  0  0  0  0  0  0  0  0
   44.8148    9.4912   11.0873 H   0  0  0  0  0  0  0  0  0  0  0  0
   46.8784   12.9552   13.9823 H   0  0  0  0  0  0  0  0  0  0  0  0
   47.4665   14.3794   13.0907 H   0  0  0  0  0  0  0  0  0  0  0  0
   48.1528   12.7729   12.7480 H   0  0  0  0  0  0  0  0  0  0  0  0
   42.8559   12.4192    8.6278 H   0  0  0  0  0  0  0  0  0  0  0  0
   43.7082   17.2891    8.3538 H   0  0  0  0  0  0  0  0  0  0  0  0
   44.9455   15.9495    9.9672 H   0  0  0  0  0  0  0  0  0  0  0  0
   40.7802   16.6191    6.8968 H   0  0  0  0  0  0  0  0  0  0  0  0
   41.8433   16.0598    5.5712 H   0  0  0  0  0  0  0  0  0  0  0  0
   42.2677   17.4956    6.4996 H   0  0  0  0  0  0  0  0  0  0  0  0
   41.7226   13.4735    5.7509 H   0  0  0  0  0  0  0  0  0  0  0  0
   41.0902   12.5569    7.1312 H   0  0  0  0  0  0  0  0  0  0  0  0
   40.3793   14.1173    6.7401 H   0  0  0  0  0  0  0  0  0  0  0  0
   45.5757   11.7967   12.4129 H   0  0  0  0  0  0  0  0  0  0  0  0
   46.2668   11.7615   10.7701 H   0  0  0  0  0  0  0  0  0  0  0  0
   47.5808   10.3009   12.3545 H   0  0  0  0  0  0  0  0  0  0  0  0
   46.8710    9.3831   11.0181 H   0  0  0  0  0  0  0  0  0  0  0  0
   45.6889    9.5913   13.6881 H   0  0  0  0  0  0  0  0  0  0  0  0
   45.0513    8.8275   12.4200 H   0  0  0  0  0  0  0  0  0  0  0  0
   44.0337   11.5046   10.7233 H   0  0  0  0  0  0  0  0  0  0  0  0
  4  1  1  0
  1  2  1  0
  2  3  1  0
 10 20  1  0
  9 21  1  0
 12 13  2  0
 21 22  1  0
  8  9  2  0
 22 23  2  0
 23 24  1  0
 13 14  1  0
  6  7  2  0
 14 15  2  0
  9 10  1  0
 24 25  1  0
 25 26  1  0
 26 27  2  0
 27 23  1  0
 15 16  1  0
 27 28  1  0
 16 11  2  0
 24 29  2  0
  5 11  1  0
 25 30  1  0
 10  5  2  0
 30 31  2  0
 15 17  1  0
 31 32  1  0
  5  6  1  0
 32 33  2  0
  7  8  1  0
 33 34  1  0
 17 18  1  0
 34 35  2  0
 35 30  1  0
 17 19  2  0
 33 36  1  0
 11 12  1  0
 32 37  1  0
 41 38  1  0
 38 39  1  0
 39 40  1  0
  1 42  1  0
  1 43  1  0
  2 44  1  0
  2 45  1  0
  3 46  1  0
  3 47  1  0
  4 48  1  0
  6 49  1  0
  7 50  1  0
  8 51  1  0
 12 52  1  0
 13 53  1  0
 14 54  1  0
 16 55  1  0
 18 56  1  0
 20 57  1  0
 21 58  1  0
 28 59  1  0
 28 60  1  0
 28 61  1  0
 31 62  1  0
 34 63  1  0
 35 64  1  0
 36 65  1  0
 36 66  1  0
 36 67  1  0
 37 68  1  0
 37 69  1  0
 37 70  1  0
 38 71  1  0
 38 72  1  0
 39 73  1  0
 39 74  1  0
 40 75  1  0
 40 76  1  0
 41 77  1  0
M  END
> <Uni-Dock RESULT> 
ENERGY=   -4.670  LOWER_BOUND=    3.525  UPPER_BOUND=   10.717
INTER + INTRA:          -4.670
INTER:                  -4.670
INTRA:                   0.000
UNBOUND:                 0.000

$$$$

     RDKit          3D

 77 78  0  0  0  0  0  0  0  0999 V2000
   50.8058    8.5588   16.5612 C   0  0  0  0  0  0  0  0  0  0  0  0
   50.5637    7.0492   16.4494 C   0  0  0  0  0  0  0  0  0  0  0  0
   49.6468    6.6916   15.3711 N   0  0  0  0  0  0  0  0  0  0  0  0
   51.6723    8.8502   17.6494 O   0  0  0  0  0  0  0  0  0  0  0  0
   47.9612    6.8178   13.0129 C   0  0  0  0  0  0  0  0  0  0  0  0
   48.4185    7.4617   11.8499 C   0  0  0  0  0  0  0  0  0  0  0  0
   49.5157    8.3235   11.8817 C   0  0  0  0  0  0  0  0  0  0  0  0
   50.1930    8.5513   13.0790 C   0  0  0  0  0  0  0  0  0  0  0  0
   49.7942    7.9145   14.2612 C   0  0  0  0  0  0  0  0  0  0  0  0
   48.6674    7.0642   14.2068 C   0  0  0  0  0  0  0  0  0  0  0  0
   46.7737    5.9416   12.9466 C   0  0  0  0  0  0  0  0  0  0  0  0
   46.8103    4.6175   13.4157 C   0  0  0  0  0  0  0  0  0  0  0  0
   45.6890    3.7866   13.3331 C   0  0  0  0  0  0  0  0  0  0  0  0
   44.5048    4.2664   12.7735 C   0  0  0  0  0  0  0  0  0  0  0  0
   44.4402    5.5809   12.3027 C   0  0  0  0  0  0  0  0  0  0  0  0
   45.5692    6.4078   12.3910 C   0  0  0  0  0  0  0  0  0  0  0  0
   43.2109    6.1415   11.6919 C   0  0  0  0  0  0  0  0  0  0  0  0
   42.1614    5.3012   11.7561 O   0  0  0  0  0  0  0  0  0  0  0  0
   43.1100    7.2398   11.1750 O   0  0  0  0  0  0  0  0  0  0  0  0
   48.2309    6.4803   15.3747 O   0  0  0  0  0  0  0  0  0  0  0  0
   50.4897    8.2125   15.4581 N   0  0  0  0  0  0  0  0  0  0  0  0
   50.3020    7.4782   16.5884 N   0  0  0  0  0  0  0  0  0  0  0  0
   51.1776    7.6508   17.5312 C   0  0  0  0  0  0  0  0  0  0  0  0
   52.3919    8.5258   17.5828 C   0  0  0  0  0  0  0  0  0  0  0  0
   52.8924    8.2552   18.8521 N   0  0  0  0  0  0  0  0  0  0  0  0
   52.1418    7.3149   19.5840 N   0  0  0  0  0  0  0  0  0  0  0  0
   51.1405    6.9509   18.8394 C   0  0  0  0  0  0  0  0  0  0  0  0
   50.0790    5.9748   19.1806 C   0  0  0  0  0  0  0  0  0  0  0  0
   52.7386    9.2349   16.6599 O   0  0  0  0  0  0  0  0  0  0  0  0
   54.0479    8.8081   19.4592 C   0  0  0  0  0  0  0  0  0  0  0  0
   54.8408    9.7640   18.8100 C   0  0  0  0  0  0  0  0  0  0  0  0
   55.9856   10.3156   19.4206 C   0  0  0  0  0  0  0  0  0  0  0  0
   56.3631    9.8804   20.7032 C   0  0  0  0  0  0  0  0  0  0  0  0
   55.5688    8.9310   21.3579 C   0  0  0  0  0  0  0  0  0  0  0  0
   54.4292    8.4035   20.7445 C   0  0  0  0  0  0  0  0  0  0  0  0
   57.5772   10.4306   21.4005 C   0  0  0  0  0  0  0  0  0  0  0  0
   56.7997   11.3312   18.6635 C   0  0  0  0  0  0  0  0  0  0  0  0
   51.1901    7.6119   16.9346 C   0  0  0  0  0  0  0  0  0  0  0  0
   50.4710    6.9432   15.7583 C   0  0  0  0  0  0  0  0  0  0  0  0
   49.4354    7.8119   15.1879 N   0  0  0  0  0  0  0  0  0  0  0  0
   51.7162    8.8728   16.5254 O   0  0  0  0  0  0  0  0  0  0  0  0
   49.8637    9.0886   16.7316 H   0  0  0  0  0  0  0  0  0  0  0  0
   51.2572    8.9543   15.6456 H   0  0  0  0  0  0  0  0  0  0  0  0
   51.5206    6.5393   16.2914 H   0  0  0  0  0  0  0  0  0  0  0  0
   50.1757    6.6674   17.4008 H   0  0  0  0  0  0  0  0  0  0  0  0
   49.9788    7.0754   14.4866 H   0  0  0  0  0  0  0  0  0  0  0  0
   48.7368    7.1205   15.5412 H   0  0  0  0  0  0  0  0  0  0  0  0
   52.5102    8.3808   17.4916 H   0  0  0  0  0  0  0  0  0  0  0  0
   47.9125    7.2964   10.9004 H   0  0  0  0  0  0  0  0  0  0  0  0
   49.8376    8.8234   10.9724 H   0  0  0  0  0  0  0  0  0  0  0  0
   51.0359    9.2367   13.0812 H   0  0  0  0  0  0  0  0  0  0  0  0
   47.7257    4.2269   13.8564 H   0  0  0  0  0  0  0  0  0  0  0  0
   45.7436    2.7658   13.7045 H   0  0  0  0  0  0  0  0  0  0  0  0
   43.6412    3.6101   12.7106 H   0  0  0  0  0  0  0  0  0  0  0  0
   45.5032    7.4346   12.0335 H   0  0  0  0  0  0  0  0  0  0  0  0
   41.4339    5.8056   11.3355 H   0  0  0  0  0  0  0  0  0  0  0  0
   48.8637    6.8294   16.0400 H   0  0  0  0  0  0  0  0  0  0  0  0
   51.3599    8.7453   15.3222 H   0  0  0  0  0  0  0  0  0  0  0  0
   49.0982    6.4520   19.0990 H   0  0  0  0  0  0  0  0  0  0  0  0
   50.2152    5.6138   20.2031 H   0  0  0  0  0  0  0  0  0  0  0  0
   50.1264    5.1268   18.4931 H   0  0  0  0  0  0  0  0  0  0  0  0
   54.5867   10.1066   17.8111 H   0  0  0  0  0  0  0  0  0  0  0  0
   55.8311    8.5888   22.3569 H   0  0  0  0  0  0  0  0  0  0  0  0
   53.8465    7.6648   21.2914 H   0  0  0  0  0  0  0  0  0  0  0  0
   57.3966   11.4656   21.7100 H   0  0  0  0  0  0  0  0  0  0  0  0
   58.4525   10.3931   20.7429 H   0  0  0  0  0  0  0  0  0  0  0  0
   57.8224    9.8486   22.2954 H   0  0  0  0  0  0  0  0  0  0  0  0
   57.7246   10.8737   18.2985 H   0  0  0  0  0  0  0  0  0  0  0  0
   56.2489   11.7232   17.8024 H   0  0  0  0  0  0  0  0  0  0  0  0
   57.0421   12.1870   19.3020 H   0  0  0  0  0  0  0  0  0  0  0  0
   50.5004    7.7803   17.7679 H   0  0  0  0  0  0  0  0  0  0  0  0
   52.0166    6.9816   17.2771 H   0  0  0  0  0  0  0  0  0  0  0  0
   50.0258    5.9959   16.0791 H   0  0  0  0  0  0  0  0  0  0  0  0
   51.1941    6.7228   14.9662 H   0  0  0  0  0  0  0  0  0  0  0  0
   48.7689    8.0588   15.9167 H   0  0  0  0  0  0  0  0  0  0  0  0
   49.8973    8.6986   14.9601 H   0  0  0  0  0  0  0  0  0  0  0  0
   52.2332    9.2194   17.2739 H   0  0  0  0  0  0  0  0  0  0  0  0
  4  1  1  0
  1  2  1  0
  2  3  1  0
 10 20  1  0
  9 21  1  0
 12 13  2  0
 21 22  1  0
  8  9  2  0
 22 23  2  0
 23 24  1  0
 13 14  1  0
  6  7  2  0
 14 15  2  0
  9 10  1  0
 24 25  1  0
 25 26  1  0
 26 27  2  0
 27 23  1  0
 15 16  1  0
 27 28  1  0
 16 11  2  0
 24 29  2  0
  5 11  1  0
 25 30  1  0
 10  5  2  0
 30 31  2  0
 15 17  1  0
 31 32  1  0
  5  6  1  0
 32 33  2  0
  7  8  1  0
 33 34  1  0
 17 18  1  0
 34 35  2  0
 35 30  1  0
 17 19  2  0
 33 36  1  0
 11 12  1  0
 32 37  1  0
 41 38  1  0
 38 39  1  0
 39 40  1  0
  1 42  1  0
  1 43  1  0
  2 44  1  0
  2 45  1  0
  3 46  1  0
  3 47  1  0
  4 48  1  0
  6 49  1  0
  7 50  1  0
  8 51  1  0
 12 52  1  0
 13 53  1  0
 14 54  1  0
 16 55  1  0
 18 56  1  0
 20 57  1  0
 21 58  1  0
 28 59  1  0
 28 60  1  0
 28 61  1  0
 31 62  1  0
 34 63  1  0
 35 64  1  0
 36 65  1  0
 36 66  1  0
 36 67  1  0
 37 68  1  0
 37 69  1  0
 37 70  1  0
 38 71  1  0
 38 72  1  0
 39 73  1  0
 39 74  1  0
 40 75  1  0
 40 76  1  0
 41 77  1  0
M  END
> <Uni-Dock RESULT> 
ENERGY=   -4.615  LOWER_BOUND=    7.565  UPPER_BOUND=   12.035
INTER + INTRA:          -4.615
INTER:                  -4.615
INTRA:                   0.000
UNBOUND:                 0.000

$$$$
