
     RDKit          3D

 77 78  0  0  0  0  0  0  0  0999 V2000
   44.1347    9.9738   11.6900 C   0  0  0  0  0  0  0  0  0  0  0  0
   44.2728   10.8761   10.4605 C   0  0  0  0  0  0  0  0  0  0  0  0
   43.4133   12.0533   10.5395 N   0  0  0  0  0  0  0  0  0  0  0  0
   44.9748    8.8310   11.5605 O   0  0  0  0  0  0  0  0  0  0  0  0
   45.6488    6.5209   12.3318 C   0  0  0  0  0  0  0  0  0  0  0  0
   46.8751    6.4800   13.0153 C   0  0  0  0  0  0  0  0  0  0  0  0
   47.4644    7.6462   13.4922 C   0  0  0  0  0  0  0  0  0  0  0  0
   46.8400    8.8745   13.2810 C   0  0  0  0  0  0  0  0  0  0  0  0
   45.6233    8.9749   12.5788 C   0  0  0  0  0  0  0  0  0  0  0  0
   45.0230    7.7758   12.1327 C   0  0  0  0  0  0  0  0  0  0  0  0
   45.0720    5.2587   11.8461 C   0  0  0  0  0  0  0  0  0  0  0  0
   44.3853    4.4032   12.7214 C   0  0  0  0  0  0  0  0  0  0  0  0
   43.8293    3.2074   12.2629 C   0  0  0  0  0  0  0  0  0  0  0  0
   43.9576    2.8479   10.9208 C   0  0  0  0  0  0  0  0  0  0  0  0
   44.6402    3.6869   10.0328 C   0  0  0  0  0  0  0  0  0  0  0  0
   45.1938    4.8876   10.4973 C   0  0  0  0  0  0  0  0  0  0  0  0
   44.8060    3.3457    8.6000 C   0  0  0  0  0  0  0  0  0  0  0  0
   44.1910    2.1973    8.2625 O   0  0  0  0  0  0  0  0  0  0  0  0
   45.4187    3.9996    7.7772 O   0  0  0  0  0  0  0  0  0  0  0  0
   43.8055    7.8272   11.4919 O   0  0  0  0  0  0  0  0  0  0  0  0
   45.0604   10.2720   12.4690 N   0  0  0  0  0  0  0  0  0  0  0  0
   43.9774   10.4822   11.6807 N   0  0  0  0  0  0  0  0  0  0  0  0
   43.8013   11.6813   11.2329 C   0  0  0  0  0  0  0  0  0  0  0  0
   44.6237   12.9179   11.4118 C   0  0  0  0  0  0  0  0  0  0  0  0
   43.9067   13.8526   10.6710 N   0  0  0  0  0  0  0  0  0  0  0  0
   42.7459   13.3407   10.0586 N   0  0  0  0  0  0  0  0  0  0  0  0
   42.6649   12.0804   10.3700 C   0  0  0  0  0  0  0  0  0  0  0  0
   41.6135   11.1200    9.9593 C   0  0  0  0  0  0  0  0  0  0  0  0
   45.6483   12.9510   12.0628 O   0  0  0  0  0  0  0  0  0  0  0  0
   44.2323   15.2165   10.4615 C   0  0  0  0  0  0  0  0  0  0  0  0
   43.4069   16.0289    9.6676 C   0  0  0  0  0  0  0  0  0  0  0  0
   43.6965   17.3872    9.4335 C   0  0  0  0  0  0  0  0  0  0  0  0
   44.8521   17.9497   10.0012 C   0  0  0  0  0  0  0  0  0  0  0  0
   45.6749   17.1417   10.8000 C   0  0  0  0  0  0  0  0  0  0  0  0
   45.3711   15.7956   11.0247 C   0  0  0  0  0  0  0  0  0  0  0  0
   45.2421   19.3906    9.8196 C   0  0  0  0  0  0  0  0  0  0  0  0
   42.7608   18.1911    8.5720 C   0  0  0  0  0  0  0  0  0  0  0  0
   43.8198   10.8878    9.9386 C   0  0  0  0  0  0  0  0  0  0  0  0
   43.9566   10.4763   11.4072 C   0  0  0  0  0  0  0  0  0  0  0  0
   45.3742   10.3209   11.7578 N   0  0  0  0  0  0  0  0  0  0  0  0
   44.6436   12.0254    9.6885 O   0  0  0  0  0  0  0  0  0  0  0  0
   44.4346   10.5096   12.5969 H   0  0  0  0  0  0  0  0  0  0  0  0
   43.1017    9.6330   11.8212 H   0  0  0  0  0  0  0  0  0  0  0  0
   44.0242   10.3046    9.5589 H   0  0  0  0  0  0  0  0  0  0  0  0
   45.3182   11.1859   10.3490 H   0  0  0  0  0  0  0  0  0  0  0  0
   43.5689   12.6373    9.7176 H   0  0  0  0  0  0  0  0  0  0  0  0
   43.6873   12.6210   11.3413 H   0  0  0  0  0  0  0  0  0  0  0  0
   44.6090    8.2901   10.8396 H   0  0  0  0  0  0  0  0  0  0  0  0
   47.3775    5.5285   13.1799 H   0  0  0  0  0  0  0  0  0  0  0  0
   48.4081    7.6016   14.0291 H   0  0  0  0  0  0  0  0  0  0  0  0
   47.3146    9.7710   13.6734 H   0  0  0  0  0  0  0  0  0  0  0  0
   44.2788    4.6696   13.7727 H   0  0  0  0  0  0  0  0  0  0  0  0
   43.2981    2.5544   12.9516 H   0  0  0  0  0  0  0  0  0  0  0  0
   43.5219    1.9117   10.5775 H   0  0  0  0  0  0  0  0  0  0  0  0
   45.7246    5.5413    9.8057 H   0  0  0  0  0  0  0  0  0  0  0  0
   44.3937    2.0955    7.3086 H   0  0  0  0  0  0  0  0  0  0  0  0
   43.4544    6.9297   11.3949 H   0  0  0  0  0  0  0  0  0  0  0  0
   45.7439   11.0256   12.5981 H   0  0  0  0  0  0  0  0  0  0  0  0
   41.0939   10.7456   10.8454 H   0  0  0  0  0  0  0  0  0  0  0  0
   42.0685   10.2827    9.4247 H   0  0  0  0  0  0  0  0  0  0  0  0
   40.8919   11.6119    9.3025 H   0  0  0  0  0  0  0  0  0  0  0  0
   42.5119   15.6030    9.2183 H   0  0  0  0  0  0  0  0  0  0  0  0
   46.5707   17.5603   11.2563 H   0  0  0  0  0  0  0  0  0  0  0  0
   46.0485   15.2272   11.6551 H   0  0  0  0  0  0  0  0  0  0  0  0
   46.2846   19.4569    9.4865 H   0  0  0  0  0  0  0  0  0  0  0  0
   45.1351   19.9268   10.7696 H   0  0  0  0  0  0  0  0  0  0  0  0
   44.6340   19.9056    9.0695 H   0  0  0  0  0  0  0  0  0  0  0  0
   43.2804   18.5390    7.6719 H   0  0  0  0  0  0  0  0  0  0  0  0
   42.3729   19.0490    9.1302 H   0  0  0  0  0  0  0  0  0  0  0  0
   41.8989   17.5982    8.2481 H   0  0  0  0  0  0  0  0  0  0  0  0
   44.1425   10.0804    9.2726 H   0  0  0  0  0  0  0  0  0  0  0  0
   42.7846   11.1454    9.6977 H   0  0  0  0  0  0  0  0  0  0  0  0
   43.4083    9.5493   11.6014 H   0  0  0  0  0  0  0  0  0  0  0  0
   43.5421   11.2637   12.0458 H   0  0  0  0  0  0  0  0  0  0  0  0
   45.4414   10.0835   12.7491 H   0  0  0  0  0  0  0  0  0  0  0  0
   45.7602    9.5176   11.2605 H   0  0  0  0  0  0  0  0  0  0  0  0
   45.4366   11.8723   10.2425 H   0  0  0  0  0  0  0  0  0  0  0  0
  4  1  1  0
  1  2  1  0
  2  3  1  0
 10 20  1  0
  9 21  1  0
 12 13  2  0
 21 22  1  0
  8  9  2  0
 22 23  2  0
 23 24  1  0
 13 14  1  0
  6  7  2  0
 14 15  2  0
  9 10  1  0
 24 25  1  0
 25 26  1  0
 26 27  2  0
 27 23  1  0
 15 16  1  0
 27 28  1  0
 16 11  2  0
 24 29  2  0
  5 11  1  0
 25 30  1  0
 10  5  2  0
 30 31  2  0
 15 17  1  0
 31 32  1  0
  5  6  1  0
 32 33  2  0
  7  8  1  0
 33 34  1  0
 17 18  1  0
 34 35  2  0
 35 30  1  0
 17 19  2  0
 33 36  1  0
 11 12  1  0
 32 37  1  0
 41 38  1  0
 38 39  1  0
 39 40  1  0
  1 42  1  0
  1 43  1  0
  2 44  1  0
  2 45  1  0
  3 46  1  0
  3 47  1  0
  4 48  1  0
  6 49  1  0
  7 50  1  0
  8 51  1  0
 12 52  1  0
 13 53  1  0
 14 54  1  0
 16 55  1  0
 18 56  1  0
 20 57  1  0
 21 58  1  0
 28 59  1  0
 28 60  1  0
 28 61  1  0
 31 62  1  0
 34 63  1  0
 35 64  1  0
 36 65  1  0
 36 66  1  0
 36 67  1  0
 37 68  1  0
 37 69  1  0
 37 70  1  0
 38 71  1  0
 38 72  1  0
 39 73  1  0
 39 74  1  0
 40 75  1  0
 40 76  1  0
 41 77  1  0
M  END
> <Uni-Dock RESULT> 
ENERGY=   -6.731  LOWER_BOUND=    0.000  UPPER_BOUND=    0.000
INTER + INTRA:          -6.731
INTER:                  -6.731
INTRA:                   0.000
UNBOUND:                 0.000

$$$$

     RDKit          3D

 77 78  0  0  0  0  0  0  0  0999 V2000
   48.9780    6.8137   15.0084 C   0  0  0  0  0  0  0  0  0  0  0  0
   48.3083    8.1878   15.0999 C   0  0  0  0  0  0  0  0  0  0  0  0
   48.3591    8.9128   13.8340 N   0  0  0  0  0  0  0  0  0  0  0  0
   48.9219    6.1523   16.2685 O   0  0  0  0  0  0  0  0  0  0  0  0
   49.6948    4.2883   17.7896 C   0  0  0  0  0  0  0  0  0  0  0  0
   48.7318    3.2892   18.0067 C   0  0  0  0  0  0  0  0  0  0  0  0
   47.6078    3.1939   17.1929 C   0  0  0  0  0  0  0  0  0  0  0  0
   47.4244    4.1064   16.1552 C   0  0  0  0  0  0  0  0  0  0  0  0
   48.3452    5.1434   15.9105 C   0  0  0  0  0  0  0  0  0  0  0  0
   49.4980    5.2025   16.7259 C   0  0  0  0  0  0  0  0  0  0  0  0
   50.8621    4.3455   18.6817 C   0  0  0  0  0  0  0  0  0  0  0  0
   51.9447    3.4713   18.4992 C   0  0  0  0  0  0  0  0  0  0  0  0
   53.0586    3.5274   19.3392 C   0  0  0  0  0  0  0  0  0  0  0  0
   53.1022    4.4572   20.3786 C   0  0  0  0  0  0  0  0  0  0  0  0
   52.0318    5.3363   20.5779 C   0  0  0  0  0  0  0  0  0  0  0  0
   50.9174    5.2781   19.7301 C   0  0  0  0  0  0  0  0  0  0  0  0
   52.0307    6.3376   21.6706 C   0  0  0  0  0  0  0  0  0  0  0  0
   53.1713    6.3322   22.3847 O   0  0  0  0  0  0  0  0  0  0  0  0
   51.1246    7.1057   21.9335 O   0  0  0  0  0  0  0  0  0  0  0  0
   50.4495    6.1673   16.4823 O   0  0  0  0  0  0  0  0  0  0  0  0
   48.0763    5.9800   14.7973 N   0  0  0  0  0  0  0  0  0  0  0  0
   48.8216    7.0922   14.5826 N   0  0  0  0  0  0  0  0  0  0  0  0
   48.2750    8.0418   13.8979 C   0  0  0  0  0  0  0  0  0  0  0  0
   46.9073    8.1495   13.3019 C   0  0  0  0  0  0  0  0  0  0  0  0
   46.9447    9.4113   12.7164 N   0  0  0  0  0  0  0  0  0  0  0  0
   48.1674   10.0915   12.8811 N   0  0  0  0  0  0  0  0  0  0  0  0
   48.9553    9.3155   13.5658 C   0  0  0  0  0  0  0  0  0  0  0  0
   50.3478    9.5972   13.9880 C   0  0  0  0  0  0  0  0  0  0  0  0
   46.0680    7.2765   13.3925 O   0  0  0  0  0  0  0  0  0  0  0  0
   45.9005   10.0649   12.0146 C   0  0  0  0  0  0  0  0  0  0  0  0
   46.0942   11.3549   11.4948 C   0  0  0  0  0  0  0  0  0  0  0  0
   45.0818   12.0386   10.7939 C   0  0  0  0  0  0  0  0  0  0  0  0
   43.8333   11.4195   10.6153 C   0  0  0  0  0  0  0  0  0  0  0  0
   43.6395   10.1282   11.1281 C   0  0  0  0  0  0  0  0  0  0  0  0
   44.6563    9.4623   11.8191 C   0  0  0  0  0  0  0  0  0  0  0  0
   42.6936   12.0613    9.8733 C   0  0  0  0  0  0  0  0  0  0  0  0
   45.3687   13.4183   10.2665 C   0  0  0  0  0  0  0  0  0  0  0  0
   48.6554    8.7815   15.1680 C   0  0  0  0  0  0  0  0  0  0  0  0
   48.8314    7.3262   14.7254 C   0  0  0  0  0  0  0  0  0  0  0  0
   47.7618    6.4939   15.2910 N   0  0  0  0  0  0  0  0  0  0  0  0
   47.3253    9.2064   14.8751 O   0  0  0  0  0  0  0  0  0  0  0  0
   48.4645    6.1827   14.2751 H   0  0  0  0  0  0  0  0  0  0  0  0
   50.0280    6.9004   14.7076 H   0  0  0  0  0  0  0  0  0  0  0  0
   48.7998    8.7819   15.8789 H   0  0  0  0  0  0  0  0  0  0  0  0
   47.2662    8.0669   15.4175 H   0  0  0  0  0  0  0  0  0  0  0  0
   47.8699    9.8020   13.9375 H   0  0  0  0  0  0  0  0  0  0  0  0
   47.8449    8.3924   13.1234 H   0  0  0  0  0  0  0  0  0  0  0  0
   49.5000    6.6467   16.8746 H   0  0  0  0  0  0  0  0  0  0  0  0
   48.8585    2.5752   18.8186 H   0  0  0  0  0  0  0  0  0  0  0  0
   46.8745    2.4102   17.3633 H   0  0  0  0  0  0  0  0  0  0  0  0
   46.5435    4.0043   15.5254 H   0  0  0  0  0  0  0  0  0  0  0  0
   51.9240    2.7385   17.6929 H   0  0  0  0  0  0  0  0  0  0  0  0
   53.8916    2.8452   19.1854 H   0  0  0  0  0  0  0  0  0  0  0  0
   53.9752    4.4881   21.0275 H   0  0  0  0  0  0  0  0  0  0  0  0
   50.0842    5.9632   19.8847 H   0  0  0  0  0  0  0  0  0  0  0  0
   53.0238    7.0219   23.0657 H   0  0  0  0  0  0  0  0  0  0  0  0
   51.2405    5.9799   17.0090 H   0  0  0  0  0  0  0  0  0  0  0  0
   47.0929    5.9682   14.5063 H   0  0  0  0  0  0  0  0  0  0  0  0
   51.0222    8.8651   13.5358 H   0  0  0  0  0  0  0  0  0  0  0  0
   50.4220    9.5351   15.0763 H   0  0  0  0  0  0  0  0  0  0  0  0
   50.6413   10.5999   13.6676 H   0  0  0  0  0  0  0  0  0  0  0  0
   47.0553   11.8465   11.6315 H   0  0  0  0  0  0  0  0  0  0  0  0
   42.6820    9.6271   10.9932 H   0  0  0  0  0  0  0  0  0  0  0  0
   44.4412    8.4637   12.1876 H   0  0  0  0  0  0  0  0  0  0  0  0
   41.7823   12.0230   10.4818 H   0  0  0  0  0  0  0  0  0  0  0  0
   42.5175   11.5296    8.9311 H   0  0  0  0  0  0  0  0  0  0  0  0
   42.8767   13.1145    9.6390 H   0  0  0  0  0  0  0  0  0  0  0  0
   44.7086   14.1508   10.7451 H   0  0  0  0  0  0  0  0  0  0  0  0
   45.2284   13.4471    9.1815 H   0  0  0  0  0  0  0  0  0  0  0  0
   46.4013   13.7221   10.4684 H   0  0  0  0  0  0  0  0  0  0  0  0
   48.8169    8.8866   16.2462 H   0  0  0  0  0  0  0  0  0  0  0  0
   49.3560    9.4386   14.6451 H   0  0  0  0  0  0  0  0  0  0  0  0
   49.8133    6.9471   15.0254 H   0  0  0  0  0  0  0  0  0  0  0  0
   48.7559    7.2660   13.6345 H   0  0  0  0  0  0  0  0  0  0  0  0
   47.8787    5.5372   14.9522 H   0  0  0  0  0  0  0  0  0  0  0  0
   47.8753    6.4380   16.3036 H   0  0  0  0  0  0  0  0  0  0  0  0
   46.7783    8.4119   15.0443 H   0  0  0  0  0  0  0  0  0  0  0  0
  4  1  1  0
  1  2  1  0
  2  3  1  0
 10 20  1  0
  9 21  1  0
 12 13  2  0
 21 22  1  0
  8  9  2  0
 22 23  2  0
 23 24  1  0
 13 14  1  0
  6  7  2  0
 14 15  2  0
  9 10  1  0
 24 25  1  0
 25 26  1  0
 26 27  2  0
 27 23  1  0
 15 16  1  0
 27 28  1  0
 16 11  2  0
 24 29  2  0
  5 11  1  0
 25 30  1  0
 10  5  2  0
 30 31  2  0
 15 17  1  0
 31 32  1  0
  5  6  1  0
 32 33  2  0
  7  8  1  0
 33 34  1  0
 17 18  1  0
 34 35  2  0
 35 30  1  0
 17 19  2  0
 33 36  1  0
 11 12  1  0
 32 37  1  0
 41 38  1  0
 38 39  1  0
 39 40  1  0
  1 42  1  0
  1 43  1  0
  2 44  1  0
  2 45  1  0
  3 46  1  0
  3 47  1  0
  4 48  1  0
  6 49  1  0
  7 50  1  0
  8 51  1  0
 12 52  1  0
 13 53  1  0
 14 54  1  0
 16 55  1  0
 18 56  1  0
 20 57  1  0
 21 58  1  0
 28 59  1  0
 28 60  1  0
 28 61  1  0
 31 62  1  0
 34 63  1  0
 35 64  1  0
 36 65  1  0
 36 66  1  0
 36 67  1  0
 37 68  1  0
 37 69  1  0
 37 70  1  0
 38 71  1  0
 38 72  1  0
 39 73  1  0
 39 74  1  0
 40 75  1  0
 40 76  1  0
 41 77  1  0
M  END
> <Uni-Dock RESULT> 
ENERGY=   -5.553  LOWER_BOUND=    5.615  UPPER_BOUND=    8.478
INTER + INTRA:          -5.553
INTER:                  -5.553
INTRA:                   0.000
UNBOUND:                 0.000

$$$$

     RDKit          3D

 77 78  0  0  0  0  0  0  0  0999 V2000
   48.3672    9.8800   16.9337 C   0  0  0  0  0  0  0  0  0  0  0  0
   49.6409   10.6758   16.6347 C   0  0  0  0  0  0  0  0  0  0  0  0
   49.4036   11.7655   15.6928 N   0  0  0  0  0  0  0  0  0  0  0  0
   48.6500    8.8180   17.8395 O   0  0  0  0  0  0  0  0  0  0  0  0
   47.9508    6.6648   18.9624 C   0  0  0  0  0  0  0  0  0  0  0  0
   47.6254    6.8066   20.3213 C   0  0  0  0  0  0  0  0  0  0  0  0
   47.3992    8.0634   20.8727 C   0  0  0  0  0  0  0  0  0  0  0  0
   47.5075    9.2004   20.0733 C   0  0  0  0  0  0  0  0  0  0  0  0
   47.8572    9.1168   18.7116 C   0  0  0  0  0  0  0  0  0  0  0  0
   48.0488    7.8291   18.1618 C   0  0  0  0  0  0  0  0  0  0  0  0
   48.1829    5.3133   18.4322 C   0  0  0  0  0  0  0  0  0  0  0  0
   47.1031    4.4779   18.1071 C   0  0  0  0  0  0  0  0  0  0  0  0
   47.3188    3.1966   17.5961 C   0  0  0  0  0  0  0  0  0  0  0  0
   48.6206    2.7308   17.4080 C   0  0  0  0  0  0  0  0  0  0  0  0
   49.7105    3.5482   17.7278 C   0  0  0  0  0  0  0  0  0  0  0  0
   49.4886    4.8346   18.2376 C   0  0  0  0  0  0  0  0  0  0  0  0
   51.1106    3.0958   17.5495 C   0  0  0  0  0  0  0  0  0  0  0  0
   51.1971    1.8668   17.0083 O   0  0  0  0  0  0  0  0  0  0  0  0
   52.1075    3.7290   17.8416 O   0  0  0  0  0  0  0  0  0  0  0  0
   48.3363    7.7024   16.8213 O   0  0  0  0  0  0  0  0  0  0  0  0
   47.8891   10.3372   17.9897 N   0  0  0  0  0  0  0  0  0  0  0  0
   48.3646   10.3676   16.7202 N   0  0  0  0  0  0  0  0  0  0  0  0
   48.8204   11.4979   16.2912 C   0  0  0  0  0  0  0  0  0  0  0  0
   48.9480   12.8203   16.9788 C   0  0  0  0  0  0  0  0  0  0  0  0
   49.5218   13.6089   15.9861 N   0  0  0  0  0  0  0  0  0  0  0  0
   49.7629   12.9322   14.7743 N   0  0  0  0  0  0  0  0  0  0  0  0
   49.3644   11.7037   14.9285 C   0  0  0  0  0  0  0  0  0  0  0  0
   49.4141   10.6115   13.9279 C   0  0  0  0  0  0  0  0  0  0  0  0
   48.6035   13.0127   18.1273 O   0  0  0  0  0  0  0  0  0  0  0  0
   49.8952   14.9733   16.0806 C   0  0  0  0  0  0  0  0  0  0  0  0
   50.4831   15.6254   14.9847 C   0  0  0  0  0  0  0  0  0  0  0  0
   50.8700   16.9785   15.0389 C   0  0  0  0  0  0  0  0  0  0  0  0
   50.6736   17.7008   16.2279 C   0  0  0  0  0  0  0  0  0  0  0  0
   50.0806   17.0533   17.3221 C   0  0  0  0  0  0  0  0  0  0  0  0
   49.6996   15.7100   17.2504 C   0  0  0  0  0  0  0  0  0  0  0  0
   51.0424   19.1504   16.3822 C   0  0  0  0  0  0  0  0  0  0  0  0
   51.4922   17.6052   13.8206 C   0  0  0  0  0  0  0  0  0  0  0  0
   50.0196   10.5956   16.0622 C   0  0  0  0  0  0  0  0  0  0  0  0
   48.6212   10.3349   16.6289 C   0  0  0  0  0  0  0  0  0  0  0  0
   48.6605   10.3515   18.0969 N   0  0  0  0  0  0  0  0  0  0  0  0
   50.5537   11.7808   16.6498 O   0  0  0  0  0  0  0  0  0  0  0  0
   47.6107   10.5229   17.3960 H   0  0  0  0  0  0  0  0  0  0  0  0
   47.9394    9.4531   16.0198 H   0  0  0  0  0  0  0  0  0  0  0  0
   50.4041   10.0030   16.2270 H   0  0  0  0  0  0  0  0  0  0  0  0
   50.0513   11.0751   17.5694 H   0  0  0  0  0  0  0  0  0  0  0  0
   50.2710   12.2846   15.5559 H   0  0  0  0  0  0  0  0  0  0  0  0
   48.7429   12.4279   16.0990 H   0  0  0  0  0  0  0  0  0  0  0  0
   49.2096    8.1804   17.3637 H   0  0  0  0  0  0  0  0  0  0  0  0
   47.5455    5.9278   20.9587 H   0  0  0  0  0  0  0  0  0  0  0  0
   47.1374    8.1605   21.9229 H   0  0  0  0  0  0  0  0  0  0  0  0
   47.3147   10.1710   20.5245 H   0  0  0  0  0  0  0  0  0  0  0  0
   46.0808    4.8272   18.2505 H   0  0  0  0  0  0  0  0  0  0  0  0
   46.4729    2.5602   17.3466 H   0  0  0  0  0  0  0  0  0  0  0  0
   48.7743    1.7291   17.0116 H   0  0  0  0  0  0  0  0  0  0  0  0
   50.3373    5.4715   18.4858 H   0  0  0  0  0  0  0  0  0  0  0  0
   52.1620    1.6989   16.9631 H   0  0  0  0  0  0  0  0  0  0  0  0
   48.2789    6.7697   16.5663 H   0  0  0  0  0  0  0  0  0  0  0  0
   47.9973   11.1626   18.5885 H   0  0  0  0  0  0  0  0  0  0  0  0
   48.3988   10.2702   13.7084 H   0  0  0  0  0  0  0  0  0  0  0  0
   49.9998    9.7776   14.3221 H   0  0  0  0  0  0  0  0  0  0  0  0
   49.8788   10.9685   13.0056 H   0  0  0  0  0  0  0  0  0  0  0  0
   50.6450   15.0747   14.0602 H   0  0  0  0  0  0  0  0  0  0  0  0
   49.9116   17.5975   18.2502 H   0  0  0  0  0  0  0  0  0  0  0  0
   49.2436   15.2705   18.1325 H   0  0  0  0  0  0  0  0  0  0  0  0
   51.6498   19.2879   17.2846 H   0  0  0  0  0  0  0  0  0  0  0  0
   50.1339   19.7579   16.4665 H   0  0  0  0  0  0  0  0  0  0  0  0
   51.6291   19.5330   15.5413 H   0  0  0  0  0  0  0  0  0  0  0  0
   52.5193   17.9188   14.0396 H   0  0  0  0  0  0  0  0  0  0  0  0
   50.9033   18.4682   13.4945 H   0  0  0  0  0  0  0  0  0  0  0  0
   51.5325   16.9037   12.9806 H   0  0  0  0  0  0  0  0  0  0  0  0
   50.6975    9.7664   16.2916 H   0  0  0  0  0  0  0  0  0  0  0  0
   49.9853   10.7276   14.9770 H   0  0  0  0  0  0  0  0  0  0  0  0
   48.2287    9.3801   16.2653 H   0  0  0  0  0  0  0  0  0  0  0  0
   47.9435   11.1327   16.3068 H   0  0  0  0  0  0  0  0  0  0  0  0
   47.7122   10.2131   18.4506 H   0  0  0  0  0  0  0  0  0  0  0  0
   49.1938    9.5480   18.4308 H   0  0  0  0  0  0  0  0  0  0  0  0
   50.2279   11.7572   17.5730 H   0  0  0  0  0  0  0  0  0  0  0  0
  4  1  1  0
  1  2  1  0
  2  3  1  0
 10 20  1  0
  9 21  1  0
 12 13  2  0
 21 22  1  0
  8  9  2  0
 22 23  2  0
 23 24  1  0
 13 14  1  0
  6  7  2  0
 14 15  2  0
  9 10  1  0
 24 25  1  0
 25 26  1  0
 26 27  2  0
 27 23  1  0
 15 16  1  0
 27 28  1  0
 16 11  2  0
 24 29  2  0
  5 11  1  0
 25 30  1  0
 10  5  2  0
 30 31  2  0
 15 17  1  0
 31 32  1  0
  5  6  1  0
 32 33  2  0
  7  8  1  0
 33 34  1  0
 17 18  1  0
 34 35  2  0
 35 30  1  0
 17 19  2  0
 33 36  1  0
 11 12  1  0
 32 37  1  0
 41 38  1  0
 38 39  1  0
 39 40  1  0
  1 42  1  0
  1 43  1  0
  2 44  1  0
  2 45  1  0
  3 46  1  0
  3 47  1  0
  4 48  1  0
  6 49  1  0
  7 50  1  0
  8 51  1  0
 12 52  1  0
 13 53  1  0
 14 54  1  0
 16 55  1  0
 18 56  1  0
 20 57  1  0
 21 58  1  0
 28 59  1  0
 28 60  1  0
 28 61  1  0
 31 62  1  0
 34 63  1  0
 35 64  1  0
 36 65  1  0
 36 66  1  0
 36 67  1  0
 37 68  1  0
 37 69  1  0
 37 70  1  0
 38 71  1  0
 38 72  1  0
 39 73  1  0
 39 74  1  0
 40 75  1  0
 40 76  1  0
 41 77  1  0
M  END
> <Uni-Dock RESULT> 
ENERGY=   -4.963  LOWER_BOUND=    7.216  UPPER_BOUND=    8.084
INTER + INTRA:          -4.963
INTER:                  -4.963
INTRA:                   0.000
UNBOUND:                 0.000

$$$$

     RDKit          3D

 77 78  0  0  0  0  0  0  0  0999 V2000
   48.3665    9.8736   16.9325 C   0  0  0  0  0  0  0  0  0  0  0  0
   49.6398   10.6698   16.6330 C   0  0  0  0  0  0  0  0  0  0  0  0
   49.4018   11.7592   15.6910 N   0  0  0  0  0  0  0  0  0  0  0  0
   48.6498    8.8118   17.8385 O   0  0  0  0  0  0  0  0  0  0  0  0
   47.9517    6.6587   18.9621 C   0  0  0  0  0  0  0  0  0  0  0  0
   47.6266    6.8008   20.3211 C   0  0  0  0  0  0  0  0  0  0  0  0
   47.4002    8.0576   20.8722 C   0  0  0  0  0  0  0  0  0  0  0  0
   47.5080    9.1944   20.0726 C   0  0  0  0  0  0  0  0  0  0  0  0
   47.8572    9.1106   18.7108 C   0  0  0  0  0  0  0  0  0  0  0  0
   48.0491    7.8229   18.1613 C   0  0  0  0  0  0  0  0  0  0  0  0
   48.1840    5.3072   18.4321 C   0  0  0  0  0  0  0  0  0  0  0  0
   47.1044    4.4713   18.1076 C   0  0  0  0  0  0  0  0  0  0  0  0
   47.3204    3.1900   17.5968 C   0  0  0  0  0  0  0  0  0  0  0  0
   48.6222    2.7245   17.4084 C   0  0  0  0  0  0  0  0  0  0  0  0
   49.7120    3.5424   17.7277 C   0  0  0  0  0  0  0  0  0  0  0  0
   49.4898    4.8289   18.2372 C   0  0  0  0  0  0  0  0  0  0  0  0
   51.1122    3.0904   17.5491 C   0  0  0  0  0  0  0  0  0  0  0  0
   51.1989    1.8613   17.0081 O   0  0  0  0  0  0  0  0  0  0  0  0
   52.1090    3.7239   17.8407 O   0  0  0  0  0  0  0  0  0  0  0  0
   48.3361    7.6960   16.8207 O   0  0  0  0  0  0  0  0  0  0  0  0
   47.8886   10.3308   17.9886 N   0  0  0  0  0  0  0  0  0  0  0  0
   48.3636   10.3612   16.7190 N   0  0  0  0  0  0  0  0  0  0  0  0
   48.8189   11.4915   16.2896 C   0  0  0  0  0  0  0  0  0  0  0  0
   48.9463   12.8141   16.9768 C   0  0  0  0  0  0  0  0  0  0  0  0
   49.5196   13.6026   15.9838 N   0  0  0  0  0  0  0  0  0  0  0  0
   49.7605   12.9257   14.7720 N   0  0  0  0  0  0  0  0  0  0  0  0
   49.3625   11.6971   14.9266 C   0  0  0  0  0  0  0  0  0  0  0  0
   49.4122   10.6047   13.9263 C   0  0  0  0  0  0  0  0  0  0  0  0
   48.6021   13.0066   18.1254 O   0  0  0  0  0  0  0  0  0  0  0  0
   49.8926   14.9672   16.0778 C   0  0  0  0  0  0  0  0  0  0  0  0
   50.4799   15.6192   14.9816 C   0  0  0  0  0  0  0  0  0  0  0  0
   50.8663   16.9725   15.0354 C   0  0  0  0  0  0  0  0  0  0  0  0
   50.6701   17.6950   16.2243 C   0  0  0  0  0  0  0  0  0  0  0  0
   50.0776   17.0476   17.3188 C   0  0  0  0  0  0  0  0  0  0  0  0
   49.6971   15.7041   17.2475 C   0  0  0  0  0  0  0  0  0  0  0  0
   51.0385   19.1447   16.3782 C   0  0  0  0  0  0  0  0  0  0  0  0
   51.4880   17.5991   13.8168 C   0  0  0  0  0  0  0  0  0  0  0  0
   50.0184   10.5895   16.0604 C   0  0  0  0  0  0  0  0  0  0  0  0
   48.6202   10.3285   16.6276 C   0  0  0  0  0  0  0  0  0  0  0  0
   48.6600   10.3455   18.0956 N   0  0  0  0  0  0  0  0  0  0  0  0
   50.5522   11.7751   16.6476 O   0  0  0  0  0  0  0  0  0  0  0  0
   47.6099   10.5164   17.3950 H   0  0  0  0  0  0  0  0  0  0  0  0
   47.9385    9.4464   16.0189 H   0  0  0  0  0  0  0  0  0  0  0  0
   50.4031    9.9971   16.2253 H   0  0  0  0  0  0  0  0  0  0  0  0
   50.0503   11.0694   17.5675 H   0  0  0  0  0  0  0  0  0  0  0  0
   50.2690   12.2785   15.5537 H   0  0  0  0  0  0  0  0  0  0  0  0
   48.7411   12.4214   16.0972 H   0  0  0  0  0  0  0  0  0  0  0  0
   49.2095    8.1744   17.3627 H   0  0  0  0  0  0  0  0  0  0  0  0
   47.5473    5.9220   20.9587 H   0  0  0  0  0  0  0  0  0  0  0  0
   47.1387    8.1548   21.9225 H   0  0  0  0  0  0  0  0  0  0  0  0
   47.3150   10.1651   20.5237 H   0  0  0  0  0  0  0  0  0  0  0  0
   46.0821    4.8203   18.2512 H   0  0  0  0  0  0  0  0  0  0  0  0
   46.4746    2.5533   17.3477 H   0  0  0  0  0  0  0  0  0  0  0  0
   48.7762    1.7228   17.0122 H   0  0  0  0  0  0  0  0  0  0  0  0
   50.3384    5.4661   18.4851 H   0  0  0  0  0  0  0  0  0  0  0  0
   52.1639    1.6937   16.9626 H   0  0  0  0  0  0  0  0  0  0  0  0
   48.2790    6.7632   16.5659 H   0  0  0  0  0  0  0  0  0  0  0  0
   47.9966   11.1565   18.5872 H   0  0  0  0  0  0  0  0  0  0  0  0
   48.3969   10.2631   13.7072 H   0  0  0  0  0  0  0  0  0  0  0  0
   49.9983    9.7711   14.3205 H   0  0  0  0  0  0  0  0  0  0  0  0
   49.8765   10.9617   13.0037 H   0  0  0  0  0  0  0  0  0  0  0  0
   50.6417   15.0684   14.0572 H   0  0  0  0  0  0  0  0  0  0  0  0
   49.9088   17.5918   18.2468 H   0  0  0  0  0  0  0  0  0  0  0  0
   49.2415   15.2646   18.1299 H   0  0  0  0  0  0  0  0  0  0  0  0
   51.6462   19.2826   17.2804 H   0  0  0  0  0  0  0  0  0  0  0  0
   50.1298   19.7519   16.4626 H   0  0  0  0  0  0  0  0  0  0  0  0
   51.6248   19.5273   15.5370 H   0  0  0  0  0  0  0  0  0  0  0  0
   52.5151   17.9131   14.0354 H   0  0  0  0  0  0  0  0  0  0  0  0
   50.8987   18.4618   13.4906 H   0  0  0  0  0  0  0  0  0  0  0  0
   51.5283   16.8974   12.9769 H   0  0  0  0  0  0  0  0  0  0  0  0
   50.6965    9.7606   16.2897 H   0  0  0  0  0  0  0  0  0  0  0  0
   49.9837   10.7212   14.9752 H   0  0  0  0  0  0  0  0  0  0  0  0
   48.2279    9.3735   16.2644 H   0  0  0  0  0  0  0  0  0  0  0  0
   47.9422   11.1260   16.3056 H   0  0  0  0  0  0  0  0  0  0  0  0
   47.7118   10.2068   18.4496 H   0  0  0  0  0  0  0  0  0  0  0  0
   49.1936    9.5422   18.4295 H   0  0  0  0  0  0  0  0  0  0  0  0
   50.2267   11.7515   17.5709 H   0  0  0  0  0  0  0  0  0  0  0  0
  4  1  1  0
  1  2  1  0
  2  3  1  0
 10 20  1  0
  9 21  1  0
 12 13  2  0
 21 22  1  0
  8  9  2  0
 22 23  2  0
 23 24  1  0
 13 14  1  0
  6  7  2  0
 14 15  2  0
  9 10  1  0
 24 25  1  0
 25 26  1  0
 26 27  2  0
 27 23  1  0
 15 16  1  0
 27 28  1  0
 16 11  2  0
 24 29  2  0
  5 11  1  0
 25 30  1  0
 10  5  2  0
 30 31  2  0
 15 17  1  0
 31 32  1  0
  5  6  1  0
 32 33  2  0
  7  8  1  0
 33 34  1  0
 17 18  1  0
 34 35  2  0
 35 30  1  0
 17 19  2  0
 33 36  1  0
 11 12  1  0
 32 37  1  0
 41 38  1  0
 38 39  1  0
 39 40  1  0
  1 42  1  0
  1 43  1  0
  2 44  1  0
  2 45  1  0
  3 46  1  0
  3 47  1  0
  4 48  1  0
  6 49  1  0
  7 50  1  0
  8 51  1  0
 12 52  1  0
 13 53  1  0
 14 54  1  0
 16 55  1  0
 18 56  1  0
 20 57  1  0
 21 58  1  0
 28 59  1  0
 28 60  1  0
 28 61  1  0
 31 62  1  0
 34 63  1  0
 35 64  1  0
 36 65  1  0
 36 66  1  0
 36 67  1  0
 37 68  1  0
 37 69  1  0
 37 70  1  0
 38 71  1  0
 38 72  1  0
 39 73  1  0
 39 74  1  0
 40 75  1  0
 40 76  1  0
 41 77  1  0
M  END
> <Uni-Dock RESULT> 
ENERGY=   -4.957  LOWER_BOUND=    7.215  UPPER_BOUND=    8.083
INTER + INTRA:          -4.957
INTER:                  -4.957
INTRA:                   0.000
UNBOUND:                 0.000

$$$$

     RDKit          3D

 77 78  0  0  0  0  0  0  0  0999 V2000
   48.5626   10.2582   12.8096 C   0  0  0  0  0  0  0  0  0  0  0  0
   47.6989    9.1564   13.4302 C   0  0  0  0  0  0  0  0  0  0  0  0
   48.4989    8.1524   14.1249 N   0  0  0  0  0  0  0  0  0  0  0  0
   47.7431   11.2024   12.1274 O   0  0  0  0  0  0  0  0  0  0  0  0
   47.5221   13.1354   10.5148 C   0  0  0  0  0  0  0  0  0  0  0  0
   47.2183   14.3617   11.1284 C   0  0  0  0  0  0  0  0  0  0  0  0
   47.3618   14.5263   12.5021 C   0  0  0  0  0  0  0  0  0  0  0  0
   47.8009   13.4600   13.2855 C   0  0  0  0  0  0  0  0  0  0  0  0
   48.0936   12.2016   12.7251 C   0  0  0  0  0  0  0  0  0  0  0  0
   47.9750   12.0645   11.3236 C   0  0  0  0  0  0  0  0  0  0  0  0
   47.3494   13.0153    9.0597 C   0  0  0  0  0  0  0  0  0  0  0  0
   48.3174   13.5247    8.1805 C   0  0  0  0  0  0  0  0  0  0  0  0
   48.1611   13.4060    6.7982 C   0  0  0  0  0  0  0  0  0  0  0  0
   47.0293   12.7793    6.2755 C   0  0  0  0  0  0  0  0  0  0  0  0
   46.0520   12.2664    7.1358 C   0  0  0  0  0  0  0  0  0  0  0  0
   46.2150   12.3854    8.5227 C   0  0  0  0  0  0  0  0  0  0  0  0
   44.8313   11.5968    6.6277 C   0  0  0  0  0  0  0  0  0  0  0  0
   44.8104   11.4982    5.2857 O   0  0  0  0  0  0  0  0  0  0  0  0
   43.9200   11.1634    7.3071 O   0  0  0  0  0  0  0  0  0  0  0  0
   48.3063   10.8666   10.7312 O   0  0  0  0  0  0  0  0  0  0  0  0
   48.5778   11.2090   13.6149 N   0  0  0  0  0  0  0  0  0  0  0  0
   48.7358    9.9305   13.1917 N   0  0  0  0  0  0  0  0  0  0  0  0
   48.7015    9.0054   14.0930 C   0  0  0  0  0  0  0  0  0  0  0  0
   48.4825    9.0930   15.5701 C   0  0  0  0  0  0  0  0  0  0  0  0
   48.5457    7.7564   15.9522 N   0  0  0  0  0  0  0  0  0  0  0  0
   48.7755    6.8595   14.8904 N   0  0  0  0  0  0  0  0  0  0  0  0
   48.8680    7.5626   13.8001 C   0  0  0  0  0  0  0  0  0  0  0  0
   49.1073    7.0611   12.4261 C   0  0  0  0  0  0  0  0  0  0  0  0
   48.2980   10.1397   16.1577 O   0  0  0  0  0  0  0  0  0  0  0  0
   48.3841    7.2267   17.2573 C   0  0  0  0  0  0  0  0  0  0  0  0
   48.4605    5.8416   17.4752 C   0  0  0  0  0  0  0  0  0  0  0  0
   48.3034    5.2760   18.7555 C   0  0  0  0  0  0  0  0  0  0  0  0
   48.0515    6.1186   19.8512 C   0  0  0  0  0  0  0  0  0  0  0  0
   47.9812    7.5032   19.6371 C   0  0  0  0  0  0  0  0  0  0  0  0
   48.1424    8.0486   18.3599 C   0  0  0  0  0  0  0  0  0  0  0  0
   47.8801    5.6134   21.2571 C   0  0  0  0  0  0  0  0  0  0  0  0
   48.4007    3.7821   18.9062 C   0  0  0  0  0  0  0  0  0  0  0  0
   47.6113    8.5314   13.1486 C   0  0  0  0  0  0  0  0  0  0  0  0
   48.5461    9.7439   13.1249 C   0  0  0  0  0  0  0  0  0  0  0  0
   47.8532   10.9258   13.6537 N   0  0  0  0  0  0  0  0  0  0  0  0
   47.0588    8.3868   14.4560 O   0  0  0  0  0  0  0  0  0  0  0  0
   49.1184   10.7952   13.5856 H   0  0  0  0  0  0  0  0  0  0  0  0
   49.2849    9.8454   12.0967 H   0  0  0  0  0  0  0  0  0  0  0  0
   47.1079    8.6707   12.6453 H   0  0  0  0  0  0  0  0  0  0  0  0
   46.9784    9.6034   14.1248 H   0  0  0  0  0  0  0  0  0  0  0  0
   47.8773    7.4640   14.5495 H   0  0  0  0  0  0  0  0  0  0  0  0
   48.9989    8.5915   14.8979 H   0  0  0  0  0  0  0  0  0  0  0  0
   47.3672   10.7463   11.3550 H   0  0  0  0  0  0  0  0  0  0  0  0
   46.8667   15.2001   10.5297 H   0  0  0  0  0  0  0  0  0  0  0  0
   47.1341   15.4829   12.9648 H   0  0  0  0  0  0  0  0  0  0  0  0
   47.9162   13.6166   14.3556 H   0  0  0  0  0  0  0  0  0  0  0  0
   49.2056   14.0185    8.5740 H   0  0  0  0  0  0  0  0  0  0  0  0
   48.9199   13.8036    6.1282 H   0  0  0  0  0  0  0  0  0  0  0  0
   46.9188   12.6961    5.1961 H   0  0  0  0  0  0  0  0  0  0  0  0
   45.4544   11.9852    9.1926 H   0  0  0  0  0  0  0  0  0  0  0  0
   43.9562   11.0552    5.0974 H   0  0  0  0  0  0  0  0  0  0  0  0
   48.3285   10.9781    9.7693 H   0  0  0  0  0  0  0  0  0  0  0  0
   48.3397   11.3895   14.5960 H   0  0  0  0  0  0  0  0  0  0  0  0
   50.0468    7.4709   12.0457 H   0  0  0  0  0  0  0  0  0  0  0  0
   48.2867    7.3691   11.7738 H   0  0  0  0  0  0  0  0  0  0  0  0
   49.1686    5.9700   12.4304 H   0  0  0  0  0  0  0  0  0  0  0  0
   48.6498    5.1787   16.6333 H   0  0  0  0  0  0  0  0  0  0  0  0
   47.7954    8.1746   20.4743 H   0  0  0  0  0  0  0  0  0  0  0  0
   48.0790    9.1284   18.2642 H   0  0  0  0  0  0  0  0  0  0  0  0
   46.9605    6.0226   21.6921 H   0  0  0  0  0  0  0  0  0  0  0  0
   48.7345    5.9232   21.8699 H   0  0  0  0  0  0  0  0  0  0  0  0
   47.8013    4.5232   21.3118 H   0  0  0  0  0  0  0  0  0  0  0  0
   47.4468    3.3749   19.2604 H   0  0  0  0  0  0  0  0  0  0  0  0
   49.1980    3.5223   19.6096 H   0  0  0  0  0  0  0  0  0  0  0  0
   48.6358    3.2939   17.9545 H   0  0  0  0  0  0  0  0  0  0  0  0
   46.7845    8.6587   12.4416 H   0  0  0  0  0  0  0  0  0  0  0  0
   48.1503    7.6147   12.8930 H   0  0  0  0  0  0  0  0  0  0  0  0
   48.9087    9.9325   12.1097 H   0  0  0  0  0  0  0  0  0  0  0  0
   49.4097    9.5502   13.7702 H   0  0  0  0  0  0  0  0  0  0  0  0
   48.5069   11.7108   13.6628 H   0  0  0  0  0  0  0  0  0  0  0  0
   47.1105   11.1997   13.0096 H   0  0  0  0  0  0  0  0  0  0  0  0
   46.9261    9.3076   14.7622 H   0  0  0  0  0  0  0  0  0  0  0  0
  4  1  1  0
  1  2  1  0
  2  3  1  0
 10 20  1  0
  9 21  1  0
 12 13  2  0
 21 22  1  0
  8  9  2  0
 22 23  2  0
 23 24  1  0
 13 14  1  0
  6  7  2  0
 14 15  2  0
  9 10  1  0
 24 25  1  0
 25 26  1  0
 26 27  2  0
 27 23  1  0
 15 16  1  0
 27 28  1  0
 16 11  2  0
 24 29  2  0
  5 11  1  0
 25 30  1  0
 10  5  2  0
 30 31  2  0
 15 17  1  0
 31 32  1  0
  5  6  1  0
 32 33  2  0
  7  8  1  0
 33 34  1  0
 17 18  1  0
 34 35  2  0
 35 30  1  0
 17 19  2  0
 33 36  1  0
 11 12  1  0
 32 37  1  0
 41 38  1  0
 38 39  1  0
 39 40  1  0
  1 42  1  0
  1 43  1  0
  2 44  1  0
  2 45  1  0
  3 46  1  0
  3 47  1  0
  4 48  1  0
  6 49  1  0
  7 50  1  0
  8 51  1  0
 12 52  1  0
 13 53  1  0
 14 54  1  0
 16 55  1  0
 18 56  1  0
 20 57  1  0
 21 58  1  0
 28 59  1  0
 28 60  1  0
 28 61  1  0
 31 62  1  0
 34 63  1  0
 35 64  1  0
 36 65  1  0
 36 66  1  0
 36 67  1  0
 37 68  1  0
 37 69  1  0
 37 70  1  0
 38 71  1  0
 38 72  1  0
 39 73  1  0
 39 74  1  0
 40 75  1  0
 40 76  1  0
 41 77  1  0
M  END
> <Uni-Dock RESULT> 
ENERGY=   -4.915  LOWER_BOUND=    4.622  UPPER_BOUND=    9.380
INTER + INTRA:          -4.915
INTER:                  -4.915
INTRA:                   0.000
UNBOUND:                 0.000

$$$$

     RDKit          3D

 77 78  0  0  0  0  0  0  0  0999 V2000
   47.2234    9.3824   13.5406 C   0  0  0  0  0  0  0  0  0  0  0  0
   48.6882    9.5386   13.1221 C   0  0  0  0  0  0  0  0  0  0  0  0
   49.5360    9.9718   14.2285 N   0  0  0  0  0  0  0  0  0  0  0  0
   46.4323    8.9783   12.4273 O   0  0  0  0  0  0  0  0  0  0  0  0
   44.1602    8.6419   11.3739 C   0  0  0  0  0  0  0  0  0  0  0  0
   43.7829    7.2953   11.2429 C   0  0  0  0  0  0  0  0  0  0  0  0
   44.4602    6.2951   11.9325 C   0  0  0  0  0  0  0  0  0  0  0  0
   45.5351    6.6271   12.7557 C   0  0  0  0  0  0  0  0  0  0  0  0
   45.9716    7.9581   12.9019 C   0  0  0  0  0  0  0  0  0  0  0  0
   45.2490    8.9635   12.2206 C   0  0  0  0  0  0  0  0  0  0  0  0
   43.4120    9.6583   10.6196 C   0  0  0  0  0  0  0  0  0  0  0  0
   42.1679   10.1172   11.0790 C   0  0  0  0  0  0  0  0  0  0  0  0
   41.4576   11.0879   10.3700 C   0  0  0  0  0  0  0  0  0  0  0  0
   41.9811   11.6098    9.1866 C   0  0  0  0  0  0  0  0  0  0  0  0
   43.2194   11.1638    8.7113 C   0  0  0  0  0  0  0  0  0  0  0  0
   43.9298   10.1915    9.4282 C   0  0  0  0  0  0  0  0  0  0  0  0
   43.8137   11.6851    7.4576 C   0  0  0  0  0  0  0  0  0  0  0  0
   43.0658   12.6468    6.8860 O   0  0  0  0  0  0  0  0  0  0  0  0
   44.8615   11.3196    6.9589 O   0  0  0  0  0  0  0  0  0  0  0  0
   45.6095   10.2824   12.3826 O   0  0  0  0  0  0  0  0  0  0  0  0
   47.0441    8.1777   13.8036 N   0  0  0  0  0  0  0  0  0  0  0  0
   47.6269    9.3991   13.8873 N   0  0  0  0  0  0  0  0  0  0  0  0
   48.8439    9.4402   14.3192 C   0  0  0  0  0  0  0  0  0  0  0  0
   49.7683    8.3389   14.7318 C   0  0  0  0  0  0  0  0  0  0  0  0
   50.9210    9.0403   15.0724 N   0  0  0  0  0  0  0  0  0  0  0  0
   50.8174   10.4368   14.9183 N   0  0  0  0  0  0  0  0  0  0  0  0
   49.6196   10.6923   14.4805 C   0  0  0  0  0  0  0  0  0  0  0  0
   49.0426   12.0211   14.1677 C   0  0  0  0  0  0  0  0  0  0  0  0
   49.4590    7.1647   14.7144 O   0  0  0  0  0  0  0  0  0  0  0  0
   52.1534    8.5026   15.5218 C   0  0  0  0  0  0  0  0  0  0  0  0
   53.2345    9.3510   15.8101 C   0  0  0  0  0  0  0  0  0  0  0  0
   54.4753    8.8563   16.2565 C   0  0  0  0  0  0  0  0  0  0  0  0
   54.6458    7.4702   16.4099 C   0  0  0  0  0  0  0  0  0  0  0  0
   53.5652    6.6209   16.1287 C   0  0  0  0  0  0  0  0  0  0  0  0
   52.3390    7.1289   15.6892 C   0  0  0  0  0  0  0  0  0  0  0  0
   55.9265    6.8454   16.8903 C   0  0  0  0  0  0  0  0  0  0  0  0
   55.5842    9.8314   16.5456 C   0  0  0  0  0  0  0  0  0  0  0  0
   48.9861   10.1464   12.9828 C   0  0  0  0  0  0  0  0  0  0  0  0
   47.7849    9.5301   13.7053 C   0  0  0  0  0  0  0  0  0  0  0  0
   47.5257    8.1790   13.1914 N   0  0  0  0  0  0  0  0  0  0  0  0
   50.0885    9.2428   13.0444 O   0  0  0  0  0  0  0  0  0  0  0  0
   47.1242    8.6175   14.3180 H   0  0  0  0  0  0  0  0  0  0  0  0
   46.8179   10.3217   13.9328 H   0  0  0  0  0  0  0  0  0  0  0  0
   48.7584   10.2651   12.3044 H   0  0  0  0  0  0  0  0  0  0  0  0
   49.0577    8.5879   12.7206 H   0  0  0  0  0  0  0  0  0  0  0  0
   50.5031   10.0252   13.9083 H   0  0  0  0  0  0  0  0  0  0  0  0
   49.5238    9.2645   14.9632 H   0  0  0  0  0  0  0  0  0  0  0  0
   46.4125    9.7268   11.8066 H   0  0  0  0  0  0  0  0  0  0  0  0
   42.9506    7.0213   10.5971 H   0  0  0  0  0  0  0  0  0  0  0  0
   44.1529    5.2576   11.8321 H   0  0  0  0  0  0  0  0  0  0  0  0
   46.0415    5.8287   13.2935 H   0  0  0  0  0  0  0  0  0  0  0  0
   41.7454    9.7174   12.0005 H   0  0  0  0  0  0  0  0  0  0  0  0
   40.4952   11.4361   10.7382 H   0  0  0  0  0  0  0  0  0  0  0  0
   41.4156   12.3638    8.6425 H   0  0  0  0  0  0  0  0  0  0  0  0
   44.8945    9.8447    9.0586 H   0  0  0  0  0  0  0  0  0  0  0  0
   43.5665   12.8817    6.0764 H   0  0  0  0  0  0  0  0  0  0  0  0
   44.9319   10.8521   11.9896 H   0  0  0  0  0  0  0  0  0  0  0  0
   47.6050    7.3380   13.9826 H   0  0  0  0  0  0  0  0  0  0  0  0
   48.1852   12.2101   14.8193 H   0  0  0  0  0  0  0  0  0  0  0  0
   48.7179   12.0451   13.1248 H   0  0  0  0  0  0  0  0  0  0  0  0
   49.7909   12.8017   14.3258 H   0  0  0  0  0  0  0  0  0  0  0  0
   53.1159   10.4261   15.6899 H   0  0  0  0  0  0  0  0  0  0  0  0
   53.6738    5.5440   16.2493 H   0  0  0  0  0  0  0  0  0  0  0  0
   51.5431    6.4169   15.4920 H   0  0  0  0  0  0  0  0  0  0  0  0
   56.2341    6.0477   16.2039 H   0  0  0  0  0  0  0  0  0  0  0  0
   55.7803    6.4206   17.8901 H   0  0  0  0  0  0  0  0  0  0  0  0
   56.7552    7.5583   16.9429 H   0  0  0  0  0  0  0  0  0  0  0  0
   56.4287    9.6547   15.8698 H   0  0  0  0  0  0  0  0  0  0  0  0
   55.9148    9.7337   17.5844 H   0  0  0  0  0  0  0  0  0  0  0  0
   55.2589   10.8676   16.4047 H   0  0  0  0  0  0  0  0  0  0  0  0
   48.7570   10.3328   11.9281 H   0  0  0  0  0  0  0  0  0  0  0  0
   49.2815   11.0913   13.4474 H   0  0  0  0  0  0  0  0  0  0  0  0
   46.8989   10.1621   13.5903 H   0  0  0  0  0  0  0  0  0  0  0  0
   48.0096    9.4405   14.7735 H   0  0  0  0  0  0  0  0  0  0  0  0
   46.7458    7.7752   13.7132 H   0  0  0  0  0  0  0  0  0  0  0  0
   47.2021    8.2401   12.2255 H   0  0  0  0  0  0  0  0  0  0  0  0
   49.6762    8.3578   12.9676 H   0  0  0  0  0  0  0  0  0  0  0  0
  4  1  1  0
  1  2  1  0
  2  3  1  0
 10 20  1  0
  9 21  1  0
 12 13  2  0
 21 22  1  0
  8  9  2  0
 22 23  2  0
 23 24  1  0
 13 14  1  0
  6  7  2  0
 14 15  2  0
  9 10  1  0
 24 25  1  0
 25 26  1  0
 26 27  2  0
 27 23  1  0
 15 16  1  0
 27 28  1  0
 16 11  2  0
 24 29  2  0
  5 11  1  0
 25 30  1  0
 10  5  2  0
 30 31  2  0
 15 17  1  0
 31 32  1  0
  5  6  1  0
 32 33  2  0
  7  8  1  0
 33 34  1  0
 17 18  1  0
 34 35  2  0
 35 30  1  0
 17 19  2  0
 33 36  1  0
 11 12  1  0
 32 37  1  0
 41 38  1  0
 38 39  1  0
 39 40  1  0
  1 42  1  0
  1 43  1  0
  2 44  1  0
  2 45  1  0
  3 46  1  0
  3 47  1  0
  4 48  1  0
  6 49  1  0
  7 50  1  0
  8 51  1  0
 12 52  1  0
 13 53  1  0
 14 54  1  0
 16 55  1  0
 18 56  1  0
 20 57  1  0
 21 58  1  0
 28 59  1  0
 28 60  1  0
 28 61  1  0
 31 62  1  0
 34 63  1  0
 35 64  1  0
 36 65  1  0
 36 66  1  0
 36 67  1  0
 37 68  1  0
 37 69  1  0
 37 70  1  0
 38 71  1  0
 38 72  1  0
 39 73  1  0
 39 74  1  0
 40 75  1  0
 40 76  1  0
 41 77  1  0
M  END
> <Uni-Dock RESULT> 
ENERGY=   -4.518  LOWER_BOUND=    4.200  UPPER_BOUND=    8.686
INTER + INTRA:          -4.518
INTER:                  -4.518
INTRA:                   0.000
UNBOUND:                 0.000

$$$$

     RDKit          3D

 77 78  0  0  0  0  0  0  0  0999 V2000
   49.7192   10.0266   14.2802 C   0  0  0  0  0  0  0  0  0  0  0  0
   50.5994    8.8238   13.9286 C   0  0  0  0  0  0  0  0  0  0  0  0
   50.4050    8.3804   12.5516 N   0  0  0  0  0  0  0  0  0  0  0  0
   49.9275   10.4113   15.6356 O   0  0  0  0  0  0  0  0  0  0  0  0
   49.2003   11.7301   17.6648 C   0  0  0  0  0  0  0  0  0  0  0  0
   50.0195   12.8334   17.9550 C   0  0  0  0  0  0  0  0  0  0  0  0
   50.9249   13.3156   17.0155 C   0  0  0  0  0  0  0  0  0  0  0  0
   51.0326   12.6918   15.7735 C   0  0  0  0  0  0  0  0  0  0  0  0
   50.2544   11.5661   15.4410 C   0  0  0  0  0  0  0  0  0  0  0  0
   49.3160   11.1128   16.3954 C   0  0  0  0  0  0  0  0  0  0  0  0
   48.2632   11.2597   18.6954 C   0  0  0  0  0  0  0  0  0  0  0  0
   47.0433   11.9205   18.9074 C   0  0  0  0  0  0  0  0  0  0  0  0
   46.1470   11.4726   19.8797 C   0  0  0  0  0  0  0  0  0  0  0  0
   46.4620   10.3584   20.6584 C   0  0  0  0  0  0  0  0  0  0  0  0
   47.6742    9.6871   20.4633 C   0  0  0  0  0  0  0  0  0  0  0  0
   48.5691   10.1388   19.4839 C   0  0  0  0  0  0  0  0  0  0  0  0
   48.0545    8.5023   21.2685 C   0  0  0  0  0  0  0  0  0  0  0  0
   47.0970    8.1341   22.1395 O   0  0  0  0  0  0  0  0  0  0  0  0
   49.1036    7.8917   21.1877 O   0  0  0  0  0  0  0  0  0  0  0  0
   48.4971   10.0501   16.0861 O   0  0  0  0  0  0  0  0  0  0  0  0
   50.4176   11.0477   14.1309 N   0  0  0  0  0  0  0  0  0  0  0  0
   49.8269    9.8786   13.7804 N   0  0  0  0  0  0  0  0  0  0  0  0
   50.3635    9.2184   12.8080 C   0  0  0  0  0  0  0  0  0  0  0  0
   51.5805    9.5094   11.9884 C   0  0  0  0  0  0  0  0  0  0  0  0
   51.6216    8.4138   11.1314 N   0  0  0  0  0  0  0  0  0  0  0  0
   50.5796    7.4857   11.3255 N   0  0  0  0  0  0  0  0  0  0  0  0
   49.8368    7.9317   12.2957 C   0  0  0  0  0  0  0  0  0  0  0  0
   48.6212    7.2986   12.8596 C   0  0  0  0  0  0  0  0  0  0  0  0
   52.2740   10.4935   12.1475 O   0  0  0  0  0  0  0  0  0  0  0  0
   52.5894    8.1394   10.1324 C   0  0  0  0  0  0  0  0  0  0  0  0
   52.4974    6.9723    9.3571 C   0  0  0  0  0  0  0  0  0  0  0  0
   53.4393    6.6624    8.3569 C   0  0  0  0  0  0  0  0  0  0  0  0
   54.5130    7.5400    8.1306 C   0  0  0  0  0  0  0  0  0  0  0  0
   54.6036    8.7098    8.8995 C   0  0  0  0  0  0  0  0  0  0  0  0
   53.6580    9.0037    9.8866 C   0  0  0  0  0  0  0  0  0  0  0  0
   55.5631    7.3041    7.0804 C   0  0  0  0  0  0  0  0  0  0  0  0
   53.2696    5.3925    7.5680 C   0  0  0  0  0  0  0  0  0  0  0  0
   50.3704    8.1721   13.9081 C   0  0  0  0  0  0  0  0  0  0  0  0
   49.8831    9.6230   13.8625 C   0  0  0  0  0  0  0  0  0  0  0  0
   50.9025   10.5157   14.4287 N   0  0  0  0  0  0  0  0  0  0  0  0
   51.6624    8.0891   13.3085 O   0  0  0  0  0  0  0  0  0  0  0  0
   49.9675   10.8843   13.6461 H   0  0  0  0  0  0  0  0  0  0  0  0
   48.6566    9.7975   14.1431 H   0  0  0  0  0  0  0  0  0  0  0  0
   50.3761    7.9963   14.6118 H   0  0  0  0  0  0  0  0  0  0  0  0
   51.6525    9.0806   14.0914 H   0  0  0  0  0  0  0  0  0  0  0  0
   51.0376    7.6040   12.3574 H   0  0  0  0  0  0  0  0  0  0  0  0
   50.6758    9.1277   11.9124 H   0  0  0  0  0  0  0  0  0  0  0  0
   49.5696    9.6979   16.1914 H   0  0  0  0  0  0  0  0  0  0  0  0
   49.9515   13.3248   18.9240 H   0  0  0  0  0  0  0  0  0  0  0  0
   51.5461   14.1767   17.2469 H   0  0  0  0  0  0  0  0  0  0  0  0
   51.7395   13.0943   15.0514 H   0  0  0  0  0  0  0  0  0  0  0  0
   46.7845   12.7933   18.3084 H   0  0  0  0  0  0  0  0  0  0  0  0
   45.2042   11.9929   20.0324 H   0  0  0  0  0  0  0  0  0  0  0  0
   45.7555   10.0218   21.4146 H   0  0  0  0  0  0  0  0  0  0  0  0
   49.5128    9.6155   19.3314 H   0  0  0  0  0  0  0  0  0  0  0  0
   47.4861    7.3618   22.6015 H   0  0  0  0  0  0  0  0  0  0  0  0
   47.8109    9.9641   16.7644 H   0  0  0  0  0  0  0  0  0  0  0  0
   51.3067   11.3140   13.6947 H   0  0  0  0  0  0  0  0  0  0  0  0
   47.7629    7.9598   12.7128 H   0  0  0  0  0  0  0  0  0  0  0  0
   48.7619    7.1187   13.9281 H   0  0  0  0  0  0  0  0  0  0  0  0
   48.4285    6.3459   12.3604 H   0  0  0  0  0  0  0  0  0  0  0  0
   51.6731    6.2825    9.5269 H   0  0  0  0  0  0  0  0  0  0  0  0
   55.4232    9.4076    8.7342 H   0  0  0  0  0  0  0  0  0  0  0  0
   53.7854    9.9271   10.4438 H   0  0  0  0  0  0  0  0  0  0  0  0
   56.5620    7.3958    7.5229 H   0  0  0  0  0  0  0  0  0  0  0  0
   55.4580    8.0430    6.2776 H   0  0  0  0  0  0  0  0  0  0  0  0
   55.5025    6.3070    6.6333 H   0  0  0  0  0  0  0  0  0  0  0  0
   54.1194    4.7227    7.7424 H   0  0  0  0  0  0  0  0  0  0  0  0
   53.1882    5.6167    6.4998 H   0  0  0  0  0  0  0  0  0  0  0  0
   52.3602    4.8551    7.8570 H   0  0  0  0  0  0  0  0  0  0  0  0
   50.4508    7.8168   14.9410 H   0  0  0  0  0  0  0  0  0  0  0  0
   49.6891    7.5116   13.3645 H   0  0  0  0  0  0  0  0  0  0  0  0
   48.9363    9.7297   14.4010 H   0  0  0  0  0  0  0  0  0  0  0  0
   49.7240    9.9208   12.8206 H   0  0  0  0  0  0  0  0  0  0  0  0
   50.5712   11.4792   14.3532 H   0  0  0  0  0  0  0  0  0  0  0  0
   50.9907   10.3377   15.4297 H   0  0  0  0  0  0  0  0  0  0  0  0
   52.1017    8.9238   13.5717 H   0  0  0  0  0  0  0  0  0  0  0  0
  4  1  1  0
  1  2  1  0
  2  3  1  0
 10 20  1  0
  9 21  1  0
 12 13  2  0
 21 22  1  0
  8  9  2  0
 22 23  2  0
 23 24  1  0
 13 14  1  0
  6  7  2  0
 14 15  2  0
  9 10  1  0
 24 25  1  0
 25 26  1  0
 26 27  2  0
 27 23  1  0
 15 16  1  0
 27 28  1  0
 16 11  2  0
 24 29  2  0
  5 11  1  0
 25 30  1  0
 10  5  2  0
 30 31  2  0
 15 17  1  0
 31 32  1  0
  5  6  1  0
 32 33  2  0
  7  8  1  0
 33 34  1  0
 17 18  1  0
 34 35  2  0
 35 30  1  0
 17 19  2  0
 33 36  1  0
 11 12  1  0
 32 37  1  0
 41 38  1  0
 38 39  1  0
 39 40  1  0
  1 42  1  0
  1 43  1  0
  2 44  1  0
  2 45  1  0
  3 46  1  0
  3 47  1  0
  4 48  1  0
  6 49  1  0
  7 50  1  0
  8 51  1  0
 12 52  1  0
 13 53  1  0
 14 54  1  0
 16 55  1  0
 18 56  1  0
 20 57  1  0
 21 58  1  0
 28 59  1  0
 28 60  1  0
 28 61  1  0
 31 62  1  0
 34 63  1  0
 35 64  1  0
 36 65  1  0
 36 66  1  0
 36 67  1  0
 37 68  1  0
 37 69  1  0
 37 70  1  0
 38 71  1  0
 38 72  1  0
 39 73  1  0
 39 74  1  0
 40 75  1  0
 40 76  1  0
 41 77  1  0
M  END
> <Uni-Dock RESULT> 
ENERGY=   -4.375  LOWER_BOUND=    7.136  UPPER_BOUND=   10.204
INTER + INTRA:          -4.375
INTER:                  -4.375
INTRA:                   0.000
UNBOUND:                 0.000

$$$$

     RDKit          3D

 77 78  0  0  0  0  0  0  0  0999 V2000
   48.8513   10.2609   17.2764 C   0  0  0  0  0  0  0  0  0  0  0  0
   48.7175   11.7578   17.5704 C   0  0  0  0  0  0  0  0  0  0  0  0
   48.7452   12.0446   19.0014 N   0  0  0  0  0  0  0  0  0  0  0  0
   48.7996   10.0271   15.8724 O   0  0  0  0  0  0  0  0  0  0  0  0
   48.5551    8.4216   13.9363 C   0  0  0  0  0  0  0  0  0  0  0  0
   49.7454    8.1945   13.2263 C   0  0  0  0  0  0  0  0  0  0  0  0
   50.9753    8.5652   13.7599 C   0  0  0  0  0  0  0  0  0  0  0  0
   51.0313    9.1811   15.0092 C   0  0  0  0  0  0  0  0  0  0  0  0
   49.8663    9.4563   15.7512 C   0  0  0  0  0  0  0  0  0  0  0  0
   48.6296    9.0408   15.2080 C   0  0  0  0  0  0  0  0  0  0  0  0
   47.2823    8.0130   13.3242 C   0  0  0  0  0  0  0  0  0  0  0  0
   46.8711    6.6716   13.3580 C   0  0  0  0  0  0  0  0  0  0  0  0
   45.6596    6.2804   12.7847 C   0  0  0  0  0  0  0  0  0  0  0  0
   44.8438    7.2270   12.1639 C   0  0  0  0  0  0  0  0  0  0  0  0
   45.2373    8.5692   12.1185 C   0  0  0  0  0  0  0  0  0  0  0  0
   46.4528    8.9573   12.6980 C   0  0  0  0  0  0  0  0  0  0  0  0
   44.4068    9.6095   11.4666 C   0  0  0  0  0  0  0  0  0  0  0  0
   43.2437    9.1271   10.9919 O   0  0  0  0  0  0  0  0  0  0  0  0
   44.6978   10.7849   11.3499 O   0  0  0  0  0  0  0  0  0  0  0  0
   47.4735    9.2409   15.9284 O   0  0  0  0  0  0  0  0  0  0  0  0
   50.0529   10.0421   17.0293 N   0  0  0  0  0  0  0  0  0  0  0  0
   48.9861   10.4811   17.7418 N   0  0  0  0  0  0  0  0  0  0  0  0
   49.2061   11.4027   18.6203 C   0  0  0  0  0  0  0  0  0  0  0  0
   50.4680   12.1179   18.9857 C   0  0  0  0  0  0  0  0  0  0  0  0
   50.0301   12.9897   19.9781 N   0  0  0  0  0  0  0  0  0  0  0  0
   48.6540   12.8976   20.2655 N   0  0  0  0  0  0  0  0  0  0  0  0
   48.1542   11.9828   19.4877 C   0  0  0  0  0  0  0  0  0  0  0  0
   46.7443   11.5307   19.4243 C   0  0  0  0  0  0  0  0  0  0  0  0
   51.5387   11.8972   18.4570 O   0  0  0  0  0  0  0  0  0  0  0  0
   50.8031   13.9438   20.6868 C   0  0  0  0  0  0  0  0  0  0  0  0
   50.2027   14.7659   21.6539 C   0  0  0  0  0  0  0  0  0  0  0  0
   50.9350   15.7269   22.3777 C   0  0  0  0  0  0  0  0  0  0  0  0
   52.3078   15.8795   22.1204 C   0  0  0  0  0  0  0  0  0  0  0  0
   52.9112   15.0549   21.1592 C   0  0  0  0  0  0  0  0  0  0  0  0
   52.1700   14.1037   20.4517 C   0  0  0  0  0  0  0  0  0  0  0  0
   53.1775   16.8683   22.8465 C   0  0  0  0  0  0  0  0  0  0  0  0
   50.2183   16.5683   23.3987 C   0  0  0  0  0  0  0  0  0  0  0  0
   48.1299   12.0591   17.7743 C   0  0  0  0  0  0  0  0  0  0  0  0
   48.8205   10.6947   17.6948 C   0  0  0  0  0  0  0  0  0  0  0  0
   49.9053   10.7351   16.7057 N   0  0  0  0  0  0  0  0  0  0  0  0
   49.1117   13.0738   17.9791 O   0  0  0  0  0  0  0  0  0  0  0  0
   49.8096    9.8799   17.6449 H   0  0  0  0  0  0  0  0  0  0  0  0
   48.0497    9.6869   17.7543 H   0  0  0  0  0  0  0  0  0  0  0  0
   47.7797   12.1310   17.1431 H   0  0  0  0  0  0  0  0  0  0  0  0
   49.5233   12.3036   17.0662 H   0  0  0  0  0  0  0  0  0  0  0  0
   48.6898   13.0535   19.1418 H   0  0  0  0  0  0  0  0  0  0  0  0
   49.6444   11.7579   19.3881 H   0  0  0  0  0  0  0  0  0  0  0  0
   47.8946   10.2353   15.5831 H   0  0  0  0  0  0  0  0  0  0  0  0
   49.7155    7.7219   12.2462 H   0  0  0  0  0  0  0  0  0  0  0  0
   51.8909    8.3748   13.2064 H   0  0  0  0  0  0  0  0  0  0  0  0
   52.0055    9.4512   15.4103 H   0  0  0  0  0  0  0  0  0  0  0  0
   47.4986    5.9207   13.8375 H   0  0  0  0  0  0  0  0  0  0  0  0
   45.3521    5.2377   12.8196 H   0  0  0  0  0  0  0  0  0  0  0  0
   43.9035    6.9079   11.7187 H   0  0  0  0  0  0  0  0  0  0  0  0
   46.7588   10.0026   12.6633 H   0  0  0  0  0  0  0  0  0  0  0  0
   42.8150    9.9095   10.5852 H   0  0  0  0  0  0  0  0  0  0  0  0
   46.7437    8.7651   15.5051 H   0  0  0  0  0  0  0  0  0  0  0  0
   50.9575   10.5137   17.1338 H   0  0  0  0  0  0  0  0  0  0  0  0
   46.6874   10.4718   19.6907 H   0  0  0  0  0  0  0  0  0  0  0  0
   46.3579   11.6713   18.4120 H   0  0  0  0  0  0  0  0  0  0  0  0
   46.1333   12.1084   20.1222 H   0  0  0  0  0  0  0  0  0  0  0  0
   49.1390   14.6605   21.8580 H   0  0  0  0  0  0  0  0  0  0  0  0
   53.9758   15.1512   20.9508 H   0  0  0  0  0  0  0  0  0  0  0  0
   52.6992   13.4961   19.7237 H   0  0  0  0  0  0  0  0  0  0  0  0
   53.7424   17.4703   22.1249 H   0  0  0  0  0  0  0  0  0  0  0  0
   53.8811   16.3364   23.4973 H   0  0  0  0  0  0  0  0  0  0  0  0
   52.6048   17.5662   23.4652 H   0  0  0  0  0  0  0  0  0  0  0  0
   50.2546   17.6251   23.1105 H   0  0  0  0  0  0  0  0  0  0  0  0
   50.6734   16.4380   24.3855 H   0  0  0  0  0  0  0  0  0  0  0  0
   49.1639   16.2857   23.4877 H   0  0  0  0  0  0  0  0  0  0  0  0
   47.5962   12.2842   16.8447 H   0  0  0  0  0  0  0  0  0  0  0  0
   47.4160   12.0904   18.6022 H   0  0  0  0  0  0  0  0  0  0  0  0
   48.0994    9.9107   17.4433 H   0  0  0  0  0  0  0  0  0  0  0  0
   49.2667   10.4557   18.6660 H   0  0  0  0  0  0  0  0  0  0  0  0
   50.3738    9.8273   16.6977 H   0  0  0  0  0  0  0  0  0  0  0  0
   49.5084   10.8429   15.7717 H   0  0  0  0  0  0  0  0  0  0  0  0
   49.8805   12.7716   17.4531 H   0  0  0  0  0  0  0  0  0  0  0  0
  4  1  1  0
  1  2  1  0
  2  3  1  0
 10 20  1  0
  9 21  1  0
 12 13  2  0
 21 22  1  0
  8  9  2  0
 22 23  2  0
 23 24  1  0
 13 14  1  0
  6  7  2  0
 14 15  2  0
  9 10  1  0
 24 25  1  0
 25 26  1  0
 26 27  2  0
 27 23  1  0
 15 16  1  0
 27 28  1  0
 16 11  2  0
 24 29  2  0
  5 11  1  0
 25 30  1  0
 10  5  2  0
 30 31  2  0
 15 17  1  0
 31 32  1  0
  5  6  1  0
 32 33  2  0
  7  8  1  0
 33 34  1  0
 17 18  1  0
 34 35  2  0
 35 30  1  0
 17 19  2  0
 33 36  1  0
 11 12  1  0
 32 37  1  0
 41 38  1  0
 38 39  1  0
 39 40  1  0
  1 42  1  0
  1 43  1  0
  2 44  1  0
  2 45  1  0
  3 46  1  0
  3 47  1  0
  4 48  1  0
  6 49  1  0
  7 50  1  0
  8 51  1  0
 12 52  1  0
 13 53  1  0
 14 54  1  0
 16 55  1  0
 18 56  1  0
 20 57  1  0
 21 58  1  0
 28 59  1  0
 28 60  1  0
 28 61  1  0
 31 62  1  0
 34 63  1  0
 35 64  1  0
 36 65  1  0
 36 66  1  0
 36 67  1  0
 37 68  1  0
 37 69  1  0
 37 70  1  0
 38 71  1  0
 38 72  1  0
 39 73  1  0
 39 74  1  0
 40 75  1  0
 40 76  1  0
 41 77  1  0
M  END
> <Uni-Dock RESULT> 
ENERGY=   -4.351  LOWER_BOUND=    7.053  UPPER_BOUND=    9.113
INTER + INTRA:          -4.351
INTER:                  -4.351
INTRA:                   0.000
UNBOUND:                 0.000

$$$$
