
     RDKit          3D

 77 78  0  0  0  0  0  0  0  0999 V2000
   45.7905   10.1549   12.1253 C   0  0  0  0  0  0  0  0  0  0  0  0
   45.7069    8.6474   12.3816 C   0  0  0  0  0  0  0  0  0  0  0  0
   47.0216    8.0125   12.3786 N   0  0  0  0  0  0  0  0  0  0  0  0
   44.4869   10.7279   12.1217 O   0  0  0  0  0  0  0  0  0  0  0  0
   43.4319   12.2090   10.0632 C   0  0  0  0  0  0  0  0  0  0  0  0
   42.0381   12.0290   10.0581 C   0  0  0  0  0  0  0  0  0  0  0  0
   41.4670   10.7822   10.3286 C   0  0  0  0  0  0  0  0  0  0  0  0
   42.2789    9.6909   10.6392 C   0  0  0  0  0  0  0  0  0  0  0  0
   43.6672    9.8362   10.7146 C   0  0  0  0  0  0  0  0  0  0  0  0
   44.2242   11.0860   10.3708 C   0  0  0  0  0  0  0  0  0  0  0  0
   44.0113   13.5246    9.7279 C   0  0  0  0  0  0  0  0  0  0  0  0
   43.6444   14.1960    8.5475 C   0  0  0  0  0  0  0  0  0  0  0  0
   44.1886   15.4414    8.2221 C   0  0  0  0  0  0  0  0  0  0  0  0
   45.1166   16.0406    9.0738 C   0  0  0  0  0  0  0  0  0  0  0  0
   45.4983   15.3954   10.2546 C   0  0  0  0  0  0  0  0  0  0  0  0
   44.9425   14.1489   10.5768 C   0  0  0  0  0  0  0  0  0  0  0  0
   46.4881   15.9872   11.1891 C   0  0  0  0  0  0  0  0  0  0  0  0
   46.9970   17.1505   10.7461 O   0  0  0  0  0  0  0  0  0  0  0  0
   46.8410   15.5126   12.2534 O   0  0  0  0  0  0  0  0  0  0  0  0
   45.5979   11.1891   10.2863 O   0  0  0  0  0  0  0  0  0  0  0  0
   44.5341    8.7626   11.0422 N   0  0  0  0  0  0  0  0  0  0  0  0
   43.9807    7.5454   11.3159 N   0  0  0  0  0  0  0  0  0  0  0  0
   44.6395    6.7776   12.1252 C   0  0  0  0  0  0  0  0  0  0  0  0
   45.9108    7.0184   12.8756 C   0  0  0  0  0  0  0  0  0  0  0  0
   46.0466    5.8398   13.6013 N   0  0  0  0  0  0  0  0  0  0  0  0
   45.0290    4.8932   13.3691 N   0  0  0  0  0  0  0  0  0  0  0  0
   44.2035    5.4131   12.5105 C   0  0  0  0  0  0  0  0  0  0  0  0
   42.9761    4.7943   11.9575 C   0  0  0  0  0  0  0  0  0  0  0  0
   46.5504    8.0462   12.7826 O   0  0  0  0  0  0  0  0  0  0  0  0
   47.0496    5.5232   14.5525 C   0  0  0  0  0  0  0  0  0  0  0  0
   48.0738    6.4242   14.8759 C   0  0  0  0  0  0  0  0  0  0  0  0
   49.0547    6.1152   15.8410 C   0  0  0  0  0  0  0  0  0  0  0  0
   49.0196    4.8670   16.4897 C   0  0  0  0  0  0  0  0  0  0  0  0
   47.9970    3.9651   16.1691 C   0  0  0  0  0  0  0  0  0  0  0  0
   47.0298    4.2884   15.2131 C   0  0  0  0  0  0  0  0  0  0  0  0
   50.0293    4.4952   17.5406 C   0  0  0  0  0  0  0  0  0  0  0  0
   50.1250    7.1287   16.1491 C   0  0  0  0  0  0  0  0  0  0  0  0
   45.8163    8.1053   12.4983 C   0  0  0  0  0  0  0  0  0  0  0  0
   46.0156    9.4085   11.7193 C   0  0  0  0  0  0  0  0  0  0  0  0
   45.5057   10.5450   12.4982 N   0  0  0  0  0  0  0  0  0  0  0  0
   46.3904    8.2358   13.7967 O   0  0  0  0  0  0  0  0  0  0  0  0
   46.2674   10.3724   11.1626 H   0  0  0  0  0  0  0  0  0  0  0  0
   46.3700   10.6480   12.9127 H   0  0  0  0  0  0  0  0  0  0  0  0
   45.2057    8.4635   13.3397 H   0  0  0  0  0  0  0  0  0  0  0  0
   45.0791    8.1821   11.6123 H   0  0  0  0  0  0  0  0  0  0  0  0
   47.5861    8.4004   13.1346 H   0  0  0  0  0  0  0  0  0  0  0  0
   46.9145    7.0220   12.5937 H   0  0  0  0  0  0  0  0  0  0  0  0
   44.0203   10.3648   11.3462 H   0  0  0  0  0  0  0  0  0  0  0  0
   41.3780   12.8667    9.8384 H   0  0  0  0  0  0  0  0  0  0  0  0
   40.3865   10.6629   10.2980 H   0  0  0  0  0  0  0  0  0  0  0  0
   41.8157    8.7298   10.8458 H   0  0  0  0  0  0  0  0  0  0  0  0
   42.9335   13.7395    7.8595 H   0  0  0  0  0  0  0  0  0  0  0  0
   43.8957   15.9368    7.2999 H   0  0  0  0  0  0  0  0  0  0  0  0
   45.5392   17.0055    8.8045 H   0  0  0  0  0  0  0  0  0  0  0  0
   45.2467   13.6522   11.4989 H   0  0  0  0  0  0  0  0  0  0  0  0
   47.6380   17.4093   11.4420 H   0  0  0  0  0  0  0  0  0  0  0  0
   45.9157   10.3076   10.0185 H   0  0  0  0  0  0  0  0  0  0  0  0
   45.3275    9.0907   11.6109 H   0  0  0  0  0  0  0  0  0  0  0  0
   42.1024    5.3730   12.2675 H   0  0  0  0  0  0  0  0  0  0  0  0
   42.8730    3.7684   12.3229 H   0  0  0  0  0  0  0  0  0  0  0  0
   43.0317    4.7770   10.8651 H   0  0  0  0  0  0  0  0  0  0  0  0
   48.1295    7.3953   14.3913 H   0  0  0  0  0  0  0  0  0  0  0  0
   47.9391    2.9980   16.6644 H   0  0  0  0  0  0  0  0  0  0  0  0
   46.2570    3.5547   14.9971 H   0  0  0  0  0  0  0  0  0  0  0  0
   51.0471    4.6579   17.1737 H   0  0  0  0  0  0  0  0  0  0  0  0
   49.9489    3.4373   17.8159 H   0  0  0  0  0  0  0  0  0  0  0  0
   49.8709    5.0891   18.4447 H   0  0  0  0  0  0  0  0  0  0  0  0
   49.9519    8.0739   15.6209 H   0  0  0  0  0  0  0  0  0  0  0  0
   51.1033    6.7478   15.8413 H   0  0  0  0  0  0  0  0  0  0  0  0
   50.1414    7.3511   17.2214 H   0  0  0  0  0  0  0  0  0  0  0  0
   46.2941    7.2659   11.9862 H   0  0  0  0  0  0  0  0  0  0  0  0
   44.7514    7.8806   12.6161 H   0  0  0  0  0  0  0  0  0  0  0  0
   47.0843    9.5682   11.5469 H   0  0  0  0  0  0  0  0  0  0  0  0
   45.5118    9.3555   10.7493 H   0  0  0  0  0  0  0  0  0  0  0  0
   45.6441   11.4014   11.9597 H   0  0  0  0  0  0  0  0  0  0  0  0
   44.4950   10.4497   12.6152 H   0  0  0  0  0  0  0  0  0  0  0  0
   46.2154    9.1647   14.0495 H   0  0  0  0  0  0  0  0  0  0  0  0
  4  1  1  0
  1  2  1  0
  2  3  1  0
 10 20  1  0
  9 21  1  0
 12 13  2  0
 21 22  1  0
  8  9  2  0
 22 23  2  0
 23 24  1  0
 13 14  1  0
  6  7  2  0
 14 15  2  0
  9 10  1  0
 24 25  1  0
 25 26  1  0
 26 27  2  0
 27 23  1  0
 15 16  1  0
 27 28  1  0
 16 11  2  0
 24 29  2  0
  5 11  1  0
 25 30  1  0
 10  5  2  0
 30 31  2  0
 15 17  1  0
 31 32  1  0
  5  6  1  0
 32 33  2  0
  7  8  1  0
 33 34  1  0
 17 18  1  0
 34 35  2  0
 35 30  1  0
 17 19  2  0
 33 36  1  0
 11 12  1  0
 32 37  1  0
 41 38  1  0
 38 39  1  0
 39 40  1  0
  1 42  1  0
  1 43  1  0
  2 44  1  0
  2 45  1  0
  3 46  1  0
  3 47  1  0
  4 48  1  0
  6 49  1  0
  7 50  1  0
  8 51  1  0
 12 52  1  0
 13 53  1  0
 14 54  1  0
 16 55  1  0
 18 56  1  0
 20 57  1  0
 21 58  1  0
 28 59  1  0
 28 60  1  0
 28 61  1  0
 31 62  1  0
 34 63  1  0
 35 64  1  0
 36 65  1  0
 36 66  1  0
 36 67  1  0
 37 68  1  0
 37 69  1  0
 37 70  1  0
 38 71  1  0
 38 72  1  0
 39 73  1  0
 39 74  1  0
 40 75  1  0
 40 76  1  0
 41 77  1  0
M  END
> <Uni-Dock RESULT> 
ENERGY=   -4.965  LOWER_BOUND=    0.000  UPPER_BOUND=    0.000
INTER + INTRA:          -4.965
INTER:                  -4.965
INTRA:                   0.000
UNBOUND:                 0.000

$$$$

     RDKit          3D

 77 78  0  0  0  0  0  0  0  0999 V2000
   49.0487    9.8459   16.8037 C   0  0  0  0  0  0  0  0  0  0  0  0
   49.3499   11.0892   15.9618 C   0  0  0  0  0  0  0  0  0  0  0  0
   50.6525   11.0109   15.3071 N   0  0  0  0  0  0  0  0  0  0  0  0
   47.7782    9.9729   17.4344 O   0  0  0  0  0  0  0  0  0  0  0  0
   47.3424    9.7600   20.1378 C   0  0  0  0  0  0  0  0  0  0  0  0
   46.2400   10.5649   20.4727 C   0  0  0  0  0  0  0  0  0  0  0  0
   46.0442   11.8123   19.8732 C   0  0  0  0  0  0  0  0  0  0  0  0
   46.9341   12.2713   18.9016 C   0  0  0  0  0  0  0  0  0  0  0  0
   48.0115   11.4798   18.4935 C   0  0  0  0  0  0  0  0  0  0  0  0
   48.2274   10.2558   19.1609 C   0  0  0  0  0  0  0  0  0  0  0  0
   47.5519    8.4677   20.8198 C   0  0  0  0  0  0  0  0  0  0  0  0
   47.5579    8.3845   22.2240 C   0  0  0  0  0  0  0  0  0  0  0  0
   47.7562    7.1652   22.8777 C   0  0  0  0  0  0  0  0  0  0  0  0
   47.9561    6.0011   22.1358 C   0  0  0  0  0  0  0  0  0  0  0  0
   47.9538    6.0552   20.7383 C   0  0  0  0  0  0  0  0  0  0  0  0
   47.7476    7.2816   20.0902 C   0  0  0  0  0  0  0  0  0  0  0  0
   48.1706    4.8465   19.9044 C   0  0  0  0  0  0  0  0  0  0  0  0
   48.4185    3.7442   20.6336 O   0  0  0  0  0  0  0  0  0  0  0  0
   48.1414    4.8009   18.6880 O   0  0  0  0  0  0  0  0  0  0  0  0
   49.3780    9.5489   18.8755 O   0  0  0  0  0  0  0  0  0  0  0  0
   48.9340   11.8938   17.4988 N   0  0  0  0  0  0  0  0  0  0  0  0
   48.7420   13.1072   16.9041 N   0  0  0  0  0  0  0  0  0  0  0  0
   49.1767   13.2333   15.6902 C   0  0  0  0  0  0  0  0  0  0  0  0
   49.8237   12.2378   14.7805 C   0  0  0  0  0  0  0  0  0  0  0  0
   49.9919   12.9770   13.6146 N   0  0  0  0  0  0  0  0  0  0  0  0
   49.5519   14.3126   13.7042 N   0  0  0  0  0  0  0  0  0  0  0  0
   49.0801   14.4866   14.9026 C   0  0  0  0  0  0  0  0  0  0  0  0
   48.5031   15.7284   15.4683 C   0  0  0  0  0  0  0  0  0  0  0  0
   50.0678   11.0962   15.1143 O   0  0  0  0  0  0  0  0  0  0  0  0
   50.5048   12.5241   12.3724 C   0  0  0  0  0  0  0  0  0  0  0  0
   50.9241   11.1997   12.1835 C   0  0  0  0  0  0  0  0  0  0  0  0
   51.4100   10.7470   10.9393 C   0  0  0  0  0  0  0  0  0  0  0  0
   51.4924   11.6453    9.8593 C   0  0  0  0  0  0  0  0  0  0  0  0
   51.0735   12.9689   10.0450 C   0  0  0  0  0  0  0  0  0  0  0  0
   50.5904   13.4006   11.2836 C   0  0  0  0  0  0  0  0  0  0  0  0
   51.9841   11.2095    8.5063 C   0  0  0  0  0  0  0  0  0  0  0  0
   51.8384    9.3104   10.7981 C   0  0  0  0  0  0  0  0  0  0  0  0
   49.5636   11.4645   15.5974 C   0  0  0  0  0  0  0  0  0  0  0  0
   49.6586   10.4776   16.7643 C   0  0  0  0  0  0  0  0  0  0  0  0
   48.5185    9.5515   16.7361 N   0  0  0  0  0  0  0  0  0  0  0  0
   49.4193   10.7433   14.3760 O   0  0  0  0  0  0  0  0  0  0  0  0
   49.8073    9.6937   17.5802 H   0  0  0  0  0  0  0  0  0  0  0  0
   49.0207    8.9511   16.1733 H   0  0  0  0  0  0  0  0  0  0  0  0
   48.5622   11.2256   15.2109 H   0  0  0  0  0  0  0  0  0  0  0  0
   49.3205   11.9783   16.6030 H   0  0  0  0  0  0  0  0  0  0  0  0
   50.6600   10.2202   14.6627 H   0  0  0  0  0  0  0  0  0  0  0  0
   50.7860   11.8398   14.7293 H   0  0  0  0  0  0  0  0  0  0  0  0
   47.8531   10.7021   18.0775 H   0  0  0  0  0  0  0  0  0  0  0  0
   45.5177   10.2247   21.2133 H   0  0  0  0  0  0  0  0  0  0  0  0
   45.1950   12.4261   20.1642 H   0  0  0  0  0  0  0  0  0  0  0  0
   46.7648   13.2442   18.4478 H   0  0  0  0  0  0  0  0  0  0  0  0
   47.4199    9.2835   22.8237 H   0  0  0  0  0  0  0  0  0  0  0  0
   47.7651    7.1277   23.9640 H   0  0  0  0  0  0  0  0  0  0  0  0
   48.1183    5.0605   22.6567 H   0  0  0  0  0  0  0  0  0  0  0  0
   47.7487    7.3150   19.0001 H   0  0  0  0  0  0  0  0  0  0  0  0
   48.5584    3.0425   19.9627 H   0  0  0  0  0  0  0  0  0  0  0  0
   50.0469   10.2147   18.6328 H   0  0  0  0  0  0  0  0  0  0  0  0
   49.2356   11.0960   16.9216 H   0  0  0  0  0  0  0  0  0  0  0  0
   47.4491   15.5668   15.7077 H   0  0  0  0  0  0  0  0  0  0  0  0
   48.5841   16.5457   14.7457 H   0  0  0  0  0  0  0  0  0  0  0  0
   49.0441   16.0054   16.3780 H   0  0  0  0  0  0  0  0  0  0  0  0
   50.8746   10.4824   12.9983 H   0  0  0  0  0  0  0  0  0  0  0  0
   51.1151   13.6811    9.2234 H   0  0  0  0  0  0  0  0  0  0  0  0
   50.2789   14.4380   11.3791 H   0  0  0  0  0  0  0  0  0  0  0  0
   52.9449   10.6933    8.5919 H   0  0  0  0  0  0  0  0  0  0  0  0
   52.1347   12.0669    7.8403 H   0  0  0  0  0  0  0  0  0  0  0  0
   51.2559   10.5438    8.0353 H   0  0  0  0  0  0  0  0  0  0  0  0
   51.6258    8.7333   11.7060 H   0  0  0  0  0  0  0  0  0  0  0  0
   52.9149    9.2555   10.6113 H   0  0  0  0  0  0  0  0  0  0  0  0
   51.3004    8.8320    9.9727 H   0  0  0  0  0  0  0  0  0  0  0  0
   50.4618   12.0845   15.5345 H   0  0  0  0  0  0  0  0  0  0  0  0
   48.6949   12.1209   15.7117 H   0  0  0  0  0  0  0  0  0  0  0  0
   50.5758    9.8887   16.6675 H   0  0  0  0  0  0  0  0  0  0  0  0
   49.6896   11.0139   17.7176 H   0  0  0  0  0  0  0  0  0  0  0  0
   48.5991    8.9065   17.5235 H   0  0  0  0  0  0  0  0  0  0  0  0
   47.6537   10.0735   16.8909 H   0  0  0  0  0  0  0  0  0  0  0  0
   48.8608    9.9747   14.6102 H   0  0  0  0  0  0  0  0  0  0  0  0
  4  1  1  0
  1  2  1  0
  2  3  1  0
 10 20  1  0
  9 21  1  0
 12 13  2  0
 21 22  1  0
  8  9  2  0
 22 23  2  0
 23 24  1  0
 13 14  1  0
  6  7  2  0
 14 15  2  0
  9 10  1  0
 24 25  1  0
 25 26  1  0
 26 27  2  0
 27 23  1  0
 15 16  1  0
 27 28  1  0
 16 11  2  0
 24 29  2  0
  5 11  1  0
 25 30  1  0
 10  5  2  0
 30 31  2  0
 15 17  1  0
 31 32  1  0
  5  6  1  0
 32 33  2  0
  7  8  1  0
 33 34  1  0
 17 18  1  0
 34 35  2  0
 35 30  1  0
 17 19  2  0
 33 36  1  0
 11 12  1  0
 32 37  1  0
 41 38  1  0
 38 39  1  0
 39 40  1  0
  1 42  1  0
  1 43  1  0
  2 44  1  0
  2 45  1  0
  3 46  1  0
  3 47  1  0
  4 48  1  0
  6 49  1  0
  7 50  1  0
  8 51  1  0
 12 52  1  0
 13 53  1  0
 14 54  1  0
 16 55  1  0
 18 56  1  0
 20 57  1  0
 21 58  1  0
 28 59  1  0
 28 60  1  0
 28 61  1  0
 31 62  1  0
 34 63  1  0
 35 64  1  0
 36 65  1  0
 36 66  1  0
 36 67  1  0
 37 68  1  0
 37 69  1  0
 37 70  1  0
 38 71  1  0
 38 72  1  0
 39 73  1  0
 39 74  1  0
 40 75  1  0
 40 76  1  0
 41 77  1  0
M  END
> <Uni-Dock RESULT> 
ENERGY=   -4.935  LOWER_BOUND=    6.210  UPPER_BOUND=   10.305
INTER + INTRA:          -4.935
INTER:                  -4.935
INTRA:                   0.000
UNBOUND:                 0.000

$$$$

     RDKit          3D

 77 78  0  0  0  0  0  0  0  0999 V2000
   48.6702    9.8914   13.8353 C   0  0  0  0  0  0  0  0  0  0  0  0
   47.4160    9.6232   12.9986 C   0  0  0  0  0  0  0  0  0  0  0  0
   47.5463    8.4239   12.1763 N   0  0  0  0  0  0  0  0  0  0  0  0
   48.5042   11.0762   14.6077 O   0  0  0  0  0  0  0  0  0  0  0  0
   50.2070   13.2307   14.5580 C   0  0  0  0  0  0  0  0  0  0  0  0
   49.4627   14.3891   14.8401 C   0  0  0  0  0  0  0  0  0  0  0  0
   48.1712   14.5623   14.3344 C   0  0  0  0  0  0  0  0  0  0  0  0
   47.5827   13.5649   13.5562 C   0  0  0  0  0  0  0  0  0  0  0  0
   48.2617   12.3705   13.2988 C   0  0  0  0  0  0  0  0  0  0  0  0
   49.5887   12.2472   13.7618 C   0  0  0  0  0  0  0  0  0  0  0  0
   51.5864   13.0933   15.0652 C   0  0  0  0  0  0  0  0  0  0  0  0
   52.5410   14.1026   14.8450 C   0  0  0  0  0  0  0  0  0  0  0  0
   53.8493   13.9802   15.3211 C   0  0  0  0  0  0  0  0  0  0  0  0
   54.2301   12.8393   16.0273 C   0  0  0  0  0  0  0  0  0  0  0  0
   53.3006   11.8208   16.2614 C   0  0  0  0  0  0  0  0  0  0  0  0
   51.9881   11.9545   15.7858 C   0  0  0  0  0  0  0  0  0  0  0  0
   53.6589   10.5840   16.9997 C   0  0  0  0  0  0  0  0  0  0  0  0
   54.9561   10.5406   17.3514 O   0  0  0  0  0  0  0  0  0  0  0  0
   52.9014    9.6732   17.2813 O   0  0  0  0  0  0  0  0  0  0  0  0
   50.3173   11.1414   13.3731 O   0  0  0  0  0  0  0  0  0  0  0  0
   47.7010   11.3202   12.5280 N   0  0  0  0  0  0  0  0  0  0  0  0
   46.4368   11.4809   12.0394 N   0  0  0  0  0  0  0  0  0  0  0  0
   45.7428   10.4016   11.8603 C   0  0  0  0  0  0  0  0  0  0  0  0
   46.0740    8.9726   12.1529 C   0  0  0  0  0  0  0  0  0  0  0  0
   44.8992    8.3227   11.7902 N   0  0  0  0  0  0  0  0  0  0  0  0
   43.8958    9.1736   11.2856 N   0  0  0  0  0  0  0  0  0  0  0  0
   44.3650   10.3852   11.3109 C   0  0  0  0  0  0  0  0  0  0  0  0
   43.6761   11.6236   10.8784 C   0  0  0  0  0  0  0  0  0  0  0  0
   47.1434    8.6201   12.6070 O   0  0  0  0  0  0  0  0  0  0  0  0
   44.6042    6.9411   11.9138 C   0  0  0  0  0  0  0  0  0  0  0  0
   45.5288    6.0316   12.4461 C   0  0  0  0  0  0  0  0  0  0  0  0
   45.2219    4.6627   12.5906 C   0  0  0  0  0  0  0  0  0  0  0  0
   43.9630    4.1875   12.1790 C   0  0  0  0  0  0  0  0  0  0  0  0
   43.0369    5.0941   11.6475 C   0  0  0  0  0  0  0  0  0  0  0  0
   43.3553    6.4487   11.5148 C   0  0  0  0  0  0  0  0  0  0  0  0
   43.5776    2.7414   12.3294 C   0  0  0  0  0  0  0  0  0  0  0  0
   46.2556    3.7374   13.1761 C   0  0  0  0  0  0  0  0  0  0  0  0
   47.0136    9.3960   12.6732 C   0  0  0  0  0  0  0  0  0  0  0  0
   48.4550    9.8066   12.9873 C   0  0  0  0  0  0  0  0  0  0  0  0
   48.6219    9.9948   14.4348 N   0  0  0  0  0  0  0  0  0  0  0  0
   46.6610    8.2609   13.4603 O   0  0  0  0  0  0  0  0  0  0  0  0
   49.5568   10.0120   13.2021 H   0  0  0  0  0  0  0  0  0  0  0  0
   48.8553    9.0641   14.5283 H   0  0  0  0  0  0  0  0  0  0  0  0
   46.5452    9.5302   13.6589 H   0  0  0  0  0  0  0  0  0  0  0  0
   47.2197   10.4860   12.3509 H   0  0  0  0  0  0  0  0  0  0  0  0
   47.6664    7.6109   12.7806 H   0  0  0  0  0  0  0  0  0  0  0  0
   46.6739    8.2678   11.6729 H   0  0  0  0  0  0  0  0  0  0  0  0
   48.4558   11.8197   13.9786 H   0  0  0  0  0  0  0  0  0  0  0  0
   49.8881   15.1762   15.4609 H   0  0  0  0  0  0  0  0  0  0  0  0
   47.6231   15.4766   14.5493 H   0  0  0  0  0  0  0  0  0  0  0  0
   46.5779   13.7189   13.1719 H   0  0  0  0  0  0  0  0  0  0  0  0
   52.2703   14.9952   14.2820 H   0  0  0  0  0  0  0  0  0  0  0  0
   54.5715   14.7701   15.1310 H   0  0  0  0  0  0  0  0  0  0  0  0
   55.2534   12.7525   16.3844 H   0  0  0  0  0  0  0  0  0  0  0  0
   51.2700   11.1549   15.9717 H   0  0  0  0  0  0  0  0  0  0  0  0
   55.0501    9.6759   17.8048 H   0  0  0  0  0  0  0  0  0  0  0  0
   49.9718   10.8885   12.4976 H   0  0  0  0  0  0  0  0  0  0  0  0
   47.9808   10.4013   12.8993 H   0  0  0  0  0  0  0  0  0  0  0  0
   43.5356   12.2840   11.7377 H   0  0  0  0  0  0  0  0  0  0  0  0
   42.6991   11.3821   10.4499 H   0  0  0  0  0  0  0  0  0  0  0  0
   44.2779   12.1352   10.1214 H   0  0  0  0  0  0  0  0  0  0  0  0
   46.5099    6.3669   12.7714 H   0  0  0  0  0  0  0  0  0  0  0  0
   42.0519    4.7556   11.3327 H   0  0  0  0  0  0  0  0  0  0  0  0
   42.6039    7.1132   11.0950 H   0  0  0  0  0  0  0  0  0  0  0  0
   44.3434    2.0903   11.8974 H   0  0  0  0  0  0  0  0  0  0  0  0
   42.6363    2.5226   11.8122 H   0  0  0  0  0  0  0  0  0  0  0  0
   43.4447    2.4930   13.3857 H   0  0  0  0  0  0  0  0  0  0  0  0
   47.1403    4.2854   13.5218 H   0  0  0  0  0  0  0  0  0  0  0  0
   46.5830    3.0145   12.4231 H   0  0  0  0  0  0  0  0  0  0  0  0
   45.8435    3.2034   14.0390 H   0  0  0  0  0  0  0  0  0  0  0  0
   46.9010    9.1388   11.6166 H   0  0  0  0  0  0  0  0  0  0  0  0
   46.3169   10.2065   12.9103 H   0  0  0  0  0  0  0  0  0  0  0  0
   49.1362    9.0121   12.6682 H   0  0  0  0  0  0  0  0  0  0  0  0
   48.7169   10.7242   12.4517 H   0  0  0  0  0  0  0  0  0  0  0  0
   49.5868   10.2720   14.6213 H   0  0  0  0  0  0  0  0  0  0  0  0
   48.0424   10.7775   14.7441 H   0  0  0  0  0  0  0  0  0  0  0  0
   47.1118    8.4070   14.3164 H   0  0  0  0  0  0  0  0  0  0  0  0
  4  1  1  0
  1  2  1  0
  2  3  1  0
 10 20  1  0
  9 21  1  0
 12 13  2  0
 21 22  1  0
  8  9  2  0
 22 23  2  0
 23 24  1  0
 13 14  1  0
  6  7  2  0
 14 15  2  0
  9 10  1  0
 24 25  1  0
 25 26  1  0
 26 27  2  0
 27 23  1  0
 15 16  1  0
 27 28  1  0
 16 11  2  0
 24 29  2  0
  5 11  1  0
 25 30  1  0
 10  5  2  0
 30 31  2  0
 15 17  1  0
 31 32  1  0
  5  6  1  0
 32 33  2  0
  7  8  1  0
 33 34  1  0
 17 18  1  0
 34 35  2  0
 35 30  1  0
 17 19  2  0
 33 36  1  0
 11 12  1  0
 32 37  1  0
 41 38  1  0
 38 39  1  0
 39 40  1  0
  1 42  1  0
  1 43  1  0
  2 44  1  0
  2 45  1  0
  3 46  1  0
  3 47  1  0
  4 48  1  0
  6 49  1  0
  7 50  1  0
  8 51  1  0
 12 52  1  0
 13 53  1  0
 14 54  1  0
 16 55  1  0
 18 56  1  0
 20 57  1  0
 21 58  1  0
 28 59  1  0
 28 60  1  0
 28 61  1  0
 31 62  1  0
 34 63  1  0
 35 64  1  0
 36 65  1  0
 36 66  1  0
 36 67  1  0
 37 68  1  0
 37 69  1  0
 37 70  1  0
 38 71  1  0
 38 72  1  0
 39 73  1  0
 39 74  1  0
 40 75  1  0
 40 76  1  0
 41 77  1  0
M  END
> <Uni-Dock RESULT> 
ENERGY=   -4.933  LOWER_BOUND=    4.000  UPPER_BOUND=    6.892
INTER + INTRA:          -4.933
INTER:                  -4.933
INTRA:                   0.000
UNBOUND:                 0.000

$$$$

     RDKit          3D

 77 78  0  0  0  0  0  0  0  0999 V2000
   43.2554   11.7206   11.3138 C   0  0  0  0  0  0  0  0  0  0  0  0
   43.8510   10.3112   11.3787 C   0  0  0  0  0  0  0  0  0  0  0  0
   45.1802   10.2449   10.7785 N   0  0  0  0  0  0  0  0  0  0  0  0
   41.9557   11.7344   11.8955 O   0  0  0  0  0  0  0  0  0  0  0  0
   39.6815   12.6111   10.6292 C   0  0  0  0  0  0  0  0  0  0  0  0
   38.5857   11.8974   11.1441 C   0  0  0  0  0  0  0  0  0  0  0  0
   38.6843   10.5364   11.4468 C   0  0  0  0  0  0  0  0  0  0  0  0
   39.8933    9.8634   11.2674 C   0  0  0  0  0  0  0  0  0  0  0  0
   41.0262   10.5454   10.8141 C   0  0  0  0  0  0  0  0  0  0  0  0
   40.8846   11.9012   10.4505 C   0  0  0  0  0  0  0  0  0  0  0  0
   39.5375   14.0365   10.2735 C   0  0  0  0  0  0  0  0  0  0  0  0
   38.4977   14.4693    9.4308 C   0  0  0  0  0  0  0  0  0  0  0  0
   38.3546   15.8167    9.0884 C   0  0  0  0  0  0  0  0  0  0  0  0
   39.2546   16.7608    9.5825 C   0  0  0  0  0  0  0  0  0  0  0  0
   40.2971   16.3579   10.4232 C   0  0  0  0  0  0  0  0  0  0  0  0
   40.4298   15.0048   10.7671 C   0  0  0  0  0  0  0  0  0  0  0  0
   41.2855   17.3223   10.9676 C   0  0  0  0  0  0  0  0  0  0  0  0
   41.0951   18.5763   10.5209 O   0  0  0  0  0  0  0  0  0  0  0  0
   42.1928   17.0608   11.7363 O   0  0  0  0  0  0  0  0  0  0  0  0
   41.9554   12.5333    9.8515 O   0  0  0  0  0  0  0  0  0  0  0  0
   42.2814    9.9109   10.6311 N   0  0  0  0  0  0  0  0  0  0  0  0
   42.3851    8.5841   10.9337 N   0  0  0  0  0  0  0  0  0  0  0  0
   43.5514    8.1649   11.3116 C   0  0  0  0  0  0  0  0  0  0  0  0
   44.8287    8.9113   11.5317 C   0  0  0  0  0  0  0  0  0  0  0  0
   45.6777    7.9063   11.9825 N   0  0  0  0  0  0  0  0  0  0  0  0
   45.0865    6.6286   12.0414 N   0  0  0  0  0  0  0  0  0  0  0  0
   43.8534    6.7527   11.6505 C   0  0  0  0  0  0  0  0  0  0  0  0
   42.8341    5.6828   11.5428 C   0  0  0  0  0  0  0  0  0  0  0  0
   44.9413   10.1041   11.3347 O   0  0  0  0  0  0  0  0  0  0  0  0
   47.0212    8.0418   12.4157 C   0  0  0  0  0  0  0  0  0  0  0  0
   47.6722    9.2833   12.4312 C   0  0  0  0  0  0  0  0  0  0  0  0
   49.0002    9.4176   12.8867 C   0  0  0  0  0  0  0  0  0  0  0  0
   49.7010    8.2787   13.3247 C   0  0  0  0  0  0  0  0  0  0  0  0
   49.0528    7.0371   13.3110 C   0  0  0  0  0  0  0  0  0  0  0  0
   47.7347    6.9217   12.8604 C   0  0  0  0  0  0  0  0  0  0  0  0
   51.1116    8.3696   13.8388 C   0  0  0  0  0  0  0  0  0  0  0  0
   49.6415   10.7801   12.8853 C   0  0  0  0  0  0  0  0  0  0  0  0
   44.1913    9.8602   11.3699 C   0  0  0  0  0  0  0  0  0  0  0  0
   43.5532   11.1097   10.7565 C   0  0  0  0  0  0  0  0  0  0  0  0
   43.0265   11.9796   11.8167 N   0  0  0  0  0  0  0  0  0  0  0  0
   45.1543   10.2495   12.3464 O   0  0  0  0  0  0  0  0  0  0  0  0
   43.1761   12.0756   10.2798 H   0  0  0  0  0  0  0  0  0  0  0  0
   43.8782   12.4282   11.8711 H   0  0  0  0  0  0  0  0  0  0  0  0
   43.8956    9.9775   12.4225 H   0  0  0  0  0  0  0  0  0  0  0  0
   43.1850    9.6110   10.8605 H   0  0  0  0  0  0  0  0  0  0  0  0
   45.8167   10.8487   11.2988 H   0  0  0  0  0  0  0  0  0  0  0  0
   45.5473    9.2999   10.8839 H   0  0  0  0  0  0  0  0  0  0  0  0
   41.3834   11.1912   11.3224 H   0  0  0  0  0  0  0  0  0  0  0  0
   37.6347   12.4001   11.3133 H   0  0  0  0  0  0  0  0  0  0  0  0
   37.8165   10.0008   11.8244 H   0  0  0  0  0  0  0  0  0  0  0  0
   39.9494    8.8051   11.5080 H   0  0  0  0  0  0  0  0  0  0  0  0
   37.7927   13.7472    9.0202 H   0  0  0  0  0  0  0  0  0  0  0  0
   37.5478   16.1256    8.4286 H   0  0  0  0  0  0  0  0  0  0  0  0
   39.1375   17.8045    9.3011 H   0  0  0  0  0  0  0  0  0  0  0  0
   41.2464   14.6991   11.4222 H   0  0  0  0  0  0  0  0  0  0  0  0
   41.8186   19.0896   10.9395 H   0  0  0  0  0  0  0  0  0  0  0  0
   42.4373   11.8393    9.3659 H   0  0  0  0  0  0  0  0  0  0  0  0
   43.0538   10.5435   10.8837 H   0  0  0  0  0  0  0  0  0  0  0  0
   42.0190    5.8815   12.2431 H   0  0  0  0  0  0  0  0  0  0  0  0
   43.2793    4.7120   11.7789 H   0  0  0  0  0  0  0  0  0  0  0  0
   42.4379    5.6521   10.5234 H   0  0  0  0  0  0  0  0  0  0  0  0
   47.1588   10.1811   12.0977 H   0  0  0  0  0  0  0  0  0  0  0  0
   49.5674    6.1424   13.6557 H   0  0  0  0  0  0  0  0  0  0  0  0
   47.2750    5.9364   12.8670 H   0  0  0  0  0  0  0  0  0  0  0  0
   51.7478    8.9069   13.1293 H   0  0  0  0  0  0  0  0  0  0  0  0
   51.5507    7.3752   13.9797 H   0  0  0  0  0  0  0  0  0  0  0  0
   51.1305    8.8834   14.8036 H   0  0  0  0  0  0  0  0  0  0  0  0
   48.9293   11.5626   12.5979 H   0  0  0  0  0  0  0  0  0  0  0  0
   50.4711   10.8045   12.1725 H   0  0  0  0  0  0  0  0  0  0  0  0
   50.0131   11.0270   13.8856 H   0  0  0  0  0  0  0  0  0  0  0  0
   44.6905    9.2596   10.6049 H   0  0  0  0  0  0  0  0  0  0  0  0
   43.4365    9.2388   11.8626 H   0  0  0  0  0  0  0  0  0  0  0  0
   44.3129   11.6709   10.2040 H   0  0  0  0  0  0  0  0  0  0  0  0
   42.7549   10.8302   10.0622 H   0  0  0  0  0  0  0  0  0  0  0  0
   42.6025   12.8028   11.3865 H   0  0  0  0  0  0  0  0  0  0  0  0
   42.2685   11.4986   12.3048 H   0  0  0  0  0  0  0  0  0  0  0  0
   44.7675   11.0427   12.7690 H   0  0  0  0  0  0  0  0  0  0  0  0
  4  1  1  0
  1  2  1  0
  2  3  1  0
 10 20  1  0
  9 21  1  0
 12 13  2  0
 21 22  1  0
  8  9  2  0
 22 23  2  0
 23 24  1  0
 13 14  1  0
  6  7  2  0
 14 15  2  0
  9 10  1  0
 24 25  1  0
 25 26  1  0
 26 27  2  0
 27 23  1  0
 15 16  1  0
 27 28  1  0
 16 11  2  0
 24 29  2  0
  5 11  1  0
 25 30  1  0
 10  5  2  0
 30 31  2  0
 15 17  1  0
 31 32  1  0
  5  6  1  0
 32 33  2  0
  7  8  1  0
 33 34  1  0
 17 18  1  0
 34 35  2  0
 35 30  1  0
 17 19  2  0
 33 36  1  0
 11 12  1  0
 32 37  1  0
 41 38  1  0
 38 39  1  0
 39 40  1  0
  1 42  1  0
  1 43  1  0
  2 44  1  0
  2 45  1  0
  3 46  1  0
  3 47  1  0
  4 48  1  0
  6 49  1  0
  7 50  1  0
  8 51  1  0
 12 52  1  0
 13 53  1  0
 14 54  1  0
 16 55  1  0
 18 56  1  0
 20 57  1  0
 21 58  1  0
 28 59  1  0
 28 60  1  0
 28 61  1  0
 31 62  1  0
 34 63  1  0
 35 64  1  0
 36 65  1  0
 36 66  1  0
 36 67  1  0
 37 68  1  0
 37 69  1  0
 37 70  1  0
 38 71  1  0
 38 72  1  0
 39 73  1  0
 39 74  1  0
 40 75  1  0
 40 76  1  0
 41 77  1  0
M  END
> <Uni-Dock RESULT> 
ENERGY=   -4.916  LOWER_BOUND=    2.895  UPPER_BOUND=    3.828
INTER + INTRA:          -4.916
INTER:                  -4.916
INTRA:                   0.000
UNBOUND:                 0.000

$$$$

     RDKit          3D

 77 78  0  0  0  0  0  0  0  0999 V2000
   44.9922   11.4751   10.9817 C   0  0  0  0  0  0  0  0  0  0  0  0
   45.7285   10.4055   11.7935 C   0  0  0  0  0  0  0  0  0  0  0  0
   44.8224    9.6282   12.6338 N   0  0  0  0  0  0  0  0  0  0  0  0
   45.9152   12.2168   10.1907 O   0  0  0  0  0  0  0  0  0  0  0  0
   46.1888   14.9491   10.2510 C   0  0  0  0  0  0  0  0  0  0  0  0
   47.5214   15.2671    9.9374 C   0  0  0  0  0  0  0  0  0  0  0  0
   48.5829   14.4912   10.4118 C   0  0  0  0  0  0  0  0  0  0  0  0
   48.3327   13.3600   11.1893 C   0  0  0  0  0  0  0  0  0  0  0  0
   47.0213   12.9710   11.4771 C   0  0  0  0  0  0  0  0  0  0  0  0
   45.9701   13.8071   11.0456 C   0  0  0  0  0  0  0  0  0  0  0  0
   45.0889   15.8118    9.7766 C   0  0  0  0  0  0  0  0  0  0  0  0
   45.1092   17.1996   10.0052 C   0  0  0  0  0  0  0  0  0  0  0  0
   44.0717   18.0234    9.5602 C   0  0  0  0  0  0  0  0  0  0  0  0
   42.9877   17.4718    8.8773 C   0  0  0  0  0  0  0  0  0  0  0  0
   42.9427   16.0951    8.6356 C   0  0  0  0  0  0  0  0  0  0  0  0
   43.9910   15.2763    9.0798 C   0  0  0  0  0  0  0  0  0  0  0  0
   41.8075   15.4590    7.9213 C   0  0  0  0  0  0  0  0  0  0  0  0
   40.8360   16.3312    7.5994 O   0  0  0  0  0  0  0  0  0  0  0  0
   41.7124   14.2795    7.6345 O   0  0  0  0  0  0  0  0  0  0  0  0
   44.6878   13.5154   11.4647 O   0  0  0  0  0  0  0  0  0  0  0  0
   46.7141   11.8211   12.2486 N   0  0  0  0  0  0  0  0  0  0  0  0
   47.7469   11.0553   12.7066 N   0  0  0  0  0  0  0  0  0  0  0  0
   47.5006    9.7958   12.8839 C   0  0  0  0  0  0  0  0  0  0  0  0
   46.2627    8.9999   12.6170 C   0  0  0  0  0  0  0  0  0  0  0  0
   46.6649    7.7140   12.9616 N   0  0  0  0  0  0  0  0  0  0  0  0
   47.9899    7.6257   13.4327 N   0  0  0  0  0  0  0  0  0  0  0  0
   48.4936    8.8233   13.4024 C   0  0  0  0  0  0  0  0  0  0  0  0
   49.8599    9.2327   13.8035 C   0  0  0  0  0  0  0  0  0  0  0  0
   45.2375    9.4922   12.1917 O   0  0  0  0  0  0  0  0  0  0  0  0
   45.9142    6.5161   12.8492 C   0  0  0  0  0  0  0  0  0  0  0  0
   44.6044    6.5076   12.3494 C   0  0  0  0  0  0  0  0  0  0  0  0
   43.8705    5.3108   12.2156 C   0  0  0  0  0  0  0  0  0  0  0  0
   44.4559    4.0918   12.6049 C   0  0  0  0  0  0  0  0  0  0  0  0
   45.7647    4.0971   13.1039 C   0  0  0  0  0  0  0  0  0  0  0  0
   46.4800    5.2918   13.2263 C   0  0  0  0  0  0  0  0  0  0  0  0
   43.7247    2.7849   12.4645 C   0  0  0  0  0  0  0  0  0  0  0  0
   42.4700    5.3671   11.6653 C   0  0  0  0  0  0  0  0  0  0  0  0
   45.8682    9.9605   12.1127 C   0  0  0  0  0  0  0  0  0  0  0  0
   45.1093   11.2592   11.8257 C   0  0  0  0  0  0  0  0  0  0  0  0
   45.0837   11.5198   10.3800 N   0  0  0  0  0  0  0  0  0  0  0  0
   45.3135    8.9040   11.3324 O   0  0  0  0  0  0  0  0  0  0  0  0
   44.4543   12.1737   11.6331 H   0  0  0  0  0  0  0  0  0  0  0  0
   44.2671   11.0130   10.3037 H   0  0  0  0  0  0  0  0  0  0  0  0
   46.2735    9.7379   11.1150 H   0  0  0  0  0  0  0  0  0  0  0  0
   46.4852   10.8856   12.4255 H   0  0  0  0  0  0  0  0  0  0  0  0
   44.1562    9.1307   12.0428 H   0  0  0  0  0  0  0  0  0  0  0  0
   45.3538    8.9067   13.1194 H   0  0  0  0  0  0  0  0  0  0  0  0
   46.4822   12.7140   10.8090 H   0  0  0  0  0  0  0  0  0  0  0  0
   47.7468   16.1327    9.3163 H   0  0  0  0  0  0  0  0  0  0  0  0
   49.6067   14.7695   10.1730 H   0  0  0  0  0  0  0  0  0  0  0  0
   49.1716   12.7703   11.5490 H   0  0  0  0  0  0  0  0  0  0  0  0
   45.9379   17.6499   10.5506 H   0  0  0  0  0  0  0  0  0  0  0  0
   44.1059   19.0920    9.7563 H   0  0  0  0  0  0  0  0  0  0  0  0
   42.1828   18.1225    8.5444 H   0  0  0  0  0  0  0  0  0  0  0  0
   43.9473   14.2036    8.8882 H   0  0  0  0  0  0  0  0  0  0  0  0
   40.1564   15.7775    7.1593 H   0  0  0  0  0  0  0  0  0  0  0  0
   44.7825   13.0879   12.3354 H   0  0  0  0  0  0  0  0  0  0  0  0
   45.8654   11.3569   11.8954 H   0  0  0  0  0  0  0  0  0  0  0  0
   50.3981    9.6156   12.9329 H   0  0  0  0  0  0  0  0  0  0  0  0
   50.4053    8.3776   14.2130 H   0  0  0  0  0  0  0  0  0  0  0  0
   49.8015   10.0139   14.5672 H   0  0  0  0  0  0  0  0  0  0  0  0
   44.1238    7.4325   12.0420 H   0  0  0  0  0  0  0  0  0  0  0  0
   46.2456    3.1674   13.4008 H   0  0  0  0  0  0  0  0  0  0  0  0
   47.4923    5.2451   13.6206 H   0  0  0  0  0  0  0  0  0  0  0  0
   42.7326    2.8458   12.9218 H   0  0  0  0  0  0  0  0  0  0  0  0
   44.2624    1.9703   12.9632 H   0  0  0  0  0  0  0  0  0  0  0  0
   43.6213    2.5205   11.4087 H   0  0  0  0  0  0  0  0  0  0  0  0
   42.2060    6.3780   11.3325 H   0  0  0  0  0  0  0  0  0  0  0  0
   41.7513    5.0698   12.4347 H   0  0  0  0  0  0  0  0  0  0  0  0
   42.3738    4.7022   10.8002 H   0  0  0  0  0  0  0  0  0  0  0  0
   45.7969    9.6906   13.1696 H   0  0  0  0  0  0  0  0  0  0  0  0
   46.9261   10.0609   11.8496 H   0  0  0  0  0  0  0  0  0  0  0  0
   44.0755   11.1589   12.1701 H   0  0  0  0  0  0  0  0  0  0  0  0
   45.5717   12.0977   12.3552 H   0  0  0  0  0  0  0  0  0  0  0  0
   44.5779   12.3906   10.2117 H   0  0  0  0  0  0  0  0  0  0  0  0
   46.0363   11.6821   10.0478 H   0  0  0  0  0  0  0  0  0  0  0  0
   45.0695    9.3278   10.4848 H   0  0  0  0  0  0  0  0  0  0  0  0
  4  1  1  0
  1  2  1  0
  2  3  1  0
 10 20  1  0
  9 21  1  0
 12 13  2  0
 21 22  1  0
  8  9  2  0
 22 23  2  0
 23 24  1  0
 13 14  1  0
  6  7  2  0
 14 15  2  0
  9 10  1  0
 24 25  1  0
 25 26  1  0
 26 27  2  0
 27 23  1  0
 15 16  1  0
 27 28  1  0
 16 11  2  0
 24 29  2  0
  5 11  1  0
 25 30  1  0
 10  5  2  0
 30 31  2  0
 15 17  1  0
 31 32  1  0
  5  6  1  0
 32 33  2  0
  7  8  1  0
 33 34  1  0
 17 18  1  0
 34 35  2  0
 35 30  1  0
 17 19  2  0
 33 36  1  0
 11 12  1  0
 32 37  1  0
 41 38  1  0
 38 39  1  0
 39 40  1  0
  1 42  1  0
  1 43  1  0
  2 44  1  0
  2 45  1  0
  3 46  1  0
  3 47  1  0
  4 48  1  0
  6 49  1  0
  7 50  1  0
  8 51  1  0
 12 52  1  0
 13 53  1  0
 14 54  1  0
 16 55  1  0
 18 56  1  0
 20 57  1  0
 21 58  1  0
 28 59  1  0
 28 60  1  0
 28 61  1  0
 31 62  1  0
 34 63  1  0
 35 64  1  0
 36 65  1  0
 36 66  1  0
 36 67  1  0
 37 68  1  0
 37 69  1  0
 37 70  1  0
 38 71  1  0
 38 72  1  0
 39 73  1  0
 39 74  1  0
 40 75  1  0
 40 76  1  0
 41 77  1  0
M  END
> <Uni-Dock RESULT> 
ENERGY=   -4.891  LOWER_BOUND=    2.341  UPPER_BOUND=    4.676
INTER + INTRA:          -4.891
INTER:                  -4.891
INTRA:                   0.000
UNBOUND:                 0.000

$$$$

     RDKit          3D

 77 78  0  0  0  0  0  0  0  0999 V2000
   48.4826    9.7287   16.9094 C   0  0  0  0  0  0  0  0  0  0  0  0
   48.8609   11.1571   17.3118 C   0  0  0  0  0  0  0  0  0  0  0  0
   49.7741   11.7769   16.3562 N   0  0  0  0  0  0  0  0  0  0  0  0
   47.6052    9.1597   17.8760 O   0  0  0  0  0  0  0  0  0  0  0  0
   48.0547    6.7965   19.2017 C   0  0  0  0  0  0  0  0  0  0  0  0
   47.4415    6.8741   20.4639 C   0  0  0  0  0  0  0  0  0  0  0  0
   47.4607    8.0572   21.2080 C   0  0  0  0  0  0  0  0  0  0  0  0
   48.0710    9.2009   20.6920 C   0  0  0  0  0  0  0  0  0  0  0  0
   48.6418    9.1880   19.4160 C   0  0  0  0  0  0  0  0  0  0  0  0
   48.6706    7.9650   18.7131 C   0  0  0  0  0  0  0  0  0  0  0  0
   48.0611    5.5220   18.4570 C   0  0  0  0  0  0  0  0  0  0  0  0
   48.5096    4.3340   19.0621 C   0  0  0  0  0  0  0  0  0  0  0  0
   48.5196    3.1233   18.3641 C   0  0  0  0  0  0  0  0  0  0  0  0
   48.0819    3.0781   17.0405 C   0  0  0  0  0  0  0  0  0  0  0  0
   47.6298    4.2444   16.4149 C   0  0  0  0  0  0  0  0  0  0  0  0
   47.6168    5.4539   17.1245 C   0  0  0  0  0  0  0  0  0  0  0  0
   47.1622    4.2502   15.0061 C   0  0  0  0  0  0  0  0  0  0  0  0
   47.2785    3.0503   14.4103 O   0  0  0  0  0  0  0  0  0  0  0  0
   46.7154    5.2094   14.4038 O   0  0  0  0  0  0  0  0  0  0  0  0
   49.3740    7.9085   17.5270 O   0  0  0  0  0  0  0  0  0  0  0  0
   49.2591   10.3278   18.8403 N   0  0  0  0  0  0  0  0  0  0  0  0
   49.2726   11.4878   19.5592 N   0  0  0  0  0  0  0  0  0  0  0  0
   49.2926   12.5909   18.8799 C   0  0  0  0  0  0  0  0  0  0  0  0
   49.2490   12.8244   17.4032 C   0  0  0  0  0  0  0  0  0  0  0  0
   49.2419   14.2132   17.3295 N   0  0  0  0  0  0  0  0  0  0  0  0
   49.3024   14.8622   18.5787 N   0  0  0  0  0  0  0  0  0  0  0  0
   49.3389   13.9403   19.4940 C   0  0  0  0  0  0  0  0  0  0  0  0
   49.4073   14.1347   20.9612 C   0  0  0  0  0  0  0  0  0  0  0  0
   49.2173   11.9229   16.5906 O   0  0  0  0  0  0  0  0  0  0  0  0
   49.1393   15.0147   16.1641 C   0  0  0  0  0  0  0  0  0  0  0  0
   49.0308   14.4508   14.8852 C   0  0  0  0  0  0  0  0  0  0  0  0
   48.9035   15.2514   13.7311 C   0  0  0  0  0  0  0  0  0  0  0  0
   48.8991   16.6529   13.8571 C   0  0  0  0  0  0  0  0  0  0  0  0
   49.0066   17.2191   15.1337 C   0  0  0  0  0  0  0  0  0  0  0  0
   49.1279   16.4113   16.2680 C   0  0  0  0  0  0  0  0  0  0  0  0
   48.7460   17.5521   12.6612 C   0  0  0  0  0  0  0  0  0  0  0  0
   48.7836   14.5851   12.3860 C   0  0  0  0  0  0  0  0  0  0  0  0
   49.0472   11.6904   17.3256 C   0  0  0  0  0  0  0  0  0  0  0  0
   49.2104   10.1855   17.0945 C   0  0  0  0  0  0  0  0  0  0  0  0
   47.8963    9.5606   16.8923 N   0  0  0  0  0  0  0  0  0  0  0  0
   48.2833   12.2540   16.2619 O   0  0  0  0  0  0  0  0  0  0  0  0
   49.3679    9.0877   16.8253 H   0  0  0  0  0  0  0  0  0  0  0  0
   47.9648    9.7244   15.9447 H   0  0  0  0  0  0  0  0  0  0  0  0
   47.9534   11.7652   17.4093 H   0  0  0  0  0  0  0  0  0  0  0  0
   49.3295   11.1435   18.3031 H   0  0  0  0  0  0  0  0  0  0  0  0
   49.3160   11.8473   15.4475 H   0  0  0  0  0  0  0  0  0  0  0  0
   49.9611   12.7357   16.6467 H   0  0  0  0  0  0  0  0  0  0  0  0
   48.1167    9.0633   18.7006 H   0  0  0  0  0  0  0  0  0  0  0  0
   46.9403    6.0035   20.8843 H   0  0  0  0  0  0  0  0  0  0  0  0
   46.9974    8.0866   22.1914 H   0  0  0  0  0  0  0  0  0  0  0  0
   48.0758   10.1107   21.2862 H   0  0  0  0  0  0  0  0  0  0  0  0
   48.8711    4.3487   20.0898 H   0  0  0  0  0  0  0  0  0  0  0  0
   48.8788    2.2200   18.8507 H   0  0  0  0  0  0  0  0  0  0  0  0
   48.1034    2.1316   16.5059 H   0  0  0  0  0  0  0  0  0  0  0  0
   47.2639    6.3589   16.6286 H   0  0  0  0  0  0  0  0  0  0  0  0
   46.9571    3.2069   13.4969 H   0  0  0  0  0  0  0  0  0  0  0  0
   50.0969    8.5561   17.6144 H   0  0  0  0  0  0  0  0  0  0  0  0
   49.0823   10.3695   17.8266 H   0  0  0  0  0  0  0  0  0  0  0  0
   48.5003   13.7400   21.4258 H   0  0  0  0  0  0  0  0  0  0  0  0
   49.4955   15.1991   21.1974 H   0  0  0  0  0  0  0  0  0  0  0  0
   50.2792   13.6097   21.3626 H   0  0  0  0  0  0  0  0  0  0  0  0
   49.0329   13.3720   14.7545 H   0  0  0  0  0  0  0  0  0  0  0  0
   48.9936   18.2996   15.2608 H   0  0  0  0  0  0  0  0  0  0  0  0
   49.2103   16.8974   17.2371 H   0  0  0  0  0  0  0  0  0  0  0  0
   49.4651   17.2842   11.8813 H   0  0  0  0  0  0  0  0  0  0  0  0
   48.9275   18.6008   12.9235 H   0  0  0  0  0  0  0  0  0  0  0  0
   47.7318   17.4785   12.2595 H   0  0  0  0  0  0  0  0  0  0  0  0
   48.7163   13.4946   12.4789 H   0  0  0  0  0  0  0  0  0  0  0  0
   49.6600   14.8151   11.7729 H   0  0  0  0  0  0  0  0  0  0  0  0
   47.8790   14.9263   11.8714 H   0  0  0  0  0  0  0  0  0  0  0  0
   50.0195   12.1889   17.3615 H   0  0  0  0  0  0  0  0  0  0  0  0
   48.5210   11.8857   18.2655 H   0  0  0  0  0  0  0  0  0  0  0  0
   49.8068   10.0196   16.1923 H   0  0  0  0  0  0  0  0  0  0  0  0
   49.7258    9.7219   17.9413 H   0  0  0  0  0  0  0  0  0  0  0  0
   48.0276    8.5588   16.7448 H   0  0  0  0  0  0  0  0  0  0  0  0
   47.3447    9.6463   17.7482 H   0  0  0  0  0  0  0  0  0  0  0  0
   47.6231   11.5656   16.0432 H   0  0  0  0  0  0  0  0  0  0  0  0
  4  1  1  0
  1  2  1  0
  2  3  1  0
 10 20  1  0
  9 21  1  0
 12 13  2  0
 21 22  1  0
  8  9  2  0
 22 23  2  0
 23 24  1  0
 13 14  1  0
  6  7  2  0
 14 15  2  0
  9 10  1  0
 24 25  1  0
 25 26  1  0
 26 27  2  0
 27 23  1  0
 15 16  1  0
 27 28  1  0
 16 11  2  0
 24 29  2  0
  5 11  1  0
 25 30  1  0
 10  5  2  0
 30 31  2  0
 15 17  1  0
 31 32  1  0
  5  6  1  0
 32 33  2  0
  7  8  1  0
 33 34  1  0
 17 18  1  0
 34 35  2  0
 35 30  1  0
 17 19  2  0
 33 36  1  0
 11 12  1  0
 32 37  1  0
 41 38  1  0
 38 39  1  0
 39 40  1  0
  1 42  1  0
  1 43  1  0
  2 44  1  0
  2 45  1  0
  3 46  1  0
  3 47  1  0
  4 48  1  0
  6 49  1  0
  7 50  1  0
  8 51  1  0
 12 52  1  0
 13 53  1  0
 14 54  1  0
 16 55  1  0
 18 56  1  0
 20 57  1  0
 21 58  1  0
 28 59  1  0
 28 60  1  0
 28 61  1  0
 31 62  1  0
 34 63  1  0
 35 64  1  0
 36 65  1  0
 36 66  1  0
 36 67  1  0
 37 68  1  0
 37 69  1  0
 37 70  1  0
 38 71  1  0
 38 72  1  0
 39 73  1  0
 39 74  1  0
 40 75  1  0
 40 76  1  0
 41 77  1  0
M  END
> <Uni-Dock RESULT> 
ENERGY=   -4.849  LOWER_BOUND=    5.244  UPPER_BOUND=   10.848
INTER + INTRA:          -4.849
INTER:                  -4.849
INTRA:                   0.000
UNBOUND:                 0.000

$$$$

     RDKit          3D

 77 78  0  0  0  0  0  0  0  0999 V2000
   47.6079   10.4505   12.1139 C   0  0  0  0  0  0  0  0  0  0  0  0
   46.2933   11.0033   11.5558 C   0  0  0  0  0  0  0  0  0  0  0  0
   46.2014   12.4539   11.6926 N   0  0  0  0  0  0  0  0  0  0  0  0
   47.6469    9.0340   11.9734 O   0  0  0  0  0  0  0  0  0  0  0  0
   48.0612    7.2657   14.0339 C   0  0  0  0  0  0  0  0  0  0  0  0
   47.3925    6.0676   13.7296 C   0  0  0  0  0  0  0  0  0  0  0  0
   46.1380    6.0737   13.1131 C   0  0  0  0  0  0  0  0  0  0  0  0
   45.5353    7.2817   12.7604 C   0  0  0  0  0  0  0  0  0  0  0  0
   46.1890    8.4959   12.9893 C   0  0  0  0  0  0  0  0  0  0  0  0
   47.4222    8.4681   13.6741 C   0  0  0  0  0  0  0  0  0  0  0  0
   49.3637    7.2328   14.7277 C   0  0  0  0  0  0  0  0  0  0  0  0
   49.5283    6.5067   15.9212 C   0  0  0  0  0  0  0  0  0  0  0  0
   50.7577    6.4708   16.5849 C   0  0  0  0  0  0  0  0  0  0  0  0
   51.8501    7.1660   16.0665 C   0  0  0  0  0  0  0  0  0  0  0  0
   51.7144    7.8951   14.8807 C   0  0  0  0  0  0  0  0  0  0  0  0
   50.4790    7.9206   14.2176 C   0  0  0  0  0  0  0  0  0  0  0  0
   52.8441    8.6583   14.2935 C   0  0  0  0  0  0  0  0  0  0  0  0
   53.9568    8.6108   15.0471 O   0  0  0  0  0  0  0  0  0  0  0  0
   52.8207    9.2809   13.2473 O   0  0  0  0  0  0  0  0  0  0  0  0
   47.9916    9.6691   14.0455 O   0  0  0  0  0  0  0  0  0  0  0  0
   45.6265    9.7487   12.6346 N   0  0  0  0  0  0  0  0  0  0  0  0
   44.4057    9.7594   12.0243 N   0  0  0  0  0  0  0  0  0  0  0  0
   44.1653   10.7510   11.2258 C   0  0  0  0  0  0  0  0  0  0  0  0
   45.0354   11.8913   10.8020 C   0  0  0  0  0  0  0  0  0  0  0  0
   44.2157   12.5619    9.9005 N   0  0  0  0  0  0  0  0  0  0  0  0
   42.9388   11.9888    9.7381 N   0  0  0  0  0  0  0  0  0  0  0  0
   42.8839   10.9392   10.5026 C   0  0  0  0  0  0  0  0  0  0  0  0
   41.7419   10.0105   10.6712 C   0  0  0  0  0  0  0  0  0  0  0  0
   46.1642   12.0537   11.2186 O   0  0  0  0  0  0  0  0  0  0  0  0
   44.5408   13.7016    9.1218 C   0  0  0  0  0  0  0  0  0  0  0  0
   45.8028   14.3085    9.1891 C   0  0  0  0  0  0  0  0  0  0  0  0
   46.1303   15.4265    8.3942 C   0  0  0  0  0  0  0  0  0  0  0  0
   45.1663   15.9610    7.5194 C   0  0  0  0  0  0  0  0  0  0  0  0
   43.9049   15.3562    7.4496 C   0  0  0  0  0  0  0  0  0  0  0  0
   43.5976   14.2460    8.2413 C   0  0  0  0  0  0  0  0  0  0  0  0
   45.4701   17.1393    6.6354 C   0  0  0  0  0  0  0  0  0  0  0  0
   47.5058   16.0288    8.5072 C   0  0  0  0  0  0  0  0  0  0  0  0
   45.8776   11.3316   11.3590 C   0  0  0  0  0  0  0  0  0  0  0  0
   46.9169   10.9110   12.4019 C   0  0  0  0  0  0  0  0  0  0  0  0
   47.9497   10.0743   11.7761 N   0  0  0  0  0  0  0  0  0  0  0  0
   46.5366   11.9386   10.2499 O   0  0  0  0  0  0  0  0  0  0  0  0
   47.7285   10.6970   13.1752 H   0  0  0  0  0  0  0  0  0  0  0  0
   48.4624   10.8639   11.5680 H   0  0  0  0  0  0  0  0  0  0  0  0
   46.1929   10.7208   10.5008 H   0  0  0  0  0  0  0  0  0  0  0  0
   45.4510   10.5366   12.0803 H   0  0  0  0  0  0  0  0  0  0  0  0
   46.9481   12.8924   11.1534 H   0  0  0  0  0  0  0  0  0  0  0  0
   45.3307   12.7745   11.2709 H   0  0  0  0  0  0  0  0  0  0  0  0
   46.9529    8.6727   12.5555 H   0  0  0  0  0  0  0  0  0  0  0  0
   47.8466    5.1088   13.9750 H   0  0  0  0  0  0  0  0  0  0  0  0
   45.6310    5.1341   12.9066 H   0  0  0  0  0  0  0  0  0  0  0  0
   44.5595    7.2653   12.2824 H   0  0  0  0  0  0  0  0  0  0  0  0
   48.6845    5.9694   16.3530 H   0  0  0  0  0  0  0  0  0  0  0  0
   50.8580    5.9095   17.5103 H   0  0  0  0  0  0  0  0  0  0  0  0
   52.7986    7.1373   16.5974 H   0  0  0  0  0  0  0  0  0  0  0  0
   50.3817    8.4928   13.2942 H   0  0  0  0  0  0  0  0  0  0  0  0
   54.6002    9.1642   14.5553 H   0  0  0  0  0  0  0  0  0  0  0  0
   47.2487   10.2825   14.1924 H   0  0  0  0  0  0  0  0  0  0  0  0
   46.3545   10.3999   12.3085 H   0  0  0  0  0  0  0  0  0  0  0  0
   42.0226    9.0161   10.3152 H   0  0  0  0  0  0  0  0  0  0  0  0
   40.8796   10.3646   10.0989 H   0  0  0  0  0  0  0  0  0  0  0  0
   41.4659    9.9535   11.7283 H   0  0  0  0  0  0  0  0  0  0  0  0
   46.5682   13.9205    9.8559 H   0  0  0  0  0  0  0  0  0  0  0  0
   43.1450   15.7417    6.7729 H   0  0  0  0  0  0  0  0  0  0  0  0
   42.6043   13.8125    8.1531 H   0  0  0  0  0  0  0  0  0  0  0  0
   45.8911   17.9628    7.2198 H   0  0  0  0  0  0  0  0  0  0  0  0
   44.5642   17.5175    6.1478 H   0  0  0  0  0  0  0  0  0  0  0  0
   46.1769   16.8527    5.8521 H   0  0  0  0  0  0  0  0  0  0  0  0
   48.1537   15.4382    9.1658 H   0  0  0  0  0  0  0  0  0  0  0  0
   47.4409   17.0397    8.9205 H   0  0  0  0  0  0  0  0  0  0  0  0
   47.9865   16.0674    7.5238 H   0  0  0  0  0  0  0  0  0  0  0  0
   45.1677   12.0483   11.7803 H   0  0  0  0  0  0  0  0  0  0  0  0
   45.3199   10.4639   10.9923 H   0  0  0  0  0  0  0  0  0  0  0  0
   47.4037   11.8024   12.8089 H   0  0  0  0  0  0  0  0  0  0  0  0
   46.4371   10.3716   13.2243 H   0  0  0  0  0  0  0  0  0  0  0  0
   48.6286    9.8019   12.4885 H   0  0  0  0  0  0  0  0  0  0  0  0
   47.5275    9.2042   11.4464 H   0  0  0  0  0  0  0  0  0  0  0  0
   47.3700   11.4347   10.1547 H   0  0  0  0  0  0  0  0  0  0  0  0
  4  1  1  0
  1  2  1  0
  2  3  1  0
 10 20  1  0
  9 21  1  0
 12 13  2  0
 21 22  1  0
  8  9  2  0
 22 23  2  0
 23 24  1  0
 13 14  1  0
  6  7  2  0
 14 15  2  0
  9 10  1  0
 24 25  1  0
 25 26  1  0
 26 27  2  0
 27 23  1  0
 15 16  1  0
 27 28  1  0
 16 11  2  0
 24 29  2  0
  5 11  1  0
 25 30  1  0
 10  5  2  0
 30 31  2  0
 15 17  1  0
 31 32  1  0
  5  6  1  0
 32 33  2  0
  7  8  1  0
 33 34  1  0
 17 18  1  0
 34 35  2  0
 35 30  1  0
 17 19  2  0
 33 36  1  0
 11 12  1  0
 32 37  1  0
 41 38  1  0
 38 39  1  0
 39 40  1  0
  1 42  1  0
  1 43  1  0
  2 44  1  0
  2 45  1  0
  3 46  1  0
  3 47  1  0
  4 48  1  0
  6 49  1  0
  7 50  1  0
  8 51  1  0
 12 52  1  0
 13 53  1  0
 14 54  1  0
 16 55  1  0
 18 56  1  0
 20 57  1  0
 21 58  1  0
 28 59  1  0
 28 60  1  0
 28 61  1  0
 31 62  1  0
 34 63  1  0
 35 64  1  0
 36 65  1  0
 36 66  1  0
 36 67  1  0
 37 68  1  0
 37 69  1  0
 37 70  1  0
 38 71  1  0
 38 72  1  0
 39 73  1  0
 39 74  1  0
 40 75  1  0
 40 76  1  0
 41 77  1  0
M  END
> <Uni-Dock RESULT> 
ENERGY=   -4.810  LOWER_BOUND=    2.327  UPPER_BOUND=    8.783
INTER + INTRA:          -4.810
INTER:                  -4.810
INTRA:                   0.000
UNBOUND:                 0.000

$$$$

     RDKit          3D

 77 78  0  0  0  0  0  0  0  0999 V2000
   45.6585   11.1730   11.3802 C   0  0  0  0  0  0  0  0  0  0  0  0
   46.2890    9.9786   12.1021 C   0  0  0  0  0  0  0  0  0  0  0  0
   45.3168    9.2416   12.9040 N   0  0  0  0  0  0  0  0  0  0  0  0
   46.6444   11.8695   10.6246 O   0  0  0  0  0  0  0  0  0  0  0  0
   47.2020   14.5479   10.8678 C   0  0  0  0  0  0  0  0  0  0  0  0
   48.5567   14.7480   10.5514 C   0  0  0  0  0  0  0  0  0  0  0  0
   49.5371   13.8353   10.9507 C   0  0  0  0  0  0  0  0  0  0  0  0
   49.1796   12.6839   11.6531 C   0  0  0  0  0  0  0  0  0  0  0  0
   47.8383   12.4129   11.9385 C   0  0  0  0  0  0  0  0  0  0  0  0
   46.8749   13.3814   11.5859 C   0  0  0  0  0  0  0  0  0  0  0  0
   46.1925   15.5508   10.4752 C   0  0  0  0  0  0  0  0  0  0  0  0
   46.3601   16.9095   10.7985 C   0  0  0  0  0  0  0  0  0  0  0  0
   45.4090   17.8653   10.4312 C   0  0  0  0  0  0  0  0  0  0  0  0
   44.2653   17.4780    9.7329 C   0  0  0  0  0  0  0  0  0  0  0  0
   44.0741   16.1337    9.3977 C   0  0  0  0  0  0  0  0  0  0  0  0
   45.0366   15.1819    9.7643 C   0  0  0  0  0  0  0  0  0  0  0  0
   42.8703   15.6702    8.6633 C   0  0  0  0  0  0  0  0  0  0  0  0
   41.9913   16.6585    8.4209 O   0  0  0  0  0  0  0  0  0  0  0  0
   42.6493   14.5299    8.2978 O   0  0  0  0  0  0  0  0  0  0  0  0
   45.5744   13.1947   12.0084 O   0  0  0  0  0  0  0  0  0  0  0  0
   47.4222   11.2494   12.6347 N   0  0  0  0  0  0  0  0  0  0  0  0
   48.3749   10.3507   13.0189 N   0  0  0  0  0  0  0  0  0  0  0  0
   48.0007    9.1139   13.1137 C   0  0  0  0  0  0  0  0  0  0  0  0
   46.6834    8.4709   12.8164 C   0  0  0  0  0  0  0  0  0  0  0  0
   46.9534    7.1292   13.0638 N   0  0  0  0  0  0  0  0  0  0  0  0
   48.2676    6.8717   13.5021 N   0  0  0  0  0  0  0  0  0  0  0  0
   48.8930    8.0101   13.5448 C   0  0  0  0  0  0  0  0  0  0  0  0
   50.2992    8.2470   13.9469 C   0  0  0  0  0  0  0  0  0  0  0  0
   45.7102    9.0951   12.4457 O   0  0  0  0  0  0  0  0  0  0  0  0
   46.0807    6.0261   12.8835 C   0  0  0  0  0  0  0  0  0  0  0  0
   44.7713    6.1881   12.4096 C   0  0  0  0  0  0  0  0  0  0  0  0
   43.9150    5.0858   12.2077 C   0  0  0  0  0  0  0  0  0  0  0  0
   44.3747    3.7885   12.5008 C   0  0  0  0  0  0  0  0  0  0  0  0
   45.6828    3.6236   12.9737 C   0  0  0  0  0  0  0  0  0  0  0  0
   46.5202    4.7264   13.1644 C   0  0  0  0  0  0  0  0  0  0  0  0
   43.5097    2.5772   12.2847 C   0  0  0  0  0  0  0  0  0  0  0  0
   42.5216    5.3250   11.6895 C   0  0  0  0  0  0  0  0  0  0  0  0
   46.3853    9.5002   12.3871 C   0  0  0  0  0  0  0  0  0  0  0  0
   45.7625   10.8872   12.2049 C   0  0  0  0  0  0  0  0  0  0  0  0
   45.7471   11.2504   10.7814 N   0  0  0  0  0  0  0  0  0  0  0  0
   45.7142    8.5643   11.5466 O   0  0  0  0  0  0  0  0  0  0  0  0
   45.2043   11.8757   12.0884 H   0  0  0  0  0  0  0  0  0  0  0  0
   44.8812   10.8373   10.6860 H   0  0  0  0  0  0  0  0  0  0  0  0
   46.7533    9.3079   11.3689 H   0  0  0  0  0  0  0  0  0  0  0  0
   47.0990   10.3323   12.7510 H   0  0  0  0  0  0  0  0  0  0  0  0
   44.5954    8.8585   12.2930 H   0  0  0  0  0  0  0  0  0  0  0  0
   45.7759    8.4367   13.3285 H   0  0  0  0  0  0  0  0  0  0  0  0
   47.2674   12.2607   11.2647 H   0  0  0  0  0  0  0  0  0  0  0  0
   48.8638   15.6274    9.9872 H   0  0  0  0  0  0  0  0  0  0  0  0
   50.5814   14.0226   10.7121 H   0  0  0  0  0  0  0  0  0  0  0  0
   49.9567   11.9869   11.9551 H   0  0  0  0  0  0  0  0  0  0  0  0
   47.2377   17.2323   11.3575 H   0  0  0  0  0  0  0  0  0  0  0  0
   45.5567   18.9082   10.6998 H   0  0  0  0  0  0  0  0  0  0  0  0
   43.5287   18.2302    9.4611 H   0  0  0  0  0  0  0  0  0  0  0  0
   44.8789   14.1356    9.5001 H   0  0  0  0  0  0  0  0  0  0  0  0
   41.2525   16.2102    7.9568 H   0  0  0  0  0  0  0  0  0  0  0  0
   45.6343   12.6994   12.8456 H   0  0  0  0  0  0  0  0  0  0  0  0
   46.5255   10.9013   12.2667 H   0  0  0  0  0  0  0  0  0  0  0  0
   50.8640    8.6328   13.0946 H   0  0  0  0  0  0  0  0  0  0  0  0
   50.7573    7.3134   14.2860 H   0  0  0  0  0  0  0  0  0  0  0  0
   50.3317    8.9743   14.7636 H   0  0  0  0  0  0  0  0  0  0  0  0
   44.3861    7.1770   12.1758 H   0  0  0  0  0  0  0  0  0  0  0  0
   46.0677    2.6306   13.1966 H   0  0  0  0  0  0  0  0  0  0  0  0
   47.5267    4.5478   13.5351 H   0  0  0  0  0  0  0  0  0  0  0  0
   42.5349    2.7077   12.7640 H   0  0  0  0  0  0  0  0  0  0  0  0
   43.9654    1.6783   12.7156 H   0  0  0  0  0  0  0  0  0  0  0  0
   43.3667    2.4000   11.2153 H   0  0  0  0  0  0  0  0  0  0  0  0
   42.3604    6.3786   11.4324 H   0  0  0  0  0  0  0  0  0  0  0  0
   41.7851    5.0499   12.4502 H   0  0  0  0  0  0  0  0  0  0  0  0
   42.3462    4.7362   10.7827 H   0  0  0  0  0  0  0  0  0  0  0  0
   46.2988    9.1652   13.4241 H   0  0  0  0  0  0  0  0  0  0  0  0
   47.4447    9.5092   12.1114 H   0  0  0  0  0  0  0  0  0  0  0  0
   44.7282   10.8701   12.5614 H   0  0  0  0  0  0  0  0  0  0  0  0
   46.3162   11.6341   12.7820 H   0  0  0  0  0  0  0  0  0  0  0  0
   45.3329   12.1784   10.6832 H   0  0  0  0  0  0  0  0  0  0  0  0
   46.7074   11.3366   10.4430 H   0  0  0  0  0  0  0  0  0  0  0  0
   45.5057    9.0697   10.7351 H   0  0  0  0  0  0  0  0  0  0  0  0
  4  1  1  0
  1  2  1  0
  2  3  1  0
 10 20  1  0
  9 21  1  0
 12 13  2  0
 21 22  1  0
  8  9  2  0
 22 23  2  0
 23 24  1  0
 13 14  1  0
  6  7  2  0
 14 15  2  0
  9 10  1  0
 24 25  1  0
 25 26  1  0
 26 27  2  0
 27 23  1  0
 15 16  1  0
 27 28  1  0
 16 11  2  0
 24 29  2  0
  5 11  1  0
 25 30  1  0
 10  5  2  0
 30 31  2  0
 15 17  1  0
 31 32  1  0
  5  6  1  0
 32 33  2  0
  7  8  1  0
 33 34  1  0
 17 18  1  0
 34 35  2  0
 35 30  1  0
 17 19  2  0
 33 36  1  0
 11 12  1  0
 32 37  1  0
 41 38  1  0
 38 39  1  0
 39 40  1  0
  1 42  1  0
  1 43  1  0
  2 44  1  0
  2 45  1  0
  3 46  1  0
  3 47  1  0
  4 48  1  0
  6 49  1  0
  7 50  1  0
  8 51  1  0
 12 52  1  0
 13 53  1  0
 14 54  1  0
 16 55  1  0
 18 56  1  0
 20 57  1  0
 21 58  1  0
 28 59  1  0
 28 60  1  0
 28 61  1  0
 31 62  1  0
 34 63  1  0
 35 64  1  0
 36 65  1  0
 36 66  1  0
 36 67  1  0
 37 68  1  0
 37 69  1  0
 37 70  1  0
 38 71  1  0
 38 72  1  0
 39 73  1  0
 39 74  1  0
 40 75  1  0
 40 76  1  0
 41 77  1  0
M  END
> <Uni-Dock RESULT> 
ENERGY=   -4.737  LOWER_BOUND=    2.372  UPPER_BOUND=    4.621
INTER + INTRA:          -4.737
INTER:                  -4.737
INTRA:                   0.000
UNBOUND:                 0.000

$$$$

     RDKit          3D

 77 78  0  0  0  0  0  0  0  0999 V2000
   50.8309    6.9799   16.8645 C   0  0  0  0  0  0  0  0  0  0  0  0
   50.5097    7.3879   15.4238 C   0  0  0  0  0  0  0  0  0  0  0  0
   51.0138    8.7195   15.1011 N   0  0  0  0  0  0  0  0  0  0  0  0
   50.3081    5.6840   17.1387 O   0  0  0  0  0  0  0  0  0  0  0  0
   48.6001    5.0885   19.2056 C   0  0  0  0  0  0  0  0  0  0  0  0
   47.7895    4.0098   18.8125 C   0  0  0  0  0  0  0  0  0  0  0  0
   47.2996    3.9088   17.5073 C   0  0  0  0  0  0  0  0  0  0  0  0
   47.6341    4.8728   16.5557 C   0  0  0  0  0  0  0  0  0  0  0  0
   48.4856    5.9313   16.8848 C   0  0  0  0  0  0  0  0  0  0  0  0
   48.9116    6.0497   18.2246 C   0  0  0  0  0  0  0  0  0  0  0  0
   49.0655    5.1963   20.6023 C   0  0  0  0  0  0  0  0  0  0  0  0
   48.1579    5.1201   21.6742 C   0  0  0  0  0  0  0  0  0  0  0  0
   48.5900    5.2219   22.9994 C   0  0  0  0  0  0  0  0  0  0  0  0
   49.9441    5.4057   23.2788 C   0  0  0  0  0  0  0  0  0  0  0  0
   50.8683    5.4839   22.2320 C   0  0  0  0  0  0  0  0  0  0  0  0
   50.4272    5.3742   20.9053 C   0  0  0  0  0  0  0  0  0  0  0  0
   52.3181    5.6874   22.4768 C   0  0  0  0  0  0  0  0  0  0  0  0
   52.6133    5.8403   23.7798 O   0  0  0  0  0  0  0  0  0  0  0  0
   53.1897    5.7239   21.6273 O   0  0  0  0  0  0  0  0  0  0  0  0
   49.6170    7.1784   18.5896 O   0  0  0  0  0  0  0  0  0  0  0  0
   48.8686    6.9268   15.9500 N   0  0  0  0  0  0  0  0  0  0  0  0
   48.4000    6.8277   14.6719 N   0  0  0  0  0  0  0  0  0  0  0  0
   49.1442    7.3350   13.7405 C   0  0  0  0  0  0  0  0  0  0  0  0
   50.4905    7.9822   13.8158 C   0  0  0  0  0  0  0  0  0  0  0  0
   50.7581    8.2510   12.4779 N   0  0  0  0  0  0  0  0  0  0  0  0
   49.7301    7.8725   11.5917 N   0  0  0  0  0  0  0  0  0  0  0  0
   48.7794    7.3438   12.3027 C   0  0  0  0  0  0  0  0  0  0  0  0
   47.4915    6.7975   11.8148 C   0  0  0  0  0  0  0  0  0  0  0  0
   51.0867    8.1513   14.8599 O   0  0  0  0  0  0  0  0  0  0  0  0
   51.9409    8.8095   11.9300 C   0  0  0  0  0  0  0  0  0  0  0  0
   53.0293    9.1735   12.7352 C   0  0  0  0  0  0  0  0  0  0  0  0
   54.2135    9.7052   12.1837 C   0  0  0  0  0  0  0  0  0  0  0  0
   54.3070    9.8914   10.7920 C   0  0  0  0  0  0  0  0  0  0  0  0
   53.2213    9.5279    9.9850 C   0  0  0  0  0  0  0  0  0  0  0  0
   52.0562    8.9984   10.5471 C   0  0  0  0  0  0  0  0  0  0  0  0
   55.5539   10.4358   10.1507 C   0  0  0  0  0  0  0  0  0  0  0  0
   55.3503   10.0701   13.1012 C   0  0  0  0  0  0  0  0  0  0  0  0
   50.4884    7.6396   14.9183 C   0  0  0  0  0  0  0  0  0  0  0  0
   50.3987    7.6212   16.4468 C   0  0  0  0  0  0  0  0  0  0  0  0
   51.0924    6.4405   16.9789 N   0  0  0  0  0  0  0  0  0  0  0  0
   51.8532    7.5284   14.5213 O   0  0  0  0  0  0  0  0  0  0  0  0
   50.4037    7.6858   17.5862 H   0  0  0  0  0  0  0  0  0  0  0  0
   51.9138    6.9434   17.0224 H   0  0  0  0  0  0  0  0  0  0  0  0
   50.9308    6.6509   14.7293 H   0  0  0  0  0  0  0  0  0  0  0  0
   49.4237    7.3663   15.2734 H   0  0  0  0  0  0  0  0  0  0  0  0
   52.0308    8.7243   15.1799 H   0  0  0  0  0  0  0  0  0  0  0  0
   50.8112    8.9253   14.1237 H   0  0  0  0  0  0  0  0  0  0  0  0
   49.3363    5.7585   17.1074 H   0  0  0  0  0  0  0  0  0  0  0  0
   47.5276    3.2317   19.5279 H   0  0  0  0  0  0  0  0  0  0  0  0
   46.6569    3.0757   17.2325 H   0  0  0  0  0  0  0  0  0  0  0  0
   47.2426    4.7767   15.5464 H   0  0  0  0  0  0  0  0  0  0  0  0
   47.0936    4.9930   21.4790 H   0  0  0  0  0  0  0  0  0  0  0  0
   47.8683    5.1684   23.8105 H   0  0  0  0  0  0  0  0  0  0  0  0
   50.2660    5.4925   24.3137 H   0  0  0  0  0  0  0  0  0  0  0  0
   51.1544    5.4376   20.0950 H   0  0  0  0  0  0  0  0  0  0  0  0
   53.5837    5.9828   23.7880 H   0  0  0  0  0  0  0  0  0  0  0  0
   49.3000    7.8916   18.0059 H   0  0  0  0  0  0  0  0  0  0  0  0
   49.8435    7.2208   16.1040 H   0  0  0  0  0  0  0  0  0  0  0  0
   47.4467    5.7252   12.0208 H   0  0  0  0  0  0  0  0  0  0  0  0
   47.3973    6.9584   10.7369 H   0  0  0  0  0  0  0  0  0  0  0  0
   46.6622    7.2999   12.3215 H   0  0  0  0  0  0  0  0  0  0  0  0
   52.9875    9.0438   13.8132 H   0  0  0  0  0  0  0  0  0  0  0  0
   53.2716    9.6500    8.9050 H   0  0  0  0  0  0  0  0  0  0  0  0
   51.2398    8.7330    9.8798 H   0  0  0  0  0  0  0  0  0  0  0  0
   55.8659   11.3640   10.6386 H   0  0  0  0  0  0  0  0  0  0  0  0
   55.3913   10.6649    9.0913 H   0  0  0  0  0  0  0  0  0  0  0  0
   56.3630    9.7033   10.2144 H   0  0  0  0  0  0  0  0  0  0  0  0
   55.1432    9.7794   14.1380 H   0  0  0  0  0  0  0  0  0  0  0  0
   55.5156   11.1514   13.0837 H   0  0  0  0  0  0  0  0  0  0  0  0
   56.2675    9.5562   12.7942 H   0  0  0  0  0  0  0  0  0  0  0  0
   50.0798    8.5691   14.5131 H   0  0  0  0  0  0  0  0  0  0  0  0
   49.9367    6.7990   14.4853 H   0  0  0  0  0  0  0  0  0  0  0  0
   50.8893    8.5125   16.8497 H   0  0  0  0  0  0  0  0  0  0  0  0
   49.3529    7.6252   16.7690 H   0  0  0  0  0  0  0  0  0  0  0  0
   51.0167    6.4456   17.9971 H   0  0  0  0  0  0  0  0  0  0  0  0
   50.6102    5.5950   16.6678 H   0  0  0  0  0  0  0  0  0  0  0  0
   52.2503    6.9210   15.1777 H   0  0  0  0  0  0  0  0  0  0  0  0
  4  1  1  0
  1  2  1  0
  2  3  1  0
 10 20  1  0
  9 21  1  0
 12 13  2  0
 21 22  1  0
  8  9  2  0
 22 23  2  0
 23 24  1  0
 13 14  1  0
  6  7  2  0
 14 15  2  0
  9 10  1  0
 24 25  1  0
 25 26  1  0
 26 27  2  0
 27 23  1  0
 15 16  1  0
 27 28  1  0
 16 11  2  0
 24 29  2  0
  5 11  1  0
 25 30  1  0
 10  5  2  0
 30 31  2  0
 15 17  1  0
 31 32  1  0
  5  6  1  0
 32 33  2  0
  7  8  1  0
 33 34  1  0
 17 18  1  0
 34 35  2  0
 35 30  1  0
 17 19  2  0
 33 36  1  0
 11 12  1  0
 32 37  1  0
 41 38  1  0
 38 39  1  0
 39 40  1  0
  1 42  1  0
  1 43  1  0
  2 44  1  0
  2 45  1  0
  3 46  1  0
  3 47  1  0
  4 48  1  0
  6 49  1  0
  7 50  1  0
  8 51  1  0
 12 52  1  0
 13 53  1  0
 14 54  1  0
 16 55  1  0
 18 56  1  0
 20 57  1  0
 21 58  1  0
 28 59  1  0
 28 60  1  0
 28 61  1  0
 31 62  1  0
 34 63  1  0
 35 64  1  0
 36 65  1  0
 36 66  1  0
 36 67  1  0
 37 68  1  0
 37 69  1  0
 37 70  1  0
 38 71  1  0
 38 72  1  0
 39 73  1  0
 39 74  1  0
 40 75  1  0
 40 76  1  0
 41 77  1  0
M  END
> <Uni-Dock RESULT> 
ENERGY=   -4.527  LOWER_BOUND=    5.841  UPPER_BOUND=   10.472
INTER + INTRA:          -4.527
INTER:                  -4.527
INTRA:                   0.000
UNBOUND:                 0.000

$$$$
