
     RDKit          3D

 42 44  0  0  0  0  0  0  0  0999 V2000
   -0.5696    0.2113    0.2261 C   0  0  0  0  0  0  0  0  0  0  0  0
   -1.3223    1.4712    0.1319 C   0  0  0  0  0  0  0  0  0  0  0  0
   -1.3258   -1.0357    0.0143 C   0  0  0  0  0  0  0  0  0  0  0  0
   -2.8490    0.7934    2.0535 C   0  0  0  0  0  0  0  0  0  0  0  0
   -2.8300   -0.5475    2.0063 C   0  0  0  0  0  0  0  0  0  0  0  0
   -2.4295    1.7207    0.9734 C   0  0  0  0  0  0  0  0  0  0  0  0
   -2.4100   -1.3770    0.8519 C   0  0  0  0  0  0  0  0  0  0  0  0
    0.7499    0.2402    0.5000 C   0  0  0  0  0  0  0  0  0  0  0  0
    3.5346    0.0895   -0.4668 N   0  0  0  0  0  0  0  0  0  0  0  0
    1.6169   -0.9759    0.7119 C   0  0  0  0  0  0  0  0  0  0  0  0
   -0.9950   -1.8694   -1.0684 C   0  0  0  0  0  0  0  0  0  0  0  0
   -0.9292    2.4388   -0.8095 C   0  0  0  0  0  0  0  0  0  0  0  0
    2.6680   -1.1092   -0.3981 C   0  0  0  0  0  0  0  0  0  0  0  0
   -3.0843   -2.5913    0.6352 C   0  0  0  0  0  0  0  0  0  0  0  0
   -3.1024    2.9506    0.8669 C   0  0  0  0  0  0  0  0  0  0  0  0
    4.6424   -0.0002    0.5005 C   0  0  0  0  0  0  0  0  0  0  0  0
    4.0811    0.2478   -1.8240 C   0  0  0  0  0  0  0  0  0  0  0  0
   -1.6903   -3.0598   -1.2833 C   0  0  0  0  0  0  0  0  0  0  0  0
   -1.6224    3.6452   -0.9145 C   0  0  0  0  0  0  0  0  0  0  0  0
   -2.7071    3.9012   -0.0769 C   0  0  0  0  0  0  0  0  0  0  0  0
   -2.7281   -3.4249   -0.4270 C   0  0  0  0  0  0  0  0  0  0  0  0
   -3.2917    1.2414    2.9359 H   0  0  0  0  0  0  0  0  0  0  0  0
   -3.2610   -1.0702    2.8527 H   0  0  0  0  0  0  0  0  0  0  0  0
    1.2340    1.2025    0.6258 H   0  0  0  0  0  0  0  0  0  0  0  0
    2.1143   -0.8835    1.6989 H   0  0  0  0  0  0  0  0  0  0  0  0
    1.0208   -1.9104    0.7586 H   0  0  0  0  0  0  0  0  0  0  0  0
   -0.2001   -1.5946   -1.7491 H   0  0  0  0  0  0  0  0  0  0  0  0
   -0.0874    2.2547   -1.4662 H   0  0  0  0  0  0  0  0  0  0  0  0
    3.2683   -2.0324   -0.2313 H   0  0  0  0  0  0  0  0  0  0  0  0
    2.1217   -1.2572   -1.3563 H   0  0  0  0  0  0  0  0  0  0  0  0
   -3.9000   -2.8889    1.2833 H   0  0  0  0  0  0  0  0  0  0  0  0
   -3.9394    3.1754    1.5170 H   0  0  0  0  0  0  0  0  0  0  0  0
    5.2958   -0.8760    0.2889 H   0  0  0  0  0  0  0  0  0  0  0  0
    5.2581    0.9242    0.4625 H   0  0  0  0  0  0  0  0  0  0  0  0
    4.2522   -0.0817    1.5356 H   0  0  0  0  0  0  0  0  0  0  0  0
    3.2560    0.4143   -2.5496 H   0  0  0  0  0  0  0  0  0  0  0  0
    4.6614   -0.6511   -2.1313 H   0  0  0  0  0  0  0  0  0  0  0  0
    4.7403    1.1415   -1.8741 H   0  0  0  0  0  0  0  0  0  0  0  0
   -1.4236   -3.7000   -2.1143 H   0  0  0  0  0  0  0  0  0  0  0  0
   -1.3155    4.3841   -1.6435 H   0  0  0  0  0  0  0  0  0  0  0  0
   -3.2391    4.8406   -0.1537 H   0  0  0  0  0  0  0  0  0  0  0  0
   -3.2627   -4.3517   -0.5903 H   0  0  0  0  0  0  0  0  0  0  0  0
  2  1  1  0
  3  1  1  0
  4  6  1  0
  5  7  1  0
  6  2  2  0
  7  3  2  0
  8  1  2  3
  9 13  1  0
 10  8  1  0
 11  3  1  0
 12  2  1  0
 13 10  1  0
 14  7  1  0
 15  6  1  0
 16  9  1  0
 17  9  1  0
 18 11  2  0
 19 12  2  0
 20 19  1  0
 21 18  1  0
  5  4  2  0
 21 14  2  0
 20 15  2  0
  4 22  1  0
  5 23  1  0
  8 24  1  0
 10 25  1  0
 10 26  1  0
 11 27  1  0
 12 28  1  0
 13 29  1  0
 13 30  1  0
 14 31  1  0
 15 32  1  0
 16 33  1  0
 16 34  1  0
 16 35  1  0
 17 36  1  0
 17 37  1  0
 17 38  1  0
 18 39  1  0
 19 40  1  0
 20 41  1  0
 21 42  1  0
M  END
$$$$
