
     RDKit          3D

 42 44  0  0  0  0  0  0  0  0999 V2000
   -0.6464    0.6768   -0.0957 C   0  0  0  0  0  0  0  0  0  0  0  0
   -1.7130    1.6398    0.2152 C   0  0  0  0  0  0  0  0  0  0  0  0
   -1.0430   -0.5776   -0.7608 C   0  0  0  0  0  0  0  0  0  0  0  0
   -2.9115   -0.0461    1.7004 C   0  0  0  0  0  0  0  0  0  0  0  0
   -2.5317   -1.2301    1.1960 C   0  0  0  0  0  0  0  0  0  0  0  0
   -2.8072    1.2744    1.0311 C   0  0  0  0  0  0  0  0  0  0  0  0
   -1.9532   -1.4662   -0.1481 C   0  0  0  0  0  0  0  0  0  0  0  0
    0.6267    0.9486    0.2495 C   0  0  0  0  0  0  0  0  0  0  0  0
    4.2015   -0.4368    0.6370 N   0  0  0  0  0  0  0  0  0  0  0  0
    1.7609   -0.0271    0.0629 C   0  0  0  0  0  0  0  0  0  0  0  0
   -0.5397   -0.8710   -2.0404 C   0  0  0  0  0  0  0  0  0  0  0  0
   -1.6371    2.9425   -0.3080 C   0  0  0  0  0  0  0  0  0  0  0  0
    3.0410    0.4741    0.7628 C   0  0  0  0  0  0  0  0  0  0  0  0
   -2.2757   -2.6696   -0.7996 C   0  0  0  0  0  0  0  0  0  0  0  0
   -3.7903    2.2363    1.3226 C   0  0  0  0  0  0  0  0  0  0  0  0
    3.9854   -1.7371    1.2907 C   0  0  0  0  0  0  0  0  0  0  0  0
    4.6497   -0.6083   -0.7538 C   0  0  0  0  0  0  0  0  0  0  0  0
   -0.8887   -2.0594   -2.6828 C   0  0  0  0  0  0  0  0  0  0  0  0
   -2.6333    3.8775   -0.0242 C   0  0  0  0  0  0  0  0  0  0  0  0
   -3.7083    3.5249    0.7905 C   0  0  0  0  0  0  0  0  0  0  0  0
   -1.7490   -2.9618   -2.0594 C   0  0  0  0  0  0  0  0  0  0  0  0
   -3.4192   -0.0678    2.6580 H   0  0  0  0  0  0  0  0  0  0  0  0
   -2.7668   -2.1079    1.7874 H   0  0  0  0  0  0  0  0  0  0  0  0
    0.8377    1.8888    0.7486 H   0  0  0  0  0  0  0  0  0  0  0  0
    1.9518   -0.1438   -1.0221 H   0  0  0  0  0  0  0  0  0  0  0  0
    1.4570   -1.0051    0.4909 H   0  0  0  0  0  0  0  0  0  0  0  0
    0.1188   -0.1746   -2.5446 H   0  0  0  0  0  0  0  0  0  0  0  0
   -0.8071    3.2314   -0.9415 H   0  0  0  0  0  0  0  0  0  0  0  0
    3.3166    1.4692    0.3482 H   0  0  0  0  0  0  0  0  0  0  0  0
    2.8252    0.6378    1.8421 H   0  0  0  0  0  0  0  0  0  0  0  0
   -2.9489   -3.3808   -0.3360 H   0  0  0  0  0  0  0  0  0  0  0  0
   -4.6267    1.9878    1.9650 H   0  0  0  0  0  0  0  0  0  0  0  0
    4.9552   -2.2702    1.3861 H   0  0  0  0  0  0  0  0  0  0  0  0
    3.5817   -1.5964    2.3164 H   0  0  0  0  0  0  0  0  0  0  0  0
    3.2895   -2.3783    0.7076 H   0  0  0  0  0  0  0  0  0  0  0  0
    3.9507   -1.2495   -1.3333 H   0  0  0  0  0  0  0  0  0  0  0  0
    5.6528   -1.0853   -0.7645 H   0  0  0  0  0  0  0  0  0  0  0  0
    4.7456    0.3777   -1.2574 H   0  0  0  0  0  0  0  0  0  0  0  0
   -0.4912   -2.2809   -3.6649 H   0  0  0  0  0  0  0  0  0  0  0  0
   -2.5695    4.8775   -0.4332 H   0  0  0  0  0  0  0  0  0  0  0  0
   -4.4764    4.2533    1.0166 H   0  0  0  0  0  0  0  0  0  0  0  0
   -2.0141   -3.8867   -2.5553 H   0  0  0  0  0  0  0  0  0  0  0  0
  2  1  1  0
  3  1  1  0
  4  6  1  0
  5  7  1  0
  6  2  2  0
  7  3  2  0
  8  1  2  3
  9 13  1  0
 10  8  1  0
 11  3  1  0
 12  2  1  0
 13 10  1  0
 14  7  1  0
 15  6  1  0
 16  9  1  0
 17  9  1  0
 18 11  2  0
 19 12  2  0
 20 19  1  0
 21 18  1  0
  5  4  2  0
 21 14  2  0
 20 15  2  0
  4 22  1  0
  5 23  1  0
  8 24  1  0
 10 25  1  0
 10 26  1  0
 11 27  1  0
 12 28  1  0
 13 29  1  0
 13 30  1  0
 14 31  1  0
 15 32  1  0
 16 33  1  0
 16 34  1  0
 16 35  1  0
 17 36  1  0
 17 37  1  0
 17 38  1  0
 18 39  1  0
 19 40  1  0
 20 41  1  0
 21 42  1  0
M  END
$$$$
