
     RDKit          3D

 42 44  0  0  0  0  0  0  0  0999 V2000
   -0.6096   -0.6457   -0.3106 C   0  0  0  0  0  0  0  0  0  0  0  0
   -0.9556    0.7156   -0.7583 C   0  0  0  0  0  0  0  0  0  0  0  0
   -1.6787   -1.6547   -0.3372 C   0  0  0  0  0  0  0  0  0  0  0  0
   -2.6960    0.9571    1.0814 C   0  0  0  0  0  0  0  0  0  0  0  0
   -3.1017   -0.3052    1.2870 C   0  0  0  0  0  0  0  0  0  0  0  0
   -1.9606    1.4603   -0.1032 C   0  0  0  0  0  0  0  0  0  0  0  0
   -2.8765   -1.4640    0.3876 C   0  0  0  0  0  0  0  0  0  0  0  0
    0.6175   -0.9775    0.1343 C   0  0  0  0  0  0  0  0  0  0  0  0
    4.0743    0.3123    1.2456 N   0  0  0  0  0  0  0  0  0  0  0  0
    1.7376    0.0192    0.2928 C   0  0  0  0  0  0  0  0  0  0  0  0
   -1.5004   -2.8255   -1.0948 C   0  0  0  0  0  0  0  0  0  0  0  0
   -0.3046    1.2617   -1.8784 C   0  0  0  0  0  0  0  0  0  0  0  0
    2.9338   -0.6087    1.0375 C   0  0  0  0  0  0  0  0  0  0  0  0
   -3.8604   -2.4678    0.3531 C   0  0  0  0  0  0  0  0  0  0  0  0
   -2.2333    2.7690   -0.5382 C   0  0  0  0  0  0  0  0  0  0  0  0
    3.7409    1.4541    2.1117 C   0  0  0  0  0  0  0  0  0  0  0  0
    4.6881    0.7613   -0.0140 C   0  0  0  0  0  0  0  0  0  0  0  0
   -2.4970   -3.8013   -1.1331 C   0  0  0  0  0  0  0  0  0  0  0  0
   -0.6044    2.5539   -2.3110 C   0  0  0  0  0  0  0  0  0  0  0  0
   -1.5616    3.3100   -1.6364 C   0  0  0  0  0  0  0  0  0  0  0  0
   -3.6754   -3.6229   -0.4096 C   0  0  0  0  0  0  0  0  0  0  0  0
   -3.0283    1.6974    1.8003 H   0  0  0  0  0  0  0  0  0  0  0  0
   -3.7259   -0.4779    2.1565 H   0  0  0  0  0  0  0  0  0  0  0  0
    0.7912   -1.9982    0.4592 H   0  0  0  0  0  0  0  0  0  0  0  0
    1.3545    0.8903    0.8642 H   0  0  0  0  0  0  0  0  0  0  0  0
    2.0594    0.3522   -0.7136 H   0  0  0  0  0  0  0  0  0  0  0  0
   -0.5896   -2.9786   -1.6612 H   0  0  0  0  0  0  0  0  0  0  0  0
    0.4315    0.6828   -2.4222 H   0  0  0  0  0  0  0  0  0  0  0  0
    2.5894   -0.9866    2.0257 H   0  0  0  0  0  0  0  0  0  0  0  0
    3.2877   -1.4993    0.4720 H   0  0  0  0  0  0  0  0  0  0  0  0
   -4.7774   -2.3559    0.9191 H   0  0  0  0  0  0  0  0  0  0  0  0
   -2.9794    3.3706   -0.0328 H   0  0  0  0  0  0  0  0  0  0  0  0
    3.1053    2.1973    1.5834 H   0  0  0  0  0  0  0  0  0  0  0  0
    4.6754    1.9600    2.4350 H   0  0  0  0  0  0  0  0  0  0  0  0
    3.2161    1.1088    3.0283 H   0  0  0  0  0  0  0  0  0  0  0  0
    5.6705    1.2338    0.1994 H   0  0  0  0  0  0  0  0  0  0  0  0
    4.8745   -0.1030   -0.6871 H   0  0  0  0  0  0  0  0  0  0  0  0
    4.0490    1.5038   -0.5391 H   0  0  0  0  0  0  0  0  0  0  0  0
   -2.3538   -4.6986   -1.7212 H   0  0  0  0  0  0  0  0  0  0  0  0
   -0.0935    2.9693   -3.1701 H   0  0  0  0  0  0  0  0  0  0  0  0
   -1.7889    4.3149   -1.9683 H   0  0  0  0  0  0  0  0  0  0  0  0
   -4.4445   -4.3842   -0.4335 H   0  0  0  0  0  0  0  0  0  0  0  0
  2  1  1  0
  3  1  1  0
  4  6  1  0
  5  7  1  0
  6  2  2  0
  7  3  2  0
  8  1  2  3
  9 13  1  0
 10  8  1  0
 11  3  1  0
 12  2  1  0
 13 10  1  0
 14  7  1  0
 15  6  1  0
 16  9  1  0
 17  9  1  0
 18 11  2  0
 19 12  2  0
 20 19  1  0
 21 18  1  0
  5  4  2  0
 21 14  2  0
 20 15  2  0
  4 22  1  0
  5 23  1  0
  8 24  1  0
 10 25  1  0
 10 26  1  0
 11 27  1  0
 12 28  1  0
 13 29  1  0
 13 30  1  0
 14 31  1  0
 15 32  1  0
 16 33  1  0
 16 34  1  0
 16 35  1  0
 17 36  1  0
 17 37  1  0
 17 38  1  0
 18 39  1  0
 19 40  1  0
 20 41  1  0
 21 42  1  0
M  END
$$$$
