
     RDKit          3D

 42 44  0  0  0  0  0  0  0  0999 V2000
   -0.4625    0.8109    0.0926 C   0  0  0  0  0  0  0  0  0  0  0  0
   -1.3649    1.9564    0.2829 C   0  0  0  0  0  0  0  0  0  0  0  0
   -1.0191   -0.5297    0.3512 C   0  0  0  0  0  0  0  0  0  0  0  0
   -2.9698    1.0881   -1.4931 C   0  0  0  0  0  0  0  0  0  0  0  0
   -2.7649   -0.2378   -1.4757 C   0  0  0  0  0  0  0  0  0  0  0  0
   -2.5740    2.0572   -0.4412 C   0  0  0  0  0  0  0  0  0  0  0  0
   -2.1220   -1.0115   -0.3869 C   0  0  0  0  0  0  0  0  0  0  0  0
    0.8088    1.0186   -0.3061 C   0  0  0  0  0  0  0  0  0  0  0  0
    3.8444   -1.2342    0.3610 N   0  0  0  0  0  0  0  0  0  0  0  0
    1.8040   -0.0721   -0.6058 C   0  0  0  0  0  0  0  0  0  0  0  0
   -0.4667   -1.3230    1.3723 C   0  0  0  0  0  0  0  0  0  0  0  0
   -1.0151    2.9630    1.2001 C   0  0  0  0  0  0  0  0  0  0  0  0
    2.9246   -0.0781    0.4536 C   0  0  0  0  0  0  0  0  0  0  0  0
   -2.5935   -2.3126   -0.1388 C   0  0  0  0  0  0  0  0  0  0  0  0
   -3.3933    3.1829   -0.2454 C   0  0  0  0  0  0  0  0  0  0  0  0
    4.5088   -1.3364   -0.9474 C   0  0  0  0  0  0  0  0  0  0  0  0
    3.2047   -2.5060    0.7353 C   0  0  0  0  0  0  0  0  0  0  0  0
   -0.9603   -2.6042    1.6192 C   0  0  0  0  0  0  0  0  0  0  0  0
   -1.8512    4.0627    1.3959 C   0  0  0  0  0  0  0  0  0  0  0  0
   -3.0385    4.1730    0.6734 C   0  0  0  0  0  0  0  0  0  0  0  0
   -2.0175   -3.1017    0.8590 C   0  0  0  0  0  0  0  0  0  0  0  0
   -3.5552    1.4773   -2.3185 H   0  0  0  0  0  0  0  0  0  0  0  0
   -3.2034   -0.8080   -2.2869 H   0  0  0  0  0  0  0  0  0  0  0  0
    1.1523    2.0369   -0.4513 H   0  0  0  0  0  0  0  0  0  0  0  0
    1.3103   -1.0598   -0.6783 H   0  0  0  0  0  0  0  0  0  0  0  0
    2.2418    0.1416   -1.6035 H   0  0  0  0  0  0  0  0  0  0  0  0
    0.3470   -0.9485    1.9787 H   0  0  0  0  0  0  0  0  0  0  0  0
   -0.0954    2.8915    1.7683 H   0  0  0  0  0  0  0  0  0  0  0  0
    2.4812   -0.0464    1.4725 H   0  0  0  0  0  0  0  0  0  0  0  0
    3.5150    0.8594    0.3538 H   0  0  0  0  0  0  0  0  0  0  0  0
   -3.4195   -2.7152   -0.7127 H   0  0  0  0  0  0  0  0  0  0  0  0
   -4.3136    3.2951   -0.8061 H   0  0  0  0  0  0  0  0  0  0  0  0
    3.8014   -1.6674   -1.7387 H   0  0  0  0  0  0  0  0  0  0  0  0
    5.3401   -2.0708   -0.8876 H   0  0  0  0  0  0  0  0  0  0  0  0
    4.9489   -0.3576   -1.2358 H   0  0  0  0  0  0  0  0  0  0  0  0
    3.9844   -3.2819    0.8894 H   0  0  0  0  0  0  0  0  0  0  0  0
    2.5071   -2.8647   -0.0512 H   0  0  0  0  0  0  0  0  0  0  0  0
    2.6517   -2.3995    1.6933 H   0  0  0  0  0  0  0  0  0  0  0  0
   -0.5216   -3.2120    2.4001 H   0  0  0  0  0  0  0  0  0  0  0  0
   -1.5763    4.8322    2.1058 H   0  0  0  0  0  0  0  0  0  0  0  0
   -3.6825    5.0305    0.8201 H   0  0  0  0  0  0  0  0  0  0  0  0
   -2.3961   -4.0982    1.0467 H   0  0  0  0  0  0  0  0  0  0  0  0
  2  1  1  0
  3  1  1  0
  4  6  1  0
  5  7  1  0
  6  2  2  0
  7  3  2  0
  8  1  2  3
  9 13  1  0
 10  8  1  0
 11  3  1  0
 12  2  1  0
 13 10  1  0
 14  7  1  0
 15  6  1  0
 16  9  1  0
 17  9  1  0
 18 11  2  0
 19 12  2  0
 20 19  1  0
 21 18  1  0
  5  4  2  0
 21 14  2  0
 20 15  2  0
  4 22  1  0
  5 23  1  0
  8 24  1  0
 10 25  1  0
 10 26  1  0
 11 27  1  0
 12 28  1  0
 13 29  1  0
 13 30  1  0
 14 31  1  0
 15 32  1  0
 16 33  1  0
 16 34  1  0
 16 35  1  0
 17 36  1  0
 17 37  1  0
 17 38  1  0
 18 39  1  0
 19 40  1  0
 20 41  1  0
 21 42  1  0
M  END
$$$$
