
     RDKit          2D

 22 23  0  0  0  0  0  0  0  0999 V2000
    6.2667   -6.3125    0.0000 Cl  0  0  0  0  0  0  0  0  0  0  0  0
    3.4125   -4.2167    0.0000 C   0  0  0  0  0  0  0  0  0  0  0  0
    4.0542   -3.9000    0.0000 C   0  0  0  0  0  0  0  0  0  0  0  0
    2.7667   -3.9042    0.0000 C   0  0  0  0  0  0  0  0  0  0  0  0
    3.7792   -2.6500    0.0000 C   0  0  0  0  0  0  0  0  0  0  0  0
    3.0667   -2.6500    0.0000 C   0  0  0  0  0  0  0  0  0  0  0  0
    4.2167   -3.1875    0.0000 C   0  0  0  0  0  0  0  0  0  0  0  0
    2.6042   -3.2125    0.0000 C   0  0  0  0  0  0  0  0  0  0  0  0
    3.4042   -4.9292    0.0000 C   0  0  0  0  0  0  0  0  0  0  0  0
    4.6167   -6.3292    0.0000 N   0  0  0  0  0  0  0  0  0  0  0  0
    4.0125   -5.2792    0.0000 C   0  0  0  0  0  0  0  0  0  0  0  0
    2.2542   -4.3917    0.0000 C   0  0  0  0  0  0  0  0  0  0  0  0
    4.5750   -4.3667    0.0000 C   0  0  0  0  0  0  0  0  0  0  0  0
    4.0125   -5.9792    0.0000 C   0  0  0  0  0  0  0  0  0  0  0  0
    1.9292   -3.0000    0.0000 C   0  0  0  0  0  0  0  0  0  0  0  0
    4.8875   -2.9750    0.0000 C   0  0  0  0  0  0  0  0  0  0  0  0
    5.2375   -5.9667    0.0000 C   0  0  0  0  0  0  0  0  0  0  0  0
    4.6167   -7.0375    0.0000 C   0  0  0  0  0  0  0  0  0  0  0  0
    1.5750   -4.1875    0.0000 C   0  0  0  0  0  0  0  0  0  0  0  0
    5.2542   -4.1542    0.0000 C   0  0  0  0  0  0  0  0  0  0  0  0
    5.4125   -3.4542    0.0000 C   0  0  0  0  0  0  0  0  0  0  0  0
    1.4125   -3.4875    0.0000 C   0  0  0  0  0  0  0  0  0  0  0  0
  3  2  1  0
  4  2  1  0
  5  7  1  0
  6  8  1  0
  7  3  2  0
  8  4  2  0
  9  2  2  0
 10 14  1  0
 11  9  1  0
 12  4  1  0
 13  3  1  0
 14 11  1  0
 15  8  1  0
 16  7  1  0
 17 10  1  0
 18 10  1  0
 19 12  2  0
 20 13  2  0
 21 20  1  0
 22 19  1  0
  6  5  2  0
 22 15  2  0
 21 16  2  0
M  END
> <chembl_id>
CHEMBL1200636

> <chembl_pref_name>
CYCLOBENZAPRINE HYDROCHLORIDE
