
     RDKit          3D

 42 44  0  0  0  0  0  0  0  0999 V2000
   -0.6120    0.1926    0.1626 C   0  0  0  0  0  0  0  0  0  0  0  0
   -1.3017    1.4662    0.4163 C   0  0  0  0  0  0  0  0  0  0  0  0
   -1.3817   -1.0455    0.3795 C   0  0  0  0  0  0  0  0  0  0  0  0
   -3.0607    0.9569   -1.3530 C   0  0  0  0  0  0  0  0  0  0  0  0
   -3.0837   -0.3842   -1.3915 C   0  0  0  0  0  0  0  0  0  0  0  0
   -2.4877    1.8006   -0.2749 C   0  0  0  0  0  0  0  0  0  0  0  0
   -2.5644   -1.3003   -0.3484 C   0  0  0  0  0  0  0  0  0  0  0  0
    0.6627    0.1936   -0.2710 C   0  0  0  0  0  0  0  0  0  0  0  0
    3.6387    0.0074   -0.3662 N   0  0  0  0  0  0  0  0  0  0  0  0
    1.4078   -1.0598   -0.6587 C   0  0  0  0  0  0  0  0  0  0  0  0
   -0.9576   -1.9608    1.3589 C   0  0  0  0  0  0  0  0  0  0  0  0
   -0.7672    2.3617    1.3591 C   0  0  0  0  0  0  0  0  0  0  0  0
    2.7663   -0.7419   -1.2990 C   0  0  0  0  0  0  0  0  0  0  0  0
   -3.2503   -2.5089   -0.1351 C   0  0  0  0  0  0  0  0  0  0  0  0
   -3.0981    3.0411   -0.0190 C   0  0  0  0  0  0  0  0  0  0  0  0
    4.6241    0.8014   -1.1175 C   0  0  0  0  0  0  0  0  0  0  0  0
    4.3429   -0.9050    0.5521 C   0  0  0  0  0  0  0  0  0  0  0  0
   -1.6639   -3.1447    1.5743 C   0  0  0  0  0  0  0  0  0  0  0  0
   -1.3986    3.5795    1.6144 C   0  0  0  0  0  0  0  0  0  0  0  0
   -2.5623    3.9190    0.9259 C   0  0  0  0  0  0  0  0  0  0  0  0
   -2.8040   -3.4227    0.8218 C   0  0  0  0  0  0  0  0  0  0  0  0
   -3.5851    1.4736   -2.1490 H   0  0  0  0  0  0  0  0  0  0  0  0
   -3.6265   -0.8375   -2.2133 H   0  0  0  0  0  0  0  0  0  0  0  0
    1.1574    1.1482   -0.4170 H   0  0  0  0  0  0  0  0  0  0  0  0
    0.7999   -1.6277   -1.3963 H   0  0  0  0  0  0  0  0  0  0  0  0
    1.5547   -1.7061    0.2286 H   0  0  0  0  0  0  0  0  0  0  0  0
   -0.0823   -1.7534    1.9620 H   0  0  0  0  0  0  0  0  0  0  0  0
    0.1374    2.1122    1.9008 H   0  0  0  0  0  0  0  0  0  0  0  0
    2.5647   -0.1470   -2.2195 H   0  0  0  0  0  0  0  0  0  0  0  0
    3.2504   -1.6882   -1.6320 H   0  0  0  0  0  0  0  0  0  0  0  0
   -4.1436   -2.7400   -0.7029 H   0  0  0  0  0  0  0  0  0  0  0  0
   -3.9951    3.3310   -0.5531 H   0  0  0  0  0  0  0  0  0  0  0  0
    5.2485    0.1528   -1.7722 H   0  0  0  0  0  0  0  0  0  0  0  0
    5.2857    1.3584   -0.4193 H   0  0  0  0  0  0  0  0  0  0  0  0
    4.1053    1.5589   -1.7436 H   0  0  0  0  0  0  0  0  0  0  0  0
    4.9691   -0.3235    1.2627 H   0  0  0  0  0  0  0  0  0  0  0  0
    4.9956   -1.6154   -0.0030 H   0  0  0  0  0  0  0  0  0  0  0  0
    3.6187   -1.4807    1.1639 H   0  0  0  0  0  0  0  0  0  0  0  0
   -1.3265   -3.8473    2.3253 H   0  0  0  0  0  0  0  0  0  0  0  0
   -0.9827    4.2624    2.3439 H   0  0  0  0  0  0  0  0  0  0  0  0
   -3.0469    4.8675    1.1187 H   0  0  0  0  0  0  0  0  0  0  0  0
   -3.3476   -4.3444    0.9847 H   0  0  0  0  0  0  0  0  0  0  0  0
  2  1  1  0
  3  1  1  0
  4  6  1  0
  5  7  1  0
  6  2  2  0
  7  3  2  0
  8  1  2  3
  9 13  1  0
 10  8  1  0
 11  3  1  0
 12  2  1  0
 13 10  1  0
 14  7  1  0
 15  6  1  0
 16  9  1  0
 17  9  1  0
 18 11  2  0
 19 12  2  0
 20 19  1  0
 21 18  1  0
  5  4  2  0
 21 14  2  0
 20 15  2  0
  4 22  1  0
  5 23  1  0
  8 24  1  0
 10 25  1  0
 10 26  1  0
 11 27  1  0
 12 28  1  0
 13 29  1  0
 13 30  1  0
 14 31  1  0
 15 32  1  0
 16 33  1  0
 16 34  1  0
 16 35  1  0
 17 36  1  0
 17 37  1  0
 17 38  1  0
 18 39  1  0
 19 40  1  0
 20 41  1  0
 21 42  1  0
M  END
$$$$
