
     RDKit          3D

 42 44  0  0  0  0  0  0  0  0999 V2000
   -0.5443   -0.4747   -0.2760 C   0  0  0  0  0  0  0  0  0  0  0  0
   -0.9634    0.8997    0.0457 C   0  0  0  0  0  0  0  0  0  0  0  0
   -1.3989   -1.5628    0.2211 C   0  0  0  0  0  0  0  0  0  0  0  0
   -3.1445    0.6104   -1.2280 C   0  0  0  0  0  0  0  0  0  0  0  0
   -3.3935   -0.7032   -1.1090 C   0  0  0  0  0  0  0  0  0  0  0  0
   -2.2060    1.4015   -0.3970 C   0  0  0  0  0  0  0  0  0  0  0  0
   -2.7617   -1.6386   -0.1446 C   0  0  0  0  0  0  0  0  0  0  0  0
    0.5595   -0.7639   -0.9930 C   0  0  0  0  0  0  0  0  0  0  0  0
    3.1526    0.3271    0.0854 N   0  0  0  0  0  0  0  0  0  0  0  0
    1.4279    0.2538   -1.6913 C   0  0  0  0  0  0  0  0  0  0  0  0
   -0.8480   -2.5391    1.0694 C   0  0  0  0  0  0  0  0  0  0  0  0
   -0.1393    1.6991    0.8558 C   0  0  0  0  0  0  0  0  0  0  0  0
    2.9060    0.0427   -1.3459 C   0  0  0  0  0  0  0  0  0  0  0  0
   -3.5355   -2.7113    0.3319 C   0  0  0  0  0  0  0  0  0  0  0  0
   -2.5507    2.7310   -0.0972 C   0  0  0  0  0  0  0  0  0  0  0  0
    4.2292   -0.5288    0.6077 C   0  0  0  0  0  0  0  0  0  0  0  0
    3.5060    1.7431    0.2882 C   0  0  0  0  0  0  0  0  0  0  0  0
   -1.6374   -3.5850    1.5490 C   0  0  0  0  0  0  0  0  0  0  0  0
   -0.5064    3.0094    1.1636 C   0  0  0  0  0  0  0  0  0  0  0  0
   -1.7064    3.5283    0.6790 C   0  0  0  0  0  0  0  0  0  0  0  0
   -2.9792   -3.6715    1.1801 C   0  0  0  0  0  0  0  0  0  0  0  0
   -3.7653    1.1625   -1.9245 H   0  0  0  0  0  0  0  0  0  0  0  0
   -4.1933   -1.1025   -1.7224 H   0  0  0  0  0  0  0  0  0  0  0  0
    0.7953   -1.8056   -1.1822 H   0  0  0  0  0  0  0  0  0  0  0  0
    1.1320    1.2985   -1.4721 H   0  0  0  0  0  0  0  0  0  0  0  0
    1.2992    0.1130   -2.7856 H   0  0  0  0  0  0  0  0  0  0  0  0
    0.1935   -2.4857    1.3633 H   0  0  0  0  0  0  0  0  0  0  0  0
    0.7875    1.3040    1.2502 H   0  0  0  0  0  0  0  0  0  0  0  0
    3.5342    0.6870   -2.0029 H   0  0  0  0  0  0  0  0  0  0  0  0
    3.1673   -1.0101   -1.6032 H   0  0  0  0  0  0  0  0  0  0  0  0
   -4.5766   -2.8052    0.0468 H   0  0  0  0  0  0  0  0  0  0  0  0
   -3.4851    3.1487   -0.4525 H   0  0  0  0  0  0  0  0  0  0  0  0
    5.1702   -0.3886    0.0300 H   0  0  0  0  0  0  0  0  0  0  0  0
    3.9244   -1.5962    0.5546 H   0  0  0  0  0  0  0  0  0  0  0  0
    4.4209   -0.2988    1.6782 H   0  0  0  0  0  0  0  0  0  0  0  0
    4.4735    1.9933   -0.2020 H   0  0  0  0  0  0  0  0  0  0  0  0
    3.5840    1.9626    1.3746 H   0  0  0  0  0  0  0  0  0  0  0  0
    2.7159    2.4061   -0.1225 H   0  0  0  0  0  0  0  0  0  0  0  0
   -1.2071   -4.3315    2.2040 H   0  0  0  0  0  0  0  0  0  0  0  0
    0.1401    3.6224    1.7782 H   0  0  0  0  0  0  0  0  0  0  0  0
   -1.9883    4.5468    0.9129 H   0  0  0  0  0  0  0  0  0  0  0  0
   -3.5885   -4.4877    1.5462 H   0  0  0  0  0  0  0  0  0  0  0  0
  2  1  1  0
  3  1  1  0
  4  6  1  0
  5  7  1  0
  6  2  2  0
  7  3  2  0
  8  1  2  3
  9 13  1  0
 10  8  1  0
 11  3  1  0
 12  2  1  0
 13 10  1  0
 14  7  1  0
 15  6  1  0
 16  9  1  0
 17  9  1  0
 18 11  2  0
 19 12  2  0
 20 19  1  0
 21 18  1  0
  5  4  2  0
 21 14  2  0
 20 15  2  0
  4 22  1  0
  5 23  1  0
  8 24  1  0
 10 25  1  0
 10 26  1  0
 11 27  1  0
 12 28  1  0
 13 29  1  0
 13 30  1  0
 14 31  1  0
 15 32  1  0
 16 33  1  0
 16 34  1  0
 16 35  1  0
 17 36  1  0
 17 37  1  0
 17 38  1  0
 18 39  1  0
 19 40  1  0
 20 41  1  0
 21 42  1  0
M  END
$$$$
