
     RDKit          3D

 42 44  0  0  0  0  0  0  0  0999 V2000
    0.6442   -0.3083    0.0126 C   0  0  0  0  0  0  0  0  0  0  0  0
    1.5352   -1.1642   -0.7849 C   0  0  0  0  0  0  0  0  0  0  0  0
    1.1466    1.0300    0.3737 C   0  0  0  0  0  0  0  0  0  0  0  0
    3.3218   -1.1312    1.0286 C   0  0  0  0  0  0  0  0  0  0  0  0
    3.0968    0.0285    1.6646 C   0  0  0  0  0  0  0  0  0  0  0  0
    2.8211   -1.5132   -0.3150 C   0  0  0  0  0  0  0  0  0  0  0  0
    2.3221    1.1791    1.1418 C   0  0  0  0  0  0  0  0  0  0  0  0
   -0.5641   -0.7706    0.3914 C   0  0  0  0  0  0  0  0  0  0  0  0
   -3.9451   -0.0784    0.5827 N   0  0  0  0  0  0  0  0  0  0  0  0
   -1.5389   -0.0116    1.2566 C   0  0  0  0  0  0  0  0  0  0  0  0
    0.4696    2.1724   -0.0884 C   0  0  0  0  0  0  0  0  0  0  0  0
    1.0949   -1.6408   -2.0321 C   0  0  0  0  0  0  0  0  0  0  0  0
   -2.6598    0.6359    0.4186 C   0  0  0  0  0  0  0  0  0  0  0  0
    2.7467    2.4715    1.4967 C   0  0  0  0  0  0  0  0  0  0  0  0
    3.6275   -2.3556   -1.1003 C   0  0  0  0  0  0  0  0  0  0  0  0
   -5.0540    0.7724    0.1203 C   0  0  0  0  0  0  0  0  0  0  0  0
   -3.9493   -1.3412   -0.1765 C   0  0  0  0  0  0  0  0  0  0  0  0
    0.9182    3.4484    0.2542 C   0  0  0  0  0  0  0  0  0  0  0  0
    1.9177   -2.4594   -2.8067 C   0  0  0  0  0  0  0  0  0  0  0  0
    3.1822   -2.8169   -2.3410 C   0  0  0  0  0  0  0  0  0  0  0  0
    2.0506    3.5977    1.0530 C   0  0  0  0  0  0  0  0  0  0  0  0
    4.0040   -1.8234    1.5092 H   0  0  0  0  0  0  0  0  0  0  0  0
    3.6176    0.1766    2.6039 H   0  0  0  0  0  0  0  0  0  0  0  0
   -0.8613   -1.7639    0.0772 H   0  0  0  0  0  0  0  0  0  0  0  0
   -1.0140    0.7647    1.8537 H   0  0  0  0  0  0  0  0  0  0  0  0
   -1.9715   -0.7142    2.0012 H   0  0  0  0  0  0  0  0  0  0  0  0
   -0.4025    2.0760   -0.7208 H   0  0  0  0  0  0  0  0  0  0  0  0
    0.1141   -1.3726   -2.4064 H   0  0  0  0  0  0  0  0  0  0  0  0
   -2.3800    0.7077   -0.6580 H   0  0  0  0  0  0  0  0  0  0  0  0
   -2.7662    1.6837    0.7811 H   0  0  0  0  0  0  0  0  0  0  0  0
    3.6291    2.6098    2.1100 H   0  0  0  0  0  0  0  0  0  0  0  0
    4.6080   -2.6569   -0.7513 H   0  0  0  0  0  0  0  0  0  0  0  0
   -6.0246    0.2467    0.2511 H   0  0  0  0  0  0  0  0  0  0  0  0
   -5.1061    1.6997    0.7305 H   0  0  0  0  0  0  0  0  0  0  0  0
   -4.9310    1.0481   -0.9512 H   0  0  0  0  0  0  0  0  0  0  0  0
   -3.2052   -2.0463    0.2457 H   0  0  0  0  0  0  0  0  0  0  0  0
   -3.7264   -1.1702   -1.2534 H   0  0  0  0  0  0  0  0  0  0  0  0
   -4.9384   -1.8412   -0.0902 H   0  0  0  0  0  0  0  0  0  0  0  0
    0.3867    4.3222   -0.1001 H   0  0  0  0  0  0  0  0  0  0  0  0
    1.5728   -2.8201   -3.7671 H   0  0  0  0  0  0  0  0  0  0  0  0
    3.8166   -3.4584   -2.9389 H   0  0  0  0  0  0  0  0  0  0  0  0
    2.3943    4.5877    1.3239 H   0  0  0  0  0  0  0  0  0  0  0  0
  2  1  1  0
  3  1  1  0
  4  6  1  0
  5  7  1  0
  6  2  2  0
  7  3  2  0
  8  1  2  3
  9 13  1  0
 10  8  1  0
 11  3  1  0
 12  2  1  0
 13 10  1  0
 14  7  1  0
 15  6  1  0
 16  9  1  0
 17  9  1  0
 18 11  2  0
 19 12  2  0
 20 19  1  0
 21 18  1  0
  5  4  2  0
 21 14  2  0
 20 15  2  0
  4 22  1  0
  5 23  1  0
  8 24  1  0
 10 25  1  0
 10 26  1  0
 11 27  1  0
 12 28  1  0
 13 29  1  0
 13 30  1  0
 14 31  1  0
 15 32  1  0
 16 33  1  0
 16 34  1  0
 16 35  1  0
 17 36  1  0
 17 37  1  0
 17 38  1  0
 18 39  1  0
 19 40  1  0
 20 41  1  0
 21 42  1  0
M  END
$$$$
