
     RDKit          3D

 54 57  0  0  0  0  0  0  0  0999 V2000
    0.2303   -0.6944   -0.2356 C   0  0  0  0  0  0  0  0  0  0  0  0
   -0.0034    0.6335    0.1755 C   0  0  0  0  0  0  0  0  0  0  0  0
    0.9663    1.5711    0.2493 N   0  0  0  0  0  0  0  0  0  0  0  0
   -0.8660   -1.5958   -0.2752 C   0  0  0  0  0  0  0  0  0  0  0  0
   -1.3000    1.0027    0.5247 C   0  0  0  0  0  0  0  0  0  0  0  0
   -2.1548   -1.1874    0.0834 C   0  0  0  0  0  0  0  0  0  0  0  0
   -2.3747    0.1230    0.4869 C   0  0  0  0  0  0  0  0  0  0  0  0
   -0.6711   -3.2454   -0.7676 Cl  0  0  0  0  0  0  0  0  0  0  0  0
   -1.5426    2.2947    0.9276 O   0  0  0  0  0  0  0  0  0  0  0  0
    1.5614   -1.0197   -0.5793 C   0  0  0  0  0  0  0  0  0  0  0  0
    2.2218    1.2086   -0.0903 C   0  0  0  0  0  0  0  0  0  0  0  0
    2.5665   -0.0610   -0.5065 C   0  0  0  0  0  0  0  0  0  0  0  0
   -0.2142   -0.5875    0.1710 C   0  0  0  0  0  0  0  0  0  0  0  0
    0.8746   -1.2981    0.6700 C   0  0  0  0  0  0  0  0  0  0  0  0
   -0.0206    0.7357   -0.2768 C   0  0  0  0  0  0  0  0  0  0  0  0
    2.1506   -0.7409    0.7403 C   0  0  0  0  0  0  0  0  0  0  0  0
    1.2806    1.2947   -0.2017 C   0  0  0  0  0  0  0  0  0  0  0  0
    2.3559    0.5613    0.3028 C   0  0  0  0  0  0  0  0  0  0  0  0
   -1.4123   -1.2098    0.1417 N   0  0  0  0  0  0  0  0  0  0  0  0
    0.6567   -2.5896    1.1009 O   0  0  0  0  0  0  0  0  0  0  0  0
    3.4925   -1.6286    1.3598 Cl  0  0  0  0  0  0  0  0  0  0  0  0
    1.6090    2.9117   -0.7290 Cl  0  0  0  0  0  0  0  0  0  0  0  0
   -1.1613    1.4058   -0.7721 C   0  0  0  0  0  0  0  0  0  0  0  0
   -2.4721   -0.5260   -0.3411 C   0  0  0  0  0  0  0  0  0  0  0  0
   -2.3981    0.7707   -0.8051 C   0  0  0  0  0  0  0  0  0  0  0  0
    1.3600    0.9876   -0.1909 C   0  0  0  0  0  0  0  0  0  0  0  0
    0.0511    0.6271    0.1209 C   0  0  0  0  0  0  0  0  0  0  0  0
    2.2839    0.0565   -0.6683 C   0  0  0  0  0  0  0  0  0  0  0  0
   -0.7981    1.5723    0.5792 N   0  0  0  0  0  0  0  0  0  0  0  0
   -0.3329   -0.7184   -0.0568 C   0  0  0  0  0  0  0  0  0  0  0  0
    1.8989   -1.2712   -0.8418 C   0  0  0  0  0  0  0  0  0  0  0  0
    0.5938   -1.6602   -0.5374 C   0  0  0  0  0  0  0  0  0  0  0  0
    1.7239    2.3057   -0.0132 O   0  0  0  0  0  0  0  0  0  0  0  0
    3.9037    0.5058   -1.0535 Cl  0  0  0  0  0  0  0  0  0  0  0  0
   -2.0616    1.1918    0.8731 C   0  0  0  0  0  0  0  0  0  0  0  0
   -1.6516   -1.0695    0.2600 C   0  0  0  0  0  0  0  0  0  0  0  0
   -2.5304   -0.1012    0.7321 C   0  0  0  0  0  0  0  0  0  0  0  0
   -2.9873   -1.8858    0.0494 H   0  0  0  0  0  0  0  0  0  0  0  0
   -3.3675    0.4605    0.7695 H   0  0  0  0  0  0  0  0  0  0  0  0
   -0.6623    2.7265    0.8788 H   0  0  0  0  0  0  0  0  0  0  0  0
    1.8241   -2.0231   -0.9063 H   0  0  0  0  0  0  0  0  0  0  0  0
    2.9685    1.9945   -0.0159 H   0  0  0  0  0  0  0  0  0  0  0  0
    3.5907   -0.3022   -0.7684 H   0  0  0  0  0  0  0  0  0  0  0  0
    3.3476    1.0037    0.3540 H   0  0  0  0  0  0  0  0  0  0  0  0
   -0.3012   -2.7408    0.9494 H   0  0  0  0  0  0  0  0  0  0  0  0
   -1.0952    2.4287   -1.1364 H   0  0  0  0  0  0  0  0  0  0  0  0
   -3.4137   -1.0687   -0.3443 H   0  0  0  0  0  0  0  0  0  0  0  0
   -3.2787    1.2778   -1.1837 H   0  0  0  0  0  0  0  0  0  0  0  0
    2.6092   -2.0059   -1.2129 H   0  0  0  0  0  0  0  0  0  0  0  0
    0.3046   -2.6998   -0.6769 H   0  0  0  0  0  0  0  0  0  0  0  0
    0.9101    2.7383    0.3231 H   0  0  0  0  0  0  0  0  0  0  0  0
   -2.7103    1.9835    1.2383 H   0  0  0  0  0  0  0  0  0  0  0  0
   -1.9988   -2.0929    0.1413 H   0  0  0  0  0  0  0  0  0  0  0  0
   -3.5555   -0.3498    0.9837 H   0  0  0  0  0  0  0  0  0  0  0  0
  2  1  1  0
  3  2  2  0
  4  1  1  0
  5  2  1  0
  6  4  2  0
  7  6  1  0
  8  4  1  0
  9  5  1  0
 10  1  2  0
 11 12  2  0
 12 10  1  0
 11  3  1  0
  7  5  2  0
 14 13  2  0
 15 13  1  0
 16 14  1  0
 17 15  2  0
 18 17  1  0
 19 13  1  0
 20 14  1  0
 21 16  1  0
 22 17  1  0
 23 15  1  0
 24 19  2  0
 25 23  2  0
 16 18  2  0
 24 25  1  0
 27 26  2  0
 28 26  1  0
 29 27  1  0
 30 27  1  0
 31 28  2  0
 32 31  1  0
 33 26  1  0
 34 28  1  0
 35 29  2  0
 36 30  1  0
 37 36  2  0
 32 30  2  0
 35 37  1  0
  6 38  1  0
  7 39  1  0
  9 40  1  0
 10 41  1  0
 11 42  1  0
 12 43  1  0
 18 44  1  0
 20 45  1  0
 23 46  1  0
 24 47  1  0
 25 48  1  0
 31 49  1  0
 32 50  1  0
 33 51  1  0
 35 52  1  0
 36 53  1  0
 37 54  1  0
M  END
$$$$
