
     RDKit          3D

 54 57  0  0  0  0  0  0  0  0999 V2000
    0.2807    0.7155    0.0101 C   0  0  0  0  0  0  0  0  0  0  0  0
   -0.0470   -0.6555    0.0147 C   0  0  0  0  0  0  0  0  0  0  0  0
    0.8691   -1.6391    0.1495 N   0  0  0  0  0  0  0  0  0  0  0  0
   -0.7660    1.6632   -0.1385 C   0  0  0  0  0  0  0  0  0  0  0  0
   -1.3837   -1.0199   -0.1267 C   0  0  0  0  0  0  0  0  0  0  0  0
   -2.0975    1.2582   -0.2781 C   0  0  0  0  0  0  0  0  0  0  0  0
   -2.4100   -0.0948   -0.2723 C   0  0  0  0  0  0  0  0  0  0  0  0
   -0.4554    3.3676   -0.1554 Cl  0  0  0  0  0  0  0  0  0  0  0  0
   -1.7179   -2.3535   -0.1239 O   0  0  0  0  0  0  0  0  0  0  0  0
    1.6492    1.0339    0.1566 C   0  0  0  0  0  0  0  0  0  0  0  0
    2.1638   -1.2810    0.2864 C   0  0  0  0  0  0  0  0  0  0  0  0
    2.5998    0.0280    0.2960 C   0  0  0  0  0  0  0  0  0  0  0  0
    0.1417   -0.6151    0.1478 C   0  0  0  0  0  0  0  0  0  0  0  0
    1.5244   -0.7008    0.2896 C   0  0  0  0  0  0  0  0  0  0  0  0
   -0.4370    0.6291   -0.1772 C   0  0  0  0  0  0  0  0  0  0  0  0
    2.3542    0.4066    0.1198 C   0  0  0  0  0  0  0  0  0  0  0  0
    0.4144    1.7504   -0.3480 C   0  0  0  0  0  0  0  0  0  0  0  0
    1.7980    1.6383   -0.2004 C   0  0  0  0  0  0  0  0  0  0  0  0
   -0.5811   -1.7410    0.3311 N   0  0  0  0  0  0  0  0  0  0  0  0
    2.0634   -1.9295    0.6076 O   0  0  0  0  0  0  0  0  0  0  0  0
    4.0652    0.2907    0.2974 Cl  0  0  0  0  0  0  0  0  0  0  0  0
   -0.2103    3.3159   -0.7477 Cl  0  0  0  0  0  0  0  0  0  0  0  0
   -1.8434    0.6544   -0.3077 C   0  0  0  0  0  0  0  0  0  0  0  0
   -1.9225   -1.6644    0.1951 C   0  0  0  0  0  0  0  0  0  0  0  0
   -2.5936   -0.5016   -0.1202 C   0  0  0  0  0  0  0  0  0  0  0  0
   -1.3337    0.9363    0.4540 C   0  0  0  0  0  0  0  0  0  0  0  0
   -0.0306    0.6369    0.0629 C   0  0  0  0  0  0  0  0  0  0  0  0
   -2.2924   -0.0614    0.6380 C   0  0  0  0  0  0  0  0  0  0  0  0
    0.8535    1.6450   -0.0992 N   0  0  0  0  0  0  0  0  0  0  0  0
    0.3108   -0.7153   -0.1482 C   0  0  0  0  0  0  0  0  0  0  0  0
   -1.9494   -1.3954    0.4280 C   0  0  0  0  0  0  0  0  0  0  0  0
   -0.6512   -1.7240    0.0357 C   0  0  0  0  0  0  0  0  0  0  0  0
   -1.6558    2.2615    0.6574 O   0  0  0  0  0  0  0  0  0  0  0  0
   -3.9048    0.3123    1.1223 Cl  0  0  0  0  0  0  0  0  0  0  0  0
    2.1102    1.3229   -0.4793 C   0  0  0  0  0  0  0  0  0  0  0  0
    1.6239   -1.0045   -0.5413 C   0  0  0  0  0  0  0  0  0  0  0  0
    2.5386    0.0287   -0.7099 C   0  0  0  0  0  0  0  0  0  0  0  0
   -2.8913    1.9923   -0.3913 H   0  0  0  0  0  0  0  0  0  0  0  0
   -3.4373   -0.4304   -0.3793 H   0  0  0  0  0  0  0  0  0  0  0  0
   -0.8573   -2.8124   -0.0117 H   0  0  0  0  0  0  0  0  0  0  0  0
    1.9839    2.0686    0.1631 H   0  0  0  0  0  0  0  0  0  0  0  0
    2.8649   -2.1046    0.3918 H   0  0  0  0  0  0  0  0  0  0  0  0
    3.6522    0.2636    0.4089 H   0  0  0  0  0  0  0  0  0  0  0  0
    2.4376    2.5071   -0.3346 H   0  0  0  0  0  0  0  0  0  0  0  0
    1.2885   -2.5287    0.6705 H   0  0  0  0  0  0  0  0  0  0  0  0
   -2.3659    1.5754   -0.5566 H   0  0  0  0  0  0  0  0  0  0  0  0
   -2.4600   -2.5959    0.3521 H   0  0  0  0  0  0  0  0  0  0  0  0
   -3.6736   -0.4910   -0.2185 H   0  0  0  0  0  0  0  0  0  0  0  0
   -2.6871   -2.1816    0.5679 H   0  0  0  0  0  0  0  0  0  0  0  0
   -0.3949   -2.7691   -0.1253 H   0  0  0  0  0  0  0  0  0  0  0  0
   -0.8241    2.7451    0.4654 H   0  0  0  0  0  0  0  0  0  0  0  0
    2.7880    2.1642   -0.5978 H   0  0  0  0  0  0  0  0  0  0  0  0
    1.9389   -2.0301   -0.7171 H   0  0  0  0  0  0  0  0  0  0  0  0
    3.5602   -0.1713   -1.0136 H   0  0  0  0  0  0  0  0  0  0  0  0
  2  1  1  0
  3  2  2  0
  4  1  1  0
  5  2  1  0
  6  4  2  0
  7  6  1  0
  8  4  1  0
  9  5  1  0
 10  1  2  0
 11 12  2  0
 12 10  1  0
 11  3  1  0
  7  5  2  0
 14 13  2  0
 15 13  1  0
 16 14  1  0
 17 15  2  0
 18 17  1  0
 19 13  1  0
 20 14  1  0
 21 16  1  0
 22 17  1  0
 23 15  1  0
 24 19  2  0
 25 23  2  0
 16 18  2  0
 24 25  1  0
 27 26  2  0
 28 26  1  0
 29 27  1  0
 30 27  1  0
 31 28  2  0
 32 31  1  0
 33 26  1  0
 34 28  1  0
 35 29  2  0
 36 30  1  0
 37 36  2  0
 32 30  2  0
 35 37  1  0
  6 38  1  0
  7 39  1  0
  9 40  1  0
 10 41  1  0
 11 42  1  0
 12 43  1  0
 18 44  1  0
 20 45  1  0
 23 46  1  0
 24 47  1  0
 25 48  1  0
 31 49  1  0
 32 50  1  0
 33 51  1  0
 35 52  1  0
 36 53  1  0
 37 54  1  0
M  END
$$$$
