
     RDKit          3D

 54 57  0  0  0  0  0  0  0  0999 V2000
    0.3477   -0.6851    0.0766 C   0  0  0  0  0  0  0  0  0  0  0  0
   -0.1087    0.6483    0.1050 C   0  0  0  0  0  0  0  0  0  0  0  0
    0.7131    1.7178    0.0302 N   0  0  0  0  0  0  0  0  0  0  0  0
   -0.6079   -1.7318    0.1623 C   0  0  0  0  0  0  0  0  0  0  0  0
   -1.4775    0.8801    0.2159 C   0  0  0  0  0  0  0  0  0  0  0  0
   -1.9753   -1.4589    0.2728 C   0  0  0  0  0  0  0  0  0  0  0  0
   -2.4148   -0.1420    0.2999 C   0  0  0  0  0  0  0  0  0  0  0  0
   -0.1372   -3.3989    0.1349 Cl  0  0  0  0  0  0  0  0  0  0  0  0
   -1.9369    2.1756    0.2449 O   0  0  0  0  0  0  0  0  0  0  0  0
    1.7439   -0.8680   -0.0369 C   0  0  0  0  0  0  0  0  0  0  0  0
    2.0393    1.4882   -0.0772 C   0  0  0  0  0  0  0  0  0  0  0  0
    2.5980    0.2271   -0.1145 C   0  0  0  0  0  0  0  0  0  0  0  0
    0.0065   -0.6966   -0.0512 C   0  0  0  0  0  0  0  0  0  0  0  0
    1.3833   -0.8670   -0.2487 C   0  0  0  0  0  0  0  0  0  0  0  0
   -0.4885    0.6190    0.1104 C   0  0  0  0  0  0  0  0  0  0  0  0
    2.2617    0.2200   -0.2884 C   0  0  0  0  0  0  0  0  0  0  0  0
    0.4186    1.7089    0.0672 C   0  0  0  0  0  0  0  0  0  0  0  0
    1.7839    1.5107   -0.1308 C   0  0  0  0  0  0  0  0  0  0  0  0
   -0.8149   -1.7705   -0.0183 N   0  0  0  0  0  0  0  0  0  0  0  0
    1.8777   -2.1459   -0.4077 O   0  0  0  0  0  0  0  0  0  0  0  0
    3.9525   -0.0252   -0.5335 Cl  0  0  0  0  0  0  0  0  0  0  0  0
   -0.1091    3.3495    0.2567 Cl  0  0  0  0  0  0  0  0  0  0  0  0
   -1.8811    0.7616    0.3081 C   0  0  0  0  0  0  0  0  0  0  0  0
   -2.1365   -1.5865    0.1728 C   0  0  0  0  0  0  0  0  0  0  0  0
   -2.7143   -0.3492    0.3399 C   0  0  0  0  0  0  0  0  0  0  0  0
   -1.2605    1.0491   -0.0259 C   0  0  0  0  0  0  0  0  0  0  0  0
    0.0914    0.6876    0.0458 C   0  0  0  0  0  0  0  0  0  0  0  0
   -2.2712    0.0871   -0.1505 C   0  0  0  0  0  0  0  0  0  0  0  0
    1.0688    1.6158    0.1661 N   0  0  0  0  0  0  0  0  0  0  0  0
    0.4003   -0.6918   -0.0124 C   0  0  0  0  0  0  0  0  0  0  0  0
   -1.9532   -1.2644   -0.2065 C   0  0  0  0  0  0  0  0  0  0  0  0
   -0.6180   -1.6535   -0.1374 C   0  0  0  0  0  0  0  0  0  0  0  0
   -1.5950    2.3872    0.0281 O   0  0  0  0  0  0  0  0  0  0  0  0
   -3.9289    0.5620   -0.2367 Cl  0  0  0  0  0  0  0  0  0  0  0  0
    2.3532    1.2066    0.2305 C   0  0  0  0  0  0  0  0  0  0  0  0
    1.7458   -1.0782    0.0575 C   0  0  0  0  0  0  0  0  0  0  0  0
    2.7396   -0.1166    0.1809 C   0  0  0  0  0  0  0  0  0  0  0  0
   -2.6986   -2.2680    0.3377 H   0  0  0  0  0  0  0  0  0  0  0  0
   -3.4720    0.0916    0.3852 H   0  0  0  0  0  0  0  0  0  0  0  0
   -1.1210    2.7171    0.1742 H   0  0  0  0  0  0  0  0  0  0  0  0
    2.1755   -1.8658   -0.0655 H   0  0  0  0  0  0  0  0  0  0  0  0
    2.6616    2.3772   -0.1343 H   0  0  0  0  0  0  0  0  0  0  0  0
    3.6708    0.0956   -0.2017 H   0  0  0  0  0  0  0  0  0  0  0  0
    2.4654    2.3568   -0.1613 H   0  0  0  0  0  0  0  0  0  0  0  0
    2.8412   -2.0858   -0.5328 H   0  0  0  0  0  0  0  0  0  0  0  0
   -2.3313    1.7429    0.4396 H   0  0  0  0  0  0  0  0  0  0  0  0
   -2.7322   -2.4947    0.1872 H   0  0  0  0  0  0  0  0  0  0  0  0
   -3.7829   -0.2480    0.4910 H   0  0  0  0  0  0  0  0  0  0  0  0
   -2.7327   -2.0154   -0.3030 H   0  0  0  0  0  0  0  0  0  0  0  0
   -0.3739   -2.7132   -0.1817 H   0  0  0  0  0  0  0  0  0  0  0  0
   -2.5639    2.4541   -0.0344 H   0  0  0  0  0  0  0  0  0  0  0  0
    3.0853    2.0034    0.3265 H   0  0  0  0  0  0  0  0  0  0  0  0
    2.0267   -2.1277    0.0164 H   0  0  0  0  0  0  0  0  0  0  0  0
    3.7863   -0.3921    0.2367 H   0  0  0  0  0  0  0  0  0  0  0  0
  2  1  1  0
  3  2  2  0
  4  1  1  0
  5  2  1  0
  6  4  2  0
  7  6  1  0
  8  4  1  0
  9  5  1  0
 10  1  2  0
 11 12  2  0
 12 10  1  0
 11  3  1  0
  7  5  2  0
 14 13  2  0
 15 13  1  0
 16 14  1  0
 17 15  2  0
 18 17  1  0
 19 13  1  0
 20 14  1  0
 21 16  1  0
 22 17  1  0
 23 15  1  0
 24 19  2  0
 25 23  2  0
 16 18  2  0
 24 25  1  0
 27 26  2  0
 28 26  1  0
 29 27  1  0
 30 27  1  0
 31 28  2  0
 32 31  1  0
 33 26  1  0
 34 28  1  0
 35 29  2  0
 36 30  1  0
 37 36  2  0
 32 30  2  0
 35 37  1  0
  6 38  1  0
  7 39  1  0
  9 40  1  0
 10 41  1  0
 11 42  1  0
 12 43  1  0
 18 44  1  0
 20 45  1  0
 23 46  1  0
 24 47  1  0
 25 48  1  0
 31 49  1  0
 32 50  1  0
 33 51  1  0
 35 52  1  0
 36 53  1  0
 37 54  1  0
M  END
$$$$
