
     RDKit          3D

 54 57  0  0  0  0  0  0  0  0999 V2000
    0.3733    0.6480   -0.1774 C   0  0  0  0  0  0  0  0  0  0  0  0
   -0.1333   -0.6260    0.1497 C   0  0  0  0  0  0  0  0  0  0  0  0
    0.6462   -1.7169    0.3143 N   0  0  0  0  0  0  0  0  0  0  0  0
   -0.5406    1.7245   -0.3260 C   0  0  0  0  0  0  0  0  0  0  0  0
   -1.5087   -0.7726    0.3129 C   0  0  0  0  0  0  0  0  0  0  0  0
   -1.9161    1.5378   -0.1541 C   0  0  0  0  0  0  0  0  0  0  0  0
   -2.4053    0.2787    0.1681 C   0  0  0  0  0  0  0  0  0  0  0  0
   -0.0070    3.3233   -0.7268 Cl  0  0  0  0  0  0  0  0  0  0  0  0
   -2.0168   -2.0097    0.6321 O   0  0  0  0  0  0  0  0  0  0  0  0
    1.7741    0.7454   -0.3322 C   0  0  0  0  0  0  0  0  0  0  0  0
    1.9789   -1.5700    0.1551 C   0  0  0  0  0  0  0  0  0  0  0  0
    2.5848   -0.3723   -0.1648 C   0  0  0  0  0  0  0  0  0  0  0  0
    0.1525   -0.6810    0.0291 C   0  0  0  0  0  0  0  0  0  0  0  0
   -1.1575   -1.1778   -0.0012 C   0  0  0  0  0  0  0  0  0  0  0  0
    0.3374    0.7210   -0.0128 C   0  0  0  0  0  0  0  0  0  0  0  0
   -2.2659   -0.3284   -0.0709 C   0  0  0  0  0  0  0  0  0  0  0  0
   -0.7997    1.5664   -0.0834 C   0  0  0  0  0  0  0  0  0  0  0  0
   -2.0920    1.0453   -0.1122 C   0  0  0  0  0  0  0  0  0  0  0  0
    1.2019   -1.5313    0.0967 N   0  0  0  0  0  0  0  0  0  0  0  0
   -1.3502   -2.5441    0.0392 O   0  0  0  0  0  0  0  0  0  0  0  0
   -3.8663   -0.9737   -0.1067 Cl  0  0  0  0  0  0  0  0  0  0  0  0
   -0.6568    3.2935   -0.1381 Cl  0  0  0  0  0  0  0  0  0  0  0  0
    1.6691    1.1946    0.0192 C   0  0  0  0  0  0  0  0  0  0  0  0
    2.4548   -1.0345    0.1250 C   0  0  0  0  0  0  0  0  0  0  0  0
    2.7387    0.3112    0.0887 C   0  0  0  0  0  0  0  0  0  0  0  0
    1.2513    1.1382   -0.0066 C   0  0  0  0  0  0  0  0  0  0  0  0
   -0.0490    0.6386   -0.0166 C   0  0  0  0  0  0  0  0  0  0  0  0
    2.3619    0.2936    0.0333 C   0  0  0  0  0  0  0  0  0  0  0  0
   -1.0843    1.5052   -0.0558 N   0  0  0  0  0  0  0  0  0  0  0  0
   -0.2288   -0.7600    0.0148 C   0  0  0  0  0  0  0  0  0  0  0  0
    2.1782   -1.0872    0.0643 C   0  0  0  0  0  0  0  0  0  0  0  0
    0.8864   -1.6152    0.0551 C   0  0  0  0  0  0  0  0  0  0  0  0
    1.4148    2.5070   -0.0376 O   0  0  0  0  0  0  0  0  0  0  0  0
    3.9706    0.9150    0.0456 Cl  0  0  0  0  0  0  0  0  0  0  0  0
   -2.3341    0.9901   -0.0645 C   0  0  0  0  0  0  0  0  0  0  0  0
   -1.5407   -1.2511    0.0044 C   0  0  0  0  0  0  0  0  0  0  0  0
   -2.6106   -0.3642   -0.0359 C   0  0  0  0  0  0  0  0  0  0  0  0
   -2.6072    2.3689   -0.2702 H   0  0  0  0  0  0  0  0  0  0  0  0
   -3.4695    0.1123    0.3060 H   0  0  0  0  0  0  0  0  0  0  0  0
   -1.2230   -2.5852    0.6825 H   0  0  0  0  0  0  0  0  0  0  0  0
    2.2432    1.6936   -0.5845 H   0  0  0  0  0  0  0  0  0  0  0  0
    2.5661   -2.4733    0.2969 H   0  0  0  0  0  0  0  0  0  0  0  0
    3.6608   -0.3064   -0.2817 H   0  0  0  0  0  0  0  0  0  0  0  0
   -2.9525    1.7069   -0.1664 H   0  0  0  0  0  0  0  0  0  0  0  0
   -2.3078   -2.7168    0.0105 H   0  0  0  0  0  0  0  0  0  0  0  0
    1.8865    2.2599   -0.0098 H   0  0  0  0  0  0  0  0  0  0  0  0
    3.2453   -1.7774    0.1795 H   0  0  0  0  0  0  0  0  0  0  0  0
    3.7624    0.6664    0.1135 H   0  0  0  0  0  0  0  0  0  0  0  0
    3.0350   -1.7556    0.0955 H   0  0  0  0  0  0  0  0  0  0  0  0
    0.7553   -2.6950    0.0795 H   0  0  0  0  0  0  0  0  0  0  0  0
    0.4996    2.8597   -0.0619 H   0  0  0  0  0  0  0  0  0  0  0  0
   -3.1364    1.7226   -0.0964 H   0  0  0  0  0  0  0  0  0  0  0  0
   -1.7348   -2.3206    0.0274 H   0  0  0  0  0  0  0  0  0  0  0  0
   -3.6345   -0.7214   -0.0447 H   0  0  0  0  0  0  0  0  0  0  0  0
  2  1  1  0
  3  2  2  0
  4  1  1  0
  5  2  1  0
  6  4  2  0
  7  6  1  0
  8  4  1  0
  9  5  1  0
 10  1  2  0
 11 12  2  0
 12 10  1  0
 11  3  1  0
  7  5  2  0
 14 13  2  0
 15 13  1  0
 16 14  1  0
 17 15  2  0
 18 17  1  0
 19 13  1  0
 20 14  1  0
 21 16  1  0
 22 17  1  0
 23 15  1  0
 24 19  2  0
 25 23  2  0
 16 18  2  0
 24 25  1  0
 27 26  2  0
 28 26  1  0
 29 27  1  0
 30 27  1  0
 31 28  2  0
 32 31  1  0
 33 26  1  0
 34 28  1  0
 35 29  2  0
 36 30  1  0
 37 36  2  0
 32 30  2  0
 35 37  1  0
  6 38  1  0
  7 39  1  0
  9 40  1  0
 10 41  1  0
 11 42  1  0
 12 43  1  0
 18 44  1  0
 20 45  1  0
 23 46  1  0
 24 47  1  0
 25 48  1  0
 31 49  1  0
 32 50  1  0
 33 51  1  0
 35 52  1  0
 36 53  1  0
 37 54  1  0
M  END
$$$$
