
     RDKit          3D

 54 57  0  0  0  0  0  0  0  0999 V2000
   -0.1208    0.7398    0.1700 C   0  0  0  0  0  0  0  0  0  0  0  0
   -0.0809   -0.6485   -0.0709 C   0  0  0  0  0  0  0  0  0  0  0  0
   -1.1016   -1.4839    0.2210 N   0  0  0  0  0  0  0  0  0  0  0  0
    1.0122    1.5220   -0.1775 C   0  0  0  0  0  0  0  0  0  0  0  0
    1.0686   -1.1918   -0.6393 C   0  0  0  0  0  0  0  0  0  0  0  0
    2.1492    0.9396   -0.7470 C   0  0  0  0  0  0  0  0  0  0  0  0
    2.1786   -0.4290   -0.9803 C   0  0  0  0  0  0  0  0  0  0  0  0
    1.0509    3.2344    0.0829 Cl  0  0  0  0  0  0  0  0  0  0  0  0
    1.1214   -2.5444   -0.8798 O   0  0  0  0  0  0  0  0  0  0  0  0
   -1.3079    1.2425    0.7476 C   0  0  0  0  0  0  0  0  0  0  0  0
   -2.2140   -0.9527    0.7720 C   0  0  0  0  0  0  0  0  0  0  0  0
   -2.3641    0.3901    1.0516 C   0  0  0  0  0  0  0  0  0  0  0  0
    0.0958   -0.6903   -0.0476 C   0  0  0  0  0  0  0  0  0  0  0  0
   -1.2466   -1.0662   -0.1903 C   0  0  0  0  0  0  0  0  0  0  0  0
    0.3943    0.6860    0.0883 C   0  0  0  0  0  0  0  0  0  0  0  0
   -2.2785   -0.1228   -0.2008 C   0  0  0  0  0  0  0  0  0  0  0  0
   -0.6665    1.6279    0.0753 C   0  0  0  0  0  0  0  0  0  0  0  0
   -1.9933    1.2263   -0.0682 C   0  0  0  0  0  0  0  0  0  0  0  0
    1.0690   -1.6292   -0.0417 N   0  0  0  0  0  0  0  0  0  0  0  0
   -1.5500   -2.4062   -0.3237 O   0  0  0  0  0  0  0  0  0  0  0  0
   -3.9217   -0.6201   -0.3785 Cl  0  0  0  0  0  0  0  0  0  0  0  0
   -0.3831    3.3309    0.2362 Cl  0  0  0  0  0  0  0  0  0  0  0  0
    1.7564    1.0369    0.2307 C   0  0  0  0  0  0  0  0  0  0  0  0
    2.3547   -1.2482    0.0967 C   0  0  0  0  0  0  0  0  0  0  0  0
    2.7469    0.0632    0.2352 C   0  0  0  0  0  0  0  0  0  0  0  0
   -1.3074   -1.0385    0.2714 C   0  0  0  0  0  0  0  0  0  0  0  0
   -0.0205   -0.6356   -0.0781 C   0  0  0  0  0  0  0  0  0  0  0  0
   -2.2732   -0.1241    0.6953 C   0  0  0  0  0  0  0  0  0  0  0  0
    0.8714   -1.5664   -0.4811 N   0  0  0  0  0  0  0  0  0  0  0  0
    0.2970    0.7362    0.0048 C   0  0  0  0  0  0  0  0  0  0  0  0
   -1.9538    1.2297    0.7753 C   0  0  0  0  0  0  0  0  0  0  0  0
   -0.6720    1.6613    0.4312 C   0  0  0  0  0  0  0  0  0  0  0  0
   -1.6063   -2.3819    0.1864 O   0  0  0  0  0  0  0  0  0  0  0  0
   -3.8655   -0.6258    1.1273 Cl  0  0  0  0  0  0  0  0  0  0  0  0
    2.1120   -1.1447   -0.8135 C   0  0  0  0  0  0  0  0  0  0  0  0
    1.5940    1.1298   -0.3490 C   0  0  0  0  0  0  0  0  0  0  0  0
    2.5167    0.1764   -0.7646 C   0  0  0  0  0  0  0  0  0  0  0  0
    3.0113    1.5477   -1.0093 H   0  0  0  0  0  0  0  0  0  0  0  0
    3.0514   -0.9010   -1.4215 H   0  0  0  0  0  0  0  0  0  0  0  0
    0.2504   -2.8738   -0.5687 H   0  0  0  0  0  0  0  0  0  0  0  0
   -1.4175    2.3026    0.9646 H   0  0  0  0  0  0  0  0  0  0  0  0
   -3.0084   -1.6614    0.9897 H   0  0  0  0  0  0  0  0  0  0  0  0
   -3.2788    0.7676    1.4950 H   0  0  0  0  0  0  0  0  0  0  0  0
   -2.7942    1.9608   -0.0761 H   0  0  0  0  0  0  0  0  0  0  0  0
   -2.5157   -2.4918   -0.4115 H   0  0  0  0  0  0  0  0  0  0  0  0
    2.0596    2.0757    0.3398 H   0  0  0  0  0  0  0  0  0  0  0  0
    3.0794   -2.0572    0.0923 H   0  0  0  0  0  0  0  0  0  0  0  0
    3.7933    0.3242    0.3439 H   0  0  0  0  0  0  0  0  0  0  0  0
   -2.6971    1.9518    1.1040 H   0  0  0  0  0  0  0  0  0  0  0  0
   -0.4342    2.7209    0.4976 H   0  0  0  0  0  0  0  0  0  0  0  0
   -0.7744   -2.7955   -0.1291 H   0  0  0  0  0  0  0  0  0  0  0  0
    2.7968   -1.9263   -1.1318 H   0  0  0  0  0  0  0  0  0  0  0  0
    1.8905    2.1748   -0.3029 H   0  0  0  0  0  0  0  0  0  0  0  0
    3.5262    0.4578   -1.0433 H   0  0  0  0  0  0  0  0  0  0  0  0
  2  1  1  0
  3  2  2  0
  4  1  1  0
  5  2  1  0
  6  4  2  0
  7  6  1  0
  8  4  1  0
  9  5  1  0
 10  1  2  0
 11 12  2  0
 12 10  1  0
 11  3  1  0
  7  5  2  0
 14 13  2  0
 15 13  1  0
 16 14  1  0
 17 15  2  0
 18 17  1  0
 19 13  1  0
 20 14  1  0
 21 16  1  0
 22 17  1  0
 23 15  1  0
 24 19  2  0
 25 23  2  0
 16 18  2  0
 24 25  1  0
 27 26  2  0
 28 26  1  0
 29 27  1  0
 30 27  1  0
 31 28  2  0
 32 31  1  0
 33 26  1  0
 34 28  1  0
 35 29  2  0
 36 30  1  0
 37 36  2  0
 32 30  2  0
 35 37  1  0
  6 38  1  0
  7 39  1  0
  9 40  1  0
 10 41  1  0
 11 42  1  0
 12 43  1  0
 18 44  1  0
 20 45  1  0
 23 46  1  0
 24 47  1  0
 25 48  1  0
 31 49  1  0
 32 50  1  0
 33 51  1  0
 35 52  1  0
 36 53  1  0
 37 54  1  0
M  END
$$$$
