
     RDKit          3D

 24 23  0  0  0  0  0  0  0  0999 V2000
    0.0000    0.0000    0.0000 Na  0  0  0  0  0 15  0  0  0  0  0  0
    3.6108    0.8892   -0.0009 C   0  0  0  0  0  0  0  0  0  0  0  0
    4.6720    0.9755   -0.6827 O   0  0  0  0  0  0  0  0  0  0  0  0
    3.0382    1.7646    0.7041 O   0  0  0  0  0  0  0  0  0  0  0  0
   -0.8802    0.0955   -0.3117 C   0  0  0  0  0  0  0  0  0  0  0  0
    2.9452   -0.4895   -0.0466 C   0  0  0  0  0  0  0  0  0  0  0  0
    1.4693   -0.5354    0.3384 C   0  0  0  0  0  0  0  0  0  0  0  0
    0.5825    0.1847   -0.6820 C   0  0  0  0  0  0  0  0  0  0  0  0
   -1.7045   -0.8890   -0.8707 C   0  0  0  0  0  0  0  0  0  0  0  0
   -1.4225    0.9894    0.6209 C   0  0  0  0  0  0  0  0  0  0  0  0
   -2.7684    0.9077    0.9799 C   0  0  0  0  0  0  0  0  0  0  0  0
   -3.0512   -0.9698   -0.5113 C   0  0  0  0  0  0  0  0  0  0  0  0
   -3.5831   -0.0710    0.4127 C   0  0  0  0  0  0  0  0  0  0  0  0
    3.5071   -1.1313    0.6435 H   0  0  0  0  0  0  0  0  0  0  0  0
    3.0737   -0.9128   -1.0506 H   0  0  0  0  0  0  0  0  0  0  0  0
    1.3264   -0.1038    1.3368 H   0  0  0  0  0  0  0  0  0  0  0  0
    1.1605   -1.5863    0.4103 H   0  0  0  0  0  0  0  0  0  0  0  0
    0.8598    1.2418   -0.7708 H   0  0  0  0  0  0  0  0  0  0  0  0
    0.7323   -0.2487   -1.6791 H   0  0  0  0  0  0  0  0  0  0  0  0
   -1.2957   -1.5971   -1.5871 H   0  0  0  0  0  0  0  0  0  0  0  0
   -0.7850    1.7499    1.0708 H   0  0  0  0  0  0  0  0  0  0  0  0
   -3.1747    1.6074    1.7043 H   0  0  0  0  0  0  0  0  0  0  0  0
   -3.6824   -1.7362   -0.9511 H   0  0  0  0  0  0  0  0  0  0  0  0
   -4.6300   -0.1349    0.6937 H   0  0  0  0  0  0  0  0  0  0  0  0
  3  2  1  0
  4  2  2  0
  5  8  1  0
  6  2  1  0
  7  6  1  0
  8  7  1  0
  9  5  2  0
 10  5  1  0
 11 10  2  0
 12  9  1  0
 13 12  2  0
 13 11  1  0
  6 14  1  0
  6 15  1  0
  7 16  1  0
  7 17  1  0
  8 18  1  0
  8 19  1  0
  9 20  1  0
 10 21  1  0
 11 22  1  0
 12 23  1  0
 13 24  1  0
M  CHG  2   1   1   3  -1
M  END
$$$$
