
     RDKit          3D

 24 23  0  0  0  0  0  0  0  0999 V2000
    0.0000    0.0000    0.0000 Na  0  0  0  0  0 15  0  0  0  0  0  0
    3.5592   -0.5764    0.8261 C   0  0  0  0  0  0  0  0  0  0  0  0
    3.1102   -1.6978    0.4627 O   0  0  0  0  0  0  0  0  0  0  0  0
    4.4914   -0.3096    1.6375 O   0  0  0  0  0  0  0  0  0  0  0  0
   -0.9185   -0.0233    0.0913 C   0  0  0  0  0  0  0  0  0  0  0  0
    2.8990    0.6559    0.2006 C   0  0  0  0  0  0  0  0  0  0  0  0
    1.5083    0.4447   -0.3910 C   0  0  0  0  0  0  0  0  0  0  0  0
    0.4615    0.1415    0.6854 C   0  0  0  0  0  0  0  0  0  0  0  0
   -1.8220    1.0463    0.0645 C   0  0  0  0  0  0  0  0  0  0  0  0
   -1.2997   -1.2516   -0.4646 C   0  0  0  0  0  0  0  0  0  0  0  0
   -2.5665   -1.4110   -1.0274 C   0  0  0  0  0  0  0  0  0  0  0  0
   -3.0895    0.8859   -0.4986 C   0  0  0  0  0  0  0  0  0  0  0  0
   -3.4619   -0.3426   -1.0431 C   0  0  0  0  0  0  0  0  0  0  0  0
    2.8590    1.4563    0.9498 H   0  0  0  0  0  0  0  0  0  0  0  0
    3.5699    0.9996   -0.5966 H   0  0  0  0  0  0  0  0  0  0  0  0
    1.2186    1.3540   -0.9334 H   0  0  0  0  0  0  0  0  0  0  0  0
    1.5330   -0.3620   -1.1342 H   0  0  0  0  0  0  0  0  0  0  0  0
    0.7174   -0.7687    1.2406 H   0  0  0  0  0  0  0  0  0  0  0  0
    0.4439    0.9497    1.4276 H   0  0  0  0  0  0  0  0  0  0  0  0
   -1.5368    2.0089    0.4815 H   0  0  0  0  0  0  0  0  0  0  0  0
   -0.5981   -2.0850   -0.4599 H   0  0  0  0  0  0  0  0  0  0  0  0
   -2.8479   -2.3689   -1.4547 H   0  0  0  0  0  0  0  0  0  0  0  0
   -3.7833    1.7212   -0.5137 H   0  0  0  0  0  0  0  0  0  0  0  0
   -4.4470   -0.4671   -1.4826 H   0  0  0  0  0  0  0  0  0  0  0  0
  3  2  1  0
  4  2  2  0
  5  8  1  0
  6  2  1  0
  7  6  1  0
  8  7  1  0
  9  5  2  0
 10  5  1  0
 11 10  2  0
 12  9  1  0
 13 12  2  0
 13 11  1  0
  6 14  1  0
  6 15  1  0
  7 16  1  0
  7 17  1  0
  8 18  1  0
  8 19  1  0
  9 20  1  0
 10 21  1  0
 11 22  1  0
 12 23  1  0
 13 24  1  0
M  CHG  2   1   1   3  -1
M  END
$$$$
