
     RDKit          2D

 13 12  0  0  0  0  0  0  0  0999 V2000
    7.2417   -5.5292    0.0000 Na  0  0  0  0  0 15  0  0  0  0  0  0
    5.9542   -5.7667    0.0000 C   0  0  0  0  0  0  0  0  0  0  0  0
    6.5292   -5.3917    0.0000 O   0  0  0  0  0  0  0  0  0  0  0  0
    5.9542   -6.4917    0.0000 O   0  0  0  0  0  0  0  0  0  0  0  0
    3.4917   -5.7792    0.0000 C   0  0  0  0  0  0  0  0  0  0  0  0
    5.3417   -5.4167    0.0000 C   0  0  0  0  0  0  0  0  0  0  0  0
    4.7292   -5.7792    0.0000 C   0  0  0  0  0  0  0  0  0  0  0  0
    4.1125   -5.4292    0.0000 C   0  0  0  0  0  0  0  0  0  0  0  0
    3.4917   -6.4917    0.0000 C   0  0  0  0  0  0  0  0  0  0  0  0
    2.8792   -5.4292    0.0000 C   0  0  0  0  0  0  0  0  0  0  0  0
    2.2667   -5.7792    0.0000 C   0  0  0  0  0  0  0  0  0  0  0  0
    2.8792   -6.8500    0.0000 C   0  0  0  0  0  0  0  0  0  0  0  0
    2.2667   -6.4917    0.0000 C   0  0  0  0  0  0  0  0  0  0  0  0
  3  2  1  0
  4  2  2  0
  5  8  1  0
  6  2  1  0
  7  6  1  0
  8  7  1  0
  9  5  2  0
 10  5  1  0
 11 10  2  0
 12  9  1  0
 13 12  2  0
 13 11  1  0
M  CHG  2   1   1   3  -1
M  END
> <chembl_id>
CHEMBL1746

> <chembl_pref_name>
SODIUM PHENYLBUTYRATE
