
     RDKit          3D

 24 23  0  0  0  0  0  0  0  0999 V2000
    0.0000    0.0000    0.0000 Na  0  0  0  0  0 15  0  0  0  0  0  0
    4.0066    0.1738   -0.6930 C   0  0  0  0  0  0  0  0  0  0  0  0
    5.1409   -0.3589   -0.5184 O   0  0  0  0  0  0  0  0  0  0  0  0
    3.7052    1.2255   -1.3194 O   0  0  0  0  0  0  0  0  0  0  0  0
   -0.9867   -0.2533    0.3048 C   0  0  0  0  0  0  0  0  0  0  0  0
    2.8538   -0.5910   -0.0381 C   0  0  0  0  0  0  0  0  0  0  0  0
    1.4675    0.0191   -0.2255 C   0  0  0  0  0  0  0  0  0  0  0  0
    0.4000   -0.8274    0.4691 C   0  0  0  0  0  0  0  0  0  0  0  0
   -1.4872    0.6714    1.2304 C   0  0  0  0  0  0  0  0  0  0  0  0
   -1.7809   -0.6164   -0.7905 C   0  0  0  0  0  0  0  0  0  0  0  0
   -3.0587   -0.0771   -0.9479 C   0  0  0  0  0  0  0  0  0  0  0  0
   -2.7651    1.2102    1.0723 C   0  0  0  0  0  0  0  0  0  0  0  0
   -3.5517    0.8341   -0.0154 C   0  0  0  0  0  0  0  0  0  0  0  0
    3.0761   -0.6675    1.0336 H   0  0  0  0  0  0  0  0  0  0  0  0
    2.8612   -1.6099   -0.4453 H   0  0  0  0  0  0  0  0  0  0  0  0
    1.4546    1.0403    0.1763 H   0  0  0  0  0  0  0  0  0  0  0  0
    1.2407    0.1021   -1.2960 H   0  0  0  0  0  0  0  0  0  0  0  0
    0.4146   -1.8513    0.0738 H   0  0  0  0  0  0  0  0  0  0  0  0
    0.6276   -0.9176    1.5391 H   0  0  0  0  0  0  0  0  0  0  0  0
   -0.8743    0.9819    2.0736 H   0  0  0  0  0  0  0  0  0  0  0  0
   -1.3982   -1.3151   -1.5310 H   0  0  0  0  0  0  0  0  0  0  0  0
   -3.6631   -0.3624   -1.8041 H   0  0  0  0  0  0  0  0  0  0  0  0
   -3.1402    1.9303    1.7937 H   0  0  0  0  0  0  0  0  0  0  0  0
   -4.5429    1.2591   -0.1421 H   0  0  0  0  0  0  0  0  0  0  0  0
  3  2  1  0
  4  2  2  0
  5  8  1  0
  6  2  1  0
  7  6  1  0
  8  7  1  0
  9  5  2  0
 10  5  1  0
 11 10  2  0
 12  9  1  0
 13 12  2  0
 13 11  1  0
  6 14  1  0
  6 15  1  0
  7 16  1  0
  7 17  1  0
  8 18  1  0
  8 19  1  0
  9 20  1  0
 10 21  1  0
 11 22  1  0
 12 23  1  0
 13 24  1  0
M  CHG  2   1   1   3  -1
M  END
$$$$
