
     RDKit          3D

 24 23  0  0  0  0  0  0  0  0999 V2000
    0.0000    0.0000    0.0000 Na  0  0  0  0  0 15  0  0  0  0  0  0
    3.5040    0.7802   -1.0151 C   0  0  0  0  0  0  0  0  0  0  0  0
    3.3854   -0.4707   -1.1270 O   0  0  0  0  0  0  0  0  0  0  0  0
    4.2695    1.5726   -1.6351 O   0  0  0  0  0  0  0  0  0  0  0  0
   -0.8934   -0.1976   -0.2387 C   0  0  0  0  0  0  0  0  0  0  0  0
    2.6045    1.4586    0.0224 C   0  0  0  0  0  0  0  0  0  0  0  0
    1.3652    0.6774    0.4497 C   0  0  0  0  0  0  0  0  0  0  0  0
    0.3472    0.5406   -0.6865 C   0  0  0  0  0  0  0  0  0  0  0  0
   -0.9040   -1.5984   -0.2130 C   0  0  0  0  0  0  0  0  0  0  0  0
   -2.0340    0.4999    0.1780 C   0  0  0  0  0  0  0  0  0  0  0  0
   -3.1697   -0.1928    0.6018 C   0  0  0  0  0  0  0  0  0  0  0  0
   -2.0392   -2.2900    0.2111 C   0  0  0  0  0  0  0  0  0  0  0  0
   -3.1726   -1.5871    0.6171 C   0  0  0  0  0  0  0  0  0  0  0  0
    2.3024    2.4422   -0.3583 H   0  0  0  0  0  0  0  0  0  0  0  0
    3.2277    1.6377    0.9075 H   0  0  0  0  0  0  0  0  0  0  0  0
    1.6538   -0.3135    0.8220 H   0  0  0  0  0  0  0  0  0  0  0  0
    0.8984    1.1996    1.2948 H   0  0  0  0  0  0  0  0  0  0  0  0
    0.0651    1.5344   -1.0571 H   0  0  0  0  0  0  0  0  0  0  0  0
    0.7806    0.0135   -1.5446 H   0  0  0  0  0  0  0  0  0  0  0  0
   -0.0162   -2.1488   -0.5227 H   0  0  0  0  0  0  0  0  0  0  0  0
   -2.0373    1.5870    0.1746 H   0  0  0  0  0  0  0  0  0  0  0  0
   -4.0495    0.3573    0.9220 H   0  0  0  0  0  0  0  0  0  0  0  0
   -2.0327   -3.3759    0.2258 H   0  0  0  0  0  0  0  0  0  0  0  0
   -4.0551   -2.1260    0.9485 H   0  0  0  0  0  0  0  0  0  0  0  0
  3  2  1  0
  4  2  2  0
  5  8  1  0
  6  2  1  0
  7  6  1  0
  8  7  1  0
  9  5  2  0
 10  5  1  0
 11 10  2  0
 12  9  1  0
 13 12  2  0
 13 11  1  0
  6 14  1  0
  6 15  1  0
  7 16  1  0
  7 17  1  0
  8 18  1  0
  8 19  1  0
  9 20  1  0
 10 21  1  0
 11 22  1  0
 12 23  1  0
 13 24  1  0
M  CHG  2   1   1   3  -1
M  END
$$$$
