
     RDKit          3D

 13 12  0  0  0  0  0  0  0  0999 V2000
    0.0000    0.0000    0.0000 Na  0  0  0  0  0 15  0  0  0  0  0  0
    3.1131    0.0068    0.2157 C   0  0  0  0  0  0  0  0  0  0  0  0
    4.4781   -0.3352    0.1616 O   0  0  0  0  0  0  0  0  0  0  0  0
    2.5367    0.5892   -0.7398 O   0  0  0  0  0  0  0  0  0  0  0  0
   -1.0049   -0.2122   -0.0768 C   0  0  0  0  0  0  0  0  0  0  0  0
    2.4115   -0.3697    1.4769 C   0  0  0  0  0  0  0  0  0  0  0  0
    0.9641    0.0906    1.3161 C   0  0  0  0  0  0  0  0  0  0  0  0
    0.4104   -0.6374    0.1116 C   0  0  0  0  0  0  0  0  0  0  0  0
   -1.3299    0.8713   -0.8626 C   0  0  0  0  0  0  0  0  0  0  0  0
   -1.9646   -0.9725    0.5851 C   0  0  0  0  0  0  0  0  0  0  0  0
   -3.2986   -0.6452    0.4628 C   0  0  0  0  0  0  0  0  0  0  0  0
   -2.6738    1.1824   -0.9718 C   0  0  0  0  0  0  0  0  0  0  0  0
   -3.6420    0.4319   -0.3164 C   0  0  0  0  0  0  0  0  0  0  0  0
  3  2  1  0
  4  2  2  0
  5  8  1  0
  6  2  1  0
  7  6  1  0
  8  7  1  0
  9  5  2  0
 10  5  1  0
 11 10  2  0
 12  9  1  0
 13 12  2  0
 13 11  1  0
M  CHG  2   1   1   3  -1
M  END
