
     RDKit          3D

 70 72  0  0  0  0  0  0  0  0999 V2000
   45.2136    7.5005   11.9691 C   0  0  0  0  0  0  0  0  0  0  0  0
   45.6385    6.2217   12.1615 C   0  0  0  0  0  0  0  0  0  0  0  0
   45.8244    8.5667   12.5836 N   0  0  0  0  0  0  0  0  0  0  0  0
   47.3046    6.9964   13.6232 N   0  0  0  0  0  0  0  0  0  0  0  0
   46.9041    8.3366   13.4374 C   0  0  0  0  0  0  0  0  0  0  0  0
   46.7318    5.8830   13.0035 C   0  0  0  0  0  0  0  0  0  0  0  0
   44.1530    7.5604   11.1163 N   0  0  0  0  0  0  0  0  0  0  0  0
   44.7965    5.4508   11.4099 N   0  0  0  0  0  0  0  0  0  0  0  0
   43.9143    6.3038   10.7983 C   0  0  0  0  0  0  0  0  0  0  0  0
   44.8384    4.0097   11.2449 C   0  0  0  0  0  0  0  0  0  0  0  0
   47.4938    9.2595   14.0074 O   0  0  0  0  0  0  0  0  0  0  0  0
   47.1201    4.7271   13.1448 O   0  0  0  0  0  0  0  0  0  0  0  0
   44.2799    3.2777   12.4344 C   0  0  0  0  0  0  0  0  0  0  0  0
   43.7120    3.7487   13.4051 O   0  0  0  0  0  0  0  0  0  0  0  0
   45.3439    9.9154   12.3464 C   0  0  0  0  0  0  0  0  0  0  0  0
   48.4252    6.7794   14.5170 C   0  0  0  0  0  0  0  0  0  0  0  0
   44.4310    1.9395   12.3212 O   0  0  0  0  0  0  0  0  0  0  0  0
   46.7946    6.1870   13.3321 C   0  0  0  0  0  0  0  0  0  0  0  0
   45.4836    6.1052   12.9720 C   0  0  0  0  0  0  0  0  0  0  0  0
   47.5121    7.3507   13.1988 N   0  0  0  0  0  0  0  0  0  0  0  0
   45.5271    8.3614   12.3199 N   0  0  0  0  0  0  0  0  0  0  0  0
   46.8873    8.4824   12.6742 C   0  0  0  0  0  0  0  0  0  0  0  0
   44.7567    7.2005   12.4307 C   0  0  0  0  0  0  0  0  0  0  0  0
   47.2655    5.0041   13.8158 N   0  0  0  0  0  0  0  0  0  0  0  0
   45.1261    4.8111   13.2303 N   0  0  0  0  0  0  0  0  0  0  0  0
   46.2354    4.1854   13.7413 C   0  0  0  0  0  0  0  0  0  0  0  0
   43.8225    4.1992   13.0466 C   0  0  0  0  0  0  0  0  0  0  0  0
   47.4898    9.5494   12.5224 O   0  0  0  0  0  0  0  0  0  0  0  0
   43.5763    7.1151   12.1046 O   0  0  0  0  0  0  0  0  0  0  0  0
   43.5900    3.6415   11.6684 C   0  0  0  0  0  0  0  0  0  0  0  0
   42.6837    2.8731   11.3747 O   0  0  0  0  0  0  0  0  0  0  0  0
   48.9112    7.3902   13.5832 C   0  0  0  0  0  0  0  0  0  0  0  0
   44.8979    9.5498   11.7776 C   0  0  0  0  0  0  0  0  0  0  0  0
   44.4493    4.0518   10.7178 O   0  0  0  0  0  0  0  0  0  0  0  0
   47.1344    6.5463   13.0561 N   0  0  0  0  0  0  0  0  0  0  0  0
   44.2924    6.2632   12.2348 N   0  0  0  0  0  0  0  0  0  0  0  0
   46.2603    5.4917   13.5991 C   0  0  0  0  0  0  0  0  0  0  0  0
   45.1117    5.1084   12.6413 C   0  0  0  0  0  0  0  0  0  0  0  0
   46.3140    7.7018   12.6526 C   0  0  0  0  0  0  0  0  0  0  0  0
   45.1663    7.3189   11.6932 C   0  0  0  0  0  0  0  0  0  0  0  0
   43.1277    5.9627   10.1363 H   0  0  0  0  0  0  0  0  0  0  0  0
   44.2468    3.7541   10.3602 H   0  0  0  0  0  0  0  0  0  0  0  0
   45.8808    3.7249   11.0770 H   0  0  0  0  0  0  0  0  0  0  0  0
   44.2937    9.9806   12.6490 H   0  0  0  0  0  0  0  0  0  0  0  0
   45.9150   10.6574   12.9107 H   0  0  0  0  0  0  0  0  0  0  0  0
   45.4339   10.1420   11.2793 H   0  0  0  0  0  0  0  0  0  0  0  0
   49.3079    7.2770   14.1024 H   0  0  0  0  0  0  0  0  0  0  0  0
   48.6491    5.7194   14.6597 H   0  0  0  0  0  0  0  0  0  0  0  0
   48.2006    7.2276   15.4905 H   0  0  0  0  0  0  0  0  0  0  0  0
   44.0568    1.5829   13.1563 H   0  0  0  0  0  0  0  0  0  0  0  0
   46.2396    3.1441   14.0405 H   0  0  0  0  0  0  0  0  0  0  0  0
   43.7491    3.3793   13.7701 H   0  0  0  0  0  0  0  0  0  0  0  0
   43.0544    4.9423   13.2780 H   0  0  0  0  0  0  0  0  0  0  0  0
   49.3439    8.3853   13.4460 H   0  0  0  0  0  0  0  0  0  0  0  0
   49.4707    6.6775   12.9671 H   0  0  0  0  0  0  0  0  0  0  0  0
   49.0014    7.1127   14.6390 H   0  0  0  0  0  0  0  0  0  0  0  0
   43.8355    9.4035   11.5669 H   0  0  0  0  0  0  0  0  0  0  0  0
   45.4095    9.8284   10.8503 H   0  0  0  0  0  0  0  0  0  0  0  0
   45.0070   10.3715   12.4932 H   0  0  0  0  0  0  0  0  0  0  0  0
   44.1291    3.6315    9.8910 H   0  0  0  0  0  0  0  0  0  0  0  0
   47.5821    6.1759   12.2168 H   0  0  0  0  0  0  0  0  0  0  0  0
   43.8401    6.6336   13.0723 H   0  0  0  0  0  0  0  0  0  0  0  0
   46.8686    4.6050   13.8079 H   0  0  0  0  0  0  0  0  0  0  0  0
   45.8502    5.8249   14.5606 H   0  0  0  0  0  0  0  0  0  0  0  0
   44.4637    4.3719   13.1292 H   0  0  0  0  0  0  0  0  0  0  0  0
   45.5196    4.6238   11.7451 H   0  0  0  0  0  0  0  0  0  0  0  0
   45.9043    8.1828   13.5497 H   0  0  0  0  0  0  0  0  0  0  0  0
   46.9613    8.4406   12.1669 H   0  0  0  0  0  0  0  0  0  0  0  0
   44.5574    8.2054   11.4834 H   0  0  0  0  0  0  0  0  0  0  0  0
   45.5804    6.9853   10.7332 H   0  0  0  0  0  0  0  0  0  0  0  0
  2  1  2  0
  3  1  1  0
  4  5  1  0
  5  3  1  0
  6  2  1  0
  7  1  1  0
  8  2  1  0
  9  7  2  0
 10  8  1  0
 11  5  2  0
 12  6  2  0
 13 10  1  0
 14 13  2  0
 15  3  1  0
 16  4  1  0
 17 13  1  0
  6  4  1  0
  8  9  1  0
 19 18  2  0
 20 18  1  0
 21 22  1  0
 22 20  1  0
 23 19  1  0
 24 18  1  0
 25 19  1  0
 26 24  2  0
 27 25  1  0
 28 22  2  0
 29 23  2  0
 30 27  1  0
 31 30  2  0
 32 20  1  0
 33 21  1  0
 34 30  1  0
 23 21  1  0
 25 26  1  0
 36 40  1  0
 37 35  1  0
 38 37  1  0
 39 35  1  0
 40 39  1  0
 38 36  1  0
  9 41  1  0
 10 42  1  0
 10 43  1  0
 15 44  1  0
 15 45  1  0
 15 46  1  0
 16 47  1  0
 16 48  1  0
 16 49  1  0
 17 50  1  0
 26 51  1  0
 27 52  1  0
 27 53  1  0
 32 54  1  0
 32 55  1  0
 32 56  1  0
 33 57  1  0
 33 58  1  0
 33 59  1  0
 34 60  1  0
 35 61  1  0
 36 62  1  0
 37 63  1  0
 37 64  1  0
 38 65  1  0
 38 66  1  0
 39 67  1  0
 39 68  1  0
 40 69  1  0
 40 70  1  0
M  END
> <Uni-Dock RESULT> 
ENERGY=   -6.581  LOWER_BOUND=    0.000  UPPER_BOUND=    0.000
INTER + INTRA:          -6.581
INTER:                  -6.581
INTRA:                   0.000
UNBOUND:                 0.000

$$$$

     RDKit          3D

 70 72  0  0  0  0  0  0  0  0999 V2000
   46.7215    6.4851   13.2960 C   0  0  0  0  0  0  0  0  0  0  0  0
   45.4526    6.2743   12.8508 C   0  0  0  0  0  0  0  0  0  0  0  0
   47.3734    7.6763   13.0878 N   0  0  0  0  0  0  0  0  0  0  0  0
   45.4166    8.4353   11.9335 N   0  0  0  0  0  0  0  0  0  0  0  0
   46.7249    8.6978   12.3923 C   0  0  0  0  0  0  0  0  0  0  0  0
   44.7043    7.2514   12.1407 C   0  0  0  0  0  0  0  0  0  0  0  0
   47.2177    5.3977   13.9494 N   0  0  0  0  0  0  0  0  0  0  0  0
   45.1516    4.9955   13.2282 N   0  0  0  0  0  0  0  0  0  0  0  0
   46.2496    4.5054   13.8871 C   0  0  0  0  0  0  0  0  0  0  0  0
   43.9012    4.2897   13.0183 C   0  0  0  0  0  0  0  0  0  0  0  0
   47.2620    9.7902   12.1858 O   0  0  0  0  0  0  0  0  0  0  0  0
   43.5506    7.0554   11.7700 O   0  0  0  0  0  0  0  0  0  0  0  0
   43.7476    3.7988   11.6049 C   0  0  0  0  0  0  0  0  0  0  0  0
   44.5756    3.8202   10.7101 O   0  0  0  0  0  0  0  0  0  0  0  0
   48.7242    7.8624   13.5845 C   0  0  0  0  0  0  0  0  0  0  0  0
   44.7627    9.5081   11.2101 C   0  0  0  0  0  0  0  0  0  0  0  0
   42.5324    3.2476   11.3903 O   0  0  0  0  0  0  0  0  0  0  0  0
   44.9702    7.5406   11.9171 C   0  0  0  0  0  0  0  0  0  0  0  0
   45.5481    6.3119   12.0238 C   0  0  0  0  0  0  0  0  0  0  0  0
   45.5449    8.6623   12.4633 N   0  0  0  0  0  0  0  0  0  0  0  0
   47.3234    7.2577   13.2367 N   0  0  0  0  0  0  0  0  0  0  0  0
   46.7514    8.5446   13.1538 C   0  0  0  0  0  0  0  0  0  0  0  0
   46.7760    6.0872   12.7040 C   0  0  0  0  0  0  0  0  0  0  0  0
   43.7968    7.4943   11.2271 N   0  0  0  0  0  0  0  0  0  0  0  0
   44.6903    5.4610   11.3837 N   0  0  0  0  0  0  0  0  0  0  0  0
   43.6482    6.2220   10.9168 C   0  0  0  0  0  0  0  0  0  0  0  0
   44.8449    4.0311   11.1862 C   0  0  0  0  0  0  0  0  0  0  0  0
   47.3037    9.5188   13.6737 O   0  0  0  0  0  0  0  0  0  0  0  0
   47.2862    4.9746   12.7988 O   0  0  0  0  0  0  0  0  0  0  0  0
   44.3133    3.1901   12.3153 C   0  0  0  0  0  0  0  0  0  0  0  0
   44.1112    1.9849   12.2470 O   0  0  0  0  0  0  0  0  0  0  0  0
   44.8882    9.9506   12.3369 C   0  0  0  0  0  0  0  0  0  0  0  0
   48.5773    7.1588   13.9581 C   0  0  0  0  0  0  0  0  0  0  0  0
   44.0708    3.8417   13.4673 O   0  0  0  0  0  0  0  0  0  0  0  0
   45.0528    7.9208   12.3286 N   0  0  0  0  0  0  0  0  0  0  0  0
   46.2114    5.1949   12.5712 N   0  0  0  0  0  0  0  0  0  0  0  0
   44.7084    6.8341   11.3951 C   0  0  0  0  0  0  0  0  0  0  0  0
   44.8662    5.4308   12.0191 C   0  0  0  0  0  0  0  0  0  0  0  0
   46.3996    7.6851   12.8779 C   0  0  0  0  0  0  0  0  0  0  0  0
   46.5570    6.2823   13.5037 C   0  0  0  0  0  0  0  0  0  0  0  0
   46.2911    3.5048   14.2998 H   0  0  0  0  0  0  0  0  0  0  0  0
   43.8803    3.4314   13.6972 H   0  0  0  0  0  0  0  0  0  0  0  0
   43.0870    4.9732   13.2752 H   0  0  0  0  0  0  0  0  0  0  0  0
   49.3773    7.1035   13.1414 H   0  0  0  0  0  0  0  0  0  0  0  0
   49.1191    8.8504   13.3335 H   0  0  0  0  0  0  0  0  0  0  0  0
   48.7203    7.7534   14.6737 H   0  0  0  0  0  0  0  0  0  0  0  0
   44.6541   10.3684   11.8784 H   0  0  0  0  0  0  0  0  0  0  0  0
   43.7766    9.2220   10.8361 H   0  0  0  0  0  0  0  0  0  0  0  0
   45.3898    9.8049   10.3630 H   0  0  0  0  0  0  0  0  0  0  0  0
   42.5468    2.9937   10.4417 H   0  0  0  0  0  0  0  0  0  0  0  0
   42.8158    5.8053   10.3626 H   0  0  0  0  0  0  0  0  0  0  0  0
   44.2968    3.7732   10.2730 H   0  0  0  0  0  0  0  0  0  0  0  0
   45.9057    3.8144   11.0330 H   0  0  0  0  0  0  0  0  0  0  0  0
   45.4725   10.7529   12.7966 H   0  0  0  0  0  0  0  0  0  0  0  0
   43.9110    9.9027   12.8302 H   0  0  0  0  0  0  0  0  0  0  0  0
   44.7526   10.1817   11.2748 H   0  0  0  0  0  0  0  0  0  0  0  0
   48.9897    6.1468   13.9466 H   0  0  0  0  0  0  0  0  0  0  0  0
   48.4122    7.4640   14.9967 H   0  0  0  0  0  0  0  0  0  0  0  0
   49.3046    7.8425   13.5080 H   0  0  0  0  0  0  0  0  0  0  0  0
   43.7761    3.1455   14.0927 H   0  0  0  0  0  0  0  0  0  0  0  0
   44.3908    7.8838   13.1048 H   0  0  0  0  0  0  0  0  0  0  0  0
   46.8757    5.2275   11.7961 H   0  0  0  0  0  0  0  0  0  0  0  0
   43.6724    6.9695   11.0660 H   0  0  0  0  0  0  0  0  0  0  0  0
   45.3361    6.9178   10.4991 H   0  0  0  0  0  0  0  0  0  0  0  0
   44.6605    4.6704   11.2575 H   0  0  0  0  0  0  0  0  0  0  0  0
   44.1220    5.2900   12.8132 H   0  0  0  0  0  0  0  0  0  0  0  0
   47.1420    7.8229   12.0817 H   0  0  0  0  0  0  0  0  0  0  0  0
   46.6079    8.4466   13.6379 H   0  0  0  0  0  0  0  0  0  0  0  0
   47.5930    6.1461   13.8336 H   0  0  0  0  0  0  0  0  0  0  0  0
   45.9270    6.2021   14.3988 H   0  0  0  0  0  0  0  0  0  0  0  0
  2  1  2  0
  3  1  1  0
  4  5  1  0
  5  3  1  0
  6  2  1  0
  7  1  1  0
  8  2  1  0
  9  7  2  0
 10  8  1  0
 11  5  2  0
 12  6  2  0
 13 10  1  0
 14 13  2  0
 15  3  1  0
 16  4  1  0
 17 13  1  0
  6  4  1  0
  8  9  1  0
 19 18  2  0
 20 18  1  0
 21 22  1  0
 22 20  1  0
 23 19  1  0
 24 18  1  0
 25 19  1  0
 26 24  2  0
 27 25  1  0
 28 22  2  0
 29 23  2  0
 30 27  1  0
 31 30  2  0
 32 20  1  0
 33 21  1  0
 34 30  1  0
 23 21  1  0
 25 26  1  0
 36 40  1  0
 37 35  1  0
 38 37  1  0
 39 35  1  0
 40 39  1  0
 38 36  1  0
  9 41  1  0
 10 42  1  0
 10 43  1  0
 15 44  1  0
 15 45  1  0
 15 46  1  0
 16 47  1  0
 16 48  1  0
 16 49  1  0
 17 50  1  0
 26 51  1  0
 27 52  1  0
 27 53  1  0
 32 54  1  0
 32 55  1  0
 32 56  1  0
 33 57  1  0
 33 58  1  0
 33 59  1  0
 34 60  1  0
 35 61  1  0
 36 62  1  0
 37 63  1  0
 37 64  1  0
 38 65  1  0
 38 66  1  0
 39 67  1  0
 39 68  1  0
 40 69  1  0
 40 70  1  0
M  END
> <Uni-Dock RESULT> 
ENERGY=   -6.153  LOWER_BOUND=    0.448  UPPER_BOUND=    2.949
INTER + INTRA:          -6.153
INTER:                  -6.153
INTRA:                   0.000
UNBOUND:                 0.000

$$$$

     RDKit          3D

 70 72  0  0  0  0  0  0  0  0999 V2000
   45.2990    8.0932   12.3000 C   0  0  0  0  0  0  0  0  0  0  0  0
   46.0113    7.2842   13.1313 C   0  0  0  0  0  0  0  0  0  0  0  0
   44.2960    7.6048   11.4983 N   0  0  0  0  0  0  0  0  0  0  0  0
   44.7728    5.4328   12.3888 N   0  0  0  0  0  0  0  0  0  0  0  0
   44.0022    6.2407   11.5260 C   0  0  0  0  0  0  0  0  0  0  0  0
   45.7848    5.8856   13.2389 C   0  0  0  0  0  0  0  0  0  0  0  0
   45.7049    9.3909   12.3833 N   0  0  0  0  0  0  0  0  0  0  0  0
   46.9102    8.1100   13.7464 N   0  0  0  0  0  0  0  0  0  0  0  0
   46.6884    9.3730   13.2608 C   0  0  0  0  0  0  0  0  0  0  0  0
   47.8900    7.7465   14.7530 C   0  0  0  0  0  0  0  0  0  0  0  0
   43.1051    5.7519   10.8326 O   0  0  0  0  0  0  0  0  0  0  0  0
   46.4174    5.1743   14.0140 O   0  0  0  0  0  0  0  0  0  0  0  0
   49.0873    7.0507   14.1660 C   0  0  0  0  0  0  0  0  0  0  0  0
   49.3576    6.8899   12.9880 O   0  0  0  0  0  0  0  0  0  0  0  0
   43.5564    8.5026   10.6307 C   0  0  0  0  0  0  0  0  0  0  0  0
   44.4540    4.0186   12.3993 C   0  0  0  0  0  0  0  0  0  0  0  0
   49.9366    6.6127   15.1218 O   0  0  0  0  0  0  0  0  0  0  0  0
   45.6094    5.7116   12.8604 C   0  0  0  0  0  0  0  0  0  0  0  0
   46.4058    6.7840   12.5941 C   0  0  0  0  0  0  0  0  0  0  0  0
   44.2725    5.7049   12.5451 N   0  0  0  0  0  0  0  0  0  0  0  0
   44.5650    7.9160   11.6735 N   0  0  0  0  0  0  0  0  0  0  0  0
   43.7074    6.8282   11.9408 C   0  0  0  0  0  0  0  0  0  0  0  0
   45.9275    7.9734   11.9797 C   0  0  0  0  0  0  0  0  0  0  0  0
   46.2987    4.7002   13.4580 N   0  0  0  0  0  0  0  0  0  0  0  0
   47.6422    6.4301   13.0582 N   0  0  0  0  0  0  0  0  0  0  0  0
   47.5283    5.1616   13.5691 C   0  0  0  0  0  0  0  0  0  0  0  0
   48.8660    7.2089   13.0002 C   0  0  0  0  0  0  0  0  0  0  0  0
   42.5090    6.8785   11.6479 O   0  0  0  0  0  0  0  0  0  0  0  0
   46.6527    8.9366   11.7484 O   0  0  0  0  0  0  0  0  0  0  0  0
   49.0597    8.1435   14.1637 C   0  0  0  0  0  0  0  0  0  0  0  0
   50.1170    8.6931   14.4434 O   0  0  0  0  0  0  0  0  0  0  0  0
   43.4575    4.5454   12.8583 C   0  0  0  0  0  0  0  0  0  0  0  0
   43.9567    9.0723   11.0447 C   0  0  0  0  0  0  0  0  0  0  0  0
   47.9683    8.3779   14.9148 O   0  0  0  0  0  0  0  0  0  0  0  0
   45.0604    5.7964   12.9705 N   0  0  0  0  0  0  0  0  0  0  0  0
   46.8532    8.1164   12.4849 N   0  0  0  0  0  0  0  0  0  0  0  0
   46.5240    5.6534   12.8785 C   0  0  0  0  0  0  0  0  0  0  0  0
   47.2810    6.9423   13.2650 C   0  0  0  0  0  0  0  0  0  0  0  0
   44.6336    6.9694   12.1874 C   0  0  0  0  0  0  0  0  0  0  0  0
   45.3893    8.2589   12.5751 C   0  0  0  0  0  0  0  0  0  0  0  0
   47.2625   10.2352   13.5774 H   0  0  0  0  0  0  0  0  0  0  0  0
   48.2201    8.6644   15.2496 H   0  0  0  0  0  0  0  0  0  0  0  0
   47.3929    7.1003   15.4820 H   0  0  0  0  0  0  0  0  0  0  0  0
   44.2534    8.9914    9.9422 H   0  0  0  0  0  0  0  0  0  0  0  0
   42.8013    7.9733   10.0435 H   0  0  0  0  0  0  0  0  0  0  0  0
   43.0558    9.2579   11.2448 H   0  0  0  0  0  0  0  0  0  0  0  0
   43.4241    3.8924   12.7485 H   0  0  0  0  0  0  0  0  0  0  0  0
   45.1213    3.4427   13.0451 H   0  0  0  0  0  0  0  0  0  0  0  0
   44.5240    3.6268   11.3792 H   0  0  0  0  0  0  0  0  0  0  0  0
   50.6513    6.1619   14.6212 H   0  0  0  0  0  0  0  0  0  0  0  0
   48.3620    4.6246   14.0054 H   0  0  0  0  0  0  0  0  0  0  0  0
   49.6983    6.4963   12.9847 H   0  0  0  0  0  0  0  0  0  0  0  0
   48.8718    7.7772   12.0660 H   0  0  0  0  0  0  0  0  0  0  0  0
   42.4228    4.6729   12.5274 H   0  0  0  0  0  0  0  0  0  0  0  0
   43.4612    4.3893   13.9429 H   0  0  0  0  0  0  0  0  0  0  0  0
   43.8779    3.6656   12.3593 H   0  0  0  0  0  0  0  0  0  0  0  0
   44.6815    9.8598   10.8233 H   0  0  0  0  0  0  0  0  0  0  0  0
   43.1877    9.4740   11.7128 H   0  0  0  0  0  0  0  0  0  0  0  0
   43.4760    8.7612   10.1112 H   0  0  0  0  0  0  0  0  0  0  0  0
   48.2614    9.0286   15.5882 H   0  0  0  0  0  0  0  0  0  0  0  0
   44.8274    5.9751   13.9481 H   0  0  0  0  0  0  0  0  0  0  0  0
   47.0886    7.9420   11.5064 H   0  0  0  0  0  0  0  0  0  0  0  0
   46.8388    4.8373   13.5379 H   0  0  0  0  0  0  0  0  0  0  0  0
   46.7923    5.3539   11.8577 H   0  0  0  0  0  0  0  0  0  0  0  0
   48.3554    6.7911   13.1121 H   0  0  0  0  0  0  0  0  0  0  0  0
   47.1416    7.1504   14.3335 H   0  0  0  0  0  0  0  0  0  0  0  0
   44.7770    6.7607   11.1197 H   0  0  0  0  0  0  0  0  0  0  0  0
   43.5586    7.1202   12.3372 H   0  0  0  0  0  0  0  0  0  0  0  0
   45.0748    9.0761   11.9164 H   0  0  0  0  0  0  0  0  0  0  0  0
   45.1193    8.5547   13.5969 H   0  0  0  0  0  0  0  0  0  0  0  0
  2  1  2  0
  3  1  1  0
  4  5  1  0
  5  3  1  0
  6  2  1  0
  7  1  1  0
  8  2  1  0
  9  7  2  0
 10  8  1  0
 11  5  2  0
 12  6  2  0
 13 10  1  0
 14 13  2  0
 15  3  1  0
 16  4  1  0
 17 13  1  0
  6  4  1  0
  8  9  1  0
 19 18  2  0
 20 18  1  0
 21 22  1  0
 22 20  1  0
 23 19  1  0
 24 18  1  0
 25 19  1  0
 26 24  2  0
 27 25  1  0
 28 22  2  0
 29 23  2  0
 30 27  1  0
 31 30  2  0
 32 20  1  0
 33 21  1  0
 34 30  1  0
 23 21  1  0
 25 26  1  0
 36 40  1  0
 37 35  1  0
 38 37  1  0
 39 35  1  0
 40 39  1  0
 38 36  1  0
  9 41  1  0
 10 42  1  0
 10 43  1  0
 15 44  1  0
 15 45  1  0
 15 46  1  0
 16 47  1  0
 16 48  1  0
 16 49  1  0
 17 50  1  0
 26 51  1  0
 27 52  1  0
 27 53  1  0
 32 54  1  0
 32 55  1  0
 32 56  1  0
 33 57  1  0
 33 58  1  0
 33 59  1  0
 34 60  1  0
 35 61  1  0
 36 62  1  0
 37 63  1  0
 37 64  1  0
 38 65  1  0
 38 66  1  0
 39 67  1  0
 39 68  1  0
 40 69  1  0
 40 70  1  0
M  END
> <Uni-Dock RESULT> 
ENERGY=   -5.938  LOWER_BOUND=    1.356  UPPER_BOUND=    4.299
INTER + INTRA:          -5.938
INTER:                  -5.938
INTRA:                   0.000
UNBOUND:                 0.000

$$$$

     RDKit          3D

 70 72  0  0  0  0  0  0  0  0999 V2000
   47.0099    5.7598   13.1347 C   0  0  0  0  0  0  0  0  0  0  0  0
   46.6464    6.8481   12.4024 C   0  0  0  0  0  0  0  0  0  0  0  0
   46.1137    4.7679   13.4515 N   0  0  0  0  0  0  0  0  0  0  0  0
   44.4493    6.0296   12.2786 N   0  0  0  0  0  0  0  0  0  0  0  0
   44.7906    4.8796   13.0217 C   0  0  0  0  0  0  0  0  0  0  0  0
   45.3285    7.0514   11.9117 C   0  0  0  0  0  0  0  0  0  0  0  0
   48.3267    5.7977   13.4816 N   0  0  0  0  0  0  0  0  0  0  0  0
   47.7807    7.6043   12.3030 N   0  0  0  0  0  0  0  0  0  0  0  0
   48.7692    6.9301   12.9724 C   0  0  0  0  0  0  0  0  0  0  0  0
   47.9388    8.8605   11.5940 C   0  0  0  0  0  0  0  0  0  0  0  0
   43.9477    4.0127   13.2714 O   0  0  0  0  0  0  0  0  0  0  0  0
   45.0234    8.0250   11.2291 O   0  0  0  0  0  0  0  0  0  0  0  0
   47.3532   10.0237   12.3466 C   0  0  0  0  0  0  0  0  0  0  0  0
   46.9046   10.0333   13.4803 O   0  0  0  0  0  0  0  0  0  0  0  0
   46.5438    3.6207   14.2293 C   0  0  0  0  0  0  0  0  0  0  0  0
   43.0693    6.1277   11.8454 C   0  0  0  0  0  0  0  0  0  0  0  0
   47.4005   11.1668   11.6272 O   0  0  0  0  0  0  0  0  0  0  0  0
   45.0178    6.8446   12.1666 C   0  0  0  0  0  0  0  0  0  0  0  0
   46.0977    7.2229   12.9053 C   0  0  0  0  0  0  0  0  0  0  0  0
   44.6499    5.5271   12.0421 N   0  0  0  0  0  0  0  0  0  0  0  0
   46.5103    4.9743   13.4447 N   0  0  0  0  0  0  0  0  0  0  0  0
   45.4039    4.5436   12.6827 C   0  0  0  0  0  0  0  0  0  0  0  0
   46.9279    6.2994   13.5973 C   0  0  0  0  0  0  0  0  0  0  0  0
   44.3909    7.9109   11.5964 N   0  0  0  0  0  0  0  0  0  0  0  0
   46.1537    8.5831   12.7787 N   0  0  0  0  0  0  0  0  0  0  0  0
   45.1004    8.9530   11.9806 C   0  0  0  0  0  0  0  0  0  0  0  0
   47.1076    9.4908   13.3901 C   0  0  0  0  0  0  0  0  0  0  0  0
   45.1237    3.3444   12.5933 O   0  0  0  0  0  0  0  0  0  0  0  0
   47.9023    6.6503   14.2566 O   0  0  0  0  0  0  0  0  0  0  0  0
   48.3665    9.6946   12.5912 C   0  0  0  0  0  0  0  0  0  0  0  0
   49.1744   10.5930   12.7868 O   0  0  0  0  0  0  0  0  0  0  0  0
   43.4989    5.1669   11.2343 C   0  0  0  0  0  0  0  0  0  0  0  0
   47.2792    3.9356   14.1021 C   0  0  0  0  0  0  0  0  0  0  0  0
   48.5920    8.7976   11.6141 O   0  0  0  0  0  0  0  0  0  0  0  0
   45.0201    6.3375   11.9146 N   0  0  0  0  0  0  0  0  0  0  0  0
   47.3975    7.2430   13.4507 N   0  0  0  0  0  0  0  0  0  0  0  0
   45.1518    7.7153   12.4198 C   0  0  0  0  0  0  0  0  0  0  0  0
   46.6213    8.1557   12.5937 C   0  0  0  0  0  0  0  0  0  0  0  0
   45.7947    5.4253   12.7743 C   0  0  0  0  0  0  0  0  0  0  0  0
   47.2649    5.8646   12.9468 C   0  0  0  0  0  0  0  0  0  0  0  0
   49.7832    7.3017   13.0561 H   0  0  0  0  0  0  0  0  0  0  0  0
   49.0097    9.0336   11.4490 H   0  0  0  0  0  0  0  0  0  0  0  0
   47.4548    8.7547   10.6190 H   0  0  0  0  0  0  0  0  0  0  0  0
   46.9330    3.9659   15.1927 H   0  0  0  0  0  0  0  0  0  0  0  0
   45.7231    2.9229   14.4157 H   0  0  0  0  0  0  0  0  0  0  0  0
   47.3322    3.0953   13.6811 H   0  0  0  0  0  0  0  0  0  0  0  0
   42.8501    5.2902   11.1752 H   0  0  0  0  0  0  0  0  0  0  0  0
   42.8587    7.0645   11.3239 H   0  0  0  0  0  0  0  0  0  0  0  0
   42.4123    6.0535   12.7184 H   0  0  0  0  0  0  0  0  0  0  0  0
   46.9729   11.8345   12.2068 H   0  0  0  0  0  0  0  0  0  0  0  0
   44.8967    9.9829   11.7129 H   0  0  0  0  0  0  0  0  0  0  0  0
   46.6045   10.4583   13.4985 H   0  0  0  0  0  0  0  0  0  0  0  0
   47.3593    9.1117   14.3845 H   0  0  0  0  0  0  0  0  0  0  0  0
   43.3119    4.0893   11.2484 H   0  0  0  0  0  0  0  0  0  0  0  0
   43.6787    5.4771   10.1989 H   0  0  0  0  0  0  0  0  0  0  0  0
   42.6128    5.6803   11.6229 H   0  0  0  0  0  0  0  0  0  0  0  0
   48.0925    4.3373   14.7117 H   0  0  0  0  0  0  0  0  0  0  0  0
   47.7002    3.2717   13.3398 H   0  0  0  0  0  0  0  0  0  0  0  0
   46.6134    3.3481   14.7431 H   0  0  0  0  0  0  0  0  0  0  0  0
   49.4591    9.0534   11.2330 H   0  0  0  0  0  0  0  0  0  0  0  0
   45.4329    6.3089   10.9814 H   0  0  0  0  0  0  0  0  0  0  0  0
   46.9890    7.2724   14.3863 H   0  0  0  0  0  0  0  0  0  0  0  0
   44.6506    8.3944   11.7215 H   0  0  0  0  0  0  0  0  0  0  0  0
   44.6204    7.7996   13.3759 H   0  0  0  0  0  0  0  0  0  0  0  0
   46.6492    9.1591   13.0327 H   0  0  0  0  0  0  0  0  0  0  0  0
   47.1074    8.2280   11.6125 H   0  0  0  0  0  0  0  0  0  0  0  0
   45.3090    5.3571   13.7559 H   0  0  0  0  0  0  0  0  0  0  0  0
   45.7653    4.4206   12.3379 H   0  0  0  0  0  0  0  0  0  0  0  0
   47.7672    5.1857   13.6449 H   0  0  0  0  0  0  0  0  0  0  0  0
   47.7928    5.7799   11.9884 H   0  0  0  0  0  0  0  0  0  0  0  0
  2  1  2  0
  3  1  1  0
  4  5  1  0
  5  3  1  0
  6  2  1  0
  7  1  1  0
  8  2  1  0
  9  7  2  0
 10  8  1  0
 11  5  2  0
 12  6  2  0
 13 10  1  0
 14 13  2  0
 15  3  1  0
 16  4  1  0
 17 13  1  0
  6  4  1  0
  8  9  1  0
 19 18  2  0
 20 18  1  0
 21 22  1  0
 22 20  1  0
 23 19  1  0
 24 18  1  0
 25 19  1  0
 26 24  2  0
 27 25  1  0
 28 22  2  0
 29 23  2  0
 30 27  1  0
 31 30  2  0
 32 20  1  0
 33 21  1  0
 34 30  1  0
 23 21  1  0
 25 26  1  0
 36 40  1  0
 37 35  1  0
 38 37  1  0
 39 35  1  0
 40 39  1  0
 38 36  1  0
  9 41  1  0
 10 42  1  0
 10 43  1  0
 15 44  1  0
 15 45  1  0
 15 46  1  0
 16 47  1  0
 16 48  1  0
 16 49  1  0
 17 50  1  0
 26 51  1  0
 27 52  1  0
 27 53  1  0
 32 54  1  0
 32 55  1  0
 32 56  1  0
 33 57  1  0
 33 58  1  0
 33 59  1  0
 34 60  1  0
 35 61  1  0
 36 62  1  0
 37 63  1  0
 37 64  1  0
 38 65  1  0
 38 66  1  0
 39 67  1  0
 39 68  1  0
 40 69  1  0
 40 70  1  0
M  END
> <Uni-Dock RESULT> 
ENERGY=   -5.878  LOWER_BOUND=    1.131  UPPER_BOUND=    5.158
INTER + INTRA:          -5.878
INTER:                  -5.878
INTRA:                   0.000
UNBOUND:                 0.000

$$$$

     RDKit          3D

 70 72  0  0  0  0  0  0  0  0999 V2000
   45.0426    6.8882   12.3488 C   0  0  0  0  0  0  0  0  0  0  0  0
   46.2136    7.2005   12.9685 C   0  0  0  0  0  0  0  0  0  0  0  0
   44.5967    5.5922   12.2541 N   0  0  0  0  0  0  0  0  0  0  0  0
   46.5813    4.9255   13.4179 N   0  0  0  0  0  0  0  0  0  0  0  0
   45.3668    4.5631   12.7977 C   0  0  0  0  0  0  0  0  0  0  0  0
   47.0647    6.2286   13.5600 C   0  0  0  0  0  0  0  0  0  0  0  0
   44.4110    7.9954   11.8685 N   0  0  0  0  0  0  0  0  0  0  0  0
   46.3245    8.5581   12.8550 N   0  0  0  0  0  0  0  0  0  0  0  0
   45.2129    8.9939   12.1809 C   0  0  0  0  0  0  0  0  0  0  0  0
   47.3855    9.3988   13.3774 C   0  0  0  0  0  0  0  0  0  0  0  0
   45.0078    3.3828   12.7478 O   0  0  0  0  0  0  0  0  0  0  0  0
   48.1042    6.5295   14.1396 O   0  0  0  0  0  0  0  0  0  0  0  0
   48.6365    9.3306   12.5451 C   0  0  0  0  0  0  0  0  0  0  0  0
   48.7923    8.7755   11.4708 O   0  0  0  0  0  0  0  0  0  0  0  0
   43.3391    5.3028   11.5902 C   0  0  0  0  0  0  0  0  0  0  0  0
   47.3675    3.8411   13.9724 C   0  0  0  0  0  0  0  0  0  0  0  0
   49.6539   10.0231   13.1036 O   0  0  0  0  0  0  0  0  0  0  0  0
   47.0203    5.8225   13.3664 C   0  0  0  0  0  0  0  0  0  0  0  0
   46.7760    6.8272   12.4799 C   0  0  0  0  0  0  0  0  0  0  0  0
   46.0608    4.8963   13.6954 N   0  0  0  0  0  0  0  0  0  0  0  0
   44.5831    6.0351   12.1942 N   0  0  0  0  0  0  0  0  0  0  0  0
   44.7963    4.9862   13.1132 C   0  0  0  0  0  0  0  0  0  0  0  0
   45.5232    7.0038   11.8315 C   0  0  0  0  0  0  0  0  0  0  0  0
   48.2904    5.8716   13.8558 N   0  0  0  0  0  0  0  0  0  0  0  0
   47.9407    7.5411   12.4249 N   0  0  0  0  0  0  0  0  0  0  0  0
   48.8271    6.9240   13.2714 C   0  0  0  0  0  0  0  0  0  0  0  0
   48.2267    8.7072   11.6087 C   0  0  0  0  0  0  0  0  0  0  0  0
   43.8948    4.1869   13.3834 O   0  0  0  0  0  0  0  0  0  0  0  0
   45.3115    7.9159   11.0376 O   0  0  0  0  0  0  0  0  0  0  0  0
   47.8400   10.0158   12.2434 C   0  0  0  0  0  0  0  0  0  0  0  0
   48.2155   11.1136   11.8535 O   0  0  0  0  0  0  0  0  0  0  0  0
   46.3600    3.8491   14.6550 C   0  0  0  0  0  0  0  0  0  0  0  0
   43.2622    6.1091   11.6009 C   0  0  0  0  0  0  0  0  0  0  0  0
   47.0107    9.9322   13.2996 O   0  0  0  0  0  0  0  0  0  0  0  0
   46.5936    5.6216   13.6799 N   0  0  0  0  0  0  0  0  0  0  0  0
   46.1247    7.8814   11.8077 N   0  0  0  0  0  0  0  0  0  0  0  0
   47.6969    6.3143   12.9915 C   0  0  0  0  0  0  0  0  0  0  0  0
   47.3521    7.7713   12.6148 C   0  0  0  0  0  0  0  0  0  0  0  0
   45.3673    5.7301   12.8702 C   0  0  0  0  0  0  0  0  0  0  0  0
   45.0213    7.1873   12.4949 C   0  0  0  0  0  0  0  0  0  0  0  0
   45.0361   10.0369   11.9480 H   0  0  0  0  0  0  0  0  0  0  0  0
   47.0226   10.4314   13.3899 H   0  0  0  0  0  0  0  0  0  0  0  0
   47.5911    9.0759   14.4018 H   0  0  0  0  0  0  0  0  0  0  0  0
   43.3888    5.6590   10.5561 H   0  0  0  0  0  0  0  0  0  0  0  0
   43.1204    4.2317   11.5788 H   0  0  0  0  0  0  0  0  0  0  0  0
   42.5314    5.8192   12.1186 H   0  0  0  0  0  0  0  0  0  0  0  0
   46.7877    3.3541   14.7631 H   0  0  0  0  0  0  0  0  0  0  0  0
   48.3187    4.1823   14.3882 H   0  0  0  0  0  0  0  0  0  0  0  0
   47.5686    3.1048   13.1872 H   0  0  0  0  0  0  0  0  0  0  0  0
   50.4073    9.8825   12.4894 H   0  0  0  0  0  0  0  0  0  0  0  0
   49.8399    7.2771   13.4241 H   0  0  0  0  0  0  0  0  0  0  0  0
   49.3077    8.7145   11.4287 H   0  0  0  0  0  0  0  0  0  0  0  0
   47.7113    8.5955   10.6509 H   0  0  0  0  0  0  0  0  0  0  0  0
   45.5123    3.1728   14.7981 H   0  0  0  0  0  0  0  0  0  0  0  0
   46.6075    4.3084   15.6186 H   0  0  0  0  0  0  0  0  0  0  0  0
   47.2149    3.2663   14.2955 H   0  0  0  0  0  0  0  0  0  0  0  0
   43.1765    6.9132   10.8657 H   0  0  0  0  0  0  0  0  0  0  0  0
   42.5269    6.2735   12.3955 H   0  0  0  0  0  0  0  0  0  0  0  0
   43.0354    5.1562   11.1112 H   0  0  0  0  0  0  0  0  0  0  0  0
   46.8341   10.8630   13.5550 H   0  0  0  0  0  0  0  0  0  0  0  0
   46.4261    6.1064   14.5624 H   0  0  0  0  0  0  0  0  0  0  0  0
   46.2907    7.4003   10.9222 H   0  0  0  0  0  0  0  0  0  0  0  0
   48.5767    6.3077   13.6442 H   0  0  0  0  0  0  0  0  0  0  0  0
   47.9695    5.7496   12.0912 H   0  0  0  0  0  0  0  0  0  0  0  0
   48.1843    8.2061   12.0502 H   0  0  0  0  0  0  0  0  0  0  0  0
   47.2396    8.3749   13.5244 H   0  0  0  0  0  0  0  0  0  0  0  0
   45.4831    5.1287   11.9597 H   0  0  0  0  0  0  0  0  0  0  0  0
   44.5345    5.2929   13.4325 H   0  0  0  0  0  0  0  0  0  0  0  0
   44.1411    7.1950   11.8424 H   0  0  0  0  0  0  0  0  0  0  0  0
   44.7503    7.7491   13.3979 H   0  0  0  0  0  0  0  0  0  0  0  0
  2  1  2  0
  3  1  1  0
  4  5  1  0
  5  3  1  0
  6  2  1  0
  7  1  1  0
  8  2  1  0
  9  7  2  0
 10  8  1  0
 11  5  2  0
 12  6  2  0
 13 10  1  0
 14 13  2  0
 15  3  1  0
 16  4  1  0
 17 13  1  0
  6  4  1  0
  8  9  1  0
 19 18  2  0
 20 18  1  0
 21 22  1  0
 22 20  1  0
 23 19  1  0
 24 18  1  0
 25 19  1  0
 26 24  2  0
 27 25  1  0
 28 22  2  0
 29 23  2  0
 30 27  1  0
 31 30  2  0
 32 20  1  0
 33 21  1  0
 34 30  1  0
 23 21  1  0
 25 26  1  0
 36 40  1  0
 37 35  1  0
 38 37  1  0
 39 35  1  0
 40 39  1  0
 38 36  1  0
  9 41  1  0
 10 42  1  0
 10 43  1  0
 15 44  1  0
 15 45  1  0
 15 46  1  0
 16 47  1  0
 16 48  1  0
 16 49  1  0
 17 50  1  0
 26 51  1  0
 27 52  1  0
 27 53  1  0
 32 54  1  0
 32 55  1  0
 32 56  1  0
 33 57  1  0
 33 58  1  0
 33 59  1  0
 34 60  1  0
 35 61  1  0
 36 62  1  0
 37 63  1  0
 37 64  1  0
 38 65  1  0
 38 66  1  0
 39 67  1  0
 39 68  1  0
 40 69  1  0
 40 70  1  0
M  END
> <Uni-Dock RESULT> 
ENERGY=   -5.658  LOWER_BOUND=    1.199  UPPER_BOUND=    4.509
INTER + INTRA:          -5.658
INTER:                  -5.658
INTRA:                   0.000
UNBOUND:                 0.000

$$$$

     RDKit          3D

 70 72  0  0  0  0  0  0  0  0999 V2000
   45.5018    5.7062   12.6327 C   0  0  0  0  0  0  0  0  0  0  0  0
   46.2831    6.8123   12.4958 C   0  0  0  0  0  0  0  0  0  0  0  0
   44.1551    5.7329   12.3627 N   0  0  0  0  0  0  0  0  0  0  0  0
   44.4052    8.0552   11.8314 N   0  0  0  0  0  0  0  0  0  0  0  0
   43.5652    6.9273   11.9462 C   0  0  0  0  0  0  0  0  0  0  0  0
   45.7815    8.0720   12.0709 C   0  0  0  0  0  0  0  0  0  0  0  0
   46.2195    4.6258   13.0490 N   0  0  0  0  0  0  0  0  0  0  0  0
   47.5376    6.4082   12.8581 N   0  0  0  0  0  0  0  0  0  0  0  0
   47.4492    5.0799   13.1864 C   0  0  0  0  0  0  0  0  0  0  0  0
   48.7500    7.2055   12.8608 C   0  0  0  0  0  0  0  0  0  0  0  0
   42.3615    7.0035   11.6822 O   0  0  0  0  0  0  0  0  0  0  0  0
   46.5046    9.0533   11.9258 O   0  0  0  0  0  0  0  0  0  0  0  0
   48.8226    8.1386   14.0382 C   0  0  0  0  0  0  0  0  0  0  0  0
   48.0731    8.1932   14.9984 O   0  0  0  0  0  0  0  0  0  0  0  0
   43.3589    4.5293   12.5156 C   0  0  0  0  0  0  0  0  0  0  0  0
   43.7717    9.2862   11.4011 C   0  0  0  0  0  0  0  0  0  0  0  0
   49.8953    8.9577   13.9689 O   0  0  0  0  0  0  0  0  0  0  0  0
   45.3436    8.1235   12.1703 C   0  0  0  0  0  0  0  0  0  0  0  0
   45.9696    7.3217   13.0759 C   0  0  0  0  0  0  0  0  0  0  0  0
   44.3038    7.6692   11.3961 N   0  0  0  0  0  0  0  0  0  0  0  0
   44.5443    5.5504   12.4856 N   0  0  0  0  0  0  0  0  0  0  0  0
   43.8771    6.3480   11.5323 C   0  0  0  0  0  0  0  0  0  0  0  0
   45.6089    5.9637   13.2915 C   0  0  0  0  0  0  0  0  0  0  0  0
   45.8758    9.3770   12.1448 N   0  0  0  0  0  0  0  0  0  0  0  0
   46.9431    8.1063   13.6292 N   0  0  0  0  0  0  0  0  0  0  0  0
   46.8456    9.3401   13.0365 C   0  0  0  0  0  0  0  0  0  0  0  0
   47.8864    7.7438   14.6715 C   0  0  0  0  0  0  0  0  0  0  0  0
   42.9555    5.8863   10.8526 O   0  0  0  0  0  0  0  0  0  0  0  0
   46.1830    5.2478   14.1070 O   0  0  0  0  0  0  0  0  0  0  0  0
   49.1509    7.1037   14.1655 C   0  0  0  0  0  0  0  0  0  0  0  0
   50.1680    6.9566   14.8302 O   0  0  0  0  0  0  0  0  0  0  0  0
   43.6731    8.5542   10.4338 C   0  0  0  0  0  0  0  0  0  0  0  0
   44.0840    4.1812   12.6108 C   0  0  0  0  0  0  0  0  0  0  0  0
   49.1159    6.6615   12.8952 O   0  0  0  0  0  0  0  0  0  0  0  0
   45.1196    7.8913   11.7049 N   0  0  0  0  0  0  0  0  0  0  0  0
   46.5825    6.1922   13.6554 N   0  0  0  0  0  0  0  0  0  0  0  0
   45.8904    8.4631   12.8228 C   0  0  0  0  0  0  0  0  0  0  0  0
   47.0389    7.5455   13.2947 C   0  0  0  0  0  0  0  0  0  0  0  0
   44.6613    6.5388   12.0681 C   0  0  0  0  0  0  0  0  0  0  0  0
   45.8101    5.6205   12.5383 C   0  0  0  0  0  0  0  0  0  0  0  0
   48.3009    4.4958   13.5132 H   0  0  0  0  0  0  0  0  0  0  0  0
   49.6036    6.5213   12.8961 H   0  0  0  0  0  0  0  0  0  0  0  0
   48.7782    7.7700   11.9246 H   0  0  0  0  0  0  0  0  0  0  0  0
   43.4310    4.1804   13.5509 H   0  0  0  0  0  0  0  0  0  0  0  0
   42.3056    4.7038   12.2800 H   0  0  0  0  0  0  0  0  0  0  0  0
   43.7456    3.7594   11.8403 H   0  0  0  0  0  0  0  0  0  0  0  0
   43.3655    9.1402   10.3950 H   0  0  0  0  0  0  0  0  0  0  0  0
   44.4642   10.1313   11.3856 H   0  0  0  0  0  0  0  0  0  0  0  0
   42.9435    9.5199   12.0783 H   0  0  0  0  0  0  0  0  0  0  0  0
   49.8176    9.5251   14.7668 H   0  0  0  0  0  0  0  0  0  0  0  0
   47.4977   10.1682   13.2877 H   0  0  0  0  0  0  0  0  0  0  0  0
   48.1514    8.6674   15.1985 H   0  0  0  0  0  0  0  0  0  0  0  0
   47.3869    7.0695   15.3726 H   0  0  0  0  0  0  0  0  0  0  0  0
   42.8470    8.0647    9.9101 H   0  0  0  0  0  0  0  0  0  0  0  0
   44.4191    8.8674    9.6949 H   0  0  0  0  0  0  0  0  0  0  0  0
   43.2828    9.4337   10.9571 H   0  0  0  0  0  0  0  0  0  0  0  0
   44.6095    3.6317   13.3960 H   0  0  0  0  0  0  0  0  0  0  0  0
   44.2360    3.6687   11.6551 H   0  0  0  0  0  0  0  0  0  0  0  0
   43.0124    4.1825   12.8362 H   0  0  0  0  0  0  0  0  0  0  0  0
   49.9919    6.2438   12.7501 H   0  0  0  0  0  0  0  0  0  0  0  0
   45.7507    7.8008   10.9077 H   0  0  0  0  0  0  0  0  0  0  0  0
   45.9536    6.2792   14.4555 H   0  0  0  0  0  0  0  0  0  0  0  0
   46.3037    9.4271   12.5071 H   0  0  0  0  0  0  0  0  0  0  0  0
   45.2106    8.6713   13.6584 H   0  0  0  0  0  0  0  0  0  0  0  0
   47.5276    7.9957   14.1659 H   0  0  0  0  0  0  0  0  0  0  0  0
   47.8023    7.4702   12.5099 H   0  0  0  0  0  0  0  0  0  0  0  0
   43.9007    6.6161   12.8553 H   0  0  0  0  0  0  0  0  0  0  0  0
   44.1698    6.0884   11.1984 H   0  0  0  0  0  0  0  0  0  0  0  0
   45.3977    4.6556   12.8540 H   0  0  0  0  0  0  0  0  0  0  0  0
   46.4884    5.4154   11.7002 H   0  0  0  0  0  0  0  0  0  0  0  0
  2  1  2  0
  3  1  1  0
  4  5  1  0
  5  3  1  0
  6  2  1  0
  7  1  1  0
  8  2  1  0
  9  7  2  0
 10  8  1  0
 11  5  2  0
 12  6  2  0
 13 10  1  0
 14 13  2  0
 15  3  1  0
 16  4  1  0
 17 13  1  0
  6  4  1  0
  8  9  1  0
 19 18  2  0
 20 18  1  0
 21 22  1  0
 22 20  1  0
 23 19  1  0
 24 18  1  0
 25 19  1  0
 26 24  2  0
 27 25  1  0
 28 22  2  0
 29 23  2  0
 30 27  1  0
 31 30  2  0
 32 20  1  0
 33 21  1  0
 34 30  1  0
 23 21  1  0
 25 26  1  0
 36 40  1  0
 37 35  1  0
 38 37  1  0
 39 35  1  0
 40 39  1  0
 38 36  1  0
  9 41  1  0
 10 42  1  0
 10 43  1  0
 15 44  1  0
 15 45  1  0
 15 46  1  0
 16 47  1  0
 16 48  1  0
 16 49  1  0
 17 50  1  0
 26 51  1  0
 27 52  1  0
 27 53  1  0
 32 54  1  0
 32 55  1  0
 32 56  1  0
 33 57  1  0
 33 58  1  0
 33 59  1  0
 34 60  1  0
 35 61  1  0
 36 62  1  0
 37 63  1  0
 37 64  1  0
 38 65  1  0
 38 66  1  0
 39 67  1  0
 39 68  1  0
 40 69  1  0
 40 70  1  0
M  END
> <Uni-Dock RESULT> 
ENERGY=   -5.201  LOWER_BOUND=    1.407  UPPER_BOUND=    4.743
INTER + INTRA:          -5.201
INTER:                  -5.201
INTRA:                   0.000
UNBOUND:                 0.000

$$$$

     RDKit          3D

 70 72  0  0  0  0  0  0  0  0999 V2000
   48.9032    6.7651   15.9982 C   0  0  0  0  0  0  0  0  0  0  0  0
   48.2435    5.7851   16.6744 C   0  0  0  0  0  0  0  0  0  0  0  0
   48.8617    6.8534   14.6279 N   0  0  0  0  0  0  0  0  0  0  0  0
   47.4759    4.8996   14.6399 N   0  0  0  0  0  0  0  0  0  0  0  0
   48.1328    5.9086   13.9041 C   0  0  0  0  0  0  0  0  0  0  0  0
   47.4687    4.7821   16.0320 C   0  0  0  0  0  0  0  0  0  0  0  0
   49.5692    7.6034   16.8405 N   0  0  0  0  0  0  0  0  0  0  0  0
   48.5240    6.0125   17.9927 N   0  0  0  0  0  0  0  0  0  0  0  0
   49.3302    7.1204   18.0434 C   0  0  0  0  0  0  0  0  0  0  0  0
   48.0374    5.2625   19.1357 C   0  0  0  0  0  0  0  0  0  0  0  0
   48.0556    5.9475   12.6724 O   0  0  0  0  0  0  0  0  0  0  0  0
   46.8571    3.9214   16.6580 O   0  0  0  0  0  0  0  0  0  0  0  0
   48.7579    3.9544   19.3146 C   0  0  0  0  0  0  0  0  0  0  0  0
   49.7363    3.5490   18.7104 O   0  0  0  0  0  0  0  0  0  0  0  0
   49.5744    7.9178   13.9460 C   0  0  0  0  0  0  0  0  0  0  0  0
   46.7279    3.9264   13.8685 C   0  0  0  0  0  0  0  0  0  0  0  0
   48.2197    3.2124   20.3078 O   0  0  0  0  0  0  0  0  0  0  0  0
   47.6106    4.7008   15.6106 C   0  0  0  0  0  0  0  0  0  0  0  0
   48.6360    5.0976   16.4145 C   0  0  0  0  0  0  0  0  0  0  0  0
   47.2367    5.4218   14.5029 N   0  0  0  0  0  0  0  0  0  0  0  0
   48.9794    6.9729   15.0424 N   0  0  0  0  0  0  0  0  0  0  0  0
   47.9186    6.5983   14.1912 C   0  0  0  0  0  0  0  0  0  0  0  0
   49.3937    6.2778   16.1820 C   0  0  0  0  0  0  0  0  0  0  0  0
   47.0382    3.5445   16.0471 N   0  0  0  0  0  0  0  0  0  0  0  0
   48.6962    4.1542   17.4023 N   0  0  0  0  0  0  0  0  0  0  0  0
   47.7127    3.2349   17.1362 C   0  0  0  0  0  0  0  0  0  0  0  0
   49.6333    4.0899   18.5093 C   0  0  0  0  0  0  0  0  0  0  0  0
   47.6149    7.2897   13.2143 O   0  0  0  0  0  0  0  0  0  0  0  0
   50.3131    6.6294   16.9156 O   0  0  0  0  0  0  0  0  0  0  0  0
   49.2049    4.8626   19.7275 C   0  0  0  0  0  0  0  0  0  0  0  0
   49.7050    4.7401   20.8380 O   0  0  0  0  0  0  0  0  0  0  0  0
   46.1294    4.9693   13.6806 C   0  0  0  0  0  0  0  0  0  0  0  0
   49.6744    8.1983   14.6993 C   0  0  0  0  0  0  0  0  0  0  0  0
   48.2117    5.7505   19.5388 O   0  0  0  0  0  0  0  0  0  0  0  0
   47.3065    5.0929   15.3378 N   0  0  0  0  0  0  0  0  0  0  0  0
   49.4863    5.9209   17.1803 N   0  0  0  0  0  0  0  0  0  0  0  0
   47.9946    4.1360   16.2220 C   0  0  0  0  0  0  0  0  0  0  0  0
   48.5823    4.7988   17.4865 C   0  0  0  0  0  0  0  0  0  0  0  0
   48.2128    6.2133   15.0301 C   0  0  0  0  0  0  0  0  0  0  0  0
   48.7992    6.8774   16.2947 C   0  0  0  0  0  0  0  0  0  0  0  0
   49.7092    7.5314   18.9712 H   0  0  0  0  0  0  0  0  0  0  0  0
   48.1864    5.8758   20.0299 H   0  0  0  0  0  0  0  0  0  0  0  0
   46.9672    5.0914   18.9893 H   0  0  0  0  0  0  0  0  0  0  0  0
   50.6394    7.8509   14.1911 H   0  0  0  0  0  0  0  0  0  0  0  0
   49.4628    7.8537   12.8603 H   0  0  0  0  0  0  0  0  0  0  0  0
   49.1795    8.8818   14.2821 H   0  0  0  0  0  0  0  0  0  0  0  0
   45.9262    4.4435   13.3315 H   0  0  0  0  0  0  0  0  0  0  0  0
   46.2901    3.1433   14.4923 H   0  0  0  0  0  0  0  0  0  0  0  0
   47.3935    3.4621   13.1333 H   0  0  0  0  0  0  0  0  0  0  0  0
   48.7523    2.3872   20.3082 H   0  0  0  0  0  0  0  0  0  0  0  0
   47.5319    2.3677   17.7600 H   0  0  0  0  0  0  0  0  0  0  0  0
   49.7314    3.0337   18.7845 H   0  0  0  0  0  0  0  0  0  0  0  0
   50.6043    4.4551   18.1637 H   0  0  0  0  0  0  0  0  0  0  0  0
   45.9634    5.6268   12.8225 H   0  0  0  0  0  0  0  0  0  0  0  0
   45.2180    4.9508   14.2885 H   0  0  0  0  0  0  0  0  0  0  0  0
   46.3452    3.9608   13.3114 H   0  0  0  0  0  0  0  0  0  0  0  0
   50.5122    8.4076   15.3691 H   0  0  0  0  0  0  0  0  0  0  0  0
   48.9652    9.0313   14.7455 H   0  0  0  0  0  0  0  0  0  0  0  0
   50.0516    8.1214   13.6741 H   0  0  0  0  0  0  0  0  0  0  0  0
   48.0934    6.1845   20.4108 H   0  0  0  0  0  0  0  0  0  0  0  0
   46.5095    5.4713   15.8513 H   0  0  0  0  0  0  0  0  0  0  0  0
   50.2869    5.5446   16.6696 H   0  0  0  0  0  0  0  0  0  0  0  0
   47.2828    3.3581   16.5186 H   0  0  0  0  0  0  0  0  0  0  0  0
   48.7910    3.6345   15.6580 H   0  0  0  0  0  0  0  0  0  0  0  0
   49.1348    4.0499   18.0646 H   0  0  0  0  0  0  0  0  0  0  0  0
   47.7699    5.1574   18.1313 H   0  0  0  0  0  0  0  0  0  0  0  0
   49.0262    5.8520   14.3882 H   0  0  0  0  0  0  0  0  0  0  0  0
   47.6623    6.9620   14.4494 H   0  0  0  0  0  0  0  0  0  0  0  0
   49.5112    7.6561   15.9990 H   0  0  0  0  0  0  0  0  0  0  0  0
   47.9997    7.3770   16.8566 H   0  0  0  0  0  0  0  0  0  0  0  0
  2  1  2  0
  3  1  1  0
  4  5  1  0
  5  3  1  0
  6  2  1  0
  7  1  1  0
  8  2  1  0
  9  7  2  0
 10  8  1  0
 11  5  2  0
 12  6  2  0
 13 10  1  0
 14 13  2  0
 15  3  1  0
 16  4  1  0
 17 13  1  0
  6  4  1  0
  8  9  1  0
 19 18  2  0
 20 18  1  0
 21 22  1  0
 22 20  1  0
 23 19  1  0
 24 18  1  0
 25 19  1  0
 26 24  2  0
 27 25  1  0
 28 22  2  0
 29 23  2  0
 30 27  1  0
 31 30  2  0
 32 20  1  0
 33 21  1  0
 34 30  1  0
 23 21  1  0
 25 26  1  0
 36 40  1  0
 37 35  1  0
 38 37  1  0
 39 35  1  0
 40 39  1  0
 38 36  1  0
  9 41  1  0
 10 42  1  0
 10 43  1  0
 15 44  1  0
 15 45  1  0
 15 46  1  0
 16 47  1  0
 16 48  1  0
 16 49  1  0
 17 50  1  0
 26 51  1  0
 27 52  1  0
 27 53  1  0
 32 54  1  0
 32 55  1  0
 32 56  1  0
 33 57  1  0
 33 58  1  0
 33 59  1  0
 34 60  1  0
 35 61  1  0
 36 62  1  0
 37 63  1  0
 37 64  1  0
 38 65  1  0
 38 66  1  0
 39 67  1  0
 39 68  1  0
 40 69  1  0
 40 70  1  0
M  END
> <Uni-Dock RESULT> 
ENERGY=   -5.118  LOWER_BOUND=    3.661  UPPER_BOUND=    6.070
INTER + INTRA:          -5.118
INTER:                  -5.118
INTRA:                   0.000
UNBOUND:                 0.000

$$$$

     RDKit          3D

 70 72  0  0  0  0  0  0  0  0999 V2000
   45.1404    9.5956   11.7827 C   0  0  0  0  0  0  0  0  0  0  0  0
   46.4840    9.4377   11.9331 C   0  0  0  0  0  0  0  0  0  0  0  0
   44.5670   10.8375   11.6555 N   0  0  0  0  0  0  0  0  0  0  0  0
   46.7644   11.7678   11.8641 N   0  0  0  0  0  0  0  0  0  0  0  0
   45.3790   11.9720   11.6911 C   0  0  0  0  0  0  0  0  0  0  0  0
   47.3960   10.5265   11.9737 C   0  0  0  0  0  0  0  0  0  0  0  0
   44.4866    8.4006   11.7715 N   0  0  0  0  0  0  0  0  0  0  0  0
   46.6736    8.0881   12.0367 N   0  0  0  0  0  0  0  0  0  0  0  0
   45.4377    7.5029   11.9357 C   0  0  0  0  0  0  0  0  0  0  0  0
   47.9360    7.3878   12.1834 C   0  0  0  0  0  0  0  0  0  0  0  0
   44.9158   13.1104   11.5725 O   0  0  0  0  0  0  0  0  0  0  0  0
   48.6082   10.3658   12.0822 O   0  0  0  0  0  0  0  0  0  0  0  0
   48.4791    7.4674   13.5838 C   0  0  0  0  0  0  0  0  0  0  0  0
   47.9328    7.9219   14.5746 O   0  0  0  0  0  0  0  0  0  0  0  0
   43.1305   10.9617   11.4907 C   0  0  0  0  0  0  0  0  0  0  0  0
   47.5891   12.9595   11.9022 C   0  0  0  0  0  0  0  0  0  0  0  0
   49.7084    6.9145   13.6817 O   0  0  0  0  0  0  0  0  0  0  0  0
   47.2016   10.9064   12.1227 C   0  0  0  0  0  0  0  0  0  0  0  0
   46.6223    9.8019   12.6698 C   0  0  0  0  0  0  0  0  0  0  0  0
   46.4927   11.7849   11.3401 N   0  0  0  0  0  0  0  0  0  0  0  0
   44.5754   10.3911   11.6795 N   0  0  0  0  0  0  0  0  0  0  0  0
   45.1423   11.5404   11.0897 C   0  0  0  0  0  0  0  0  0  0  0  0
   45.2545    9.4656   12.4769 C   0  0  0  0  0  0  0  0  0  0  0  0
   48.5209   11.0041   12.4469 N   0  0  0  0  0  0  0  0  0  0  0  0
   47.6280    9.1772   13.3538 N   0  0  0  0  0  0  0  0  0  0  0  0
   48.7555    9.9424   13.1918 C   0  0  0  0  0  0  0  0  0  0  0  0
   47.5407    7.9602   14.1405 C   0  0  0  0  0  0  0  0  0  0  0  0
   44.4628   12.2916   10.3835 O   0  0  0  0  0  0  0  0  0  0  0  0
   44.7429    8.4648   12.9706 O   0  0  0  0  0  0  0  0  0  0  0  0
   47.7407    6.6964   13.3483 C   0  0  0  0  0  0  0  0  0  0  0  0
   47.9591    5.5969   13.8398 O   0  0  0  0  0  0  0  0  0  0  0  0
   47.1530   12.9431   10.7661 C   0  0  0  0  0  0  0  0  0  0  0  0
   43.1707   10.1570   11.4066 C   0  0  0  0  0  0  0  0  0  0  0  0
   47.6502    6.8222   12.0118 O   0  0  0  0  0  0  0  0  0  0  0  0
   47.0061   11.1046   11.6295 N   0  0  0  0  0  0  0  0  0  0  0  0
   45.8376    8.6387   12.8065 N   0  0  0  0  0  0  0  0  0  0  0  0
   47.6014   10.4326   12.7978 C   0  0  0  0  0  0  0  0  0  0  0  0
   47.2823    8.9230   12.8523 C   0  0  0  0  0  0  0  0  0  0  0  0
   45.5607   10.8217   11.5866 C   0  0  0  0  0  0  0  0  0  0  0  0
   45.2415    9.3119   11.6392 C   0  0  0  0  0  0  0  0  0  0  0  0
   45.2874    6.4313   11.9846 H   0  0  0  0  0  0  0  0  0  0  0  0
   47.7710    6.3370   11.9252 H   0  0  0  0  0  0  0  0  0  0  0  0
   48.6436    7.8269   11.4746 H   0  0  0  0  0  0  0  0  0  0  0  0
   42.6299   10.5080   12.3523 H   0  0  0  0  0  0  0  0  0  0  0  0
   42.8167   12.0063   11.4166 H   0  0  0  0  0  0  0  0  0  0  0  0
   42.8316   10.4407   10.5755 H   0  0  0  0  0  0  0  0  0  0  0  0
   47.5037   13.4778   10.9417 H   0  0  0  0  0  0  0  0  0  0  0  0
   48.6416   12.7356   12.0928 H   0  0  0  0  0  0  0  0  0  0  0  0
   47.2212   13.6262   12.6891 H   0  0  0  0  0  0  0  0  0  0  0  0
   49.9597    7.0498   14.6214 H   0  0  0  0  0  0  0  0  0  0  0  0
   49.7111    9.6849   13.6326 H   0  0  0  0  0  0  0  0  0  0  0  0
   48.3224    8.0176   14.9063 H   0  0  0  0  0  0  0  0  0  0  0  0
   46.5654    7.9352   14.6344 H   0  0  0  0  0  0  0  0  0  0  0  0
   46.4604   13.5635   10.1901 H   0  0  0  0  0  0  0  0  0  0  0  0
   47.9545   12.6035   10.1007 H   0  0  0  0  0  0  0  0  0  0  0  0
   47.5779   13.5504   11.5726 H   0  0  0  0  0  0  0  0  0  0  0  0
   42.7822    9.2788   11.9284 H   0  0  0  0  0  0  0  0  0  0  0  0
   43.0389   10.0176   10.3285 H   0  0  0  0  0  0  0  0  0  0  0  0
   42.5944   11.0356   11.7150 H   0  0  0  0  0  0  0  0  0  0  0  0
   47.7622    5.9111   11.6653 H   0  0  0  0  0  0  0  0  0  0  0  0
   47.4261   10.6997   10.7919 H   0  0  0  0  0  0  0  0  0  0  0  0
   45.4152    9.0395   13.6456 H   0  0  0  0  0  0  0  0  0  0  0  0
   48.6875   10.5721   12.7671 H   0  0  0  0  0  0  0  0  0  0  0  0
   47.2475   10.9230   13.7133 H   0  0  0  0  0  0  0  0  0  0  0  0
   47.6952    8.4985   13.7741 H   0  0  0  0  0  0  0  0  0  0  0  0
   47.7767    8.4072   12.0194 H   0  0  0  0  0  0  0  0  0  0  0  0
   45.0687   11.3355   12.4221 H   0  0  0  0  0  0  0  0  0  0  0  0
   45.1458   11.2482   10.6664 H   0  0  0  0  0  0  0  0  0  0  0  0
   44.1552    9.1713   11.6695 H   0  0  0  0  0  0  0  0  0  0  0  0
   45.5978    8.8248   10.7225 H   0  0  0  0  0  0  0  0  0  0  0  0
  2  1  2  0
  3  1  1  0
  4  5  1  0
  5  3  1  0
  6  2  1  0
  7  1  1  0
  8  2  1  0
  9  7  2  0
 10  8  1  0
 11  5  2  0
 12  6  2  0
 13 10  1  0
 14 13  2  0
 15  3  1  0
 16  4  1  0
 17 13  1  0
  6  4  1  0
  8  9  1  0
 19 18  2  0
 20 18  1  0
 21 22  1  0
 22 20  1  0
 23 19  1  0
 24 18  1  0
 25 19  1  0
 26 24  2  0
 27 25  1  0
 28 22  2  0
 29 23  2  0
 30 27  1  0
 31 30  2  0
 32 20  1  0
 33 21  1  0
 34 30  1  0
 23 21  1  0
 25 26  1  0
 36 40  1  0
 37 35  1  0
 38 37  1  0
 39 35  1  0
 40 39  1  0
 38 36  1  0
  9 41  1  0
 10 42  1  0
 10 43  1  0
 15 44  1  0
 15 45  1  0
 15 46  1  0
 16 47  1  0
 16 48  1  0
 16 49  1  0
 17 50  1  0
 26 51  1  0
 27 52  1  0
 27 53  1  0
 32 54  1  0
 32 55  1  0
 32 56  1  0
 33 57  1  0
 33 58  1  0
 33 59  1  0
 34 60  1  0
 35 61  1  0
 36 62  1  0
 37 63  1  0
 37 64  1  0
 38 65  1  0
 38 66  1  0
 39 67  1  0
 39 68  1  0
 40 69  1  0
 40 70  1  0
M  END
> <Uni-Dock RESULT> 
ENERGY=   -4.884  LOWER_BOUND=    2.616  UPPER_BOUND=    4.606
INTER + INTRA:          -4.884
INTER:                  -4.884
INTRA:                   0.000
UNBOUND:                 0.000

$$$$

     RDKit          3D

 70 72  0  0  0  0  0  0  0  0999 V2000
   47.7485    4.6237   15.7772 C   0  0  0  0  0  0  0  0  0  0  0  0
   48.5802    5.2387   16.6620 C   0  0  0  0  0  0  0  0  0  0  0  0
   47.3580    5.2308   14.6083 N   0  0  0  0  0  0  0  0  0  0  0  0
   48.6635    7.1271   15.2694 N   0  0  0  0  0  0  0  0  0  0  0  0
   47.8159    6.5173   14.3203 C   0  0  0  0  0  0  0  0  0  0  0  0
   49.1068    6.5426   16.4583 C   0  0  0  0  0  0  0  0  0  0  0  0
   47.3867    3.3804   16.2001 N   0  0  0  0  0  0  0  0  0  0  0  0
   48.7297    4.3474   17.6874 N   0  0  0  0  0  0  0  0  0  0  0  0
   47.9881    3.2403   17.3646 C   0  0  0  0  0  0  0  0  0  0  0  0
   49.5453    4.5067   18.8770 C   0  0  0  0  0  0  0  0  0  0  0  0
   47.5026    7.1041   13.2802 O   0  0  0  0  0  0  0  0  0  0  0  0
   49.8780    7.0724   17.2530 O   0  0  0  0  0  0  0  0  0  0  0  0
   48.9083    5.4129   19.8945 C   0  0  0  0  0  0  0  0  0  0  0  0
   47.7868    5.8909   19.8743 O   0  0  0  0  0  0  0  0  0  0  0  0
   46.4748    4.5376   13.6889 C   0  0  0  0  0  0  0  0  0  0  0  0
   49.1244    8.4647   14.9526 C   0  0  0  0  0  0  0  0  0  0  0  0
   49.7260    5.6479   20.9446 O   0  0  0  0  0  0  0  0  0  0  0  0
   48.8392    6.7956   16.1963 C   0  0  0  0  0  0  0  0  0  0  0  0
   48.1211    5.8871   16.9132 C   0  0  0  0  0  0  0  0  0  0  0  0
   48.8513    6.7895   14.8228 N   0  0  0  0  0  0  0  0  0  0  0  0
   47.3773    4.9045   14.9135 N   0  0  0  0  0  0  0  0  0  0  0  0
   48.1144    5.8234   14.1373 C   0  0  0  0  0  0  0  0  0  0  0  0
   47.3371    4.8660   16.3101 C   0  0  0  0  0  0  0  0  0  0  0  0
   49.5115    7.6644   17.0015 N   0  0  0  0  0  0  0  0  0  0  0  0
   48.3676    6.1952   18.2223 N   0  0  0  0  0  0  0  0  0  0  0  0
   49.2111    7.2776   18.2251 C   0  0  0  0  0  0  0  0  0  0  0  0
   47.8252    5.5458   19.4020 C   0  0  0  0  0  0  0  0  0  0  0  0
   48.1007    5.7663   12.9039 O   0  0  0  0  0  0  0  0  0  0  0  0
   46.6972    4.0486   16.9654 O   0  0  0  0  0  0  0  0  0  0  0  0
   48.6201    4.3586   19.8745 C   0  0  0  0  0  0  0  0  0  0  0  0
   48.4933    3.8311   20.9718 O   0  0  0  0  0  0  0  0  0  0  0  0
   49.6410    7.7685   14.0983 C   0  0  0  0  0  0  0  0  0  0  0  0
   46.6184    3.9100   14.1804 C   0  0  0  0  0  0  0  0  0  0  0  0
   49.5100    3.8620   18.9960 O   0  0  0  0  0  0  0  0  0  0  0  0
   49.0450    6.6469   15.6901 N   0  0  0  0  0  0  0  0  0  0  0  0
   47.5602    4.6629   17.3306 N   0  0  0  0  0  0  0  0  0  0  0  0
   48.6627    6.9113   17.0883 C   0  0  0  0  0  0  0  0  0  0  0  0
   48.5067    5.6229   17.9245 C   0  0  0  0  0  0  0  0  0  0  0  0
   48.0959    5.6888   15.0965 C   0  0  0  0  0  0  0  0  0  0  0  0
   47.9412    4.3994   15.9317 C   0  0  0  0  0  0  0  0  0  0  0  0
   47.9226    2.3681   18.0036 H   0  0  0  0  0  0  0  0  0  0  0  0
   49.6891    3.5173   19.3224 H   0  0  0  0  0  0  0  0  0  0  0  0
   50.5141    4.9062   18.5642 H   0  0  0  0  0  0  0  0  0  0  0  0
   45.5402    4.2934   14.2044 H   0  0  0  0  0  0  0  0  0  0  0  0
   46.2392    5.1462   12.8117 H   0  0  0  0  0  0  0  0  0  0  0  0
   46.9620    3.6161   13.3548 H   0  0  0  0  0  0  0  0  0  0  0  0
   49.7205    8.4238   14.0352 H   0  0  0  0  0  0  0  0  0  0  0  0
   49.7305    8.8998   15.7510 H   0  0  0  0  0  0  0  0  0  0  0  0
   48.2583    9.1105   14.7741 H   0  0  0  0  0  0  0  0  0  0  0  0
   49.2146    6.2617   21.5159 H   0  0  0  0  0  0  0  0  0  0  0  0
   49.5726    7.7410   19.1353 H   0  0  0  0  0  0  0  0  0  0  0  0
   47.8111    6.2950   20.2016 H   0  0  0  0  0  0  0  0  0  0  0  0
   46.7974    5.2398   19.1883 H   0  0  0  0  0  0  0  0  0  0  0  0
   49.5336    7.6584   13.0154 H   0  0  0  0  0  0  0  0  0  0  0  0
   50.6971    7.6392   14.3601 H   0  0  0  0  0  0  0  0  0  0  0  0
   49.3131    8.7746   14.3813 H   0  0  0  0  0  0  0  0  0  0  0  0
   46.0350    3.2593   14.8366 H   0  0  0  0  0  0  0  0  0  0  0  0
   47.3121    3.2964   13.5962 H   0  0  0  0  0  0  0  0  0  0  0  0
   45.9377    4.4169   13.4884 H   0  0  0  0  0  0  0  0  0  0  0  0
   49.8993    3.0819   19.4460 H   0  0  0  0  0  0  0  0  0  0  0  0
   49.9656    6.2060   15.6988 H   0  0  0  0  0  0  0  0  0  0  0  0
   46.6371    5.1001   17.3241 H   0  0  0  0  0  0  0  0  0  0  0  0
   49.4262    7.5497   17.5460 H   0  0  0  0  0  0  0  0  0  0  0  0
   47.7259    7.4823   17.1027 H   0  0  0  0  0  0  0  0  0  0  0  0
   48.1585    5.8836   18.9301 H   0  0  0  0  0  0  0  0  0  0  0  0
   49.4830    5.1367   18.0459 H   0  0  0  0  0  0  0  0  0  0  0  0
   47.1195    6.1756   14.9791 H   0  0  0  0  0  0  0  0  0  0  0  0
   48.4414    5.4293   14.0895 H   0  0  0  0  0  0  0  0  0  0  0  0
   47.1779    3.7599   15.4744 H   0  0  0  0  0  0  0  0  0  0  0  0
   48.8802    3.8316   15.9158 H   0  0  0  0  0  0  0  0  0  0  0  0
  2  1  2  0
  3  1  1  0
  4  5  1  0
  5  3  1  0
  6  2  1  0
  7  1  1  0
  8  2  1  0
  9  7  2  0
 10  8  1  0
 11  5  2  0
 12  6  2  0
 13 10  1  0
 14 13  2  0
 15  3  1  0
 16  4  1  0
 17 13  1  0
  6  4  1  0
  8  9  1  0
 19 18  2  0
 20 18  1  0
 21 22  1  0
 22 20  1  0
 23 19  1  0
 24 18  1  0
 25 19  1  0
 26 24  2  0
 27 25  1  0
 28 22  2  0
 29 23  2  0
 30 27  1  0
 31 30  2  0
 32 20  1  0
 33 21  1  0
 34 30  1  0
 23 21  1  0
 25 26  1  0
 36 40  1  0
 37 35  1  0
 38 37  1  0
 39 35  1  0
 40 39  1  0
 38 36  1  0
  9 41  1  0
 10 42  1  0
 10 43  1  0
 15 44  1  0
 15 45  1  0
 15 46  1  0
 16 47  1  0
 16 48  1  0
 16 49  1  0
 17 50  1  0
 26 51  1  0
 27 52  1  0
 27 53  1  0
 32 54  1  0
 32 55  1  0
 32 56  1  0
 33 57  1  0
 33 58  1  0
 33 59  1  0
 34 60  1  0
 35 61  1  0
 36 62  1  0
 37 63  1  0
 37 64  1  0
 38 65  1  0
 38 66  1  0
 39 67  1  0
 39 68  1  0
 40 69  1  0
 40 70  1  0
M  END
> <Uni-Dock RESULT> 
ENERGY=   -4.804  LOWER_BOUND=    3.790  UPPER_BOUND=    6.168
INTER + INTRA:          -4.804
INTER:                  -4.804
INTRA:                   0.000
UNBOUND:                 0.000

$$$$
