
     RDKit          3D

 70 72  0  0  0  0  0  0  0  0999 V2000
   44.0555    7.6673   11.7744 C   0  0  0  0  0  0  0  0  0  0  0  0
   44.5797    6.5839   12.4106 C   0  0  0  0  0  0  0  0  0  0  0  0
   44.7071    8.8762   11.7459 N   0  0  0  0  0  0  0  0  0  0  0  0
   46.4531    7.8559   13.0289 N   0  0  0  0  0  0  0  0  0  0  0  0
   45.9460    8.9992   12.3761 C   0  0  0  0  0  0  0  0  0  0  0  0
   45.8299    6.6068   13.0844 C   0  0  0  0  0  0  0  0  0  0  0  0
   42.8531    7.3873   11.2000 N   0  0  0  0  0  0  0  0  0  0  0  0
   43.6703    5.5825   12.2153 N   0  0  0  0  0  0  0  0  0  0  0  0
   42.6440    6.1158   11.4777 C   0  0  0  0  0  0  0  0  0  0  0  0
   43.7301    4.2247   12.7278 C   0  0  0  0  0  0  0  0  0  0  0  0
   46.5800   10.0586   12.3684 O   0  0  0  0  0  0  0  0  0  0  0  0
   46.2920    5.6189   13.6475 O   0  0  0  0  0  0  0  0  0  0  0  0
   44.6602    3.3106   11.9786 C   0  0  0  0  0  0  0  0  0  0  0  0
   44.9129    2.1590   12.3040 O   0  0  0  0  0  0  0  0  0  0  0  0
   44.1169   10.0045   11.0492 C   0  0  0  0  0  0  0  0  0  0  0  0
   47.7425    8.0053   13.6744 C   0  0  0  0  0  0  0  0  0  0  0  0
   45.1954    3.8151   10.8523 O   0  0  0  0  0  0  0  0  0  0  0  0
   46.0942    7.1818   12.9317 C   0  0  0  0  0  0  0  0  0  0  0  0
   44.9677    6.5562   12.4912 C   0  0  0  0  0  0  0  0  0  0  0  0
   46.3355    8.5078   12.6645 N   0  0  0  0  0  0  0  0  0  0  0  0
   44.3075    8.5229   11.3906 N   0  0  0  0  0  0  0  0  0  0  0  0
   45.4385    9.2187   11.8650 C   0  0  0  0  0  0  0  0  0  0  0  0
   43.9750    7.2031   11.7058 C   0  0  0  0  0  0  0  0  0  0  0  0
   46.8901    6.3450   13.6546 N   0  0  0  0  0  0  0  0  0  0  0  0
   45.0621    5.2782   12.9659 N   0  0  0  0  0  0  0  0  0  0  0  0
   46.2470    5.1945   13.6520 C   0  0  0  0  0  0  0  0  0  0  0  0
   44.0836    4.2156   12.8299 C   0  0  0  0  0  0  0  0  0  0  0  0
   45.6205   10.4078   11.5855 O   0  0  0  0  0  0  0  0  0  0  0  0
   42.9377    6.6446   11.3610 O   0  0  0  0  0  0  0  0  0  0  0  0
   44.1378    3.5494   11.4827 C   0  0  0  0  0  0  0  0  0  0  0  0
   44.9463    3.7296   10.5879 O   0  0  0  0  0  0  0  0  0  0  0  0
   47.5418    9.1518   13.1481 C   0  0  0  0  0  0  0  0  0  0  0  0
   43.3789    9.2717   10.5674 C   0  0  0  0  0  0  0  0  0  0  0  0
   43.1604    2.6278   11.3364 O   0  0  0  0  0  0  0  0  0  0  0  0
   44.6927    5.4613   12.7053 N   0  0  0  0  0  0  0  0  0  0  0  0
   45.2626    8.2172   11.7514 N   0  0  0  0  0  0  0  0  0  0  0  0
   43.9891    6.0562   11.5549 C   0  0  0  0  0  0  0  0  0  0  0  0
   43.9321    7.5979   11.6158 C   0  0  0  0  0  0  0  0  0  0  0  0
   46.0231    6.0806   12.8410 C   0  0  0  0  0  0  0  0  0  0  0  0
   45.9660    7.6225   12.9018 C   0  0  0  0  0  0  0  0  0  0  0  0
   41.7761    5.5433   11.1741 H   0  0  0  0  0  0  0  0  0  0  0  0
   44.0388    4.2811   13.7759 H   0  0  0  0  0  0  0  0  0  0  0  0
   42.7191    3.8085   12.6755 H   0  0  0  0  0  0  0  0  0  0  0  0
   44.7317   10.9043   11.1355 H   0  0  0  0  0  0  0  0  0  0  0  0
   43.1310   10.2136   11.4762 H   0  0  0  0  0  0  0  0  0  0  0  0
   44.0127    9.7536    9.9890 H   0  0  0  0  0  0  0  0  0  0  0  0
   48.0588    7.0973   14.1939 H   0  0  0  0  0  0  0  0  0  0  0  0
   47.6890    8.8270   14.3960 H   0  0  0  0  0  0  0  0  0  0  0  0
   48.4897    8.2601   12.9157 H   0  0  0  0  0  0  0  0  0  0  0  0
   45.7788    3.1014   10.5166 H   0  0  0  0  0  0  0  0  0  0  0  0
   46.5892    4.2845   14.1300 H   0  0  0  0  0  0  0  0  0  0  0  0
   43.0933    4.6478   13.0008 H   0  0  0  0  0  0  0  0  0  0  0  0
   44.2894    3.4710   13.6069 H   0  0  0  0  0  0  0  0  0  0  0  0
   48.3601    8.9251   12.4576 H   0  0  0  0  0  0  0  0  0  0  0  0
   47.7929    8.7839   14.1476 H   0  0  0  0  0  0  0  0  0  0  0  0
   47.4146   10.2356   13.2043 H   0  0  0  0  0  0  0  0  0  0  0  0
   42.7190    8.6123    9.9965 H   0  0  0  0  0  0  0  0  0  0  0  0
   43.9231    9.9105    9.8658 H   0  0  0  0  0  0  0  0  0  0  0  0
   42.7713    9.9041   11.2224 H   0  0  0  0  0  0  0  0  0  0  0  0
   43.2841    2.2860   10.4245 H   0  0  0  0  0  0  0  0  0  0  0  0
   44.1589    5.6871   13.5459 H   0  0  0  0  0  0  0  0  0  0  0  0
   45.7974    7.9920   10.9114 H   0  0  0  0  0  0  0  0  0  0  0  0
   42.9693    5.6569   11.5208 H   0  0  0  0  0  0  0  0  0  0  0  0
   44.4816    5.7382   10.6276 H   0  0  0  0  0  0  0  0  0  0  0  0
   43.4571    7.9792   10.7050 H   0  0  0  0  0  0  0  0  0  0  0  0
   43.3007    7.9144   12.4554 H   0  0  0  0  0  0  0  0  0  0  0  0
   46.4982    5.6983   13.7514 H   0  0  0  0  0  0  0  0  0  0  0  0
   46.6545    5.7637   12.0015 H   0  0  0  0  0  0  0  0  0  0  0  0
   46.9857    8.0216   12.9351 H   0  0  0  0  0  0  0  0  0  0  0  0
   45.4723    7.9423   13.8281 H   0  0  0  0  0  0  0  0  0  0  0  0
  2  1  2  0
  3  1  1  0
  4  5  1  0
  5  3  1  0
  6  2  1  0
  7  1  1  0
  8  2  1  0
  9  7  2  0
 10  8  1  0
 11  5  2  0
 12  6  2  0
 13 10  1  0
 14 13  2  0
 15  3  1  0
 16  4  1  0
 17 13  1  0
  6  4  1  0
  8  9  1  0
 19 18  2  0
 20 18  1  0
 21 22  1  0
 22 20  1  0
 23 19  1  0
 24 18  1  0
 25 19  1  0
 26 24  2  0
 27 25  1  0
 28 22  2  0
 29 23  2  0
 30 27  1  0
 31 30  2  0
 32 20  1  0
 33 21  1  0
 34 30  1  0
 23 21  1  0
 25 26  1  0
 36 40  1  0
 37 35  1  0
 38 37  1  0
 39 35  1  0
 40 39  1  0
 38 36  1  0
  9 41  1  0
 10 42  1  0
 10 43  1  0
 15 44  1  0
 15 45  1  0
 15 46  1  0
 16 47  1  0
 16 48  1  0
 16 49  1  0
 17 50  1  0
 26 51  1  0
 27 52  1  0
 27 53  1  0
 32 54  1  0
 32 55  1  0
 32 56  1  0
 33 57  1  0
 33 58  1  0
 33 59  1  0
 34 60  1  0
 35 61  1  0
 36 62  1  0
 37 63  1  0
 37 64  1  0
 38 65  1  0
 38 66  1  0
 39 67  1  0
 39 68  1  0
 40 69  1  0
 40 70  1  0
M  END
> <Uni-Dock RESULT> 
ENERGY=   -7.462  LOWER_BOUND=    0.000  UPPER_BOUND=    0.000
INTER + INTRA:          -7.462
INTER:                  -7.462
INTRA:                   0.000
UNBOUND:                 0.000

$$$$

     RDKit          3D

 70 72  0  0  0  0  0  0  0  0999 V2000
   44.0556    7.6671   11.7744 C   0  0  0  0  0  0  0  0  0  0  0  0
   44.5797    6.5837   12.4106 C   0  0  0  0  0  0  0  0  0  0  0  0
   44.7074    8.8760   11.7458 N   0  0  0  0  0  0  0  0  0  0  0  0
   46.4534    7.8554   13.0288 N   0  0  0  0  0  0  0  0  0  0  0  0
   45.9464    8.9987   12.3760 C   0  0  0  0  0  0  0  0  0  0  0  0
   45.8300    6.6063   13.0843 C   0  0  0  0  0  0  0  0  0  0  0  0
   42.8532    7.3873   11.2001 N   0  0  0  0  0  0  0  0  0  0  0  0
   43.6702    5.5824   12.2153 N   0  0  0  0  0  0  0  0  0  0  0  0
   42.6439    6.1158   11.4778 C   0  0  0  0  0  0  0  0  0  0  0  0
   43.7298    4.2246   12.7279 C   0  0  0  0  0  0  0  0  0  0  0  0
   46.5806   10.0580   12.3682 O   0  0  0  0  0  0  0  0  0  0  0  0
   46.2920    5.6185   13.6474 O   0  0  0  0  0  0  0  0  0  0  0  0
   44.6597    3.3104   11.9787 C   0  0  0  0  0  0  0  0  0  0  0  0
   44.9123    2.1587   12.3040 O   0  0  0  0  0  0  0  0  0  0  0  0
   44.1174   10.0043   11.0492 C   0  0  0  0  0  0  0  0  0  0  0  0
   47.7428    8.0046   13.6741 C   0  0  0  0  0  0  0  0  0  0  0  0
   45.1949    3.8148   10.8523 O   0  0  0  0  0  0  0  0  0  0  0  0
   46.0944    7.1813   12.9316 C   0  0  0  0  0  0  0  0  0  0  0  0
   44.9677    6.5559   12.4911 C   0  0  0  0  0  0  0  0  0  0  0  0
   46.3359    8.5073   12.6643 N   0  0  0  0  0  0  0  0  0  0  0  0
   44.3078    8.5227   11.3906 N   0  0  0  0  0  0  0  0  0  0  0  0
   45.4389    9.2183   11.8649 C   0  0  0  0  0  0  0  0  0  0  0  0
   43.9751    7.2029   11.7058 C   0  0  0  0  0  0  0  0  0  0  0  0
   46.8902    6.3444   13.6544 N   0  0  0  0  0  0  0  0  0  0  0  0
   45.0619    5.2779   12.9659 N   0  0  0  0  0  0  0  0  0  0  0  0
   46.2469    5.1940   13.6520 C   0  0  0  0  0  0  0  0  0  0  0  0
   44.0833    4.2155   12.8300 C   0  0  0  0  0  0  0  0  0  0  0  0
   45.6211   10.4074   11.5854 O   0  0  0  0  0  0  0  0  0  0  0  0
   42.9377    6.6446   11.3611 O   0  0  0  0  0  0  0  0  0  0  0  0
   44.1373    3.5492   11.4828 C   0  0  0  0  0  0  0  0  0  0  0  0
   44.9458    3.7293   10.5880 O   0  0  0  0  0  0  0  0  0  0  0  0
   47.5423    9.1511   13.1479 C   0  0  0  0  0  0  0  0  0  0  0  0
   43.3793    9.2716   10.5674 C   0  0  0  0  0  0  0  0  0  0  0  0
   43.1597    2.6278   11.3366 O   0  0  0  0  0  0  0  0  0  0  0  0
   44.6925    5.4610   12.7053 N   0  0  0  0  0  0  0  0  0  0  0  0
   45.2629    8.2169   11.7513 N   0  0  0  0  0  0  0  0  0  0  0  0
   43.9890    6.0560   11.5549 C   0  0  0  0  0  0  0  0  0  0  0  0
   43.9323    7.5978   11.6159 C   0  0  0  0  0  0  0  0  0  0  0  0
   46.0231    6.0801   12.8409 C   0  0  0  0  0  0  0  0  0  0  0  0
   45.9662    7.6220   12.9018 C   0  0  0  0  0  0  0  0  0  0  0  0
   41.7759    5.5435   11.1743 H   0  0  0  0  0  0  0  0  0  0  0  0
   44.0386    4.2810   13.7760 H   0  0  0  0  0  0  0  0  0  0  0  0
   42.7187    3.8086   12.6757 H   0  0  0  0  0  0  0  0  0  0  0  0
   44.7324   10.9040   11.1354 H   0  0  0  0  0  0  0  0  0  0  0  0
   43.1316   10.2136   11.4762 H   0  0  0  0  0  0  0  0  0  0  0  0
   44.0131    9.7534    9.9890 H   0  0  0  0  0  0  0  0  0  0  0  0
   48.0590    7.0966   14.1937 H   0  0  0  0  0  0  0  0  0  0  0  0
   47.6895    8.8263   14.3958 H   0  0  0  0  0  0  0  0  0  0  0  0
   48.4900    8.2593   12.9154 H   0  0  0  0  0  0  0  0  0  0  0  0
   45.7781    3.1009   10.5166 H   0  0  0  0  0  0  0  0  0  0  0  0
   46.5890    4.2840   14.1299 H   0  0  0  0  0  0  0  0  0  0  0  0
   43.0931    4.6478   13.0010 H   0  0  0  0  0  0  0  0  0  0  0  0
   44.2890    3.4708   13.6069 H   0  0  0  0  0  0  0  0  0  0  0  0
   48.3605    8.9243   12.4573 H   0  0  0  0  0  0  0  0  0  0  0  0
   47.7934    8.7832   14.1473 H   0  0  0  0  0  0  0  0  0  0  0  0
   47.4153   10.2349   13.2041 H   0  0  0  0  0  0  0  0  0  0  0  0
   42.7192    8.6123    9.9966 H   0  0  0  0  0  0  0  0  0  0  0  0
   43.9236    9.9103    9.8658 H   0  0  0  0  0  0  0  0  0  0  0  0
   42.7718    9.9042   11.2225 H   0  0  0  0  0  0  0  0  0  0  0  0
   43.2833    2.2859   10.4247 H   0  0  0  0  0  0  0  0  0  0  0  0
   44.1588    5.6869   13.5460 H   0  0  0  0  0  0  0  0  0  0  0  0
   45.7975    7.9915   10.9113 H   0  0  0  0  0  0  0  0  0  0  0  0
   42.9692    5.6569   11.5209 H   0  0  0  0  0  0  0  0  0  0  0  0
   44.4814    5.7380   10.6276 H   0  0  0  0  0  0  0  0  0  0  0  0
   43.4573    7.9791   10.7051 H   0  0  0  0  0  0  0  0  0  0  0  0
   43.3009    7.9144   12.4555 H   0  0  0  0  0  0  0  0  0  0  0  0
   46.4982    5.6978   13.7513 H   0  0  0  0  0  0  0  0  0  0  0  0
   46.6544    5.7631   12.0014 H   0  0  0  0  0  0  0  0  0  0  0  0
   46.9860    8.0210   12.9350 H   0  0  0  0  0  0  0  0  0  0  0  0
   45.4727    7.9419   13.8280 H   0  0  0  0  0  0  0  0  0  0  0  0
  2  1  2  0
  3  1  1  0
  4  5  1  0
  5  3  1  0
  6  2  1  0
  7  1  1  0
  8  2  1  0
  9  7  2  0
 10  8  1  0
 11  5  2  0
 12  6  2  0
 13 10  1  0
 14 13  2  0
 15  3  1  0
 16  4  1  0
 17 13  1  0
  6  4  1  0
  8  9  1  0
 19 18  2  0
 20 18  1  0
 21 22  1  0
 22 20  1  0
 23 19  1  0
 24 18  1  0
 25 19  1  0
 26 24  2  0
 27 25  1  0
 28 22  2  0
 29 23  2  0
 30 27  1  0
 31 30  2  0
 32 20  1  0
 33 21  1  0
 34 30  1  0
 23 21  1  0
 25 26  1  0
 36 40  1  0
 37 35  1  0
 38 37  1  0
 39 35  1  0
 40 39  1  0
 38 36  1  0
  9 41  1  0
 10 42  1  0
 10 43  1  0
 15 44  1  0
 15 45  1  0
 15 46  1  0
 16 47  1  0
 16 48  1  0
 16 49  1  0
 17 50  1  0
 26 51  1  0
 27 52  1  0
 27 53  1  0
 32 54  1  0
 32 55  1  0
 32 56  1  0
 33 57  1  0
 33 58  1  0
 33 59  1  0
 34 60  1  0
 35 61  1  0
 36 62  1  0
 37 63  1  0
 37 64  1  0
 38 65  1  0
 38 66  1  0
 39 67  1  0
 39 68  1  0
 40 69  1  0
 40 70  1  0
M  END
> <Uni-Dock RESULT> 
ENERGY=   -7.461  LOWER_BOUND=    0.001  UPPER_BOUND=    0.001
INTER + INTRA:          -7.461
INTER:                  -7.461
INTRA:                   0.000
UNBOUND:                 0.000

$$$$

     RDKit          3D

 70 72  0  0  0  0  0  0  0  0999 V2000
   47.1705    5.7326   13.7605 C   0  0  0  0  0  0  0  0  0  0  0  0
   46.2164    5.7035   12.7898 C   0  0  0  0  0  0  0  0  0  0  0  0
   47.7391    6.9097   14.1823 N   0  0  0  0  0  0  0  0  0  0  0  0
   46.3364    8.0404   12.6044 N   0  0  0  0  0  0  0  0  0  0  0  0
   47.3228    8.1126   13.6105 C   0  0  0  0  0  0  0  0  0  0  0  0
   45.7283    6.8702   12.1433 C   0  0  0  0  0  0  0  0  0  0  0  0
   47.4601    4.4864   14.2265 N   0  0  0  0  0  0  0  0  0  0  0  0
   45.8893    4.3836   12.6524 N   0  0  0  0  0  0  0  0  0  0  0  0
   46.6669    3.6866   13.5421 C   0  0  0  0  0  0  0  0  0  0  0  0
   44.9458    3.8021   11.7136 C   0  0  0  0  0  0  0  0  0  0  0  0
   47.7908    9.1994   13.9629 O   0  0  0  0  0  0  0  0  0  0  0  0
   44.8624    6.8274   11.2745 O   0  0  0  0  0  0  0  0  0  0  0  0
   43.5001    3.9567   12.0985 C   0  0  0  0  0  0  0  0  0  0  0  0
   42.5557    3.6117   11.4021 O   0  0  0  0  0  0  0  0  0  0  0  0
   48.7478    6.8974   15.2260 C   0  0  0  0  0  0  0  0  0  0  0  0
   45.9168    9.3018   12.0263 C   0  0  0  0  0  0  0  0  0  0  0  0
   43.2714    4.4710   13.3203 O   0  0  0  0  0  0  0  0  0  0  0  0
   45.9845    7.3679   12.4757 C   0  0  0  0  0  0  0  0  0  0  0  0
   46.0011    6.0245   12.6986 C   0  0  0  0  0  0  0  0  0  0  0  0
   46.8052    8.2252   13.1681 N   0  0  0  0  0  0  0  0  0  0  0  0
   47.5858    6.3287   14.4048 N   0  0  0  0  0  0  0  0  0  0  0  0
   47.6310    7.7189   14.1735 C   0  0  0  0  0  0  0  0  0  0  0  0
   46.8345    5.4074   13.6708 C   0  0  0  0  0  0  0  0  0  0  0  0
   45.0953    7.7101   11.5018 N   0  0  0  0  0  0  0  0  0  0  0  0
   45.0895    5.5074   11.8216 N   0  0  0  0  0  0  0  0  0  0  0  0
   44.5585    6.5656   11.1287 C   0  0  0  0  0  0  0  0  0  0  0  0
   44.7704    4.1082   11.6089 C   0  0  0  0  0  0  0  0  0  0  0  0
   48.3748    8.4522   14.8324 O   0  0  0  0  0  0  0  0  0  0  0  0
   46.8809    4.1904   13.8246 O   0  0  0  0  0  0  0  0  0  0  0  0
   43.8360    3.5634   12.6538 C   0  0  0  0  0  0  0  0  0  0  0  0
   43.2684    4.1727   13.5445 O   0  0  0  0  0  0  0  0  0  0  0  0
   46.7707    9.6520   12.9094 C   0  0  0  0  0  0  0  0  0  0  0  0
   48.4519    5.8121   15.4458 C   0  0  0  0  0  0  0  0  0  0  0  0
   43.6231    2.2381   12.4980 O   0  0  0  0  0  0  0  0  0  0  0  0
   45.3638    5.2527   12.1342 N   0  0  0  0  0  0  0  0  0  0  0  0
   46.9173    7.0214   13.9476 N   0  0  0  0  0  0  0  0  0  0  0  0
   45.8908    4.7837   13.4283 C   0  0  0  0  0  0  0  0  0  0  0  0
   47.1401    5.5657   13.8885 C   0  0  0  0  0  0  0  0  0  0  0  0
   45.1412    6.7083   12.1931 C   0  0  0  0  0  0  0  0  0  0  0  0
   46.3906    7.4903   12.6535 C   0  0  0  0  0  0  0  0  0  0  0  0
   46.6195    2.6099   13.6497 H   0  0  0  0  0  0  0  0  0  0  0  0
   45.1171    4.2715   10.7403 H   0  0  0  0  0  0  0  0  0  0  0  0
   45.1719    2.7336   11.6392 H   0  0  0  0  0  0  0  0  0  0  0  0
   49.1292    7.9001   15.4366 H   0  0  0  0  0  0  0  0  0  0  0  0
   49.5836    6.2658   14.9093 H   0  0  0  0  0  0  0  0  0  0  0  0
   48.3073    6.4922   16.1423 H   0  0  0  0  0  0  0  0  0  0  0  0
   45.1820    9.1729   11.2276 H   0  0  0  0  0  0  0  0  0  0  0  0
   46.7927    9.8201   11.6227 H   0  0  0  0  0  0  0  0  0  0  0  0
   45.4804    9.9237   12.8147 H   0  0  0  0  0  0  0  0  0  0  0  0
   42.2938    4.5169   13.3882 H   0  0  0  0  0  0  0  0  0  0  0  0
   43.7958    6.4499   10.3680 H   0  0  0  0  0  0  0  0  0  0  0  0
   45.7091    3.5465   11.6082 H   0  0  0  0  0  0  0  0  0  0  0  0
   44.2982    4.0195   10.6242 H   0  0  0  0  0  0  0  0  0  0  0  0
   45.9393   10.0891   13.4711 H   0  0  0  0  0  0  0  0  0  0  0  0
   46.6300    9.8399   11.8407 H   0  0  0  0  0  0  0  0  0  0  0  0
   47.7014   10.1317   13.2217 H   0  0  0  0  0  0  0  0  0  0  0  0
   48.1441    4.8149   15.7729 H   0  0  0  0  0  0  0  0  0  0  0  0
   48.4442    6.4796   16.3123 H   0  0  0  0  0  0  0  0  0  0  0  0
   49.4712    5.7589   15.0502 H   0  0  0  0  0  0  0  0  0  0  0  0
   43.0270    1.9995   13.2406 H   0  0  0  0  0  0  0  0  0  0  0  0
   46.0785    5.0772   11.4263 H   0  0  0  0  0  0  0  0  0  0  0  0
   46.2028    7.1981   14.6550 H   0  0  0  0  0  0  0  0  0  0  0  0
   46.1403    3.7203   13.3426 H   0  0  0  0  0  0  0  0  0  0  0  0
   45.1028    4.8608   14.1876 H   0  0  0  0  0  0  0  0  0  0  0  0
   47.4416    5.2148   14.8817 H   0  0  0  0  0  0  0  0  0  0  0  0
   47.9795    5.3573   13.2136 H   0  0  0  0  0  0  0  0  0  0  0  0
   44.8387    7.0587   11.1999 H   0  0  0  0  0  0  0  0  0  0  0  0
   44.3014    6.9165   12.8679 H   0  0  0  0  0  0  0  0  0  0  0  0
   46.1409    8.5535   12.7399 H   0  0  0  0  0  0  0  0  0  0  0  0
   47.1804    7.4130   11.8958 H   0  0  0  0  0  0  0  0  0  0  0  0
  2  1  2  0
  3  1  1  0
  4  5  1  0
  5  3  1  0
  6  2  1  0
  7  1  1  0
  8  2  1  0
  9  7  2  0
 10  8  1  0
 11  5  2  0
 12  6  2  0
 13 10  1  0
 14 13  2  0
 15  3  1  0
 16  4  1  0
 17 13  1  0
  6  4  1  0
  8  9  1  0
 19 18  2  0
 20 18  1  0
 21 22  1  0
 22 20  1  0
 23 19  1  0
 24 18  1  0
 25 19  1  0
 26 24  2  0
 27 25  1  0
 28 22  2  0
 29 23  2  0
 30 27  1  0
 31 30  2  0
 32 20  1  0
 33 21  1  0
 34 30  1  0
 23 21  1  0
 25 26  1  0
 36 40  1  0
 37 35  1  0
 38 37  1  0
 39 35  1  0
 40 39  1  0
 38 36  1  0
  9 41  1  0
 10 42  1  0
 10 43  1  0
 15 44  1  0
 15 45  1  0
 15 46  1  0
 16 47  1  0
 16 48  1  0
 16 49  1  0
 17 50  1  0
 26 51  1  0
 27 52  1  0
 27 53  1  0
 32 54  1  0
 32 55  1  0
 32 56  1  0
 33 57  1  0
 33 58  1  0
 33 59  1  0
 34 60  1  0
 35 61  1  0
 36 62  1  0
 37 63  1  0
 37 64  1  0
 38 65  1  0
 38 66  1  0
 39 67  1  0
 39 68  1  0
 40 69  1  0
 40 70  1  0
M  END
> <Uni-Dock RESULT> 
ENERGY=   -7.429  LOWER_BOUND=    1.422  UPPER_BOUND=    3.376
INTER + INTRA:          -7.429
INTER:                  -7.429
INTRA:                   0.000
UNBOUND:                 0.000

$$$$

     RDKit          3D

 70 72  0  0  0  0  0  0  0  0999 V2000
   45.6325    5.7639   13.0425 C   0  0  0  0  0  0  0  0  0  0  0  0
   46.2600    6.9606   13.2077 C   0  0  0  0  0  0  0  0  0  0  0  0
   44.4854    5.6442   12.2962 N   0  0  0  0  0  0  0  0  0  0  0  0
   44.6267    7.9983   11.8790 N   0  0  0  0  0  0  0  0  0  0  0  0
   43.9508    6.7761   11.6797 C   0  0  0  0  0  0  0  0  0  0  0  0
   45.7945    8.1701   12.6264 C   0  0  0  0  0  0  0  0  0  0  0  0
   46.2788    4.7567   13.6922 N   0  0  0  0  0  0  0  0  0  0  0  0
   47.3503    6.6860   13.9847 N   0  0  0  0  0  0  0  0  0  0  0  0
   47.3194    5.3408   14.2519 C   0  0  0  0  0  0  0  0  0  0  0  0
   48.3334    7.6286   14.4895 C   0  0  0  0  0  0  0  0  0  0  0  0
   42.9304    6.7215   10.9868 O   0  0  0  0  0  0  0  0  0  0  0  0
   46.3760    9.2401   12.7794 O   0  0  0  0  0  0  0  0  0  0  0  0
   49.3601    8.0660   13.4813 C   0  0  0  0  0  0  0  0  0  0  0  0
   50.2165    8.9148   13.6863 O   0  0  0  0  0  0  0  0  0  0  0  0
   43.8521    4.3478   12.1385 C   0  0  0  0  0  0  0  0  0  0  0  0
   44.0556    9.1604   11.2273 C   0  0  0  0  0  0  0  0  0  0  0  0
   49.3319    7.4228   12.3002 O   0  0  0  0  0  0  0  0  0  0  0  0
   45.3147    7.9912   12.2243 C   0  0  0  0  0  0  0  0  0  0  0  0
   46.2023    7.2633   12.9571 C   0  0  0  0  0  0  0  0  0  0  0  0
   44.2169    7.4114   11.6358 N   0  0  0  0  0  0  0  0  0  0  0  0
   45.0038    5.3056   12.4615 N   0  0  0  0  0  0  0  0  0  0  0  0
   44.0383    6.0301   11.7326 C   0  0  0  0  0  0  0  0  0  0  0  0
   46.0866    5.8596   13.1488 C   0  0  0  0  0  0  0  0  0  0  0  0
   45.6513    9.3108   12.1838 N   0  0  0  0  0  0  0  0  0  0  0  0
   47.1263    8.1687   13.3978 N   0  0  0  0  0  0  0  0  0  0  0  0
   46.7585    9.3905   12.8943 C   0  0  0  0  0  0  0  0  0  0  0  0
   48.2539    7.9172   14.2753 C   0  0  0  0  0  0  0  0  0  0  0  0
   43.0753    5.4623   11.2081 O   0  0  0  0  0  0  0  0  0  0  0  0
   46.8618    5.2233   13.8567 O   0  0  0  0  0  0  0  0  0  0  0  0
   49.4258    7.3133   13.5516 C   0  0  0  0  0  0  0  0  0  0  0  0
   49.5533    7.1272   12.3533 O   0  0  0  0  0  0  0  0  0  0  0  0
   43.2844    8.2096   10.8629 C   0  0  0  0  0  0  0  0  0  0  0  0
   44.8056    3.8733   12.5620 C   0  0  0  0  0  0  0  0  0  0  0  0
   50.4319    6.9974   14.3965 O   0  0  0  0  0  0  0  0  0  0  0  0
   47.1210    7.6914   13.4985 N   0  0  0  0  0  0  0  0  0  0  0  0
   45.0034    6.2585   11.9843 N   0  0  0  0  0  0  0  0  0  0  0  0
   47.1743    6.2386   13.2561 C   0  0  0  0  0  0  0  0  0  0  0  0
   45.7782    5.6099   13.0572 C   0  0  0  0  0  0  0  0  0  0  0  0
   46.3461    8.3401   12.4258 C   0  0  0  0  0  0  0  0  0  0  0  0
   44.9499    7.7112   12.2270 C   0  0  0  0  0  0  0  0  0  0  0  0
   48.0685    4.8415   14.8542 H   0  0  0  0  0  0  0  0  0  0  0  0
   47.7912    8.5029   14.8619 H   0  0  0  0  0  0  0  0  0  0  0  0
   48.8516    7.1476   15.3251 H   0  0  0  0  0  0  0  0  0  0  0  0
   42.9359    4.4108   11.5455 H   0  0  0  0  0  0  0  0  0  0  0  0
   43.6013    3.9488   13.1264 H   0  0  0  0  0  0  0  0  0  0  0  0
   44.5481    3.6703   11.6342 H   0  0  0  0  0  0  0  0  0  0  0  0
   44.6026   10.0791   11.4539 H   0  0  0  0  0  0  0  0  0  0  0  0
   43.0159    9.2775   11.5498 H   0  0  0  0  0  0  0  0  0  0  0  0
   44.0652    8.9982   10.1445 H   0  0  0  0  0  0  0  0  0  0  0  0
   50.0431    7.8458   11.7733 H   0  0  0  0  0  0  0  0  0  0  0  0
   47.3221   10.2977   13.0763 H   0  0  0  0  0  0  0  0  0  0  0  0
   47.9154    7.2503   15.0737 H   0  0  0  0  0  0  0  0  0  0  0  0
   48.5571    8.8752   14.7121 H   0  0  0  0  0  0  0  0  0  0  0  0
   43.6857    8.3353    9.8525 H   0  0  0  0  0  0  0  0  0  0  0  0
   43.1492    9.1906   11.3284 H   0  0  0  0  0  0  0  0  0  0  0  0
   42.3079    7.7235   10.7993 H   0  0  0  0  0  0  0  0  0  0  0  0
   45.7226    3.3560   12.8581 H   0  0  0  0  0  0  0  0  0  0  0  0
   44.4724    3.4677   11.6024 H   0  0  0  0  0  0  0  0  0  0  0  0
   44.0316    3.6851   13.3129 H   0  0  0  0  0  0  0  0  0  0  0  0
   51.1169    6.5968   13.8187 H   0  0  0  0  0  0  0  0  0  0  0  0
   46.6207    7.8413   14.3759 H   0  0  0  0  0  0  0  0  0  0  0  0
   45.5028    6.1095   11.1065 H   0  0  0  0  0  0  0  0  0  0  0  0
   47.6706    5.7576   14.1062 H   0  0  0  0  0  0  0  0  0  0  0  0
   47.7995    6.0428   12.3761 H   0  0  0  0  0  0  0  0  0  0  0  0
   45.8905    4.5467   12.8173 H   0  0  0  0  0  0  0  0  0  0  0  0
   45.2094    5.6621   13.9939 H   0  0  0  0  0  0  0  0  0  0  0  0
   46.2348    9.4036   12.6655 H   0  0  0  0  0  0  0  0  0  0  0  0
   46.9153    8.2881   11.4893 H   0  0  0  0  0  0  0  0  0  0  0  0
   44.4541    8.1917   11.3764 H   0  0  0  0  0  0  0  0  0  0  0  0
   44.3237    7.9048   13.1069 H   0  0  0  0  0  0  0  0  0  0  0  0
  2  1  2  0
  3  1  1  0
  4  5  1  0
  5  3  1  0
  6  2  1  0
  7  1  1  0
  8  2  1  0
  9  7  2  0
 10  8  1  0
 11  5  2  0
 12  6  2  0
 13 10  1  0
 14 13  2  0
 15  3  1  0
 16  4  1  0
 17 13  1  0
  6  4  1  0
  8  9  1  0
 19 18  2  0
 20 18  1  0
 21 22  1  0
 22 20  1  0
 23 19  1  0
 24 18  1  0
 25 19  1  0
 26 24  2  0
 27 25  1  0
 28 22  2  0
 29 23  2  0
 30 27  1  0
 31 30  2  0
 32 20  1  0
 33 21  1  0
 34 30  1  0
 23 21  1  0
 25 26  1  0
 36 40  1  0
 37 35  1  0
 38 37  1  0
 39 35  1  0
 40 39  1  0
 38 36  1  0
  9 41  1  0
 10 42  1  0
 10 43  1  0
 15 44  1  0
 15 45  1  0
 15 46  1  0
 16 47  1  0
 16 48  1  0
 16 49  1  0
 17 50  1  0
 26 51  1  0
 27 52  1  0
 27 53  1  0
 32 54  1  0
 32 55  1  0
 32 56  1  0
 33 57  1  0
 33 58  1  0
 33 59  1  0
 34 60  1  0
 35 61  1  0
 36 62  1  0
 37 63  1  0
 37 64  1  0
 38 65  1  0
 38 66  1  0
 39 67  1  0
 39 68  1  0
 40 69  1  0
 40 70  1  0
M  END
> <Uni-Dock RESULT> 
ENERGY=   -6.908  LOWER_BOUND=    1.544  UPPER_BOUND=    4.582
INTER + INTRA:          -6.908
INTER:                  -6.908
INTRA:                   0.000
UNBOUND:                 0.000

$$$$

     RDKit          3D

 70 72  0  0  0  0  0  0  0  0999 V2000
   46.5876    5.7408   13.4456 C   0  0  0  0  0  0  0  0  0  0  0  0
   46.3805    7.0584   13.1727 C   0  0  0  0  0  0  0  0  0  0  0  0
   45.6906    4.7724   13.0654 N   0  0  0  0  0  0  0  0  0  0  0  0
   44.3575    6.5185   12.1116 N   0  0  0  0  0  0  0  0  0  0  0  0
   44.5388    5.1436   12.3705 C   0  0  0  0  0  0  0  0  0  0  0  0
   45.2398    7.5387   12.4759 C   0  0  0  0  0  0  0  0  0  0  0  0
   47.7558    5.5376   14.1151 N   0  0  0  0  0  0  0  0  0  0  0  0
   47.4715    7.7031   13.6844 N   0  0  0  0  0  0  0  0  0  0  0  0
   48.2751    6.7422   14.2436 C   0  0  0  0  0  0  0  0  0  0  0  0
   47.7255    9.1332   13.6961 C   0  0  0  0  0  0  0  0  0  0  0  0
   43.7076    4.3122   11.9934 O   0  0  0  0  0  0  0  0  0  0  0  0
   45.0712    8.7296   12.2316 O   0  0  0  0  0  0  0  0  0  0  0  0
   48.2042    9.6972   12.3866 C   0  0  0  0  0  0  0  0  0  0  0  0
   48.3913   10.8863   12.1699 O   0  0  0  0  0  0  0  0  0  0  0  0
   45.9535    3.3776   13.3690 C   0  0  0  0  0  0  0  0  0  0  0  0
   43.1559    6.8812   11.3863 C   0  0  0  0  0  0  0  0  0  0  0  0
   48.4796    8.7958   11.4268 O   0  0  0  0  0  0  0  0  0  0  0  0
   44.9352    7.0049   12.2610 C   0  0  0  0  0  0  0  0  0  0  0  0
   46.1339    7.1759   12.8843 C   0  0  0  0  0  0  0  0  0  0  0  0
   44.3656    5.7626   12.1191 N   0  0  0  0  0  0  0  0  0  0  0  0
   46.3190    4.8515   13.1631 N   0  0  0  0  0  0  0  0  0  0  0  0
   45.0606    4.6365   12.5642 C   0  0  0  0  0  0  0  0  0  0  0  0
   46.8995    6.0985   13.4075 C   0  0  0  0  0  0  0  0  0  0  0  0
   44.4073    8.1889   11.8421 N   0  0  0  0  0  0  0  0  0  0  0  0
   46.3584    8.5237   12.8593 N   0  0  0  0  0  0  0  0  0  0  0  0
   45.2939    9.0930   12.2078 C   0  0  0  0  0  0  0  0  0  0  0  0
   47.4728    9.2401   13.4507 C   0  0  0  0  0  0  0  0  0  0  0  0
   44.5960    3.4985   12.4451 O   0  0  0  0  0  0  0  0  0  0  0  0
   47.9518    6.2700   14.0158 O   0  0  0  0  0  0  0  0  0  0  0  0
   48.7140    9.1786   12.6038 C   0  0  0  0  0  0  0  0  0  0  0  0
   48.8374    8.7079   11.4857 O   0  0  0  0  0  0  0  0  0  0  0  0
   43.0860    5.6076   11.4540 C   0  0  0  0  0  0  0  0  0  0  0  0
   47.0293    3.6767   13.6281 C   0  0  0  0  0  0  0  0  0  0  0  0
   49.7679    9.7682   13.2102 O   0  0  0  0  0  0  0  0  0  0  0  0
   46.6485    8.1878   13.0618 N   0  0  0  0  0  0  0  0  0  0  0  0
   45.7104    5.4244   12.5019 N   0  0  0  0  0  0  0  0  0  0  0  0
   47.5456    7.0213   13.1442 C   0  0  0  0  0  0  0  0  0  0  0  0
   46.7972    5.7074   13.4563 C   0  0  0  0  0  0  0  0  0  0  0  0
   45.5616    7.9049   12.1076 C   0  0  0  0  0  0  0  0  0  0  0  0
   44.8133    6.5908   12.4198 C   0  0  0  0  0  0  0  0  0  0  0  0
   49.2165    6.9695   14.7289 H   0  0  0  0  0  0  0  0  0  0  0  0
   46.7966    9.6307   13.9906 H   0  0  0  0  0  0  0  0  0  0  0  0
   48.4896    9.3254   14.4559 H   0  0  0  0  0  0  0  0  0  0  0  0
   45.1420    2.7269   13.0328 H   0  0  0  0  0  0  0  0  0  0  0  0
   46.0678    3.2618   14.4514 H   0  0  0  0  0  0  0  0  0  0  0  0
   46.8767    3.0717   12.8671 H   0  0  0  0  0  0  0  0  0  0  0  0
   43.0563    7.9615   11.2539 H   0  0  0  0  0  0  0  0  0  0  0  0
   42.2822    6.5082   11.9306 H   0  0  0  0  0  0  0  0  0  0  0  0
   43.1797    6.4025   10.4019 H   0  0  0  0  0  0  0  0  0  0  0  0
   48.7520    9.3355   10.6541 H   0  0  0  0  0  0  0  0  0  0  0  0
   45.2111   10.1587   12.0317 H   0  0  0  0  0  0  0  0  0  0  0  0
   47.6639    8.8076   14.4372 H   0  0  0  0  0  0  0  0  0  0  0  0
   47.1713   10.2867   13.5699 H   0  0  0  0  0  0  0  0  0  0  0  0
   43.2541    5.5886   10.3727 H   0  0  0  0  0  0  0  0  0  0  0  0
   42.4239    6.4411   11.7075 H   0  0  0  0  0  0  0  0  0  0  0  0
   42.5961    4.6780   11.7536 H   0  0  0  0  0  0  0  0  0  0  0  0
   48.0921    3.8806   13.7862 H   0  0  0  0  0  0  0  0  0  0  0  0
   46.9358    2.8641   12.9019 H   0  0  0  0  0  0  0  0  0  0  0  0
   46.5827    3.3572   14.5750 H   0  0  0  0  0  0  0  0  0  0  0  0
   50.5104    9.6443   12.5801 H   0  0  0  0  0  0  0  0  0  0  0  0
   46.2260    8.3199   13.9820 H   0  0  0  0  0  0  0  0  0  0  0  0
   46.1316    5.2923   11.5814 H   0  0  0  0  0  0  0  0  0  0  0  0
   48.2933    7.2063   13.9234 H   0  0  0  0  0  0  0  0  0  0  0  0
   48.0948    6.9217   12.1998 H   0  0  0  0  0  0  0  0  0  0  0  0
   47.5074    4.8731   13.4391 H   0  0  0  0  0  0  0  0  0  0  0  0
   46.3834    5.7465   14.4717 H   0  0  0  0  0  0  0  0  0  0  0  0
   44.8521    8.7399   12.1244 H   0  0  0  0  0  0  0  0  0  0  0  0
   45.9756    7.8662   11.0923 H   0  0  0  0  0  0  0  0  0  0  0  0
   44.0662    6.4054   11.6402 H   0  0  0  0  0  0  0  0  0  0  0  0
   44.2645    6.6882   13.3649 H   0  0  0  0  0  0  0  0  0  0  0  0
  2  1  2  0
  3  1  1  0
  4  5  1  0
  5  3  1  0
  6  2  1  0
  7  1  1  0
  8  2  1  0
  9  7  2  0
 10  8  1  0
 11  5  2  0
 12  6  2  0
 13 10  1  0
 14 13  2  0
 15  3  1  0
 16  4  1  0
 17 13  1  0
  6  4  1  0
  8  9  1  0
 19 18  2  0
 20 18  1  0
 21 22  1  0
 22 20  1  0
 23 19  1  0
 24 18  1  0
 25 19  1  0
 26 24  2  0
 27 25  1  0
 28 22  2  0
 29 23  2  0
 30 27  1  0
 31 30  2  0
 32 20  1  0
 33 21  1  0
 34 30  1  0
 23 21  1  0
 25 26  1  0
 36 40  1  0
 37 35  1  0
 38 37  1  0
 39 35  1  0
 40 39  1  0
 38 36  1  0
  9 41  1  0
 10 42  1  0
 10 43  1  0
 15 44  1  0
 15 45  1  0
 15 46  1  0
 16 47  1  0
 16 48  1  0
 16 49  1  0
 17 50  1  0
 26 51  1  0
 27 52  1  0
 27 53  1  0
 32 54  1  0
 32 55  1  0
 32 56  1  0
 33 57  1  0
 33 58  1  0
 33 59  1  0
 34 60  1  0
 35 61  1  0
 36 62  1  0
 37 63  1  0
 37 64  1  0
 38 65  1  0
 38 66  1  0
 39 67  1  0
 39 68  1  0
 40 69  1  0
 40 70  1  0
M  END
> <Uni-Dock RESULT> 
ENERGY=   -6.791  LOWER_BOUND=    1.334  UPPER_BOUND=    5.208
INTER + INTRA:          -6.791
INTER:                  -6.791
INTRA:                   0.000
UNBOUND:                 0.000

$$$$

     RDKit          3D

 70 72  0  0  0  0  0  0  0  0999 V2000
   51.8171    2.2364   17.6444 C   0  0  0  0  0  0  0  0  0  0  0  0
   51.0661    3.3655   17.7643 C   0  0  0  0  0  0  0  0  0  0  0  0
   53.0847    2.1505   18.1667 N   0  0  0  0  0  0  0  0  0  0  0  0
   52.8109    4.3980   18.9474 N   0  0  0  0  0  0  0  0  0  0  0  0
   53.6176    3.2448   18.8491 C   0  0  0  0  0  0  0  0  0  0  0  0
   51.5181    4.5330   18.4352 C   0  0  0  0  0  0  0  0  0  0  0  0
   51.1578    1.2566   16.9665 N   0  0  0  0  0  0  0  0  0  0  0  0
   49.8838    3.0735   17.1440 N   0  0  0  0  0  0  0  0  0  0  0  0
   49.9863    1.7874   16.6780 C   0  0  0  0  0  0  0  0  0  0  0  0
   48.7466    3.9568   16.9531 C   0  0  0  0  0  0  0  0  0  0  0  0
   54.7458    3.2156   19.3498 O   0  0  0  0  0  0  0  0  0  0  0  0
   50.8257    5.5409   18.5406 O   0  0  0  0  0  0  0  0  0  0  0  0
   47.8809    4.1387   18.1694 C   0  0  0  0  0  0  0  0  0  0  0  0
   46.9296    4.9044   18.2362 O   0  0  0  0  0  0  0  0  0  0  0  0
   53.8490    0.9248   18.0237 C   0  0  0  0  0  0  0  0  0  0  0  0
   53.3831    5.5216   19.6627 C   0  0  0  0  0  0  0  0  0  0  0  0
   48.1762    3.3531   19.2208 O   0  0  0  0  0  0  0  0  0  0  0  0
   52.0758    4.3584   18.7222 C   0  0  0  0  0  0  0  0  0  0  0  0
   51.1404    3.6372   18.0444 C   0  0  0  0  0  0  0  0  0  0  0  0
   53.3081    3.8345   19.0301 N   0  0  0  0  0  0  0  0  0  0  0  0
   52.5775    1.7799   18.0399 N   0  0  0  0  0  0  0  0  0  0  0  0
   53.5889    2.5072   18.7007 C   0  0  0  0  0  0  0  0  0  0  0  0
   51.3447    2.2931   17.6293 C   0  0  0  0  0  0  0  0  0  0  0  0
   51.6357    5.6144   19.0134 N   0  0  0  0  0  0  0  0  0  0  0  0
   50.0758    4.4820   17.9006 N   0  0  0  0  0  0  0  0  0  0  0  0
   50.4170    5.6609   18.5135 C   0  0  0  0  0  0  0  0  0  0  0  0
   48.8369    4.2218   17.1919 C   0  0  0  0  0  0  0  0  0  0  0  0
   54.6766    1.9882   18.9701 O   0  0  0  0  0  0  0  0  0  0  0  0
   50.5156    1.6716   16.9711 O   0  0  0  0  0  0  0  0  0  0  0  0
   47.8711    3.3991   17.9995 C   0  0  0  0  0  0  0  0  0  0  0  0
   47.9761    3.0438   19.1613 O   0  0  0  0  0  0  0  0  0  0  0  0
   54.2884    4.6247   19.7502 C   0  0  0  0  0  0  0  0  0  0  0  0
   52.8814    0.4051   17.6960 C   0  0  0  0  0  0  0  0  0  0  0  0
   46.7629    3.0850   17.2931 O   0  0  0  0  0  0  0  0  0  0  0  0
   50.1056    4.0258   17.7305 N   0  0  0  0  0  0  0  0  0  0  0  0
   52.5780    2.6558   18.6471 N   0  0  0  0  0  0  0  0  0  0  0  0
   50.2258    2.5572   17.7592 C   0  0  0  0  0  0  0  0  0  0  0  0
   51.6854    2.0701   17.6310 C   0  0  0  0  0  0  0  0  0  0  0  0
   50.9982    4.6115   18.7465 C   0  0  0  0  0  0  0  0  0  0  0  0
   52.4578    4.1243   18.6182 C   0  0  0  0  0  0  0  0  0  0  0  0
   49.1894    1.2899   16.1388 H   0  0  0  0  0  0  0  0  0  0  0  0
   49.1338    4.9282   16.6314 H   0  0  0  0  0  0  0  0  0  0  0  0
   48.1328    3.5341   16.1513 H   0  0  0  0  0  0  0  0  0  0  0  0
   54.8468    1.0128   18.4615 H   0  0  0  0  0  0  0  0  0  0  0  0
   53.9544    0.6901   16.9599 H   0  0  0  0  0  0  0  0  0  0  0  0
   53.3170    0.1124   18.5285 H   0  0  0  0  0  0  0  0  0  0  0  0
   52.7249    6.3941   19.6681 H   0  0  0  0  0  0  0  0  0  0  0  0
   54.3342    5.7972   19.1955 H   0  0  0  0  0  0  0  0  0  0  0  0
   53.5810    5.2184   20.6960 H   0  0  0  0  0  0  0  0  0  0  0  0
   47.5353    3.6198   19.9141 H   0  0  0  0  0  0  0  0  0  0  0  0
   49.7515    6.5143   18.5635 H   0  0  0  0  0  0  0  0  0  0  0  0
   49.0859    3.7084   16.2586 H   0  0  0  0  0  0  0  0  0  0  0  0
   48.3767    5.1883   16.9583 H   0  0  0  0  0  0  0  0  0  0  0  0
   54.0639    4.5702   20.8199 H   0  0  0  0  0  0  0  0  0  0  0  0
   54.2507    5.6673   19.4203 H   0  0  0  0  0  0  0  0  0  0  0  0
   55.3000    4.2483   19.5800 H   0  0  0  0  0  0  0  0  0  0  0  0
   51.9761   -0.1694   17.4802 H   0  0  0  0  0  0  0  0  0  0  0  0
   53.4149   -0.0827   18.5169 H   0  0  0  0  0  0  0  0  0  0  0  0
   53.5230    0.4062   16.8091 H   0  0  0  0  0  0  0  0  0  0  0  0
   46.2301    2.5369   17.9090 H   0  0  0  0  0  0  0  0  0  0  0  0
   50.4263    4.3455   16.8153 H   0  0  0  0  0  0  0  0  0  0  0  0
   52.2581    2.3369   19.5627 H   0  0  0  0  0  0  0  0  0  0  0  0
   49.6310    2.1389   16.9396 H   0  0  0  0  0  0  0  0  0  0  0  0
   49.7873    2.1778   18.6904 H   0  0  0  0  0  0  0  0  0  0  0  0
   51.7127    0.9788   17.7249 H   0  0  0  0  0  0  0  0  0  0  0  0
   52.0714    2.3091   16.6322 H   0  0  0  0  0  0  0  0  0  0  0  0
   50.9698    5.7030   18.6529 H   0  0  0  0  0  0  0  0  0  0  0  0
   50.6117    4.3727   19.7452 H   0  0  0  0  0  0  0  0  0  0  0  0
   53.0524    4.5419   19.4381 H   0  0  0  0  0  0  0  0  0  0  0  0
   52.8976    4.5017   17.6865 H   0  0  0  0  0  0  0  0  0  0  0  0
  2  1  2  0
  3  1  1  0
  4  5  1  0
  5  3  1  0
  6  2  1  0
  7  1  1  0
  8  2  1  0
  9  7  2  0
 10  8  1  0
 11  5  2  0
 12  6  2  0
 13 10  1  0
 14 13  2  0
 15  3  1  0
 16  4  1  0
 17 13  1  0
  6  4  1  0
  8  9  1  0
 19 18  2  0
 20 18  1  0
 21 22  1  0
 22 20  1  0
 23 19  1  0
 24 18  1  0
 25 19  1  0
 26 24  2  0
 27 25  1  0
 28 22  2  0
 29 23  2  0
 30 27  1  0
 31 30  2  0
 32 20  1  0
 33 21  1  0
 34 30  1  0
 23 21  1  0
 25 26  1  0
 36 40  1  0
 37 35  1  0
 38 37  1  0
 39 35  1  0
 40 39  1  0
 38 36  1  0
  9 41  1  0
 10 42  1  0
 10 43  1  0
 15 44  1  0
 15 45  1  0
 15 46  1  0
 16 47  1  0
 16 48  1  0
 16 49  1  0
 17 50  1  0
 26 51  1  0
 27 52  1  0
 27 53  1  0
 32 54  1  0
 32 55  1  0
 32 56  1  0
 33 57  1  0
 33 58  1  0
 33 59  1  0
 34 60  1  0
 35 61  1  0
 36 62  1  0
 37 63  1  0
 37 64  1  0
 38 65  1  0
 38 66  1  0
 39 67  1  0
 39 68  1  0
 40 69  1  0
 40 70  1  0
M  END
> <Uni-Dock RESULT> 
ENERGY=   -6.664  LOWER_BOUND=    7.376  UPPER_BOUND=    9.943
INTER + INTRA:          -6.664
INTER:                  -6.664
INTRA:                   0.000
UNBOUND:                 0.000

$$$$

     RDKit          3D

 70 72  0  0  0  0  0  0  0  0999 V2000
   45.7657    7.8634   12.0922 C   0  0  0  0  0  0  0  0  0  0  0  0
   46.5829    6.9587   12.6980 C   0  0  0  0  0  0  0  0  0  0  0  0
   44.4747    7.5521   11.7407 N   0  0  0  0  0  0  0  0  0  0  0  0
   44.8584    5.3672   12.6435 N   0  0  0  0  0  0  0  0  0  0  0  0
   43.9795    6.2778   12.0200 C   0  0  0  0  0  0  0  0  0  0  0  0
   46.1764    5.6366   13.0207 C   0  0  0  0  0  0  0  0  0  0  0  0
   46.3864    9.0598   11.8985 N   0  0  0  0  0  0  0  0  0  0  0  0
   47.7601    7.6229   12.9006 N   0  0  0  0  0  0  0  0  0  0  0  0
   47.5929    8.8897   12.4013 C   0  0  0  0  0  0  0  0  0  0  0  0
   48.9830    7.0937   13.4786 C   0  0  0  0  0  0  0  0  0  0  0  0
   42.8228    5.9508   11.7382 O   0  0  0  0  0  0  0  0  0  0  0  0
   46.9235    4.8349   13.5734 O   0  0  0  0  0  0  0  0  0  0  0  0
   48.9719    6.9812   14.9783 C   0  0  0  0  0  0  0  0  0  0  0  0
   49.8690    6.4829   15.6437 O   0  0  0  0  0  0  0  0  0  0  0  0
   43.6337    8.5488   11.1035 C   0  0  0  0  0  0  0  0  0  0  0  0
   44.3223    4.0505   12.9268 C   0  0  0  0  0  0  0  0  0  0  0  0
   47.9059    7.5193   15.5979 O   0  0  0  0  0  0  0  0  0  0  0  0
   45.5359    5.6231   12.9046 C   0  0  0  0  0  0  0  0  0  0  0  0
   46.4386    6.6427   12.8905 C   0  0  0  0  0  0  0  0  0  0  0  0
   44.2739    5.7685   12.3810 N   0  0  0  0  0  0  0  0  0  0  0  0
   44.8281    8.0536   11.9260 N   0  0  0  0  0  0  0  0  0  0  0  0
   43.8797    7.0110   11.8810 C   0  0  0  0  0  0  0  0  0  0  0  0
   46.1480    7.9321   12.3675 C   0  0  0  0  0  0  0  0  0  0  0  0
   46.0530    4.4947   13.4662 N   0  0  0  0  0  0  0  0  0  0  0  0
   47.5679    6.1254   13.4604 N   0  0  0  0  0  0  0  0  0  0  0  0
   47.2825    4.8284   13.8041 C   0  0  0  0  0  0  0  0  0  0  0  0
   48.8490    6.7853   13.6282 C   0  0  0  0  0  0  0  0  0  0  0  0
   42.7512    7.1939   11.4141 O   0  0  0  0  0  0  0  0  0  0  0  0
   46.9870    8.8263   12.3101 O   0  0  0  0  0  0  0  0  0  0  0  0
   48.8699    7.7143   14.8107 C   0  0  0  0  0  0  0  0  0  0  0  0
   48.0047    7.8746   15.6549 O   0  0  0  0  0  0  0  0  0  0  0  0
   43.3319    4.6658   12.4052 C   0  0  0  0  0  0  0  0  0  0  0  0
   44.4114    9.3376   11.3982 C   0  0  0  0  0  0  0  0  0  0  0  0
   50.0356    8.3920   14.8989 O   0  0  0  0  0  0  0  0  0  0  0  0
   47.5164    6.5770   13.2834 N   0  0  0  0  0  0  0  0  0  0  0  0
   44.7178    7.1348   12.4547 N   0  0  0  0  0  0  0  0  0  0  0  0
   46.9923    7.9488   13.1582 C   0  0  0  0  0  0  0  0  0  0  0  0
   45.8261    8.0581   12.1522 C   0  0  0  0  0  0  0  0  0  0  0  0
   46.4083    5.6536   13.5857 C   0  0  0  0  0  0  0  0  0  0  0  0
   45.2420    5.7631   12.5796 C   0  0  0  0  0  0  0  0  0  0  0  0
   48.3725    9.6412   12.4258 H   0  0  0  0  0  0  0  0  0  0  0  0
   49.1552    6.1066   13.0393 H   0  0  0  0  0  0  0  0  0  0  0  0
   49.8002    7.7612   13.1876 H   0  0  0  0  0  0  0  0  0  0  0  0
   42.6459    8.1512   10.8561 H   0  0  0  0  0  0  0  0  0  0  0  0
   44.1149    8.8866   10.1803 H   0  0  0  0  0  0  0  0  0  0  0  0
   43.5081    9.3966   11.7841 H   0  0  0  0  0  0  0  0  0  0  0  0
   45.0642    3.3829   13.3723 H   0  0  0  0  0  0  0  0  0  0  0  0
   43.9567    3.6044   11.9961 H   0  0  0  0  0  0  0  0  0  0  0  0
   43.4774    4.1540   13.6154 H   0  0  0  0  0  0  0  0  0  0  0  0
   48.0573    7.3368   16.5498 H   0  0  0  0  0  0  0  0  0  0  0  0
   47.9982    4.1751   14.2885 H   0  0  0  0  0  0  0  0  0  0  0  0
   49.0656    7.3360   12.7082 H   0  0  0  0  0  0  0  0  0  0  0  0
   49.6087    6.0084   13.7689 H   0  0  0  0  0  0  0  0  0  0  0  0
   42.8554    4.6347   13.3900 H   0  0  0  0  0  0  0  0  0  0  0  0
   43.8505    3.7205   12.2189 H   0  0  0  0  0  0  0  0  0  0  0  0
   42.5606    4.7895   11.6412 H   0  0  0  0  0  0  0  0  0  0  0  0
   45.0604   10.1481   11.7417 H   0  0  0  0  0  0  0  0  0  0  0  0
   43.3856    9.5599   11.7059 H   0  0  0  0  0  0  0  0  0  0  0  0
   44.4496    9.2889   10.3053 H   0  0  0  0  0  0  0  0  0  0  0  0
   49.9199    8.9723   15.6822 H   0  0  0  0  0  0  0  0  0  0  0  0
   47.9042    6.3092   12.3776 H   0  0  0  0  0  0  0  0  0  0  0  0
   44.3294    7.4015   13.3603 H   0  0  0  0  0  0  0  0  0  0  0  0
   47.8069    8.6097   12.8418 H   0  0  0  0  0  0  0  0  0  0  0  0
   46.6672    8.3018   14.1447 H   0  0  0  0  0  0  0  0  0  0  0  0
   45.4407    9.0838   12.1544 H   0  0  0  0  0  0  0  0  0  0  0  0
   46.1909    7.8618   11.1363 H   0  0  0  0  0  0  0  0  0  0  0  0
   46.7942    4.6280   13.5845 H   0  0  0  0  0  0  0  0  0  0  0  0
   46.0438    5.8499   14.6018 H   0  0  0  0  0  0  0  0  0  0  0  0
   44.4272    5.1029   12.8965 H   0  0  0  0  0  0  0  0  0  0  0  0
   45.5658    5.4117   11.5919 H   0  0  0  0  0  0  0  0  0  0  0  0
  2  1  2  0
  3  1  1  0
  4  5  1  0
  5  3  1  0
  6  2  1  0
  7  1  1  0
  8  2  1  0
  9  7  2  0
 10  8  1  0
 11  5  2  0
 12  6  2  0
 13 10  1  0
 14 13  2  0
 15  3  1  0
 16  4  1  0
 17 13  1  0
  6  4  1  0
  8  9  1  0
 19 18  2  0
 20 18  1  0
 21 22  1  0
 22 20  1  0
 23 19  1  0
 24 18  1  0
 25 19  1  0
 26 24  2  0
 27 25  1  0
 28 22  2  0
 29 23  2  0
 30 27  1  0
 31 30  2  0
 32 20  1  0
 33 21  1  0
 34 30  1  0
 23 21  1  0
 25 26  1  0
 36 40  1  0
 37 35  1  0
 38 37  1  0
 39 35  1  0
 40 39  1  0
 38 36  1  0
  9 41  1  0
 10 42  1  0
 10 43  1  0
 15 44  1  0
 15 45  1  0
 15 46  1  0
 16 47  1  0
 16 48  1  0
 16 49  1  0
 17 50  1  0
 26 51  1  0
 27 52  1  0
 27 53  1  0
 32 54  1  0
 32 55  1  0
 32 56  1  0
 33 57  1  0
 33 58  1  0
 33 59  1  0
 34 60  1  0
 35 61  1  0
 36 62  1  0
 37 63  1  0
 37 64  1  0
 38 65  1  0
 38 66  1  0
 39 67  1  0
 39 68  1  0
 40 69  1  0
 40 70  1  0
M  END
> <Uni-Dock RESULT> 
ENERGY=   -6.582  LOWER_BOUND=    1.543  UPPER_BOUND=    4.257
INTER + INTRA:          -6.582
INTER:                  -6.582
INTRA:                   0.000
UNBOUND:                 0.000

$$$$

     RDKit          3D

 70 72  0  0  0  0  0  0  0  0999 V2000
   48.1071    5.9558   21.2966 C   0  0  0  0  0  0  0  0  0  0  0  0
   48.2781    6.2157   19.9712 C   0  0  0  0  0  0  0  0  0  0  0  0
   47.6726    6.9196   22.1737 N   0  0  0  0  0  0  0  0  0  0  0  0
   47.5821    8.4306   20.3177 N   0  0  0  0  0  0  0  0  0  0  0  0
   47.3872    8.1992   21.6957 C   0  0  0  0  0  0  0  0  0  0  0  0
   48.0199    7.4846   19.3875 C   0  0  0  0  0  0  0  0  0  0  0  0
   48.4135    4.6656   21.6056 N   0  0  0  0  0  0  0  0  0  0  0  0
   48.6989    5.0340   19.4287 N   0  0  0  0  0  0  0  0  0  0  0  0
   48.7652    4.1265   20.4553 C   0  0  0  0  0  0  0  0  0  0  0  0
   49.0654    4.7793   18.0465 C   0  0  0  0  0  0  0  0  0  0  0  0
   46.9805    9.0977   22.4383 O   0  0  0  0  0  0  0  0  0  0  0  0
   48.1726    7.7008   18.1890 O   0  0  0  0  0  0  0  0  0  0  0  0
   47.9018    4.6130   17.1082 C   0  0  0  0  0  0  0  0  0  0  0  0
   48.0009    4.4769   15.8968 O   0  0  0  0  0  0  0  0  0  0  0  0
   47.4956    6.5986   23.5781 C   0  0  0  0  0  0  0  0  0  0  0  0
   47.2770    9.7656   19.8424 C   0  0  0  0  0  0  0  0  0  0  0  0
   46.6869    4.5692   17.6842 O   0  0  0  0  0  0  0  0  0  0  0  0
   47.7334    7.8323   19.8575 C   0  0  0  0  0  0  0  0  0  0  0  0
   48.0979    6.5217   19.7932 C   0  0  0  0  0  0  0  0  0  0  0  0
   47.3696    8.4235   21.0433 N   0  0  0  0  0  0  0  0  0  0  0  0
   47.6472    6.2853   22.0858 N   0  0  0  0  0  0  0  0  0  0  0  0
   47.3061    7.6485   22.2028 C   0  0  0  0  0  0  0  0  0  0  0  0
   48.1055    5.6599   20.9236 C   0  0  0  0  0  0  0  0  0  0  0  0
   47.8011    8.4385   18.6393 N   0  0  0  0  0  0  0  0  0  0  0  0
   48.4131    6.3043   18.4813 N   0  0  0  0  0  0  0  0  0  0  0  0
   48.2058    7.4884   17.8203 C   0  0  0  0  0  0  0  0  0  0  0  0
   48.9235    5.0813   17.8911 C   0  0  0  0  0  0  0  0  0  0  0  0
   46.9703    8.1320   23.2884 O   0  0  0  0  0  0  0  0  0  0  0  0
   48.4885    4.4952   20.8639 O   0  0  0  0  0  0  0  0  0  0  0  0
   47.8418    4.0687   17.6336 C   0  0  0  0  0  0  0  0  0  0  0  0
   46.6373    4.2077   17.7624 O   0  0  0  0  0  0  0  0  0  0  0  0
   46.9887    9.8224   21.0855 C   0  0  0  0  0  0  0  0  0  0  0  0
   47.5848    5.4911   23.2966 C   0  0  0  0  0  0  0  0  0  0  0  0
   48.3431    2.9015   17.1729 O   0  0  0  0  0  0  0  0  0  0  0  0
   48.4407    5.9766   18.8415 N   0  0  0  0  0  0  0  0  0  0  0  0
   47.3310    7.0279   21.3898 N   0  0  0  0  0  0  0  0  0  0  0  0
   47.9829    5.0887   19.9251 C   0  0  0  0  0  0  0  0  0  0  0  0
   48.0610    5.7495   21.3184 C   0  0  0  0  0  0  0  0  0  0  0  0
   47.7110    7.2550   18.9129 C   0  0  0  0  0  0  0  0  0  0  0  0
   47.7891    7.9158   20.3064 C   0  0  0  0  0  0  0  0  0  0  0  0
   49.0742    3.0979   20.3145 H   0  0  0  0  0  0  0  0  0  0  0  0
   49.6888    5.6136   17.7114 H   0  0  0  0  0  0  0  0  0  0  0  0
   49.6594    3.8601   18.0277 H   0  0  0  0  0  0  0  0  0  0  0  0
   47.1747    7.4679   24.1580 H   0  0  0  0  0  0  0  0  0  0  0  0
   48.4453    6.2386   23.9860 H   0  0  0  0  0  0  0  0  0  0  0  0
   46.7353    5.8168   23.6718 H   0  0  0  0  0  0  0  0  0  0  0  0
   47.4868    9.8893   18.7770 H   0  0  0  0  0  0  0  0  0  0  0  0
   47.8702   10.4918   20.4078 H   0  0  0  0  0  0  0  0  0  0  0  0
   46.2167    9.9708   20.0227 H   0  0  0  0  0  0  0  0  0  0  0  0
   46.0622    4.4802   16.9331 H   0  0  0  0  0  0  0  0  0  0  0  0
   48.3670    7.6059   16.7555 H   0  0  0  0  0  0  0  0  0  0  0  0
   49.6758    4.6696   18.5704 H   0  0  0  0  0  0  0  0  0  0  0  0
   49.4027    5.3437   16.9414 H   0  0  0  0  0  0  0  0  0  0  0  0
   45.9386    9.9079   20.7893 H   0  0  0  0  0  0  0  0  0  0  0  0
   47.6116   10.4054   20.4004 H   0  0  0  0  0  0  0  0  0  0  0  0
   47.1086   10.2333   22.0909 H   0  0  0  0  0  0  0  0  0  0  0  0
   47.5554    4.4197   23.0787 H   0  0  0  0  0  0  0  0  0  0  0  0
   46.6949    5.7521   23.8766 H   0  0  0  0  0  0  0  0  0  0  0  0
   48.4739    5.7087   23.8969 H   0  0  0  0  0  0  0  0  0  0  0  0
   47.5560    2.3244   17.0676 H   0  0  0  0  0  0  0  0  0  0  0  0
   49.4296    6.1754   19.0003 H   0  0  0  0  0  0  0  0  0  0  0  0
   46.3421    6.8305   21.2310 H   0  0  0  0  0  0  0  0  0  0  0  0
   48.5965    4.1809   19.9197 H   0  0  0  0  0  0  0  0  0  0  0  0
   46.9527    4.7721   19.7205 H   0  0  0  0  0  0  0  0  0  0  0  0
   47.6473    5.0653   22.0676 H   0  0  0  0  0  0  0  0  0  0  0  0
   49.1099    5.9183   21.5923 H   0  0  0  0  0  0  0  0  0  0  0  0
   48.1242    7.9387   18.1628 H   0  0  0  0  0  0  0  0  0  0  0  0
   46.6622    7.0861   18.6386 H   0  0  0  0  0  0  0  0  0  0  0  0
   47.1749    8.8230   20.3119 H   0  0  0  0  0  0  0  0  0  0  0  0
   48.8192    8.2318   20.5133 H   0  0  0  0  0  0  0  0  0  0  0  0
  2  1  2  0
  3  1  1  0
  4  5  1  0
  5  3  1  0
  6  2  1  0
  7  1  1  0
  8  2  1  0
  9  7  2  0
 10  8  1  0
 11  5  2  0
 12  6  2  0
 13 10  1  0
 14 13  2  0
 15  3  1  0
 16  4  1  0
 17 13  1  0
  6  4  1  0
  8  9  1  0
 19 18  2  0
 20 18  1  0
 21 22  1  0
 22 20  1  0
 23 19  1  0
 24 18  1  0
 25 19  1  0
 26 24  2  0
 27 25  1  0
 28 22  2  0
 29 23  2  0
 30 27  1  0
 31 30  2  0
 32 20  1  0
 33 21  1  0
 34 30  1  0
 23 21  1  0
 25 26  1  0
 36 40  1  0
 37 35  1  0
 38 37  1  0
 39 35  1  0
 40 39  1  0
 38 36  1  0
  9 41  1  0
 10 42  1  0
 10 43  1  0
 15 44  1  0
 15 45  1  0
 15 46  1  0
 16 47  1  0
 16 48  1  0
 16 49  1  0
 17 50  1  0
 26 51  1  0
 27 52  1  0
 27 53  1  0
 32 54  1  0
 32 55  1  0
 32 56  1  0
 33 57  1  0
 33 58  1  0
 33 59  1  0
 34 60  1  0
 35 61  1  0
 36 62  1  0
 37 63  1  0
 37 64  1  0
 38 65  1  0
 38 66  1  0
 39 67  1  0
 39 68  1  0
 40 69  1  0
 40 70  1  0
M  END
> <Uni-Dock RESULT> 
ENERGY=   -6.288  LOWER_BOUND=    6.880  UPPER_BOUND=    8.933
INTER + INTRA:          -6.288
INTER:                  -6.288
INTRA:                   0.000
UNBOUND:                 0.000

$$$$

     RDKit          3D

 70 72  0  0  0  0  0  0  0  0999 V2000
   47.7880    7.6341   19.7705 C   0  0  0  0  0  0  0  0  0  0  0  0
   47.8081    8.7384   20.5665 C   0  0  0  0  0  0  0  0  0  0  0  0
   47.7166    6.3656   20.2929 N   0  0  0  0  0  0  0  0  0  0  0  0
   47.6809    7.3677   22.4679 N   0  0  0  0  0  0  0  0  0  0  0  0
   47.6521    6.1998   21.6769 C   0  0  0  0  0  0  0  0  0  0  0  0
   47.7512    8.6766   21.9844 C   0  0  0  0  0  0  0  0  0  0  0  0
   47.8447    7.9585   18.4493 N   0  0  0  0  0  0  0  0  0  0  0  0
   47.8690    9.7970   19.7043 N   0  0  0  0  0  0  0  0  0  0  0  0
   47.8886    9.2758   18.4355 C   0  0  0  0  0  0  0  0  0  0  0  0
   47.9548   11.2067   20.0435 C   0  0  0  0  0  0  0  0  0  0  0  0
   47.5726    5.0831   22.1976 O   0  0  0  0  0  0  0  0  0  0  0  0
   47.7633    9.6823   22.6878 O   0  0  0  0  0  0  0  0  0  0  0  0
   46.6541   11.8312   20.4680 C   0  0  0  0  0  0  0  0  0  0  0  0
   46.5346   12.9794   20.8720 O   0  0  0  0  0  0  0  0  0  0  0  0
   47.6893    5.2151   19.4084 C   0  0  0  0  0  0  0  0  0  0  0  0
   47.6100    7.1722   23.9025 C   0  0  0  0  0  0  0  0  0  0  0  0
   45.5621   11.0569   20.3353 O   0  0  0  0  0  0  0  0  0  0  0  0
   47.6240    8.0531   22.1219 C   0  0  0  0  0  0  0  0  0  0  0  0
   47.6751    8.7288   20.9407 C   0  0  0  0  0  0  0  0  0  0  0  0
   47.5853    6.6804   22.1678 N   0  0  0  0  0  0  0  0  0  0  0  0
   47.5384    6.6957   19.7734 N   0  0  0  0  0  0  0  0  0  0  0  0
   47.5294    5.9575   20.9747 C   0  0  0  0  0  0  0  0  0  0  0  0
   47.6640    8.0836   19.6742 C   0  0  0  0  0  0  0  0  0  0  0  0
   47.6374    8.8975   23.1910 N   0  0  0  0  0  0  0  0  0  0  0  0
   47.7304   10.0493   21.2886 N   0  0  0  0  0  0  0  0  0  0  0  0
   47.6920   10.1021   22.6589 C   0  0  0  0  0  0  0  0  0  0  0  0
   47.8613   11.1878   20.3990 C   0  0  0  0  0  0  0  0  0  0  0  0
   47.4786    4.7236   20.9657 O   0  0  0  0  0  0  0  0  0  0  0  0
   47.7660    8.7002   18.6176 O   0  0  0  0  0  0  0  0  0  0  0  0
   46.5560   11.5751   19.7604 C   0  0  0  0  0  0  0  0  0  0  0  0
   45.4462   11.1235   19.9869 O   0  0  0  0  0  0  0  0  0  0  0  0
   47.5345    5.9843   23.4393 C   0  0  0  0  0  0  0  0  0  0  0  0
   47.4871    5.9356   18.5403 C   0  0  0  0  0  0  0  0  0  0  0  0
   46.7102   12.5744   18.8640 O   0  0  0  0  0  0  0  0  0  0  0  0
   47.7394    9.8712   20.8346 N   0  0  0  0  0  0  0  0  0  0  0  0
   47.2920    6.9340   20.7825 N   0  0  0  0  0  0  0  0  0  0  0  0
   47.2672    9.1693   19.6278 C   0  0  0  0  0  0  0  0  0  0  0  0
   47.7012    7.6882   19.5842 C   0  0  0  0  0  0  0  0  0  0  0  0
   47.3304    9.1170   22.0329 C   0  0  0  0  0  0  0  0  0  0  0  0
   47.7645    7.6358   21.9892 C   0  0  0  0  0  0  0  0  0  0  0  0
   47.9371    9.8912   17.5455 H   0  0  0  0  0  0  0  0  0  0  0  0
   48.6888   11.3082   20.8485 H   0  0  0  0  0  0  0  0  0  0  0  0
   48.3206   11.7365   19.1582 H   0  0  0  0  0  0  0  0  0  0  0  0
   47.6611    4.2740   19.9640 H   0  0  0  0  0  0  0  0  0  0  0  0
   48.5866    5.2234   18.7817 H   0  0  0  0  0  0  0  0  0  0  0  0
   46.7983    5.2734   18.7756 H   0  0  0  0  0  0  0  0  0  0  0  0
   47.6769    8.1115   24.4573 H   0  0  0  0  0  0  0  0  0  0  0  0
   48.4284    6.5158   24.2158 H   0  0  0  0  0  0  0  0  0  0  0  0
   46.6616    6.6820   24.1456 H   0  0  0  0  0  0  0  0  0  0  0  0
   44.8261   11.6105   20.6732 H   0  0  0  0  0  0  0  0  0  0  0  0
   47.7108   11.0321   23.2143 H   0  0  0  0  0  0  0  0  0  0  0  0
   48.5983   10.9313   19.6324 H   0  0  0  0  0  0  0  0  0  0  0  0
   48.2361   12.0313   20.9894 H   0  0  0  0  0  0  0  0  0  0  0  0
   46.4968    5.9659   23.7866 H   0  0  0  0  0  0  0  0  0  0  0  0
   48.1590    6.4971   24.1770 H   0  0  0  0  0  0  0  0  0  0  0  0
   47.8943    4.9572   23.3409 H   0  0  0  0  0  0  0  0  0  0  0  0
   47.1885    6.5576   17.6917 H   0  0  0  0  0  0  0  0  0  0  0  0
   46.7762    5.1095   18.6326 H   0  0  0  0  0  0  0  0  0  0  0  0
   48.4832    5.5246   18.3480 H   0  0  0  0  0  0  0  0  0  0  0  0
   45.8082   12.7187   18.5043 H   0  0  0  0  0  0  0  0  0  0  0  0
   48.7601    9.8809   20.8084 H   0  0  0  0  0  0  0  0  0  0  0  0
   46.2716    6.9237   20.8099 H   0  0  0  0  0  0  0  0  0  0  0  0
   47.6564    9.6871   18.7441 H   0  0  0  0  0  0  0  0  0  0  0  0
   46.1736    9.2384   19.5754 H   0  0  0  0  0  0  0  0  0  0  0  0
   47.2656    7.2088   18.7004 H   0  0  0  0  0  0  0  0  0  0  0  0
   48.7907    7.6224   19.4723 H   0  0  0  0  0  0  0  0  0  0  0  0
   47.7654    9.5972   22.9167 H   0  0  0  0  0  0  0  0  0  0  0  0
   46.2410    9.1831   22.1449 H   0  0  0  0  0  0  0  0  0  0  0  0
   47.3746    7.1179   22.8724 H   0  0  0  0  0  0  0  0  0  0  0  0
   48.8582    7.5648   22.0400 H   0  0  0  0  0  0  0  0  0  0  0  0
  2  1  2  0
  3  1  1  0
  4  5  1  0
  5  3  1  0
  6  2  1  0
  7  1  1  0
  8  2  1  0
  9  7  2  0
 10  8  1  0
 11  5  2  0
 12  6  2  0
 13 10  1  0
 14 13  2  0
 15  3  1  0
 16  4  1  0
 17 13  1  0
  6  4  1  0
  8  9  1  0
 19 18  2  0
 20 18  1  0
 21 22  1  0
 22 20  1  0
 23 19  1  0
 24 18  1  0
 25 19  1  0
 26 24  2  0
 27 25  1  0
 28 22  2  0
 29 23  2  0
 30 27  1  0
 31 30  2  0
 32 20  1  0
 33 21  1  0
 34 30  1  0
 23 21  1  0
 25 26  1  0
 36 40  1  0
 37 35  1  0
 38 37  1  0
 39 35  1  0
 40 39  1  0
 38 36  1  0
  9 41  1  0
 10 42  1  0
 10 43  1  0
 15 44  1  0
 15 45  1  0
 15 46  1  0
 16 47  1  0
 16 48  1  0
 16 49  1  0
 17 50  1  0
 26 51  1  0
 27 52  1  0
 27 53  1  0
 32 54  1  0
 32 55  1  0
 32 56  1  0
 33 57  1  0
 33 58  1  0
 33 59  1  0
 34 60  1  0
 35 61  1  0
 36 62  1  0
 37 63  1  0
 37 64  1  0
 38 65  1  0
 38 66  1  0
 39 67  1  0
 39 68  1  0
 40 69  1  0
 40 70  1  0
M  END
> <Uni-Dock RESULT> 
ENERGY=   -6.223  LOWER_BOUND=    7.688  UPPER_BOUND=   10.193
INTER + INTRA:          -6.223
INTER:                  -6.223
INTRA:                   0.000
UNBOUND:                 0.000

$$$$
