
     RDKit          3D

 70 72  0  0  0  0  0  0  0  0999 V2000
   46.9865    6.1645   13.4759 C   0  0  0  0  0  0  0  0  0  0  0  0
   45.7350    5.8880   13.0163 C   0  0  0  0  0  0  0  0  0  0  0  0
   47.5382    7.4173   13.3631 N   0  0  0  0  0  0  0  0  0  0  0  0
   45.5273    8.0989   12.2528 N   0  0  0  0  0  0  0  0  0  0  0  0
   46.8199    8.4237   12.7150 C   0  0  0  0  0  0  0  0  0  0  0  0
   44.9087    6.8527   12.3791 C   0  0  0  0  0  0  0  0  0  0  0  0
   47.5727    5.0722   14.0410 N   0  0  0  0  0  0  0  0  0  0  0  0
   45.5362    4.5662   13.3019 N   0  0  0  0  0  0  0  0  0  0  0  0
   46.6753    4.1154   13.9176 C   0  0  0  0  0  0  0  0  0  0  0  0
   44.3405    3.7826   13.0573 C   0  0  0  0  0  0  0  0  0  0  0  0
   47.2895    9.5530   12.5503 O   0  0  0  0  0  0  0  0  0  0  0  0
   43.7730    6.5962   11.9942 O   0  0  0  0  0  0  0  0  0  0  0  0
   44.2417    3.3079   11.6338 C   0  0  0  0  0  0  0  0  0  0  0  0
   45.0642    3.4340   10.7421 O   0  0  0  0  0  0  0  0  0  0  0  0
   48.8874    7.6747   13.8307 C   0  0  0  0  0  0  0  0  0  0  0  0
   44.7941    9.1642   11.5989 C   0  0  0  0  0  0  0  0  0  0  0  0
   43.1003    2.6229   11.4100 O   0  0  0  0  0  0  0  0  0  0  0  0
   46.8302    6.0224   13.5769 C   0  0  0  0  0  0  0  0  0  0  0  0
   45.6255    5.8143   12.9777 C   0  0  0  0  0  0  0  0  0  0  0  0
   47.3759    7.2781   13.6888 N   0  0  0  0  0  0  0  0  0  0  0  0
   45.4479    8.1144   12.5404 N   0  0  0  0  0  0  0  0  0  0  0  0
   46.6988    8.3681   13.1406 C   0  0  0  0  0  0  0  0  0  0  0  0
   44.8435    6.8604   12.4176 C   0  0  0  0  0  0  0  0  0  0  0  0
   47.3846    4.8610   14.0230 N   0  0  0  0  0  0  0  0  0  0  0  0
   45.4269    4.4634   13.0423 N   0  0  0  0  0  0  0  0  0  0  0  0
   46.5160    3.9303   13.6832 C   0  0  0  0  0  0  0  0  0  0  0  0
   44.2755    3.7158   12.5705 C   0  0  0  0  0  0  0  0  0  0  0  0
   47.1685    9.5096   13.1722 O   0  0  0  0  0  0  0  0  0  0  0  0
   43.7539    6.6604   11.8885 O   0  0  0  0  0  0  0  0  0  0  0  0
   44.3158    3.3677   11.1076 C   0  0  0  0  0  0  0  0  0  0  0  0
   43.5601    2.5738   10.5647 O   0  0  0  0  0  0  0  0  0  0  0  0
   48.6814    7.4574   14.2966 C   0  0  0  0  0  0  0  0  0  0  0  0
   44.7629    9.2615   11.9794 C   0  0  0  0  0  0  0  0  0  0  0  0
   45.2573    3.9946   10.3787 O   0  0  0  0  0  0  0  0  0  0  0  0
   44.4338    6.2800   12.2157 N   0  0  0  0  0  0  0  0  0  0  0  0
   47.2243    6.0815   13.3396 N   0  0  0  0  0  0  0  0  0  0  0  0
   45.3311    5.1580   11.9042 C   0  0  0  0  0  0  0  0  0  0  0  0
   46.4041    4.9103   12.9850 C   0  0  0  0  0  0  0  0  0  0  0  0
   45.1740    7.4307   12.7608 C   0  0  0  0  0  0  0  0  0  0  0  0
   46.7115    7.3097   12.7155 C   0  0  0  0  0  0  0  0  0  0  0  0
   46.7965    3.0938   14.2555 H   0  0  0  0  0  0  0  0  0  0  0  0
   43.4725    4.3978   13.3140 H   0  0  0  0  0  0  0  0  0  0  0  0
   44.3706    2.9114   13.7212 H   0  0  0  0  0  0  0  0  0  0  0  0
   49.5907    7.3472   13.0598 H   0  0  0  0  0  0  0  0  0  0  0  0
   49.0429    8.7405   14.0186 H   0  0  0  0  0  0  0  0  0  0  0  0
   49.0782    7.1296   14.7596 H   0  0  0  0  0  0  0  0  0  0  0  0
   43.8358    8.8269   11.1959 H   0  0  0  0  0  0  0  0  0  0  0  0
   45.3989    9.5695   10.7814 H   0  0  0  0  0  0  0  0  0  0  0  0
   44.6136    9.9648   12.3246 H   0  0  0  0  0  0  0  0  0  0  0  0
   43.1429    2.3870   10.4585 H   0  0  0  0  0  0  0  0  0  0  0  0
   46.6245    2.8702   13.8761 H   0  0  0  0  0  0  0  0  0  0  0  0
   44.2392    2.7845   13.1453 H   0  0  0  0  0  0  0  0  0  0  0  0
   43.3768    4.2987   12.7859 H   0  0  0  0  0  0  0  0  0  0  0  0
   48.8722    8.5064   14.5388 H   0  0  0  0  0  0  0  0  0  0  0  0
   48.7463    6.8693   15.2153 H   0  0  0  0  0  0  0  0  0  0  0  0
   49.4442    7.1176   13.5895 H   0  0  0  0  0  0  0  0  0  0  0  0
   45.3925    9.7015   11.1997 H   0  0  0  0  0  0  0  0  0  0  0  0
   43.7922    9.0037   11.5466 H   0  0  0  0  0  0  0  0  0  0  0  0
   44.6147   10.0092   12.7645 H   0  0  0  0  0  0  0  0  0  0  0  0
   45.1054    3.6886    9.4591 H   0  0  0  0  0  0  0  0  0  0  0  0
   43.7521    5.9784   12.9107 H   0  0  0  0  0  0  0  0  0  0  0  0
   47.2055    6.1905   14.3531 H   0  0  0  0  0  0  0  0  0  0  0  0
   44.7299    4.2509   11.7734 H   0  0  0  0  0  0  0  0  0  0  0  0
   45.8154    5.3466   10.9375 H   0  0  0  0  0  0  0  0  0  0  0  0
   47.0717    4.1082   12.6551 H   0  0  0  0  0  0  0  0  0  0  0  0
   45.9061    4.5515   13.8944 H   0  0  0  0  0  0  0  0  0  0  0  0
   44.8672    8.3298   12.2162 H   0  0  0  0  0  0  0  0  0  0  0  0
   44.8672    7.5744   13.8038 H   0  0  0  0  0  0  0  0  0  0  0  0
   47.1593    8.1737   13.2208 H   0  0  0  0  0  0  0  0  0  0  0  0
   47.0553    7.3500   11.6740 H   0  0  0  0  0  0  0  0  0  0  0  0
  2  1  2  0
  3  1  1  0
  4  5  1  0
  5  3  1  0
  6  2  1  0
  7  1  1  0
  8  2  1  0
  9  7  2  0
 10  8  1  0
 11  5  2  0
 12  6  2  0
 13 10  1  0
 14 13  2  0
 15  3  1  0
 16  4  1  0
 17 13  1  0
  6  4  1  0
  8  9  1  0
 19 18  2  0
 20 18  1  0
 21 22  1  0
 22 20  1  0
 23 19  1  0
 24 18  1  0
 25 19  1  0
 26 24  2  0
 27 25  1  0
 28 22  2  0
 29 23  2  0
 30 27  1  0
 31 30  2  0
 32 20  1  0
 33 21  1  0
 34 30  1  0
 23 21  1  0
 25 26  1  0
 36 40  1  0
 37 35  1  0
 38 37  1  0
 39 35  1  0
 40 39  1  0
 38 36  1  0
  9 41  1  0
 10 42  1  0
 10 43  1  0
 15 44  1  0
 15 45  1  0
 15 46  1  0
 16 47  1  0
 16 48  1  0
 16 49  1  0
 17 50  1  0
 26 51  1  0
 27 52  1  0
 27 53  1  0
 32 54  1  0
 32 55  1  0
 32 56  1  0
 33 57  1  0
 33 58  1  0
 33 59  1  0
 34 60  1  0
 35 61  1  0
 36 62  1  0
 37 63  1  0
 37 64  1  0
 38 65  1  0
 38 66  1  0
 39 67  1  0
 39 68  1  0
 40 69  1  0
 40 70  1  0
M  END
> <Uni-Dock RESULT> 
ENERGY=   -8.074  LOWER_BOUND=    0.000  UPPER_BOUND=    0.000
INTER + INTRA:          -8.074
INTER:                  -8.074
INTRA:                   0.000
UNBOUND:                 0.000

$$$$

     RDKit          3D

 70 72  0  0  0  0  0  0  0  0999 V2000
   44.9636    6.8213   12.3506 C   0  0  0  0  0  0  0  0  0  0  0  0
   46.1685    7.0208   12.9527 C   0  0  0  0  0  0  0  0  0  0  0  0
   44.4161    5.5677   12.2256 N   0  0  0  0  0  0  0  0  0  0  0  0
   46.3781    4.7076   13.2988 N   0  0  0  0  0  0  0  0  0  0  0  0
   45.1342    4.4606   12.6810 C   0  0  0  0  0  0  0  0  0  0  0  0
   46.9574    5.9652   13.4845 C   0  0  0  0  0  0  0  0  0  0  0  0
   44.4103    7.9902   11.9224 N   0  0  0  0  0  0  0  0  0  0  0  0
   46.3767    8.3702   12.8911 N   0  0  0  0  0  0  0  0  0  0  0  0
   45.2891    8.9132   12.2567 C   0  0  0  0  0  0  0  0  0  0  0  0
   47.4991    9.1135   13.4308 C   0  0  0  0  0  0  0  0  0  0  0  0
   44.7047    3.3109   12.5525 O   0  0  0  0  0  0  0  0  0  0  0  0
   48.0285    6.1628   14.0480 O   0  0  0  0  0  0  0  0  0  0  0  0
   48.7080    9.0645   12.5377 C   0  0  0  0  0  0  0  0  0  0  0  0
   48.8017    8.5660   11.4286 O   0  0  0  0  0  0  0  0  0  0  0  0
   43.1465    5.3808   11.5485 C   0  0  0  0  0  0  0  0  0  0  0  0
   47.0972    3.5448   13.7791 C   0  0  0  0  0  0  0  0  0  0  0  0
   49.7585    9.7188   13.0768 O   0  0  0  0  0  0  0  0  0  0  0  0
   45.0217    7.0021   12.4875 C   0  0  0  0  0  0  0  0  0  0  0  0
   46.2835    7.0850   12.9921 C   0  0  0  0  0  0  0  0  0  0  0  0
   44.3131    5.8254   12.4991 N   0  0  0  0  0  0  0  0  0  0  0  0
   46.2156    4.8008   13.5315 N   0  0  0  0  0  0  0  0  0  0  0  0
   44.9133    4.6720   13.0056 C   0  0  0  0  0  0  0  0  0  0  0  0
   46.9697    5.9769   13.5587 C   0  0  0  0  0  0  0  0  0  0  0  0
   44.5911    8.1964   11.9940 N   0  0  0  0  0  0  0  0  0  0  0  0
   46.6597    8.3839   12.7928 N   0  0  0  0  0  0  0  0  0  0  0  0
   45.6039    9.0165   12.1876 C   0  0  0  0  0  0  0  0  0  0  0  0
   47.9118    9.0103   13.1765 C   0  0  0  0  0  0  0  0  0  0  0  0
   44.3374    3.5798   12.9953 O   0  0  0  0  0  0  0  0  0  0  0  0
   48.1042    6.0673   14.0192 O   0  0  0  0  0  0  0  0  0  0  0  0
   49.0320    8.8178   12.1913 C   0  0  0  0  0  0  0  0  0  0  0  0
   50.0906    9.4298   12.2197 O   0  0  0  0  0  0  0  0  0  0  0  0
   42.9861    5.7641   11.9148 C   0  0  0  0  0  0  0  0  0  0  0  0
   46.8177    3.5902   14.0530 C   0  0  0  0  0  0  0  0  0  0  0  0
   48.8202    7.8997   11.2306 O   0  0  0  0  0  0  0  0  0  0  0  0
   47.5089    6.4811   13.5851 N   0  0  0  0  0  0  0  0  0  0  0  0
   44.9278    6.8312   12.0667 N   0  0  0  0  0  0  0  0  0  0  0  0
   47.4024    7.3442   12.3999 C   0  0  0  0  0  0  0  0  0  0  0  0
   45.9729    7.8665   12.1459 C   0  0  0  0  0  0  0  0  0  0  0  0
   46.3806    5.5384   13.6720 C   0  0  0  0  0  0  0  0  0  0  0  0
   45.4473    5.5087   12.4438 C   0  0  0  0  0  0  0  0  0  0  0  0
   45.1869    9.9746   12.0690 H   0  0  0  0  0  0  0  0  0  0  0  0
   47.7374    8.7014   14.4163 H   0  0  0  0  0  0  0  0  0  0  0  0
   47.1843   10.1568   13.5458 H   0  0  0  0  0  0  0  0  0  0  0  0
   43.3278    5.3576   10.4702 H   0  0  0  0  0  0  0  0  0  0  0  0
   42.6757    4.4400   11.8463 H   0  0  0  0  0  0  0  0  0  0  0  0
   42.4627    6.1998   11.7901 H   0  0  0  0  0  0  0  0  0  0  0  0
   48.0846    3.7967   14.1742 H   0  0  0  0  0  0  0  0  0  0  0  0
   47.2161    2.8299   12.9586 H   0  0  0  0  0  0  0  0  0  0  0  0
   46.5079    3.0678   14.5699 H   0  0  0  0  0  0  0  0  0  0  0  0
   50.4787    9.6010   12.4207 H   0  0  0  0  0  0  0  0  0  0  0  0
   45.6244   10.0641   11.9137 H   0  0  0  0  0  0  0  0  0  0  0  0
   47.7181   10.0838   13.2726 H   0  0  0  0  0  0  0  0  0  0  0  0
   48.2072    8.6163   14.1519 H   0  0  0  0  0  0  0  0  0  0  0  0
   42.4565    4.8552   12.2125 H   0  0  0  0  0  0  0  0  0  0  0  0
   42.4006    6.6299   12.2336 H   0  0  0  0  0  0  0  0  0  0  0  0
   43.0850    5.7699   10.8251 H   0  0  0  0  0  0  0  0  0  0  0  0
   46.8854    2.8542   13.2458 H   0  0  0  0  0  0  0  0  0  0  0  0
   47.8176    3.7586   14.4630 H   0  0  0  0  0  0  0  0  0  0  0  0
   46.1757    3.1808   14.8388 H   0  0  0  0  0  0  0  0  0  0  0  0
   49.6579    7.8745   10.7207 H   0  0  0  0  0  0  0  0  0  0  0  0
   47.5065    7.0626   14.4221 H   0  0  0  0  0  0  0  0  0  0  0  0
   44.1748    7.0871   12.7044 H   0  0  0  0  0  0  0  0  0  0  0  0
   48.0845    8.1939   12.5194 H   0  0  0  0  0  0  0  0  0  0  0  0
   47.7557    6.7889   11.5216 H   0  0  0  0  0  0  0  0  0  0  0  0
   45.9583    8.4438   11.2161 H   0  0  0  0  0  0  0  0  0  0  0  0
   45.7076    8.5616   12.9523 H   0  0  0  0  0  0  0  0  0  0  0  0
   46.7807    4.5338   13.8447 H   0  0  0  0  0  0  0  0  0  0  0  0
   45.7843    5.7959   14.5556 H   0  0  0  0  0  0  0  0  0  0  0  0
   44.5997    4.8435   12.6471 H   0  0  0  0  0  0  0  0  0  0  0  0
   45.9784    5.0771   11.5858 H   0  0  0  0  0  0  0  0  0  0  0  0
  2  1  2  0
  3  1  1  0
  4  5  1  0
  5  3  1  0
  6  2  1  0
  7  1  1  0
  8  2  1  0
  9  7  2  0
 10  8  1  0
 11  5  2  0
 12  6  2  0
 13 10  1  0
 14 13  2  0
 15  3  1  0
 16  4  1  0
 17 13  1  0
  6  4  1  0
  8  9  1  0
 19 18  2  0
 20 18  1  0
 21 22  1  0
 22 20  1  0
 23 19  1  0
 24 18  1  0
 25 19  1  0
 26 24  2  0
 27 25  1  0
 28 22  2  0
 29 23  2  0
 30 27  1  0
 31 30  2  0
 32 20  1  0
 33 21  1  0
 34 30  1  0
 23 21  1  0
 25 26  1  0
 36 40  1  0
 37 35  1  0
 38 37  1  0
 39 35  1  0
 40 39  1  0
 38 36  1  0
  9 41  1  0
 10 42  1  0
 10 43  1  0
 15 44  1  0
 15 45  1  0
 15 46  1  0
 16 47  1  0
 16 48  1  0
 16 49  1  0
 17 50  1  0
 26 51  1  0
 27 52  1  0
 27 53  1  0
 32 54  1  0
 32 55  1  0
 32 56  1  0
 33 57  1  0
 33 58  1  0
 33 59  1  0
 34 60  1  0
 35 61  1  0
 36 62  1  0
 37 63  1  0
 37 64  1  0
 38 65  1  0
 38 66  1  0
 39 67  1  0
 39 68  1  0
 40 69  1  0
 40 70  1  0
M  END
> <Uni-Dock RESULT> 
ENERGY=   -7.820  LOWER_BOUND=    1.554  UPPER_BOUND=    5.119
INTER + INTRA:          -7.820
INTER:                  -7.820
INTRA:                   0.000
UNBOUND:                 0.000

$$$$

     RDKit          3D

 70 72  0  0  0  0  0  0  0  0999 V2000
   47.5087    6.9344   13.3994 C   0  0  0  0  0  0  0  0  0  0  0  0
   46.2299    7.1425   12.9807 C   0  0  0  0  0  0  0  0  0  0  0  0
   48.4599    7.9235   13.3386 N   0  0  0  0  0  0  0  0  0  0  0  0
   46.7898    9.3381   12.3637 N   0  0  0  0  0  0  0  0  0  0  0  0
   48.1239    9.1607   12.7863 C   0  0  0  0  0  0  0  0  0  0  0  0
   45.7784    8.3774   12.4414 C   0  0  0  0  0  0  0  0  0  0  0  0
   47.6892    5.6687   13.8699 N   0  0  0  0  0  0  0  0  0  0  0  0
   45.5890    5.9543   13.1937 N   0  0  0  0  0  0  0  0  0  0  0  0
   46.5123    5.0933   13.7288 C   0  0  0  0  0  0  0  0  0  0  0  0
   44.1904    5.6532   12.9558 C   0  0  0  0  0  0  0  0  0  0  0  0
   48.9540   10.0664   12.6698 O   0  0  0  0  0  0  0  0  0  0  0  0
   44.6167    8.5587   12.0931 O   0  0  0  0  0  0  0  0  0  0  0  0
   43.9025    5.3471   11.5118 C   0  0  0  0  0  0  0  0  0  0  0  0
   44.6985    5.2453   10.5933 O   0  0  0  0  0  0  0  0  0  0  0  0
   49.8238    7.6631   13.7599 C   0  0  0  0  0  0  0  0  0  0  0  0
   46.4602   10.6360   11.8097 C   0  0  0  0  0  0  0  0  0  0  0  0
   42.5895    5.1178   11.2983 O   0  0  0  0  0  0  0  0  0  0  0  0
   47.3149    6.8483   13.4985 C   0  0  0  0  0  0  0  0  0  0  0  0
   46.1008    7.1143   12.9426 C   0  0  0  0  0  0  0  0  0  0  0  0
   48.2661    7.8257   13.6622 N   0  0  0  0  0  0  0  0  0  0  0  0
   46.7268    9.3590   12.6550 N   0  0  0  0  0  0  0  0  0  0  0  0
   47.9999    9.1196   13.2126 C   0  0  0  0  0  0  0  0  0  0  0  0
   45.7209    8.4044   12.4832 C   0  0  0  0  0  0  0  0  0  0  0  0
   47.4390    5.5375   13.8474 N   0  0  0  0  0  0  0  0  0  0  0  0
   45.4454    5.9149   12.9335 N   0  0  0  0  0  0  0  0  0  0  0  0
   46.2936    4.9925   13.4910 C   0  0  0  0  0  0  0  0  0  0  0  0
   44.0960    5.6486   12.4692 C   0  0  0  0  0  0  0  0  0  0  0  0
   48.8385   10.0224   13.2927 O   0  0  0  0  0  0  0  0  0  0  0  0
   44.6190    8.6331   11.9925 O   0  0  0  0  0  0  0  0  0  0  0  0
   43.9818    5.4158   10.9875 C   0  0  0  0  0  0  0  0  0  0  0  0
   42.9856    4.9744   10.4317 O   0  0  0  0  0  0  0  0  0  0  0  0
   49.5648    7.4972   14.2204 C   0  0  0  0  0  0  0  0  0  0  0  0
   46.4728   10.7101   12.1965 C   0  0  0  0  0  0  0  0  0  0  0  0
   45.0672    5.7292   10.2566 O   0  0  0  0  0  0  0  0  0  0  0  0
   45.1304    8.0180   12.2649 N   0  0  0  0  0  0  0  0  0  0  0  0
   47.6998    6.7844   13.2478 N   0  0  0  0  0  0  0  0  0  0  0  0
   45.5738    6.6807   11.8454 C   0  0  0  0  0  0  0  0  0  0  0  0
   46.5156    5.9988   12.8596 C   0  0  0  0  0  0  0  0  0  0  0  0
   46.2365    8.7983   12.8453 C   0  0  0  0  0  0  0  0  0  0  0  0
   47.6341    8.1563   12.7236 C   0  0  0  0  0  0  0  0  0  0  0  0
   46.2770    4.0713   13.9979 H   0  0  0  0  0  0  0  0  0  0  0  0
   43.5968    6.5103   13.2884 H   0  0  0  0  0  0  0  0  0  0  0  0
   43.9290    4.7794   13.5632 H   0  0  0  0  0  0  0  0  0  0  0  0
   50.3525    7.1695   12.9395 H   0  0  0  0  0  0  0  0  0  0  0  0
   50.3448    8.5924   14.0053 H   0  0  0  0  0  0  0  0  0  0  0  0
   49.8321    7.0194   14.6443 H   0  0  0  0  0  0  0  0  0  0  0  0
   45.4362   10.6816   11.4305 H   0  0  0  0  0  0  0  0  0  0  0  0
   47.1510   10.8652   10.9921 H   0  0  0  0  0  0  0  0  0  0  0  0
   46.5853   11.3943   12.5904 H   0  0  0  0  0  0  0  0  0  0  0  0
   42.5273    4.9518   10.3332 H   0  0  0  0  0  0  0  0  0  0  0  0
   46.0299    3.9493   13.6137 H   0  0  0  0  0  0  0  0  0  0  0  0
   43.7495    4.7482   12.9872 H   0  0  0  0  0  0  0  0  0  0  0  0
   43.4615    6.4892   12.7601 H   0  0  0  0  0  0  0  0  0  0  0  0
   50.1142    8.3945   14.5174 H   0  0  0  0  0  0  0  0  0  0  0  0
   49.4399    6.8576   15.0977 H   0  0  0  0  0  0  0  0  0  0  0  0
   50.1464    6.9668   13.4603 H   0  0  0  0  0  0  0  0  0  0  0  0
   47.1998   10.9604   11.4175 H   0  0  0  0  0  0  0  0  0  0  0  0
   45.4643   10.8365   11.7929 H   0  0  0  0  0  0  0  0  0  0  0  0
   46.6110   11.4034   13.0316 H   0  0  0  0  0  0  0  0  0  0  0  0
   44.7990    5.5627    9.3278 H   0  0  0  0  0  0  0  0  0  0  0  0
   44.4011    7.9213   12.9702 H   0  0  0  0  0  0  0  0  0  0  0  0
   47.7414    6.8190   14.2659 H   0  0  0  0  0  0  0  0  0  0  0  0
   44.6916    6.0499   11.6867 H   0  0  0  0  0  0  0  0  0  0  0  0
   46.0730    6.7599   10.8712 H   0  0  0  0  0  0  0  0  0  0  0  0
   46.8548    5.0414   12.4517 H   0  0  0  0  0  0  0  0  0  0  0  0
   45.9429    5.7692   13.7669 H   0  0  0  0  0  0  0  0  0  0  0  0
   46.2509    9.7852   12.3710 H   0  0  0  0  0  0  0  0  0  0  0  0
   46.0209    8.9629   13.9079 H   0  0  0  0  0  0  0  0  0  0  0  0
   48.3654    8.7725   13.2600 H   0  0  0  0  0  0  0  0  0  0  0  0
   47.9485    8.1508   11.6720 H   0  0  0  0  0  0  0  0  0  0  0  0
  2  1  2  0
  3  1  1  0
  4  5  1  0
  5  3  1  0
  6  2  1  0
  7  1  1  0
  8  2  1  0
  9  7  2  0
 10  8  1  0
 11  5  2  0
 12  6  2  0
 13 10  1  0
 14 13  2  0
 15  3  1  0
 16  4  1  0
 17 13  1  0
  6  4  1  0
  8  9  1  0
 19 18  2  0
 20 18  1  0
 21 22  1  0
 22 20  1  0
 23 19  1  0
 24 18  1  0
 25 19  1  0
 26 24  2  0
 27 25  1  0
 28 22  2  0
 29 23  2  0
 30 27  1  0
 31 30  2  0
 32 20  1  0
 33 21  1  0
 34 30  1  0
 23 21  1  0
 25 26  1  0
 36 40  1  0
 37 35  1  0
 38 37  1  0
 39 35  1  0
 40 39  1  0
 38 36  1  0
  9 41  1  0
 10 42  1  0
 10 43  1  0
 15 44  1  0
 15 45  1  0
 15 46  1  0
 16 47  1  0
 16 48  1  0
 16 49  1  0
 17 50  1  0
 26 51  1  0
 27 52  1  0
 27 53  1  0
 32 54  1  0
 32 55  1  0
 32 56  1  0
 33 57  1  0
 33 58  1  0
 33 59  1  0
 34 60  1  0
 35 61  1  0
 36 62  1  0
 37 63  1  0
 37 64  1  0
 38 65  1  0
 38 66  1  0
 39 67  1  0
 39 68  1  0
 40 69  1  0
 40 70  1  0
M  END
> <Uni-Dock RESULT> 
ENERGY=   -7.359  LOWER_BOUND=    1.377  UPPER_BOUND=    1.632
INTER + INTRA:          -7.359
INTER:                  -7.359
INTRA:                   0.000
UNBOUND:                 0.000

$$$$

     RDKit          3D

 70 72  0  0  0  0  0  0  0  0999 V2000
   45.6572    7.5609   12.5463 C   0  0  0  0  0  0  0  0  0  0  0  0
   46.6617    6.6658   12.7556 C   0  0  0  0  0  0  0  0  0  0  0  0
   45.9101    8.8913   12.3163 N   0  0  0  0  0  0  0  0  0  0  0  0
   48.2405    8.3939   12.5672 N   0  0  0  0  0  0  0  0  0  0  0  0
   47.2277    9.3511   12.3476 C   0  0  0  0  0  0  0  0  0  0  0  0
   48.0362    7.0263   12.7663 C   0  0  0  0  0  0  0  0  0  0  0  0
   44.4315    6.9678   12.5889 N   0  0  0  0  0  0  0  0  0  0  0  0
   46.0343    5.4659   12.9424 N   0  0  0  0  0  0  0  0  0  0  0  0
   44.6873    5.6992   12.8362 C   0  0  0  0  0  0  0  0  0  0  0  0
   46.6539    4.1730   13.1612 C   0  0  0  0  0  0  0  0  0  0  0  0
   47.5029   10.5438   12.1900 O   0  0  0  0  0  0  0  0  0  0  0  0
   48.9315    6.2044   12.9295 O   0  0  0  0  0  0  0  0  0  0  0  0
   47.0817    3.9711   14.5887 C   0  0  0  0  0  0  0  0  0  0  0  0
   46.8884    4.7080   15.5412 O   0  0  0  0  0  0  0  0  0  0  0  0
   44.8184    9.8290   12.1307 C   0  0  0  0  0  0  0  0  0  0  0  0
   49.6013    8.8918   12.5783 C   0  0  0  0  0  0  0  0  0  0  0  0
   47.7006    2.7846   14.7654 O   0  0  0  0  0  0  0  0  0  0  0  0
   45.6633    7.3396   12.4705 C   0  0  0  0  0  0  0  0  0  0  0  0
   46.7241    6.5485   12.7908 C   0  0  0  0  0  0  0  0  0  0  0  0
   45.8291    8.6323   12.0367 N   0  0  0  0  0  0  0  0  0  0  0  0
   48.1894    8.3120   12.2845 N   0  0  0  0  0  0  0  0  0  0  0  0
   47.1158    9.1662   11.9576 C   0  0  0  0  0  0  0  0  0  0  0  0
   48.0737    6.9869   12.7131 C   0  0  0  0  0  0  0  0  0  0  0  0
   44.4766    6.6923   12.6377 N   0  0  0  0  0  0  0  0  0  0  0  0
   46.1736    5.3616   13.1866 N   0  0  0  0  0  0  0  0  0  0  0  0
   44.8132    5.4963   13.0761 C   0  0  0  0  0  0  0  0  0  0  0  0
   46.8716    4.1600   13.6063 C   0  0  0  0  0  0  0  0  0  0  0  0
   47.3156   10.3369   11.6195 O   0  0  0  0  0  0  0  0  0  0  0  0
   49.0220    6.2602   12.9957 O   0  0  0  0  0  0  0  0  0  0  0  0
   47.2732    4.1472   15.0558 C   0  0  0  0  0  0  0  0  0  0  0  0
   47.6765    3.1588   15.6530 O   0  0  0  0  0  0  0  0  0  0  0  0
   44.6736    9.4601   11.7439 C   0  0  0  0  0  0  0  0  0  0  0  0
   49.5160    8.8879   12.1937 C   0  0  0  0  0  0  0  0  0  0  0  0
   47.1721    5.3213   15.7054 O   0  0  0  0  0  0  0  0  0  0  0  0
   48.1791    6.3188   13.0098 N   0  0  0  0  0  0  0  0  0  0  0  0
   45.4913    7.6610   12.7571 N   0  0  0  0  0  0  0  0  0  0  0  0
   47.0650    6.0307   13.9246 C   0  0  0  0  0  0  0  0  0  0  0  0
   45.6772    6.3082   13.3101 C   0  0  0  0  0  0  0  0  0  0  0  0
   47.9649    7.5768   12.2744 C   0  0  0  0  0  0  0  0  0  0  0  0
   46.7536    8.4141   12.7348 C   0  0  0  0  0  0  0  0  0  0  0  0
   43.9449    4.9183   12.9427 H   0  0  0  0  0  0  0  0  0  0  0  0
   47.5152    4.0910   12.4910 H   0  0  0  0  0  0  0  0  0  0  0  0
   45.9207    3.4025   12.8977 H   0  0  0  0  0  0  0  0  0  0  0  0
   44.4392   10.1198   13.1145 H   0  0  0  0  0  0  0  0  0  0  0  0
   45.1547   10.7263   11.6042 H   0  0  0  0  0  0  0  0  0  0  0  0
   44.0161    9.3677   11.5477 H   0  0  0  0  0  0  0  0  0  0  0  0
   50.3289    8.1163   12.8310 H   0  0  0  0  0  0  0  0  0  0  0  0
   49.6823    9.7042   13.3075 H   0  0  0  0  0  0  0  0  0  0  0  0
   49.8379    9.2929   11.5867 H   0  0  0  0  0  0  0  0  0  0  0  0
   47.9446    2.7788   15.7158 H   0  0  0  0  0  0  0  0  0  0  0  0
   44.1212    4.7009   13.3237 H   0  0  0  0  0  0  0  0  0  0  0  0
   46.1958    3.3168   13.4286 H   0  0  0  0  0  0  0  0  0  0  0  0
   47.7573    4.0409   12.9775 H   0  0  0  0  0  0  0  0  0  0  0  0
   44.9520   10.3567   11.1837 H   0  0  0  0  0  0  0  0  0  0  0  0
   43.9498    8.8910   11.1553 H   0  0  0  0  0  0  0  0  0  0  0  0
   44.2164    9.7668   12.6895 H   0  0  0  0  0  0  0  0  0  0  0  0
   49.5798    9.7364   12.8822 H   0  0  0  0  0  0  0  0  0  0  0  0
   50.3051    8.1720   12.4405 H   0  0  0  0  0  0  0  0  0  0  0  0
   49.6769    9.2575   11.1765 H   0  0  0  0  0  0  0  0  0  0  0  0
   47.5158    5.1385   16.6059 H   0  0  0  0  0  0  0  0  0  0  0  0
   48.2592    5.5609   12.3330 H   0  0  0  0  0  0  0  0  0  0  0  0
   45.1401    7.5718   11.8042 H   0  0  0  0  0  0  0  0  0  0  0  0
   47.1235    4.9802   14.2322 H   0  0  0  0  0  0  0  0  0  0  0  0
   47.1914    6.6251   14.8385 H   0  0  0  0  0  0  0  0  0  0  0  0
   44.9053    6.1351   14.0665 H   0  0  0  0  0  0  0  0  0  0  0  0
   45.5001    5.5815   12.5074 H   0  0  0  0  0  0  0  0  0  0  0  0
   48.8731    8.1835   12.3533 H   0  0  0  0  0  0  0  0  0  0  0  0
   47.8380    7.3369   11.2118 H   0  0  0  0  0  0  0  0  0  0  0  0
   46.6351    9.2782   12.0703 H   0  0  0  0  0  0  0  0  0  0  0  0
   46.9437    8.8200   13.7366 H   0  0  0  0  0  0  0  0  0  0  0  0
  2  1  2  0
  3  1  1  0
  4  5  1  0
  5  3  1  0
  6  2  1  0
  7  1  1  0
  8  2  1  0
  9  7  2  0
 10  8  1  0
 11  5  2  0
 12  6  2  0
 13 10  1  0
 14 13  2  0
 15  3  1  0
 16  4  1  0
 17 13  1  0
  6  4  1  0
  8  9  1  0
 19 18  2  0
 20 18  1  0
 21 22  1  0
 22 20  1  0
 23 19  1  0
 24 18  1  0
 25 19  1  0
 26 24  2  0
 27 25  1  0
 28 22  2  0
 29 23  2  0
 30 27  1  0
 31 30  2  0
 32 20  1  0
 33 21  1  0
 34 30  1  0
 23 21  1  0
 25 26  1  0
 36 40  1  0
 37 35  1  0
 38 37  1  0
 39 35  1  0
 40 39  1  0
 38 36  1  0
  9 41  1  0
 10 42  1  0
 10 43  1  0
 15 44  1  0
 15 45  1  0
 15 46  1  0
 16 47  1  0
 16 48  1  0
 16 49  1  0
 17 50  1  0
 26 51  1  0
 27 52  1  0
 27 53  1  0
 32 54  1  0
 32 55  1  0
 32 56  1  0
 33 57  1  0
 33 58  1  0
 33 59  1  0
 34 60  1  0
 35 61  1  0
 36 62  1  0
 37 63  1  0
 37 64  1  0
 38 65  1  0
 38 66  1  0
 39 67  1  0
 39 68  1  0
 40 69  1  0
 40 70  1  0
M  END
> <Uni-Dock RESULT> 
ENERGY=   -6.851  LOWER_BOUND=    2.339  UPPER_BOUND=    3.540
INTER + INTRA:          -6.851
INTER:                  -6.851
INTRA:                   0.000
UNBOUND:                 0.000

$$$$

     RDKit          3D

 70 72  0  0  0  0  0  0  0  0999 V2000
   47.2884    6.8985   13.5296 C   0  0  0  0  0  0  0  0  0  0  0  0
   46.6148    5.7739   13.1616 C   0  0  0  0  0  0  0  0  0  0  0  0
   48.0499    6.9446   14.6718 N   0  0  0  0  0  0  0  0  0  0  0  0
   47.3854    4.6812   15.0921 N   0  0  0  0  0  0  0  0  0  0  0  0
   48.0962    5.8270   15.5070 C   0  0  0  0  0  0  0  0  0  0  0  0
   46.6307    4.5731   13.9215 C   0  0  0  0  0  0  0  0  0  0  0  0
   47.1091    7.9125   12.6375 N   0  0  0  0  0  0  0  0  0  0  0  0
   45.9846    6.1037   11.9945 N   0  0  0  0  0  0  0  0  0  0  0  0
   46.3103    7.4069   11.7197 C   0  0  0  0  0  0  0  0  0  0  0  0
   45.1659    5.2431   11.1622 C   0  0  0  0  0  0  0  0  0  0  0  0
   48.7307    5.8336   16.5654 O   0  0  0  0  0  0  0  0  0  0  0  0
   46.0407    3.5594   13.5638 O   0  0  0  0  0  0  0  0  0  0  0  0
   43.7595    5.1087   11.6774 C   0  0  0  0  0  0  0  0  0  0  0  0
   43.2468    5.6894   12.6194 O   0  0  0  0  0  0  0  0  0  0  0  0
   48.7292    8.1674   15.0574 C   0  0  0  0  0  0  0  0  0  0  0  0
   47.4622    3.5280   15.9663 C   0  0  0  0  0  0  0  0  0  0  0  0
   43.0250    4.2662   10.9205 O   0  0  0  0  0  0  0  0  0  0  0  0
   47.2592    6.8200   13.3110 C   0  0  0  0  0  0  0  0  0  0  0  0
   46.5261    5.6934   13.0941 C   0  0  0  0  0  0  0  0  0  0  0  0
   48.1950    6.8930   14.3139 N   0  0  0  0  0  0  0  0  0  0  0  0
   47.6076    4.6454   14.8956 N   0  0  0  0  0  0  0  0  0  0  0  0
   48.3753    5.7985   15.1604 C   0  0  0  0  0  0  0  0  0  0  0  0
   46.6576    4.5160   13.8790 C   0  0  0  0  0  0  0  0  0  0  0  0
   46.9410    7.8115   12.4329 N   0  0  0  0  0  0  0  0  0  0  0  0
   45.7073    6.0008   12.0436 N   0  0  0  0  0  0  0  0  0  0  0  0
   45.9952    7.2909   11.6777 C   0  0  0  0  0  0  0  0  0  0  0  0
   44.7411    5.1344   11.3932 C   0  0  0  0  0  0  0  0  0  0  0  0
   49.1690    5.8301   16.1058 O   0  0  0  0  0  0  0  0  0  0  0  0
   45.9971    3.5031   13.6668 O   0  0  0  0  0  0  0  0  0  0  0  0
   43.3999    5.0772   12.0718 C   0  0  0  0  0  0  0  0  0  0  0  0
   42.3961    4.5817   11.5789 O   0  0  0  0  0  0  0  0  0  0  0  0
   48.9285    8.1242   14.5425 C   0  0  0  0  0  0  0  0  0  0  0  0
   47.8129    3.5214   15.7868 C   0  0  0  0  0  0  0  0  0  0  0  0
   43.3400    5.6138   13.3044 O   0  0  0  0  0  0  0  0  0  0  0  0
   46.0907    4.3145   13.4504 N   0  0  0  0  0  0  0  0  0  0  0  0
   47.1592    7.1271   13.6438 N   0  0  0  0  0  0  0  0  0  0  0  0
   45.2532    5.4953   13.1948 C   0  0  0  0  0  0  0  0  0  0  0  0
   46.0569    6.7345   12.7488 C   0  0  0  0  0  0  0  0  0  0  0  0
   47.3177    4.6690   14.1840 C   0  0  0  0  0  0  0  0  0  0  0  0
   47.3867    6.1236   14.6937 C   0  0  0  0  0  0  0  0  0  0  0  0
   45.9457    7.9328   10.8462 H   0  0  0  0  0  0  0  0  0  0  0  0
   45.6475    4.2618   11.1108 H   0  0  0  0  0  0  0  0  0  0  0  0
   45.1361    5.6802   10.1578 H   0  0  0  0  0  0  0  0  0  0  0  0
   48.0119    8.8177   15.5661 H   0  0  0  0  0  0  0  0  0  0  0  0
   49.5593    7.9594   15.7379 H   0  0  0  0  0  0  0  0  0  0  0  0
   49.1268    8.6761   14.1744 H   0  0  0  0  0  0  0  0  0  0  0  0
   46.8284    2.7040   15.6290 H   0  0  0  0  0  0  0  0  0  0  0  0
   47.1561    3.8197   16.9760 H   0  0  0  0  0  0  0  0  0  0  0  0
   48.5018    3.1848   16.0063 H   0  0  0  0  0  0  0  0  0  0  0  0
   42.1485    4.2475   11.3615 H   0  0  0  0  0  0  0  0  0  0  0  0
   45.4931    7.7971   10.8626 H   0  0  0  0  0  0  0  0  0  0  0  0
   44.5973    5.5183   10.3778 H   0  0  0  0  0  0  0  0  0  0  0  0
   45.1670    4.1300   11.3336 H   0  0  0  0  0  0  0  0  0  0  0  0
   49.7940    7.9629   15.1907 H   0  0  0  0  0  0  0  0  0  0  0  0
   49.2765    8.5305   13.5896 H   0  0  0  0  0  0  0  0  0  0  0  0
   48.2597    8.8434   15.0250 H   0  0  0  0  0  0  0  0  0  0  0  0
   47.5605    3.8292   16.8064 H   0  0  0  0  0  0  0  0  0  0  0  0
   47.2044    2.6531   15.5186 H   0  0  0  0  0  0  0  0  0  0  0  0
   48.8689    3.2357   15.7653 H   0  0  0  0  0  0  0  0  0  0  0  0
   42.4216    5.4454   13.6053 H   0  0  0  0  0  0  0  0  0  0  0  0
   46.3583    3.8967   12.5602 H   0  0  0  0  0  0  0  0  0  0  0  0
   48.0067    7.2222   13.0853 H   0  0  0  0  0  0  0  0  0  0  0  0
   44.5144    5.2441   12.4250 H   0  0  0  0  0  0  0  0  0  0  0  0
   44.6823    5.7306   14.1022 H   0  0  0  0  0  0  0  0  0  0  0  0
   45.3785    7.5868   12.6419 H   0  0  0  0  0  0  0  0  0  0  0  0
   46.4755    6.5386   11.7537 H   0  0  0  0  0  0  0  0  0  0  0  0
   47.4246    3.9847   15.0321 H   0  0  0  0  0  0  0  0  0  0  0  0
   48.1761    4.4905   13.5253 H   0  0  0  0  0  0  0  0  0  0  0  0
   48.3693    6.3045   15.1453 H   0  0  0  0  0  0  0  0  0  0  0  0
   46.6488    6.2711   15.4928 H   0  0  0  0  0  0  0  0  0  0  0  0
  2  1  2  0
  3  1  1  0
  4  5  1  0
  5  3  1  0
  6  2  1  0
  7  1  1  0
  8  2  1  0
  9  7  2  0
 10  8  1  0
 11  5  2  0
 12  6  2  0
 13 10  1  0
 14 13  2  0
 15  3  1  0
 16  4  1  0
 17 13  1  0
  6  4  1  0
  8  9  1  0
 19 18  2  0
 20 18  1  0
 21 22  1  0
 22 20  1  0
 23 19  1  0
 24 18  1  0
 25 19  1  0
 26 24  2  0
 27 25  1  0
 28 22  2  0
 29 23  2  0
 30 27  1  0
 31 30  2  0
 32 20  1  0
 33 21  1  0
 34 30  1  0
 23 21  1  0
 25 26  1  0
 36 40  1  0
 37 35  1  0
 38 37  1  0
 39 35  1  0
 40 39  1  0
 38 36  1  0
  9 41  1  0
 10 42  1  0
 10 43  1  0
 15 44  1  0
 15 45  1  0
 15 46  1  0
 16 47  1  0
 16 48  1  0
 16 49  1  0
 17 50  1  0
 26 51  1  0
 27 52  1  0
 27 53  1  0
 32 54  1  0
 32 55  1  0
 32 56  1  0
 33 57  1  0
 33 58  1  0
 33 59  1  0
 34 60  1  0
 35 61  1  0
 36 62  1  0
 37 63  1  0
 37 64  1  0
 38 65  1  0
 38 66  1  0
 39 67  1  0
 39 68  1  0
 40 69  1  0
 40 70  1  0
M  END
> <Uni-Dock RESULT> 
ENERGY=   -6.728  LOWER_BOUND=    1.806  UPPER_BOUND=    3.403
INTER + INTRA:          -6.728
INTER:                  -6.728
INTRA:                   0.000
UNBOUND:                 0.000

$$$$

     RDKit          3D

 70 72  0  0  0  0  0  0  0  0999 V2000
   52.0372    4.4609   18.3636 C   0  0  0  0  0  0  0  0  0  0  0  0
   51.1176    3.6802   17.7321 C   0  0  0  0  0  0  0  0  0  0  0  0
   53.2098    3.9427   18.8568 N   0  0  0  0  0  0  0  0  0  0  0  0
   52.4701    1.7950   18.0944 N   0  0  0  0  0  0  0  0  0  0  0  0
   53.4458    2.5706   18.7551 C   0  0  0  0  0  0  0  0  0  0  0  0
   51.2826    2.2816   17.5422 C   0  0  0  0  0  0  0  0  0  0  0  0
   51.6432    5.7638   18.4213 N   0  0  0  0  0  0  0  0  0  0  0  0
   50.1058    4.5320   17.3876 N   0  0  0  0  0  0  0  0  0  0  0  0
   50.4669    5.7793   17.8281 C   0  0  0  0  0  0  0  0  0  0  0  0
   48.8971    4.2118   16.6527 C   0  0  0  0  0  0  0  0  0  0  0  0
   54.4636    2.0509   19.2208 O   0  0  0  0  0  0  0  0  0  0  0  0
   50.4580    1.5957   16.9478 O   0  0  0  0  0  0  0  0  0  0  0  0
   47.8396    3.5897   17.5222 C   0  0  0  0  0  0  0  0  0  0  0  0
   47.8647    3.4214   18.7299 O   0  0  0  0  0  0  0  0  0  0  0  0
   54.1560    4.7920   19.5559 C   0  0  0  0  0  0  0  0  0  0  0  0
   52.7449    0.3763   17.9857 C   0  0  0  0  0  0  0  0  0  0  0  0
   46.7407    3.2524   16.8145 O   0  0  0  0  0  0  0  0  0  0  0  0
   51.9070    4.5223   18.1791 C   0  0  0  0  0  0  0  0  0  0  0  0
   50.9982    3.6424   17.6756 C   0  0  0  0  0  0  0  0  0  0  0  0
   53.1800    4.1336   18.5185 N   0  0  0  0  0  0  0  0  0  0  0  0
   52.5801    1.9154   17.8441 N   0  0  0  0  0  0  0  0  0  0  0  0
   53.5440    2.7935   18.3816 C   0  0  0  0  0  0  0  0  0  0  0  0
   51.2805    2.2651   17.4680 C   0  0  0  0  0  0  0  0  0  0  0  0
   51.3916    5.7781   18.2917 N   0  0  0  0  0  0  0  0  0  0  0  0
   49.8640    4.3793   17.4780 N   0  0  0  0  0  0  0  0  0  0  0  0
   50.1507    5.6639   17.8638 C   0  0  0  0  0  0  0  0  0  0  0  0
   48.5999    3.9255   16.9272 C   0  0  0  0  0  0  0  0  0  0  0  0
   54.6596    2.3841   18.7170 O   0  0  0  0  0  0  0  0  0  0  0  0
   50.4548    1.4839   17.0041 O   0  0  0  0  0  0  0  0  0  0  0  0
   47.6812    3.2788   17.9274 C   0  0  0  0  0  0  0  0  0  0  0  0
   46.5035    3.0220   17.7195 O   0  0  0  0  0  0  0  0  0  0  0  0
   54.1091    5.0899   19.0914 C   0  0  0  0  0  0  0  0  0  0  0  0
   52.9812    0.5294   17.7101 C   0  0  0  0  0  0  0  0  0  0  0  0
   48.2282    2.9735   19.1183 O   0  0  0  0  0  0  0  0  0  0  0  0
   50.5628    2.2705   17.2932 N   0  0  0  0  0  0  0  0  0  0  0  0
   52.0030    4.5562   18.6315 N   0  0  0  0  0  0  0  0  0  0  0  0
   49.8747    3.2330   18.1656 C   0  0  0  0  0  0  0  0  0  0  0  0
   50.5812    4.6022   18.2485 C   0  0  0  0  0  0  0  0  0  0  0  0
   52.0220    2.3079   17.4898 C   0  0  0  0  0  0  0  0  0  0  0  0
   52.5086    3.1763   18.6685 C   0  0  0  0  0  0  0  0  0  0  0  0
   49.8452    6.6549   17.6894 H   0  0  0  0  0  0  0  0  0  0  0  0
   49.1651    3.5342   15.8362 H   0  0  0  0  0  0  0  0  0  0  0  0
   48.5064    5.1444   16.2302 H   0  0  0  0  0  0  0  0  0  0  0  0
   53.8241    4.9023   20.5922 H   0  0  0  0  0  0  0  0  0  0  0  0
   55.1573    4.3529   19.5523 H   0  0  0  0  0  0  0  0  0  0  0  0
   54.2091    5.7749   19.0789 H   0  0  0  0  0  0  0  0  0  0  0  0
   51.9170   -0.1773   17.5355 H   0  0  0  0  0  0  0  0  0  0  0  0
   52.9420   -0.0304   18.9827 H   0  0  0  0  0  0  0  0  0  0  0  0
   53.6420    0.2372   17.3725 H   0  0  0  0  0  0  0  0  0  0  0  0
   46.1419    2.8462   17.4773 H   0  0  0  0  0  0  0  0  0  0  0  0
   49.4282    6.4689   17.8118 H   0  0  0  0  0  0  0  0  0  0  0  0
   48.0950    4.8049   16.5139 H   0  0  0  0  0  0  0  0  0  0  0  0
   48.8115    3.2259   16.1150 H   0  0  0  0  0  0  0  0  0  0  0  0
   55.1351    4.7123   19.0781 H   0  0  0  0  0  0  0  0  0  0  0  0
   54.0736    6.0249   18.5269 H   0  0  0  0  0  0  0  0  0  0  0  0
   53.8193    5.2777   20.1297 H   0  0  0  0  0  0  0  0  0  0  0  0
   53.2328    0.1379   18.7007 H   0  0  0  0  0  0  0  0  0  0  0  0
   52.1989   -0.0961   17.2707 H   0  0  0  0  0  0  0  0  0  0  0  0
   53.8750    0.4746   17.0813 H   0  0  0  0  0  0  0  0  0  0  0  0
   47.5110    2.5239   19.6142 H   0  0  0  0  0  0  0  0  0  0  0  0
   50.3640    2.5010   16.3205 H   0  0  0  0  0  0  0  0  0  0  0  0
   52.5369    5.0879   17.9448 H   0  0  0  0  0  0  0  0  0  0  0  0
   48.8513    3.3731   17.7988 H   0  0  0  0  0  0  0  0  0  0  0  0
   49.7836    2.8015   19.1706 H   0  0  0  0  0  0  0  0  0  0  0  0
   50.0515    5.2402   18.9629 H   0  0  0  0  0  0  0  0  0  0  0  0
   50.5045    5.0936   17.2705 H   0  0  0  0  0  0  0  0  0  0  0  0
   52.3798    1.2820   17.6264 H   0  0  0  0  0  0  0  0  0  0  0  0
   52.4839    2.6822   16.5683 H   0  0  0  0  0  0  0  0  0  0  0  0
   53.6047    3.2040   18.6717 H   0  0  0  0  0  0  0  0  0  0  0  0
   52.2097    2.7131   19.6175 H   0  0  0  0  0  0  0  0  0  0  0  0
  2  1  2  0
  3  1  1  0
  4  5  1  0
  5  3  1  0
  6  2  1  0
  7  1  1  0
  8  2  1  0
  9  7  2  0
 10  8  1  0
 11  5  2  0
 12  6  2  0
 13 10  1  0
 14 13  2  0
 15  3  1  0
 16  4  1  0
 17 13  1  0
  6  4  1  0
  8  9  1  0
 19 18  2  0
 20 18  1  0
 21 22  1  0
 22 20  1  0
 23 19  1  0
 24 18  1  0
 25 19  1  0
 26 24  2  0
 27 25  1  0
 28 22  2  0
 29 23  2  0
 30 27  1  0
 31 30  2  0
 32 20  1  0
 33 21  1  0
 34 30  1  0
 23 21  1  0
 25 26  1  0
 36 40  1  0
 37 35  1  0
 38 37  1  0
 39 35  1  0
 40 39  1  0
 38 36  1  0
  9 41  1  0
 10 42  1  0
 10 43  1  0
 15 44  1  0
 15 45  1  0
 15 46  1  0
 16 47  1  0
 16 48  1  0
 16 49  1  0
 17 50  1  0
 26 51  1  0
 27 52  1  0
 27 53  1  0
 32 54  1  0
 32 55  1  0
 32 56  1  0
 33 57  1  0
 33 58  1  0
 33 59  1  0
 34 60  1  0
 35 61  1  0
 36 62  1  0
 37 63  1  0
 37 64  1  0
 38 65  1  0
 38 66  1  0
 39 67  1  0
 39 68  1  0
 40 69  1  0
 40 70  1  0
M  END
> <Uni-Dock RESULT> 
ENERGY=   -6.438  LOWER_BOUND=    6.872  UPPER_BOUND=    8.707
INTER + INTRA:          -6.438
INTER:                  -6.438
INTRA:                   0.000
UNBOUND:                 0.000

$$$$

     RDKit          3D

 70 72  0  0  0  0  0  0  0  0999 V2000
   45.8218   10.1917   11.9681 C   0  0  0  0  0  0  0  0  0  0  0  0
   44.6903    9.7667   11.3411 C   0  0  0  0  0  0  0  0  0  0  0  0
   46.5593    9.3584   12.7733 N   0  0  0  0  0  0  0  0  0  0  0  0
   44.9367    7.6517   12.3314 N   0  0  0  0  0  0  0  0  0  0  0  0
   46.1125    8.0551   12.9982 C   0  0  0  0  0  0  0  0  0  0  0  0
   44.1754    8.4487   11.4729 C   0  0  0  0  0  0  0  0  0  0  0  0
   46.1006   11.4947   11.6843 N   0  0  0  0  0  0  0  0  0  0  0  0
   44.2426   10.8527   10.6424 N   0  0  0  0  0  0  0  0  0  0  0  0
   45.1253   11.8739   10.8836 C   0  0  0  0  0  0  0  0  0  0  0  0
   43.0881   10.9219    9.7672 C   0  0  0  0  0  0  0  0  0  0  0  0
   46.7162    7.2823   13.7474 O   0  0  0  0  0  0  0  0  0  0  0  0
   43.1698    8.0721   10.8808 O   0  0  0  0  0  0  0  0  0  0  0  0
   41.7998   11.0982   10.5226 C   0  0  0  0  0  0  0  0  0  0  0  0
   41.6501   11.2689   11.7210 O   0  0  0  0  0  0  0  0  0  0  0  0
   47.7419    9.8482   13.4566 C   0  0  0  0  0  0  0  0  0  0  0  0
   44.5019    6.2894   12.5664 C   0  0  0  0  0  0  0  0  0  0  0  0
   40.7311   11.1110    9.6982 O   0  0  0  0  0  0  0  0  0  0  0  0
   45.7515   10.2526   11.7533 C   0  0  0  0  0  0  0  0  0  0  0  0
   44.5720    9.7726   11.2713 C   0  0  0  0  0  0  0  0  0  0  0  0
   46.6506    9.4434   12.4042 N   0  0  0  0  0  0  0  0  0  0  0  0
   45.1095    7.6378   12.0880 N   0  0  0  0  0  0  0  0  0  0  0  0
   46.3337    8.1007   12.6137 C   0  0  0  0  0  0  0  0  0  0  0  0
   44.1712    8.4157   11.4046 C   0  0  0  0  0  0  0  0  0  0  0  0
   45.8975   11.5844   11.5082 N   0  0  0  0  0  0  0  0  0  0  0  0
   43.9512   10.8549   10.7131 N   0  0  0  0  0  0  0  0  0  0  0  0
   44.7910   11.9264   10.8799 C   0  0  0  0  0  0  0  0  0  0  0  0
   42.6702   10.8845   10.0310 C   0  0  0  0  0  0  0  0  0  0  0  0
   47.0856    7.3432   13.2345 O   0  0  0  0  0  0  0  0  0  0  0  0
   43.1089    7.9934   10.9568 O   0  0  0  0  0  0  0  0  0  0  0  0
   41.4814   11.0130   10.9436 C   0  0  0  0  0  0  0  0  0  0  0  0
   40.3450   11.2644   10.5676 O   0  0  0  0  0  0  0  0  0  0  0  0
   47.8793    9.9982   12.9414 C   0  0  0  0  0  0  0  0  0  0  0  0
   44.8026    6.2401   12.3167 C   0  0  0  0  0  0  0  0  0  0  0  0
   41.7227   10.8290   12.2546 O   0  0  0  0  0  0  0  0  0  0  0  0
   43.5602    8.6940   11.0966 N   0  0  0  0  0  0  0  0  0  0  0  0
   45.8177   10.3604   12.1994 N   0  0  0  0  0  0  0  0  0  0  0  0
   43.3571   10.0576   11.6066 C   0  0  0  0  0  0  0  0  0  0  0  0
   44.6270   10.9320   11.5469 C   0  0  0  0  0  0  0  0  0  0  0  0
   44.8377    8.1265   11.5605 C   0  0  0  0  0  0  0  0  0  0  0  0
   45.5922    8.9674   12.6113 C   0  0  0  0  0  0  0  0  0  0  0  0
   45.0144   12.8613   10.4534 H   0  0  0  0  0  0  0  0  0  0  0  0
   43.0574   10.0041    9.1720 H   0  0  0  0  0  0  0  0  0  0  0  0
   43.2276   11.7781    9.0977 H   0  0  0  0  0  0  0  0  0  0  0  0
   47.4273   10.3699   14.3649 H   0  0  0  0  0  0  0  0  0  0  0  0
   48.4052    9.0251   13.7357 H   0  0  0  0  0  0  0  0  0  0  0  0
   48.2972   10.5344   12.8106 H   0  0  0  0  0  0  0  0  0  0  0  0
   43.5463    6.0660   12.0854 H   0  0  0  0  0  0  0  0  0  0  0  0
   44.4034    6.1230   13.6438 H   0  0  0  0  0  0  0  0  0  0  0  0
   45.2644    5.6045   12.1796 H   0  0  0  0  0  0  0  0  0  0  0  0
   39.9628   11.2108   10.3005 H   0  0  0  0  0  0  0  0  0  0  0  0
   44.5514   12.9220   10.5276 H   0  0  0  0  0  0  0  0  0  0  0  0
   42.6836   11.7489    9.3589 H   0  0  0  0  0  0  0  0  0  0  0  0
   42.5791    9.9743    9.4333 H   0  0  0  0  0  0  0  0  0  0  0  0
   48.5944    9.2139   13.2036 H   0  0  0  0  0  0  0  0  0  0  0  0
   48.3408   10.6595   12.2039 H   0  0  0  0  0  0  0  0  0  0  0  0
   47.6386   10.5677   13.8442 H   0  0  0  0  0  0  0  0  0  0  0  0
   44.7595    6.0606   13.3955 H   0  0  0  0  0  0  0  0  0  0  0  0
   43.8514    5.9379   11.8695 H   0  0  0  0  0  0  0  0  0  0  0  0
   45.6040    5.6244   11.8973 H   0  0  0  0  0  0  0  0  0  0  0  0
   40.8427   10.8997   12.6824 H   0  0  0  0  0  0  0  0  0  0  0  0
   43.5705    8.7174   10.0777 H   0  0  0  0  0  0  0  0  0  0  0  0
   46.5914   10.3902   11.5363 H   0  0  0  0  0  0  0  0  0  0  0  0
   42.5584   10.5357   11.0279 H   0  0  0  0  0  0  0  0  0  0  0  0
   42.9943   10.0010   12.6409 H   0  0  0  0  0  0  0  0  0  0  0  0
   44.4179   11.9055   12.0015 H   0  0  0  0  0  0  0  0  0  0  0  0
   44.8699   11.1219   10.4940 H   0  0  0  0  0  0  0  0  0  0  0  0
   44.6460    7.1284   11.9680 H   0  0  0  0  0  0  0  0  0  0  0  0
   45.4905    7.9911   10.6898 H   0  0  0  0  0  0  0  0  0  0  0  0
   46.5625    8.5019   12.8211 H   0  0  0  0  0  0  0  0  0  0  0  0
   45.0369    8.9617   13.5579 H   0  0  0  0  0  0  0  0  0  0  0  0
  2  1  2  0
  3  1  1  0
  4  5  1  0
  5  3  1  0
  6  2  1  0
  7  1  1  0
  8  2  1  0
  9  7  2  0
 10  8  1  0
 11  5  2  0
 12  6  2  0
 13 10  1  0
 14 13  2  0
 15  3  1  0
 16  4  1  0
 17 13  1  0
  6  4  1  0
  8  9  1  0
 19 18  2  0
 20 18  1  0
 21 22  1  0
 22 20  1  0
 23 19  1  0
 24 18  1  0
 25 19  1  0
 26 24  2  0
 27 25  1  0
 28 22  2  0
 29 23  2  0
 30 27  1  0
 31 30  2  0
 32 20  1  0
 33 21  1  0
 34 30  1  0
 23 21  1  0
 25 26  1  0
 36 40  1  0
 37 35  1  0
 38 37  1  0
 39 35  1  0
 40 39  1  0
 38 36  1  0
  9 41  1  0
 10 42  1  0
 10 43  1  0
 15 44  1  0
 15 45  1  0
 15 46  1  0
 16 47  1  0
 16 48  1  0
 16 49  1  0
 17 50  1  0
 26 51  1  0
 27 52  1  0
 27 53  1  0
 32 54  1  0
 32 55  1  0
 32 56  1  0
 33 57  1  0
 33 58  1  0
 33 59  1  0
 34 60  1  0
 35 61  1  0
 36 62  1  0
 37 63  1  0
 37 64  1  0
 38 65  1  0
 38 66  1  0
 39 67  1  0
 39 68  1  0
 40 69  1  0
 40 70  1  0
M  END
> <Uni-Dock RESULT> 
ENERGY=   -6.392  LOWER_BOUND=    2.686  UPPER_BOUND=    5.402
INTER + INTRA:          -6.392
INTER:                  -6.392
INTRA:                   0.000
UNBOUND:                 0.000

$$$$

     RDKit          3D

 70 72  0  0  0  0  0  0  0  0999 V2000
   47.5441    4.5427   16.0244 C   0  0  0  0  0  0  0  0  0  0  0  0
   48.3588    4.9862   17.0212 C   0  0  0  0  0  0  0  0  0  0  0  0
   47.4171    5.2224   14.8376 N   0  0  0  0  0  0  0  0  0  0  0  0
   48.9345    6.8538   15.7192 N   0  0  0  0  0  0  0  0  0  0  0  0
   48.1006    6.4272   14.6644 C   0  0  0  0  0  0  0  0  0  0  0  0
   49.1268    6.1781   16.9268 C   0  0  0  0  0  0  0  0  0  0  0  0
   46.9153    3.3820   16.3612 N   0  0  0  0  0  0  0  0  0  0  0  0
   48.2268    4.0659   18.0231 N   0  0  0  0  0  0  0  0  0  0  0  0
   47.3416    3.1174   17.5795 C   0  0  0  0  0  0  0  0  0  0  0  0
   48.9180    4.0470   19.2980 C   0  0  0  0  0  0  0  0  0  0  0  0
   47.9853    7.0964   13.6340 O   0  0  0  0  0  0  0  0  0  0  0  0
   49.8769    6.5511   17.8224 O   0  0  0  0  0  0  0  0  0  0  0  0
   48.2958    4.9728   20.3066 C   0  0  0  0  0  0  0  0  0  0  0  0
   47.2749    5.6301   20.1921 O   0  0  0  0  0  0  0  0  0  0  0  0
   46.5151    4.7450   13.8062 C   0  0  0  0  0  0  0  0  0  0  0  0
   49.6471    8.0981   15.5098 C   0  0  0  0  0  0  0  0  0  0  0  0
   48.9793    4.9810   21.4706 O   0  0  0  0  0  0  0  0  0  0  0  0
   47.6741    4.4096   16.1664 C   0  0  0  0  0  0  0  0  0  0  0  0
   48.4151    4.9967   17.1462 C   0  0  0  0  0  0  0  0  0  0  0  0
   47.6413    4.9076   14.8867 N   0  0  0  0  0  0  0  0  0  0  0  0
   49.1208    6.6400   15.6249 N   0  0  0  0  0  0  0  0  0  0  0  0
   48.3546    6.0689   14.5875 C   0  0  0  0  0  0  0  0  0  0  0  0
   49.2006    6.1621   16.9356 C   0  0  0  0  0  0  0  0  0  0  0  0
   47.0044    3.3143   16.6216 N   0  0  0  0  0  0  0  0  0  0  0  0
   48.1871    4.2417   18.2627 N   0  0  0  0  0  0  0  0  0  0  0  0
   47.3293    3.2364   17.8961 C   0  0  0  0  0  0  0  0  0  0  0  0
   48.7622    4.4210   19.5834 C   0  0  0  0  0  0  0  0  0  0  0  0
   48.3202    6.5837   13.4657 O   0  0  0  0  0  0  0  0  0  0  0  0
   49.8722    6.6762   17.8255 O   0  0  0  0  0  0  0  0  0  0  0  0
   48.0443    5.4241   20.4444 C   0  0  0  0  0  0  0  0  0  0  0  0
   48.2349    5.5677   21.6440 O   0  0  0  0  0  0  0  0  0  0  0  0
   46.8075    4.2802   13.8781 C   0  0  0  0  0  0  0  0  0  0  0  0
   49.8539    7.8445   15.2904 C   0  0  0  0  0  0  0  0  0  0  0  0
   47.1418    6.2002   19.8168 O   0  0  0  0  0  0  0  0  0  0  0  0
   49.2930    6.0824   17.6641 N   0  0  0  0  0  0  0  0  0  0  0  0
   47.2590    4.5679   16.0334 N   0  0  0  0  0  0  0  0  0  0  0  0
   48.0422    5.5705   18.2423 C   0  0  0  0  0  0  0  0  0  0  0  0
   47.4605    4.3627   17.4783 C   0  0  0  0  0  0  0  0  0  0  0  0
   49.2289    6.1341   16.1935 C   0  0  0  0  0  0  0  0  0  0  0  0
   47.8440    5.8384   15.5810 C   0  0  0  0  0  0  0  0  0  0  0  0
   47.0480    2.2623   18.1754 H   0  0  0  0  0  0  0  0  0  0  0  0
   49.9625    4.3224   19.1226 H   0  0  0  0  0  0  0  0  0  0  0  0
   48.8781    3.0222   19.6843 H   0  0  0  0  0  0  0  0  0  0  0  0
   45.5019    5.0766   14.0501 H   0  0  0  0  0  0  0  0  0  0  0  0
   46.7897    5.1448   12.8264 H   0  0  0  0  0  0  0  0  0  0  0  0
   46.5429    3.6528   13.7527 H   0  0  0  0  0  0  0  0  0  0  0  0
   50.2114    8.4110   16.3919 H   0  0  0  0  0  0  0  0  0  0  0  0
   48.9313    8.8844   15.2501 H   0  0  0  0  0  0  0  0  0  0  0  0
   50.3395    7.9706   14.6705 H   0  0  0  0  0  0  0  0  0  0  0  0
   48.4952    5.6255   22.0303 H   0  0  0  0  0  0  0  0  0  0  0  0
   46.9776    2.4814   18.5884 H   0  0  0  0  0  0  0  0  0  0  0  0
   48.7260    3.4482   20.0848 H   0  0  0  0  0  0  0  0  0  0  0  0
   49.8070    4.7181   19.4648 H   0  0  0  0  0  0  0  0  0  0  0  0
   47.0675    4.6202   12.8721 H   0  0  0  0  0  0  0  0  0  0  0  0
   46.9266    3.1948   13.9217 H   0  0  0  0  0  0  0  0  0  0  0  0
   45.7640    4.5424   14.0769 H   0  0  0  0  0  0  0  0  0  0  0  0
   49.1423    8.6145   14.9763 H   0  0  0  0  0  0  0  0  0  0  0  0
   50.4422    8.2274   16.1290 H   0  0  0  0  0  0  0  0  0  0  0  0
   50.5250    7.6339   14.4522 H   0  0  0  0  0  0  0  0  0  0  0  0
   46.8163    6.8140   20.5093 H   0  0  0  0  0  0  0  0  0  0  0  0
   50.0600    5.4663   17.9304 H   0  0  0  0  0  0  0  0  0  0  0  0
   47.7069    3.7994   15.5354 H   0  0  0  0  0  0  0  0  0  0  0  0
   48.2252    5.2876   19.2853 H   0  0  0  0  0  0  0  0  0  0  0  0
   47.3039    6.3821   18.2700 H   0  0  0  0  0  0  0  0  0  0  0  0
   46.5017    4.0801   17.9241 H   0  0  0  0  0  0  0  0  0  0  0  0
   48.1347    3.5077   17.6132 H   0  0  0  0  0  0  0  0  0  0  0  0
   49.5634    7.1242   15.8665 H   0  0  0  0  0  0  0  0  0  0  0  0
   49.9483    5.4103   15.7921 H   0  0  0  0  0  0  0  0  0  0  0  0
   47.9268    5.8172   14.4879 H   0  0  0  0  0  0  0  0  0  0  0  0
   47.1511    6.6549   15.8215 H   0  0  0  0  0  0  0  0  0  0  0  0
  2  1  2  0
  3  1  1  0
  4  5  1  0
  5  3  1  0
  6  2  1  0
  7  1  1  0
  8  2  1  0
  9  7  2  0
 10  8  1  0
 11  5  2  0
 12  6  2  0
 13 10  1  0
 14 13  2  0
 15  3  1  0
 16  4  1  0
 17 13  1  0
  6  4  1  0
  8  9  1  0
 19 18  2  0
 20 18  1  0
 21 22  1  0
 22 20  1  0
 23 19  1  0
 24 18  1  0
 25 19  1  0
 26 24  2  0
 27 25  1  0
 28 22  2  0
 29 23  2  0
 30 27  1  0
 31 30  2  0
 32 20  1  0
 33 21  1  0
 34 30  1  0
 23 21  1  0
 25 26  1  0
 36 40  1  0
 37 35  1  0
 38 37  1  0
 39 35  1  0
 40 39  1  0
 38 36  1  0
  9 41  1  0
 10 42  1  0
 10 43  1  0
 15 44  1  0
 15 45  1  0
 15 46  1  0
 16 47  1  0
 16 48  1  0
 16 49  1  0
 17 50  1  0
 26 51  1  0
 27 52  1  0
 27 53  1  0
 32 54  1  0
 32 55  1  0
 32 56  1  0
 33 57  1  0
 33 58  1  0
 33 59  1  0
 34 60  1  0
 35 61  1  0
 36 62  1  0
 37 63  1  0
 37 64  1  0
 38 65  1  0
 38 66  1  0
 39 67  1  0
 39 68  1  0
 40 69  1  0
 40 70  1  0
M  END
> <Uni-Dock RESULT> 
ENERGY=   -6.315  LOWER_BOUND=    4.412  UPPER_BOUND=    6.347
INTER + INTRA:          -6.315
INTER:                  -6.315
INTRA:                   0.000
UNBOUND:                 0.000

$$$$

     RDKit          3D

 70 72  0  0  0  0  0  0  0  0999 V2000
   45.4422    5.4668   12.9135 C   0  0  0  0  0  0  0  0  0  0  0  0
   46.1177    6.6085   12.6067 C   0  0  0  0  0  0  0  0  0  0  0  0
   44.1100    5.3124   12.6168 N   0  0  0  0  0  0  0  0  0  0  0  0
   44.1478    7.5373   11.7283 N   0  0  0  0  0  0  0  0  0  0  0  0
   43.4139    6.3712   12.0311 C   0  0  0  0  0  0  0  0  0  0  0  0
   45.5100    7.7265   11.9741 C   0  0  0  0  0  0  0  0  0  0  0  0
   46.2462    4.5482   13.5185 N   0  0  0  0  0  0  0  0  0  0  0  0
   47.3945    6.3939   13.0446 N   0  0  0  0  0  0  0  0  0  0  0  0
   47.4227    5.1368   13.5914 C   0  0  0  0  0  0  0  0  0  0  0  0
   48.5300    7.2876   12.9202 C   0  0  0  0  0  0  0  0  0  0  0  0
   42.2069    6.2972   11.7851 O   0  0  0  0  0  0  0  0  0  0  0  0
   46.1374    8.7381   11.6795 O   0  0  0  0  0  0  0  0  0  0  0  0
   48.5380    8.3619   13.9725 C   0  0  0  0  0  0  0  0  0  0  0  0
   47.7778    8.4924   14.9173 O   0  0  0  0  0  0  0  0  0  0  0  0
   43.4071    4.0980   12.9866 C   0  0  0  0  0  0  0  0  0  0  0  0
   43.4081    8.6163   11.1051 C   0  0  0  0  0  0  0  0  0  0  0  0
   49.5726    9.2142   13.8134 O   0  0  0  0  0  0  0  0  0  0  0  0
   45.6639    5.4808   12.8397 C   0  0  0  0  0  0  0  0  0  0  0  0
   46.2183    6.7022   12.6060 C   0  0  0  0  0  0  0  0  0  0  0  0
   44.4004    5.1639   12.4037 N   0  0  0  0  0  0  0  0  0  0  0  0
   44.2595    7.3778   11.5017 N   0  0  0  0  0  0  0  0  0  0  0  0
   43.6460    6.1298   11.7367 C   0  0  0  0  0  0  0  0  0  0  0  0
   45.5458    7.7418   11.9087 C   0  0  0  0  0  0  0  0  0  0  0  0
   46.5040    4.6647   13.5350 N   0  0  0  0  0  0  0  0  0  0  0  0
   47.4521    6.6486   13.1920 N   0  0  0  0  0  0  0  0  0  0  0  0
   47.5797    5.3976   13.7395 C   0  0  0  0  0  0  0  0  0  0  0  0
   48.4680    7.6853   13.2095 C   0  0  0  0  0  0  0  0  0  0  0  0
   42.4884    5.9111   11.3668 O   0  0  0  0  0  0  0  0  0  0  0  0
   46.0609    8.8358   11.6962 O   0  0  0  0  0  0  0  0  0  0  0  0
   48.2939    8.7097   14.2971 C   0  0  0  0  0  0  0  0  0  0  0  0
   49.1415    9.5325   14.6142 O   0  0  0  0  0  0  0  0  0  0  0  0
   43.8253    3.8664   12.7070 C   0  0  0  0  0  0  0  0  0  0  0  0
   43.4574    8.3643   10.8063 C   0  0  0  0  0  0  0  0  0  0  0  0
   47.1118    8.6913   14.9398 O   0  0  0  0  0  0  0  0  0  0  0  0
   46.1579    8.1042   12.1077 N   0  0  0  0  0  0  0  0  0  0  0  0
   45.3584    5.4021   13.1796 N   0  0  0  0  0  0  0  0  0  0  0  0
   46.5748    7.6276   13.4344 C   0  0  0  0  0  0  0  0  0  0  0  0
   46.6066    6.0896   13.5533 C   0  0  0  0  0  0  0  0  0  0  0  0
   45.0220    7.3261   11.5847 C   0  0  0  0  0  0  0  0  0  0  0  0
   44.3894    6.3296   12.5783 C   0  0  0  0  0  0  0  0  0  0  0  0
   48.3165    4.7020   14.0210 H   0  0  0  0  0  0  0  0  0  0  0  0
   48.5034    7.7340   11.9214 H   0  0  0  0  0  0  0  0  0  0  0  0
   49.4406    6.6862   13.0195 H   0  0  0  0  0  0  0  0  0  0  0  0
   43.1158    4.1718   14.0382 H   0  0  0  0  0  0  0  0  0  0  0  0
   42.5068    3.9637   12.3810 H   0  0  0  0  0  0  0  0  0  0  0  0
   44.0524    3.2266   12.8428 H   0  0  0  0  0  0  0  0  0  0  0  0
   44.0140    9.5157   10.9694 H   0  0  0  0  0  0  0  0  0  0  0  0
   42.5406    8.8641   11.7249 H   0  0  0  0  0  0  0  0  0  0  0  0
   43.0484    8.2781   10.1271 H   0  0  0  0  0  0  0  0  0  0  0  0
   49.4595    9.8687   14.5357 H   0  0  0  0  0  0  0  0  0  0  0  0
   48.4674    5.0750   14.2693 H   0  0  0  0  0  0  0  0  0  0  0  0
   49.4326    7.1880   13.3558 H   0  0  0  0  0  0  0  0  0  0  0  0
   48.4701    8.1794   12.2349 H   0  0  0  0  0  0  0  0  0  0  0  0
   42.9390    3.6666   12.0990 H   0  0  0  0  0  0  0  0  0  0  0  0
   44.5621    3.0815   12.5191 H   0  0  0  0  0  0  0  0  0  0  0  0
   43.5358    3.8520   13.7621 H   0  0  0  0  0  0  0  0  0  0  0  0
   42.5610    8.5711   11.3991 H   0  0  0  0  0  0  0  0  0  0  0  0
   43.9941    9.3021   10.6376 H   0  0  0  0  0  0  0  0  0  0  0  0
   43.1446    7.9552    9.8409 H   0  0  0  0  0  0  0  0  0  0  0  0
   47.1576    9.4437   15.5677 H   0  0  0  0  0  0  0  0  0  0  0  0
   46.9382    8.0088   11.4590 H   0  0  0  0  0  0  0  0  0  0  0  0
   45.5845    4.6730   12.5039 H   0  0  0  0  0  0  0  0  0  0  0  0
   47.5693    8.0307   13.6579 H   0  0  0  0  0  0  0  0  0  0  0  0
   45.8981    8.0441   14.1916 H   0  0  0  0  0  0  0  0  0  0  0  0
   46.8599    5.8112   14.5811 H   0  0  0  0  0  0  0  0  0  0  0  0
   47.4136    5.7076   12.9157 H   0  0  0  0  0  0  0  0  0  0  0  0
   44.2539    8.0248   11.2370 H   0  0  0  0  0  0  0  0  0  0  0  0
   45.3630    6.7692   10.7036 H   0  0  0  0  0  0  0  0  0  0  0  0
   43.6162    5.7456   12.0651 H   0  0  0  0  0  0  0  0  0  0  0  0
   43.8789    6.8796   13.3793 H   0  0  0  0  0  0  0  0  0  0  0  0
  2  1  2  0
  3  1  1  0
  4  5  1  0
  5  3  1  0
  6  2  1  0
  7  1  1  0
  8  2  1  0
  9  7  2  0
 10  8  1  0
 11  5  2  0
 12  6  2  0
 13 10  1  0
 14 13  2  0
 15  3  1  0
 16  4  1  0
 17 13  1  0
  6  4  1  0
  8  9  1  0
 19 18  2  0
 20 18  1  0
 21 22  1  0
 22 20  1  0
 23 19  1  0
 24 18  1  0
 25 19  1  0
 26 24  2  0
 27 25  1  0
 28 22  2  0
 29 23  2  0
 30 27  1  0
 31 30  2  0
 32 20  1  0
 33 21  1  0
 34 30  1  0
 23 21  1  0
 25 26  1  0
 36 40  1  0
 37 35  1  0
 38 37  1  0
 39 35  1  0
 40 39  1  0
 38 36  1  0
  9 41  1  0
 10 42  1  0
 10 43  1  0
 15 44  1  0
 15 45  1  0
 15 46  1  0
 16 47  1  0
 16 48  1  0
 16 49  1  0
 17 50  1  0
 26 51  1  0
 27 52  1  0
 27 53  1  0
 32 54  1  0
 32 55  1  0
 32 56  1  0
 33 57  1  0
 33 58  1  0
 33 59  1  0
 34 60  1  0
 35 61  1  0
 36 62  1  0
 37 63  1  0
 37 64  1  0
 38 65  1  0
 38 66  1  0
 39 67  1  0
 39 68  1  0
 40 69  1  0
 40 70  1  0
M  END
> <Uni-Dock RESULT> 
ENERGY=   -6.248  LOWER_BOUND=    1.517  UPPER_BOUND=    4.387
INTER + INTRA:          -6.248
INTER:                  -6.248
INTRA:                   0.000
UNBOUND:                 0.000

$$$$
