
     RDKit          3D

 70 72  0  0  0  0  0  0  0  0999 V2000
   45.2579    7.0835   12.6160 C   0  0  0  0  0  0  0  0  0  0  0  0
   46.5035    7.1684   13.1588 C   0  0  0  0  0  0  0  0  0  0  0  0
   44.6206    5.8776   12.4501 N   0  0  0  0  0  0  0  0  0  0  0  0
   46.5639    4.8318   13.3798 N   0  0  0  0  0  0  0  0  0  0  0  0
   45.2737    4.7028   12.8242 C   0  0  0  0  0  0  0  0  0  0  0  0
   47.2459    6.0337   13.5842 C   0  0  0  0  0  0  0  0  0  0  0  0
   44.7615    8.3080   12.2881 N   0  0  0  0  0  0  0  0  0  0  0  0
   46.7972    8.5032   13.1658 N   0  0  0  0  0  0  0  0  0  0  0  0
   45.7179    9.1513   12.6218 C   0  0  0  0  0  0  0  0  0  0  0  0
   47.9894    9.1380   13.6947 C   0  0  0  0  0  0  0  0  0  0  0  0
   44.7526    3.5923   12.6823 O   0  0  0  0  0  0  0  0  0  0  0  0
   48.3638    6.1273   14.0828 O   0  0  0  0  0  0  0  0  0  0  0  0
   49.1483    9.0794   12.7387 C   0  0  0  0  0  0  0  0  0  0  0  0
   49.1578    8.6623   11.5931 O   0  0  0  0  0  0  0  0  0  0  0  0
   43.2941    5.8303   11.8641 C   0  0  0  0  0  0  0  0  0  0  0  0
   47.2236    3.5988   13.7616 C   0  0  0  0  0  0  0  0  0  0  0  0
   50.2693    9.6100   13.2731 O   0  0  0  0  0  0  0  0  0  0  0  0
   47.3073    5.9024   13.7201 C   0  0  0  0  0  0  0  0  0  0  0  0
   47.0835    6.7374   12.6685 C   0  0  0  0  0  0  0  0  0  0  0  0
   46.4350    4.8901   14.0384 N   0  0  0  0  0  0  0  0  0  0  0  0
   45.1109    5.5690   12.1613 N   0  0  0  0  0  0  0  0  0  0  0  0
   45.3007    4.6919   13.2495 C   0  0  0  0  0  0  0  0  0  0  0  0
   45.9512    6.6306   11.8166 C   0  0  0  0  0  0  0  0  0  0  0  0
   48.4614    6.2086   14.3750 N   0  0  0  0  0  0  0  0  0  0  0  0
   48.1309    7.6156   12.6831 N   0  0  0  0  0  0  0  0  0  0  0  0
   48.9379    7.2555   13.7315 C   0  0  0  0  0  0  0  0  0  0  0  0
   48.3775    8.7033   11.7549 C   0  0  0  0  0  0  0  0  0  0  0  0
   44.4942    3.7870   13.4847 O   0  0  0  0  0  0  0  0  0  0  0  0
   45.7589    7.3973   10.8776 O   0  0  0  0  0  0  0  0  0  0  0  0
   47.5104    9.9016   12.0301 C   0  0  0  0  0  0  0  0  0  0  0  0
   46.7724   10.0892   12.9825 O   0  0  0  0  0  0  0  0  0  0  0  0
   46.7110    4.0107   15.1591 C   0  0  0  0  0  0  0  0  0  0  0  0
   43.9207    5.3569   11.3616 C   0  0  0  0  0  0  0  0  0  0  0  0
   47.6492   10.8555   11.0835 O   0  0  0  0  0  0  0  0  0  0  0  0
   47.9738    6.1213   12.9791 N   0  0  0  0  0  0  0  0  0  0  0  0
   45.4864    6.7427   11.9168 N   0  0  0  0  0  0  0  0  0  0  0  0
   46.8325    5.7059   13.8126 C   0  0  0  0  0  0  0  0  0  0  0  0
   45.4715    5.8397   13.0853 C   0  0  0  0  0  0  0  0  0  0  0  0
   47.7885    7.5296   12.5749 C   0  0  0  0  0  0  0  0  0  0  0  0
   46.3293    7.9116   12.2222 C   0  0  0  0  0  0  0  0  0  0  0  0
   45.6770   10.2265   12.4957 H   0  0  0  0  0  0  0  0  0  0  0  0
   48.2465    8.6429   14.6349 H   0  0  0  0  0  0  0  0  0  0  0  0
   47.7470   10.1865   13.8967 H   0  0  0  0  0  0  0  0  0  0  0  0
   42.8793    4.8183   11.8777 H   0  0  0  0  0  0  0  0  0  0  0  0
   42.6258    6.4867   12.4299 H   0  0  0  0  0  0  0  0  0  0  0  0
   43.3531    6.1722   10.8258 H   0  0  0  0  0  0  0  0  0  0  0  0
   46.5941    3.0650   14.4808 H   0  0  0  0  0  0  0  0  0  0  0  0
   47.3411    2.9702   12.8727 H   0  0  0  0  0  0  0  0  0  0  0  0
   48.2065    3.7682   14.2086 H   0  0  0  0  0  0  0  0  0  0  0  0
   50.9490    9.4923   12.5747 H   0  0  0  0  0  0  0  0  0  0  0  0
   49.8507    7.7819   13.9814 H   0  0  0  0  0  0  0  0  0  0  0  0
   49.4287    8.9943   11.8483 H   0  0  0  0  0  0  0  0  0  0  0  0
   48.1957    8.3263   10.7440 H   0  0  0  0  0  0  0  0  0  0  0  0
   45.8291    3.4293   15.4400 H   0  0  0  0  0  0  0  0  0  0  0  0
   47.5096    3.3202   14.8732 H   0  0  0  0  0  0  0  0  0  0  0  0
   47.0261    4.6003   16.0248 H   0  0  0  0  0  0  0  0  0  0  0  0
   43.0474    5.6322   11.9605 H   0  0  0  0  0  0  0  0  0  0  0  0
   43.8395    4.2988   11.0946 H   0  0  0  0  0  0  0  0  0  0  0  0
   43.9245    5.9499   10.4442 H   0  0  0  0  0  0  0  0  0  0  0  0
   47.0189   11.5570   11.3548 H   0  0  0  0  0  0  0  0  0  0  0  0
   47.9548    5.5510   12.1339 H   0  0  0  0  0  0  0  0  0  0  0  0
   45.9285    6.2439   11.1454 H   0  0  0  0  0  0  0  0  0  0  0  0
   46.9784    4.6661   14.1249 H   0  0  0  0  0  0  0  0  0  0  0  0
   46.8234    6.3105   14.7282 H   0  0  0  0  0  0  0  0  0  0  0  0
   44.7131    6.1851   13.7976 H   0  0  0  0  0  0  0  0  0  0  0  0
   45.1479    4.8519   12.7369 H   0  0  0  0  0  0  0  0  0  0  0  0
   48.1496    8.1853   13.3759 H   0  0  0  0  0  0  0  0  0  0  0  0
   48.4316    7.7125   11.7060 H   0  0  0  0  0  0  0  0  0  0  0  0
   45.8800    8.4656   13.0562 H   0  0  0  0  0  0  0  0  0  0  0  0
   46.3273    8.5877   11.3600 H   0  0  0  0  0  0  0  0  0  0  0  0
  2  1  2  0
  3  1  1  0
  4  5  1  0
  5  3  1  0
  6  2  1  0
  7  1  1  0
  8  2  1  0
  9  7  2  0
 10  8  1  0
 11  5  2  0
 12  6  2  0
 13 10  1  0
 14 13  2  0
 15  3  1  0
 16  4  1  0
 17 13  1  0
  6  4  1  0
  8  9  1  0
 19 18  2  0
 20 18  1  0
 21 22  1  0
 22 20  1  0
 23 19  1  0
 24 18  1  0
 25 19  1  0
 26 24  2  0
 27 25  1  0
 28 22  2  0
 29 23  2  0
 30 27  1  0
 31 30  2  0
 32 20  1  0
 33 21  1  0
 34 30  1  0
 23 21  1  0
 25 26  1  0
 36 40  1  0
 37 35  1  0
 38 37  1  0
 39 35  1  0
 40 39  1  0
 38 36  1  0
  9 41  1  0
 10 42  1  0
 10 43  1  0
 15 44  1  0
 15 45  1  0
 15 46  1  0
 16 47  1  0
 16 48  1  0
 16 49  1  0
 17 50  1  0
 26 51  1  0
 27 52  1  0
 27 53  1  0
 32 54  1  0
 32 55  1  0
 32 56  1  0
 33 57  1  0
 33 58  1  0
 33 59  1  0
 34 60  1  0
 35 61  1  0
 36 62  1  0
 37 63  1  0
 37 64  1  0
 38 65  1  0
 38 66  1  0
 39 67  1  0
 39 68  1  0
 40 69  1  0
 40 70  1  0
M  END
> <Uni-Dock RESULT> 
ENERGY=   -5.794  LOWER_BOUND=    0.000  UPPER_BOUND=    0.000
INTER + INTRA:          -5.794
INTER:                  -5.794
INTRA:                   0.000
UNBOUND:                 0.000

$$$$

     RDKit          3D

 70 72  0  0  0  0  0  0  0  0999 V2000
   46.4279    7.4769   13.0661 C   0  0  0  0  0  0  0  0  0  0  0  0
   45.2283    7.1049   12.5411 C   0  0  0  0  0  0  0  0  0  0  0  0
   46.9886    8.7017   12.7954 N   0  0  0  0  0  0  0  0  0  0  0  0
   45.0872    9.1593   11.4135 N   0  0  0  0  0  0  0  0  0  0  0  0
   46.3258    9.5822   11.9398 C   0  0  0  0  0  0  0  0  0  0  0  0
   44.4687    7.9337   11.6717 C   0  0  0  0  0  0  0  0  0  0  0  0
   46.9560    6.5087   13.8643 N   0  0  0  0  0  0  0  0  0  0  0  0
   45.0011    5.8490   13.0302 N   0  0  0  0  0  0  0  0  0  0  0  0
   46.0768    5.5278   13.8179 C   0  0  0  0  0  0  0  0  0  0  0  0
   43.8290    5.0215   12.8170 C   0  0  0  0  0  0  0  0  0  0  0  0
   46.7930   10.6883   11.6512 O   0  0  0  0  0  0  0  0  0  0  0  0
   43.3826    7.5887   11.2153 O   0  0  0  0  0  0  0  0  0  0  0  0
   43.8635    4.2986   11.4991 C   0  0  0  0  0  0  0  0  0  0  0  0
   44.7691    4.2646   10.6835 O   0  0  0  0  0  0  0  0  0  0  0  0
   48.2712    9.0583   13.3727 C   0  0  0  0  0  0  0  0  0  0  0  0
   44.4160   10.0898   10.5275 C   0  0  0  0  0  0  0  0  0  0  0  0
   42.7343    3.5899   11.2838 O   0  0  0  0  0  0  0  0  0  0  0  0
   44.3280    8.0685   11.6328 C   0  0  0  0  0  0  0  0  0  0  0  0
   45.2668    7.0833   11.6689 C   0  0  0  0  0  0  0  0  0  0  0  0
   44.6484    9.3823   11.8734 N   0  0  0  0  0  0  0  0  0  0  0  0
   46.9209    8.6783   12.1521 N   0  0  0  0  0  0  0  0  0  0  0  0
   45.9757    9.7251   12.1366 C   0  0  0  0  0  0  0  0  0  0  0  0
   46.6395    7.3256   11.9450 C   0  0  0  0  0  0  0  0  0  0  0  0
   43.0903    7.5801   11.3421 N   0  0  0  0  0  0  0  0  0  0  0  0
   44.5808    5.9292   11.4127 N   0  0  0  0  0  0  0  0  0  0  0  0
   43.2691    6.2799   11.2207 C   0  0  0  0  0  0  0  0  0  0  0  0
   45.1240    4.5868   11.3214 C   0  0  0  0  0  0  0  0  0  0  0  0
   46.3174   10.8932   12.3443 O   0  0  0  0  0  0  0  0  0  0  0  0
   47.4726    6.4250   11.9829 O   0  0  0  0  0  0  0  0  0  0  0  0
   45.4090    3.9890   12.6724 C   0  0  0  0  0  0  0  0  0  0  0  0
   45.1129    4.4368   13.7672 O   0  0  0  0  0  0  0  0  0  0  0  0
   43.6244   10.4087   11.8148 C   0  0  0  0  0  0  0  0  0  0  0  0
   48.2917    9.0510   12.4406 C   0  0  0  0  0  0  0  0  0  0  0  0
   46.0374    2.7969   12.5765 O   0  0  0  0  0  0  0  0  0  0  0  0
   44.4903    7.3714   10.9055 N   0  0  0  0  0  0  0  0  0  0  0  0
   46.8453    7.4437   12.3720 N   0  0  0  0  0  0  0  0  0  0  0  0
   44.5552    8.4524   11.9040 C   0  0  0  0  0  0  0  0  0  0  0  0
   45.9645    8.6193   12.5247 C   0  0  0  0  0  0  0  0  0  0  0  0
   44.8802    6.0991   11.5461 C   0  0  0  0  0  0  0  0  0  0  0  0
   46.0489    6.2181   12.5558 C   0  0  0  0  0  0  0  0  0  0  0  0
   46.1689    4.5792   14.3330 H   0  0  0  0  0  0  0  0  0  0  0  0
   42.9468    5.6646   12.8750 H   0  0  0  0  0  0  0  0  0  0  0  0
   43.7892    4.2850   13.6262 H   0  0  0  0  0  0  0  0  0  0  0  0
   48.5475   10.0914   13.1429 H   0  0  0  0  0  0  0  0  0  0  0  0
   48.2213    8.9464   14.4602 H   0  0  0  0  0  0  0  0  0  0  0  0
   49.0392    8.3908   12.9692 H   0  0  0  0  0  0  0  0  0  0  0  0
   44.2573   11.0351   11.0564 H   0  0  0  0  0  0  0  0  0  0  0  0
   45.0596   10.2821    9.6627 H   0  0  0  0  0  0  0  0  0  0  0  0
   43.4517    9.7147   10.1754 H   0  0  0  0  0  0  0  0  0  0  0  0
   42.8650    3.1906   10.3966 H   0  0  0  0  0  0  0  0  0  0  0  0
   42.4922    5.5592   10.9977 H   0  0  0  0  0  0  0  0  0  0  0  0
   44.3912    3.9612   10.8017 H   0  0  0  0  0  0  0  0  0  0  0  0
   46.0411    4.6382   10.7271 H   0  0  0  0  0  0  0  0  0  0  0  0
   43.9673   11.3442   12.2639 H   0  0  0  0  0  0  0  0  0  0  0  0
   43.3750   10.5940   10.7661 H   0  0  0  0  0  0  0  0  0  0  0  0
   42.7323   10.0742   12.3520 H   0  0  0  0  0  0  0  0  0  0  0  0
   48.3542    9.3565   13.4895 H   0  0  0  0  0  0  0  0  0  0  0  0
   48.5832    9.8992   11.8136 H   0  0  0  0  0  0  0  0  0  0  0  0
   48.9915    8.2305   12.2666 H   0  0  0  0  0  0  0  0  0  0  0  0
   46.1938    2.5319   13.5083 H   0  0  0  0  0  0  0  0  0  0  0  0
   45.1824    7.5815   10.1866 H   0  0  0  0  0  0  0  0  0  0  0  0
   47.1919    7.4386   11.4133 H   0  0  0  0  0  0  0  0  0  0  0  0
   44.2509    9.3929   11.4321 H   0  0  0  0  0  0  0  0  0  0  0  0
   43.8243    8.2476   12.6964 H   0  0  0  0  0  0  0  0  0  0  0  0
   45.8647    8.8584   13.5899 H   0  0  0  0  0  0  0  0  0  0  0  0
   46.4678    9.4737   12.0571 H   0  0  0  0  0  0  0  0  0  0  0  0
   44.0084    5.6681   12.0524 H   0  0  0  0  0  0  0  0  0  0  0  0
   45.1584    5.3986   10.7498 H   0  0  0  0  0  0  0  0  0  0  0  0
   45.6560    6.1999   13.5803 H   0  0  0  0  0  0  0  0  0  0  0  0
   46.7066    5.3474   12.4570 H   0  0  0  0  0  0  0  0  0  0  0  0
  2  1  2  0
  3  1  1  0
  4  5  1  0
  5  3  1  0
  6  2  1  0
  7  1  1  0
  8  2  1  0
  9  7  2  0
 10  8  1  0
 11  5  2  0
 12  6  2  0
 13 10  1  0
 14 13  2  0
 15  3  1  0
 16  4  1  0
 17 13  1  0
  6  4  1  0
  8  9  1  0
 19 18  2  0
 20 18  1  0
 21 22  1  0
 22 20  1  0
 23 19  1  0
 24 18  1  0
 25 19  1  0
 26 24  2  0
 27 25  1  0
 28 22  2  0
 29 23  2  0
 30 27  1  0
 31 30  2  0
 32 20  1  0
 33 21  1  0
 34 30  1  0
 23 21  1  0
 25 26  1  0
 36 40  1  0
 37 35  1  0
 38 37  1  0
 39 35  1  0
 40 39  1  0
 38 36  1  0
  9 41  1  0
 10 42  1  0
 10 43  1  0
 15 44  1  0
 15 45  1  0
 15 46  1  0
 16 47  1  0
 16 48  1  0
 16 49  1  0
 17 50  1  0
 26 51  1  0
 27 52  1  0
 27 53  1  0
 32 54  1  0
 32 55  1  0
 32 56  1  0
 33 57  1  0
 33 58  1  0
 33 59  1  0
 34 60  1  0
 35 61  1  0
 36 62  1  0
 37 63  1  0
 37 64  1  0
 38 65  1  0
 38 66  1  0
 39 67  1  0
 39 68  1  0
 40 69  1  0
 40 70  1  0
M  END
> <Uni-Dock RESULT> 
ENERGY=   -5.592  LOWER_BOUND=    1.458  UPPER_BOUND=    5.260
INTER + INTRA:          -5.592
INTER:                  -5.592
INTRA:                   0.000
UNBOUND:                 0.000

$$$$

     RDKit          3D

 70 72  0  0  0  0  0  0  0  0999 V2000
   47.4008    5.9099   12.9378 C   0  0  0  0  0  0  0  0  0  0  0  0
   46.8277    7.0498   12.4629 C   0  0  0  0  0  0  0  0  0  0  0  0
   46.6493    4.8200   13.3052 N   0  0  0  0  0  0  0  0  0  0  0  0
   44.7025    6.0858   12.7205 N   0  0  0  0  0  0  0  0  0  0  0  0
   45.2587    4.8871   13.2141 C   0  0  0  0  0  0  0  0  0  0  0  0
   45.4234    7.2129   12.3188 C   0  0  0  0  0  0  0  0  0  0  0  0
   48.7583    6.0038   12.9829 N   0  0  0  0  0  0  0  0  0  0  0  0
   47.8731    7.8915   12.2048 N   0  0  0  0  0  0  0  0  0  0  0  0
   49.0192    7.2186   12.5430 C   0  0  0  0  0  0  0  0  0  0  0  0
   47.8092    9.2217   11.6297 C   0  0  0  0  0  0  0  0  0  0  0  0
   44.5362    3.9422   13.5457 O   0  0  0  0  0  0  0  0  0  0  0  0
   44.9220    8.2432   11.8780 O   0  0  0  0  0  0  0  0  0  0  0  0
   47.4568   10.2739   12.6442 C   0  0  0  0  0  0  0  0  0  0  0  0
   47.3229   10.1421   13.8489 O   0  0  0  0  0  0  0  0  0  0  0  0
   47.2992    3.6249   13.8100 C   0  0  0  0  0  0  0  0  0  0  0  0
   43.2563    6.1334   12.6339 C   0  0  0  0  0  0  0  0  0  0  0  0
   47.3307   11.4946   12.0806 O   0  0  0  0  0  0  0  0  0  0  0  0
   45.2535    7.2067   12.2160 C   0  0  0  0  0  0  0  0  0  0  0  0
   46.3009    7.4031   13.0630 C   0  0  0  0  0  0  0  0  0  0  0  0
   44.6731    5.9719   12.0572 N   0  0  0  0  0  0  0  0  0  0  0  0
   46.2270    5.1383   13.6784 N   0  0  0  0  0  0  0  0  0  0  0  0
   45.1497    4.8918   12.8020 C   0  0  0  0  0  0  0  0  0  0  0  0
   46.8699    6.3666   13.8511 C   0  0  0  0  0  0  0  0  0  0  0  0
   44.8910    8.3561   11.5816 N   0  0  0  0  0  0  0  0  0  0  0  0
   46.6194    8.7261   12.9335 N   0  0  0  0  0  0  0  0  0  0  0  0
   45.7392    9.2607   12.0281 C   0  0  0  0  0  0  0  0  0  0  0  0
   47.6610    9.4512   13.6367 C   0  0  0  0  0  0  0  0  0  0  0  0
   44.6526    3.7656   12.7068 O   0  0  0  0  0  0  0  0  0  0  0  0
   47.8204    6.5578   14.6038 O   0  0  0  0  0  0  0  0  0  0  0  0
   49.0301    9.1787   13.0757 C   0  0  0  0  0  0  0  0  0  0  0  0
   49.3156    8.5617   12.0634 O   0  0  0  0  0  0  0  0  0  0  0  0
   43.5500    5.8009   11.1545 C   0  0  0  0  0  0  0  0  0  0  0  0
   46.7176    4.0022   14.4333 C   0  0  0  0  0  0  0  0  0  0  0  0
   50.0044    9.7495   13.8174 O   0  0  0  0  0  0  0  0  0  0  0  0
   45.3124    7.9278   12.9355 N   0  0  0  0  0  0  0  0  0  0  0  0
   47.1476    5.9928   13.7033 N   0  0  0  0  0  0  0  0  0  0  0  0
   45.2658    6.6907   12.1372 C   0  0  0  0  0  0  0  0  0  0  0  0
   46.1189    5.5479   12.7416 C   0  0  0  0  0  0  0  0  0  0  0  0
   46.7134    8.3842   13.0365 C   0  0  0  0  0  0  0  0  0  0  0  0
   47.7494    7.2471   13.2190 C   0  0  0  0  0  0  0  0  0  0  0  0
   50.0078    7.6512   12.4476 H   0  0  0  0  0  0  0  0  0  0  0  0
   47.0692    9.2063   10.8251 H   0  0  0  0  0  0  0  0  0  0  0  0
   48.7931    9.4498   11.2070 H   0  0  0  0  0  0  0  0  0  0  0  0
   46.5854    2.8129   13.9760 H   0  0  0  0  0  0  0  0  0  0  0  0
   48.0466    3.2869   13.0855 H   0  0  0  0  0  0  0  0  0  0  0  0
   47.7889    3.8623   14.7599 H   0  0  0  0  0  0  0  0  0  0  0  0
   42.9092    5.3102   12.0012 H   0  0  0  0  0  0  0  0  0  0  0  0
   42.8370    5.9985   13.6364 H   0  0  0  0  0  0  0  0  0  0  0  0
   42.8902    7.0766   12.2204 H   0  0  0  0  0  0  0  0  0  0  0  0
   47.0793   12.0806   12.8271 H   0  0  0  0  0  0  0  0  0  0  0  0
   45.7577   10.3020   11.7314 H   0  0  0  0  0  0  0  0  0  0  0  0
   47.4455   10.5209   13.5484 H   0  0  0  0  0  0  0  0  0  0  0  0
   47.6167    9.1597   14.6903 H   0  0  0  0  0  0  0  0  0  0  0  0
   43.3602    4.7451   10.9452 H   0  0  0  0  0  0  0  0  0  0  0  0
   42.6589    6.2317   11.6198 H   0  0  0  0  0  0  0  0  0  0  0  0
   43.7538    6.3095   10.2079 H   0  0  0  0  0  0  0  0  0  0  0  0
   47.2113    3.3136   13.7411 H   0  0  0  0  0  0  0  0  0  0  0  0
   45.8777    3.4807   14.9025 H   0  0  0  0  0  0  0  0  0  0  0  0
   47.4267    4.2943   15.2112 H   0  0  0  0  0  0  0  0  0  0  0  0
   50.8359    9.4756   13.3741 H   0  0  0  0  0  0  0  0  0  0  0  0
   44.9940    7.6936   13.8755 H   0  0  0  0  0  0  0  0  0  0  0  0
   46.6785    6.2024   14.5840 H   0  0  0  0  0  0  0  0  0  0  0  0
   44.2247    6.3615   12.0496 H   0  0  0  0  0  0  0  0  0  0  0  0
   45.6119    6.9121   11.1198 H   0  0  0  0  0  0  0  0  0  0  0  0
   46.6015    4.9891   11.9312 H   0  0  0  0  0  0  0  0  0  0  0  0
   45.4619    4.8412   13.2620 H   0  0  0  0  0  0  0  0  0  0  0  0
   46.9688    8.9651   12.1425 H   0  0  0  0  0  0  0  0  0  0  0  0
   46.7770    9.0731   13.8870 H   0  0  0  0  0  0  0  0  0  0  0  0
   48.2571    7.0528   12.2657 H   0  0  0  0  0  0  0  0  0  0  0  0
   48.5225    7.5679   13.9259 H   0  0  0  0  0  0  0  0  0  0  0  0
  2  1  2  0
  3  1  1  0
  4  5  1  0
  5  3  1  0
  6  2  1  0
  7  1  1  0
  8  2  1  0
  9  7  2  0
 10  8  1  0
 11  5  2  0
 12  6  2  0
 13 10  1  0
 14 13  2  0
 15  3  1  0
 16  4  1  0
 17 13  1  0
  6  4  1  0
  8  9  1  0
 19 18  2  0
 20 18  1  0
 21 22  1  0
 22 20  1  0
 23 19  1  0
 24 18  1  0
 25 19  1  0
 26 24  2  0
 27 25  1  0
 28 22  2  0
 29 23  2  0
 30 27  1  0
 31 30  2  0
 32 20  1  0
 33 21  1  0
 34 30  1  0
 23 21  1  0
 25 26  1  0
 36 40  1  0
 37 35  1  0
 38 37  1  0
 39 35  1  0
 40 39  1  0
 38 36  1  0
  9 41  1  0
 10 42  1  0
 10 43  1  0
 15 44  1  0
 15 45  1  0
 15 46  1  0
 16 47  1  0
 16 48  1  0
 16 49  1  0
 17 50  1  0
 26 51  1  0
 27 52  1  0
 27 53  1  0
 32 54  1  0
 32 55  1  0
 32 56  1  0
 33 57  1  0
 33 58  1  0
 33 59  1  0
 34 60  1  0
 35 61  1  0
 36 62  1  0
 37 63  1  0
 37 64  1  0
 38 65  1  0
 38 66  1  0
 39 67  1  0
 39 68  1  0
 40 69  1  0
 40 70  1  0
M  END
> <Uni-Dock RESULT> 
ENERGY=   -5.174  LOWER_BOUND=    0.730  UPPER_BOUND=    3.036
INTER + INTRA:          -5.174
INTER:                  -5.174
INTRA:                   0.000
UNBOUND:                 0.000

$$$$

     RDKit          3D

 70 72  0  0  0  0  0  0  0  0999 V2000
   48.4556    7.6236   19.6314 C   0  0  0  0  0  0  0  0  0  0  0  0
   48.5783    6.2681   19.6566 C   0  0  0  0  0  0  0  0  0  0  0  0
   47.9956    8.3297   20.7166 N   0  0  0  0  0  0  0  0  0  0  0  0
   47.7581    6.2370   21.8563 N   0  0  0  0  0  0  0  0  0  0  0  0
   47.6194    7.6408   21.8700 C   0  0  0  0  0  0  0  0  0  0  0  0
   48.2359    5.4766   20.7862 C   0  0  0  0  0  0  0  0  0  0  0  0
   48.8450    8.1474   18.4366 N   0  0  0  0  0  0  0  0  0  0  0  0
   49.0613    5.9326   18.4229 N   0  0  0  0  0  0  0  0  0  0  0  0
   49.1981    7.1008   17.7175 C   0  0  0  0  0  0  0  0  0  0  0  0
   49.4214    4.6094   17.9500 C   0  0  0  0  0  0  0  0  0  0  0  0
   47.1851    8.2252   22.8674 O   0  0  0  0  0  0  0  0  0  0  0  0
   48.3631    4.2557   20.7978 O   0  0  0  0  0  0  0  0  0  0  0  0
   48.2298    3.8146   17.4926 C   0  0  0  0  0  0  0  0  0  0  0  0
   47.0721    4.1842   17.3944 O   0  0  0  0  0  0  0  0  0  0  0  0
   47.8764    9.7741   20.6475 C   0  0  0  0  0  0  0  0  0  0  0  0
   47.3619    5.5418   23.0650 C   0  0  0  0  0  0  0  0  0  0  0  0
   48.5720    2.5616   17.1233 O   0  0  0  0  0  0  0  0  0  0  0  0
   48.2777    5.3810   20.9553 C   0  0  0  0  0  0  0  0  0  0  0  0
   47.8016    5.8905   19.7861 C   0  0  0  0  0  0  0  0  0  0  0  0
   48.3841    6.1490   22.0891 N   0  0  0  0  0  0  0  0  0  0  0  0
   47.4700    7.9687   20.8278 N   0  0  0  0  0  0  0  0  0  0  0  0
   47.9697    7.4815   22.0535 C   0  0  0  0  0  0  0  0  0  0  0  0
   47.3715    7.2372   19.6416 C   0  0  0  0  0  0  0  0  0  0  0  0
   48.6175    4.0675   20.8357 N   0  0  0  0  0  0  0  0  0  0  0  0
   47.8695    4.8569   18.8943 N   0  0  0  0  0  0  0  0  0  0  0  0
   48.3678    3.7758   19.5749 C   0  0  0  0  0  0  0  0  0  0  0  0
   47.4636    4.8712   17.5013 C   0  0  0  0  0  0  0  0  0  0  0  0
   48.0308    8.2090   23.0492 O   0  0  0  0  0  0  0  0  0  0  0  0
   46.9531    7.6842   18.5778 O   0  0  0  0  0  0  0  0  0  0  0  0
   48.4689    5.5572   16.6167 C   0  0  0  0  0  0  0  0  0  0  0  0
   49.5847    5.9487   16.9143 O   0  0  0  0  0  0  0  0  0  0  0  0
   48.8846    5.5700   23.3219 C   0  0  0  0  0  0  0  0  0  0  0  0
   47.0573    9.3580   20.8058 C   0  0  0  0  0  0  0  0  0  0  0  0
   48.0232    5.6851   15.3478 O   0  0  0  0  0  0  0  0  0  0  0  0
   47.5363    4.9738   20.3844 N   0  0  0  0  0  0  0  0  0  0  0  0
   47.6452    7.6416   19.6275 N   0  0  0  0  0  0  0  0  0  0  0  0
   48.4169    5.8099   21.2183 C   0  0  0  0  0  0  0  0  0  0  0  0
   48.2645    7.3242   20.9302 C   0  0  0  0  0  0  0  0  0  0  0  0
   47.8443    5.2192   18.9610 C   0  0  0  0  0  0  0  0  0  0  0  0
   48.1465    6.6982   18.6133 C   0  0  0  0  0  0  0  0  0  0  0  0
   49.5586    7.1351   16.6965 H   0  0  0  0  0  0  0  0  0  0  0  0
   49.9363    4.0894   18.7621 H   0  0  0  0  0  0  0  0  0  0  0  0
   50.1116    4.7323   17.1090 H   0  0  0  0  0  0  0  0  0  0  0  0
   47.5845   10.2047   21.6097 H   0  0  0  0  0  0  0  0  0  0  0  0
   48.8399   10.2022   20.3540 H   0  0  0  0  0  0  0  0  0  0  0  0
   47.1172   10.0317   19.9021 H   0  0  0  0  0  0  0  0  0  0  0  0
   47.9400    5.9337   23.9080 H   0  0  0  0  0  0  0  0  0  0  0  0
   46.3010    5.7367   23.2538 H   0  0  0  0  0  0  0  0  0  0  0  0
   47.5180    4.4620   22.9999 H   0  0  0  0  0  0  0  0  0  0  0  0
   47.7203    2.1423   16.8733 H   0  0  0  0  0  0  0  0  0  0  0  0
   48.5282    2.8100   19.1120 H   0  0  0  0  0  0  0  0  0  0  0  0
   47.3489    3.8332   17.1730 H   0  0  0  0  0  0  0  0  0  0  0  0
   46.4958    5.3780   17.4415 H   0  0  0  0  0  0  0  0  0  0  0  0
   49.1446    6.3413   24.0512 H   0  0  0  0  0  0  0  0  0  0  0  0
   48.1062    4.9314   23.7493 H   0  0  0  0  0  0  0  0  0  0  0  0
   49.7783    4.9739   23.1161 H   0  0  0  0  0  0  0  0  0  0  0  0
   47.9494    9.9857   20.8910 H   0  0  0  0  0  0  0  0  0  0  0  0
   46.4053    9.5628   21.6605 H   0  0  0  0  0  0  0  0  0  0  0  0
   46.5244    9.6195   19.8888 H   0  0  0  0  0  0  0  0  0  0  0  0
   48.7428    6.1682   14.8877 H   0  0  0  0  0  0  0  0  0  0  0  0
   46.5787    5.2819   20.5521 H   0  0  0  0  0  0  0  0  0  0  0  0
   46.6414    7.4863   19.7155 H   0  0  0  0  0  0  0  0  0  0  0  0
   48.1986    5.6158   22.2740 H   0  0  0  0  0  0  0  0  0  0  0  0
   49.4576    5.5049   21.0514 H   0  0  0  0  0  0  0  0  0  0  0  0
   49.2483    7.8043   20.9875 H   0  0  0  0  0  0  0  0  0  0  0  0
   47.6462    7.7815   21.7115 H   0  0  0  0  0  0  0  0  0  0  0  0
   48.6969    4.5972   18.6640 H   0  0  0  0  0  0  0  0  0  0  0  0
   46.9855    4.8760   18.3721 H   0  0  0  0  0  0  0  0  0  0  0  0
   49.2292    6.8381   18.5020 H   0  0  0  0  0  0  0  0  0  0  0  0
   47.6976    6.9443   17.6446 H   0  0  0  0  0  0  0  0  0  0  0  0
  2  1  2  0
  3  1  1  0
  4  5  1  0
  5  3  1  0
  6  2  1  0
  7  1  1  0
  8  2  1  0
  9  7  2  0
 10  8  1  0
 11  5  2  0
 12  6  2  0
 13 10  1  0
 14 13  2  0
 15  3  1  0
 16  4  1  0
 17 13  1  0
  6  4  1  0
  8  9  1  0
 19 18  2  0
 20 18  1  0
 21 22  1  0
 22 20  1  0
 23 19  1  0
 24 18  1  0
 25 19  1  0
 26 24  2  0
 27 25  1  0
 28 22  2  0
 29 23  2  0
 30 27  1  0
 31 30  2  0
 32 20  1  0
 33 21  1  0
 34 30  1  0
 23 21  1  0
 25 26  1  0
 36 40  1  0
 37 35  1  0
 38 37  1  0
 39 35  1  0
 40 39  1  0
 38 36  1  0
  9 41  1  0
 10 42  1  0
 10 43  1  0
 15 44  1  0
 15 45  1  0
 15 46  1  0
 16 47  1  0
 16 48  1  0
 16 49  1  0
 17 50  1  0
 26 51  1  0
 27 52  1  0
 27 53  1  0
 32 54  1  0
 32 55  1  0
 32 56  1  0
 33 57  1  0
 33 58  1  0
 33 59  1  0
 34 60  1  0
 35 61  1  0
 36 62  1  0
 37 63  1  0
 37 64  1  0
 38 65  1  0
 38 66  1  0
 39 67  1  0
 39 68  1  0
 40 69  1  0
 40 70  1  0
M  END
> <Uni-Dock RESULT> 
ENERGY=   -5.079  LOWER_BOUND=    5.981  UPPER_BOUND=    8.065
INTER + INTRA:          -5.079
INTER:                  -5.079
INTRA:                   0.000
UNBOUND:                 0.000

$$$$

     RDKit          3D

 70 72  0  0  0  0  0  0  0  0999 V2000
   45.6220    8.0234   11.6670 C   0  0  0  0  0  0  0  0  0  0  0  0
   45.8488    6.7448   12.0756 C   0  0  0  0  0  0  0  0  0  0  0  0
   46.3924    9.0722   12.1077 N   0  0  0  0  0  0  0  0  0  0  0  0
   47.6229    7.4915   13.4198 N   0  0  0  0  0  0  0  0  0  0  0  0
   47.4212    8.8286   13.0181 C   0  0  0  0  0  0  0  0  0  0  0  0
   46.8792    6.3907   12.9881 C   0  0  0  0  0  0  0  0  0  0  0  0
   44.5788    8.1014   10.7958 N   0  0  0  0  0  0  0  0  0  0  0  0
   44.9036    5.9944   11.4342 N   0  0  0  0  0  0  0  0  0  0  0  0
   44.1537    6.8593   10.6788 C   0  0  0  0  0  0  0  0  0  0  0  0
   44.7433    4.5535   11.4831 C   0  0  0  0  0  0  0  0  0  0  0  0
   48.1331    9.7369   13.4576 O   0  0  0  0  0  0  0  0  0  0  0  0
   47.0788    5.2311   13.3383 O   0  0  0  0  0  0  0  0  0  0  0  0
   44.0045    4.0953   12.7097 C   0  0  0  0  0  0  0  0  0  0  0  0
   43.4734    4.7800   13.5674 O   0  0  0  0  0  0  0  0  0  0  0  0
   46.1153   10.4211   11.6504 C   0  0  0  0  0  0  0  0  0  0  0  0
   48.6971    7.2615   14.3656 C   0  0  0  0  0  0  0  0  0  0  0  0
   43.9263    2.7488   12.7768 O   0  0  0  0  0  0  0  0  0  0  0  0
   47.0624    6.3291   13.0338 C   0  0  0  0  0  0  0  0  0  0  0  0
   45.7491    6.6751   12.9404 C   0  0  0  0  0  0  0  0  0  0  0  0
   48.0643    7.2661   12.9636 N   0  0  0  0  0  0  0  0  0  0  0  0
   46.3595    8.9336   12.7391 N   0  0  0  0  0  0  0  0  0  0  0  0
   47.7309    8.6137   12.8189 C   0  0  0  0  0  0  0  0  0  0  0  0
   45.3071    8.0154   12.7740 C   0  0  0  0  0  0  0  0  0  0  0  0
   47.2235    4.9862   13.1945 N   0  0  0  0  0  0  0  0  0  0  0  0
   45.0640    5.4953   13.0230 N   0  0  0  0  0  0  0  0  0  0  0  0
   45.9975    4.5027   13.1771 C   0  0  0  0  0  0  0  0  0  0  0  0
   43.6250    5.3117   12.9921 C   0  0  0  0  0  0  0  0  0  0  0  0
   48.5934    9.4957   12.7659 O   0  0  0  0  0  0  0  0  0  0  0  0
   44.1192    8.3104   12.6822 O   0  0  0  0  0  0  0  0  0  0  0  0
   43.0621    5.4155   11.6008 C   0  0  0  0  0  0  0  0  0  0  0  0
   43.6741    5.4900   10.5488 O   0  0  0  0  0  0  0  0  0  0  0  0
   49.4535    6.8633   13.0792 C   0  0  0  0  0  0  0  0  0  0  0  0
   46.0326   10.3362   12.5752 C   0  0  0  0  0  0  0  0  0  0  0  0
   41.7116    5.3779   11.5965 O   0  0  0  0  0  0  0  0  0  0  0  0
   46.3255    6.0572   13.6851 N   0  0  0  0  0  0  0  0  0  0  0  0
   45.3393    8.2967   12.3759 N   0  0  0  0  0  0  0  0  0  0  0  0
   47.3041    6.7404   12.8218 C   0  0  0  0  0  0  0  0  0  0  0  0
   46.8031    8.1128   12.3073 C   0  0  0  0  0  0  0  0  0  0  0  0
   45.0745    5.8518   12.9275 C   0  0  0  0  0  0  0  0  0  0  0  0
   44.6774    7.0332   12.0076 C   0  0  0  0  0  0  0  0  0  0  0  0
   43.3209    6.5374   10.0652 H   0  0  0  0  0  0  0  0  0  0  0  0
   45.7383    4.1020   11.4476 H   0  0  0  0  0  0  0  0  0  0  0  0
   44.1805    4.2503   10.5942 H   0  0  0  0  0  0  0  0  0  0  0  0
   46.8613   11.1345   12.0122 H   0  0  0  0  0  0  0  0  0  0  0  0
   46.1199   10.4394   10.5562 H   0  0  0  0  0  0  0  0  0  0  0  0
   45.1304   10.7248   12.0192 H   0  0  0  0  0  0  0  0  0  0  0  0
   49.6340    7.6348   13.9396 H   0  0  0  0  0  0  0  0  0  0  0  0
   48.4875    7.8220   15.2826 H   0  0  0  0  0  0  0  0  0  0  0  0
   48.8184    6.2044   14.6159 H   0  0  0  0  0  0  0  0  0  0  0  0
   43.4522    2.5759   13.6188 H   0  0  0  0  0  0  0  0  0  0  0  0
   45.7358    3.4561   13.2709 H   0  0  0  0  0  0  0  0  0  0  0  0
   43.4033    4.3177   13.3936 H   0  0  0  0  0  0  0  0  0  0  0  0
   43.1783    6.0711   13.6408 H   0  0  0  0  0  0  0  0  0  0  0  0
   50.1305    7.6598   12.7603 H   0  0  0  0  0  0  0  0  0  0  0  0
   49.6621    6.6240   14.1259 H   0  0  0  0  0  0  0  0  0  0  0  0
   49.6379    5.9832   12.4564 H   0  0  0  0  0  0  0  0  0  0  0  0
   46.3420   10.6492   11.5735 H   0  0  0  0  0  0  0  0  0  0  0  0
   46.5822   10.9316   13.3107 H   0  0  0  0  0  0  0  0  0  0  0  0
   44.9645   10.5314   12.6950 H   0  0  0  0  0  0  0  0  0  0  0  0
   41.4710    5.4854   10.6513 H   0  0  0  0  0  0  0  0  0  0  0  0
   46.1179    6.6839   14.4624 H   0  0  0  0  0  0  0  0  0  0  0  0
   45.0970    8.4938   13.3464 H   0  0  0  0  0  0  0  0  0  0  0  0
   48.2368    6.8784   13.3794 H   0  0  0  0  0  0  0  0  0  0  0  0
   47.5404    6.0902   11.9702 H   0  0  0  0  0  0  0  0  0  0  0  0
   47.1355    8.2545   11.2723 H   0  0  0  0  0  0  0  0  0  0  0  0
   47.2658    8.9123   12.8977 H   0  0  0  0  0  0  0  0  0  0  0  0
   45.1629    4.9397   12.3256 H   0  0  0  0  0  0  0  0  0  0  0  0
   44.2729    5.6718   13.6536 H   0  0  0  0  0  0  0  0  0  0  0  0
   44.9269    6.7916   10.9667 H   0  0  0  0  0  0  0  0  0  0  0  0
   43.5917    7.1755   12.0446 H   0  0  0  0  0  0  0  0  0  0  0  0
  2  1  2  0
  3  1  1  0
  4  5  1  0
  5  3  1  0
  6  2  1  0
  7  1  1  0
  8  2  1  0
  9  7  2  0
 10  8  1  0
 11  5  2  0
 12  6  2  0
 13 10  1  0
 14 13  2  0
 15  3  1  0
 16  4  1  0
 17 13  1  0
  6  4  1  0
  8  9  1  0
 19 18  2  0
 20 18  1  0
 21 22  1  0
 22 20  1  0
 23 19  1  0
 24 18  1  0
 25 19  1  0
 26 24  2  0
 27 25  1  0
 28 22  2  0
 29 23  2  0
 30 27  1  0
 31 30  2  0
 32 20  1  0
 33 21  1  0
 34 30  1  0
 23 21  1  0
 25 26  1  0
 36 40  1  0
 37 35  1  0
 38 37  1  0
 39 35  1  0
 40 39  1  0
 38 36  1  0
  9 41  1  0
 10 42  1  0
 10 43  1  0
 15 44  1  0
 15 45  1  0
 15 46  1  0
 16 47  1  0
 16 48  1  0
 16 49  1  0
 17 50  1  0
 26 51  1  0
 27 52  1  0
 27 53  1  0
 32 54  1  0
 32 55  1  0
 32 56  1  0
 33 57  1  0
 33 58  1  0
 33 59  1  0
 34 60  1  0
 35 61  1  0
 36 62  1  0
 37 63  1  0
 37 64  1  0
 38 65  1  0
 38 66  1  0
 39 67  1  0
 39 68  1  0
 40 69  1  0
 40 70  1  0
M  END
> <Uni-Dock RESULT> 
ENERGY=   -4.861  LOWER_BOUND=    1.310  UPPER_BOUND=    4.468
INTER + INTRA:          -4.861
INTER:                  -4.861
INTRA:                   0.000
UNBOUND:                 0.000

$$$$

     RDKit          3D

 70 72  0  0  0  0  0  0  0  0999 V2000
   46.0417    8.8131   11.8268 C   0  0  0  0  0  0  0  0  0  0  0  0
   47.2995    8.9763   12.3214 C   0  0  0  0  0  0  0  0  0  0  0  0
   45.2382    9.8853   11.5225 N   0  0  0  0  0  0  0  0  0  0  0  0
   47.0174   11.3064   12.2637 N   0  0  0  0  0  0  0  0  0  0  0  0
   45.7108   11.1786   11.7477 C   0  0  0  0  0  0  0  0  0  0  0  0
   47.8777   10.2500   12.5725 C   0  0  0  0  0  0  0  0  0  0  0  0
   45.7201    7.4986   11.6785 N   0  0  0  0  0  0  0  0  0  0  0  0
   47.7808    7.7086   12.4921 N   0  0  0  0  0  0  0  0  0  0  0  0
   46.7873    6.8490   12.0984 C   0  0  0  0  0  0  0  0  0  0  0  0
   49.1040    7.3244   12.9456 C   0  0  0  0  0  0  0  0  0  0  0  0
   45.0241   12.1761   11.5062 O   0  0  0  0  0  0  0  0  0  0  0  0
   49.0180   10.3812   13.0079 O   0  0  0  0  0  0  0  0  0  0  0  0
   49.2400    7.3762   14.4421 C   0  0  0  0  0  0  0  0  0  0  0  0
   48.3726    7.6015   15.2687 O   0  0  0  0  0  0  0  0  0  0  0  0
   43.9020    9.6681   11.0003 C   0  0  0  0  0  0  0  0  0  0  0  0
   47.4880   12.6587   12.4895 C   0  0  0  0  0  0  0  0  0  0  0  0
   50.4962    7.0858   14.8439 O   0  0  0  0  0  0  0  0  0  0  0  0
   47.9872   10.4082   12.5230 C   0  0  0  0  0  0  0  0  0  0  0  0
   47.2776    9.3933   13.0883 C   0  0  0  0  0  0  0  0  0  0  0  0
   47.3932   11.3387   11.7056 N   0  0  0  0  0  0  0  0  0  0  0  0
   45.3176   10.2035   12.0805 N   0  0  0  0  0  0  0  0  0  0  0  0
   46.0202   11.2611   11.4663 C   0  0  0  0  0  0  0  0  0  0  0  0
   45.8812    9.2164   12.8928 C   0  0  0  0  0  0  0  0  0  0  0  0
   49.3038   10.3611   12.8684 N   0  0  0  0  0  0  0  0  0  0  0  0
   48.1954    8.6699   13.7973 N   0  0  0  0  0  0  0  0  0  0  0  0
   49.4055    9.2939   13.6351 C   0  0  0  0  0  0  0  0  0  0  0  0
   47.9495    7.4877   14.6019 C   0  0  0  0  0  0  0  0  0  0  0  0
   45.4366   12.0815   10.7516 O   0  0  0  0  0  0  0  0  0  0  0  0
   45.2570    8.2906   13.4024 O   0  0  0  0  0  0  0  0  0  0  0  0
   47.7800    6.2484   13.7657 C   0  0  0  0  0  0  0  0  0  0  0  0
   47.9607    6.1236   12.5663 O   0  0  0  0  0  0  0  0  0  0  0  0
   48.1777   12.4147   11.1293 C   0  0  0  0  0  0  0  0  0  0  0  0
   43.8954   10.1307   11.8098 C   0  0  0  0  0  0  0  0  0  0  0  0
   47.4191    5.1804   14.5102 O   0  0  0  0  0  0  0  0  0  0  0  0
   47.9854   10.1599   13.5127 N   0  0  0  0  0  0  0  0  0  0  0  0
   45.6497    9.0634   12.4908 N   0  0  0  0  0  0  0  0  0  0  0  0
   47.6806   10.5548   12.1267 C   0  0  0  0  0  0  0  0  0  0  0  0
   46.2600   10.1332   11.6756 C   0  0  0  0  0  0  0  0  0  0  0  0
   47.8651    8.6929   13.6338 C   0  0  0  0  0  0  0  0  0  0  0  0
   46.6848    8.0761   12.8426 C   0  0  0  0  0  0  0  0  0  0  0  0
   46.8912    5.7712   12.1329 H   0  0  0  0  0  0  0  0  0  0  0  0
   49.8295    7.9930   12.4745 H   0  0  0  0  0  0  0  0  0  0  0  0
   49.2883    6.2998   12.6065 H   0  0  0  0  0  0  0  0  0  0  0  0
   43.4164   10.6078   10.7217 H   0  0  0  0  0  0  0  0  0  0  0  0
   43.9605    9.0313   10.1122 H   0  0  0  0  0  0  0  0  0  0  0  0
   43.2977    9.1741   11.7679 H   0  0  0  0  0  0  0  0  0  0  0  0
   47.4365   13.2164   11.5488 H   0  0  0  0  0  0  0  0  0  0  0  0
   46.8294   13.1460   13.2161 H   0  0  0  0  0  0  0  0  0  0  0  0
   48.5143   12.6903   12.8642 H   0  0  0  0  0  0  0  0  0  0  0  0
   50.4642    7.1755   15.8209 H   0  0  0  0  0  0  0  0  0  0  0  0
   50.3201    8.9354   14.0910 H   0  0  0  0  0  0  0  0  0  0  0  0
   48.8045    7.3521   15.2718 H   0  0  0  0  0  0  0  0  0  0  0  0
   47.0499    7.6710   15.1970 H   0  0  0  0  0  0  0  0  0  0  0  0
   47.6391   12.9163   10.3214 H   0  0  0  0  0  0  0  0  0  0  0  0
   48.3958   13.1465   11.9125 H   0  0  0  0  0  0  0  0  0  0  0  0
   49.1135   12.0171   10.7259 H   0  0  0  0  0  0  0  0  0  0  0  0
   43.7564    9.8459   10.7625 H   0  0  0  0  0  0  0  0  0  0  0  0
   43.4393   11.1129   11.9665 H   0  0  0  0  0  0  0  0  0  0  0  0
   43.3871    9.4033   12.4469 H   0  0  0  0  0  0  0  0  0  0  0  0
   47.3104    4.4570   13.8562 H   0  0  0  0  0  0  0  0  0  0  0  0
   47.2738   10.5798   14.1105 H   0  0  0  0  0  0  0  0  0  0  0  0
   45.3243    9.4841   13.3606 H   0  0  0  0  0  0  0  0  0  0  0  0
   47.7852   11.6413   12.0339 H   0  0  0  0  0  0  0  0  0  0  0  0
   48.4281   10.1090   11.4585 H   0  0  0  0  0  0  0  0  0  0  0  0
   46.2933    9.8127   10.6278 H   0  0  0  0  0  0  0  0  0  0  0  0
   45.5935   11.0026   11.7169 H   0  0  0  0  0  0  0  0  0  0  0  0
   48.8017    8.2261   13.3071 H   0  0  0  0  0  0  0  0  0  0  0  0
   47.7515    8.4564   14.6984 H   0  0  0  0  0  0  0  0  0  0  0  0
   47.0595    7.6107   11.9222 H   0  0  0  0  0  0  0  0  0  0  0  0
   46.2274    7.2756   13.4347 H   0  0  0  0  0  0  0  0  0  0  0  0
  2  1  2  0
  3  1  1  0
  4  5  1  0
  5  3  1  0
  6  2  1  0
  7  1  1  0
  8  2  1  0
  9  7  2  0
 10  8  1  0
 11  5  2  0
 12  6  2  0
 13 10  1  0
 14 13  2  0
 15  3  1  0
 16  4  1  0
 17 13  1  0
  6  4  1  0
  8  9  1  0
 19 18  2  0
 20 18  1  0
 21 22  1  0
 22 20  1  0
 23 19  1  0
 24 18  1  0
 25 19  1  0
 26 24  2  0
 27 25  1  0
 28 22  2  0
 29 23  2  0
 30 27  1  0
 31 30  2  0
 32 20  1  0
 33 21  1  0
 34 30  1  0
 23 21  1  0
 25 26  1  0
 36 40  1  0
 37 35  1  0
 38 37  1  0
 39 35  1  0
 40 39  1  0
 38 36  1  0
  9 41  1  0
 10 42  1  0
 10 43  1  0
 15 44  1  0
 15 45  1  0
 15 46  1  0
 16 47  1  0
 16 48  1  0
 16 49  1  0
 17 50  1  0
 26 51  1  0
 27 52  1  0
 27 53  1  0
 32 54  1  0
 32 55  1  0
 32 56  1  0
 33 57  1  0
 33 58  1  0
 33 59  1  0
 34 60  1  0
 35 61  1  0
 36 62  1  0
 37 63  1  0
 37 64  1  0
 38 65  1  0
 38 66  1  0
 39 67  1  0
 39 68  1  0
 40 69  1  0
 40 70  1  0
M  END
> <Uni-Dock RESULT> 
ENERGY=   -4.585  LOWER_BOUND=    2.053  UPPER_BOUND=    4.771
INTER + INTRA:          -4.585
INTER:                  -4.585
INTRA:                   0.000
UNBOUND:                 0.000

$$$$

     RDKit          3D

 70 72  0  0  0  0  0  0  0  0999 V2000
   40.6650   10.5581   10.6565 C   0  0  0  0  0  0  0  0  0  0  0  0
   41.5452   11.3725   10.0119 C   0  0  0  0  0  0  0  0  0  0  0  0
   39.3392   10.8905   10.7961 N   0  0  0  0  0  0  0  0  0  0  0  0
   39.8252   12.9237    9.6282 N   0  0  0  0  0  0  0  0  0  0  0  0
   38.8826   12.1063   10.2864 C   0  0  0  0  0  0  0  0  0  0  0  0
   41.1772   12.6230    9.4460 C   0  0  0  0  0  0  0  0  0  0  0  0
   41.2619    9.4216   11.1097 N   0  0  0  0  0  0  0  0  0  0  0  0
   42.7429   10.7166   10.0696 N   0  0  0  0  0  0  0  0  0  0  0  0
   42.5239    9.5464   10.7503 C   0  0  0  0  0  0  0  0  0  0  0  0
   44.0018   11.1324    9.4810 C   0  0  0  0  0  0  0  0  0  0  0  0
   37.7049   12.4603   10.3982 O   0  0  0  0  0  0  0  0  0  0  0  0
   41.9802   13.3413    8.8574 O   0  0  0  0  0  0  0  0  0  0  0  0
   44.7282   12.1436   10.3238 C   0  0  0  0  0  0  0  0  0  0  0  0
   44.4292   12.5520   11.4331 O   0  0  0  0  0  0  0  0  0  0  0  0
   38.4343    9.9958   11.4933 C   0  0  0  0  0  0  0  0  0  0  0  0
   39.3290   14.1818    9.1062 C   0  0  0  0  0  0  0  0  0  0  0  0
   45.8617   12.5738    9.7291 O   0  0  0  0  0  0  0  0  0  0  0  0
   41.1178   12.7397    9.2966 C   0  0  0  0  0  0  0  0  0  0  0  0
   41.6067   12.1430   10.4182 C   0  0  0  0  0  0  0  0  0  0  0  0
   39.7793   12.7156    8.9891 N   0  0  0  0  0  0  0  0  0  0  0  0
   39.4321   11.4912   11.0184 N   0  0  0  0  0  0  0  0  0  0  0  0
   38.8890   12.0861    9.8606 C   0  0  0  0  0  0  0  0  0  0  0  0
   40.7869   11.4621   11.3583 C   0  0  0  0  0  0  0  0  0  0  0  0
   42.1034   13.3283    8.5638 N   0  0  0  0  0  0  0  0  0  0  0  0
   42.9571   12.3486   10.3702 N   0  0  0  0  0  0  0  0  0  0  0  0
   43.2098   13.0704    9.2321 C   0  0  0  0  0  0  0  0  0  0  0  0
   43.9450   11.9240   11.3445 C   0  0  0  0  0  0  0  0  0  0  0  0
   37.6752   12.0500    9.6371 O   0  0  0  0  0  0  0  0  0  0  0  0
   41.2442   10.9210   12.3606 O   0  0  0  0  0  0  0  0  0  0  0  0
   44.2734   10.4603   11.2297 C   0  0  0  0  0  0  0  0  0  0  0  0
   43.9214    9.6795   10.3617 O   0  0  0  0  0  0  0  0  0  0  0  0
   39.2908   13.3727    7.7912 C   0  0  0  0  0  0  0  0  0  0  0  0
   38.4946   10.8303   11.9046 C   0  0  0  0  0  0  0  0  0  0  0  0
   45.0897   10.0448   12.2228 O   0  0  0  0  0  0  0  0  0  0  0  0
   41.7271   13.1772    9.9884 N   0  0  0  0  0  0  0  0  0  0  0  0
   40.5644   11.0301   11.3077 N   0  0  0  0  0  0  0  0  0  0  0  0
   40.6565   12.5034    9.2336 C   0  0  0  0  0  0  0  0  0  0  0  0
   39.8663   11.4801   10.0865 C   0  0  0  0  0  0  0  0  0  0  0  0
   42.6677   12.1612   10.5023 C   0  0  0  0  0  0  0  0  0  0  0  0
   41.9967   10.8600   11.0087 C   0  0  0  0  0  0  0  0  0  0  0  0
   43.3069    8.8255   10.9523 H   0  0  0  0  0  0  0  0  0  0  0  0
   43.7915   11.5438    8.4902 H   0  0  0  0  0  0  0  0  0  0  0  0
   44.6296   10.2418    9.3731 H   0  0  0  0  0  0  0  0  0  0  0  0
   37.3995   10.3473   11.4479 H   0  0  0  0  0  0  0  0  0  0  0  0
   38.4838    9.0032   11.0351 H   0  0  0  0  0  0  0  0  0  0  0  0
   38.7383    9.9319   12.5430 H   0  0  0  0  0  0  0  0  0  0  0  0
   38.5074   13.9808    8.4113 H   0  0  0  0  0  0  0  0  0  0  0  0
   38.9402   14.7807    9.9363 H   0  0  0  0  0  0  0  0  0  0  0  0
   40.1005   14.7553    8.5860 H   0  0  0  0  0  0  0  0  0  0  0  0
   46.2262   13.2368   10.3546 H   0  0  0  0  0  0  0  0  0  0  0  0
   44.2052   13.3796    8.9383 H   0  0  0  0  0  0  0  0  0  0  0  0
   44.8556   12.5083   11.1779 H   0  0  0  0  0  0  0  0  0  0  0  0
   43.5492   12.1481   12.3396 H   0  0  0  0  0  0  0  0  0  0  0  0
   38.2705   13.0633    7.5510 H   0  0  0  0  0  0  0  0  0  0  0  0
   39.2995   14.4538    7.9573 H   0  0  0  0  0  0  0  0  0  0  0  0
   39.9355   13.1252    6.9429 H   0  0  0  0  0  0  0  0  0  0  0  0
   38.1221    9.9304   11.4059 H   0  0  0  0  0  0  0  0  0  0  0  0
   37.6470   11.4926   12.1053 H   0  0  0  0  0  0  0  0  0  0  0  0
   38.9503   10.5471   12.8562 H   0  0  0  0  0  0  0  0  0  0  0  0
   45.2004    9.0840   12.0570 H   0  0  0  0  0  0  0  0  0  0  0  0
   41.2919   13.6310   10.7913 H   0  0  0  0  0  0  0  0  0  0  0  0
   40.4861   11.7735   12.0011 H   0  0  0  0  0  0  0  0  0  0  0  0
   39.9679   13.2588    8.8396 H   0  0  0  0  0  0  0  0  0  0  0  0
   41.0986   11.9982    8.3657 H   0  0  0  0  0  0  0  0  0  0  0  0
   39.6214   10.6075    9.4697 H   0  0  0  0  0  0  0  0  0  0  0  0
   38.9125   11.9244   10.3944 H   0  0  0  0  0  0  0  0  0  0  0  0
   43.3929   11.9119    9.7188 H   0  0  0  0  0  0  0  0  0  0  0  0
   43.2355   12.6190   11.3210 H   0  0  0  0  0  0  0  0  0  0  0  0
   42.1114   10.0682   10.2575 H   0  0  0  0  0  0  0  0  0  0  0  0
   42.5106   10.5120   11.9116 H   0  0  0  0  0  0  0  0  0  0  0  0
  2  1  2  0
  3  1  1  0
  4  5  1  0
  5  3  1  0
  6  2  1  0
  7  1  1  0
  8  2  1  0
  9  7  2  0
 10  8  1  0
 11  5  2  0
 12  6  2  0
 13 10  1  0
 14 13  2  0
 15  3  1  0
 16  4  1  0
 17 13  1  0
  6  4  1  0
  8  9  1  0
 19 18  2  0
 20 18  1  0
 21 22  1  0
 22 20  1  0
 23 19  1  0
 24 18  1  0
 25 19  1  0
 26 24  2  0
 27 25  1  0
 28 22  2  0
 29 23  2  0
 30 27  1  0
 31 30  2  0
 32 20  1  0
 33 21  1  0
 34 30  1  0
 23 21  1  0
 25 26  1  0
 36 40  1  0
 37 35  1  0
 38 37  1  0
 39 35  1  0
 40 39  1  0
 38 36  1  0
  9 41  1  0
 10 42  1  0
 10 43  1  0
 15 44  1  0
 15 45  1  0
 15 46  1  0
 16 47  1  0
 16 48  1  0
 16 49  1  0
 17 50  1  0
 26 51  1  0
 27 52  1  0
 27 53  1  0
 32 54  1  0
 32 55  1  0
 32 56  1  0
 33 57  1  0
 33 58  1  0
 33 59  1  0
 34 60  1  0
 35 61  1  0
 36 62  1  0
 37 63  1  0
 37 64  1  0
 38 65  1  0
 38 66  1  0
 39 67  1  0
 39 68  1  0
 40 69  1  0
 40 70  1  0
M  END
> <Uni-Dock RESULT> 
ENERGY=   -4.516  LOWER_BOUND=    6.030  UPPER_BOUND=    8.439
INTER + INTRA:          -4.516
INTER:                  -4.516
INTRA:                   0.000
UNBOUND:                 0.000

$$$$

     RDKit          3D

 70 72  0  0  0  0  0  0  0  0999 V2000
   46.3319   11.8150   10.9678 C   0  0  0  0  0  0  0  0  0  0  0  0
   45.4017   10.8249   11.0558 C   0  0  0  0  0  0  0  0  0  0  0  0
   47.4798   11.7997   11.7226 N   0  0  0  0  0  0  0  0  0  0  0  0
   46.7032    9.7504   12.6878 N   0  0  0  0  0  0  0  0  0  0  0  0
   47.6910   10.7554   12.6234 C   0  0  0  0  0  0  0  0  0  0  0  0
   45.5299    9.7124   11.9307 C   0  0  0  0  0  0  0  0  0  0  0  0
   45.9772   12.7670   10.0615 N   0  0  0  0  0  0  0  0  0  0  0  0
   44.4235   11.1774   10.1688 N   0  0  0  0  0  0  0  0  0  0  0  0
   44.8113   12.3627    9.5983 C   0  0  0  0  0  0  0  0  0  0  0  0
   43.2265   10.4282    9.8369 C   0  0  0  0  0  0  0  0  0  0  0  0
   48.6978   10.7015   13.3364 O   0  0  0  0  0  0  0  0  0  0  0  0
   44.6877    8.8211   11.9903 O   0  0  0  0  0  0  0  0  0  0  0  0
   42.1249   10.6235   10.8414 C   0  0  0  0  0  0  0  0  0  0  0  0
   42.1047   11.3795   11.7977 O   0  0  0  0  0  0  0  0  0  0  0  0
   48.4448   12.8765   11.6014 C   0  0  0  0  0  0  0  0  0  0  0  0
   46.9432    8.6751   13.6299 C   0  0  0  0  0  0  0  0  0  0  0  0
   41.0444    9.8648   10.5577 O   0  0  0  0  0  0  0  0  0  0  0  0
   45.5829    9.5260   11.9742 C   0  0  0  0  0  0  0  0  0  0  0  0
   45.0717   10.7827   11.8632 C   0  0  0  0  0  0  0  0  0  0  0  0
   46.9150    9.3065   12.2275 N   0  0  0  0  0  0  0  0  0  0  0  0
   47.1968   11.6843   12.2932 N   0  0  0  0  0  0  0  0  0  0  0  0
   47.7665   10.3986   12.4025 C   0  0  0  0  0  0  0  0  0  0  0  0
   45.8572   11.9583   12.0065 C   0  0  0  0  0  0  0  0  0  0  0  0
   44.6267    8.5717   11.8016 N   0  0  0  0  0  0  0  0  0  0  0  0
   43.7452   10.6036   11.5866 N   0  0  0  0  0  0  0  0  0  0  0  0
   43.5231    9.2507   11.5604 C   0  0  0  0  0  0  0  0  0  0  0  0
   42.7423   11.6337   11.3909 C   0  0  0  0  0  0  0  0  0  0  0  0
   48.9682   10.2546   12.6468 O   0  0  0  0  0  0  0  0  0  0  0  0
   45.3830   13.0848   11.8944 O   0  0  0  0  0  0  0  0  0  0  0  0
   42.8286   12.2689   10.0297 C   0  0  0  0  0  0  0  0  0  0  0  0
   43.5198   11.9257    9.0856 O   0  0  0  0  0  0  0  0  0  0  0  0
   47.4239    7.9534   12.3518 C   0  0  0  0  0  0  0  0  0  0  0  0
   48.0985   12.8062   12.4641 C   0  0  0  0  0  0  0  0  0  0  0  0
   41.9829   13.3148    9.9041 O   0  0  0  0  0  0  0  0  0  0  0  0
   44.7676    9.8850   12.4718 N   0  0  0  0  0  0  0  0  0  0  0  0
   46.1889   12.1392   11.6969 N   0  0  0  0  0  0  0  0  0  0  0  0
   46.0931    9.6029   11.8944 C   0  0  0  0  0  0  0  0  0  0  0  0
   46.9545   10.8763   11.7054 C   0  0  0  0  0  0  0  0  0  0  0  0
   44.0446   10.8196   11.5858 C   0  0  0  0  0  0  0  0  0  0  0  0
   44.9266   11.9323   10.9664 C   0  0  0  0  0  0  0  0  0  0  0  0
   44.2177   12.8828    8.8562 H   0  0  0  0  0  0  0  0  0  0  0  0
   43.4976    9.3712    9.7705 H   0  0  0  0  0  0  0  0  0  0  0  0
   42.8795   10.7712    8.8567 H   0  0  0  0  0  0  0  0  0  0  0  0
   49.3446   12.6849   12.1929 H   0  0  0  0  0  0  0  0  0  0  0  0
   48.7360   12.9839   10.5519 H   0  0  0  0  0  0  0  0  0  0  0  0
   47.9846   13.8058   11.9522 H   0  0  0  0  0  0  0  0  0  0  0  0
   47.8997    8.1987   13.3917 H   0  0  0  0  0  0  0  0  0  0  0  0
   47.0092    9.0963   14.6385 H   0  0  0  0  0  0  0  0  0  0  0  0
   46.1561    7.9170   13.6128 H   0  0  0  0  0  0  0  0  0  0  0  0
   40.4153   10.0585   11.2860 H   0  0  0  0  0  0  0  0  0  0  0  0
   42.5509    8.8161   11.3635 H   0  0  0  0  0  0  0  0  0  0  0  0
   41.7569   11.1713   11.5071 H   0  0  0  0  0  0  0  0  0  0  0  0
   42.8819   12.3872   12.1718 H   0  0  0  0  0  0  0  0  0  0  0  0
   48.5155    7.9287   12.3028 H   0  0  0  0  0  0  0  0  0  0  0  0
   47.1071    7.5481   13.3170 H   0  0  0  0  0  0  0  0  0  0  0  0
   47.0278    7.3320   11.5435 H   0  0  0  0  0  0  0  0  0  0  0  0
   48.7737   12.8422   11.6039 H   0  0  0  0  0  0  0  0  0  0  0  0
   48.6964   12.6644   13.3696 H   0  0  0  0  0  0  0  0  0  0  0  0
   47.5685   13.7584   12.5406 H   0  0  0  0  0  0  0  0  0  0  0  0
   42.1554   13.6565    9.0006 H   0  0  0  0  0  0  0  0  0  0  0  0
   44.9199   10.3574   13.3627 H   0  0  0  0  0  0  0  0  0  0  0  0
   45.9473   12.3616   12.6621 H   0  0  0  0  0  0  0  0  0  0  0  0
   46.6226    8.8976   12.5441 H   0  0  0  0  0  0  0  0  0  0  0  0
   45.9593    9.1004   10.9282 H   0  0  0  0  0  0  0  0  0  0  0  0
   47.5226   10.7935   10.7715 H   0  0  0  0  0  0  0  0  0  0  0  0
   47.6902   10.9400   12.5157 H   0  0  0  0  0  0  0  0  0  0  0  0
   43.5608   10.2529   10.7816 H   0  0  0  0  0  0  0  0  0  0  0  0
   43.2408   11.2786   12.1734 H   0  0  0  0  0  0  0  0  0  0  0  0
   45.1566   11.6838    9.9226 H   0  0  0  0  0  0  0  0  0  0  0  0
   44.3667   12.8739   10.9481 H   0  0  0  0  0  0  0  0  0  0  0  0
  2  1  2  0
  3  1  1  0
  4  5  1  0
  5  3  1  0
  6  2  1  0
  7  1  1  0
  8  2  1  0
  9  7  2  0
 10  8  1  0
 11  5  2  0
 12  6  2  0
 13 10  1  0
 14 13  2  0
 15  3  1  0
 16  4  1  0
 17 13  1  0
  6  4  1  0
  8  9  1  0
 19 18  2  0
 20 18  1  0
 21 22  1  0
 22 20  1  0
 23 19  1  0
 24 18  1  0
 25 19  1  0
 26 24  2  0
 27 25  1  0
 28 22  2  0
 29 23  2  0
 30 27  1  0
 31 30  2  0
 32 20  1  0
 33 21  1  0
 34 30  1  0
 23 21  1  0
 25 26  1  0
 36 40  1  0
 37 35  1  0
 38 37  1  0
 39 35  1  0
 40 39  1  0
 38 36  1  0
  9 41  1  0
 10 42  1  0
 10 43  1  0
 15 44  1  0
 15 45  1  0
 15 46  1  0
 16 47  1  0
 16 48  1  0
 16 49  1  0
 17 50  1  0
 26 51  1  0
 27 52  1  0
 27 53  1  0
 32 54  1  0
 32 55  1  0
 32 56  1  0
 33 57  1  0
 33 58  1  0
 33 59  1  0
 34 60  1  0
 35 61  1  0
 36 62  1  0
 37 63  1  0
 37 64  1  0
 38 65  1  0
 38 66  1  0
 39 67  1  0
 39 68  1  0
 40 69  1  0
 40 70  1  0
M  END
> <Uni-Dock RESULT> 
ENERGY=   -4.445  LOWER_BOUND=    3.141  UPPER_BOUND=    5.985
INTER + INTRA:          -4.445
INTER:                  -4.445
INTRA:                   0.000
UNBOUND:                 0.000

$$$$

     RDKit          3D

 70 72  0  0  0  0  0  0  0  0999 V2000
   49.7299    5.5615   19.9217 C   0  0  0  0  0  0  0  0  0  0  0  0
   50.2816    4.5961   19.1362 C   0  0  0  0  0  0  0  0  0  0  0  0
   48.4573    6.0320   19.7052 N   0  0  0  0  0  0  0  0  0  0  0  0
   48.3222    4.5307   17.8445 N   0  0  0  0  0  0  0  0  0  0  0  0
   47.7151    5.5272   18.6371 C   0  0  0  0  0  0  0  0  0  0  0  0
   49.6039    4.0083   18.0341 C   0  0  0  0  0  0  0  0  0  0  0  0
   50.5796    5.9626   20.9069 N   0  0  0  0  0  0  0  0  0  0  0  0
   51.5304    4.3898   19.6520 N   0  0  0  0  0  0  0  0  0  0  0  0
   51.6682    5.2446   20.7156 C   0  0  0  0  0  0  0  0  0  0  0  0
   52.5139    3.4188   19.2115 C   0  0  0  0  0  0  0  0  0  0  0  0
   46.5732    5.9264   18.3889 O   0  0  0  0  0  0  0  0  0  0  0  0
   50.1105    3.1302   17.3418 O   0  0  0  0  0  0  0  0  0  0  0  0
   53.2910    3.8862   18.0122 C   0  0  0  0  0  0  0  0  0  0  0  0
   53.2468    4.9749   17.4651 O   0  0  0  0  0  0  0  0  0  0  0  0
   47.9074    7.0644   20.5637 C   0  0  0  0  0  0  0  0  0  0  0  0
   47.5331    4.0204   16.7408 C   0  0  0  0  0  0  0  0  0  0  0  0
   54.1513    2.9435   17.5710 O   0  0  0  0  0  0  0  0  0  0  0  0
   49.4908    3.8688   17.9490 C   0  0  0  0  0  0  0  0  0  0  0  0
   50.3415    4.8688   18.3088 C   0  0  0  0  0  0  0  0  0  0  0  0
   48.1359    3.9625   18.1548 N   0  0  0  0  0  0  0  0  0  0  0  0
   48.5215    6.1420   19.0706 N   0  0  0  0  0  0  0  0  0  0  0  0
   47.6096    5.1234   18.7238 C   0  0  0  0  0  0  0  0  0  0  0  0
   49.9081    6.0811   18.9104 C   0  0  0  0  0  0  0  0  0  0  0  0
   50.1510    2.8175   17.3888 N   0  0  0  0  0  0  0  0  0  0  0  0
   51.5869    4.4114   17.9800 N   0  0  0  0  0  0  0  0  0  0  0  0
   51.4210    3.1681   17.4261 C   0  0  0  0  0  0  0  0  0  0  0  0
   52.8494    5.1074   18.1442 C   0  0  0  0  0  0  0  0  0  0  0  0
   46.3979    5.2627   18.9155 O   0  0  0  0  0  0  0  0  0  0  0  0
   50.6888    6.9699   19.2375 O   0  0  0  0  0  0  0  0  0  0  0  0
   53.3365    5.0862   19.5676 C   0  0  0  0  0  0  0  0  0  0  0  0
   52.8771    4.4592   20.5072 O   0  0  0  0  0  0  0  0  0  0  0  0
   47.2567    2.8824   17.7477 C   0  0  0  0  0  0  0  0  0  0  0  0
   47.9586    7.3343   19.6728 C   0  0  0  0  0  0  0  0  0  0  0  0
   54.4393    5.8479   19.7371 O   0  0  0  0  0  0  0  0  0  0  0  0
   50.1961    4.2975   17.3490 N   0  0  0  0  0  0  0  0  0  0  0  0
   49.7429    6.1503   19.3649 N   0  0  0  0  0  0  0  0  0  0  0  0
   49.0674    3.9702   18.2371 C   0  0  0  0  0  0  0  0  0  0  0  0
   48.6865    5.1338   19.1859 C   0  0  0  0  0  0  0  0  0  0  0  0
   51.3728    4.6430   18.1720 C   0  0  0  0  0  0  0  0  0  0  0  0
   51.0514    5.4777   19.4367 C   0  0  0  0  0  0  0  0  0  0  0  0
   52.5696    5.3022   21.3137 H   0  0  0  0  0  0  0  0  0  0  0  0
   51.9897    2.4865   18.9853 H   0  0  0  0  0  0  0  0  0  0  0  0
   53.2078    3.2474   20.0409 H   0  0  0  0  0  0  0  0  0  0  0  0
   46.8598    7.2736   20.3286 H   0  0  0  0  0  0  0  0  0  0  0  0
   47.9705    6.7383   21.6064 H   0  0  0  0  0  0  0  0  0  0  0  0
   48.4880    7.9828   20.4299 H   0  0  0  0  0  0  0  0  0  0  0  0
   46.5915    3.6201   17.1302 H   0  0  0  0  0  0  0  0  0  0  0  0
   47.3017    4.8459   16.0596 H   0  0  0  0  0  0  0  0  0  0  0  0
   48.0484    3.2342   16.1830 H   0  0  0  0  0  0  0  0  0  0  0  0
   54.5738    3.3512   16.7843 H   0  0  0  0  0  0  0  0  0  0  0  0
   52.2474    2.5658   17.0697 H   0  0  0  0  0  0  0  0  0  0  0  0
   53.5907    4.6160   17.5060 H   0  0  0  0  0  0  0  0  0  0  0  0
   52.7081    6.1382   17.8059 H   0  0  0  0  0  0  0  0  0  0  0  0
   46.2631    2.9845   18.1913 H   0  0  0  0  0  0  0  0  0  0  0  0
   47.1583    2.9034   16.6586 H   0  0  0  0  0  0  0  0  0  0  0  0
   47.6779    1.9227   18.0611 H   0  0  0  0  0  0  0  0  0  0  0  0
   47.5955    7.0789   20.6729 H   0  0  0  0  0  0  0  0  0  0  0  0
   47.1119    7.6851   19.0747 H   0  0  0  0  0  0  0  0  0  0  0  0
   48.6880    8.1433   19.7548 H   0  0  0  0  0  0  0  0  0  0  0  0
   54.6347    5.7781   20.6962 H   0  0  0  0  0  0  0  0  0  0  0  0
   49.9334    5.1284   16.8193 H   0  0  0  0  0  0  0  0  0  0  0  0
   49.7504    6.7392   18.5326 H   0  0  0  0  0  0  0  0  0  0  0  0
   48.1995    3.6990   17.6261 H   0  0  0  0  0  0  0  0  0  0  0  0
   49.3263    3.0819   18.8269 H   0  0  0  0  0  0  0  0  0  0  0  0
   48.4096    4.7263   20.1652 H   0  0  0  0  0  0  0  0  0  0  0  0
   47.7981    5.6439   18.7957 H   0  0  0  0  0  0  0  0  0  0  0  0
   51.8884    3.7221   18.4687 H   0  0  0  0  0  0  0  0  0  0  0  0
   52.0697    5.2015   17.5359 H   0  0  0  0  0  0  0  0  0  0  0  0
   51.0697    4.8296   20.3221 H   0  0  0  0  0  0  0  0  0  0  0  0
   51.8324    6.2318   19.5844 H   0  0  0  0  0  0  0  0  0  0  0  0
  2  1  2  0
  3  1  1  0
  4  5  1  0
  5  3  1  0
  6  2  1  0
  7  1  1  0
  8  2  1  0
  9  7  2  0
 10  8  1  0
 11  5  2  0
 12  6  2  0
 13 10  1  0
 14 13  2  0
 15  3  1  0
 16  4  1  0
 17 13  1  0
  6  4  1  0
  8  9  1  0
 19 18  2  0
 20 18  1  0
 21 22  1  0
 22 20  1  0
 23 19  1  0
 24 18  1  0
 25 19  1  0
 26 24  2  0
 27 25  1  0
 28 22  2  0
 29 23  2  0
 30 27  1  0
 31 30  2  0
 32 20  1  0
 33 21  1  0
 34 30  1  0
 23 21  1  0
 25 26  1  0
 36 40  1  0
 37 35  1  0
 38 37  1  0
 39 35  1  0
 40 39  1  0
 38 36  1  0
  9 41  1  0
 10 42  1  0
 10 43  1  0
 15 44  1  0
 15 45  1  0
 15 46  1  0
 16 47  1  0
 16 48  1  0
 16 49  1  0
 17 50  1  0
 26 51  1  0
 27 52  1  0
 27 53  1  0
 32 54  1  0
 32 55  1  0
 32 56  1  0
 33 57  1  0
 33 58  1  0
 33 59  1  0
 34 60  1  0
 35 61  1  0
 36 62  1  0
 37 63  1  0
 37 64  1  0
 38 65  1  0
 38 66  1  0
 39 67  1  0
 39 68  1  0
 40 69  1  0
 40 70  1  0
M  END
> <Uni-Dock RESULT> 
ENERGY=   -4.442  LOWER_BOUND=    5.848  UPPER_BOUND=    7.803
INTER + INTRA:          -4.442
INTER:                  -4.442
INTRA:                   0.000
UNBOUND:                 0.000

$$$$
