
     RDKit          3D

 70 72  0  0  0  0  0  0  0  0999 V2000
   47.2195    6.3183   13.4799 C   0  0  0  0  0  0  0  0  0  0  0  0
   46.3773    6.5472   12.4349 C   0  0  0  0  0  0  0  0  0  0  0  0
   47.7494    7.3461   14.2214 N   0  0  0  0  0  0  0  0  0  0  0  0
   46.5287    8.8580   12.8208 N   0  0  0  0  0  0  0  0  0  0  0  0
   47.4070    8.6621   13.9074 C   0  0  0  0  0  0  0  0  0  0  0  0
   45.9771    7.8484   12.0283 C   0  0  0  0  0  0  0  0  0  0  0  0
   47.4467    4.9885   13.6680 N   0  0  0  0  0  0  0  0  0  0  0  0
   46.0526    5.3063   11.9627 N   0  0  0  0  0  0  0  0  0  0  0  0
   46.7215    4.3960   12.7403 C   0  0  0  0  0  0  0  0  0  0  0  0
   45.1948    4.9928   10.8350 C   0  0  0  0  0  0  0  0  0  0  0  0
   47.8504    9.6221   14.5452 O   0  0  0  0  0  0  0  0  0  0  0  0
   45.2320    8.0390   11.0716 O   0  0  0  0  0  0  0  0  0  0  0  0
   43.7342    5.1388   11.1651 C   0  0  0  0  0  0  0  0  0  0  0  0
   43.2312    5.3703   12.2515 O   0  0  0  0  0  0  0  0  0  0  0  0
   48.6391    7.0585   15.3317 C   0  0  0  0  0  0  0  0  0  0  0  0
   46.1847   10.2324   12.5144 C   0  0  0  0  0  0  0  0  0  0  0  0
   42.9486    4.9461   10.0828 O   0  0  0  0  0  0  0  0  0  0  0  0
   47.3851    6.4635   13.3364 C   0  0  0  0  0  0  0  0  0  0  0  0
   46.0748    6.6341   13.0085 C   0  0  0  0  0  0  0  0  0  0  0  0
   48.3098    7.4655   13.1697 N   0  0  0  0  0  0  0  0  0  0  0  0
   46.5398    8.8213   12.2939 N   0  0  0  0  0  0  0  0  0  0  0  0
   47.9023    8.6888   12.6358 C   0  0  0  0  0  0  0  0  0  0  0  0
   45.5581    7.8430   12.4697 C   0  0  0  0  0  0  0  0  0  0  0  0
   47.6267    5.2191   13.8347 N   0  0  0  0  0  0  0  0  0  0  0  0
   45.4777    5.4398   13.3001 N   0  0  0  0  0  0  0  0  0  0  0  0
   46.4557    4.6157   13.7951 C   0  0  0  0  0  0  0  0  0  0  0  0
   44.0736    5.1016   13.1589 C   0  0  0  0  0  0  0  0  0  0  0  0
   48.6914    9.6240   12.4699 O   0  0  0  0  0  0  0  0  0  0  0  0
   44.3683    7.9910   12.2067 O   0  0  0  0  0  0  0  0  0  0  0  0
   43.6895    4.8184   11.7325 C   0  0  0  0  0  0  0  0  0  0  0  0
   44.4165    4.7724   10.7542 O   0  0  0  0  0  0  0  0  0  0  0  0
   49.6962    7.2445   13.5385 C   0  0  0  0  0  0  0  0  0  0  0  0
   46.1393   10.0990   11.7385 C   0  0  0  0  0  0  0  0  0  0  0  0
   42.3686    4.5630   11.6067 O   0  0  0  0  0  0  0  0  0  0  0  0
   45.7402    7.6656   11.8612 N   0  0  0  0  0  0  0  0  0  0  0  0
   46.6635    6.0520   14.1747 N   0  0  0  0  0  0  0  0  0  0  0  0
   46.8368    8.1074   12.7339 C   0  0  0  0  0  0  0  0  0  0  0  0
   47.5714    6.9338   13.4174 C   0  0  0  0  0  0  0  0  0  0  0  0
   44.8440    6.7527   12.5844 C   0  0  0  0  0  0  0  0  0  0  0  0
   45.5946    5.5902   13.2696 C   0  0  0  0  0  0  0  0  0  0  0  0
   46.6483    3.3257   12.5910 H   0  0  0  0  0  0  0  0  0  0  0  0
   45.4675    5.6617   10.0133 H   0  0  0  0  0  0  0  0  0  0  0  0
   45.3925    3.9575   10.5390 H   0  0  0  0  0  0  0  0  0  0  0  0
   49.5034    6.4975   14.9620 H   0  0  0  0  0  0  0  0  0  0  0  0
   48.1017    6.4582   16.0725 H   0  0  0  0  0  0  0  0  0  0  0  0
   48.9964    7.9712   15.8155 H   0  0  0  0  0  0  0  0  0  0  0  0
   45.7068   10.6825   13.3907 H   0  0  0  0  0  0  0  0  0  0  0  0
   47.1021   10.7895   12.2966 H   0  0  0  0  0  0  0  0  0  0  0  0
   45.5082   10.3161   11.6599 H   0  0  0  0  0  0  0  0  0  0  0  0
   42.0380    5.0966   10.4170 H   0  0  0  0  0  0  0  0  0  0  0  0
   46.2647    3.5973   14.1106 H   0  0  0  0  0  0  0  0  0  0  0  0
   43.4873    5.9370   13.5517 H   0  0  0  0  0  0  0  0  0  0  0  0
   43.8814    4.2097   13.7640 H   0  0  0  0  0  0  0  0  0  0  0  0
   50.0937    6.4112   12.9504 H   0  0  0  0  0  0  0  0  0  0  0  0
   49.7479    6.9992   14.6042 H   0  0  0  0  0  0  0  0  0  0  0  0
   50.3134    8.1275   13.3537 H   0  0  0  0  0  0  0  0  0  0  0  0
   45.0863   10.1184   11.4472 H   0  0  0  0  0  0  0  0  0  0  0  0
   46.3167   10.8800   12.4854 H   0  0  0  0  0  0  0  0  0  0  0  0
   46.7536   10.3163   10.8586 H   0  0  0  0  0  0  0  0  0  0  0  0
   42.2409    4.4262   10.6430 H   0  0  0  0  0  0  0  0  0  0  0  0
   45.2141    8.4748   11.5349 H   0  0  0  0  0  0  0  0  0  0  0  0
   46.2318    6.6063   14.9135 H   0  0  0  0  0  0  0  0  0  0  0  0
   47.5542    8.6800   12.1361 H   0  0  0  0  0  0  0  0  0  0  0  0
   46.4410    8.7866   13.4994 H   0  0  0  0  0  0  0  0  0  0  0  0
   48.1099    6.3411   12.6674 H   0  0  0  0  0  0  0  0  0  0  0  0
   48.3261    7.3317   14.1048 H   0  0  0  0  0  0  0  0  0  0  0  0
   44.2804    7.3183   13.3370 H   0  0  0  0  0  0  0  0  0  0  0  0
   44.1148    6.3419   11.8778 H   0  0  0  0  0  0  0  0  0  0  0  0
   46.0243    4.9240   12.5113 H   0  0  0  0  0  0  0  0  0  0  0  0
   44.8820    4.9910   13.8471 H   0  0  0  0  0  0  0  0  0  0  0  0
  2  1  2  0
  3  1  1  0
  4  5  1  0
  5  3  1  0
  6  2  1  0
  7  1  1  0
  8  2  1  0
  9  7  2  0
 10  8  1  0
 11  5  2  0
 12  6  2  0
 13 10  1  0
 14 13  2  0
 15  3  1  0
 16  4  1  0
 17 13  1  0
  6  4  1  0
  8  9  1  0
 19 18  2  0
 20 18  1  0
 21 22  1  0
 22 20  1  0
 23 19  1  0
 24 18  1  0
 25 19  1  0
 26 24  2  0
 27 25  1  0
 28 22  2  0
 29 23  2  0
 30 27  1  0
 31 30  2  0
 32 20  1  0
 33 21  1  0
 34 30  1  0
 23 21  1  0
 25 26  1  0
 36 40  1  0
 37 35  1  0
 38 37  1  0
 39 35  1  0
 40 39  1  0
 38 36  1  0
  9 41  1  0
 10 42  1  0
 10 43  1  0
 15 44  1  0
 15 45  1  0
 15 46  1  0
 16 47  1  0
 16 48  1  0
 16 49  1  0
 17 50  1  0
 26 51  1  0
 27 52  1  0
 27 53  1  0
 32 54  1  0
 32 55  1  0
 32 56  1  0
 33 57  1  0
 33 58  1  0
 33 59  1  0
 34 60  1  0
 35 61  1  0
 36 62  1  0
 37 63  1  0
 37 64  1  0
 38 65  1  0
 38 66  1  0
 39 67  1  0
 39 68  1  0
 40 69  1  0
 40 70  1  0
M  END
> <Uni-Dock RESULT> 
ENERGY=   -4.986  LOWER_BOUND=    0.000  UPPER_BOUND=    0.000
INTER + INTRA:          -4.986
INTER:                  -4.986
INTRA:                   0.000
UNBOUND:                 0.000

$$$$

     RDKit          3D

 70 72  0  0  0  0  0  0  0  0999 V2000
   51.8802    4.7045   18.4366 C   0  0  0  0  0  0  0  0  0  0  0  0
   50.9917    3.6733   18.4065 C   0  0  0  0  0  0  0  0  0  0  0  0
   53.2009    4.5325   18.1001 N   0  0  0  0  0  0  0  0  0  0  0  0
   52.6943    2.2293   17.6802 N   0  0  0  0  0  0  0  0  0  0  0  0
   53.6457    3.2709   17.7024 C   0  0  0  0  0  0  0  0  0  0  0  0
   51.3467    2.3507   18.0277 C   0  0  0  0  0  0  0  0  0  0  0  0
   51.2942    5.8691   18.8312 N   0  0  0  0  0  0  0  0  0  0  0  0
   49.7978    4.2226   18.7819 N   0  0  0  0  0  0  0  0  0  0  0  0
   50.0299    5.5519   19.0270 C   0  0  0  0  0  0  0  0  0  0  0  0
   48.5260    3.5403   18.9322 C   0  0  0  0  0  0  0  0  0  0  0  0
   54.8207    3.0632   17.3842 O   0  0  0  0  0  0  0  0  0  0  0  0
   50.5379    1.4275   18.0242 O   0  0  0  0  0  0  0  0  0  0  0  0
   47.8652    3.2574   17.6104 C   0  0  0  0  0  0  0  0  0  0  0  0
   48.2189    3.6238   16.5025 O   0  0  0  0  0  0  0  0  0  0  0  0
   54.1143    5.6599   18.1398 C   0  0  0  0  0  0  0  0  0  0  0  0
   53.1778    0.9285   17.2614 C   0  0  0  0  0  0  0  0  0  0  0  0
   46.7346    2.5318   17.7544 O   0  0  0  0  0  0  0  0  0  0  0  0
   52.0034    4.5508   18.6107 C   0  0  0  0  0  0  0  0  0  0  0  0
   51.1337    3.8835   17.8034 C   0  0  0  0  0  0  0  0  0  0  0  0
   53.1156    3.9411   19.1381 N   0  0  0  0  0  0  0  0  0  0  0  0
   52.4243    1.9352   18.0261 N   0  0  0  0  0  0  0  0  0  0  0  0
   53.3567    2.5964   18.8533 C   0  0  0  0  0  0  0  0  0  0  0  0
   51.2955    2.5182   17.4448 C   0  0  0  0  0  0  0  0  0  0  0  0
   51.6288    5.8466   18.8006 N   0  0  0  0  0  0  0  0  0  0  0  0
   50.1676    4.7979   17.4899 N   0  0  0  0  0  0  0  0  0  0  0  0
   50.5087    5.9689   18.1168 C   0  0  0  0  0  0  0  0  0  0  0  0
   49.0165    4.6001   16.6287 C   0  0  0  0  0  0  0  0  0  0  0  0
   54.3437    2.0018   19.2973 O   0  0  0  0  0  0  0  0  0  0  0  0
   50.5184    1.9387   16.6919 O   0  0  0  0  0  0  0  0  0  0  0  0
   47.9141    3.8337   17.3069 C   0  0  0  0  0  0  0  0  0  0  0  0
   47.8663    3.4537   18.4649 O   0  0  0  0  0  0  0  0  0  0  0  0
   54.0215    4.6909   19.9891 C   0  0  0  0  0  0  0  0  0  0  0  0
   52.6928    0.5385   17.7457 C   0  0  0  0  0  0  0  0  0  0  0  0
   46.8733    3.6052   16.4761 O   0  0  0  0  0  0  0  0  0  0  0  0
   51.0059    2.3228   18.0042 N   0  0  0  0  0  0  0  0  0  0  0  0
   51.7055    5.1867   17.6623 N   0  0  0  0  0  0  0  0  0  0  0  0
   52.3825    2.8144   18.1559 C   0  0  0  0  0  0  0  0  0  0  0  0
   52.4480    4.2987   18.5761 C   0  0  0  0  0  0  0  0  0  0  0  0
   50.2351    3.2161   17.1282 C   0  0  0  0  0  0  0  0  0  0  0  0
   50.3183    4.6973   17.5563 C   0  0  0  0  0  0  0  0  0  0  0  0
   49.2535    6.2381   19.3428 H   0  0  0  0  0  0  0  0  0  0  0  0
   48.7106    2.6070   19.4723 H   0  0  0  0  0  0  0  0  0  0  0  0
   47.8691    4.1802   19.5303 H   0  0  0  0  0  0  0  0  0  0  0  0
   54.1291    6.0734   19.1533 H   0  0  0  0  0  0  0  0  0  0  0  0
   53.7678    6.4240   17.4369 H   0  0  0  0  0  0  0  0  0  0  0  0
   55.1322    5.3705   17.8661 H   0  0  0  0  0  0  0  0  0  0  0  0
   53.5802    1.0093   16.2463 H   0  0  0  0  0  0  0  0  0  0  0  0
   53.9870    0.6167   17.9303 H   0  0  0  0  0  0  0  0  0  0  0  0
   52.3953    0.1654   17.2726 H   0  0  0  0  0  0  0  0  0  0  0  0
   46.4212    2.3902   16.8350 H   0  0  0  0  0  0  0  0  0  0  0  0
   49.9155    6.8720   18.0427 H   0  0  0  0  0  0  0  0  0  0  0  0
   49.3550    4.0683   15.7350 H   0  0  0  0  0  0  0  0  0  0  0  0
   48.6401    5.5869   16.3406 H   0  0  0  0  0  0  0  0  0  0  0  0
   53.4724    5.0520   20.8644 H   0  0  0  0  0  0  0  0  0  0  0  0
   54.4173    5.5428   19.4269 H   0  0  0  0  0  0  0  0  0  0  0  0
   54.8601    4.0791   20.3314 H   0  0  0  0  0  0  0  0  0  0  0  0
   51.9081    0.0727   17.1447 H   0  0  0  0  0  0  0  0  0  0  0  0
   53.6446    0.4626   17.2094 H   0  0  0  0  0  0  0  0  0  0  0  0
   52.7843   -0.0061   18.6912 H   0  0  0  0  0  0  0  0  0  0  0  0
   46.2443    3.0808   17.0175 H   0  0  0  0  0  0  0  0  0  0  0  0
   51.0186    1.3835   17.6097 H   0  0  0  0  0  0  0  0  0  0  0  0
   52.1343    5.1172   16.7399 H   0  0  0  0  0  0  0  0  0  0  0  0
   52.8931    2.2054   18.9098 H   0  0  0  0  0  0  0  0  0  0  0  0
   52.9235    2.6774   17.2112 H   0  0  0  0  0  0  0  0  0  0  0  0
   52.0566    4.4175   19.5942 H   0  0  0  0  0  0  0  0  0  0  0  0
   53.4950    4.6205   18.6022 H   0  0  0  0  0  0  0  0  0  0  0  0
   50.5954    3.1126   16.0970 H   0  0  0  0  0  0  0  0  0  0  0  0
   49.1868    2.8987   17.1362 H   0  0  0  0  0  0  0  0  0  0  0  0
   49.8098    4.8377   18.5182 H   0  0  0  0  0  0  0  0  0  0  0  0
   49.7844    5.3148   16.8255 H   0  0  0  0  0  0  0  0  0  0  0  0
  2  1  2  0
  3  1  1  0
  4  5  1  0
  5  3  1  0
  6  2  1  0
  7  1  1  0
  8  2  1  0
  9  7  2  0
 10  8  1  0
 11  5  2  0
 12  6  2  0
 13 10  1  0
 14 13  2  0
 15  3  1  0
 16  4  1  0
 17 13  1  0
  6  4  1  0
  8  9  1  0
 19 18  2  0
 20 18  1  0
 21 22  1  0
 22 20  1  0
 23 19  1  0
 24 18  1  0
 25 19  1  0
 26 24  2  0
 27 25  1  0
 28 22  2  0
 29 23  2  0
 30 27  1  0
 31 30  2  0
 32 20  1  0
 33 21  1  0
 34 30  1  0
 23 21  1  0
 25 26  1  0
 36 40  1  0
 37 35  1  0
 38 37  1  0
 39 35  1  0
 40 39  1  0
 38 36  1  0
  9 41  1  0
 10 42  1  0
 10 43  1  0
 15 44  1  0
 15 45  1  0
 15 46  1  0
 16 47  1  0
 16 48  1  0
 16 49  1  0
 17 50  1  0
 26 51  1  0
 27 52  1  0
 27 53  1  0
 32 54  1  0
 32 55  1  0
 32 56  1  0
 33 57  1  0
 33 58  1  0
 33 59  1  0
 34 60  1  0
 35 61  1  0
 36 62  1  0
 37 63  1  0
 37 64  1  0
 38 65  1  0
 38 66  1  0
 39 67  1  0
 39 68  1  0
 40 69  1  0
 40 70  1  0
M  END
> <Uni-Dock RESULT> 
ENERGY=   -4.890  LOWER_BOUND=    6.439  UPPER_BOUND=    8.585
INTER + INTRA:          -4.890
INTER:                  -4.890
INTRA:                   0.000
UNBOUND:                 0.000

$$$$

     RDKit          3D

 70 72  0  0  0  0  0  0  0  0999 V2000
   47.6201   10.9468   11.9999 C   0  0  0  0  0  0  0  0  0  0  0  0
   47.0460    9.7158   11.9055 C   0  0  0  0  0  0  0  0  0  0  0  0
   46.8721   12.0987   11.9721 N   0  0  0  0  0  0  0  0  0  0  0  0
   44.9268   10.7163   11.7668 N   0  0  0  0  0  0  0  0  0  0  0  0
   45.4841   12.0092   11.8581 C   0  0  0  0  0  0  0  0  0  0  0  0
   45.6451    9.5182   11.7748 C   0  0  0  0  0  0  0  0  0  0  0  0
   48.9748   10.8683   12.1179 N   0  0  0  0  0  0  0  0  0  0  0  0
   48.0859    8.8324   11.9851 N   0  0  0  0  0  0  0  0  0  0  0  0
   49.2315    9.5754   12.1143 C   0  0  0  0  0  0  0  0  0  0  0  0
   48.0157    7.3848   11.9136 C   0  0  0  0  0  0  0  0  0  0  0  0
   44.7649   13.0127   11.8341 O   0  0  0  0  0  0  0  0  0  0  0  0
   45.1447    8.4022   11.6714 O   0  0  0  0  0  0  0  0  0  0  0  0
   47.5259    6.7685   13.1958 C   0  0  0  0  0  0  0  0  0  0  0  0
   47.3050    7.3252   14.2579 O   0  0  0  0  0  0  0  0  0  0  0  0
   47.5231   13.3914   12.0818 C   0  0  0  0  0  0  0  0  0  0  0  0
   43.4834   10.6472   11.6519 C   0  0  0  0  0  0  0  0  0  0  0  0
   47.3652    5.4315   13.0861 O   0  0  0  0  0  0  0  0  0  0  0  0
   47.5079   10.9817   11.7648 C   0  0  0  0  0  0  0  0  0  0  0  0
   46.9532    9.9775   12.4980 C   0  0  0  0  0  0  0  0  0  0  0  0
   46.7776   11.6975   10.8476 N   0  0  0  0  0  0  0  0  0  0  0  0
   44.8993   10.3233   11.4149 N   0  0  0  0  0  0  0  0  0  0  0  0
   45.4334   11.3802   10.6478 C   0  0  0  0  0  0  0  0  0  0  0  0
   45.5929    9.5854   12.3774 C   0  0  0  0  0  0  0  0  0  0  0  0
   48.8235   11.1647   12.0667 N   0  0  0  0  0  0  0  0  0  0  0  0
   47.9705    9.5043   13.2783 N   0  0  0  0  0  0  0  0  0  0  0  0
   49.0814   10.2515   12.9813 C   0  0  0  0  0  0  0  0  0  0  0  0
   47.9000    8.4437   14.2662 C   0  0  0  0  0  0  0  0  0  0  0  0
   44.7307   11.9951    9.8397 O   0  0  0  0  0  0  0  0  0  0  0  0
   45.1001    8.6975   13.0669 O   0  0  0  0  0  0  0  0  0  0  0  0
   47.8906    7.0748   13.6428 C   0  0  0  0  0  0  0  0  0  0  0  0
   48.0078    6.7861   12.4636 O   0  0  0  0  0  0  0  0  0  0  0  0
   47.4060   12.7653   10.0914 C   0  0  0  0  0  0  0  0  0  0  0  0
   43.5023   10.0089   11.1891 C   0  0  0  0  0  0  0  0  0  0  0  0
   47.7652    6.0992   14.5692 O   0  0  0  0  0  0  0  0  0  0  0  0
   45.7356    9.1994   11.8621 N   0  0  0  0  0  0  0  0  0  0  0  0
   47.8119   11.0470   12.9032 N   0  0  0  0  0  0  0  0  0  0  0  0
   45.7156   10.6400   11.5726 C   0  0  0  0  0  0  0  0  0  0  0  0
   47.1186   11.2829   11.6231 C   0  0  0  0  0  0  0  0  0  0  0  0
   46.4575    8.9371   13.1150 C   0  0  0  0  0  0  0  0  0  0  0  0
   47.8543    9.5941   13.1532 C   0  0  0  0  0  0  0  0  0  0  0  0
   50.2159    9.1319   12.2002 H   0  0  0  0  0  0  0  0  0  0  0  0
   47.3476    7.1244   11.0873 H   0  0  0  0  0  0  0  0  0  0  0  0
   49.0211    7.0090   11.6977 H   0  0  0  0  0  0  0  0  0  0  0  0
   48.2447   13.4994   11.2656 H   0  0  0  0  0  0  0  0  0  0  0  0
   48.0448   13.4473   13.0424 H   0  0  0  0  0  0  0  0  0  0  0  0
   46.8069   14.2152   12.0256 H   0  0  0  0  0  0  0  0  0  0  0  0
   43.0342   11.1226   12.5300 H   0  0  0  0  0  0  0  0  0  0  0  0
   43.1698   11.2010   10.7606 H   0  0  0  0  0  0  0  0  0  0  0  0
   43.1161    9.6203   11.5782 H   0  0  0  0  0  0  0  0  0  0  0  0
   47.0191    5.1583   13.9631 H   0  0  0  0  0  0  0  0  0  0  0  0
   50.0423   10.0936   13.4553 H   0  0  0  0  0  0  0  0  0  0  0  0
   46.9936    8.5979   14.8584 H   0  0  0  0  0  0  0  0  0  0  0  0
   48.7758    8.5333   14.9171 H   0  0  0  0  0  0  0  0  0  0  0  0
   48.2355   12.3507    9.5099 H   0  0  0  0  0  0  0  0  0  0  0  0
   47.7865   13.5200   10.7870 H   0  0  0  0  0  0  0  0  0  0  0  0
   46.7047   13.2462    9.4046 H   0  0  0  0  0  0  0  0  0  0  0  0
   43.1656    9.1498   11.7742 H   0  0  0  0  0  0  0  0  0  0  0  0
   42.8965   10.8812   11.4561 H   0  0  0  0  0  0  0  0  0  0  0  0
   43.3500    9.7945   10.1262 H   0  0  0  0  0  0  0  0  0  0  0  0
   47.7419    5.2703   14.0437 H   0  0  0  0  0  0  0  0  0  0  0  0
   44.7810    8.8514   11.9377 H   0  0  0  0  0  0  0  0  0  0  0  0
   47.2584   11.4770   13.6436 H   0  0  0  0  0  0  0  0  0  0  0  0
   45.2865   10.7934   10.5766 H   0  0  0  0  0  0  0  0  0  0  0  0
   45.0557   11.1454   12.2889 H   0  0  0  0  0  0  0  0  0  0  0  0
   47.7359   10.9000   10.8008 H   0  0  0  0  0  0  0  0  0  0  0  0
   47.0259   12.3638   11.4698 H   0  0  0  0  0  0  0  0  0  0  0  0
   45.8597    9.2991   13.9608 H   0  0  0  0  0  0  0  0  0  0  0  0
   46.5669    7.8543   13.2383 H   0  0  0  0  0  0  0  0  0  0  0  0
   48.5118    9.1183   12.4151 H   0  0  0  0  0  0  0  0  0  0  0  0
   48.3077    9.4214   14.1356 H   0  0  0  0  0  0  0  0  0  0  0  0
  2  1  2  0
  3  1  1  0
  4  5  1  0
  5  3  1  0
  6  2  1  0
  7  1  1  0
  8  2  1  0
  9  7  2  0
 10  8  1  0
 11  5  2  0
 12  6  2  0
 13 10  1  0
 14 13  2  0
 15  3  1  0
 16  4  1  0
 17 13  1  0
  6  4  1  0
  8  9  1  0
 19 18  2  0
 20 18  1  0
 21 22  1  0
 22 20  1  0
 23 19  1  0
 24 18  1  0
 25 19  1  0
 26 24  2  0
 27 25  1  0
 28 22  2  0
 29 23  2  0
 30 27  1  0
 31 30  2  0
 32 20  1  0
 33 21  1  0
 34 30  1  0
 23 21  1  0
 25 26  1  0
 36 40  1  0
 37 35  1  0
 38 37  1  0
 39 35  1  0
 40 39  1  0
 38 36  1  0
  9 41  1  0
 10 42  1  0
 10 43  1  0
 15 44  1  0
 15 45  1  0
 15 46  1  0
 16 47  1  0
 16 48  1  0
 16 49  1  0
 17 50  1  0
 26 51  1  0
 27 52  1  0
 27 53  1  0
 32 54  1  0
 32 55  1  0
 32 56  1  0
 33 57  1  0
 33 58  1  0
 33 59  1  0
 34 60  1  0
 35 61  1  0
 36 62  1  0
 37 63  1  0
 37 64  1  0
 38 65  1  0
 38 66  1  0
 39 67  1  0
 39 68  1  0
 40 69  1  0
 40 70  1  0
M  END
> <Uni-Dock RESULT> 
ENERGY=   -4.813  LOWER_BOUND=    2.720  UPPER_BOUND=    4.575
INTER + INTRA:          -4.813
INTER:                  -4.813
INTRA:                   0.000
UNBOUND:                 0.000

$$$$

     RDKit          3D

 70 72  0  0  0  0  0  0  0  0999 V2000
   45.0412    6.9058   12.0762 C   0  0  0  0  0  0  0  0  0  0  0  0
   46.3739    6.8410   12.3468 C   0  0  0  0  0  0  0  0  0  0  0  0
   44.1755    5.9098   12.4578 N   0  0  0  0  0  0  0  0  0  0  0  0
   46.0545    4.7772   13.4192 N   0  0  0  0  0  0  0  0  0  0  0  0
   44.6690    4.8057   13.1544 C   0  0  0  0  0  0  0  0  0  0  0  0
   46.9759    5.7560   13.0390 C   0  0  0  0  0  0  0  0  0  0  0  0
   44.7135    8.0447   11.4048 N   0  0  0  0  0  0  0  0  0  0  0  0
   46.8960    7.9968   11.8371 N   0  0  0  0  0  0  0  0  0  0  0  0
   45.8544    8.6929   11.2791 C   0  0  0  0  0  0  0  0  0  0  0  0
   48.2870    8.4099   11.8441 C   0  0  0  0  0  0  0  0  0  0  0  0
   43.9336    3.8857   13.5254 O   0  0  0  0  0  0  0  0  0  0  0  0
   48.1824    5.7034   13.2583 O   0  0  0  0  0  0  0  0  0  0  0  0
   48.7283    8.9221   13.1883 C   0  0  0  0  0  0  0  0  0  0  0  0
   48.0427    9.1169   14.1776 O   0  0  0  0  0  0  0  0  0  0  0  0
   42.7603    6.0206   12.1549 C   0  0  0  0  0  0  0  0  0  0  0  0
   46.5444    3.6227   14.1461 C   0  0  0  0  0  0  0  0  0  0  0  0
   50.0489    9.2064   13.2133 O   0  0  0  0  0  0  0  0  0  0  0  0
   45.0896    6.6827   11.9459 C   0  0  0  0  0  0  0  0  0  0  0  0
   46.0288    6.9903   12.8822 C   0  0  0  0  0  0  0  0  0  0  0  0
   44.8164    5.3834   11.5937 N   0  0  0  0  0  0  0  0  0  0  0  0
   46.5050    4.7075   13.1524 N   0  0  0  0  0  0  0  0  0  0  0  0
   45.5293    4.3475   12.1989 C   0  0  0  0  0  0  0  0  0  0  0  0
   46.7995    6.0099   13.5632 C   0  0  0  0  0  0  0  0  0  0  0  0
   44.4887    7.7970   11.4433 N   0  0  0  0  0  0  0  0  0  0  0  0
   46.0241    8.3551   12.9545 N   0  0  0  0  0  0  0  0  0  0  0  0
   45.0785    8.7980   12.0655 C   0  0  0  0  0  0  0  0  0  0  0  0
   46.8277    9.1918   13.8262 C   0  0  0  0  0  0  0  0  0  0  0  0
   45.3198    3.1624   11.9225 O   0  0  0  0  0  0  0  0  0  0  0  0
   47.6219    6.3019   14.4264 O   0  0  0  0  0  0  0  0  0  0  0  0
   48.2451    9.3334   13.3432 C   0  0  0  0  0  0  0  0  0  0  0  0
   48.7334    8.9029   12.3118 O   0  0  0  0  0  0  0  0  0  0  0  0
   43.8019    5.0985   10.5953 C   0  0  0  0  0  0  0  0  0  0  0  0
   47.2354    3.6160   13.7661 C   0  0  0  0  0  0  0  0  0  0  0  0
   48.9975   10.0655   14.1941 O   0  0  0  0  0  0  0  0  0  0  0  0
   47.2309    5.9834   13.0651 N   0  0  0  0  0  0  0  0  0  0  0  0
   44.7023    7.4958   12.7085 N   0  0  0  0  0  0  0  0  0  0  0  0
   45.9482    5.3124   12.8125 C   0  0  0  0  0  0  0  0  0  0  0  0
   44.9455    6.2012   12.0452 C   0  0  0  0  0  0  0  0  0  0  0  0
   47.0103    7.2950   13.6901 C   0  0  0  0  0  0  0  0  0  0  0  0
   45.9987    8.1677   12.9160 C   0  0  0  0  0  0  0  0  0  0  0  0
   45.9782    9.6555   10.7982 H   0  0  0  0  0  0  0  0  0  0  0  0
   48.8919    7.5475   11.5487 H   0  0  0  0  0  0  0  0  0  0  0  0
   48.4057    9.2059   11.1019 H   0  0  0  0  0  0  0  0  0  0  0  0
   42.6320    6.1113   11.0715 H   0  0  0  0  0  0  0  0  0  0  0  0
   42.3592    6.9118   12.6477 H   0  0  0  0  0  0  0  0  0  0  0  0
   42.1992    5.1487   12.5010 H   0  0  0  0  0  0  0  0  0  0  0  0
   46.0374    3.5721   15.1153 H   0  0  0  0  0  0  0  0  0  0  0  0
   46.3018    2.7164   13.5813 H   0  0  0  0  0  0  0  0  0  0  0  0
   47.6242    3.6578   14.3126 H   0  0  0  0  0  0  0  0  0  0  0  0
   50.2149    9.4963   14.1364 H   0  0  0  0  0  0  0  0  0  0  0  0
   44.8590    9.8474   11.9122 H   0  0  0  0  0  0  0  0  0  0  0  0
   46.8092    8.7482   14.8257 H   0  0  0  0  0  0  0  0  0  0  0  0
   46.3624   10.1822   13.8623 H   0  0  0  0  0  0  0  0  0  0  0  0
   44.0834    5.5789    9.6530 H   0  0  0  0  0  0  0  0  0  0  0  0
   42.8414    5.4967   10.9378 H   0  0  0  0  0  0  0  0  0  0  0  0
   43.6918    4.0251   10.4203 H   0  0  0  0  0  0  0  0  0  0  0  0
   48.0097    3.9637   14.4543 H   0  0  0  0  0  0  0  0  0  0  0  0
   46.5297    2.9831   14.3145 H   0  0  0  0  0  0  0  0  0  0  0  0
   47.7042    3.0123   12.9822 H   0  0  0  0  0  0  0  0  0  0  0  0
   49.8921   10.0596   13.7899 H   0  0  0  0  0  0  0  0  0  0  0  0
   47.8060    5.4054   13.6759 H   0  0  0  0  0  0  0  0  0  0  0  0
   44.2960    7.3076   13.6244 H   0  0  0  0  0  0  0  0  0  0  0  0
   46.1350    4.4010   12.2343 H   0  0  0  0  0  0  0  0  0  0  0  0
   45.5058    5.0026   13.7677 H   0  0  0  0  0  0  0  0  0  0  0  0
   45.3073    6.3793   11.0248 H   0  0  0  0  0  0  0  0  0  0  0  0
   43.9910    5.6713   11.9524 H   0  0  0  0  0  0  0  0  0  0  0  0
   46.6576    7.1517   14.7192 H   0  0  0  0  0  0  0  0  0  0  0  0
   47.9683    7.8227   13.7488 H   0  0  0  0  0  0  0  0  0  0  0  0
   46.4186    8.4537   11.9437 H   0  0  0  0  0  0  0  0  0  0  0  0
   45.8261    9.0973   13.4696 H   0  0  0  0  0  0  0  0  0  0  0  0
  2  1  2  0
  3  1  1  0
  4  5  1  0
  5  3  1  0
  6  2  1  0
  7  1  1  0
  8  2  1  0
  9  7  2  0
 10  8  1  0
 11  5  2  0
 12  6  2  0
 13 10  1  0
 14 13  2  0
 15  3  1  0
 16  4  1  0
 17 13  1  0
  6  4  1  0
  8  9  1  0
 19 18  2  0
 20 18  1  0
 21 22  1  0
 22 20  1  0
 23 19  1  0
 24 18  1  0
 25 19  1  0
 26 24  2  0
 27 25  1  0
 28 22  2  0
 29 23  2  0
 30 27  1  0
 31 30  2  0
 32 20  1  0
 33 21  1  0
 34 30  1  0
 23 21  1  0
 25 26  1  0
 36 40  1  0
 37 35  1  0
 38 37  1  0
 39 35  1  0
 40 39  1  0
 38 36  1  0
  9 41  1  0
 10 42  1  0
 10 43  1  0
 15 44  1  0
 15 45  1  0
 15 46  1  0
 16 47  1  0
 16 48  1  0
 16 49  1  0
 17 50  1  0
 26 51  1  0
 27 52  1  0
 27 53  1  0
 32 54  1  0
 32 55  1  0
 32 56  1  0
 33 57  1  0
 33 58  1  0
 33 59  1  0
 34 60  1  0
 35 61  1  0
 36 62  1  0
 37 63  1  0
 37 64  1  0
 38 65  1  0
 38 66  1  0
 39 67  1  0
 39 68  1  0
 40 69  1  0
 40 70  1  0
M  END
> <Uni-Dock RESULT> 
ENERGY=   -4.722  LOWER_BOUND=    1.624  UPPER_BOUND=    4.992
INTER + INTRA:          -4.722
INTER:                  -4.722
INTRA:                   0.000
UNBOUND:                 0.000

$$$$

     RDKit          3D

 70 72  0  0  0  0  0  0  0  0999 V2000
   47.9261    7.8862   19.6369 C   0  0  0  0  0  0  0  0  0  0  0  0
   48.2146    8.8048   20.5995 C   0  0  0  0  0  0  0  0  0  0  0  0
   47.5198    6.6120   19.9504 N   0  0  0  0  0  0  0  0  0  0  0  0
   47.6887    7.2293   22.2586 N   0  0  0  0  0  0  0  0  0  0  0  0
   47.3843    6.2487   21.2911 C   0  0  0  0  0  0  0  0  0  0  0  0
   48.1197    8.5308   21.9904 C   0  0  0  0  0  0  0  0  0  0  0  0
   48.0935    8.3932   18.3838 N   0  0  0  0  0  0  0  0  0  0  0  0
   48.5603    9.9373   19.9169 N   0  0  0  0  0  0  0  0  0  0  0  0
   48.4709    9.6407   18.5809 C   0  0  0  0  0  0  0  0  0  0  0  0
   48.9782   11.2082   20.4789 C   0  0  0  0  0  0  0  0  0  0  0  0
   47.0173    5.1186   21.6275 O   0  0  0  0  0  0  0  0  0  0  0  0
   48.4021    9.3642   22.8462 O   0  0  0  0  0  0  0  0  0  0  0  0
   47.8225   12.0068   21.0177 C   0  0  0  0  0  0  0  0  0  0  0  0
   46.6326   11.7550   20.9305 O   0  0  0  0  0  0  0  0  0  0  0  0
   47.2160    5.6646   18.8934 C   0  0  0  0  0  0  0  0  0  0  0  0
   47.5384    6.8309   23.6443 C   0  0  0  0  0  0  0  0  0  0  0  0
   48.2315   13.1392   21.6309 O   0  0  0  0  0  0  0  0  0  0  0  0
   48.1189    7.7509   19.7536 C   0  0  0  0  0  0  0  0  0  0  0  0
   47.5691    8.7176   20.5389 C   0  0  0  0  0  0  0  0  0  0  0  0
   48.6693    6.6108   20.2866 N   0  0  0  0  0  0  0  0  0  0  0  0
   48.1160    7.4722   22.4522 N   0  0  0  0  0  0  0  0  0  0  0  0
   48.6809    6.4414   21.6718 C   0  0  0  0  0  0  0  0  0  0  0  0
   47.5211    8.6350   21.9565 C   0  0  0  0  0  0  0  0  0  0  0  0
   48.0387    8.0642   18.4304 N   0  0  0  0  0  0  0  0  0  0  0  0
   47.1425    9.6815   19.6689 N   0  0  0  0  0  0  0  0  0  0  0  0
   47.4496    9.2429   18.4064 C   0  0  0  0  0  0  0  0  0  0  0  0
   46.4580   10.9188   19.9948 C   0  0  0  0  0  0  0  0  0  0  0  0
   49.1584    5.4337   22.2022 O   0  0  0  0  0  0  0  0  0  0  0  0
   46.9953    9.5015   22.6490 O   0  0  0  0  0  0  0  0  0  0  0  0
   47.3914   11.9707   20.5284 C   0  0  0  0  0  0  0  0  0  0  0  0
   48.6052   11.9138   20.6338 O   0  0  0  0  0  0  0  0  0  0  0  0
   49.2392    5.6013   19.4131 C   0  0  0  0  0  0  0  0  0  0  0  0
   48.1414    7.2767   23.8884 C   0  0  0  0  0  0  0  0  0  0  0  0
   46.7334   13.0964   20.8831 O   0  0  0  0  0  0  0  0  0  0  0  0
   48.1343    8.8729   22.0048 N   0  0  0  0  0  0  0  0  0  0  0  0
   47.0806    8.1228   19.3335 N   0  0  0  0  0  0  0  0  0  0  0  0
   48.0434    7.4735   21.5655 C   0  0  0  0  0  0  0  0  0  0  0  0
   48.1031    7.3201   20.0302 C   0  0  0  0  0  0  0  0  0  0  0  0
   47.1498    9.6997   21.2928 C   0  0  0  0  0  0  0  0  0  0  0  0
   47.2164    9.5281   19.7598 C   0  0  0  0  0  0  0  0  0  0  0  0
   48.6894   10.3597   17.8008 H   0  0  0  0  0  0  0  0  0  0  0  0
   49.6995   10.9993   21.2745 H   0  0  0  0  0  0  0  0  0  0  0  0
   49.4701   11.7815   19.6865 H   0  0  0  0  0  0  0  0  0  0  0  0
   48.1016    5.5353   18.2630 H   0  0  0  0  0  0  0  0  0  0  0  0
   46.3906    6.0561   18.2906 H   0  0  0  0  0  0  0  0  0  0  0  0
   46.9251    4.6889   19.2909 H   0  0  0  0  0  0  0  0  0  0  0  0
   46.4998    6.5301   23.8165 H   0  0  0  0  0  0  0  0  0  0  0  0
   48.1849    5.9687   23.8395 H   0  0  0  0  0  0  0  0  0  0  0  0
   47.7958    7.6317   24.3424 H   0  0  0  0  0  0  0  0  0  0  0  0
   47.4016   13.5476   21.9597 H   0  0  0  0  0  0  0  0  0  0  0  0
   47.2238    9.8124   17.5132 H   0  0  0  0  0  0  0  0  0  0  0  0
   45.6837   10.6885   20.7320 H   0  0  0  0  0  0  0  0  0  0  0  0
   45.9859   11.2915   19.0800 H   0  0  0  0  0  0  0  0  0  0  0  0
   50.0541    6.0482   18.8348 H   0  0  0  0  0  0  0  0  0  0  0  0
   48.4627    5.2377   18.7325 H   0  0  0  0  0  0  0  0  0  0  0  0
   49.6357    4.7519   19.9754 H   0  0  0  0  0  0  0  0  0  0  0  0
   47.7374    8.1319   24.4356 H   0  0  0  0  0  0  0  0  0  0  0  0
   47.5529    6.3864   24.1340 H   0  0  0  0  0  0  0  0  0  0  0  0
   49.1745    7.1076   24.2094 H   0  0  0  0  0  0  0  0  0  0  0  0
   47.4356   13.6838   21.2373 H   0  0  0  0  0  0  0  0  0  0  0  0
   47.9670    8.9290   23.0082 H   0  0  0  0  0  0  0  0  0  0  0  0
   46.1641    7.7911   19.6324 H   0  0  0  0  0  0  0  0  0  0  0  0
   48.8676    6.9089   22.0146 H   0  0  0  0  0  0  0  0  0  0  0  0
   47.1104    7.0347   21.9410 H   0  0  0  0  0  0  0  0  0  0  0  0
   49.0977    7.6034   19.6639 H   0  0  0  0  0  0  0  0  0  0  0  0
   47.9593    6.2663   19.7670 H   0  0  0  0  0  0  0  0  0  0  0  0
   46.1418    9.4482   21.6457 H   0  0  0  0  0  0  0  0  0  0  0  0
   47.3257   10.7513   21.5441 H   0  0  0  0  0  0  0  0  0  0  0  0
   48.1622    9.9328   19.3788 H   0  0  0  0  0  0  0  0  0  0  0  0
   46.4146   10.1132   19.2960 H   0  0  0  0  0  0  0  0  0  0  0  0
  2  1  2  0
  3  1  1  0
  4  5  1  0
  5  3  1  0
  6  2  1  0
  7  1  1  0
  8  2  1  0
  9  7  2  0
 10  8  1  0
 11  5  2  0
 12  6  2  0
 13 10  1  0
 14 13  2  0
 15  3  1  0
 16  4  1  0
 17 13  1  0
  6  4  1  0
  8  9  1  0
 19 18  2  0
 20 18  1  0
 21 22  1  0
 22 20  1  0
 23 19  1  0
 24 18  1  0
 25 19  1  0
 26 24  2  0
 27 25  1  0
 28 22  2  0
 29 23  2  0
 30 27  1  0
 31 30  2  0
 32 20  1  0
 33 21  1  0
 34 30  1  0
 23 21  1  0
 25 26  1  0
 36 40  1  0
 37 35  1  0
 38 37  1  0
 39 35  1  0
 40 39  1  0
 38 36  1  0
  9 41  1  0
 10 42  1  0
 10 43  1  0
 15 44  1  0
 15 45  1  0
 15 46  1  0
 16 47  1  0
 16 48  1  0
 16 49  1  0
 17 50  1  0
 26 51  1  0
 27 52  1  0
 27 53  1  0
 32 54  1  0
 32 55  1  0
 32 56  1  0
 33 57  1  0
 33 58  1  0
 33 59  1  0
 34 60  1  0
 35 61  1  0
 36 62  1  0
 37 63  1  0
 37 64  1  0
 38 65  1  0
 38 66  1  0
 39 67  1  0
 39 68  1  0
 40 69  1  0
 40 70  1  0
M  END
> <Uni-Dock RESULT> 
ENERGY=   -4.596  LOWER_BOUND=    7.151  UPPER_BOUND=    9.530
INTER + INTRA:          -4.596
INTER:                  -4.596
INTRA:                   0.000
UNBOUND:                 0.000

$$$$

     RDKit          3D

 70 72  0  0  0  0  0  0  0  0999 V2000
   45.8900   12.0380   10.9053 C   0  0  0  0  0  0  0  0  0  0  0  0
   44.9436   11.3157   11.5659 C   0  0  0  0  0  0  0  0  0  0  0  0
   47.1901   11.6061   10.8033 N   0  0  0  0  0  0  0  0  0  0  0  0
   46.5427    9.6669   12.0515 N   0  0  0  0  0  0  0  0  0  0  0  0
   47.5523   10.3876   11.3793 C   0  0  0  0  0  0  0  0  0  0  0  0
   45.2131   10.0708   12.1953 C   0  0  0  0  0  0  0  0  0  0  0  0
   45.3814   13.1917   10.3900 N   0  0  0  0  0  0  0  0  0  0  0  0
   43.7926   12.0424   11.4424 N   0  0  0  0  0  0  0  0  0  0  0  0
   44.1061   13.1670   10.7227 C   0  0  0  0  0  0  0  0  0  0  0  0
   42.4879   11.7203   11.9899 C   0  0  0  0  0  0  0  0  0  0  0  0
   48.7053    9.9507   11.3120 O   0  0  0  0  0  0  0  0  0  0  0  0
   44.3530    9.4410   12.8037 O   0  0  0  0  0  0  0  0  0  0  0  0
   41.7799   10.6534   11.1999 C   0  0  0  0  0  0  0  0  0  0  0  0
   42.1267   10.1470   10.1463 O   0  0  0  0  0  0  0  0  0  0  0  0
   48.1671   12.4036   10.0847 C   0  0  0  0  0  0  0  0  0  0  0  0
   46.9407    8.4032   12.6395 C   0  0  0  0  0  0  0  0  0  0  0  0
   40.6136   10.2871   11.7753 O   0  0  0  0  0  0  0  0  0  0  0  0
   46.0085   12.0368   11.1399 C   0  0  0  0  0  0  0  0  0  0  0  0
   45.0826   11.0509   10.9840 C   0  0  0  0  0  0  0  0  0  0  0  0
   47.0967   11.8847   11.9644 N   0  0  0  0  0  0  0  0  0  0  0  0
   46.2649    9.7030   12.4993 N   0  0  0  0  0  0  0  0  0  0  0  0
   47.2535   10.6942   12.6754 C   0  0  0  0  0  0  0  0  0  0  0  0
   45.1574    9.7998   11.6533 C   0  0  0  0  0  0  0  0  0  0  0  0
   45.7133   13.1348   10.3899 N   0  0  0  0  0  0  0  0  0  0  0  0
   44.1629   11.5626   10.1121 N   0  0  0  0  0  0  0  0  0  0  0  0
   44.5856   12.8248    9.7822 C   0  0  0  0  0  0  0  0  0  0  0  0
   42.9817   10.8997    9.5915 C   0  0  0  0  0  0  0  0  0  0  0  0
   48.2155   10.5038   13.4258 O   0  0  0  0  0  0  0  0  0  0  0  0
   44.3302    8.9098   11.4794 O   0  0  0  0  0  0  0  0  0  0  0  0
   41.8543   10.8653   10.5866 C   0  0  0  0  0  0  0  0  0  0  0  0
   41.8132   11.3778   11.6926 O   0  0  0  0  0  0  0  0  0  0  0  0
   48.0644   12.9585   12.0970 C   0  0  0  0  0  0  0  0  0  0  0  0
   46.4462    8.4758   13.2495 C   0  0  0  0  0  0  0  0  0  0  0  0
   40.7820   10.1942   10.1114 O   0  0  0  0  0  0  0  0  0  0  0  0
   44.8709   10.0543   12.1900 N   0  0  0  0  0  0  0  0  0  0  0  0
   45.7242   11.8740   10.0062 N   0  0  0  0  0  0  0  0  0  0  0  0
   46.2765   10.4363   11.9957 C   0  0  0  0  0  0  0  0  0  0  0  0
   46.4370   11.8030   11.2954 C   0  0  0  0  0  0  0  0  0  0  0  0
   44.1311   10.1566   10.9243 C   0  0  0  0  0  0  0  0  0  0  0  0
   44.3092   11.5254   10.2324 C   0  0  0  0  0  0  0  0  0  0  0  0
   43.3783   13.9286   10.4712 H   0  0  0  0  0  0  0  0  0  0  0  0
   42.6321   11.3947   13.0243 H   0  0  0  0  0  0  0  0  0  0  0  0
   41.8835   12.6331   11.9793 H   0  0  0  0  0  0  0  0  0  0  0  0
   48.2303   13.3942   10.5465 H   0  0  0  0  0  0  0  0  0  0  0  0
   47.8477   12.5044    9.0427 H   0  0  0  0  0  0  0  0  0  0  0  0
   49.1598   11.9464   10.1024 H   0  0  0  0  0  0  0  0  0  0  0  0
   47.3221    7.7484   11.8492 H   0  0  0  0  0  0  0  0  0  0  0  0
   47.7469    8.5828   13.3587 H   0  0  0  0  0  0  0  0  0  0  0  0
   46.1164    7.8988   13.1503 H   0  0  0  0  0  0  0  0  0  0  0  0
   40.2702    9.5767   11.1913 H   0  0  0  0  0  0  0  0  0  0  0  0
   44.0433   13.4691    9.1012 H   0  0  0  0  0  0  0  0  0  0  0  0
   43.2672    9.8835    9.3054 H   0  0  0  0  0  0  0  0  0  0  0  0
   42.6553   11.4471    8.7012 H   0  0  0  0  0  0  0  0  0  0  0  0
   47.5584   13.8498   12.4813 H   0  0  0  0  0  0  0  0  0  0  0  0
   48.4944   13.1756   11.1139 H   0  0  0  0  0  0  0  0  0  0  0  0
   48.8748   12.6950   12.7815 H   0  0  0  0  0  0  0  0  0  0  0  0
   45.6217    7.7726   13.1094 H   0  0  0  0  0  0  0  0  0  0  0  0
   47.3787    8.0000   12.9281 H   0  0  0  0  0  0  0  0  0  0  0  0
   46.5296    8.7154   14.3146 H   0  0  0  0  0  0  0  0  0  0  0  0
   40.1375   10.2159   10.8516 H   0  0  0  0  0  0  0  0  0  0  0  0
   44.8202    9.0989   12.5400 H   0  0  0  0  0  0  0  0  0  0  0  0
   46.1257   11.1709    9.3866 H   0  0  0  0  0  0  0  0  0  0  0  0
   46.7699   10.4740   12.9730 H   0  0  0  0  0  0  0  0  0  0  0  0
   46.7855    9.6621   11.4078 H   0  0  0  0  0  0  0  0  0  0  0  0
   46.0780   12.6050   11.9524 H   0  0  0  0  0  0  0  0  0  0  0  0
   47.5010   11.9946   11.1175 H   0  0  0  0  0  0  0  0  0  0  0  0
   44.4595    9.3586   10.2466 H   0  0  0  0  0  0  0  0  0  0  0  0
   43.0669    9.9914   11.1241 H   0  0  0  0  0  0  0  0  0  0  0  0
   43.8333   12.3119   10.8311 H   0  0  0  0  0  0  0  0  0  0  0  0
   43.7937   11.5110    9.2656 H   0  0  0  0  0  0  0  0  0  0  0  0
  2  1  2  0
  3  1  1  0
  4  5  1  0
  5  3  1  0
  6  2  1  0
  7  1  1  0
  8  2  1  0
  9  7  2  0
 10  8  1  0
 11  5  2  0
 12  6  2  0
 13 10  1  0
 14 13  2  0
 15  3  1  0
 16  4  1  0
 17 13  1  0
  6  4  1  0
  8  9  1  0
 19 18  2  0
 20 18  1  0
 21 22  1  0
 22 20  1  0
 23 19  1  0
 24 18  1  0
 25 19  1  0
 26 24  2  0
 27 25  1  0
 28 22  2  0
 29 23  2  0
 30 27  1  0
 31 30  2  0
 32 20  1  0
 33 21  1  0
 34 30  1  0
 23 21  1  0
 25 26  1  0
 36 40  1  0
 37 35  1  0
 38 37  1  0
 39 35  1  0
 40 39  1  0
 38 36  1  0
  9 41  1  0
 10 42  1  0
 10 43  1  0
 15 44  1  0
 15 45  1  0
 15 46  1  0
 16 47  1  0
 16 48  1  0
 16 49  1  0
 17 50  1  0
 26 51  1  0
 27 52  1  0
 27 53  1  0
 32 54  1  0
 32 55  1  0
 32 56  1  0
 33 57  1  0
 33 58  1  0
 33 59  1  0
 34 60  1  0
 35 61  1  0
 36 62  1  0
 37 63  1  0
 37 64  1  0
 38 65  1  0
 38 66  1  0
 39 67  1  0
 39 68  1  0
 40 69  1  0
 40 70  1  0
M  END
> <Uni-Dock RESULT> 
ENERGY=   -4.582  LOWER_BOUND=    3.106  UPPER_BOUND=    5.594
INTER + INTRA:          -4.582
INTER:                  -4.582
INTRA:                   0.000
UNBOUND:                 0.000

$$$$

     RDKit          3D

 70 72  0  0  0  0  0  0  0  0999 V2000
   45.9013    5.1601   13.0091 C   0  0  0  0  0  0  0  0  0  0  0  0
   46.1418    6.4745   13.2704 C   0  0  0  0  0  0  0  0  0  0  0  0
   45.0117    4.7656   12.0395 N   0  0  0  0  0  0  0  0  0  0  0  0
   44.6234    7.0855   11.5873 N   0  0  0  0  0  0  0  0  0  0  0  0
   44.3443    5.7350   11.2896 C   0  0  0  0  0  0  0  0  0  0  0  0
   45.5059    7.5360   12.5722 C   0  0  0  0  0  0  0  0  0  0  0  0
   46.6345    4.3397   13.8119 N   0  0  0  0  0  0  0  0  0  0  0  0
   47.0774    6.4726   14.2668 N   0  0  0  0  0  0  0  0  0  0  0  0
   47.3453    5.1600   14.5599 C   0  0  0  0  0  0  0  0  0  0  0  0
   47.6614    7.6265   14.9250 C   0  0  0  0  0  0  0  0  0  0  0  0
   43.5392    5.4347   10.4027 O   0  0  0  0  0  0  0  0  0  0  0  0
   45.7193    8.7163   12.8328 O   0  0  0  0  0  0  0  0  0  0  0  0
   48.7081    8.3017   14.0810 C   0  0  0  0  0  0  0  0  0  0  0  0
   49.1639    7.9294   13.0131 O   0  0  0  0  0  0  0  0  0  0  0  0
   44.7887    3.3534   11.7883 C   0  0  0  0  0  0  0  0  0  0  0  0
   43.9210    8.0751   10.7944 C   0  0  0  0  0  0  0  0  0  0  0  0
   49.1712    9.4326   14.6573 O   0  0  0  0  0  0  0  0  0  0  0  0
   45.6550    5.2256   13.0736 C   0  0  0  0  0  0  0  0  0  0  0  0
   46.4323    6.2845   12.7158 C   0  0  0  0  0  0  0  0  0  0  0  0
   44.2950    5.2274   12.8806 N   0  0  0  0  0  0  0  0  0  0  0  0
   44.5239    7.4324   11.9731 N   0  0  0  0  0  0  0  0  0  0  0  0
   43.6869    6.3495   12.3160 C   0  0  0  0  0  0  0  0  0  0  0  0
   45.9123    7.4672   12.1244 C   0  0  0  0  0  0  0  0  0  0  0  0
   46.3903    4.2155   13.6161 N   0  0  0  0  0  0  0  0  0  0  0  0
   47.7039    5.9253   13.0647 N   0  0  0  0  0  0  0  0  0  0  0  0
   47.6282    4.6677   13.6064 C   0  0  0  0  0  0  0  0  0  0  0  0
   48.9190    6.6945   12.8708 C   0  0  0  0  0  0  0  0  0  0  0  0
   42.4695    6.4011   12.1162 O   0  0  0  0  0  0  0  0  0  0  0  0
   46.6301    8.4016   11.7802 O   0  0  0  0  0  0  0  0  0  0  0  0
   49.0715    7.7961   13.8836 C   0  0  0  0  0  0  0  0  0  0  0  0
   48.3557    8.0409   14.8403 O   0  0  0  0  0  0  0  0  0  0  0  0
   43.5036    4.0746   13.2702 C   0  0  0  0  0  0  0  0  0  0  0  0
   43.8710    8.5884   11.3910 C   0  0  0  0  0  0  0  0  0  0  0  0
   50.1757    8.5412   13.6564 O   0  0  0  0  0  0  0  0  0  0  0  0
   45.7608    7.7134   12.7172 N   0  0  0  0  0  0  0  0  0  0  0  0
   46.6317    4.8839   12.5062 N   0  0  0  0  0  0  0  0  0  0  0  0
   44.8635    6.6535   12.2366 C   0  0  0  0  0  0  0  0  0  0  0  0
   45.2327    5.2583   12.7855 C   0  0  0  0  0  0  0  0  0  0  0  0
   47.1639    7.3430   12.4851 C   0  0  0  0  0  0  0  0  0  0  0  0
   47.5145    5.9421   13.0316 C   0  0  0  0  0  0  0  0  0  0  0  0
   48.0572    4.8580   15.3184 H   0  0  0  0  0  0  0  0  0  0  0  0
   46.8507    8.3242   15.1552 H   0  0  0  0  0  0  0  0  0  0  0  0
   48.1205    7.2852   15.8585 H   0  0  0  0  0  0  0  0  0  0  0  0
   44.4376    2.8770   12.7093 H   0  0  0  0  0  0  0  0  0  0  0  0
   45.7312    2.8943   11.4741 H   0  0  0  0  0  0  0  0  0  0  0  0
   44.0436    3.1908   11.0053 H   0  0  0  0  0  0  0  0  0  0  0  0
   44.1714    7.9270    9.7388 H   0  0  0  0  0  0  0  0  0  0  0  0
   42.8424    7.9303   10.9174 H   0  0  0  0  0  0  0  0  0  0  0  0
   44.1755    9.0995   11.0785 H   0  0  0  0  0  0  0  0  0  0  0  0
   49.8135    9.7886   14.0058 H   0  0  0  0  0  0  0  0  0  0  0  0
   48.4943    4.1305   13.9730 H   0  0  0  0  0  0  0  0  0  0  0  0
   48.8945    7.1090   11.8591 H   0  0  0  0  0  0  0  0  0  0  0  0
   49.7676    6.0084   12.9593 H   0  0  0  0  0  0  0  0  0  0  0  0
   43.6222    3.9069   14.3453 H   0  0  0  0  0  0  0  0  0  0  0  0
   43.8567    3.1962   12.7205 H   0  0  0  0  0  0  0  0  0  0  0  0
   42.4415    4.2171   13.0545 H   0  0  0  0  0  0  0  0  0  0  0  0
   44.5655    9.4095   11.1974 H   0  0  0  0  0  0  0  0  0  0  0  0
   43.4000    8.2905   10.4483 H   0  0  0  0  0  0  0  0  0  0  0  0
   43.0891    8.9398   12.0721 H   0  0  0  0  0  0  0  0  0  0  0  0
   50.1470    9.2321   14.3531 H   0  0  0  0  0  0  0  0  0  0  0  0
   45.5522    8.5851   12.2331 H   0  0  0  0  0  0  0  0  0  0  0  0
   46.7511    4.8491   11.4943 H   0  0  0  0  0  0  0  0  0  0  0  0
   43.8383    6.8968   12.5361 H   0  0  0  0  0  0  0  0  0  0  0  0
   44.8818    6.6316   11.1397 H   0  0  0  0  0  0  0  0  0  0  0  0
   45.0576    5.2232   13.8680 H   0  0  0  0  0  0  0  0  0  0  0  0
   44.5736    4.5075   12.3357 H   0  0  0  0  0  0  0  0  0  0  0  0
   47.3755    7.3795   11.4091 H   0  0  0  0  0  0  0  0  0  0  0  0
   47.8085    8.0871   12.9653 H   0  0  0  0  0  0  0  0  0  0  0  0
   47.4647    5.9448   14.1274 H   0  0  0  0  0  0  0  0  0  0  0  0
   48.5490    5.6990   12.7645 H   0  0  0  0  0  0  0  0  0  0  0  0
  2  1  2  0
  3  1  1  0
  4  5  1  0
  5  3  1  0
  6  2  1  0
  7  1  1  0
  8  2  1  0
  9  7  2  0
 10  8  1  0
 11  5  2  0
 12  6  2  0
 13 10  1  0
 14 13  2  0
 15  3  1  0
 16  4  1  0
 17 13  1  0
  6  4  1  0
  8  9  1  0
 19 18  2  0
 20 18  1  0
 21 22  1  0
 22 20  1  0
 23 19  1  0
 24 18  1  0
 25 19  1  0
 26 24  2  0
 27 25  1  0
 28 22  2  0
 29 23  2  0
 30 27  1  0
 31 30  2  0
 32 20  1  0
 33 21  1  0
 34 30  1  0
 23 21  1  0
 25 26  1  0
 36 40  1  0
 37 35  1  0
 38 37  1  0
 39 35  1  0
 40 39  1  0
 38 36  1  0
  9 41  1  0
 10 42  1  0
 10 43  1  0
 15 44  1  0
 15 45  1  0
 15 46  1  0
 16 47  1  0
 16 48  1  0
 16 49  1  0
 17 50  1  0
 26 51  1  0
 27 52  1  0
 27 53  1  0
 32 54  1  0
 32 55  1  0
 32 56  1  0
 33 57  1  0
 33 58  1  0
 33 59  1  0
 34 60  1  0
 35 61  1  0
 36 62  1  0
 37 63  1  0
 37 64  1  0
 38 65  1  0
 38 66  1  0
 39 67  1  0
 39 68  1  0
 40 69  1  0
 40 70  1  0
M  END
> <Uni-Dock RESULT> 
ENERGY=   -4.532  LOWER_BOUND=    1.264  UPPER_BOUND=    4.398
INTER + INTRA:          -4.532
INTER:                  -4.532
INTRA:                   0.000
UNBOUND:                 0.000

$$$$

     RDKit          3D

 70 72  0  0  0  0  0  0  0  0999 V2000
   51.1707    5.0822   19.4931 C   0  0  0  0  0  0  0  0  0  0  0  0
   49.8681    5.1801   19.1093 C   0  0  0  0  0  0  0  0  0  0  0  0
   51.5326    5.0154   20.8166 N   0  0  0  0  0  0  0  0  0  0  0  0
   49.2027    5.1324   21.3601 N   0  0  0  0  0  0  0  0  0  0  0  0
   50.5403    5.0341   21.7978 C   0  0  0  0  0  0  0  0  0  0  0  0
   48.7862    5.2185   20.0295 C   0  0  0  0  0  0  0  0  0  0  0  0
   52.0155    5.0632   18.4248 N   0  0  0  0  0  0  0  0  0  0  0  0
   49.9019    5.2062   17.7431 N   0  0  0  0  0  0  0  0  0  0  0  0
   51.2209    5.1317   17.3752 C   0  0  0  0  0  0  0  0  0  0  0  0
   48.7730    5.3248   16.8391 C   0  0  0  0  0  0  0  0  0  0  0  0
   50.8107    4.9710   23.0011 O   0  0  0  0  0  0  0  0  0  0  0  0
   47.6182    5.3264   19.6680 O   0  0  0  0  0  0  0  0  0  0  0  0
   48.0131    4.0342   16.6952 C   0  0  0  0  0  0  0  0  0  0  0  0
   48.3031    2.9397   17.1478 O   0  0  0  0  0  0  0  0  0  0  0  0
   52.9328    4.9055   21.1831 C   0  0  0  0  0  0  0  0  0  0  0  0
   48.1889    5.1474   22.3961 C   0  0  0  0  0  0  0  0  0  0  0  0
   46.9059    4.1805   15.9348 O   0  0  0  0  0  0  0  0  0  0  0  0
   51.1174    5.3074   19.6177 C   0  0  0  0  0  0  0  0  0  0  0  0
   50.0136    4.5735   19.3066 C   0  0  0  0  0  0  0  0  0  0  0  0
   51.1475    6.1441   20.7067 N   0  0  0  0  0  0  0  0  0  0  0  0
   48.8840    5.4954   21.1464 N   0  0  0  0  0  0  0  0  0  0  0  0
   50.0127    6.2598   21.5106 C   0  0  0  0  0  0  0  0  0  0  0  0
   48.8138    4.6117   20.0667 C   0  0  0  0  0  0  0  0  0  0  0  0
   52.1351    5.0929   18.7382 N   0  0  0  0  0  0  0  0  0  0  0  0
   50.3527    3.8847   18.1760 N   0  0  0  0  0  0  0  0  0  0  0  0
   51.6433    4.2323   17.8695 C   0  0  0  0  0  0  0  0  0  0  0  0
   49.5340    2.9332   17.4479 C   0  0  0  0  0  0  0  0  0  0  0  0
   49.9880    6.9933   22.5035 O   0  0  0  0  0  0  0  0  0  0  0  0
   47.8371    3.9215   19.7901 O   0  0  0  0  0  0  0  0  0  0  0  0
   48.4933    3.6034   16.5933 C   0  0  0  0  0  0  0  0  0  0  0  0
   48.3319    4.7976   16.4049 O   0  0  0  0  0  0  0  0  0  0  0  0
   52.3473    6.9039   21.0071 C   0  0  0  0  0  0  0  0  0  0  0  0
   47.7156    5.6331   21.9935 C   0  0  0  0  0  0  0  0  0  0  0  0
   47.7002    2.7063   15.9672 O   0  0  0  0  0  0  0  0  0  0  0  0
   48.6101    5.1493   19.7437 N   0  0  0  0  0  0  0  0  0  0  0  0
   51.3913    4.1917   19.3477 N   0  0  0  0  0  0  0  0  0  0  0  0
   49.6665    5.3845   20.7379 C   0  0  0  0  0  0  0  0  0  0  0  0
   51.0805    5.4103   20.1182 C   0  0  0  0  0  0  0  0  0  0  0  0
   48.9198    3.9610   18.9365 C   0  0  0  0  0  0  0  0  0  0  0  0
   50.3400    3.9979   18.3317 C   0  0  0  0  0  0  0  0  0  0  0  0
   51.5464    5.1316   16.3421 H   0  0  0  0  0  0  0  0  0  0  0  0
   48.1176    6.1106   17.2262 H   0  0  0  0  0  0  0  0  0  0  0  0
   49.1568    5.6247   15.8585 H   0  0  0  0  0  0  0  0  0  0  0  0
   53.4768    5.7662   20.7811 H   0  0  0  0  0  0  0  0  0  0  0  0
   53.3408    3.9828   20.7586 H   0  0  0  0  0  0  0  0  0  0  0  0
   53.0703    4.8811   22.2672 H   0  0  0  0  0  0  0  0  0  0  0  0
   48.2627    4.2231   22.9784 H   0  0  0  0  0  0  0  0  0  0  0  0
   48.3758    5.9937   23.0656 H   0  0  0  0  0  0  0  0  0  0  0  0
   47.1765    5.2319   21.9926 H   0  0  0  0  0  0  0  0  0  0  0  0
   46.4894    3.2916   15.9433 H   0  0  0  0  0  0  0  0  0  0  0  0
   52.1741    3.8335   17.0137 H   0  0  0  0  0  0  0  0  0  0  0  0
   49.0582    2.2733   18.1787 H   0  0  0  0  0  0  0  0  0  0  0  0
   50.1965    2.3431   16.8063 H   0  0  0  0  0  0  0  0  0  0  0  0
   52.5778    7.5572   20.1596 H   0  0  0  0  0  0  0  0  0  0  0  0
   53.1779    6.2102   21.1722 H   0  0  0  0  0  0  0  0  0  0  0  0
   52.2261    7.5216   21.9007 H   0  0  0  0  0  0  0  0  0  0  0  0
   46.8621    5.0570   21.6281 H   0  0  0  0  0  0  0  0  0  0  0  0
   47.9693    5.2926   23.0030 H   0  0  0  0  0  0  0  0  0  0  0  0
   47.4328    6.6895   22.0459 H   0  0  0  0  0  0  0  0  0  0  0  0
   47.0554    3.2584   15.4741 H   0  0  0  0  0  0  0  0  0  0  0  0
   47.7170    5.0191   20.2163 H   0  0  0  0  0  0  0  0  0  0  0  0
   51.3591    3.3989   19.9880 H   0  0  0  0  0  0  0  0  0  0  0  0
   49.4755    6.3415   21.2354 H   0  0  0  0  0  0  0  0  0  0  0  0
   49.6193    4.6056   21.5093 H   0  0  0  0  0  0  0  0  0  0  0  0
   51.1886    6.2873   19.4680 H   0  0  0  0  0  0  0  0  0  0  0  0
   51.8227    5.5175   20.9170 H   0  0  0  0  0  0  0  0  0  0  0  0
   48.8094    3.0624   19.5565 H   0  0  0  0  0  0  0  0  0  0  0  0
   48.1866    3.8849   18.1263 H   0  0  0  0  0  0  0  0  0  0  0  0
   50.4072    4.7973   17.5835 H   0  0  0  0  0  0  0  0  0  0  0  0
   50.5323    3.0569   17.8045 H   0  0  0  0  0  0  0  0  0  0  0  0
  2  1  2  0
  3  1  1  0
  4  5  1  0
  5  3  1  0
  6  2  1  0
  7  1  1  0
  8  2  1  0
  9  7  2  0
 10  8  1  0
 11  5  2  0
 12  6  2  0
 13 10  1  0
 14 13  2  0
 15  3  1  0
 16  4  1  0
 17 13  1  0
  6  4  1  0
  8  9  1  0
 19 18  2  0
 20 18  1  0
 21 22  1  0
 22 20  1  0
 23 19  1  0
 24 18  1  0
 25 19  1  0
 26 24  2  0
 27 25  1  0
 28 22  2  0
 29 23  2  0
 30 27  1  0
 31 30  2  0
 32 20  1  0
 33 21  1  0
 34 30  1  0
 23 21  1  0
 25 26  1  0
 36 40  1  0
 37 35  1  0
 38 37  1  0
 39 35  1  0
 40 39  1  0
 38 36  1  0
  9 41  1  0
 10 42  1  0
 10 43  1  0
 15 44  1  0
 15 45  1  0
 15 46  1  0
 16 47  1  0
 16 48  1  0
 16 49  1  0
 17 50  1  0
 26 51  1  0
 27 52  1  0
 27 53  1  0
 32 54  1  0
 32 55  1  0
 32 56  1  0
 33 57  1  0
 33 58  1  0
 33 59  1  0
 34 60  1  0
 35 61  1  0
 36 62  1  0
 37 63  1  0
 37 64  1  0
 38 65  1  0
 38 66  1  0
 39 67  1  0
 39 68  1  0
 40 69  1  0
 40 70  1  0
M  END
> <Uni-Dock RESULT> 
ENERGY=   -4.493  LOWER_BOUND=    6.161  UPPER_BOUND=    8.210
INTER + INTRA:          -4.493
INTER:                  -4.493
INTRA:                   0.000
UNBOUND:                 0.000

$$$$

     RDKit          3D

 70 72  0  0  0  0  0  0  0  0999 V2000
   48.4574    7.8783   20.5140 C   0  0  0  0  0  0  0  0  0  0  0  0
   47.8471    6.6622   20.4664 C   0  0  0  0  0  0  0  0  0  0  0  0
   48.8920    8.4246   21.6971 N   0  0  0  0  0  0  0  0  0  0  0  0
   48.0848    6.4533   22.7926 N   0  0  0  0  0  0  0  0  0  0  0  0
   48.7176    7.7109   22.8837 C   0  0  0  0  0  0  0  0  0  0  0  0
   47.6124    5.8634   21.6177 C   0  0  0  0  0  0  0  0  0  0  0  0
   48.5649    8.4420   19.2786 N   0  0  0  0  0  0  0  0  0  0  0  0
   47.5781    6.4519   19.1429 N   0  0  0  0  0  0  0  0  0  0  0  0
   48.0314    7.5538   18.4637 C   0  0  0  0  0  0  0  0  0  0  0  0
   46.9108    5.3059   18.5538 C   0  0  0  0  0  0  0  0  0  0  0  0
   49.0948    8.1534   23.9732 O   0  0  0  0  0  0  0  0  0  0  0  0
   47.0433    4.7773   21.5604 O   0  0  0  0  0  0  0  0  0  0  0  0
   47.8096    4.1030   18.4586 C   0  0  0  0  0  0  0  0  0  0  0  0
   49.0013    4.0367   18.7082 O   0  0  0  0  0  0  0  0  0  0  0  0
   49.5437    9.7216   21.7034 C   0  0  0  0  0  0  0  0  0  0  0  0
   47.9168    5.7286   24.0367 C   0  0  0  0  0  0  0  0  0  0  0  0
   47.1513    3.0134   18.0059 O   0  0  0  0  0  0  0  0  0  0  0  0
   48.2553    7.9376   20.6712 C   0  0  0  0  0  0  0  0  0  0  0  0
   48.4922    6.6019   20.5567 C   0  0  0  0  0  0  0  0  0  0  0  0
   47.7004    8.4803   21.8046 N   0  0  0  0  0  0  0  0  0  0  0  0
   47.6011    6.2615   22.7017 N   0  0  0  0  0  0  0  0  0  0  0  0
   47.3546    7.6412   22.8646 C   0  0  0  0  0  0  0  0  0  0  0  0
   48.1871    5.6665   21.5818 C   0  0  0  0  0  0  0  0  0  0  0  0
   48.6376    8.6193   19.5556 N   0  0  0  0  0  0  0  0  0  0  0  0
   49.0303    6.4424   19.3106 N   0  0  0  0  0  0  0  0  0  0  0  0
   49.0969    7.6890   18.7428 C   0  0  0  0  0  0  0  0  0  0  0  0
   49.4872    5.2068   18.7021 C   0  0  0  0  0  0  0  0  0  0  0  0
   46.8578    8.0777   23.9074 O   0  0  0  0  0  0  0  0  0  0  0  0
   48.4341    4.4688   21.4750 O   0  0  0  0  0  0  0  0  0  0  0  0
   48.3520    4.3579   18.1989 C   0  0  0  0  0  0  0  0  0  0  0  0
   47.1625    4.6270   18.1840 O   0  0  0  0  0  0  0  0  0  0  0  0
   47.4707    9.9112   21.8884 C   0  0  0  0  0  0  0  0  0  0  0  0
   47.2315    5.4082   23.8139 C   0  0  0  0  0  0  0  0  0  0  0  0
   48.7869    3.1847   17.6885 O   0  0  0  0  0  0  0  0  0  0  0  0
   47.5617    5.6250   21.3767 N   0  0  0  0  0  0  0  0  0  0  0  0
   49.3253    7.7161   20.2253 N   0  0  0  0  0  0  0  0  0  0  0  0
   47.8955    6.8551   22.1081 C   0  0  0  0  0  0  0  0  0  0  0  0
   48.2420    8.0348   21.1740 C   0  0  0  0  0  0  0  0  0  0  0  0
   48.6099    5.3099   20.3960 C   0  0  0  0  0  0  0  0  0  0  0  0
   48.9510    6.5022   19.4760 C   0  0  0  0  0  0  0  0  0  0  0  0
   47.9494    7.6596   17.3889 H   0  0  0  0  0  0  0  0  0  0  0  0
   46.0351    5.0782   19.1688 H   0  0  0  0  0  0  0  0  0  0  0  0
   46.5828    5.5874   17.5479 H   0  0  0  0  0  0  0  0  0  0  0  0
   48.8635   10.4662   21.2775 H   0  0  0  0  0  0  0  0  0  0  0  0
   50.4532    9.6662   21.0970 H   0  0  0  0  0  0  0  0  0  0  0  0
   49.8171   10.0362   22.7138 H   0  0  0  0  0  0  0  0  0  0  0  0
   48.9019    5.5541   24.4817 H   0  0  0  0  0  0  0  0  0  0  0  0
   47.3283    6.3403   24.7289 H   0  0  0  0  0  0  0  0  0  0  0  0
   47.4149    4.7674   23.8991 H   0  0  0  0  0  0  0  0  0  0  0  0
   47.8273    2.3018   18.0185 H   0  0  0  0  0  0  0  0  0  0  0  0
   49.4857    7.8634   17.7471 H   0  0  0  0  0  0  0  0  0  0  0  0
   50.0679    4.6602   19.4505 H   0  0  0  0  0  0  0  0  0  0  0  0
   50.1375    5.4681   17.8609 H   0  0  0  0  0  0  0  0  0  0  0  0
   46.7898   10.2111   21.0856 H   0  0  0  0  0  0  0  0  0  0  0  0
   48.4257   10.4339   21.7742 H   0  0  0  0  0  0  0  0  0  0  0  0
   47.0286   10.1979   22.8461 H   0  0  0  0  0  0  0  0  0  0  0  0
   47.3992    4.3491   23.6040 H   0  0  0  0  0  0  0  0  0  0  0  0
   47.8216    5.6954   24.6906 H   0  0  0  0  0  0  0  0  0  0  0  0
   46.1721    5.5594   24.0456 H   0  0  0  0  0  0  0  0  0  0  0  0
   47.9645    2.7170   17.4266 H   0  0  0  0  0  0  0  0  0  0  0  0
   47.4630    4.8519   22.0328 H   0  0  0  0  0  0  0  0  0  0  0  0
   50.1637    7.5056   20.7657 H   0  0  0  0  0  0  0  0  0  0  0  0
   47.0429    7.1339   22.7366 H   0  0  0  0  0  0  0  0  0  0  0  0
   48.7408    6.6603   22.7801 H   0  0  0  0  0  0  0  0  0  0  0  0
   47.3502    8.3443   20.6149 H   0  0  0  0  0  0  0  0  0  0  0  0
   48.5487    8.8956   21.7785 H   0  0  0  0  0  0  0  0  0  0  0  0
   49.5150    4.9848   20.9243 H   0  0  0  0  0  0  0  0  0  0  0  0
   48.2755    4.4670   19.7818 H   0  0  0  0  0  0  0  0  0  0  0  0
   48.0981    6.7272   18.8238 H   0  0  0  0  0  0  0  0  0  0  0  0
   49.7838    6.2253   18.8202 H   0  0  0  0  0  0  0  0  0  0  0  0
  2  1  2  0
  3  1  1  0
  4  5  1  0
  5  3  1  0
  6  2  1  0
  7  1  1  0
  8  2  1  0
  9  7  2  0
 10  8  1  0
 11  5  2  0
 12  6  2  0
 13 10  1  0
 14 13  2  0
 15  3  1  0
 16  4  1  0
 17 13  1  0
  6  4  1  0
  8  9  1  0
 19 18  2  0
 20 18  1  0
 21 22  1  0
 22 20  1  0
 23 19  1  0
 24 18  1  0
 25 19  1  0
 26 24  2  0
 27 25  1  0
 28 22  2  0
 29 23  2  0
 30 27  1  0
 31 30  2  0
 32 20  1  0
 33 21  1  0
 34 30  1  0
 23 21  1  0
 25 26  1  0
 36 40  1  0
 37 35  1  0
 38 37  1  0
 39 35  1  0
 40 39  1  0
 38 36  1  0
  9 41  1  0
 10 42  1  0
 10 43  1  0
 15 44  1  0
 15 45  1  0
 15 46  1  0
 16 47  1  0
 16 48  1  0
 16 49  1  0
 17 50  1  0
 26 51  1  0
 27 52  1  0
 27 53  1  0
 32 54  1  0
 32 55  1  0
 32 56  1  0
 33 57  1  0
 33 58  1  0
 33 59  1  0
 34 60  1  0
 35 61  1  0
 36 62  1  0
 37 63  1  0
 37 64  1  0
 38 65  1  0
 38 66  1  0
 39 67  1  0
 39 68  1  0
 40 69  1  0
 40 70  1  0
M  END
> <Uni-Dock RESULT> 
ENERGY=   -4.456  LOWER_BOUND=    6.669  UPPER_BOUND=    8.902
INTER + INTRA:          -4.456
INTER:                  -4.456
INTRA:                   0.000
UNBOUND:                 0.000

$$$$
