
     RDKit          3D

 70 72  0  0  0  0  0  0  0  0999 V2000
   51.8436    4.1836   18.4791 C   0  0  0  0  0  0  0  0  0  0  0  0
   50.5444    4.5169   18.2449 C   0  0  0  0  0  0  0  0  0  0  0  0
   52.6896    5.0120   19.1759 N   0  0  0  0  0  0  0  0  0  0  0  0
   50.8493    6.5250   19.4224 N   0  0  0  0  0  0  0  0  0  0  0  0
   52.2095    6.2319   19.6550 C   0  0  0  0  0  0  0  0  0  0  0  0
   49.9570    5.7264   18.7030 C   0  0  0  0  0  0  0  0  0  0  0  0
   52.1635    2.9746   17.9402 N   0  0  0  0  0  0  0  0  0  0  0  0
   50.0305    3.4671   17.5361 N   0  0  0  0  0  0  0  0  0  0  0  0
   51.0458    2.5579   17.3795 C   0  0  0  0  0  0  0  0  0  0  0  0
   48.6910    3.3452   16.9870 C   0  0  0  0  0  0  0  0  0  0  0  0
   52.9370    7.0291   20.2547 O   0  0  0  0  0  0  0  0  0  0  0  0
   48.7877    6.0189   18.4728 O   0  0  0  0  0  0  0  0  0  0  0  0
   47.6310    2.9846   17.9912 C   0  0  0  0  0  0  0  0  0  0  0  0
   46.4309    2.9600   17.7565 O   0  0  0  0  0  0  0  0  0  0  0  0
   54.0766    4.6343   19.3771 C   0  0  0  0  0  0  0  0  0  0  0  0
   50.3666    7.7915   19.9368 C   0  0  0  0  0  0  0  0  0  0  0  0
   48.0778    2.6162   19.2056 O   0  0  0  0  0  0  0  0  0  0  0  0
   50.4353    4.7989   20.0216 C   0  0  0  0  0  0  0  0  0  0  0  0
   50.2191    4.8338   18.6780 C   0  0  0  0  0  0  0  0  0  0  0  0
   51.6497    5.1359   20.5684 N   0  0  0  0  0  0  0  0  0  0  0  0
   52.4460    5.4951   18.3382 N   0  0  0  0  0  0  0  0  0  0  0  0
   52.7025    5.4949   19.7253 C   0  0  0  0  0  0  0  0  0  0  0  0
   51.2183    5.2044   17.7383 C   0  0  0  0  0  0  0  0  0  0  0  0
   49.3229    4.4120   20.7056 N   0  0  0  0  0  0  0  0  0  0  0  0
   48.9194    4.4426   18.5174 N   0  0  0  0  0  0  0  0  0  0  0  0
   48.4200    4.1946   19.7702 C   0  0  0  0  0  0  0  0  0  0  0  0
   48.1801    4.3438   17.2730 C   0  0  0  0  0  0  0  0  0  0  0  0
   53.8136    5.8053   20.1654 O   0  0  0  0  0  0  0  0  0  0  0  0
   50.9982    5.2664   16.5321 O   0  0  0  0  0  0  0  0  0  0  0  0
   48.5304    3.1067   16.4929 C   0  0  0  0  0  0  0  0  0  0  0  0
   49.2199    2.1661   16.8495 O   0  0  0  0  0  0  0  0  0  0  0  0
   51.8421    5.0822   22.0057 C   0  0  0  0  0  0  0  0  0  0  0  0
   53.5491    5.8770   17.4788 C   0  0  0  0  0  0  0  0  0  0  0  0
   47.9428    3.0912   15.2768 O   0  0  0  0  0  0  0  0  0  0  0  0
   51.7887    3.8294   19.1660 N   0  0  0  0  0  0  0  0  0  0  0  0
   49.5093    5.5481   18.3397 N   0  0  0  0  0  0  0  0  0  0  0  0
   51.8315    5.2983   19.2752 C   0  0  0  0  0  0  0  0  0  0  0  0
   50.4317    5.9326   19.4227 C   0  0  0  0  0  0  0  0  0  0  0  0
   50.8664    3.4455   18.0826 C   0  0  0  0  0  0  0  0  0  0  0  0
   49.4664    4.0793   18.2307 C   0  0  0  0  0  0  0  0  0  0  0  0
   50.9216    1.6203   16.8517 H   0  0  0  0  0  0  0  0  0  0  0  0
   48.4414    4.3015   16.5182 H   0  0  0  0  0  0  0  0  0  0  0  0
   48.7179    2.5669   16.2176 H   0  0  0  0  0  0  0  0  0  0  0  0
   54.1191    3.6382   19.8280 H   0  0  0  0  0  0  0  0  0  0  0  0
   54.5828    4.6211   18.4071 H   0  0  0  0  0  0  0  0  0  0  0  0
   54.5978    5.3358   20.0337 H   0  0  0  0  0  0  0  0  0  0  0  0
   50.8431    8.6007   19.3737 H   0  0  0  0  0  0  0  0  0  0  0  0
   49.2816    7.8890   19.8526 H   0  0  0  0  0  0  0  0  0  0  0  0
   50.6480    7.8899   20.9900 H   0  0  0  0  0  0  0  0  0  0  0  0
   47.2634    2.4393   19.7227 H   0  0  0  0  0  0  0  0  0  0  0  0
   47.4036    3.8638   19.9451 H   0  0  0  0  0  0  0  0  0  0  0  0
   47.1127    4.3231   17.5154 H   0  0  0  0  0  0  0  0  0  0  0  0
   48.3981    5.2395   16.6842 H   0  0  0  0  0  0  0  0  0  0  0  0
   51.8042    4.0371   22.3274 H   0  0  0  0  0  0  0  0  0  0  0  0
   51.0472    5.6482   22.5013 H   0  0  0  0  0  0  0  0  0  0  0  0
   52.8051    5.5050   22.3020 H   0  0  0  0  0  0  0  0  0  0  0  0
   53.7596    6.9398   17.6353 H   0  0  0  0  0  0  0  0  0  0  0  0
   54.4411    5.3026   17.7491 H   0  0  0  0  0  0  0  0  0  0  0  0
   53.3306    5.7089   16.4209 H   0  0  0  0  0  0  0  0  0  0  0  0
   48.2632    2.2598   14.8645 H   0  0  0  0  0  0  0  0  0  0  0  0
   51.4083    3.4642   20.0402 H   0  0  0  0  0  0  0  0  0  0  0  0
   49.8889    5.9128   17.4649 H   0  0  0  0  0  0  0  0  0  0  0  0
   52.3354    5.7100   18.3920 H   0  0  0  0  0  0  0  0  0  0  0  0
   52.4449    5.5681   20.1419 H   0  0  0  0  0  0  0  0  0  0  0  0
   50.5274    7.0241   19.4318 H   0  0  0  0  0  0  0  0  0  0  0  0
   49.9934    5.6470   20.3870 H   0  0  0  0  0  0  0  0  0  0  0  0
   51.3048    3.7318   17.1186 H   0  0  0  0  0  0  0  0  0  0  0  0
   50.7706    2.3543   18.0732 H   0  0  0  0  0  0  0  0  0  0  0  0
   48.9624    3.6677   19.1142 H   0  0  0  0  0  0  0  0  0  0  0  0
   48.8530    3.8090   17.3641 H   0  0  0  0  0  0  0  0  0  0  0  0
  2  1  2  0
  3  1  1  0
  4  5  1  0
  5  3  1  0
  6  2  1  0
  7  1  1  0
  8  2  1  0
  9  7  2  0
 10  8  1  0
 11  5  2  0
 12  6  2  0
 13 10  1  0
 14 13  2  0
 15  3  1  0
 16  4  1  0
 17 13  1  0
  6  4  1  0
  8  9  1  0
 19 18  2  0
 20 18  1  0
 21 22  1  0
 22 20  1  0
 23 19  1  0
 24 18  1  0
 25 19  1  0
 26 24  2  0
 27 25  1  0
 28 22  2  0
 29 23  2  0
 30 27  1  0
 31 30  2  0
 32 20  1  0
 33 21  1  0
 34 30  1  0
 23 21  1  0
 25 26  1  0
 36 40  1  0
 37 35  1  0
 38 37  1  0
 39 35  1  0
 40 39  1  0
 38 36  1  0
  9 41  1  0
 10 42  1  0
 10 43  1  0
 15 44  1  0
 15 45  1  0
 15 46  1  0
 16 47  1  0
 16 48  1  0
 16 49  1  0
 17 50  1  0
 26 51  1  0
 27 52  1  0
 27 53  1  0
 32 54  1  0
 32 55  1  0
 32 56  1  0
 33 57  1  0
 33 58  1  0
 33 59  1  0
 34 60  1  0
 35 61  1  0
 36 62  1  0
 37 63  1  0
 37 64  1  0
 38 65  1  0
 38 66  1  0
 39 67  1  0
 39 68  1  0
 40 69  1  0
 40 70  1  0
M  END
> <Uni-Dock RESULT> 
ENERGY=   -4.025  LOWER_BOUND=    0.000  UPPER_BOUND=    0.000
INTER + INTRA:          -4.025
INTER:                  -4.025
INTRA:                   0.000
UNBOUND:                 0.000

$$$$

     RDKit          3D

 70 72  0  0  0  0  0  0  0  0999 V2000
   49.1798    7.4643   21.3362 C   0  0  0  0  0  0  0  0  0  0  0  0
   48.3423    8.0873   20.4619 C   0  0  0  0  0  0  0  0  0  0  0  0
   49.3570    6.1020   21.3236 N   0  0  0  0  0  0  0  0  0  0  0  0
   47.8275    6.0168   19.4824 N   0  0  0  0  0  0  0  0  0  0  0  0
   48.6580    5.3309   20.3935 C   0  0  0  0  0  0  0  0  0  0  0  0
   47.5991    7.3948   19.4691 C   0  0  0  0  0  0  0  0  0  0  0  0
   49.7764    8.3462   22.1851 N   0  0  0  0  0  0  0  0  0  0  0  0
   48.4265    9.4154   20.7744 N   0  0  0  0  0  0  0  0  0  0  0  0
   49.3082    9.5229   21.8200 C   0  0  0  0  0  0  0  0  0  0  0  0
   47.6855   10.5114   20.1741 C   0  0  0  0  0  0  0  0  0  0  0  0
   48.7527    4.1002   20.3636 O   0  0  0  0  0  0  0  0  0  0  0  0
   46.8382    7.9690   18.6963 O   0  0  0  0  0  0  0  0  0  0  0  0
   48.1972   10.9543   18.8309 C   0  0  0  0  0  0  0  0  0  0  0  0
   47.6394   11.7687   18.1088 O   0  0  0  0  0  0  0  0  0  0  0  0
   50.2348    5.4726   22.2933 C   0  0  0  0  0  0  0  0  0  0  0  0
   47.1182    5.1999   18.5173 C   0  0  0  0  0  0  0  0  0  0  0  0
   49.3818   10.4372   18.4576 O   0  0  0  0  0  0  0  0  0  0  0  0
   49.2438    7.2040   19.1753 C   0  0  0  0  0  0  0  0  0  0  0  0
   48.2866    7.8733   19.8746 C   0  0  0  0  0  0  0  0  0  0  0  0
   49.7920    6.0323   19.6378 N   0  0  0  0  0  0  0  0  0  0  0  0
   48.4060    6.2619   21.5778 N   0  0  0  0  0  0  0  0  0  0  0  0
   49.3815    5.5267   20.8723 C   0  0  0  0  0  0  0  0  0  0  0  0
   47.7876    7.4316   21.1295 C   0  0  0  0  0  0  0  0  0  0  0  0
   49.5507    7.8310   18.0058 N   0  0  0  0  0  0  0  0  0  0  0  0
   47.9916    8.9691   19.1129 N   0  0  0  0  0  0  0  0  0  0  0  0
   48.7833    8.9026   17.9953 C   0  0  0  0  0  0  0  0  0  0  0  0
   47.0038    9.9937   19.3949 C   0  0  0  0  0  0  0  0  0  0  0  0
   49.8433    4.4786   21.3338 O   0  0  0  0  0  0  0  0  0  0  0  0
   46.8981    8.0263   21.7314 O   0  0  0  0  0  0  0  0  0  0  0  0
   47.4767   10.9794   20.4276 C   0  0  0  0  0  0  0  0  0  0  0  0
   48.5917   11.0813   20.9110 O   0  0  0  0  0  0  0  0  0  0  0  0
   50.8134    5.3504   18.8649 C   0  0  0  0  0  0  0  0  0  0  0  0
   47.9874    5.7180   22.8546 C   0  0  0  0  0  0  0  0  0  0  0  0
   46.5037   11.8458   20.7838 O   0  0  0  0  0  0  0  0  0  0  0  0
   49.8406    7.4522   20.9320 N   0  0  0  0  0  0  0  0  0  0  0  0
   47.3309    7.9327   19.4146 N   0  0  0  0  0  0  0  0  0  0  0  0
   48.9207    6.3601   20.5679 C   0  0  0  0  0  0  0  0  0  0  0  0
   48.0851    6.6712   19.3075 C   0  0  0  0  0  0  0  0  0  0  0  0
   49.0858    8.7132   21.0393 C   0  0  0  0  0  0  0  0  0  0  0  0
   48.2510    9.0246   19.7784 C   0  0  0  0  0  0  0  0  0  0  0  0
   49.5690   10.4698   22.2764 H   0  0  0  0  0  0  0  0  0  0  0  0
   46.6439   10.1900   20.0817 H   0  0  0  0  0  0  0  0  0  0  0  0
   47.7368   11.3618   20.8616 H   0  0  0  0  0  0  0  0  0  0  0  0
   51.2188    5.9496   22.2545 H   0  0  0  0  0  0  0  0  0  0  0  0
   49.8045    5.5972   23.2916 H   0  0  0  0  0  0  0  0  0  0  0  0
   50.3581    4.4044   22.0968 H   0  0  0  0  0  0  0  0  0  0  0  0
   46.3743    4.5983   19.0498 H   0  0  0  0  0  0  0  0  0  0  0  0
   46.6137    5.7989   17.7554 H   0  0  0  0  0  0  0  0  0  0  0  0
   47.8222    4.5227   18.0233 H   0  0  0  0  0  0  0  0  0  0  0  0
   49.5443   10.8154   17.5673 H   0  0  0  0  0  0  0  0  0  0  0  0
   48.7612    9.6498   17.2115 H   0  0  0  0  0  0  0  0  0  0  0  0
   46.7946   10.5266   18.4616 H   0  0  0  0  0  0  0  0  0  0  0  0
   46.0928    9.4932   19.7355 H   0  0  0  0  0  0  0  0  0  0  0  0
   51.7200    5.9628   18.8613 H   0  0  0  0  0  0  0  0  0  0  0  0
   50.4608    5.2099   17.8384 H   0  0  0  0  0  0  0  0  0  0  0  0
   51.0541    4.3711   19.2857 H   0  0  0  0  0  0  0  0  0  0  0  0
   47.4346    4.7907   22.6727 H   0  0  0  0  0  0  0  0  0  0  0  0
   48.8685    5.4840   23.4608 H   0  0  0  0  0  0  0  0  0  0  0  0
   47.3504    6.4089   23.4131 H   0  0  0  0  0  0  0  0  0  0  0  0
   46.9230   12.4116   21.4681 H   0  0  0  0  0  0  0  0  0  0  0  0
   50.5132    7.5578   20.1712 H   0  0  0  0  0  0  0  0  0  0  0  0
   46.6580    7.8281   20.1753 H   0  0  0  0  0  0  0  0  0  0  0  0
   48.2542    6.1542   21.4146 H   0  0  0  0  0  0  0  0  0  0  0  0
   49.5060    5.4496   20.3992 H   0  0  0  0  0  0  0  0  0  0  0  0
   47.3781    5.8532   19.1301 H   0  0  0  0  0  0  0  0  0  0  0  0
   48.7402    6.7172   18.4287 H   0  0  0  0  0  0  0  0  0  0  0  0
   48.4304    8.6666   21.9178 H   0  0  0  0  0  0  0  0  0  0  0  0
   49.7924    9.5313   21.2167 H   0  0  0  0  0  0  0  0  0  0  0  0
   48.9174    9.2304   18.9316 H   0  0  0  0  0  0  0  0  0  0  0  0
   47.6660    9.9355   19.9472 H   0  0  0  0  0  0  0  0  0  0  0  0
  2  1  2  0
  3  1  1  0
  4  5  1  0
  5  3  1  0
  6  2  1  0
  7  1  1  0
  8  2  1  0
  9  7  2  0
 10  8  1  0
 11  5  2  0
 12  6  2  0
 13 10  1  0
 14 13  2  0
 15  3  1  0
 16  4  1  0
 17 13  1  0
  6  4  1  0
  8  9  1  0
 19 18  2  0
 20 18  1  0
 21 22  1  0
 22 20  1  0
 23 19  1  0
 24 18  1  0
 25 19  1  0
 26 24  2  0
 27 25  1  0
 28 22  2  0
 29 23  2  0
 30 27  1  0
 31 30  2  0
 32 20  1  0
 33 21  1  0
 34 30  1  0
 23 21  1  0
 25 26  1  0
 36 40  1  0
 37 35  1  0
 38 37  1  0
 39 35  1  0
 40 39  1  0
 38 36  1  0
  9 41  1  0
 10 42  1  0
 10 43  1  0
 15 44  1  0
 15 45  1  0
 15 46  1  0
 16 47  1  0
 16 48  1  0
 16 49  1  0
 17 50  1  0
 26 51  1  0
 27 52  1  0
 27 53  1  0
 32 54  1  0
 32 55  1  0
 32 56  1  0
 33 57  1  0
 33 58  1  0
 33 59  1  0
 34 60  1  0
 35 61  1  0
 36 62  1  0
 37 63  1  0
 37 64  1  0
 38 65  1  0
 38 66  1  0
 39 67  1  0
 39 68  1  0
 40 69  1  0
 40 70  1  0
M  END
> <Uni-Dock RESULT> 
ENERGY=   -3.693  LOWER_BOUND=    3.170  UPPER_BOUND=    5.827
INTER + INTRA:          -3.693
INTER:                  -3.693
INTRA:                   0.000
UNBOUND:                 0.000

$$$$

     RDKit          3D

 70 72  0  0  0  0  0  0  0  0999 V2000
   50.1210    6.9734   18.7459 C   0  0  0  0  0  0  0  0  0  0  0  0
   48.9405    6.2963   18.7844 C   0  0  0  0  0  0  0  0  0  0  0  0
   50.4781    7.8632   19.7300 N   0  0  0  0  0  0  0  0  0  0  0  0
   48.4109    7.3389   20.8201 N   0  0  0  0  0  0  0  0  0  0  0  0
   49.6077    8.0854   20.7983 C   0  0  0  0  0  0  0  0  0  0  0  0
   47.9950    6.4404   19.8347 C   0  0  0  0  0  0  0  0  0  0  0  0
   50.8515    6.6596   17.6403 N   0  0  0  0  0  0  0  0  0  0  0  0
   48.9384    5.5214   17.6582 N   0  0  0  0  0  0  0  0  0  0  0  0
   50.1157    5.7728   17.0004 C   0  0  0  0  0  0  0  0  0  0  0  0
   47.8777    4.6445   17.1931 C   0  0  0  0  0  0  0  0  0  0  0  0
   49.8634    8.9012   21.6892 O   0  0  0  0  0  0  0  0  0  0  0  0
   46.9290    5.8327   19.8489 O   0  0  0  0  0  0  0  0  0  0  0  0
   47.7917    3.3263   17.9123 C   0  0  0  0  0  0  0  0  0  0  0  0
   46.8959    2.5079   17.7586 O   0  0  0  0  0  0  0  0  0  0  0  0
   51.7316    8.5889   19.6359 C   0  0  0  0  0  0  0  0  0  0  0  0
   47.5249    7.5757   21.9429 C   0  0  0  0  0  0  0  0  0  0  0  0
   48.8193    3.0401   18.7321 O   0  0  0  0  0  0  0  0  0  0  0  0
   49.4269    5.8091   20.4500 C   0  0  0  0  0  0  0  0  0  0  0  0
   48.7054    6.1069   19.3346 C   0  0  0  0  0  0  0  0  0  0  0  0
   50.2710    6.7236   21.0317 N   0  0  0  0  0  0  0  0  0  0  0  0
   49.6737    8.2449   19.2807 N   0  0  0  0  0  0  0  0  0  0  0  0
   50.4194    7.9834   20.4492 C   0  0  0  0  0  0  0  0  0  0  0  0
   48.7706    7.3655   18.6786 C   0  0  0  0  0  0  0  0  0  0  0  0
   49.1895    4.5406   20.8854 N   0  0  0  0  0  0  0  0  0  0  0  0
   47.9957    4.9722   19.0578 N   0  0  0  0  0  0  0  0  0  0  0  0
   48.3239    4.0519   20.0198 C   0  0  0  0  0  0  0  0  0  0  0  0
   47.0415    4.7744   17.9828 C   0  0  0  0  0  0  0  0  0  0  0  0
   51.1657    8.8409   20.9313 O   0  0  0  0  0  0  0  0  0  0  0  0
   48.0866    7.6320   17.6946 O   0  0  0  0  0  0  0  0  0  0  0  0
   47.7103    4.5442   16.6556 C   0  0  0  0  0  0  0  0  0  0  0  0
   48.8971    4.3717   16.4345 O   0  0  0  0  0  0  0  0  0  0  0  0
   51.0264    6.3669   22.2182 C   0  0  0  0  0  0  0  0  0  0  0  0
   49.8356    9.5605   18.6938 C   0  0  0  0  0  0  0  0  0  0  0  0
   46.8200    4.4982   15.6409 O   0  0  0  0  0  0  0  0  0  0  0  0
   50.5823    6.4987   19.1487 N   0  0  0  0  0  0  0  0  0  0  0  0
   47.6500    6.1233   19.4543 N   0  0  0  0  0  0  0  0  0  0  0  0
   49.7628    7.3732   20.0062 C   0  0  0  0  0  0  0  0  0  0  0  0
   48.4881    6.6785   20.5318 C   0  0  0  0  0  0  0  0  0  0  0  0
   49.7438    5.9442   18.0713 C   0  0  0  0  0  0  0  0  0  0  0  0
   48.4695    5.2488   18.5971 C   0  0  0  0  0  0  0  0  0  0  0  0
   50.3843    5.2921   16.0677 H   0  0  0  0  0  0  0  0  0  0  0  0
   46.9334    5.1853   17.3051 H   0  0  0  0  0  0  0  0  0  0  0  0
   48.0524    4.4481   16.1302 H   0  0  0  0  0  0  0  0  0  0  0  0
   52.5522    7.8783   19.4980 H   0  0  0  0  0  0  0  0  0  0  0  0
   51.6833    9.2664   18.7780 H   0  0  0  0  0  0  0  0  0  0  0  0
   51.9290    9.1777   20.5354 H   0  0  0  0  0  0  0  0  0  0  0  0
   47.1239    8.5914   21.8622 H   0  0  0  0  0  0  0  0  0  0  0  0
   46.6949    6.8659   21.9756 H   0  0  0  0  0  0  0  0  0  0  0  0
   48.0899    7.4996   22.8774 H   0  0  0  0  0  0  0  0  0  0  0  0
   48.5876    2.1697   19.1203 H   0  0  0  0  0  0  0  0  0  0  0  0
   47.9078    3.0522   20.0462 H   0  0  0  0  0  0  0  0  0  0  0  0
   46.4299    3.9009   18.2311 H   0  0  0  0  0  0  0  0  0  0  0  0
   46.4019    5.6606   17.9381 H   0  0  0  0  0  0  0  0  0  0  0  0
   51.7690    5.6099   21.9486 H   0  0  0  0  0  0  0  0  0  0  0  0
   50.3471    5.9620   22.9748 H   0  0  0  0  0  0  0  0  0  0  0  0
   51.5445    7.2296   22.6437 H   0  0  0  0  0  0  0  0  0  0  0  0
   49.3964   10.2996   19.3714 H   0  0  0  0  0  0  0  0  0  0  0  0
   50.9016    9.7833   18.5803 H   0  0  0  0  0  0  0  0  0  0  0  0
   49.3538    9.6425   17.7159 H   0  0  0  0  0  0  0  0  0  0  0  0
   47.3732    4.3696   14.8401 H   0  0  0  0  0  0  0  0  0  0  0  0
   50.9066    5.7182   19.7213 H   0  0  0  0  0  0  0  0  0  0  0  0
   47.3253    6.9031   18.8809 H   0  0  0  0  0  0  0  0  0  0  0  0
   49.4902    8.2749   19.4441 H   0  0  0  0  0  0  0  0  0  0  0  0
   50.3719    7.7033   20.8549 H   0  0  0  0  0  0  0  0  0  0  0  0
   47.8927    7.3983   21.1045 H   0  0  0  0  0  0  0  0  0  0  0  0
   48.7619    5.8739   21.2255 H   0  0  0  0  0  0  0  0  0  0  0  0
   49.4697    6.7492   17.3781 H   0  0  0  0  0  0  0  0  0  0  0  0
   50.3387    5.2245   17.4985 H   0  0  0  0  0  0  0  0  0  0  0  0
   48.7421    4.3470   19.1594 H   0  0  0  0  0  0  0  0  0  0  0  0
   47.8608    4.9184   17.7482 H   0  0  0  0  0  0  0  0  0  0  0  0
  2  1  2  0
  3  1  1  0
  4  5  1  0
  5  3  1  0
  6  2  1  0
  7  1  1  0
  8  2  1  0
  9  7  2  0
 10  8  1  0
 11  5  2  0
 12  6  2  0
 13 10  1  0
 14 13  2  0
 15  3  1  0
 16  4  1  0
 17 13  1  0
  6  4  1  0
  8  9  1  0
 19 18  2  0
 20 18  1  0
 21 22  1  0
 22 20  1  0
 23 19  1  0
 24 18  1  0
 25 19  1  0
 26 24  2  0
 27 25  1  0
 28 22  2  0
 29 23  2  0
 30 27  1  0
 31 30  2  0
 32 20  1  0
 33 21  1  0
 34 30  1  0
 23 21  1  0
 25 26  1  0
 36 40  1  0
 37 35  1  0
 38 37  1  0
 39 35  1  0
 40 39  1  0
 38 36  1  0
  9 41  1  0
 10 42  1  0
 10 43  1  0
 15 44  1  0
 15 45  1  0
 15 46  1  0
 16 47  1  0
 16 48  1  0
 16 49  1  0
 17 50  1  0
 26 51  1  0
 27 52  1  0
 27 53  1  0
 32 54  1  0
 32 55  1  0
 32 56  1  0
 33 57  1  0
 33 58  1  0
 33 59  1  0
 34 60  1  0
 35 61  1  0
 36 62  1  0
 37 63  1  0
 37 64  1  0
 38 65  1  0
 38 66  1  0
 39 67  1  0
 39 68  1  0
 40 69  1  0
 40 70  1  0
M  END
> <Uni-Dock RESULT> 
ENERGY=   -3.683  LOWER_BOUND=    2.181  UPPER_BOUND=    2.798
INTER + INTRA:          -3.683
INTER:                  -3.683
INTRA:                   0.000
UNBOUND:                 0.000

$$$$

     RDKit          3D

 70 72  0  0  0  0  0  0  0  0999 V2000
   51.4347    6.2233   17.3517 C   0  0  0  0  0  0  0  0  0  0  0  0
   50.6178    5.4125   18.0791 C   0  0  0  0  0  0  0  0  0  0  0  0
   52.7471    6.4306   17.7012 N   0  0  0  0  0  0  0  0  0  0  0  0
   52.3924    4.9390   19.5413 N   0  0  0  0  0  0  0  0  0  0  0  0
   53.2601    5.7982   18.8348 C   0  0  0  0  0  0  0  0  0  0  0  0
   51.0477    4.7128   19.2381 C   0  0  0  0  0  0  0  0  0  0  0  0
   50.7877    6.7750   16.2881 N   0  0  0  0  0  0  0  0  0  0  0  0
   49.4118    5.4548   17.4368 N   0  0  0  0  0  0  0  0  0  0  0  0
   49.5647    6.2885   16.3581 C   0  0  0  0  0  0  0  0  0  0  0  0
   48.1760    4.8044   17.8373 C   0  0  0  0  0  0  0  0  0  0  0  0
   54.4212    5.9793   19.2136 O   0  0  0  0  0  0  0  0  0  0  0  0
   50.2959    3.9955   19.8908 O   0  0  0  0  0  0  0  0  0  0  0  0
   48.1123    3.3334   17.5307 C   0  0  0  0  0  0  0  0  0  0  0  0
   47.2185    2.5846   17.9000 O   0  0  0  0  0  0  0  0  0  0  0  0
   53.5766    7.3276   16.9174 C   0  0  0  0  0  0  0  0  0  0  0  0
   52.9465    4.2831   20.7094 C   0  0  0  0  0  0  0  0  0  0  0  0
   49.0966    2.8568   16.7470 O   0  0  0  0  0  0  0  0  0  0  0  0
   51.9122    4.1711   17.9014 C   0  0  0  0  0  0  0  0  0  0  0  0
   50.8485    4.8942   18.3474 C   0  0  0  0  0  0  0  0  0  0  0  0
   53.1531    4.7365   17.7346 N   0  0  0  0  0  0  0  0  0  0  0  0
   52.1937    6.8162   18.4358 N   0  0  0  0  0  0  0  0  0  0  0  0
   53.3254    6.0961   17.9993 C   0  0  0  0  0  0  0  0  0  0  0  0
   50.9249    6.2774   18.6629 C   0  0  0  0  0  0  0  0  0  0  0  0
   51.5814    2.8705   17.6693 N   0  0  0  0  0  0  0  0  0  0  0  0
   49.8083    4.0084   18.3855 N   0  0  0  0  0  0  0  0  0  0  0  0
   50.2984    2.7994   17.9633 C   0  0  0  0  0  0  0  0  0  0  0  0
   48.4504    4.2681   18.8256 C   0  0  0  0  0  0  0  0  0  0  0  0
   54.4191    6.6532   17.8645 O   0  0  0  0  0  0  0  0  0  0  0  0
   49.9661    6.9080   19.0988 O   0  0  0  0  0  0  0  0  0  0  0  0
   47.6409    5.0004   17.7912 C   0  0  0  0  0  0  0  0  0  0  0  0
   47.9485    5.2503   16.6379 O   0  0  0  0  0  0  0  0  0  0  0  0
   54.2615    3.9333   17.2531 C   0  0  0  0  0  0  0  0  0  0  0  0
   52.3934    8.2252   18.7120 C   0  0  0  0  0  0  0  0  0  0  0  0
   46.4255    5.3583   18.2592 O   0  0  0  0  0  0  0  0  0  0  0  0
   51.7518    5.7171   16.8583 N   0  0  0  0  0  0  0  0  0  0  0  0
   50.4557    4.6088   19.2922 N   0  0  0  0  0  0  0  0  0  0  0  0
   52.4117    5.7303   18.1757 C   0  0  0  0  0  0  0  0  0  0  0  0
   51.9178    4.6035   19.1084 C   0  0  0  0  0  0  0  0  0  0  0  0
   50.2898    5.7228   17.0427 C   0  0  0  0  0  0  0  0  0  0  0  0
   49.7959    4.5953   17.9748 C   0  0  0  0  0  0  0  0  0  0  0  0
   48.7624    6.5087   15.6646 H   0  0  0  0  0  0  0  0  0  0  0  0
   48.0587    4.9598   18.9137 H   0  0  0  0  0  0  0  0  0  0  0  0
   47.3542    5.3031   17.3131 H   0  0  0  0  0  0  0  0  0  0  0  0
   53.5422    7.0269   15.8658 H   0  0  0  0  0  0  0  0  0  0  0  0
   53.1908    8.3462   17.0217 H   0  0  0  0  0  0  0  0  0  0  0  0
   54.6179    7.3127   17.2495 H   0  0  0  0  0  0  0  0  0  0  0  0
   53.1418    5.0412   21.4749 H   0  0  0  0  0  0  0  0  0  0  0  0
   52.2741    3.5261   21.1202 H   0  0  0  0  0  0  0  0  0  0  0  0
   53.8951    3.8050   20.4453 H   0  0  0  0  0  0  0  0  0  0  0  0
   48.9062    1.8977   16.6710 H   0  0  0  0  0  0  0  0  0  0  0  0
   49.6875    1.9080   17.8909 H   0  0  0  0  0  0  0  0  0  0  0  0
   47.9740    3.3050   19.0362 H   0  0  0  0  0  0  0  0  0  0  0  0
   48.5056    4.8518   19.7490 H   0  0  0  0  0  0  0  0  0  0  0  0
   54.0692    3.6554   16.2125 H   0  0  0  0  0  0  0  0  0  0  0  0
   54.3496    3.0297   17.8644 H   0  0  0  0  0  0  0  0  0  0  0  0
   55.2077    4.4776   17.3010 H   0  0  0  0  0  0  0  0  0  0  0  0
   53.0330    8.3188   19.5955 H   0  0  0  0  0  0  0  0  0  0  0  0
   52.9004    8.6974   17.8643 H   0  0  0  0  0  0  0  0  0  0  0  0
   51.4527    8.7511   18.8956 H   0  0  0  0  0  0  0  0  0  0  0  0
   46.0112    5.8407   17.5111 H   0  0  0  0  0  0  0  0  0  0  0  0
   52.0018    4.8425   16.3948 H   0  0  0  0  0  0  0  0  0  0  0  0
   50.2046    5.4832   19.7556 H   0  0  0  0  0  0  0  0  0  0  0  0
   52.2469    6.7054   18.6507 H   0  0  0  0  0  0  0  0  0  0  0  0
   53.4927    5.6309   18.0279 H   0  0  0  0  0  0  0  0  0  0  0  0
   52.3956    4.7087   20.0888 H   0  0  0  0  0  0  0  0  0  0  0  0
   52.2269    3.6289   18.7106 H   0  0  0  0  0  0  0  0  0  0  0  0
   49.9812    6.6973   17.4411 H   0  0  0  0  0  0  0  0  0  0  0  0
   49.8119    5.6177   16.0627 H   0  0  0  0  0  0  0  0  0  0  0  0
   49.9609    3.6201   17.4999 H   0  0  0  0  0  0  0  0  0  0  0  0
   48.7148    4.6948   18.1221 H   0  0  0  0  0  0  0  0  0  0  0  0
  2  1  2  0
  3  1  1  0
  4  5  1  0
  5  3  1  0
  6  2  1  0
  7  1  1  0
  8  2  1  0
  9  7  2  0
 10  8  1  0
 11  5  2  0
 12  6  2  0
 13 10  1  0
 14 13  2  0
 15  3  1  0
 16  4  1  0
 17 13  1  0
  6  4  1  0
  8  9  1  0
 19 18  2  0
 20 18  1  0
 21 22  1  0
 22 20  1  0
 23 19  1  0
 24 18  1  0
 25 19  1  0
 26 24  2  0
 27 25  1  0
 28 22  2  0
 29 23  2  0
 30 27  1  0
 31 30  2  0
 32 20  1  0
 33 21  1  0
 34 30  1  0
 23 21  1  0
 25 26  1  0
 36 40  1  0
 37 35  1  0
 38 37  1  0
 39 35  1  0
 40 39  1  0
 38 36  1  0
  9 41  1  0
 10 42  1  0
 10 43  1  0
 15 44  1  0
 15 45  1  0
 15 46  1  0
 16 47  1  0
 16 48  1  0
 16 49  1  0
 17 50  1  0
 26 51  1  0
 27 52  1  0
 27 53  1  0
 32 54  1  0
 32 55  1  0
 32 56  1  0
 33 57  1  0
 33 58  1  0
 33 59  1  0
 34 60  1  0
 35 61  1  0
 36 62  1  0
 37 63  1  0
 37 64  1  0
 38 65  1  0
 38 66  1  0
 39 67  1  0
 39 68  1  0
 40 69  1  0
 40 70  1  0
M  END
> <Uni-Dock RESULT> 
ENERGY=   -3.678  LOWER_BOUND=    1.440  UPPER_BOUND=    2.672
INTER + INTRA:          -3.678
INTER:                  -3.678
INTRA:                   0.000
UNBOUND:                 0.000

$$$$

     RDKit          3D

 70 72  0  0  0  0  0  0  0  0999 V2000
   52.2691    3.8697   18.4861 C   0  0  0  0  0  0  0  0  0  0  0  0
   51.1867    4.6951   18.4540 C   0  0  0  0  0  0  0  0  0  0  0  0
   53.4388    4.2330   19.1084 N   0  0  0  0  0  0  0  0  0  0  0  0
   52.3721    6.2949   19.6977 N   0  0  0  0  0  0  0  0  0  0  0  0
   53.5259    5.4835   19.7223 C   0  0  0  0  0  0  0  0  0  0  0  0
   51.1694    5.9791   19.0612 C   0  0  0  0  0  0  0  0  0  0  0  0
   52.0335    2.6966   17.8359 N   0  0  0  0  0  0  0  0  0  0  0  0
   50.2330    4.0035   17.7606 N   0  0  0  0  0  0  0  0  0  0  0  0
   50.7902    2.7998   17.4106 C   0  0  0  0  0  0  0  0  0  0  0  0
   48.9032    4.4605   17.3953 C   0  0  0  0  0  0  0  0  0  0  0  0
   54.5650    5.8738   20.2630 O   0  0  0  0  0  0  0  0  0  0  0  0
   50.1903    6.7171   19.0128 O   0  0  0  0  0  0  0  0  0  0  0  0
   47.8969    4.4222   18.5124 C   0  0  0  0  0  0  0  0  0  0  0  0
   46.7653    4.8812   18.4444 O   0  0  0  0  0  0  0  0  0  0  0  0
   54.5807    3.3371   19.0930 C   0  0  0  0  0  0  0  0  0  0  0  0
   52.4787    7.5854   20.3497 C   0  0  0  0  0  0  0  0  0  0  0  0
   48.2876    3.7813   19.6289 O   0  0  0  0  0  0  0  0  0  0  0  0
   51.3813    4.8013   20.2426 C   0  0  0  0  0  0  0  0  0  0  0  0
   51.0578    5.0624   18.9463 C   0  0  0  0  0  0  0  0  0  0  0  0
   52.6804    4.5896   20.6361 N   0  0  0  0  0  0  0  0  0  0  0  0
   53.3178    4.8609   18.3432 N   0  0  0  0  0  0  0  0  0  0  0  0
   53.6962    4.6116   19.6790 C   0  0  0  0  0  0  0  0  0  0  0  0
   52.0190    5.1259   17.9019 C   0  0  0  0  0  0  0  0  0  0  0  0
   50.2836    4.7937   21.0488 N   0  0  0  0  0  0  0  0  0  0  0  0
   49.6996    5.2143   18.9432 N   0  0  0  0  0  0  0  0  0  0  0  0
   49.2758    5.0393   20.2354 C   0  0  0  0  0  0  0  0  0  0  0  0
   48.8557    5.5405   17.8089 C   0  0  0  0  0  0  0  0  0  0  0  0
   54.8794    4.4264   19.9796 O   0  0  0  0  0  0  0  0  0  0  0  0
   51.7169    5.3983   16.7437 O   0  0  0  0  0  0  0  0  0  0  0  0
   48.6119    4.3564   16.9144 C   0  0  0  0  0  0  0  0  0  0  0  0
   48.9121    3.1915   17.1148 O   0  0  0  0  0  0  0  0  0  0  0  0
   52.9845    4.3100   22.0271 C   0  0  0  0  0  0  0  0  0  0  0  0
   54.3869    4.8865   17.3645 C   0  0  0  0  0  0  0  0  0  0  0  0
   47.9422    4.6985   15.7924 O   0  0  0  0  0  0  0  0  0  0  0  0
   52.1517    3.4901   19.1512 N   0  0  0  0  0  0  0  0  0  0  0  0
   50.6526    6.0252   18.7531 N   0  0  0  0  0  0  0  0  0  0  0  0
   52.7761    4.8111   19.3424 C   0  0  0  0  0  0  0  0  0  0  0  0
   51.7588    5.9094   19.7198 C   0  0  0  0  0  0  0  0  0  0  0  0
   51.0458    3.6064   18.1843 C   0  0  0  0  0  0  0  0  0  0  0  0
   50.0282    4.7042   18.5623 C   0  0  0  0  0  0  0  0  0  0  0  0
   50.2555    2.0435   16.8491 H   0  0  0  0  0  0  0  0  0  0  0  0
   48.9999    5.4850   17.0241 H   0  0  0  0  0  0  0  0  0  0  0  0
   48.5439    3.8195   16.5837 H   0  0  0  0  0  0  0  0  0  0  0  0
   54.2773    2.3567   19.4726 H   0  0  0  0  0  0  0  0  0  0  0  0
   54.9379    3.2387   18.0635 H   0  0  0  0  0  0  0  0  0  0  0  0
   55.3996    3.7116   19.7127 H   0  0  0  0  0  0  0  0  0  0  0  0
   53.1723    8.2092   19.7763 H   0  0  0  0  0  0  0  0  0  0  0  0
   51.5157    8.0964   20.4220 H   0  0  0  0  0  0  0  0  0  0  0  0
   52.8839    7.4537   21.3580 H   0  0  0  0  0  0  0  0  0  0  0  0
   47.5272    3.8716   20.2417 H   0  0  0  0  0  0  0  0  0  0  0  0
   48.2351    5.1025   20.5286 H   0  0  0  0  0  0  0  0  0  0  0  0
   47.8964    5.9005   18.1946 H   0  0  0  0  0  0  0  0  0  0  0  0
   49.3440    6.3448   17.2511 H   0  0  0  0  0  0  0  0  0  0  0  0
   52.5749    3.3293   22.2870 H   0  0  0  0  0  0  0  0  0  0  0  0
   52.5300    5.0777   22.6610 H   0  0  0  0  0  0  0  0  0  0  0  0
   54.0612    4.3001   22.2128 H   0  0  0  0  0  0  0  0  0  0  0  0
   55.0108    5.7657   17.5546 H   0  0  0  0  0  0  0  0  0  0  0  0
   55.0064    3.9905   17.4738 H   0  0  0  0  0  0  0  0  0  0  0  0
   54.0116    4.9308   16.3387 H   0  0  0  0  0  0  0  0  0  0  0  0
   47.8677    3.8581   15.2902 H   0  0  0  0  0  0  0  0  0  0  0  0
   51.7517    3.2036   20.0458 H   0  0  0  0  0  0  0  0  0  0  0  0
   51.0515    6.3115   17.8580 H   0  0  0  0  0  0  0  0  0  0  0  0
   53.3061    5.0944   18.4246 H   0  0  0  0  0  0  0  0  0  0  0  0
   53.5324    4.7311   20.1309 H   0  0  0  0  0  0  0  0  0  0  0  0
   52.2736    6.8746   19.7817 H   0  0  0  0  0  0  0  0  0  0  0  0
   51.3464    5.7081   20.7162 H   0  0  0  0  0  0  0  0  0  0  0  0
   51.4586    3.8082   17.1881 H   0  0  0  0  0  0  0  0  0  0  0  0
   50.5309    2.6415   18.1220 H   0  0  0  0  0  0  0  0  0  0  0  0
   49.4981    4.4210   19.4802 H   0  0  0  0  0  0  0  0  0  0  0  0
   49.2717    4.7838   17.7737 H   0  0  0  0  0  0  0  0  0  0  0  0
  2  1  2  0
  3  1  1  0
  4  5  1  0
  5  3  1  0
  6  2  1  0
  7  1  1  0
  8  2  1  0
  9  7  2  0
 10  8  1  0
 11  5  2  0
 12  6  2  0
 13 10  1  0
 14 13  2  0
 15  3  1  0
 16  4  1  0
 17 13  1  0
  6  4  1  0
  8  9  1  0
 19 18  2  0
 20 18  1  0
 21 22  1  0
 22 20  1  0
 23 19  1  0
 24 18  1  0
 25 19  1  0
 26 24  2  0
 27 25  1  0
 28 22  2  0
 29 23  2  0
 30 27  1  0
 31 30  2  0
 32 20  1  0
 33 21  1  0
 34 30  1  0
 23 21  1  0
 25 26  1  0
 36 40  1  0
 37 35  1  0
 38 37  1  0
 39 35  1  0
 40 39  1  0
 38 36  1  0
  9 41  1  0
 10 42  1  0
 10 43  1  0
 15 44  1  0
 15 45  1  0
 15 46  1  0
 16 47  1  0
 16 48  1  0
 16 49  1  0
 17 50  1  0
 26 51  1  0
 27 52  1  0
 27 53  1  0
 32 54  1  0
 32 55  1  0
 32 56  1  0
 33 57  1  0
 33 58  1  0
 33 59  1  0
 34 60  1  0
 35 61  1  0
 36 62  1  0
 37 63  1  0
 37 64  1  0
 38 65  1  0
 38 66  1  0
 39 67  1  0
 39 68  1  0
 40 69  1  0
 40 70  1  0
M  END
> <Uni-Dock RESULT> 
ENERGY=   -3.668  LOWER_BOUND=    1.099  UPPER_BOUND=    1.266
INTER + INTRA:          -3.668
INTER:                  -3.668
INTRA:                   0.000
UNBOUND:                 0.000

$$$$

     RDKit          3D

 70 72  0  0  0  0  0  0  0  0999 V2000
   48.4595    8.4568   17.8923 C   0  0  0  0  0  0  0  0  0  0  0  0
   48.9396    7.1882   17.7748 C   0  0  0  0  0  0  0  0  0  0  0  0
   48.9549    9.4915   17.1362 N   0  0  0  0  0  0  0  0  0  0  0  0
   50.4273    7.9074   16.1072 N   0  0  0  0  0  0  0  0  0  0  0  0
   49.9815    9.2407   16.2245 C   0  0  0  0  0  0  0  0  0  0  0  0
   49.9707    6.8276   16.8668 C   0  0  0  0  0  0  0  0  0  0  0  0
   47.4737    8.5430   18.8277 N   0  0  0  0  0  0  0  0  0  0  0  0
   48.2166    6.4504   18.6702 N   0  0  0  0  0  0  0  0  0  0  0  0
   47.3407    7.3122   19.2802 C   0  0  0  0  0  0  0  0  0  0  0  0
   48.3731    5.0398   18.9807 C   0  0  0  0  0  0  0  0  0  0  0  0
   50.4873   10.1410   15.5477 O   0  0  0  0  0  0  0  0  0  0  0  0
   50.4020    5.6820   16.7815 O   0  0  0  0  0  0  0  0  0  0  0  0
   47.7783    4.1034   17.9651 C   0  0  0  0  0  0  0  0  0  0  0  0
   47.9142    2.8880   17.9770 O   0  0  0  0  0  0  0  0  0  0  0  0
   48.4377   10.8361   17.3140 C   0  0  0  0  0  0  0  0  0  0  0  0
   51.4867    7.6649   15.1476 C   0  0  0  0  0  0  0  0  0  0  0  0
   47.0039    4.6759   17.0256 O   0  0  0  0  0  0  0  0  0  0  0  0
   48.6331    7.3777   16.0090 C   0  0  0  0  0  0  0  0  0  0  0  0
   49.1194    6.9716   17.2139 C   0  0  0  0  0  0  0  0  0  0  0  0
   48.6887    8.6915   15.6114 N   0  0  0  0  0  0  0  0  0  0  0  0
   49.7005    9.1881   17.7249 N   0  0  0  0  0  0  0  0  0  0  0  0
   49.2299    9.6445   16.4758 C   0  0  0  0  0  0  0  0  0  0  0  0
   49.7067    7.8591   18.1553 C   0  0  0  0  0  0  0  0  0  0  0  0
   48.1216    6.3394   15.2911 N   0  0  0  0  0  0  0  0  0  0  0  0
   48.8923    5.6244   17.2524 N   0  0  0  0  0  0  0  0  0  0  0  0
   48.2840    5.2887   16.0703 C   0  0  0  0  0  0  0  0  0  0  0  0
   49.2562    4.7032   18.3125 C   0  0  0  0  0  0  0  0  0  0  0  0
   49.3024   10.8380   16.1676 O   0  0  0  0  0  0  0  0  0  0  0  0
   50.1739    7.4728   19.2228 O   0  0  0  0  0  0  0  0  0  0  0  0
   48.3205    4.7801   19.4873 C   0  0  0  0  0  0  0  0  0  0  0  0
   47.2699    5.3940   19.5696 O   0  0  0  0  0  0  0  0  0  0  0  0
   48.1558    9.0858   14.3206 C   0  0  0  0  0  0  0  0  0  0  0  0
   50.2651   10.1909   18.6064 C   0  0  0  0  0  0  0  0  0  0  0  0
   48.7432    4.0221   20.5222 O   0  0  0  0  0  0  0  0  0  0  0  0
   47.9052    8.4608   17.3509 N   0  0  0  0  0  0  0  0  0  0  0  0
   49.9520    6.3127   17.1810 N   0  0  0  0  0  0  0  0  0  0  0  0
   49.2514    8.6992   16.8010 C   0  0  0  0  0  0  0  0  0  0  0  0
   49.8975    7.4250   16.2158 C   0  0  0  0  0  0  0  0  0  0  0  0
   47.9604    7.3487   18.3163 C   0  0  0  0  0  0  0  0  0  0  0  0
   48.6058    6.0743   17.7307 C   0  0  0  0  0  0  0  0  0  0  0  0
   46.6377    6.9974   20.0416 H   0  0  0  0  0  0  0  0  0  0  0  0
   49.4448    4.8431   19.0771 H   0  0  0  0  0  0  0  0  0  0  0  0
   47.8885    4.8573   19.9454 H   0  0  0  0  0  0  0  0  0  0  0  0
   47.3485   10.8222   17.2095 H   0  0  0  0  0  0  0  0  0  0  0  0
   48.7070   11.1882   18.3144 H   0  0  0  0  0  0  0  0  0  0  0  0
   48.8489   11.5306   16.5767 H   0  0  0  0  0  0  0  0  0  0  0  0
   52.4005    8.1488   15.5077 H   0  0  0  0  0  0  0  0  0  0  0  0
   51.6807    6.5996   15.0017 H   0  0  0  0  0  0  0  0  0  0  0  0
   51.2163    8.1086   14.1841 H   0  0  0  0  0  0  0  0  0  0  0  0
   46.7243    3.9312   16.4518 H   0  0  0  0  0  0  0  0  0  0  0  0
   47.9851    4.2763   15.8274 H   0  0  0  0  0  0  0  0  0  0  0  0
   49.2310    3.6888   17.9014 H   0  0  0  0  0  0  0  0  0  0  0  0
   50.2778    4.9402   18.6235 H   0  0  0  0  0  0  0  0  0  0  0  0
   47.0681    8.9678   14.3376 H   0  0  0  0  0  0  0  0  0  0  0  0
   48.5823    8.4482   13.5399 H   0  0  0  0  0  0  0  0  0  0  0  0
   48.3914   10.1265   14.0853 H   0  0  0  0  0  0  0  0  0  0  0  0
   51.2015   10.5509   18.1683 H   0  0  0  0  0  0  0  0  0  0  0  0
   49.5740   11.0357   18.6920 H   0  0  0  0  0  0  0  0  0  0  0  0
   50.4669    9.7997   19.6071 H   0  0  0  0  0  0  0  0  0  0  0  0
   48.0719    4.1737   21.2225 H   0  0  0  0  0  0  0  0  0  0  0  0
   47.3018    8.1716   16.5799 H   0  0  0  0  0  0  0  0  0  0  0  0
   50.5552    6.6010   17.9527 H   0  0  0  0  0  0  0  0  0  0  0  0
   49.8931    9.1139   17.5882 H   0  0  0  0  0  0  0  0  0  0  0  0
   49.1806    9.4621   16.0180 H   0  0  0  0  0  0  0  0  0  0  0  0
   50.9170    7.6541   15.8860 H   0  0  0  0  0  0  0  0  0  0  0  0
   49.3437    7.1020   15.3256 H   0  0  0  0  0  0  0  0  0  0  0  0
   48.5148    7.6719   19.2061 H   0  0  0  0  0  0  0  0  0  0  0  0
   46.9413    7.1195   18.6464 H   0  0  0  0  0  0  0  0  0  0  0  0
   47.9641    5.6596   16.9433 H   0  0  0  0  0  0  0  0  0  0  0  0
   48.6761    5.3113   18.5138 H   0  0  0  0  0  0  0  0  0  0  0  0
  2  1  2  0
  3  1  1  0
  4  5  1  0
  5  3  1  0
  6  2  1  0
  7  1  1  0
  8  2  1  0
  9  7  2  0
 10  8  1  0
 11  5  2  0
 12  6  2  0
 13 10  1  0
 14 13  2  0
 15  3  1  0
 16  4  1  0
 17 13  1  0
  6  4  1  0
  8  9  1  0
 19 18  2  0
 20 18  1  0
 21 22  1  0
 22 20  1  0
 23 19  1  0
 24 18  1  0
 25 19  1  0
 26 24  2  0
 27 25  1  0
 28 22  2  0
 29 23  2  0
 30 27  1  0
 31 30  2  0
 32 20  1  0
 33 21  1  0
 34 30  1  0
 23 21  1  0
 25 26  1  0
 36 40  1  0
 37 35  1  0
 38 37  1  0
 39 35  1  0
 40 39  1  0
 38 36  1  0
  9 41  1  0
 10 42  1  0
 10 43  1  0
 15 44  1  0
 15 45  1  0
 15 46  1  0
 16 47  1  0
 16 48  1  0
 16 49  1  0
 17 50  1  0
 26 51  1  0
 27 52  1  0
 27 53  1  0
 32 54  1  0
 32 55  1  0
 32 56  1  0
 33 57  1  0
 33 58  1  0
 33 59  1  0
 34 60  1  0
 35 61  1  0
 36 62  1  0
 37 63  1  0
 37 64  1  0
 38 65  1  0
 38 66  1  0
 39 67  1  0
 39 68  1  0
 40 69  1  0
 40 70  1  0
M  END
> <Uni-Dock RESULT> 
ENERGY=   -3.618  LOWER_BOUND=    2.998  UPPER_BOUND=    4.902
INTER + INTRA:          -3.618
INTER:                  -3.618
INTRA:                   0.000
UNBOUND:                 0.000

$$$$

     RDKit          3D

 70 72  0  0  0  0  0  0  0  0999 V2000
   45.8652   12.5464    8.9949 C   0  0  0  0  0  0  0  0  0  0  0  0
   44.8717   12.3932    9.9133 C   0  0  0  0  0  0  0  0  0  0  0  0
   47.0645   13.1344    9.3165 N   0  0  0  0  0  0  0  0  0  0  0  0
   46.2335   13.3841   11.5490 N   0  0  0  0  0  0  0  0  0  0  0  0
   47.2730   13.5928   10.6183 C   0  0  0  0  0  0  0  0  0  0  0  0
   44.9912   12.8116   11.2655 C   0  0  0  0  0  0  0  0  0  0  0  0
   45.5073   12.0631    7.7731 N   0  0  0  0  0  0  0  0  0  0  0  0
   43.8537   11.7813    9.2367 N   0  0  0  0  0  0  0  0  0  0  0  0
   44.2860   11.5991    7.9475 C   0  0  0  0  0  0  0  0  0  0  0  0
   42.5362   11.4406    9.7454 C   0  0  0  0  0  0  0  0  0  0  0  0
   48.3175   14.1613   10.9503 O   0  0  0  0  0  0  0  0  0  0  0  0
   44.0819   12.6784   12.0786 O   0  0  0  0  0  0  0  0  0  0  0  0
   42.4952   10.2093   10.6081 C   0  0  0  0  0  0  0  0  0  0  0  0
   41.5138    9.8302   11.2319 O   0  0  0  0  0  0  0  0  0  0  0  0
   48.0864   13.3077    8.3004 C   0  0  0  0  0  0  0  0  0  0  0  0
   46.4728   13.8573   12.8982 C   0  0  0  0  0  0  0  0  0  0  0  0
   43.6192    9.4702   10.6253 O   0  0  0  0  0  0  0  0  0  0  0  0
   46.1272   11.6139   10.9451 C   0  0  0  0  0  0  0  0  0  0  0  0
   45.0143   12.2670   10.5112 C   0  0  0  0  0  0  0  0  0  0  0  0
   47.3914   12.0651   10.6528 N   0  0  0  0  0  0  0  0  0  0  0  0
   46.3672   13.8408    9.4138 N   0  0  0  0  0  0  0  0  0  0  0  0
   47.5440   13.2067    9.8643 C   0  0  0  0  0  0  0  0  0  0  0  0
   45.0626   13.4467    9.7210 C   0  0  0  0  0  0  0  0  0  0  0  0
   45.8151   10.5122   11.6824 N   0  0  0  0  0  0  0  0  0  0  0  0
   43.9641   11.5354   10.9906 N   0  0  0  0  0  0  0  0  0  0  0  0
   44.4973   10.4826   11.6888 C   0  0  0  0  0  0  0  0  0  0  0  0
   42.5506   11.8246   10.8372 C   0  0  0  0  0  0  0  0  0  0  0  0
   48.6575   13.6531    9.5718 O   0  0  0  0  0  0  0  0  0  0  0  0
   44.0507   14.0453    9.3676 O   0  0  0  0  0  0  0  0  0  0  0  0
   42.0343   11.4609    9.4723 C   0  0  0  0  0  0  0  0  0  0  0  0
   42.6140   10.8506    8.5899 O   0  0  0  0  0  0  0  0  0  0  0  0
   48.5533   11.3387   11.1303 C   0  0  0  0  0  0  0  0  0  0  0  0
   46.5454   15.0283    8.6017 C   0  0  0  0  0  0  0  0  0  0  0  0
   40.7561   11.8584    9.2918 O   0  0  0  0  0  0  0  0  0  0  0  0
   46.2718   11.8954    9.1002 N   0  0  0  0  0  0  0  0  0  0  0  0
   44.3999   12.6910   11.2670 N   0  0  0  0  0  0  0  0  0  0  0  0
   46.6023   12.9473   10.0777 C   0  0  0  0  0  0  0  0  0  0  0  0
   45.8630   12.7743   11.4220 C   0  0  0  0  0  0  0  0  0  0  0  0
   44.8087   11.8128    8.9453 C   0  0  0  0  0  0  0  0  0  0  0  0
   44.0696   11.6389   10.2896 C   0  0  0  0  0  0  0  0  0  0  0  0
   43.6783   11.1320    7.1822 H   0  0  0  0  0  0  0  0  0  0  0  0
   42.1737   12.3003   10.3163 H   0  0  0  0  0  0  0  0  0  0  0  0
   41.8794   11.2817    8.8840 H   0  0  0  0  0  0  0  0  0  0  0  0
   48.2907   12.3441    7.8238 H   0  0  0  0  0  0  0  0  0  0  0  0
   47.7229   14.0186    7.5523 H   0  0  0  0  0  0  0  0  0  0  0  0
   49.0188   13.6913    8.7228 H   0  0  0  0  0  0  0  0  0  0  0  0
   46.5084   14.9516   12.8825 H   0  0  0  0  0  0  0  0  0  0  0  0
   45.6964   13.5356   13.5964 H   0  0  0  0  0  0  0  0  0  0  0  0
   47.4396   13.4843   13.2508 H   0  0  0  0  0  0  0  0  0  0  0  0
   43.4187    8.7339   11.2415 H   0  0  0  0  0  0  0  0  0  0  0  0
   43.8898    9.7321   12.1797 H   0  0  0  0  0  0  0  0  0  0  0  0
   42.0046   11.2483   11.5911 H   0  0  0  0  0  0  0  0  0  0  0  0
   42.4068   12.8923   11.0266 H   0  0  0  0  0  0  0  0  0  0  0  0
   48.6024   10.3748   10.6148 H   0  0  0  0  0  0  0  0  0  0  0  0
   48.4629   11.1745   12.2086 H   0  0  0  0  0  0  0  0  0  0  0  0
   49.4800   11.8853   10.9395 H   0  0  0  0  0  0  0  0  0  0  0  0
   46.9613   15.8209    9.2320 H   0  0  0  0  0  0  0  0  0  0  0  0
   47.2544   14.8182    7.7944 H   0  0  0  0  0  0  0  0  0  0  0  0
   45.6070   15.3774    8.1628 H   0  0  0  0  0  0  0  0  0  0  0  0
   40.5473   11.5888    8.3711 H   0  0  0  0  0  0  0  0  0  0  0  0
   46.5933   11.0049    9.4821 H   0  0  0  0  0  0  0  0  0  0  0  0
   44.0773   13.5811   10.8849 H   0  0  0  0  0  0  0  0  0  0  0  0
   46.3643   13.9272    9.6457 H   0  0  0  0  0  0  0  0  0  0  0  0
   47.6834   12.9353   10.2544 H   0  0  0  0  0  0  0  0  0  0  0  0
   46.0992   13.6201   12.0773 H   0  0  0  0  0  0  0  0  0  0  0  0
   46.2228   11.8716   11.9311 H   0  0  0  0  0  0  0  0  0  0  0  0
   44.4492   12.7159    8.4367 H   0  0  0  0  0  0  0  0  0  0  0  0
   44.5722   10.9673    8.2902 H   0  0  0  0  0  0  0  0  0  0  0  0
   44.3077   10.6590   10.7218 H   0  0  0  0  0  0  0  0  0  0  0  0
   42.9884   11.6506   10.1126 H   0  0  0  0  0  0  0  0  0  0  0  0
  2  1  2  0
  3  1  1  0
  4  5  1  0
  5  3  1  0
  6  2  1  0
  7  1  1  0
  8  2  1  0
  9  7  2  0
 10  8  1  0
 11  5  2  0
 12  6  2  0
 13 10  1  0
 14 13  2  0
 15  3  1  0
 16  4  1  0
 17 13  1  0
  6  4  1  0
  8  9  1  0
 19 18  2  0
 20 18  1  0
 21 22  1  0
 22 20  1  0
 23 19  1  0
 24 18  1  0
 25 19  1  0
 26 24  2  0
 27 25  1  0
 28 22  2  0
 29 23  2  0
 30 27  1  0
 31 30  2  0
 32 20  1  0
 33 21  1  0
 34 30  1  0
 23 21  1  0
 25 26  1  0
 36 40  1  0
 37 35  1  0
 38 37  1  0
 39 35  1  0
 40 39  1  0
 38 36  1  0
  9 41  1  0
 10 42  1  0
 10 43  1  0
 15 44  1  0
 15 45  1  0
 15 46  1  0
 16 47  1  0
 16 48  1  0
 16 49  1  0
 17 50  1  0
 26 51  1  0
 27 52  1  0
 27 53  1  0
 32 54  1  0
 32 55  1  0
 32 56  1  0
 33 57  1  0
 33 58  1  0
 33 59  1  0
 34 60  1  0
 35 61  1  0
 36 62  1  0
 37 63  1  0
 37 64  1  0
 38 65  1  0
 38 66  1  0
 39 67  1  0
 39 68  1  0
 40 69  1  0
 40 70  1  0
M  END
> <Uni-Dock RESULT> 
ENERGY=   -3.436  LOWER_BOUND=   11.333  UPPER_BOUND=   12.738
INTER + INTRA:          -3.436
INTER:                  -3.436
INTRA:                   0.000
UNBOUND:                 0.000

$$$$

     RDKit          3D

 70 72  0  0  0  0  0  0  0  0999 V2000
   49.8511   11.0410   17.5571 C   0  0  0  0  0  0  0  0  0  0  0  0
   48.7005   11.6806   17.9047 C   0  0  0  0  0  0  0  0  0  0  0  0
   50.4977   11.3054   16.3741 N   0  0  0  0  0  0  0  0  0  0  0  0
   48.7881   12.9178   15.9114 N   0  0  0  0  0  0  0  0  0  0  0  0
   49.9616   12.2519   15.4995 C   0  0  0  0  0  0  0  0  0  0  0  0
   48.0842   12.6694   17.0921 C   0  0  0  0  0  0  0  0  0  0  0  0
   50.2389   10.1418   18.5033 N   0  0  0  0  0  0  0  0  0  0  0  0
   48.3607   11.1632   19.1235 N   0  0  0  0  0  0  0  0  0  0  0  0
   49.3224   10.2395   19.4455 C   0  0  0  0  0  0  0  0  0  0  0  0
   47.1800   11.4684   19.9130 C   0  0  0  0  0  0  0  0  0  0  0  0
   50.4824   12.5002   14.4079 O   0  0  0  0  0  0  0  0  0  0  0  0
   47.0399   13.2280   17.4132 O   0  0  0  0  0  0  0  0  0  0  0  0
   47.2425   12.7735   20.6580 C   0  0  0  0  0  0  0  0  0  0  0  0
   46.3076   13.2690   21.2715 O   0  0  0  0  0  0  0  0  0  0  0  0
   51.7051   10.5790   16.0258 C   0  0  0  0  0  0  0  0  0  0  0  0
   48.2524   13.9048   14.9945 C   0  0  0  0  0  0  0  0  0  0  0  0
   48.4430   13.3807   20.6730 O   0  0  0  0  0  0  0  0  0  0  0  0
   49.6041   13.2044   17.5732 C   0  0  0  0  0  0  0  0  0  0  0  0
   48.6175   12.2830   17.7496 C   0  0  0  0  0  0  0  0  0  0  0  0
   50.6099   13.0213   16.6556 N   0  0  0  0  0  0  0  0  0  0  0  0
   49.6167   10.9054   16.1325 N   0  0  0  0  0  0  0  0  0  0  0  0
   50.6424   11.8462   15.9031 C   0  0  0  0  0  0  0  0  0  0  0  0
   48.5499   11.0657   17.0201 C   0  0  0  0  0  0  0  0  0  0  0  0
   49.4454   14.2819   18.3909 N   0  0  0  0  0  0  0  0  0  0  0  0
   47.8155   12.8045   18.7258 N   0  0  0  0  0  0  0  0  0  0  0  0
   48.3580   14.0115   19.0850 C   0  0  0  0  0  0  0  0  0  0  0  0
   46.5970   12.2272   19.2617 C   0  0  0  0  0  0  0  0  0  0  0  0
   51.5248   11.6319   15.0663 O   0  0  0  0  0  0  0  0  0  0  0  0
   47.6341   10.2610   17.1641 O   0  0  0  0  0  0  0  0  0  0  0  0
   46.8684   11.1147   20.2366 C   0  0  0  0  0  0  0  0  0  0  0  0
   47.9420   10.7717   20.7023 O   0  0  0  0  0  0  0  0  0  0  0  0
   51.6462   14.0250   16.4998 C   0  0  0  0  0  0  0  0  0  0  0  0
   49.6632    9.6943   15.3371 C   0  0  0  0  0  0  0  0  0  0  0  0
   45.7337   10.4934   20.6249 O   0  0  0  0  0  0  0  0  0  0  0  0
   50.3860   11.5247   17.8403 N   0  0  0  0  0  0  0  0  0  0  0  0
   47.6364   12.5970   17.4902 N   0  0  0  0  0  0  0  0  0  0  0  0
   49.8666   11.9431   16.5263 C   0  0  0  0  0  0  0  0  0  0  0  0
   48.7579   13.0126   16.6293 C   0  0  0  0  0  0  0  0  0  0  0  0
   49.2641   11.1090   18.7006 C   0  0  0  0  0  0  0  0  0  0  0  0
   48.1559   12.1790   18.8042 C   0  0  0  0  0  0  0  0  0  0  0  0
   49.3071    9.6687   20.3659 H   0  0  0  0  0  0  0  0  0  0  0  0
   46.3241   11.4760   19.2318 H   0  0  0  0  0  0  0  0  0  0  0  0
   47.0499   10.6606   20.6405 H   0  0  0  0  0  0  0  0  0  0  0  0
   52.4286   10.6660   16.8421 H   0  0  0  0  0  0  0  0  0  0  0  0
   51.4507    9.5262   15.8701 H   0  0  0  0  0  0  0  0  0  0  0  0
   52.1635   10.9665   15.1122 H   0  0  0  0  0  0  0  0  0  0  0  0
   47.8845   13.3879   14.1021 H   0  0  0  0  0  0  0  0  0  0  0  0
   47.4360   14.4823   15.4345 H   0  0  0  0  0  0  0  0  0  0  0  0
   49.0478   14.5936   14.6926 H   0  0  0  0  0  0  0  0  0  0  0  0
   48.2924   14.2082   21.1774 H   0  0  0  0  0  0  0  0  0  0  0  0
   47.9262   14.6489   19.8469 H   0  0  0  0  0  0  0  0  0  0  0  0
   46.0430   13.0220   19.7715 H   0  0  0  0  0  0  0  0  0  0  0  0
   46.0046   11.8589   18.4192 H   0  0  0  0  0  0  0  0  0  0  0  0
   52.2569   14.0447   17.4074 H   0  0  0  0  0  0  0  0  0  0  0  0
   51.1842   15.0052   16.3465 H   0  0  0  0  0  0  0  0  0  0  0  0
   52.2940   13.8100   15.6466 H   0  0  0  0  0  0  0  0  0  0  0  0
   49.4549    9.9552   14.2946 H   0  0  0  0  0  0  0  0  0  0  0  0
   50.6654    9.2570   15.3923 H   0  0  0  0  0  0  0  0  0  0  0  0
   48.9362    8.9490   15.6703 H   0  0  0  0  0  0  0  0  0  0  0  0
   46.0417    9.7849   21.2308 H   0  0  0  0  0  0  0  0  0  0  0  0
   50.8237   12.3385   18.2743 H   0  0  0  0  0  0  0  0  0  0  0  0
   47.1980   11.7830   17.0571 H   0  0  0  0  0  0  0  0  0  0  0  0
   49.4861   11.0629   15.9932 H   0  0  0  0  0  0  0  0  0  0  0  0
   50.6967   12.3377   15.9301 H   0  0  0  0  0  0  0  0  0  0  0  0
   48.3701   13.2304   15.6279 H   0  0  0  0  0  0  0  0  0  0  0  0
   49.1792   13.9494   17.0144 H   0  0  0  0  0  0  0  0  0  0  0  0
   48.8427   10.1724   18.3148 H   0  0  0  0  0  0  0  0  0  0  0  0
   49.6515   10.8910   19.7018 H   0  0  0  0  0  0  0  0  0  0  0  0
   48.5364   13.0593   19.3371 H   0  0  0  0  0  0  0  0  0  0  0  0
   47.3260   11.7842   19.4007 H   0  0  0  0  0  0  0  0  0  0  0  0
  2  1  2  0
  3  1  1  0
  4  5  1  0
  5  3  1  0
  6  2  1  0
  7  1  1  0
  8  2  1  0
  9  7  2  0
 10  8  1  0
 11  5  2  0
 12  6  2  0
 13 10  1  0
 14 13  2  0
 15  3  1  0
 16  4  1  0
 17 13  1  0
  6  4  1  0
  8  9  1  0
 19 18  2  0
 20 18  1  0
 21 22  1  0
 22 20  1  0
 23 19  1  0
 24 18  1  0
 25 19  1  0
 26 24  2  0
 27 25  1  0
 28 22  2  0
 29 23  2  0
 30 27  1  0
 31 30  2  0
 32 20  1  0
 33 21  1  0
 34 30  1  0
 23 21  1  0
 25 26  1  0
 36 40  1  0
 37 35  1  0
 38 37  1  0
 39 35  1  0
 40 39  1  0
 38 36  1  0
  9 41  1  0
 10 42  1  0
 10 43  1  0
 15 44  1  0
 15 45  1  0
 15 46  1  0
 16 47  1  0
 16 48  1  0
 16 49  1  0
 17 50  1  0
 26 51  1  0
 27 52  1  0
 27 53  1  0
 32 54  1  0
 32 55  1  0
 32 56  1  0
 33 57  1  0
 33 58  1  0
 33 59  1  0
 34 60  1  0
 35 61  1  0
 36 62  1  0
 37 63  1  0
 37 64  1  0
 38 65  1  0
 38 66  1  0
 39 67  1  0
 39 68  1  0
 40 69  1  0
 40 70  1  0
M  END
> <Uni-Dock RESULT> 
ENERGY=   -3.409  LOWER_BOUND=    6.184  UPPER_BOUND=    8.281
INTER + INTRA:          -3.409
INTER:                  -3.409
INTRA:                   0.000
UNBOUND:                 0.000

$$$$

     RDKit          3D

 70 72  0  0  0  0  0  0  0  0999 V2000
   49.0962    9.3218   19.1995 C   0  0  0  0  0  0  0  0  0  0  0  0
   48.2492    8.9879   20.2119 C   0  0  0  0  0  0  0  0  0  0  0  0
   48.8902   10.4343   18.4201 N   0  0  0  0  0  0  0  0  0  0  0  0
   46.9471   10.8849   19.7459 N   0  0  0  0  0  0  0  0  0  0  0  0
   47.7810   11.2449   18.6664 C   0  0  0  0  0  0  0  0  0  0  0  0
   47.1028    9.7547   20.5519 C   0  0  0  0  0  0  0  0  0  0  0  0
   50.1184    8.4305   19.0768 N   0  0  0  0  0  0  0  0  0  0  0  0
   48.7701    7.8433   20.7479 N   0  0  0  0  0  0  0  0  0  0  0  0
   49.9015    7.5473   20.0308 C   0  0  0  0  0  0  0  0  0  0  0  0
   48.2148    7.0417   21.8248 C   0  0  0  0  0  0  0  0  0  0  0  0
   47.5294   12.2348   17.9726 O   0  0  0  0  0  0  0  0  0  0  0  0
   46.3414    9.4337   21.4591 O   0  0  0  0  0  0  0  0  0  0  0  0
   48.4346    7.6024   23.2030 C   0  0  0  0  0  0  0  0  0  0  0  0
   47.9391    7.1487   24.2250 O   0  0  0  0  0  0  0  0  0  0  0  0
   49.7992   10.7384   17.3300 C   0  0  0  0  0  0  0  0  0  0  0  0
   45.8063   11.7449   19.9927 C   0  0  0  0  0  0  0  0  0  0  0  0
   49.2855    8.6415   23.2821 O   0  0  0  0  0  0  0  0  0  0  0  0
   48.4879   10.6777   20.7911 C   0  0  0  0  0  0  0  0  0  0  0  0
   47.9779    9.4379   20.5550 C   0  0  0  0  0  0  0  0  0  0  0  0
   48.8069   11.5363   19.7671 N   0  0  0  0  0  0  0  0  0  0  0  0
   48.1260    9.8185   18.2431 N   0  0  0  0  0  0  0  0  0  0  0  0
   48.6336   11.1189   18.4466 C   0  0  0  0  0  0  0  0  0  0  0  0
   47.7457    8.9274   19.2495 C   0  0  0  0  0  0  0  0  0  0  0  0
   48.6163   10.9294   22.1234 N   0  0  0  0  0  0  0  0  0  0  0  0
   47.7895    8.8901   21.7929 N   0  0  0  0  0  0  0  0  0  0  0  0
   48.1932    9.8270   22.7091 C   0  0  0  0  0  0  0  0  0  0  0  0
   47.2313    7.5865   22.0999 C   0  0  0  0  0  0  0  0  0  0  0  0
   48.9057   11.8509   17.4902 O   0  0  0  0  0  0  0  0  0  0  0  0
   47.2512    7.8212   19.0527 O   0  0  0  0  0  0  0  0  0  0  0  0
   48.2180    6.4727   21.8816 C   0  0  0  0  0  0  0  0  0  0  0  0
   49.4078    6.5642   21.6302 O   0  0  0  0  0  0  0  0  0  0  0  0
   49.3524   12.8488   20.0595 C   0  0  0  0  0  0  0  0  0  0  0  0
   47.9466    9.4049   16.8654 C   0  0  0  0  0  0  0  0  0  0  0  0
   47.6515    5.2565   22.0368 O   0  0  0  0  0  0  0  0  0  0  0  0
   49.5910    9.7936   19.5641 N   0  0  0  0  0  0  0  0  0  0  0  0
   46.9848    9.2715   20.8936 N   0  0  0  0  0  0  0  0  0  0  0  0
   48.3481   10.4683   19.1502 C   0  0  0  0  0  0  0  0  0  0  0  0
   47.3122   10.5754   20.2900 C   0  0  0  0  0  0  0  0  0  0  0  0
   49.2630    8.4897   20.1674 C   0  0  0  0  0  0  0  0  0  0  0  0
   48.2277    8.5971   21.3077 C   0  0  0  0  0  0  0  0  0  0  0  0
   50.5228    6.6849   20.2389 H   0  0  0  0  0  0  0  0  0  0  0  0
   47.1418    6.9403   21.6373 H   0  0  0  0  0  0  0  0  0  0  0  0
   48.6807    6.0521   21.7753 H   0  0  0  0  0  0  0  0  0  0  0  0
   50.8246   10.7681   17.7109 H   0  0  0  0  0  0  0  0  0  0  0  0
   49.7116    9.9567   16.5694 H   0  0  0  0  0  0  0  0  0  0  0  0
   49.5717   11.7026   16.8680 H   0  0  0  0  0  0  0  0  0  0  0  0
   45.1055   11.6423   19.1576 H   0  0  0  0  0  0  0  0  0  0  0  0
   45.2911   11.4965   20.9235 H   0  0  0  0  0  0  0  0  0  0  0  0
   46.1374   12.7872   20.0410 H   0  0  0  0  0  0  0  0  0  0  0  0
   49.2909    8.8815   24.2330 H   0  0  0  0  0  0  0  0  0  0  0  0
   48.1568    9.6600   23.7787 H   0  0  0  0  0  0  0  0  0  0  0  0
   46.9234    7.5904   23.1506 H   0  0  0  0  0  0  0  0  0  0  0  0
   46.3504    7.4441   21.4673 H   0  0  0  0  0  0  0  0  0  0  0  0
   50.3525   12.7275   20.4863 H   0  0  0  0  0  0  0  0  0  0  0  0
   48.7055   13.3605   20.7788 H   0  0  0  0  0  0  0  0  0  0  0  0
   49.4278   13.4660   19.1609 H   0  0  0  0  0  0  0  0  0  0  0  0
   47.1372    9.9978   16.4273 H   0  0  0  0  0  0  0  0  0  0  0  0
   48.8644    9.5994   16.3010 H   0  0  0  0  0  0  0  0  0  0  0  0
   47.6989    8.3438   16.7779 H   0  0  0  0  0  0  0  0  0  0  0  0
   48.3795    4.6253   21.8481 H   0  0  0  0  0  0  0  0  0  0  0  0
   50.0297   10.3670   20.2860 H   0  0  0  0  0  0  0  0  0  0  0  0
   46.5461    8.6972   20.1724 H   0  0  0  0  0  0  0  0  0  0  0  0
   47.9118    9.9287   18.3005 H   0  0  0  0  0  0  0  0  0  0  0  0
   48.5969   11.4729   18.7909 H   0  0  0  0  0  0  0  0  0  0  0  0
   46.3911   11.0240   19.9018 H   0  0  0  0  0  0  0  0  0  0  0  0
   47.6861   11.2495   21.0705 H   0  0  0  0  0  0  0  0  0  0  0  0
   48.8886    7.8161   19.3866 H   0  0  0  0  0  0  0  0  0  0  0  0
   50.1838    8.0408   20.5554 H   0  0  0  0  0  0  0  0  0  0  0  0
   48.6639    9.1369   22.1575 H   0  0  0  0  0  0  0  0  0  0  0  0
   47.9794    7.5923   21.6671 H   0  0  0  0  0  0  0  0  0  0  0  0
  2  1  2  0
  3  1  1  0
  4  5  1  0
  5  3  1  0
  6  2  1  0
  7  1  1  0
  8  2  1  0
  9  7  2  0
 10  8  1  0
 11  5  2  0
 12  6  2  0
 13 10  1  0
 14 13  2  0
 15  3  1  0
 16  4  1  0
 17 13  1  0
  6  4  1  0
  8  9  1  0
 19 18  2  0
 20 18  1  0
 21 22  1  0
 22 20  1  0
 23 19  1  0
 24 18  1  0
 25 19  1  0
 26 24  2  0
 27 25  1  0
 28 22  2  0
 29 23  2  0
 30 27  1  0
 31 30  2  0
 32 20  1  0
 33 21  1  0
 34 30  1  0
 23 21  1  0
 25 26  1  0
 36 40  1  0
 37 35  1  0
 38 37  1  0
 39 35  1  0
 40 39  1  0
 38 36  1  0
  9 41  1  0
 10 42  1  0
 10 43  1  0
 15 44  1  0
 15 45  1  0
 15 46  1  0
 16 47  1  0
 16 48  1  0
 16 49  1  0
 17 50  1  0
 26 51  1  0
 27 52  1  0
 27 53  1  0
 32 54  1  0
 32 55  1  0
 32 56  1  0
 33 57  1  0
 33 58  1  0
 33 59  1  0
 34 60  1  0
 35 61  1  0
 36 62  1  0
 37 63  1  0
 37 64  1  0
 38 65  1  0
 38 66  1  0
 39 67  1  0
 39 68  1  0
 40 69  1  0
 40 70  1  0
M  END
> <Uni-Dock RESULT> 
ENERGY=   -3.402  LOWER_BOUND=    4.223  UPPER_BOUND=    6.388
INTER + INTRA:          -3.402
INTER:                  -3.402
INTRA:                   0.000
UNBOUND:                 0.000

$$$$
