
     RDKit          3D

 70 72  0  0  0  0  0  0  0  0999 V2000
   46.4927   11.8020   11.7482 C   0  0  0  0  0  0  0  0  0  0  0  0
   45.4309   10.9584   11.8658 C   0  0  0  0  0  0  0  0  0  0  0  0
   47.7875   11.3439   11.7736 N   0  0  0  0  0  0  0  0  0  0  0  0
   46.8995    9.1294   11.9774 N   0  0  0  0  0  0  0  0  0  0  0  0
   48.0261    9.9755   11.9143 C   0  0  0  0  0  0  0  0  0  0  0  0
   45.5680    9.5521   12.0118 C   0  0  0  0  0  0  0  0  0  0  0  0
   46.0993   13.1000   11.6249 N   0  0  0  0  0  0  0  0  0  0  0  0
   44.3285   11.7637   11.8002 N   0  0  0  0  0  0  0  0  0  0  0  0
   44.7826   13.0490   11.6513 C   0  0  0  0  0  0  0  0  0  0  0  0
   42.9388   11.3595   11.9066 C   0  0  0  0  0  0  0  0  0  0  0  0
   49.1710    9.5190   11.9891 O   0  0  0  0  0  0  0  0  0  0  0  0
   44.6043    8.8075   12.1674 O   0  0  0  0  0  0  0  0  0  0  0  0
   42.4295   10.7133   10.6478 C   0  0  0  0  0  0  0  0  0  0  0  0
   42.9817   10.6515    9.5619 O   0  0  0  0  0  0  0  0  0  0  0  0
   48.8922   12.2803   11.6760 C   0  0  0  0  0  0  0  0  0  0  0  0
   47.1522    7.7093   12.1195 C   0  0  0  0  0  0  0  0  0  0  0  0
   41.1916   10.1979   10.8071 O   0  0  0  0  0  0  0  0  0  0  0  0
   46.4176   11.6200   11.0851 C   0  0  0  0  0  0  0  0  0  0  0  0
   45.5360   10.5911   11.2166 C   0  0  0  0  0  0  0  0  0  0  0  0
   47.5423   11.7140   11.8681 N   0  0  0  0  0  0  0  0  0  0  0  0
   46.8300    9.7079   12.9654 N   0  0  0  0  0  0  0  0  0  0  0  0
   47.7842   10.7389   12.8372 C   0  0  0  0  0  0  0  0  0  0  0  0
   45.6915    9.5507   12.1709 C   0  0  0  0  0  0  0  0  0  0  0  0
   46.0431   12.4888   10.1055 N   0  0  0  0  0  0  0  0  0  0  0  0
   44.5680   10.8308   10.2820 N   0  0  0  0  0  0  0  0  0  0  0  0
   44.9160   11.9908    9.6375 C   0  0  0  0  0  0  0  0  0  0  0  0
   43.4198    9.9986    9.9680 C   0  0  0  0  0  0  0  0  0  0  0  0
   48.7888   10.7669   13.5544 O   0  0  0  0  0  0  0  0  0  0  0  0
   44.8982    8.6191   12.2648 O   0  0  0  0  0  0  0  0  0  0  0  0
   42.2723   10.1211   10.9329 C   0  0  0  0  0  0  0  0  0  0  0  0
   41.2589    9.4370   10.8978 O   0  0  0  0  0  0  0  0  0  0  0  0
   48.4638   12.8207   11.6871 C   0  0  0  0  0  0  0  0  0  0  0  0
   47.0965    8.7026   13.9758 C   0  0  0  0  0  0  0  0  0  0  0  0
   42.3838   11.0953   11.8541 O   0  0  0  0  0  0  0  0  0  0  0  0
   46.0536   11.5662   10.5366 N   0  0  0  0  0  0  0  0  0  0  0  0
   45.3735    9.7773   12.8017 N   0  0  0  0  0  0  0  0  0  0  0  0
   47.0657   11.0959   11.4964 C   0  0  0  0  0  0  0  0  0  0  0  0
   46.6913    9.7471   12.1464 C   0  0  0  0  0  0  0  0  0  0  0  0
   44.7359   11.5965   11.1918 C   0  0  0  0  0  0  0  0  0  0  0  0
   44.3614   10.2476   11.8418 C   0  0  0  0  0  0  0  0  0  0  0  0
   44.1210   13.9025   11.5699 H   0  0  0  0  0  0  0  0  0  0  0  0
   42.3425   12.2534   12.1143 H   0  0  0  0  0  0  0  0  0  0  0  0
   42.8581   10.6677   12.7494 H   0  0  0  0  0  0  0  0  0  0  0  0
   49.8595   11.7712   11.6670 H   0  0  0  0  0  0  0  0  0  0  0  0
   48.8617   12.9575   12.5354 H   0  0  0  0  0  0  0  0  0  0  0  0
   48.7942   12.8556   10.7505 H   0  0  0  0  0  0  0  0  0  0  0  0
   47.3542    7.5006   13.1751 H   0  0  0  0  0  0  0  0  0  0  0  0
   46.2932    7.1137   11.7974 H   0  0  0  0  0  0  0  0  0  0  0  0
   48.0236    7.4113   11.5283 H   0  0  0  0  0  0  0  0  0  0  0  0
   40.9853    9.7927    9.9365 H   0  0  0  0  0  0  0  0  0  0  0  0
   44.3231   12.4219    8.8404 H   0  0  0  0  0  0  0  0  0  0  0  0
   43.7647    8.9609    9.9384 H   0  0  0  0  0  0  0  0  0  0  0  0
   43.0670   10.2853    8.9718 H   0  0  0  0  0  0  0  0  0  0  0  0
   49.3333   12.7383   12.3434 H   0  0  0  0  0  0  0  0  0  0  0  0
   48.8114   12.8325   10.6493 H   0  0  0  0  0  0  0  0  0  0  0  0
   47.9433   13.7567   11.9108 H   0  0  0  0  0  0  0  0  0  0  0  0
   47.9437    8.0941   13.6441 H   0  0  0  0  0  0  0  0  0  0  0  0
   47.3658    9.1878   14.9195 H   0  0  0  0  0  0  0  0  0  0  0  0
   46.2365    8.0508   14.1495 H   0  0  0  0  0  0  0  0  0  0  0  0
   41.5699   11.0162   12.3959 H   0  0  0  0  0  0  0  0  0  0  0  0
   46.2962   12.5079   10.2326 H   0  0  0  0  0  0  0  0  0  0  0  0
   45.1309    8.8358   13.1060 H   0  0  0  0  0  0  0  0  0  0  0  0
   48.0211   10.9871   10.9718 H   0  0  0  0  0  0  0  0  0  0  0  0
   47.2117   11.8536   12.2770 H   0  0  0  0  0  0  0  0  0  0  0  0
   47.4497    9.4877   12.8932 H   0  0  0  0  0  0  0  0  0  0  0  0
   46.7040    8.9556   11.3865 H   0  0  0  0  0  0  0  0  0  0  0  0
   43.9777   11.8571   10.4450 H   0  0  0  0  0  0  0  0  0  0  0  0
   44.7245   12.3884   11.9514 H   0  0  0  0  0  0  0  0  0  0  0  0
   44.2158    9.4900   11.0611 H   0  0  0  0  0  0  0  0  0  0  0  0
   43.4059   10.3553   12.3666 H   0  0  0  0  0  0  0  0  0  0  0  0
  2  1  2  0
  3  1  1  0
  4  5  1  0
  5  3  1  0
  6  2  1  0
  7  1  1  0
  8  2  1  0
  9  7  2  0
 10  8  1  0
 11  5  2  0
 12  6  2  0
 13 10  1  0
 14 13  2  0
 15  3  1  0
 16  4  1  0
 17 13  1  0
  6  4  1  0
  8  9  1  0
 19 18  2  0
 20 18  1  0
 21 22  1  0
 22 20  1  0
 23 19  1  0
 24 18  1  0
 25 19  1  0
 26 24  2  0
 27 25  1  0
 28 22  2  0
 29 23  2  0
 30 27  1  0
 31 30  2  0
 32 20  1  0
 33 21  1  0
 34 30  1  0
 23 21  1  0
 25 26  1  0
 36 40  1  0
 37 35  1  0
 38 37  1  0
 39 35  1  0
 40 39  1  0
 38 36  1  0
  9 41  1  0
 10 42  1  0
 10 43  1  0
 15 44  1  0
 15 45  1  0
 15 46  1  0
 16 47  1  0
 16 48  1  0
 16 49  1  0
 17 50  1  0
 26 51  1  0
 27 52  1  0
 27 53  1  0
 32 54  1  0
 32 55  1  0
 32 56  1  0
 33 57  1  0
 33 58  1  0
 33 59  1  0
 34 60  1  0
 35 61  1  0
 36 62  1  0
 37 63  1  0
 37 64  1  0
 38 65  1  0
 38 66  1  0
 39 67  1  0
 39 68  1  0
 40 69  1  0
 40 70  1  0
M  END
> <Uni-Dock RESULT> 
ENERGY=   -4.655  LOWER_BOUND=    0.000  UPPER_BOUND=    0.000
INTER + INTRA:          -4.655
INTER:                  -4.655
INTRA:                   0.000
UNBOUND:                 0.000

$$$$

     RDKit          3D

 70 72  0  0  0  0  0  0  0  0999 V2000
   50.3478    4.8834   20.5549 C   0  0  0  0  0  0  0  0  0  0  0  0
   50.0584    4.3887   19.3202 C   0  0  0  0  0  0  0  0  0  0  0  0
   51.5892    5.3855   20.8609 N   0  0  0  0  0  0  0  0  0  0  0  0
   52.2264    4.9297   18.5981 N   0  0  0  0  0  0  0  0  0  0  0  0
   52.5821    5.3996   19.8794 C   0  0  0  0  0  0  0  0  0  0  0  0
   50.9977    4.3595   18.2549 C   0  0  0  0  0  0  0  0  0  0  0  0
   49.2834    4.7950   21.4000 N   0  0  0  0  0  0  0  0  0  0  0  0
   48.7544    3.9866   19.3953 N   0  0  0  0  0  0  0  0  0  0  0  0
   48.3276    4.2551   20.6705 C   0  0  0  0  0  0  0  0  0  0  0  0
   47.9684    3.3573   18.3502 C   0  0  0  0  0  0  0  0  0  0  0  0
   53.7266    5.7974   20.1174 O   0  0  0  0  0  0  0  0  0  0  0  0
   50.7402    3.8648   17.1612 O   0  0  0  0  0  0  0  0  0  0  0  0
   47.5111    4.3373   17.3051 C   0  0  0  0  0  0  0  0  0  0  0  0
   47.5879    5.5543   17.3356 O   0  0  0  0  0  0  0  0  0  0  0  0
   51.8659    5.8752   22.1989 C   0  0  0  0  0  0  0  0  0  0  0  0
   53.2593    4.9500   17.5815 C   0  0  0  0  0  0  0  0  0  0  0  0
   46.9200    3.7231   16.2578 O   0  0  0  0  0  0  0  0  0  0  0  0
   50.1641    5.4697   20.2371 C   0  0  0  0  0  0  0  0  0  0  0  0
   50.1191    5.0399   18.9463 C   0  0  0  0  0  0  0  0  0  0  0  0
   51.2301    5.1888   21.0568 N   0  0  0  0  0  0  0  0  0  0  0  0
   52.1915    3.9735   19.2307 N   0  0  0  0  0  0  0  0  0  0  0  0
   52.2913    4.4289   20.5621 C   0  0  0  0  0  0  0  0  0  0  0  0
   51.1465    4.2618   18.3493 C   0  0  0  0  0  0  0  0  0  0  0  0
   49.0586    6.1911   20.5720 N   0  0  0  0  0  0  0  0  0  0  0  0
   48.9327    5.5094   18.4565 N   0  0  0  0  0  0  0  0  0  0  0  0
   48.3251    6.1963   19.4769 C   0  0  0  0  0  0  0  0  0  0  0  0
   48.4231    5.3770   17.1028 C   0  0  0  0  0  0  0  0  0  0  0  0
   53.2808    4.1636   21.2513 O   0  0  0  0  0  0  0  0  0  0  0  0
   51.1007    3.8977   17.1783 O   0  0  0  0  0  0  0  0  0  0  0  0
   47.8216    4.0351   16.7864 C   0  0  0  0  0  0  0  0  0  0  0  0
   47.4271    3.6939   15.6801 O   0  0  0  0  0  0  0  0  0  0  0  0
   51.2447    5.6771   22.4236 C   0  0  0  0  0  0  0  0  0  0  0  0
   53.3024    3.1864   18.7319 C   0  0  0  0  0  0  0  0  0  0  0  0
   47.6790    3.1971   17.8293 O   0  0  0  0  0  0  0  0  0  0  0  0
   49.7305    5.8326   19.8959 N   0  0  0  0  0  0  0  0  0  0  0  0
   50.9975    3.5490   18.4910 N   0  0  0  0  0  0  0  0  0  0  0  0
   51.0876    5.3655   20.2227 C   0  0  0  0  0  0  0  0  0  0  0  0
   51.7826    4.6701   19.0329 C   0  0  0  0  0  0  0  0  0  0  0  0
   48.9453    4.7117   19.3541 C   0  0  0  0  0  0  0  0  0  0  0  0
   49.6403    4.0163   18.1643 C   0  0  0  0  0  0  0  0  0  0  0  0
   47.3237    4.0389   21.0143 H   0  0  0  0  0  0  0  0  0  0  0  0
   47.0908    2.8997   18.8173 H   0  0  0  0  0  0  0  0  0  0  0  0
   48.5844    2.5764   17.8963 H   0  0  0  0  0  0  0  0  0  0  0  0
   52.8769    6.2821   22.2838 H   0  0  0  0  0  0  0  0  0  0  0  0
   51.7609    5.0491   22.9091 H   0  0  0  0  0  0  0  0  0  0  0  0
   51.1516    6.6662   22.4463 H   0  0  0  0  0  0  0  0  0  0  0  0
   53.8922    4.0670   17.7175 H   0  0  0  0  0  0  0  0  0  0  0  0
   52.8329    4.9300   16.5743 H   0  0  0  0  0  0  0  0  0  0  0  0
   53.8794    5.8465   17.6791 H   0  0  0  0  0  0  0  0  0  0  0  0
   46.6905    4.4568   15.6463 H   0  0  0  0  0  0  0  0  0  0  0  0
   47.3622    6.6801   19.3693 H   0  0  0  0  0  0  0  0  0  0  0  0
   49.2527    5.5774   16.4186 H   0  0  0  0  0  0  0  0  0  0  0  0
   47.6534    6.1433   16.9636 H   0  0  0  0  0  0  0  0  0  0  0  0
   52.1730    5.4187   22.9385 H   0  0  0  0  0  0  0  0  0  0  0  0
   51.1426    6.7668   22.4168 H   0  0  0  0  0  0  0  0  0  0  0  0
   50.4064    5.2330   22.9685 H   0  0  0  0  0  0  0  0  0  0  0  0
   54.1671    3.8461   18.6094 H   0  0  0  0  0  0  0  0  0  0  0  0
   53.5599    2.4074   19.4568 H   0  0  0  0  0  0  0  0  0  0  0  0
   53.0776    2.7125   17.7729 H   0  0  0  0  0  0  0  0  0  0  0  0
   47.2960    2.3823   17.4400 H   0  0  0  0  0  0  0  0  0  0  0  0
   49.2827    6.1731   20.7453 H   0  0  0  0  0  0  0  0  0  0  0  0
   51.4453    3.2083   17.6417 H   0  0  0  0  0  0  0  0  0  0  0  0
   51.6884    6.2270   20.5340 H   0  0  0  0  0  0  0  0  0  0  0  0
   51.0437    4.6781   21.0772 H   0  0  0  0  0  0  0  0  0  0  0  0
   52.7571    4.2913   19.3602 H   0  0  0  0  0  0  0  0  0  0  0  0
   51.9723    5.4021   18.2378 H   0  0  0  0  0  0  0  0  0  0  0  0
   47.9703    5.0905   19.0279 H   0  0  0  0  0  0  0  0  0  0  0  0
   48.7563    3.9805   20.1502 H   0  0  0  0  0  0  0  0  0  0  0  0
   49.6845    4.7040   17.3099 H   0  0  0  0  0  0  0  0  0  0  0  0
   49.0403    3.1546   17.8519 H   0  0  0  0  0  0  0  0  0  0  0  0
  2  1  2  0
  3  1  1  0
  4  5  1  0
  5  3  1  0
  6  2  1  0
  7  1  1  0
  8  2  1  0
  9  7  2  0
 10  8  1  0
 11  5  2  0
 12  6  2  0
 13 10  1  0
 14 13  2  0
 15  3  1  0
 16  4  1  0
 17 13  1  0
  6  4  1  0
  8  9  1  0
 19 18  2  0
 20 18  1  0
 21 22  1  0
 22 20  1  0
 23 19  1  0
 24 18  1  0
 25 19  1  0
 26 24  2  0
 27 25  1  0
 28 22  2  0
 29 23  2  0
 30 27  1  0
 31 30  2  0
 32 20  1  0
 33 21  1  0
 34 30  1  0
 23 21  1  0
 25 26  1  0
 36 40  1  0
 37 35  1  0
 38 37  1  0
 39 35  1  0
 40 39  1  0
 38 36  1  0
  9 41  1  0
 10 42  1  0
 10 43  1  0
 15 44  1  0
 15 45  1  0
 15 46  1  0
 16 47  1  0
 16 48  1  0
 16 49  1  0
 17 50  1  0
 26 51  1  0
 27 52  1  0
 27 53  1  0
 32 54  1  0
 32 55  1  0
 32 56  1  0
 33 57  1  0
 33 58  1  0
 33 59  1  0
 34 60  1  0
 35 61  1  0
 36 62  1  0
 37 63  1  0
 37 64  1  0
 38 65  1  0
 38 66  1  0
 39 67  1  0
 39 68  1  0
 40 69  1  0
 40 70  1  0
M  END
> <Uni-Dock RESULT> 
ENERGY=   -4.600  LOWER_BOUND=    8.736  UPPER_BOUND=   10.903
INTER + INTRA:          -4.600
INTER:                  -4.600
INTRA:                   0.000
UNBOUND:                 0.000

$$$$

     RDKit          3D

 70 72  0  0  0  0  0  0  0  0999 V2000
   50.5854    5.2419   19.3447 C   0  0  0  0  0  0  0  0  0  0  0  0
   49.3578    5.3091   18.7605 C   0  0  0  0  0  0  0  0  0  0  0  0
   50.7372    5.2169   20.7097 N   0  0  0  0  0  0  0  0  0  0  0  0
   48.3492    5.2650   20.8807 N   0  0  0  0  0  0  0  0  0  0  0  0
   49.6040    5.2516   21.5245 C   0  0  0  0  0  0  0  0  0  0  0  0
   48.1459    5.3474   19.5006 C   0  0  0  0  0  0  0  0  0  0  0  0
   51.5868    5.2211   18.4219 N   0  0  0  0  0  0  0  0  0  0  0  0
   49.6040    5.3176   17.4162 N   0  0  0  0  0  0  0  0  0  0  0  0
   50.9652    5.2599   17.2603 C   0  0  0  0  0  0  0  0  0  0  0  0
   48.6285    5.4106   16.3458 C   0  0  0  0  0  0  0  0  0  0  0  0
   49.6887    5.2778   22.7561 O   0  0  0  0  0  0  0  0  0  0  0  0
   47.0476    5.4587   18.9635 O   0  0  0  0  0  0  0  0  0  0  0  0
   47.9045    4.1132   16.1128 C   0  0  0  0  0  0  0  0  0  0  0  0
   48.1573    3.0191   16.5889 O   0  0  0  0  0  0  0  0  0  0  0  0
   52.0656    5.1761   21.2930 C   0  0  0  0  0  0  0  0  0  0  0  0
   47.1757    5.2971   21.7308 C   0  0  0  0  0  0  0  0  0  0  0  0
   46.8921    4.2488   15.2296 O   0  0  0  0  0  0  0  0  0  0  0  0
   50.4304    4.5680   19.3270 C   0  0  0  0  0  0  0  0  0  0  0  0
   49.1141    4.6329   18.9861 C   0  0  0  0  0  0  0  0  0  0  0  0
   50.9566    5.3419   20.3325 N   0  0  0  0  0  0  0  0  0  0  0  0
   48.7768    6.2944   20.6104 N   0  0  0  0  0  0  0  0  0  0  0  0
   50.1265    6.2320   21.0159 C   0  0  0  0  0  0  0  0  0  0  0  0
   48.1886    5.5045   19.6194 C   0  0  0  0  0  0  0  0  0  0  0  0
   51.1079    3.6610   18.5700 N   0  0  0  0  0  0  0  0  0  0  0  0
   48.9652    3.7310   17.9701 N   0  0  0  0  0  0  0  0  0  0  0  0
   50.1984    3.1710   17.7515 C   0  0  0  0  0  0  0  0  0  0  0  0
   47.7369    3.3696   17.2844 C   0  0  0  0  0  0  0  0  0  0  0  0
   50.5452    6.9369   21.9391 O   0  0  0  0  0  0  0  0  0  0  0  0
   47.0005    5.5380   19.3140 O   0  0  0  0  0  0  0  0  0  0  0  0
   47.2865    4.3551   16.2409 C   0  0  0  0  0  0  0  0  0  0  0  0
   46.2327    4.2813   15.6244 O   0  0  0  0  0  0  0  0  0  0  0  0
   52.3633    5.2330   20.6735 C   0  0  0  0  0  0  0  0  0  0  0  0
   47.9278    7.2231   21.3308 C   0  0  0  0  0  0  0  0  0  0  0  0
   48.1526    5.3453   15.9587 O   0  0  0  0  0  0  0  0  0  0  0  0
   50.2575    4.0216   18.9988 N   0  0  0  0  0  0  0  0  0  0  0  0
   48.2142    6.1544   19.2625 N   0  0  0  0  0  0  0  0  0  0  0  0
   50.2170    4.9308   20.1557 C   0  0  0  0  0  0  0  0  0  0  0  0
   48.8024    5.4824   20.4327 C   0  0  0  0  0  0  0  0  0  0  0  0
   49.6694    4.6934   17.8286 C   0  0  0  0  0  0  0  0  0  0  0  0
   48.2547    5.2450   18.1056 C   0  0  0  0  0  0  0  0  0  0  0  0
   51.4480    5.2509   16.2910 H   0  0  0  0  0  0  0  0  0  0  0  0
   49.1581    5.6921   15.4303 H   0  0  0  0  0  0  0  0  0  0  0  0
   47.9199    6.2001   16.6103 H   0  0  0  0  0  0  0  0  0  0  0  0
   52.0309    5.1170   22.3840 H   0  0  0  0  0  0  0  0  0  0  0  0
   52.6070    6.0842   21.0093 H   0  0  0  0  0  0  0  0  0  0  0  0
   52.5969    4.2977   20.9145 H   0  0  0  0  0  0  0  0  0  0  0  0
   47.0108    6.3315   22.0493 H   0  0  0  0  0  0  0  0  0  0  0  0
   46.2863    4.9418   21.2022 H   0  0  0  0  0  0  0  0  0  0  0  0
   47.3249    4.6744   22.6183 H   0  0  0  0  0  0  0  0  0  0  0  0
   46.4924    3.3529   15.1817 H   0  0  0  0  0  0  0  0  0  0  0  0
   50.3764    2.4158   16.9959 H   0  0  0  0  0  0  0  0  0  0  0  0
   46.9576    3.2580   18.0438 H   0  0  0  0  0  0  0  0  0  0  0  0
   47.9024    2.4022   16.7989 H   0  0  0  0  0  0  0  0  0  0  0  0
   52.6277    5.8705   21.5203 H   0  0  0  0  0  0  0  0  0  0  0  0
   52.5899    4.1948   20.9357 H   0  0  0  0  0  0  0  0  0  0  0  0
   52.9627    5.5327   19.8087 H   0  0  0  0  0  0  0  0  0  0  0  0
   47.7716    6.8364   22.3427 H   0  0  0  0  0  0  0  0  0  0  0  0
   48.4222    8.1973   21.4038 H   0  0  0  0  0  0  0  0  0  0  0  0
   46.9568    7.3581   20.8475 H   0  0  0  0  0  0  0  0  0  0  0  0
   47.6930    5.8897   15.2844 H   0  0  0  0  0  0  0  0  0  0  0  0
   51.2275    3.7860   18.7950 H   0  0  0  0  0  0  0  0  0  0  0  0
   47.2442    6.3902   19.4662 H   0  0  0  0  0  0  0  0  0  0  0  0
   50.5685    4.3877   21.0397 H   0  0  0  0  0  0  0  0  0  0  0  0
   50.9124    5.7642   19.9924 H   0  0  0  0  0  0  0  0  0  0  0  0
   48.8539    6.1983   21.2604 H   0  0  0  0  0  0  0  0  0  0  0  0
   48.1446    4.6652   20.7544 H   0  0  0  0  0  0  0  0  0  0  0  0
   49.6191    3.9777   17.0006 H   0  0  0  0  0  0  0  0  0  0  0  0
   50.3282    5.5104   17.5079 H   0  0  0  0  0  0  0  0  0  0  0  0
   47.5595    4.4115   18.2693 H   0  0  0  0  0  0  0  0  0  0  0  0
   47.9021    5.7882   17.2221 H   0  0  0  0  0  0  0  0  0  0  0  0
  2  1  2  0
  3  1  1  0
  4  5  1  0
  5  3  1  0
  6  2  1  0
  7  1  1  0
  8  2  1  0
  9  7  2  0
 10  8  1  0
 11  5  2  0
 12  6  2  0
 13 10  1  0
 14 13  2  0
 15  3  1  0
 16  4  1  0
 17 13  1  0
  6  4  1  0
  8  9  1  0
 19 18  2  0
 20 18  1  0
 21 22  1  0
 22 20  1  0
 23 19  1  0
 24 18  1  0
 25 19  1  0
 26 24  2  0
 27 25  1  0
 28 22  2  0
 29 23  2  0
 30 27  1  0
 31 30  2  0
 32 20  1  0
 33 21  1  0
 34 30  1  0
 23 21  1  0
 25 26  1  0
 36 40  1  0
 37 35  1  0
 38 37  1  0
 39 35  1  0
 40 39  1  0
 38 36  1  0
  9 41  1  0
 10 42  1  0
 10 43  1  0
 15 44  1  0
 15 45  1  0
 15 46  1  0
 16 47  1  0
 16 48  1  0
 16 49  1  0
 17 50  1  0
 26 51  1  0
 27 52  1  0
 27 53  1  0
 32 54  1  0
 32 55  1  0
 32 56  1  0
 33 57  1  0
 33 58  1  0
 33 59  1  0
 34 60  1  0
 35 61  1  0
 36 62  1  0
 37 63  1  0
 37 64  1  0
 38 65  1  0
 38 66  1  0
 39 67  1  0
 39 68  1  0
 40 69  1  0
 40 70  1  0
M  END
> <Uni-Dock RESULT> 
ENERGY=   -4.457  LOWER_BOUND=    8.226  UPPER_BOUND=   10.357
INTER + INTRA:          -4.457
INTER:                  -4.457
INTRA:                   0.000
UNBOUND:                 0.000

$$$$

     RDKit          3D

 70 72  0  0  0  0  0  0  0  0999 V2000
   48.5378    7.3385   18.9138 C   0  0  0  0  0  0  0  0  0  0  0  0
   48.8126    6.4302   17.9379 C   0  0  0  0  0  0  0  0  0  0  0  0
   48.2294    8.6447   18.6210 N   0  0  0  0  0  0  0  0  0  0  0  0
   48.4226    8.0713   16.3041 N   0  0  0  0  0  0  0  0  0  0  0  0
   48.1864    9.0547   17.2871 C   0  0  0  0  0  0  0  0  0  0  0  0
   48.7939    6.7474   16.5533 C   0  0  0  0  0  0  0  0  0  0  0  0
   48.6260    6.7905   20.1574 N   0  0  0  0  0  0  0  0  0  0  0  0
   49.0706    5.2634   18.6010 N   0  0  0  0  0  0  0  0  0  0  0  0
   48.9426    5.5297   19.9401 C   0  0  0  0  0  0  0  0  0  0  0  0
   49.4487    3.9886   18.0197 C   0  0  0  0  0  0  0  0  0  0  0  0
   47.9598   10.2274   16.9739 O   0  0  0  0  0  0  0  0  0  0  0  0
   49.0928    5.9323   15.6853 O   0  0  0  0  0  0  0  0  0  0  0  0
   48.2824    3.2712   17.3978 C   0  0  0  0  0  0  0  0  0  0  0  0
   47.0993    3.5575   17.4765 O   0  0  0  0  0  0  0  0  0  0  0  0
   47.9729    9.5891   19.6929 C   0  0  0  0  0  0  0  0  0  0  0  0
   48.3730    8.5009   14.9207 C   0  0  0  0  0  0  0  0  0  0  0  0
   48.6675    2.1674   16.7220 O   0  0  0  0  0  0  0  0  0  0  0  0
   47.8946    7.1303   18.7672 C   0  0  0  0  0  0  0  0  0  0  0  0
   48.1254    6.4193   17.6295 C   0  0  0  0  0  0  0  0  0  0  0  0
   48.4103    8.3902   18.9505 N   0  0  0  0  0  0  0  0  0  0  0  0
   49.4500    8.1732   16.8039 N   0  0  0  0  0  0  0  0  0  0  0  0
   49.2063    8.9550   17.9526 C   0  0  0  0  0  0  0  0  0  0  0  0
   48.9205    6.9041   16.5571 C   0  0  0  0  0  0  0  0  0  0  0  0
   47.1084    6.4463   19.6439 N   0  0  0  0  0  0  0  0  0  0  0  0
   47.4582    5.2396   17.8061 N   0  0  0  0  0  0  0  0  0  0  0  0
   46.8616    5.3010   19.0400 C   0  0  0  0  0  0  0  0  0  0  0  0
   47.3347    4.1457   16.8586 C   0  0  0  0  0  0  0  0  0  0  0  0
   49.6791   10.0906   18.0598 O   0  0  0  0  0  0  0  0  0  0  0  0
   49.1039    6.2592   15.5293 O   0  0  0  0  0  0  0  0  0  0  0  0
   48.5397    3.2494   16.7733 C   0  0  0  0  0  0  0  0  0  0  0  0
   48.6703    2.3352   15.9713 O   0  0  0  0  0  0  0  0  0  0  0  0
   48.1296    9.1199   20.1734 C   0  0  0  0  0  0  0  0  0  0  0  0
   50.2777    8.7748   15.7765 C   0  0  0  0  0  0  0  0  0  0  0  0
   49.4981    3.4682   17.6920 O   0  0  0  0  0  0  0  0  0  0  0  0
   47.4393    6.6560   18.7039 N   0  0  0  0  0  0  0  0  0  0  0  0
   49.6247    6.7201   16.7006 N   0  0  0  0  0  0  0  0  0  0  0  0
   48.0998    7.9089   18.3030 C   0  0  0  0  0  0  0  0  0  0  0  0
   48.6903    7.8435   16.8785 C   0  0  0  0  0  0  0  0  0  0  0  0
   48.3736    5.5327   18.5262 C   0  0  0  0  0  0  0  0  0  0  0  0
   48.9640    5.4672   17.1016 C   0  0  0  0  0  0  0  0  0  0  0  0
   49.0908    4.7799   20.7074 H   0  0  0  0  0  0  0  0  0  0  0  0
   49.8664    3.3651   18.8164 H   0  0  0  0  0  0  0  0  0  0  0  0
   50.2207    4.1817   17.2700 H   0  0  0  0  0  0  0  0  0  0  0  0
   47.7001   10.5762   19.3107 H   0  0  0  0  0  0  0  0  0  0  0  0
   48.8758    9.6881   20.3037 H   0  0  0  0  0  0  0  0  0  0  0  0
   47.1502    9.2164   20.3103 H   0  0  0  0  0  0  0  0  0  0  0  0
   49.3325    8.9653   14.6708 H   0  0  0  0  0  0  0  0  0  0  0  0
   48.1986    7.6592   14.2442 H   0  0  0  0  0  0  0  0  0  0  0  0
   47.5763    9.2366   14.7734 H   0  0  0  0  0  0  0  0  0  0  0  0
   47.8319    1.8078   16.3515 H   0  0  0  0  0  0  0  0  0  0  0  0
   46.2611    4.4954   19.4442 H   0  0  0  0  0  0  0  0  0  0  0  0
   47.1330    4.5832   15.8765 H   0  0  0  0  0  0  0  0  0  0  0  0
   46.4740    3.5412   17.1629 H   0  0  0  0  0  0  0  0  0  0  0  0
   48.5635   10.1224   20.1582 H   0  0  0  0  0  0  0  0  0  0  0  0
   47.0459    9.2118   20.2961 H   0  0  0  0  0  0  0  0  0  0  0  0
   48.5497    8.5690   21.0202 H   0  0  0  0  0  0  0  0  0  0  0  0
   49.7098    9.5811   15.3019 H   0  0  0  0  0  0  0  0  0  0  0  0
   51.1775    9.2037   16.2293 H   0  0  0  0  0  0  0  0  0  0  0  0
   50.5793    8.0541   15.0121 H   0  0  0  0  0  0  0  0  0  0  0  0
   50.1992    2.8169   17.4764 H   0  0  0  0  0  0  0  0  0  0  0  0
   47.1766    6.7185   19.6863 H   0  0  0  0  0  0  0  0  0  0  0  0
   49.8877    6.6577   15.7183 H   0  0  0  0  0  0  0  0  0  0  0  0
   47.3663    8.7212   18.3491 H   0  0  0  0  0  0  0  0  0  0  0  0
   48.8941    8.1514   19.0206 H   0  0  0  0  0  0  0  0  0  0  0  0
   49.2206    8.7788   16.6683 H   0  0  0  0  0  0  0  0  0  0  0  0
   47.8773    7.7628   16.1459 H   0  0  0  0  0  0  0  0  0  0  0  0
   47.8433    4.5974   18.7375 H   0  0  0  0  0  0  0  0  0  0  0  0
   49.1860    5.6145   19.2593 H   0  0  0  0  0  0  0  0  0  0  0  0
   48.1695    5.2251   16.3840 H   0  0  0  0  0  0  0  0  0  0  0  0
   49.6977    4.6551   17.0542 H   0  0  0  0  0  0  0  0  0  0  0  0
  2  1  2  0
  3  1  1  0
  4  5  1  0
  5  3  1  0
  6  2  1  0
  7  1  1  0
  8  2  1  0
  9  7  2  0
 10  8  1  0
 11  5  2  0
 12  6  2  0
 13 10  1  0
 14 13  2  0
 15  3  1  0
 16  4  1  0
 17 13  1  0
  6  4  1  0
  8  9  1  0
 19 18  2  0
 20 18  1  0
 21 22  1  0
 22 20  1  0
 23 19  1  0
 24 18  1  0
 25 19  1  0
 26 24  2  0
 27 25  1  0
 28 22  2  0
 29 23  2  0
 30 27  1  0
 31 30  2  0
 32 20  1  0
 33 21  1  0
 34 30  1  0
 23 21  1  0
 25 26  1  0
 36 40  1  0
 37 35  1  0
 38 37  1  0
 39 35  1  0
 40 39  1  0
 38 36  1  0
  9 41  1  0
 10 42  1  0
 10 43  1  0
 15 44  1  0
 15 45  1  0
 15 46  1  0
 16 47  1  0
 16 48  1  0
 16 49  1  0
 17 50  1  0
 26 51  1  0
 27 52  1  0
 27 53  1  0
 32 54  1  0
 32 55  1  0
 32 56  1  0
 33 57  1  0
 33 58  1  0
 33 59  1  0
 34 60  1  0
 35 61  1  0
 36 62  1  0
 37 63  1  0
 37 64  1  0
 38 65  1  0
 38 66  1  0
 39 67  1  0
 39 68  1  0
 40 69  1  0
 40 70  1  0
M  END
> <Uni-Dock RESULT> 
ENERGY=   -4.420  LOWER_BOUND=    6.012  UPPER_BOUND=    8.766
INTER + INTRA:          -4.420
INTER:                  -4.420
INTRA:                   0.000
UNBOUND:                 0.000

$$$$

     RDKit          3D

 70 72  0  0  0  0  0  0  0  0999 V2000
   47.8061    8.0372   20.8663 C   0  0  0  0  0  0  0  0  0  0  0  0
   47.7614    6.6968   20.6337 C   0  0  0  0  0  0  0  0  0  0  0  0
   48.1989    8.5488   22.0791 N   0  0  0  0  0  0  0  0  0  0  0  0
   48.5658    6.2961   22.8032 N   0  0  0  0  0  0  0  0  0  0  0  0
   48.5725    7.6745   23.1014 C   0  0  0  0  0  0  0  0  0  0  0  0
   48.1222    5.7267   21.6067 C   0  0  0  0  0  0  0  0  0  0  0  0
   47.4082    8.7551   19.7795 N   0  0  0  0  0  0  0  0  0  0  0  0
   47.3297    6.5744   19.3428 N   0  0  0  0  0  0  0  0  0  0  0  0
   47.1324    7.8451   18.8667 C   0  0  0  0  0  0  0  0  0  0  0  0
   47.0825    5.3447   18.6128 C   0  0  0  0  0  0  0  0  0  0  0  0
   48.8887    8.0824   24.2232 O   0  0  0  0  0  0  0  0  0  0  0  0
   48.0297    4.5198   21.4015 O   0  0  0  0  0  0  0  0  0  0  0  0
   48.3526    4.6822   18.1549 C   0  0  0  0  0  0  0  0  0  0  0  0
   49.4857    5.1326   18.1880 O   0  0  0  0  0  0  0  0  0  0  0  0
   48.2029    9.9840   22.2960 C   0  0  0  0  0  0  0  0  0  0  0  0
   48.9582    5.3926   23.8665 C   0  0  0  0  0  0  0  0  0  0  0  0
   48.1246    3.4639   17.6191 O   0  0  0  0  0  0  0  0  0  0  0  0
   48.4619    7.9331   20.6724 C   0  0  0  0  0  0  0  0  0  0  0  0
   48.5028    6.5725   20.6834 C   0  0  0  0  0  0  0  0  0  0  0  0
   47.9389    8.6500   21.7210 N   0  0  0  0  0  0  0  0  0  0  0  0
   47.4496    6.5592   22.7818 N   0  0  0  0  0  0  0  0  0  0  0  0
   47.4197    7.9689   22.8233 C   0  0  0  0  0  0  0  0  0  0  0  0
   48.0013    5.7878   21.7558 C   0  0  0  0  0  0  0  0  0  0  0  0
   48.9990    8.4491   19.5323 N   0  0  0  0  0  0  0  0  0  0  0  0
   49.0864    6.2249   19.4974 N   0  0  0  0  0  0  0  0  0  0  0  0
   49.3656    7.3929   18.8341 C   0  0  0  0  0  0  0  0  0  0  0  0
   49.4180    4.8882   19.0359 C   0  0  0  0  0  0  0  0  0  0  0  0
   46.9547    8.5656   23.7992 O   0  0  0  0  0  0  0  0  0  0  0  0
   48.0625    4.5622   21.7599 O   0  0  0  0  0  0  0  0  0  0  0  0
   48.2547    4.1048   18.4920 C   0  0  0  0  0  0  0  0  0  0  0  0
   48.3076    2.9331   18.1450 O   0  0  0  0  0  0  0  0  0  0  0  0
   47.9259   10.1007   21.6753 C   0  0  0  0  0  0  0  0  0  0  0  0
   46.9074    5.8670   23.9348 C   0  0  0  0  0  0  0  0  0  0  0  0
   47.1055    4.7889   18.3459 O   0  0  0  0  0  0  0  0  0  0  0  0
   48.9106    7.7196   20.2374 N   0  0  0  0  0  0  0  0  0  0  0  0
   47.2802    5.6694   21.6274 N   0  0  0  0  0  0  0  0  0  0  0  0
   48.3893    7.9223   21.5990 C   0  0  0  0  0  0  0  0  0  0  0  0
   48.1625    6.5962   22.3553 C   0  0  0  0  0  0  0  0  0  0  0  0
   48.0285    6.7931   19.5095 C   0  0  0  0  0  0  0  0  0  0  0  0
   47.8017    5.4669   20.2658 C   0  0  0  0  0  0  0  0  0  0  0  0
   46.7889    8.0513   17.8606 H   0  0  0  0  0  0  0  0  0  0  0  0
   46.4727    5.5888   17.7374 H   0  0  0  0  0  0  0  0  0  0  0  0
   46.5198    4.6762   19.2698 H   0  0  0  0  0  0  0  0  0  0  0  0
   48.5776   10.2458   23.2889 H   0  0  0  0  0  0  0  0  0  0  0  0
   47.1803   10.3617   22.1975 H   0  0  0  0  0  0  0  0  0  0  0  0
   48.8441   10.4582   21.5469 H   0  0  0  0  0  0  0  0  0  0  0  0
   48.0966    5.2430   24.5253 H   0  0  0  0  0  0  0  0  0  0  0  0
   49.2775    4.4231   23.4732 H   0  0  0  0  0  0  0  0  0  0  0  0
   49.7793    5.8184   24.4514 H   0  0  0  0  0  0  0  0  0  0  0  0
   49.0190    3.1329   17.3836 H   0  0  0  0  0  0  0  0  0  0  0  0
   49.8356    7.4181   17.8588 H   0  0  0  0  0  0  0  0  0  0  0  0
   49.8603    4.3500   19.8792 H   0  0  0  0  0  0  0  0  0  0  0  0
   50.1682    4.9890   18.2447 H   0  0  0  0  0  0  0  0  0  0  0  0
   47.5261   10.5336   22.5952 H   0  0  0  0  0  0  0  0  0  0  0  0
   48.9485   10.4647   21.5354 H   0  0  0  0  0  0  0  0  0  0  0  0
   47.3028   10.4241   20.8361 H   0  0  0  0  0  0  0  0  0  0  0  0
   47.5877    6.0152   24.7793 H   0  0  0  0  0  0  0  0  0  0  0  0
   45.9320    6.2899   24.1963 H   0  0  0  0  0  0  0  0  0  0  0  0
   46.7886    4.7951   23.7572 H   0  0  0  0  0  0  0  0  0  0  0  0
   46.4668    4.1275   18.0042 H   0  0  0  0  0  0  0  0  0  0  0  0
   48.9272    8.6149   19.7513 H   0  0  0  0  0  0  0  0  0  0  0  0
   47.2633    4.7743   22.1135 H   0  0  0  0  0  0  0  0  0  0  0  0
   49.1034    8.5357   22.1591 H   0  0  0  0  0  0  0  0  0  0  0  0
   47.4485    8.4857   21.5521 H   0  0  0  0  0  0  0  0  0  0  0  0
   47.7155    6.8136   23.3315 H   0  0  0  0  0  0  0  0  0  0  0  0
   49.1278    6.1099   22.5443 H   0  0  0  0  0  0  0  0  0  0  0  0
   48.4751    6.5766   18.5326 H   0  0  0  0  0  0  0  0  0  0  0  0
   47.0635    7.2805   19.3210 H   0  0  0  0  0  0  0  0  0  0  0  0
   48.7426    4.9037   20.3129 H   0  0  0  0  0  0  0  0  0  0  0  0
   47.0877    4.8525   19.7064 H   0  0  0  0  0  0  0  0  0  0  0  0
  2  1  2  0
  3  1  1  0
  4  5  1  0
  5  3  1  0
  6  2  1  0
  7  1  1  0
  8  2  1  0
  9  7  2  0
 10  8  1  0
 11  5  2  0
 12  6  2  0
 13 10  1  0
 14 13  2  0
 15  3  1  0
 16  4  1  0
 17 13  1  0
  6  4  1  0
  8  9  1  0
 19 18  2  0
 20 18  1  0
 21 22  1  0
 22 20  1  0
 23 19  1  0
 24 18  1  0
 25 19  1  0
 26 24  2  0
 27 25  1  0
 28 22  2  0
 29 23  2  0
 30 27  1  0
 31 30  2  0
 32 20  1  0
 33 21  1  0
 34 30  1  0
 23 21  1  0
 25 26  1  0
 36 40  1  0
 37 35  1  0
 38 37  1  0
 39 35  1  0
 40 39  1  0
 38 36  1  0
  9 41  1  0
 10 42  1  0
 10 43  1  0
 15 44  1  0
 15 45  1  0
 15 46  1  0
 16 47  1  0
 16 48  1  0
 16 49  1  0
 17 50  1  0
 26 51  1  0
 27 52  1  0
 27 53  1  0
 32 54  1  0
 32 55  1  0
 32 56  1  0
 33 57  1  0
 33 58  1  0
 33 59  1  0
 34 60  1  0
 35 61  1  0
 36 62  1  0
 37 63  1  0
 37 64  1  0
 38 65  1  0
 38 66  1  0
 39 67  1  0
 39 68  1  0
 40 69  1  0
 40 70  1  0
M  END
> <Uni-Dock RESULT> 
ENERGY=   -4.315  LOWER_BOUND=    8.636  UPPER_BOUND=   10.769
INTER + INTRA:          -4.315
INTER:                  -4.315
INTRA:                   0.000
UNBOUND:                 0.000

$$$$

     RDKit          3D

 70 72  0  0  0  0  0  0  0  0999 V2000
   50.6550    6.7075   17.4306 C   0  0  0  0  0  0  0  0  0  0  0  0
   50.0515    5.5417   17.7905 C   0  0  0  0  0  0  0  0  0  0  0  0
   52.0080    6.7826   17.2051 N   0  0  0  0  0  0  0  0  0  0  0  0
   52.1178    4.4339   17.6581 N   0  0  0  0  0  0  0  0  0  0  0  0
   52.7884    5.6326   17.3382 C   0  0  0  0  0  0  0  0  0  0  0  0
   50.7562    4.3188   17.9508 C   0  0  0  0  0  0  0  0  0  0  0  0
   49.7659    7.7358   17.3485 N   0  0  0  0  0  0  0  0  0  0  0  0
   48.7278    5.8540   17.9260 N   0  0  0  0  0  0  0  0  0  0  0  0
   48.6033    7.1905   17.6456 C   0  0  0  0  0  0  0  0  0  0  0  0
   47.6531    4.9655   18.3279 C   0  0  0  0  0  0  0  0  0  0  0  0
   54.0142    5.6577   17.1917 O   0  0  0  0  0  0  0  0  0  0  0  0
   50.2088    3.2854   18.3246 O   0  0  0  0  0  0  0  0  0  0  0  0
   47.2279    4.0397   17.2216 C   0  0  0  0  0  0  0  0  0  0  0  0
   47.5594    4.0736   16.0483 O   0  0  0  0  0  0  0  0  0  0  0  0
   52.6170    8.0522   16.8530 C   0  0  0  0  0  0  0  0  0  0  0  0
   52.9317    3.2420   17.7914 C   0  0  0  0  0  0  0  0  0  0  0  0
   46.3432    3.1127   17.6478 O   0  0  0  0  0  0  0  0  0  0  0  0
   50.5426    6.4387   16.8032 C   0  0  0  0  0  0  0  0  0  0  0  0
   50.1773    5.1729   17.1458 C   0  0  0  0  0  0  0  0  0  0  0  0
   51.6573    7.0395   17.3358 N   0  0  0  0  0  0  0  0  0  0  0  0
   52.0002    5.0473   18.6201 N   0  0  0  0  0  0  0  0  0  0  0  0
   52.4308    6.3431   18.2658 C   0  0  0  0  0  0  0  0  0  0  0  0
   50.8961    4.3820   18.0813 C   0  0  0  0  0  0  0  0  0  0  0  0
   49.6896    6.9858   15.8934 N   0  0  0  0  0  0  0  0  0  0  0  0
   49.0455    4.9215   16.4220 N   0  0  0  0  0  0  0  0  0  0  0  0
   48.7878    6.0480   15.6826 C   0  0  0  0  0  0  0  0  0  0  0  0
   48.2837    3.6856   16.3770 C   0  0  0  0  0  0  0  0  0  0  0  0
   53.4517    6.8303   18.7608 O   0  0  0  0  0  0  0  0  0  0  0  0
   50.5653    3.2351   18.3657 O   0  0  0  0  0  0  0  0  0  0  0  0
   47.3702    3.4675   17.5519 C   0  0  0  0  0  0  0  0  0  0  0  0
   46.7205    2.4498   17.7474 O   0  0  0  0  0  0  0  0  0  0  0  0
   52.0192    8.3865   16.9340 C   0  0  0  0  0  0  0  0  0  0  0  0
   52.8152    4.3371   19.5865 C   0  0  0  0  0  0  0  0  0  0  0  0
   47.2477    4.5059   18.3987 O   0  0  0  0  0  0  0  0  0  0  0  0
   50.1393    6.1903   16.3429 N   0  0  0  0  0  0  0  0  0  0  0  0
   50.6307    4.5385   18.7561 N   0  0  0  0  0  0  0  0  0  0  0  0
   51.4064    6.2497   17.0898 C   0  0  0  0  0  0  0  0  0  0  0  0
   51.7158    4.9403   17.8461 C   0  0  0  0  0  0  0  0  0  0  0  0
   49.0543    5.7886   17.2528 C   0  0  0  0  0  0  0  0  0  0  0  0
   49.3637    4.4792   18.0091 C   0  0  0  0  0  0  0  0  0  0  0  0
   47.6553    7.7133   17.6739 H   0  0  0  0  0  0  0  0  0  0  0  0
   46.7987    5.5820   18.6242 H   0  0  0  0  0  0  0  0  0  0  0  0
   48.0016    4.3925   19.1912 H   0  0  0  0  0  0  0  0  0  0  0  0
   53.6887    7.9520   16.6625 H   0  0  0  0  0  0  0  0  0  0  0  0
   52.4730    8.7570   17.6780 H   0  0  0  0  0  0  0  0  0  0  0  0
   52.1387    8.4412   15.9491 H   0  0  0  0  0  0  0  0  0  0  0  0
   53.3817    3.2435   18.7895 H   0  0  0  0  0  0  0  0  0  0  0  0
   52.3357    2.3325   17.6716 H   0  0  0  0  0  0  0  0  0  0  0  0
   53.7312    3.2351   17.0442 H   0  0  0  0  0  0  0  0  0  0  0  0
   46.1643    2.5662   16.8515 H   0  0  0  0  0  0  0  0  0  0  0  0
   47.9428    6.1303   15.0103 H   0  0  0  0  0  0  0  0  0  0  0  0
   48.9994    2.8610   16.3110 H   0  0  0  0  0  0  0  0  0  0  0  0
   47.6773    3.7049   15.4654 H   0  0  0  0  0  0  0  0  0  0  0  0
   52.9511    8.7141   17.4007 H   0  0  0  0  0  0  0  0  0  0  0  0
   52.1457    8.4153   15.8473 H   0  0  0  0  0  0  0  0  0  0  0  0
   51.2195    9.0723   17.2292 H   0  0  0  0  0  0  0  0  0  0  0  0
   53.7612    4.0646   19.1083 H   0  0  0  0  0  0  0  0  0  0  0  0
   53.0322    4.9890   20.4389 H   0  0  0  0  0  0  0  0  0  0  0  0
   52.3277    3.4304   19.9537 H   0  0  0  0  0  0  0  0  0  0  0  0
   46.6403    4.1831   19.0980 H   0  0  0  0  0  0  0  0  0  0  0  0
   49.9326    7.1137   15.9653 H   0  0  0  0  0  0  0  0  0  0  0  0
   50.8374    3.6152   19.1340 H   0  0  0  0  0  0  0  0  0  0  0  0
   52.2187    6.4557   16.3844 H   0  0  0  0  0  0  0  0  0  0  0  0
   51.3759    7.0868   17.7990 H   0  0  0  0  0  0  0  0  0  0  0  0
   52.6333    5.0731   18.4298 H   0  0  0  0  0  0  0  0  0  0  0  0
   51.9063    4.1348   17.1258 H   0  0  0  0  0  0  0  0  0  0  0  0
   48.1364    5.6569   16.6691 H   0  0  0  0  0  0  0  0  0  0  0  0
   48.8646    6.5950   17.9726 H   0  0  0  0  0  0  0  0  0  0  0  0
   49.3945    3.6422   17.2997 H   0  0  0  0  0  0  0  0  0  0  0  0
   48.5518    4.2720   18.7148 H   0  0  0  0  0  0  0  0  0  0  0  0
  2  1  2  0
  3  1  1  0
  4  5  1  0
  5  3  1  0
  6  2  1  0
  7  1  1  0
  8  2  1  0
  9  7  2  0
 10  8  1  0
 11  5  2  0
 12  6  2  0
 13 10  1  0
 14 13  2  0
 15  3  1  0
 16  4  1  0
 17 13  1  0
  6  4  1  0
  8  9  1  0
 19 18  2  0
 20 18  1  0
 21 22  1  0
 22 20  1  0
 23 19  1  0
 24 18  1  0
 25 19  1  0
 26 24  2  0
 27 25  1  0
 28 22  2  0
 29 23  2  0
 30 27  1  0
 31 30  2  0
 32 20  1  0
 33 21  1  0
 34 30  1  0
 23 21  1  0
 25 26  1  0
 36 40  1  0
 37 35  1  0
 38 37  1  0
 39 35  1  0
 40 39  1  0
 38 36  1  0
  9 41  1  0
 10 42  1  0
 10 43  1  0
 15 44  1  0
 15 45  1  0
 15 46  1  0
 16 47  1  0
 16 48  1  0
 16 49  1  0
 17 50  1  0
 26 51  1  0
 27 52  1  0
 27 53  1  0
 32 54  1  0
 32 55  1  0
 32 56  1  0
 33 57  1  0
 33 58  1  0
 33 59  1  0
 34 60  1  0
 35 61  1  0
 36 62  1  0
 37 63  1  0
 37 64  1  0
 38 65  1  0
 38 66  1  0
 39 67  1  0
 39 68  1  0
 40 69  1  0
 40 70  1  0
M  END
> <Uni-Dock RESULT> 
ENERGY=   -4.307  LOWER_BOUND=    7.558  UPPER_BOUND=    9.320
INTER + INTRA:          -4.307
INTER:                  -4.307
INTRA:                   0.000
UNBOUND:                 0.000

$$$$

     RDKit          3D

 70 72  0  0  0  0  0  0  0  0999 V2000
   51.5850    5.7689   17.3761 C   0  0  0  0  0  0  0  0  0  0  0  0
   50.3258    5.3797   17.0359 C   0  0  0  0  0  0  0  0  0  0  0  0
   52.0056    7.0683   17.2290 N   0  0  0  0  0  0  0  0  0  0  0  0
   49.8067    7.5903   16.4378 N   0  0  0  0  0  0  0  0  0  0  0  0
   51.1182    8.0216   16.7261 C   0  0  0  0  0  0  0  0  0  0  0  0
   49.3497    6.2722   16.5177 C   0  0  0  0  0  0  0  0  0  0  0  0
   52.3297    4.7287   17.8433 N   0  0  0  0  0  0  0  0  0  0  0  0
   50.2797    4.0426   17.3151 N   0  0  0  0  0  0  0  0  0  0  0  0
   51.5129    3.6951   17.8038 C   0  0  0  0  0  0  0  0  0  0  0  0
   49.1634    3.1398   17.1036 C   0  0  0  0  0  0  0  0  0  0  0  0
   51.4615    9.1917   16.5318 O   0  0  0  0  0  0  0  0  0  0  0  0
   48.2338    5.8991   16.1676 O   0  0  0  0  0  0  0  0  0  0  0  0
   48.0881    3.3012   18.1425 C   0  0  0  0  0  0  0  0  0  0  0  0
   48.1340    3.9536   19.1720 O   0  0  0  0  0  0  0  0  0  0  0  0
   53.3666    7.4356   17.5748 C   0  0  0  0  0  0  0  0  0  0  0  0
   48.8879    8.5844   15.9196 C   0  0  0  0  0  0  0  0  0  0  0  0
   46.9873    2.5757   17.8502 O   0  0  0  0  0  0  0  0  0  0  0  0
   51.2561    5.9185   17.9660 C   0  0  0  0  0  0  0  0  0  0  0  0
   49.9635    5.7782   17.5627 C   0  0  0  0  0  0  0  0  0  0  0  0
   52.1669    6.6441   17.2373 N   0  0  0  0  0  0  0  0  0  0  0  0
   50.4268    7.0456   15.6414 N   0  0  0  0  0  0  0  0  0  0  0  0
   51.7650    7.2427   16.0421 C   0  0  0  0  0  0  0  0  0  0  0  0
   49.4565    6.3469   16.3641 C   0  0  0  0  0  0  0  0  0  0  0  0
   51.4946    5.2759   19.1427 N   0  0  0  0  0  0  0  0  0  0  0  0
   49.3716    5.0115   18.5270 N   0  0  0  0  0  0  0  0  0  0  0  0
   50.3376    4.7296   19.4595 C   0  0  0  0  0  0  0  0  0  0  0  0
   47.9765    4.6152   18.6057 C   0  0  0  0  0  0  0  0  0  0  0  0
   52.5390    7.9200   15.3590 O   0  0  0  0  0  0  0  0  0  0  0  0
   48.2836    6.2278   16.0233 O   0  0  0  0  0  0  0  0  0  0  0  0
   47.5976    3.4685   17.7088 C   0  0  0  0  0  0  0  0  0  0  0  0
   46.4577    3.0512   17.5585 O   0  0  0  0  0  0  0  0  0  0  0  0
   53.5328    6.7799   17.7092 C   0  0  0  0  0  0  0  0  0  0  0  0
   50.0251    7.6747   14.3982 C   0  0  0  0  0  0  0  0  0  0  0  0
   48.6174    2.8532   17.0831 O   0  0  0  0  0  0  0  0  0  0  0  0
   50.8795    5.7441   18.4797 N   0  0  0  0  0  0  0  0  0  0  0  0
   49.5792    5.8609   15.8172 N   0  0  0  0  0  0  0  0  0  0  0  0
   51.3245    6.6742   17.4292 C   0  0  0  0  0  0  0  0  0  0  0  0
   50.1978    7.0422   16.4408 C   0  0  0  0  0  0  0  0  0  0  0  0
   50.2611    4.5628   17.8563 C   0  0  0  0  0  0  0  0  0  0  0  0
   49.1342    4.9308   16.8679 C   0  0  0  0  0  0  0  0  0  0  0  0
   51.7630    2.6872   18.1112 H   0  0  0  0  0  0  0  0  0  0  0  0
   49.5459    2.1151   17.1434 H   0  0  0  0  0  0  0  0  0  0  0  0
   48.7617    3.3367   16.1060 H   0  0  0  0  0  0  0  0  0  0  0  0
   53.5455    8.5064   17.4471 H   0  0  0  0  0  0  0  0  0  0  0  0
   54.0586    6.8862   16.9289 H   0  0  0  0  0  0  0  0  0  0  0  0
   53.5539    7.1748   18.6208 H   0  0  0  0  0  0  0  0  0  0  0  0
   49.0745    8.6981   14.8468 H   0  0  0  0  0  0  0  0  0  0  0  0
   47.8462    8.2863   16.0697 H   0  0  0  0  0  0  0  0  0  0  0  0
   49.0476    9.5500   16.4094 H   0  0  0  0  0  0  0  0  0  0  0  0
   46.3627    2.7807   18.5800 H   0  0  0  0  0  0  0  0  0  0  0  0
   50.1467    4.1330   20.3429 H   0  0  0  0  0  0  0  0  0  0  0  0
   47.3716    5.4916   18.3556 H   0  0  0  0  0  0  0  0  0  0  0  0
   47.7736    4.3261   19.6422 H   0  0  0  0  0  0  0  0  0  0  0  0
   54.1277    7.4215   17.0551 H   0  0  0  0  0  0  0  0  0  0  0  0
   53.5243    7.2181   18.7121 H   0  0  0  0  0  0  0  0  0  0  0  0
   53.9965    5.7896   17.7448 H   0  0  0  0  0  0  0  0  0  0  0  0
   49.9860    8.7572   14.5545 H   0  0  0  0  0  0  0  0  0  0  0  0
   50.7649    7.4628   13.6195 H   0  0  0  0  0  0  0  0  0  0  0  0
   49.0465    7.3289   14.0556 H   0  0  0  0  0  0  0  0  0  0  0  0
   48.1893    2.1578   16.5396 H   0  0  0  0  0  0  0  0  0  0  0  0
   51.6873    5.4482   19.0256 H   0  0  0  0  0  0  0  0  0  0  0  0
   48.7716    6.1567   15.2712 H   0  0  0  0  0  0  0  0  0  0  0  0
   51.6950    7.5884   17.9056 H   0  0  0  0  0  0  0  0  0  0  0  0
   52.1667    6.2331   16.8808 H   0  0  0  0  0  0  0  0  0  0  0  0
   50.6092    7.6815   15.6519 H   0  0  0  0  0  0  0  0  0  0  0  0
   49.4282    7.6269   16.9602 H   0  0  0  0  0  0  0  0  0  0  0  0
   49.8506    3.9230   18.6455 H   0  0  0  0  0  0  0  0  0  0  0  0
   51.0317    3.9789   17.3372 H   0  0  0  0  0  0  0  0  0  0  0  0
   48.2922    5.3722   17.4164 H   0  0  0  0  0  0  0  0  0  0  0  0
   48.7628    4.0172   16.3909 H   0  0  0  0  0  0  0  0  0  0  0  0
  2  1  2  0
  3  1  1  0
  4  5  1  0
  5  3  1  0
  6  2  1  0
  7  1  1  0
  8  2  1  0
  9  7  2  0
 10  8  1  0
 11  5  2  0
 12  6  2  0
 13 10  1  0
 14 13  2  0
 15  3  1  0
 16  4  1  0
 17 13  1  0
  6  4  1  0
  8  9  1  0
 19 18  2  0
 20 18  1  0
 21 22  1  0
 22 20  1  0
 23 19  1  0
 24 18  1  0
 25 19  1  0
 26 24  2  0
 27 25  1  0
 28 22  2  0
 29 23  2  0
 30 27  1  0
 31 30  2  0
 32 20  1  0
 33 21  1  0
 34 30  1  0
 23 21  1  0
 25 26  1  0
 36 40  1  0
 37 35  1  0
 38 37  1  0
 39 35  1  0
 40 39  1  0
 38 36  1  0
  9 41  1  0
 10 42  1  0
 10 43  1  0
 15 44  1  0
 15 45  1  0
 15 46  1  0
 16 47  1  0
 16 48  1  0
 16 49  1  0
 17 50  1  0
 26 51  1  0
 27 52  1  0
 27 53  1  0
 32 54  1  0
 32 55  1  0
 32 56  1  0
 33 57  1  0
 33 58  1  0
 33 59  1  0
 34 60  1  0
 35 61  1  0
 36 62  1  0
 37 63  1  0
 37 64  1  0
 38 65  1  0
 38 66  1  0
 39 67  1  0
 39 68  1  0
 40 69  1  0
 40 70  1  0
M  END
> <Uni-Dock RESULT> 
ENERGY=   -4.278  LOWER_BOUND=    6.764  UPPER_BOUND=    9.360
INTER + INTRA:          -4.278
INTER:                  -4.278
INTRA:                   0.000
UNBOUND:                 0.000

$$$$

     RDKit          3D

 70 72  0  0  0  0  0  0  0  0999 V2000
   54.0734    8.4507    6.7568 C   0  0  0  0  0  0  0  0  0  0  0  0
   54.7382    7.6485    7.6328 C   0  0  0  0  0  0  0  0  0  0  0  0
   54.5550    8.6999    5.4946 N   0  0  0  0  0  0  0  0  0  0  0  0
   56.3833    7.2410    6.0074 N   0  0  0  0  0  0  0  0  0  0  0  0
   55.7539    8.1090    5.0912 C   0  0  0  0  0  0  0  0  0  0  0  0
   55.9628    7.0010    7.3182 C   0  0  0  0  0  0  0  0  0  0  0  0
   52.9294    8.9549    7.2970 N   0  0  0  0  0  0  0  0  0  0  0  0
   53.9692    7.6422    8.7626 N   0  0  0  0  0  0  0  0  0  0  0  0
   52.8851    8.4433    8.5109 C   0  0  0  0  0  0  0  0  0  0  0  0
   54.2499    6.9587   10.0116 C   0  0  0  0  0  0  0  0  0  0  0  0
   56.2520    8.3378    3.9847 O   0  0  0  0  0  0  0  0  0  0  0  0
   56.5783    6.3205    8.1339 O   0  0  0  0  0  0  0  0  0  0  0  0
   53.9830    5.4808    9.9313 C   0  0  0  0  0  0  0  0  0  0  0  0
   53.4313    4.8677    9.0327 O   0  0  0  0  0  0  0  0  0  0  0  0
   53.8309    9.5861    4.6019 C   0  0  0  0  0  0  0  0  0  0  0  0
   57.6256    6.6270    5.5825 C   0  0  0  0  0  0  0  0  0  0  0  0
   54.3959    4.8298   11.0400 O   0  0  0  0  0  0  0  0  0  0  0  0
   53.8206    7.8365    6.5635 C   0  0  0  0  0  0  0  0  0  0  0  0
   54.6561    7.0068    7.2467 C   0  0  0  0  0  0  0  0  0  0  0  0
   54.2955    8.8871    5.8166 N   0  0  0  0  0  0  0  0  0  0  0  0
   56.4997    8.2630    6.5149 N   0  0  0  0  0  0  0  0  0  0  0  0
   55.6701    9.1240    5.7662 C   0  0  0  0  0  0  0  0  0  0  0  0
   56.0677    7.1628    7.2598 C   0  0  0  0  0  0  0  0  0  0  0  0
   52.5148    7.4806    6.7142 N   0  0  0  0  0  0  0  0  0  0  0  0
   53.8358    6.0972    7.8530 N   0  0  0  0  0  0  0  0  0  0  0  0
   52.5504    6.4264    7.5046 C   0  0  0  0  0  0  0  0  0  0  0  0
   54.2291    4.9552    8.6598 C   0  0  0  0  0  0  0  0  0  0  0  0
   56.1497   10.0433    5.0958 O   0  0  0  0  0  0  0  0  0  0  0  0
   56.8095    6.3951    7.8651 O   0  0  0  0  0  0  0  0  0  0  0  0
   54.6148    5.2887   10.0750 C   0  0  0  0  0  0  0  0  0  0  0  0
   55.0649    4.4854   10.8802 O   0  0  0  0  0  0  0  0  0  0  0  0
   53.3714    9.7406    5.0924 C   0  0  0  0  0  0  0  0  0  0  0  0
   57.9250    8.5220    6.4512 C   0  0  0  0  0  0  0  0  0  0  0  0
   54.3880    6.5578   10.4598 O   0  0  0  0  0  0  0  0  0  0  0  0
   53.5108    7.2690    6.6981 N   0  0  0  0  0  0  0  0  0  0  0  0
   56.2355    7.6293    7.8116 N   0  0  0  0  0  0  0  0  0  0  0  0
   54.5343    8.0818    6.0207 C   0  0  0  0  0  0  0  0  0  0  0  0
   55.9723    7.6382    6.3634 C   0  0  0  0  0  0  0  0  0  0  0  0
   53.7739    7.2601    8.1463 C   0  0  0  0  0  0  0  0  0  0  0  0
   55.2120    6.8165    8.4889 C   0  0  0  0  0  0  0  0  0  0  0  0
   52.1018    8.6212    9.2373 H   0  0  0  0  0  0  0  0  0  0  0  0
   53.6105    7.3944   10.7857 H   0  0  0  0  0  0  0  0  0  0  0  0
   55.2978    7.1433   10.2627 H   0  0  0  0  0  0  0  0  0  0  0  0
   54.3079    9.6563    3.6209 H   0  0  0  0  0  0  0  0  0  0  0  0
   53.7949   10.5862    5.0453 H   0  0  0  0  0  0  0  0  0  0  0  0
   52.8137    9.2067    4.4669 H   0  0  0  0  0  0  0  0  0  0  0  0
   58.4340    7.3505    5.7296 H   0  0  0  0  0  0  0  0  0  0  0  0
   57.8465    5.7248    6.1603 H   0  0  0  0  0  0  0  0  0  0  0  0
   57.5809    6.3590    4.5224 H   0  0  0  0  0  0  0  0  0  0  0  0
   54.1890    3.8872   10.8571 H   0  0  0  0  0  0  0  0  0  0  0  0
   51.6869    5.8689    7.8459 H   0  0  0  0  0  0  0  0  0  0  0  0
   55.0700    4.4707    8.1551 H   0  0  0  0  0  0  0  0  0  0  0  0
   53.3818    4.2620    8.6857 H   0  0  0  0  0  0  0  0  0  0  0  0
   53.8930   10.5009    4.5065 H   0  0  0  0  0  0  0  0  0  0  0  0
   52.7735    9.1265    4.4117 H   0  0  0  0  0  0  0  0  0  0  0  0
   52.7136   10.2409    5.8094 H   0  0  0  0  0  0  0  0  0  0  0  0
   58.2812    8.2555    5.4512 H   0  0  0  0  0  0  0  0  0  0  0  0
   58.1159    9.5875    6.6152 H   0  0  0  0  0  0  0  0  0  0  0  0
   58.4847    7.9472    7.1934 H   0  0  0  0  0  0  0  0  0  0  0  0
   54.7102    6.5958   11.3855 H   0  0  0  0  0  0  0  0  0  0  0  0
   52.5942    7.6801    6.5286 H   0  0  0  0  0  0  0  0  0  0  0  0
   57.1522    7.2185    7.9813 H   0  0  0  0  0  0  0  0  0  0  0  0
   54.3838    8.0025    4.9386 H   0  0  0  0  0  0  0  0  0  0  0  0
   54.4006    9.1379    6.2878 H   0  0  0  0  0  0  0  0  0  0  0  0
   56.6810    8.3206    5.8813 H   0  0  0  0  0  0  0  0  0  0  0  0
   56.1576    6.6382    5.9516 H   0  0  0  0  0  0  0  0  0  0  0  0
   53.0643    6.5785    8.6285 H   0  0  0  0  0  0  0  0  0  0  0  0
   53.5882    8.2607    8.5569 H   0  0  0  0  0  0  0  0  0  0  0  0
   55.3456    5.7604    8.2215 H   0  0  0  0  0  0  0  0  0  0  0  0
   55.3635    6.8952    9.5710 H   0  0  0  0  0  0  0  0  0  0  0  0
  2  1  2  0
  3  1  1  0
  4  5  1  0
  5  3  1  0
  6  2  1  0
  7  1  1  0
  8  2  1  0
  9  7  2  0
 10  8  1  0
 11  5  2  0
 12  6  2  0
 13 10  1  0
 14 13  2  0
 15  3  1  0
 16  4  1  0
 17 13  1  0
  6  4  1  0
  8  9  1  0
 19 18  2  0
 20 18  1  0
 21 22  1  0
 22 20  1  0
 23 19  1  0
 24 18  1  0
 25 19  1  0
 26 24  2  0
 27 25  1  0
 28 22  2  0
 29 23  2  0
 30 27  1  0
 31 30  2  0
 32 20  1  0
 33 21  1  0
 34 30  1  0
 23 21  1  0
 25 26  1  0
 36 40  1  0
 37 35  1  0
 38 37  1  0
 39 35  1  0
 40 39  1  0
 38 36  1  0
  9 41  1  0
 10 42  1  0
 10 43  1  0
 15 44  1  0
 15 45  1  0
 15 46  1  0
 16 47  1  0
 16 48  1  0
 16 49  1  0
 17 50  1  0
 26 51  1  0
 27 52  1  0
 27 53  1  0
 32 54  1  0
 32 55  1  0
 32 56  1  0
 33 57  1  0
 33 58  1  0
 33 59  1  0
 34 60  1  0
 35 61  1  0
 36 62  1  0
 37 63  1  0
 37 64  1  0
 38 65  1  0
 38 66  1  0
 39 67  1  0
 39 68  1  0
 40 69  1  0
 40 70  1  0
M  END
> <Uni-Dock RESULT> 
ENERGY=   -4.055  LOWER_BOUND=    9.039  UPPER_BOUND=   11.257
INTER + INTRA:          -4.055
INTER:                  -4.055
INTRA:                   0.000
UNBOUND:                 0.000

$$$$

     RDKit          3D

 70 72  0  0  0  0  0  0  0  0999 V2000
   48.4877    8.9658   18.2431 C   0  0  0  0  0  0  0  0  0  0  0  0
   47.9223    8.4538   19.3705 C   0  0  0  0  0  0  0  0  0  0  0  0
   48.7961   10.2996   18.1295 N   0  0  0  0  0  0  0  0  0  0  0  0
   47.9985   10.5772   20.3702 N   0  0  0  0  0  0  0  0  0  0  0  0
   48.5330   11.1559   19.2003 C   0  0  0  0  0  0  0  0  0  0  0  0
   47.6173    9.2405   20.5132 C   0  0  0  0  0  0  0  0  0  0  0  0
   48.6760    8.0111   17.2903 N   0  0  0  0  0  0  0  0  0  0  0  0
   47.7633    7.1208   19.1142 N   0  0  0  0  0  0  0  0  0  0  0  0
   48.2360    6.8999   17.8460 C   0  0  0  0  0  0  0  0  0  0  0  0
   47.1727    6.1234   19.9874 C   0  0  0  0  0  0  0  0  0  0  0  0
   48.7489   12.3697   19.1310 O   0  0  0  0  0  0  0  0  0  0  0  0
   47.0614    8.7767   21.5047 O   0  0  0  0  0  0  0  0  0  0  0  0
   48.1004    5.7069   21.0953 C   0  0  0  0  0  0  0  0  0  0  0  0
   49.2817    5.9814   21.2252 O   0  0  0  0  0  0  0  0  0  0  0  0
   49.3698   10.8110   16.8982 C   0  0  0  0  0  0  0  0  0  0  0  0
   47.7308   11.4696   21.4805 C   0  0  0  0  0  0  0  0  0  0  0  0
   47.4905    4.9026   21.9923 O   0  0  0  0  0  0  0  0  0  0  0  0
   49.0599    8.8418   18.6115 C   0  0  0  0  0  0  0  0  0  0  0  0
   48.5096    8.5728   19.8271 C   0  0  0  0  0  0  0  0  0  0  0  0
   48.6868    9.9398   17.8752 N   0  0  0  0  0  0  0  0  0  0  0  0
   47.1358   10.4657   19.6226 N   0  0  0  0  0  0  0  0  0  0  0  0
   47.7058   10.7975   18.3756 C   0  0  0  0  0  0  0  0  0  0  0  0
   47.5058    9.3820   20.4229 C   0  0  0  0  0  0  0  0  0  0  0  0
   49.9939    7.9153   18.2595 N   0  0  0  0  0  0  0  0  0  0  0  0
   49.1234    7.4269   20.2493 N   0  0  0  0  0  0  0  0  0  0  0  0
   50.0099    7.0654   19.2668 C   0  0  0  0  0  0  0  0  0  0  0  0
   48.9383    6.7429   21.5173 C   0  0  0  0  0  0  0  0  0  0  0  0
   47.3475   11.8074   17.7622 O   0  0  0  0  0  0  0  0  0  0  0  0
   47.0327    9.1372   21.5285 O   0  0  0  0  0  0  0  0  0  0  0  0
   47.6954    5.8998   21.6007 C   0  0  0  0  0  0  0  0  0  0  0  0
   47.3123    5.3249   22.6101 O   0  0  0  0  0  0  0  0  0  0  0  0
   49.3077   10.1977   16.5888 C   0  0  0  0  0  0  0  0  0  0  0  0
   46.1190   11.3672   20.1287 C   0  0  0  0  0  0  0  0  0  0  0  0
   47.0106    5.7514   20.4521 O   0  0  0  0  0  0  0  0  0  0  0  0
   49.4542    8.4342   18.9499 N   0  0  0  0  0  0  0  0  0  0  0  0
   46.8490    9.1386   20.1787 N   0  0  0  0  0  0  0  0  0  0  0  0
   48.7958    9.7280   18.7061 C   0  0  0  0  0  0  0  0  0  0  0  0
   47.8677   10.1533   19.8636 C   0  0  0  0  0  0  0  0  0  0  0  0
   48.4356    7.4194   19.2649 C   0  0  0  0  0  0  0  0  0  0  0  0
   47.5075    7.8448   20.4224 C   0  0  0  0  0  0  0  0  0  0  0  0
   48.2353    5.9232   17.3781 H   0  0  0  0  0  0  0  0  0  0  0  0
   46.9268    5.2466   19.3803 H   0  0  0  0  0  0  0  0  0  0  0  0
   46.2528    6.5465   20.3999 H   0  0  0  0  0  0  0  0  0  0  0  0
   49.6015   11.8770   16.9676 H   0  0  0  0  0  0  0  0  0  0  0  0
   48.6547   10.6611   16.0831 H   0  0  0  0  0  0  0  0  0  0  0  0
   50.2946   10.2682   16.6807 H   0  0  0  0  0  0  0  0  0  0  0  0
   46.7708   11.9640   21.2998 H   0  0  0  0  0  0  0  0  0  0  0  0
   47.6782   10.9270   22.4289 H   0  0  0  0  0  0  0  0  0  0  0  0
   48.5111   12.2328   21.5591 H   0  0  0  0  0  0  0  0  0  0  0  0
   48.1835    4.7219   22.6644 H   0  0  0  0  0  0  0  0  0  0  0  0
   50.6395    6.1869   19.3362 H   0  0  0  0  0  0  0  0  0  0  0  0
   48.9176    7.5052   22.3015 H   0  0  0  0  0  0  0  0  0  0  0  0
   49.8075    6.0953   21.6727 H   0  0  0  0  0  0  0  0  0  0  0  0
   48.9482   11.1277   16.1421 H   0  0  0  0  0  0  0  0  0  0  0  0
   50.3915   10.2721   16.7216 H   0  0  0  0  0  0  0  0  0  0  0  0
   49.0766    9.3709   15.9105 H   0  0  0  0  0  0  0  0  0  0  0  0
   46.6016   12.3055   20.4196 H   0  0  0  0  0  0  0  0  0  0  0  0
   45.3887   11.5817   19.3418 H   0  0  0  0  0  0  0  0  0  0  0  0
   45.5922   10.9550   20.9931 H   0  0  0  0  0  0  0  0  0  0  0  0
   46.2381    5.1982   20.6956 H   0  0  0  0  0  0  0  0  0  0  0  0
   49.9557    8.1528   18.1088 H   0  0  0  0  0  0  0  0  0  0  0  0
   46.3472    9.4199   21.0196 H   0  0  0  0  0  0  0  0  0  0  0  0
   49.5679   10.4925   18.5674 H   0  0  0  0  0  0  0  0  0  0  0  0
   48.2214    9.6776   17.7722 H   0  0  0  0  0  0  0  0  0  0  0  0
   47.3624   11.0865   19.5918 H   0  0  0  0  0  0  0  0  0  0  0  0
   48.4668   10.3608   20.7592 H   0  0  0  0  0  0  0  0  0  0  0  0
   48.9412    6.4858   19.5356 H   0  0  0  0  0  0  0  0  0  0  0  0
   47.8373    7.2128   18.3685 H   0  0  0  0  0  0  0  0  0  0  0  0
   48.0822    7.8954   21.3562 H   0  0  0  0  0  0  0  0  0  0  0  0
   46.7350    7.0807   20.5622 H   0  0  0  0  0  0  0  0  0  0  0  0
  2  1  2  0
  3  1  1  0
  4  5  1  0
  5  3  1  0
  6  2  1  0
  7  1  1  0
  8  2  1  0
  9  7  2  0
 10  8  1  0
 11  5  2  0
 12  6  2  0
 13 10  1  0
 14 13  2  0
 15  3  1  0
 16  4  1  0
 17 13  1  0
  6  4  1  0
  8  9  1  0
 19 18  2  0
 20 18  1  0
 21 22  1  0
 22 20  1  0
 23 19  1  0
 24 18  1  0
 25 19  1  0
 26 24  2  0
 27 25  1  0
 28 22  2  0
 29 23  2  0
 30 27  1  0
 31 30  2  0
 32 20  1  0
 33 21  1  0
 34 30  1  0
 23 21  1  0
 25 26  1  0
 36 40  1  0
 37 35  1  0
 38 37  1  0
 39 35  1  0
 40 39  1  0
 38 36  1  0
  9 41  1  0
 10 42  1  0
 10 43  1  0
 15 44  1  0
 15 45  1  0
 15 46  1  0
 16 47  1  0
 16 48  1  0
 16 49  1  0
 17 50  1  0
 26 51  1  0
 27 52  1  0
 27 53  1  0
 32 54  1  0
 32 55  1  0
 32 56  1  0
 33 57  1  0
 33 58  1  0
 33 59  1  0
 34 60  1  0
 35 61  1  0
 36 62  1  0
 37 63  1  0
 37 64  1  0
 38 65  1  0
 38 66  1  0
 39 67  1  0
 39 68  1  0
 40 69  1  0
 40 70  1  0
M  END
> <Uni-Dock RESULT> 
ENERGY=   -3.949  LOWER_BOUND=    6.963  UPPER_BOUND=    9.457
INTER + INTRA:          -3.949
INTER:                  -3.949
INTRA:                   0.000
UNBOUND:                 0.000

$$$$
