
     RDKit          3D

 70 72  0  0  0  0  0  0  0  0999 V2000
   44.9569    7.3628   11.8223 C   0  0  0  0  0  0  0  0  0  0  0  0
   45.2490    6.0489   12.0273 C   0  0  0  0  0  0  0  0  0  0  0  0
   45.6831    8.3673   12.4145 N   0  0  0  0  0  0  0  0  0  0  0  0
   47.0271    6.6653   13.4309 N   0  0  0  0  0  0  0  0  0  0  0  0
   46.7452    8.0367   13.2572 C   0  0  0  0  0  0  0  0  0  0  0  0
   46.3098    5.6093   12.8635 C   0  0  0  0  0  0  0  0  0  0  0  0
   43.8918    7.5232   10.9890 N   0  0  0  0  0  0  0  0  0  0  0  0
   44.3205    5.3605   11.2974 N   0  0  0  0  0  0  0  0  0  0  0  0
   43.5216    6.2945   10.6880 C   0  0  0  0  0  0  0  0  0  0  0  0
   44.2165    3.9207   11.1357 C   0  0  0  0  0  0  0  0  0  0  0  0
   47.4152    8.8997   13.8323 O   0  0  0  0  0  0  0  0  0  0  0  0
   46.5486    4.4207   13.0537 O   0  0  0  0  0  0  0  0  0  0  0  0
   43.5760    3.2045   12.2932 C   0  0  0  0  0  0  0  0  0  0  0  0
   43.4921    1.9889   12.3972 O   0  0  0  0  0  0  0  0  0  0  0  0
   45.3282    9.7555   12.1826 C   0  0  0  0  0  0  0  0  0  0  0  0
   48.1341    6.3436   14.3102 C   0  0  0  0  0  0  0  0  0  0  0  0
   43.0221    3.9914   13.2337 O   0  0  0  0  0  0  0  0  0  0  0  0
   44.6442    7.3502   12.2634 C   0  0  0  0  0  0  0  0  0  0  0  0
   44.9793    6.0927   12.6635 C   0  0  0  0  0  0  0  0  0  0  0  0
   45.5694    8.3643   12.2109 N   0  0  0  0  0  0  0  0  0  0  0  0
   47.1987    6.7881   12.9841 N   0  0  0  0  0  0  0  0  0  0  0  0
   46.8930    8.1004   12.5656 C   0  0  0  0  0  0  0  0  0  0  0  0
   46.2962    5.7237   13.0479 C   0  0  0  0  0  0  0  0  0  0  0  0
   43.3251    7.4465   11.9394 N   0  0  0  0  0  0  0  0  0  0  0  0
   43.8210    5.3720   12.5770 N   0  0  0  0  0  0  0  0  0  0  0  0
   42.8490    6.2329   12.1341 C   0  0  0  0  0  0  0  0  0  0  0  0
   43.6202    3.9788   12.9354 C   0  0  0  0  0  0  0  0  0  0  0  0
   47.7675    8.9707   12.5181 O   0  0  0  0  0  0  0  0  0  0  0  0
   46.5854    4.5824   13.3940 O   0  0  0  0  0  0  0  0  0  0  0  0
   44.1009    2.9910   11.9075 C   0  0  0  0  0  0  0  0  0  0  0  0
   44.1021    1.7774   12.0585 O   0  0  0  0  0  0  0  0  0  0  0  0
   45.1735    9.6880   11.7659 C   0  0  0  0  0  0  0  0  0  0  0  0
   48.5792    6.5362   13.3480 C   0  0  0  0  0  0  0  0  0  0  0  0
   44.5040    3.5150   10.7356 O   0  0  0  0  0  0  0  0  0  0  0  0
   44.5703    5.0594   11.9603 N   0  0  0  0  0  0  0  0  0  0  0  0
   46.2523    7.3667   12.7692 N   0  0  0  0  0  0  0  0  0  0  0  0
   45.7415    4.9081   12.8439 C   0  0  0  0  0  0  0  0  0  0  0  0
   46.0670    6.1938   13.6348 C   0  0  0  0  0  0  0  0  0  0  0  0
   44.7962    6.2174   11.0754 C   0  0  0  0  0  0  0  0  0  0  0  0
   45.1135    7.5137   11.8523 C   0  0  0  0  0  0  0  0  0  0  0  0
   42.6945    6.0301   10.0407 H   0  0  0  0  0  0  0  0  0  0  0  0
   43.6188    3.7316   10.2379 H   0  0  0  0  0  0  0  0  0  0  0  0
   45.2275    3.5333   10.9787 H   0  0  0  0  0  0  0  0  0  0  0  0
   45.3499    9.9572   11.1069 H   0  0  0  0  0  0  0  0  0  0  0  0
   44.3198    9.9340   12.5692 H   0  0  0  0  0  0  0  0  0  0  0  0
   46.0195   10.4413   12.6792 H   0  0  0  0  0  0  0  0  0  0  0  0
   48.3596    5.2742   14.3253 H   0  0  0  0  0  0  0  0  0  0  0  0
   49.0263    6.8881   13.9839 H   0  0  0  0  0  0  0  0  0  0  0  0
   47.8816    6.6691   15.3249 H   0  0  0  0  0  0  0  0  0  0  0  0
   42.6742    3.3657   13.9046 H   0  0  0  0  0  0  0  0  0  0  0  0
   41.8218    5.9295   11.9737 H   0  0  0  0  0  0  0  0  0  0  0  0
   44.1391    3.8042   13.8825 H   0  0  0  0  0  0  0  0  0  0  0  0
   42.5458    3.8280   13.0841 H   0  0  0  0  0  0  0  0  0  0  0  0
   44.3529   10.0485   12.3941 H   0  0  0  0  0  0  0  0  0  0  0  0
   44.8400    9.6278   10.7252 H   0  0  0  0  0  0  0  0  0  0  0  0
   45.9985   10.4023   11.8278 H   0  0  0  0  0  0  0  0  0  0  0  0
   48.7373    5.5193   13.7159 H   0  0  0  0  0  0  0  0  0  0  0  0
   48.8809    7.2451   14.1262 H   0  0  0  0  0  0  0  0  0  0  0  0
   49.2107    6.6987   12.4685 H   0  0  0  0  0  0  0  0  0  0  0  0
   44.7937    2.7409   10.2068 H   0  0  0  0  0  0  0  0  0  0  0  0
   43.7606    5.2645   12.5449 H   0  0  0  0  0  0  0  0  0  0  0  0
   46.3428    8.2046   13.3415 H   0  0  0  0  0  0  0  0  0  0  0  0
   46.6103    4.6066   12.2456 H   0  0  0  0  0  0  0  0  0  0  0  0
   45.5454    4.0915   13.5476 H   0  0  0  0  0  0  0  0  0  0  0  0
   46.9826    6.0359   14.2149 H   0  0  0  0  0  0  0  0  0  0  0  0
   45.2617    6.3956   14.3523 H   0  0  0  0  0  0  0  0  0  0  0  0
   43.8988    6.3724   10.4662 H   0  0  0  0  0  0  0  0  0  0  0  0
   45.6133    5.9882   10.3800 H   0  0  0  0  0  0  0  0  0  0  0  0
   44.2279    7.8260   12.4200 H   0  0  0  0  0  0  0  0  0  0  0  0
   45.3367    8.3140   11.1385 H   0  0  0  0  0  0  0  0  0  0  0  0
  2  1  2  0
  3  1  1  0
  4  5  1  0
  5  3  1  0
  6  2  1  0
  7  1  1  0
  8  2  1  0
  9  7  2  0
 10  8  1  0
 11  5  2  0
 12  6  2  0
 13 10  1  0
 14 13  2  0
 15  3  1  0
 16  4  1  0
 17 13  1  0
  6  4  1  0
  8  9  1  0
 19 18  2  0
 20 18  1  0
 21 22  1  0
 22 20  1  0
 23 19  1  0
 24 18  1  0
 25 19  1  0
 26 24  2  0
 27 25  1  0
 28 22  2  0
 29 23  2  0
 30 27  1  0
 31 30  2  0
 32 20  1  0
 33 21  1  0
 34 30  1  0
 23 21  1  0
 25 26  1  0
 36 40  1  0
 37 35  1  0
 38 37  1  0
 39 35  1  0
 40 39  1  0
 38 36  1  0
  9 41  1  0
 10 42  1  0
 10 43  1  0
 15 44  1  0
 15 45  1  0
 15 46  1  0
 16 47  1  0
 16 48  1  0
 16 49  1  0
 17 50  1  0
 26 51  1  0
 27 52  1  0
 27 53  1  0
 32 54  1  0
 32 55  1  0
 32 56  1  0
 33 57  1  0
 33 58  1  0
 33 59  1  0
 34 60  1  0
 35 61  1  0
 36 62  1  0
 37 63  1  0
 37 64  1  0
 38 65  1  0
 38 66  1  0
 39 67  1  0
 39 68  1  0
 40 69  1  0
 40 70  1  0
M  END
> <Uni-Dock RESULT> 
ENERGY=   -5.803  LOWER_BOUND=    0.000  UPPER_BOUND=    0.000
INTER + INTRA:          -5.803
INTER:                  -5.803
INTRA:                   0.000
UNBOUND:                 0.000

$$$$

     RDKit          3D

 70 72  0  0  0  0  0  0  0  0999 V2000
   45.7555    8.3098   12.4533 C   0  0  0  0  0  0  0  0  0  0  0  0
   46.5637    7.5093   13.2015 C   0  0  0  0  0  0  0  0  0  0  0  0
   44.7606    7.7945   11.6585 N   0  0  0  0  0  0  0  0  0  0  0  0
   45.4208    5.6179   12.4088 N   0  0  0  0  0  0  0  0  0  0  0  0
   44.5749    6.4123   11.6064 C   0  0  0  0  0  0  0  0  0  0  0  0
   46.4541    6.0931   13.2200 C   0  0  0  0  0  0  0  0  0  0  0  0
   46.0668    9.6273   12.6010 N   0  0  0  0  0  0  0  0  0  0  0  0
   47.4213    8.3640   13.8360 N   0  0  0  0  0  0  0  0  0  0  0  0
   47.0824    9.6333   13.4410 C   0  0  0  0  0  0  0  0  0  0  0  0
   48.4596    8.0226   14.7929 C   0  0  0  0  0  0  0  0  0  0  0  0
   43.7110    5.8963   10.8912 O   0  0  0  0  0  0  0  0  0  0  0  0
   47.2028    5.3837   13.8850 O   0  0  0  0  0  0  0  0  0  0  0  0
   49.7263    7.4905   14.1802 C   0  0  0  0  0  0  0  0  0  0  0  0
   50.6734    7.0496   14.8159 O   0  0  0  0  0  0  0  0  0  0  0  0
   43.9317    8.6820   10.8635 C   0  0  0  0  0  0  0  0  0  0  0  0
   45.2113    4.1849   12.3400 C   0  0  0  0  0  0  0  0  0  0  0  0
   49.8060    7.5707   12.8393 O   0  0  0  0  0  0  0  0  0  0  0  0
   46.0973    8.2477   12.0387 C   0  0  0  0  0  0  0  0  0  0  0  0
   46.8973    7.3159   12.6264 C   0  0  0  0  0  0  0  0  0  0  0  0
   44.7734    7.9994   11.7690 N   0  0  0  0  0  0  0  0  0  0  0  0
   45.0890    5.8210   12.7133 N   0  0  0  0  0  0  0  0  0  0  0  0
   44.2258    6.7634   12.1155 C   0  0  0  0  0  0  0  0  0  0  0  0
   46.4376    6.0285   13.0131 C   0  0  0  0  0  0  0  0  0  0  0  0
   46.7701    9.4015   11.7735 N   0  0  0  0  0  0  0  0  0  0  0  0
   48.1193    7.9178   12.7402 N   0  0  0  0  0  0  0  0  0  0  0  0
   47.9929    9.1776   12.2119 C   0  0  0  0  0  0  0  0  0  0  0  0
   49.3439    7.3362   13.2616 C   0  0  0  0  0  0  0  0  0  0  0  0
   43.0377    6.4959   11.9126 O   0  0  0  0  0  0  0  0  0  0  0  0
   47.1680    5.2038   13.5537 O   0  0  0  0  0  0  0  0  0  0  0  0
   49.4267    7.2897   14.7630 C   0  0  0  0  0  0  0  0  0  0  0  0
   50.3324    6.7609   15.3921 O   0  0  0  0  0  0  0  0  0  0  0  0
   43.9515    9.0252   11.1532 C   0  0  0  0  0  0  0  0  0  0  0  0
   44.4995    4.5440   13.0648 C   0  0  0  0  0  0  0  0  0  0  0  0
   48.4430    7.9271   15.4237 O   0  0  0  0  0  0  0  0  0  0  0  0
   47.6770    7.6694   13.6247 N   0  0  0  0  0  0  0  0  0  0  0  0
   45.2157    6.8199   12.2008 N   0  0  0  0  0  0  0  0  0  0  0  0
   47.3071    6.2500   13.4707 C   0  0  0  0  0  0  0  0  0  0  0  0
   46.4281    5.9900   12.2280 C   0  0  0  0  0  0  0  0  0  0  0  0
   46.4435    8.4777   13.6340 C   0  0  0  0  0  0  0  0  0  0  0  0
   45.5580    8.2360   12.3923 C   0  0  0  0  0  0  0  0  0  0  0  0
   47.5999   10.5175   13.7922 H   0  0  0  0  0  0  0  0  0  0  0  0
   48.7017    8.9303   15.3552 H   0  0  0  0  0  0  0  0  0  0  0  0
   48.0434    7.2788   15.4788 H   0  0  0  0  0  0  0  0  0  0  0  0
   43.4484    9.4095   11.5234 H   0  0  0  0  0  0  0  0  0  0  0  0
   44.5641    9.2061   10.1400 H   0  0  0  0  0  0  0  0  0  0  0  0
   43.1560    8.1367   10.3196 H   0  0  0  0  0  0  0  0  0  0  0  0
   45.8308    3.6366   13.0542 H   0  0  0  0  0  0  0  0  0  0  0  0
   44.1584    3.9624   12.5419 H   0  0  0  0  0  0  0  0  0  0  0  0
   45.4490    3.8443   11.3267 H   0  0  0  0  0  0  0  0  0  0  0  0
   50.6747    7.1708   12.6200 H   0  0  0  0  0  0  0  0  0  0  0  0
   48.8131    9.8836   12.1691 H   0  0  0  0  0  0  0  0  0  0  0  0
   49.4248    6.3225   12.8583 H   0  0  0  0  0  0  0  0  0  0  0  0
   50.1796    7.9368   12.8875 H   0  0  0  0  0  0  0  0  0  0  0  0
   44.4086    9.3331   10.2076 H   0  0  0  0  0  0  0  0  0  0  0  0
   43.8907    9.8844   11.8286 H   0  0  0  0  0  0  0  0  0  0  0  0
   42.9387    8.6681   10.9498 H   0  0  0  0  0  0  0  0  0  0  0  0
   45.2317    3.8413   13.4704 H   0  0  0  0  0  0  0  0  0  0  0  0
   44.0409    4.1024   12.1739 H   0  0  0  0  0  0  0  0  0  0  0  0
   43.7156    4.7111   13.8107 H   0  0  0  0  0  0  0  0  0  0  0  0
   48.6472    7.7786   16.3718 H   0  0  0  0  0  0  0  0  0  0  0  0
   48.2242    7.9414   12.8085 H   0  0  0  0  0  0  0  0  0  0  0  0
   44.7375    6.6997   11.3094 H   0  0  0  0  0  0  0  0  0  0  0  0
   46.7865    5.9110   14.3749 H   0  0  0  0  0  0  0  0  0  0  0  0
   48.2245    5.6559   13.3943 H   0  0  0  0  0  0  0  0  0  0  0  0
   46.1334    4.9352   12.2115 H   0  0  0  0  0  0  0  0  0  0  0  0
   47.0151    6.1749   11.3195 H   0  0  0  0  0  0  0  0  0  0  0  0
   46.7199    9.5370   13.6794 H   0  0  0  0  0  0  0  0  0  0  0  0
   45.8752    8.2611   14.5471 H   0  0  0  0  0  0  0  0  0  0  0  0
   46.0723    8.6096   11.4978 H   0  0  0  0  0  0  0  0  0  0  0  0
   44.6318    8.8118   12.4948 H   0  0  0  0  0  0  0  0  0  0  0  0
  2  1  2  0
  3  1  1  0
  4  5  1  0
  5  3  1  0
  6  2  1  0
  7  1  1  0
  8  2  1  0
  9  7  2  0
 10  8  1  0
 11  5  2  0
 12  6  2  0
 13 10  1  0
 14 13  2  0
 15  3  1  0
 16  4  1  0
 17 13  1  0
  6  4  1  0
  8  9  1  0
 19 18  2  0
 20 18  1  0
 21 22  1  0
 22 20  1  0
 23 19  1  0
 24 18  1  0
 25 19  1  0
 26 24  2  0
 27 25  1  0
 28 22  2  0
 29 23  2  0
 30 27  1  0
 31 30  2  0
 32 20  1  0
 33 21  1  0
 34 30  1  0
 23 21  1  0
 25 26  1  0
 36 40  1  0
 37 35  1  0
 38 37  1  0
 39 35  1  0
 40 39  1  0
 38 36  1  0
  9 41  1  0
 10 42  1  0
 10 43  1  0
 15 44  1  0
 15 45  1  0
 15 46  1  0
 16 47  1  0
 16 48  1  0
 16 49  1  0
 17 50  1  0
 26 51  1  0
 27 52  1  0
 27 53  1  0
 32 54  1  0
 32 55  1  0
 32 56  1  0
 33 57  1  0
 33 58  1  0
 33 59  1  0
 34 60  1  0
 35 61  1  0
 36 62  1  0
 37 63  1  0
 37 64  1  0
 38 65  1  0
 38 66  1  0
 39 67  1  0
 39 68  1  0
 40 69  1  0
 40 70  1  0
M  END
> <Uni-Dock RESULT> 
ENERGY=   -5.721  LOWER_BOUND=    1.643  UPPER_BOUND=    4.538
INTER + INTRA:          -5.721
INTER:                  -5.721
INTRA:                   0.000
UNBOUND:                 0.000

$$$$

     RDKit          3D

 70 72  0  0  0  0  0  0  0  0999 V2000
   46.0507    8.8068   12.3393 C   0  0  0  0  0  0  0  0  0  0  0  0
   44.8669    8.1865   12.0791 C   0  0  0  0  0  0  0  0  0  0  0  0
   46.2984   10.0950   11.9318 N   0  0  0  0  0  0  0  0  0  0  0  0
   44.0970   10.1178   10.9886 N   0  0  0  0  0  0  0  0  0  0  0  0
   45.3159   10.7883   11.2236 C   0  0  0  0  0  0  0  0  0  0  0  0
   43.8039    8.8060   11.3690 C   0  0  0  0  0  0  0  0  0  0  0  0
   46.9075    8.0004   13.0250 N   0  0  0  0  0  0  0  0  0  0  0  0
   44.9946    6.9368   12.6180 N   0  0  0  0  0  0  0  0  0  0  0  0
   46.2453    6.8711   13.1780 C   0  0  0  0  0  0  0  0  0  0  0  0
   43.9929    5.8855   12.6550 C   0  0  0  0  0  0  0  0  0  0  0  0
   45.4957   11.9392   10.8145 O   0  0  0  0  0  0  0  0  0  0  0  0
   42.7497    8.2269   11.1254 O   0  0  0  0  0  0  0  0  0  0  0  0
   43.8390    5.1208   11.3687 C   0  0  0  0  0  0  0  0  0  0  0  0
   42.9818    4.2732   11.1629 O   0  0  0  0  0  0  0  0  0  0  0  0
   47.5803   10.7139   12.2153 C   0  0  0  0  0  0  0  0  0  0  0  0
   43.0900   10.8556   10.2513 C   0  0  0  0  0  0  0  0  0  0  0  0
   44.7598    5.3778   10.4217 O   0  0  0  0  0  0  0  0  0  0  0  0
   46.2321    8.6366   11.8591 C   0  0  0  0  0  0  0  0  0  0  0  0
   45.0548    8.1153   11.4165 C   0  0  0  0  0  0  0  0  0  0  0  0
   46.3791    9.9780   12.1166 N   0  0  0  0  0  0  0  0  0  0  0  0
   44.0917   10.2560   11.4630 N   0  0  0  0  0  0  0  0  0  0  0  0
   45.2912   10.8322   11.9319 C   0  0  0  0  0  0  0  0  0  0  0  0
   43.8916    8.8999   11.1936 C   0  0  0  0  0  0  0  0  0  0  0  0
   47.1906    7.6799   12.0015 N   0  0  0  0  0  0  0  0  0  0  0  0
   45.2869    6.7746   11.2856 N   0  0  0  0  0  0  0  0  0  0  0  0
   46.5915    6.5592   11.6515 C   0  0  0  0  0  0  0  0  0  0  0  0
   44.3649    5.7632   10.7990 C   0  0  0  0  0  0  0  0  0  0  0  0
   45.3640   12.0422   12.1666 O   0  0  0  0  0  0  0  0  0  0  0  0
   42.8336    8.4132   10.8066 O   0  0  0  0  0  0  0  0  0  0  0  0
   43.3457    5.3064   11.8069 C   0  0  0  0  0  0  0  0  0  0  0  0
   42.4317    4.5300   11.5668 O   0  0  0  0  0  0  0  0  0  0  0  0
   47.6479   10.4913   12.6000 C   0  0  0  0  0  0  0  0  0  0  0  0
   42.9747   11.1614   11.2780 C   0  0  0  0  0  0  0  0  0  0  0  0
   43.5138    5.7675   13.0597 O   0  0  0  0  0  0  0  0  0  0  0  0
   44.5793    7.0243   11.9759 N   0  0  0  0  0  0  0  0  0  0  0  0
   45.1597    9.9084   11.5860 N   0  0  0  0  0  0  0  0  0  0  0  0
   43.6570    7.9224   11.2562 C   0  0  0  0  0  0  0  0  0  0  0  0
   44.3733    9.1321   10.6174 C   0  0  0  0  0  0  0  0  0  0  0  0
   45.3283    7.8176   12.9682 C   0  0  0  0  0  0  0  0  0  0  0  0
   46.0585    9.0261   12.3430 C   0  0  0  0  0  0  0  0  0  0  0  0
   46.6198    5.9884   13.6814 H   0  0  0  0  0  0  0  0  0  0  0  0
   44.2810    5.1825   13.4434 H   0  0  0  0  0  0  0  0  0  0  0  0
   43.0388    6.3493   12.9224 H   0  0  0  0  0  0  0  0  0  0  0  0
   47.7567   10.6968   13.2955 H   0  0  0  0  0  0  0  0  0  0  0  0
   48.3679   10.1497   11.7059 H   0  0  0  0  0  0  0  0  0  0  0  0
   47.6165   11.7515   11.8733 H   0  0  0  0  0  0  0  0  0  0  0  0
   42.1403   10.3184   10.1876 H   0  0  0  0  0  0  0  0  0  0  0  0
   42.9179   11.8207   10.7392 H   0  0  0  0  0  0  0  0  0  0  0  0
   43.4632   11.0414    9.2386 H   0  0  0  0  0  0  0  0  0  0  0  0
   44.4975    4.8128    9.6636 H   0  0  0  0  0  0  0  0  0  0  0  0
   47.0514    5.5787   11.6433 H   0  0  0  0  0  0  0  0  0  0  0  0
   43.8553    6.1761    9.9235 H   0  0  0  0  0  0  0  0  0  0  0  0
   44.9588    4.8965   10.4905 H   0  0  0  0  0  0  0  0  0  0  0  0
   48.4381   10.2225   11.8920 H   0  0  0  0  0  0  0  0  0  0  0  0
   47.8625   10.0454   13.5763 H   0  0  0  0  0  0  0  0  0  0  0  0
   47.6328   11.5788   12.7080 H   0  0  0  0  0  0  0  0  0  0  0  0
   42.0958   10.6638   10.8605 H   0  0  0  0  0  0  0  0  0  0  0  0
   43.2759   11.9712   10.6051 H   0  0  0  0  0  0  0  0  0  0  0  0
   42.7102   11.5973   12.2469 H   0  0  0  0  0  0  0  0  0  0  0  0
   42.7625    5.3883   13.5642 H   0  0  0  0  0  0  0  0  0  0  0  0
   45.2477    6.6543   11.3008 H   0  0  0  0  0  0  0  0  0  0  0  0
   45.7051   10.6161   11.0967 H   0  0  0  0  0  0  0  0  0  0  0  0
   42.8778    8.2701   11.9458 H   0  0  0  0  0  0  0  0  0  0  0  0
   43.1503    7.3482   10.4726 H   0  0  0  0  0  0  0  0  0  0  0  0
   43.6267    9.7910   10.1611 H   0  0  0  0  0  0  0  0  0  0  0  0
   45.0315    8.7838    9.8115 H   0  0  0  0  0  0  0  0  0  0  0  0
   46.0617    7.1657   13.4556 H   0  0  0  0  0  0  0  0  0  0  0  0
   44.6411    8.1599   13.7519 H   0  0  0  0  0  0  0  0  0  0  0  0
   46.8581    8.6685   11.6819 H   0  0  0  0  0  0  0  0  0  0  0  0
   46.5355    9.6080   13.1390 H   0  0  0  0  0  0  0  0  0  0  0  0
  2  1  2  0
  3  1  1  0
  4  5  1  0
  5  3  1  0
  6  2  1  0
  7  1  1  0
  8  2  1  0
  9  7  2  0
 10  8  1  0
 11  5  2  0
 12  6  2  0
 13 10  1  0
 14 13  2  0
 15  3  1  0
 16  4  1  0
 17 13  1  0
  6  4  1  0
  8  9  1  0
 19 18  2  0
 20 18  1  0
 21 22  1  0
 22 20  1  0
 23 19  1  0
 24 18  1  0
 25 19  1  0
 26 24  2  0
 27 25  1  0
 28 22  2  0
 29 23  2  0
 30 27  1  0
 31 30  2  0
 32 20  1  0
 33 21  1  0
 34 30  1  0
 23 21  1  0
 25 26  1  0
 36 40  1  0
 37 35  1  0
 38 37  1  0
 39 35  1  0
 40 39  1  0
 38 36  1  0
  9 41  1  0
 10 42  1  0
 10 43  1  0
 15 44  1  0
 15 45  1  0
 15 46  1  0
 16 47  1  0
 16 48  1  0
 16 49  1  0
 17 50  1  0
 26 51  1  0
 27 52  1  0
 27 53  1  0
 32 54  1  0
 32 55  1  0
 32 56  1  0
 33 57  1  0
 33 58  1  0
 33 59  1  0
 34 60  1  0
 35 61  1  0
 36 62  1  0
 37 63  1  0
 37 64  1  0
 38 65  1  0
 38 66  1  0
 39 67  1  0
 39 68  1  0
 40 69  1  0
 40 70  1  0
M  END
> <Uni-Dock RESULT> 
ENERGY=   -5.563  LOWER_BOUND=    2.111  UPPER_BOUND=    3.774
INTER + INTRA:          -5.563
INTER:                  -5.563
INTRA:                   0.000
UNBOUND:                 0.000

$$$$

     RDKit          3D

 70 72  0  0  0  0  0  0  0  0999 V2000
   47.3341    5.8631   13.3196 C   0  0  0  0  0  0  0  0  0  0  0  0
   46.9913    6.9673   12.6005 C   0  0  0  0  0  0  0  0  0  0  0  0
   46.4383    4.8506   13.5634 N   0  0  0  0  0  0  0  0  0  0  0  0
   44.8256    6.1069   12.3155 N   0  0  0  0  0  0  0  0  0  0  0  0
   45.1371    4.9562   13.0699 C   0  0  0  0  0  0  0  0  0  0  0  0
   45.6956    7.1681   12.0538 C   0  0  0  0  0  0  0  0  0  0  0  0
   48.6282    5.9119   13.7408 N   0  0  0  0  0  0  0  0  0  0  0  0
   48.1176    7.7417   12.5801 N   0  0  0  0  0  0  0  0  0  0  0  0
   49.0801    7.0623   13.2831 C   0  0  0  0  0  0  0  0  0  0  0  0
   48.3016    9.0132   11.9023 C   0  0  0  0  0  0  0  0  0  0  0  0
   44.2868    4.0860   13.2798 O   0  0  0  0  0  0  0  0  0  0  0  0
   45.3963    8.1779   11.4241 O   0  0  0  0  0  0  0  0  0  0  0  0
   47.7159   10.1975   12.6217 C   0  0  0  0  0  0  0  0  0  0  0  0
   47.6719   11.3328   12.1691 O   0  0  0  0  0  0  0  0  0  0  0  0
   46.8395    3.6979   14.3489 C   0  0  0  0  0  0  0  0  0  0  0  0
   43.4689    6.1969   11.8122 C   0  0  0  0  0  0  0  0  0  0  0  0
   47.2669    9.9615   13.8680 O   0  0  0  0  0  0  0  0  0  0  0  0
   47.1516    6.1105   13.7646 C   0  0  0  0  0  0  0  0  0  0  0  0
   46.6247    7.1995   13.1401 C   0  0  0  0  0  0  0  0  0  0  0  0
   46.6702    4.8435   13.5407 N   0  0  0  0  0  0  0  0  0  0  0  0
   45.0941    5.8147   12.0210 N   0  0  0  0  0  0  0  0  0  0  0  0
   45.6196    4.6611   12.6405 C   0  0  0  0  0  0  0  0  0  0  0  0
   45.5530    7.1205   12.2108 C   0  0  0  0  0  0  0  0  0  0  0  0
   48.1735    6.4475   14.5992 N   0  0  0  0  0  0  0  0  0  0  0  0
   47.3552    8.2600   13.5985 N   0  0  0  0  0  0  0  0  0  0  0  0
   48.2800    7.7556   14.4775 C   0  0  0  0  0  0  0  0  0  0  0  0
   47.1687    9.6642   13.2773 C   0  0  0  0  0  0  0  0  0  0  0  0
   45.1624    3.5422   12.3888 O   0  0  0  0  0  0  0  0  0  0  0  0
   45.0972    8.1102   11.6462 O   0  0  0  0  0  0  0  0  0  0  0  0
   47.7301   10.0832   11.9460 C   0  0  0  0  0  0  0  0  0  0  0  0
   47.5988   11.1963   11.4566 O   0  0  0  0  0  0  0  0  0  0  0  0
   47.2692    3.7075   14.2172 C   0  0  0  0  0  0  0  0  0  0  0  0
   44.0035    5.6023   11.0899 C   0  0  0  0  0  0  0  0  0  0  0  0
   48.4625    9.1565   11.3016 O   0  0  0  0  0  0  0  0  0  0  0  0
   47.4295    8.0863   12.5966 N   0  0  0  0  0  0  0  0  0  0  0  0
   45.8158    5.6103   12.8661 N   0  0  0  0  0  0  0  0  0  0  0  0
   46.0335    8.0020   12.1285 C   0  0  0  0  0  0  0  0  0  0  0  0
   45.2059    6.9470   12.8945 C   0  0  0  0  0  0  0  0  0  0  0  0
   48.0317    6.7422   12.5220 C   0  0  0  0  0  0  0  0  0  0  0  0
   47.2206    5.6773   13.2917 C   0  0  0  0  0  0  0  0  0  0  0  0
   50.0829    7.4443   13.4289 H   0  0  0  0  0  0  0  0  0  0  0  0
   49.3787    9.1745   11.7898 H   0  0  0  0  0  0  0  0  0  0  0  0
   47.8488    8.9259   10.9103 H   0  0  0  0  0  0  0  0  0  0  0  0
   47.7097    3.2283   13.8794 H   0  0  0  0  0  0  0  0  0  0  0  0
   47.1015    4.0294   15.3586 H   0  0  0  0  0  0  0  0  0  0  0  0
   46.0402    2.9557   14.4209 H   0  0  0  0  0  0  0  0  0  0  0  0
   43.3213    7.0603   11.1586 H   0  0  0  0  0  0  0  0  0  0  0  0
   43.2281    5.2861   11.2541 H   0  0  0  0  0  0  0  0  0  0  0  0
   42.7838    6.2727   12.6632 H   0  0  0  0  0  0  0  0  0  0  0  0
   46.9129   10.8253   14.1698 H   0  0  0  0  0  0  0  0  0  0  0  0
   48.9983    8.3771   14.9979 H   0  0  0  0  0  0  0  0  0  0  0  0
   46.0942    9.8680   13.3028 H   0  0  0  0  0  0  0  0  0  0  0  0
   47.6616   10.2500   14.0604 H   0  0  0  0  0  0  0  0  0  0  0  0
   47.2266    3.8693   15.2989 H   0  0  0  0  0  0  0  0  0  0  0  0
   48.3129    3.6156   13.9006 H   0  0  0  0  0  0  0  0  0  0  0  0
   46.7498    2.7744   13.9844 H   0  0  0  0  0  0  0  0  0  0  0  0
   43.6056    6.5380   10.6891 H   0  0  0  0  0  0  0  0  0  0  0  0
   43.1968    5.0636   11.5980 H   0  0  0  0  0  0  0  0  0  0  0  0
   44.3633    4.9845   10.2607 H   0  0  0  0  0  0  0  0  0  0  0  0
   48.7254    9.5910   10.4621 H   0  0  0  0  0  0  0  0  0  0  0  0
   47.4155    8.3699   13.5758 H   0  0  0  0  0  0  0  0  0  0  0  0
   45.2996    4.9845   13.4823 H   0  0  0  0  0  0  0  0  0  0  0  0
   46.0242    7.7773   11.0547 H   0  0  0  0  0  0  0  0  0  0  0  0
   45.5644    8.9849   12.2483 H   0  0  0  0  0  0  0  0  0  0  0  0
   44.2050    6.8870   12.4536 H   0  0  0  0  0  0  0  0  0  0  0  0
   45.0805    7.2667   13.9367 H   0  0  0  0  0  0  0  0  0  0  0  0
   49.0461    6.7901   12.9334 H   0  0  0  0  0  0  0  0  0  0  0  0
   48.1322    6.4480   11.4698 H   0  0  0  0  0  0  0  0  0  0  0  0
   47.2645    5.8908   14.3673 H   0  0  0  0  0  0  0  0  0  0  0  0
   47.6821    4.6956   13.1396 H   0  0  0  0  0  0  0  0  0  0  0  0
  2  1  2  0
  3  1  1  0
  4  5  1  0
  5  3  1  0
  6  2  1  0
  7  1  1  0
  8  2  1  0
  9  7  2  0
 10  8  1  0
 11  5  2  0
 12  6  2  0
 13 10  1  0
 14 13  2  0
 15  3  1  0
 16  4  1  0
 17 13  1  0
  6  4  1  0
  8  9  1  0
 19 18  2  0
 20 18  1  0
 21 22  1  0
 22 20  1  0
 23 19  1  0
 24 18  1  0
 25 19  1  0
 26 24  2  0
 27 25  1  0
 28 22  2  0
 29 23  2  0
 30 27  1  0
 31 30  2  0
 32 20  1  0
 33 21  1  0
 34 30  1  0
 23 21  1  0
 25 26  1  0
 36 40  1  0
 37 35  1  0
 38 37  1  0
 39 35  1  0
 40 39  1  0
 38 36  1  0
  9 41  1  0
 10 42  1  0
 10 43  1  0
 15 44  1  0
 15 45  1  0
 15 46  1  0
 16 47  1  0
 16 48  1  0
 16 49  1  0
 17 50  1  0
 26 51  1  0
 27 52  1  0
 27 53  1  0
 32 54  1  0
 32 55  1  0
 32 56  1  0
 33 57  1  0
 33 58  1  0
 33 59  1  0
 34 60  1  0
 35 61  1  0
 36 62  1  0
 37 63  1  0
 37 64  1  0
 38 65  1  0
 38 66  1  0
 39 67  1  0
 39 68  1  0
 40 69  1  0
 40 70  1  0
M  END
> <Uni-Dock RESULT> 
ENERGY=   -5.530  LOWER_BOUND=    1.584  UPPER_BOUND=    5.287
INTER + INTRA:          -5.530
INTER:                  -5.530
INTRA:                   0.000
UNBOUND:                 0.000

$$$$

     RDKit          3D

 70 72  0  0  0  0  0  0  0  0999 V2000
   44.2724    3.6612   11.6538 C   0  0  0  0  0  0  0  0  0  0  0  0
   45.0055    4.7405   11.2649 C   0  0  0  0  0  0  0  0  0  0  0  0
   43.9136    2.6726   10.7700 N   0  0  0  0  0  0  0  0  0  0  0  0
   45.0744    3.9014    9.0733 N   0  0  0  0  0  0  0  0  0  0  0  0
   44.3016    2.7774    9.4336 C   0  0  0  0  0  0  0  0  0  0  0  0
   45.4508    4.9383    9.9305 C   0  0  0  0  0  0  0  0  0  0  0  0
   43.9622    3.7077   12.9790 N   0  0  0  0  0  0  0  0  0  0  0  0
   45.1510    5.4968   12.3942 N   0  0  0  0  0  0  0  0  0  0  0  0
   44.5028    4.8321   13.4042 C   0  0  0  0  0  0  0  0  0  0  0  0
   45.8936    6.7372   12.5356 C   0  0  0  0  0  0  0  0  0  0  0  0
   43.9862    1.9290    8.5939 O   0  0  0  0  0  0  0  0  0  0  0  0
   46.0947    5.9263    9.5912 O   0  0  0  0  0  0  0  0  0  0  0  0
   45.1777    7.9580   12.0254 C   0  0  0  0  0  0  0  0  0  0  0  0
   45.6715    9.0747   11.9567 O   0  0  0  0  0  0  0  0  0  0  0  0
   43.1172    1.5466   11.2222 C   0  0  0  0  0  0  0  0  0  0  0  0
   45.4668    3.9912    7.6805 C   0  0  0  0  0  0  0  0  0  0  0  0
   43.8898    7.7788   11.6792 O   0  0  0  0  0  0  0  0  0  0  0  0
   43.8243    3.9289   11.5120 C   0  0  0  0  0  0  0  0  0  0  0  0
   44.4475    4.9996   10.9472 C   0  0  0  0  0  0  0  0  0  0  0  0
   43.9551    2.6612   10.9992 N   0  0  0  0  0  0  0  0  0  0  0  0
   45.3778    3.5938    9.3130 N   0  0  0  0  0  0  0  0  0  0  0  0
   44.7570    2.4583    9.8752 C   0  0  0  0  0  0  0  0  0  0  0  0
   45.2807    4.8992    9.8009 C   0  0  0  0  0  0  0  0  0  0  0  0
   43.0919    4.2840   12.6036 N   0  0  0  0  0  0  0  0  0  0  0  0
   44.0952    6.0667   11.7254 N   0  0  0  0  0  0  0  0  0  0  0  0
   43.2758    5.5845   12.7144 C   0  0  0  0  0  0  0  0  0  0  0  0
   44.4575    7.4596   11.5287 C   0  0  0  0  0  0  0  0  0  0  0  0
   44.9236    1.3371    9.3859 O   0  0  0  0  0  0  0  0  0  0  0  0
   45.8460    5.8720    9.3109 O   0  0  0  0  0  0  0  0  0  0  0  0
   45.8469    7.8164   11.9819 C   0  0  0  0  0  0  0  0  0  0  0  0
   46.3692    8.9108   11.8229 O   0  0  0  0  0  0  0  0  0  0  0  0
   43.2843    1.5446   11.6395 C   0  0  0  0  0  0  0  0  0  0  0  0
   46.2058    3.3603    8.1462 C   0  0  0  0  0  0  0  0  0  0  0  0
   46.5110    6.8539   12.6474 O   0  0  0  0  0  0  0  0  0  0  0  0
   45.0918    5.8519   11.7139 N   0  0  0  0  0  0  0  0  0  0  0  0
   44.5877    3.4128   10.1002 N   0  0  0  0  0  0  0  0  0  0  0  0
   45.4388    5.7694   10.2828 C   0  0  0  0  0  0  0  0  0  0  0  0
   44.5640    4.7584    9.5101 C   0  0  0  0  0  0  0  0  0  0  0  0
   45.1606    4.4971   12.2925 C   0  0  0  0  0  0  0  0  0  0  0  0
   44.2830    3.4761   11.5363 C   0  0  0  0  0  0  0  0  0  0  0  0
   44.4564    5.2048   14.4200 H   0  0  0  0  0  0  0  0  0  0  0  0
   46.1016    6.8779   13.6013 H   0  0  0  0  0  0  0  0  0  0  0  0
   46.8403    6.6169   12.0006 H   0  0  0  0  0  0  0  0  0  0  0  0
   43.6374    1.0457   12.0449 H   0  0  0  0  0  0  0  0  0  0  0  0
   42.1472    1.9144   11.5712 H   0  0  0  0  0  0  0  0  0  0  0  0
   42.9487    0.8197   10.4234 H   0  0  0  0  0  0  0  0  0  0  0  0
   46.1411    4.8297    7.4887 H   0  0  0  0  0  0  0  0  0  0  0  0
   45.9651    3.0623    7.3837 H   0  0  0  0  0  0  0  0  0  0  0  0
   44.5659    4.1112    7.0696 H   0  0  0  0  0  0  0  0  0  0  0  0
   43.5955    8.6592   11.3615 H   0  0  0  0  0  0  0  0  0  0  0  0
   42.8428    6.2157   13.4807 H   0  0  0  0  0  0  0  0  0  0  0  0
   44.3516    7.6800   10.4625 H   0  0  0  0  0  0  0  0  0  0  0  0
   43.7428    8.0689   12.0918 H   0  0  0  0  0  0  0  0  0  0  0  0
   42.2105    1.7503   11.6891 H   0  0  0  0  0  0  0  0  0  0  0  0
   43.6823    1.4246   12.6521 H   0  0  0  0  0  0  0  0  0  0  0  0
   43.4346    0.6106   11.0919 H   0  0  0  0  0  0  0  0  0  0  0  0
   46.6105    4.2848    7.7269 H   0  0  0  0  0  0  0  0  0  0  0  0
   45.6109    2.8543    7.3786 H   0  0  0  0  0  0  0  0  0  0  0  0
   47.0358    2.7043    8.4286 H   0  0  0  0  0  0  0  0  0  0  0  0
   47.3866    7.2504   12.8444 H   0  0  0  0  0  0  0  0  0  0  0  0
   44.1274    6.1748   11.7848 H   0  0  0  0  0  0  0  0  0  0  0  0
   43.9056    2.8199    9.6302 H   0  0  0  0  0  0  0  0  0  0  0  0
   46.4980    5.5020   10.1816 H   0  0  0  0  0  0  0  0  0  0  0  0
   45.3212    6.7632    9.8366 H   0  0  0  0  0  0  0  0  0  0  0  0
   44.9176    4.6955    8.4753 H   0  0  0  0  0  0  0  0  0  0  0  0
   43.5291    5.1215    9.4756 H   0  0  0  0  0  0  0  0  0  0  0  0
   44.8369    4.5466   13.3381 H   0  0  0  0  0  0  0  0  0  0  0  0
   46.2044    4.1594   12.3016 H   0  0  0  0  0  0  0  0  0  0  0  0
   43.2245    3.7319   11.6721 H   0  0  0  0  0  0  0  0  0  0  0  0
   44.4322    2.4824   11.9724 H   0  0  0  0  0  0  0  0  0  0  0  0
  2  1  2  0
  3  1  1  0
  4  5  1  0
  5  3  1  0
  6  2  1  0
  7  1  1  0
  8  2  1  0
  9  7  2  0
 10  8  1  0
 11  5  2  0
 12  6  2  0
 13 10  1  0
 14 13  2  0
 15  3  1  0
 16  4  1  0
 17 13  1  0
  6  4  1  0
  8  9  1  0
 19 18  2  0
 20 18  1  0
 21 22  1  0
 22 20  1  0
 23 19  1  0
 24 18  1  0
 25 19  1  0
 26 24  2  0
 27 25  1  0
 28 22  2  0
 29 23  2  0
 30 27  1  0
 31 30  2  0
 32 20  1  0
 33 21  1  0
 34 30  1  0
 23 21  1  0
 25 26  1  0
 36 40  1  0
 37 35  1  0
 38 37  1  0
 39 35  1  0
 40 39  1  0
 38 36  1  0
  9 41  1  0
 10 42  1  0
 10 43  1  0
 15 44  1  0
 15 45  1  0
 15 46  1  0
 16 47  1  0
 16 48  1  0
 16 49  1  0
 17 50  1  0
 26 51  1  0
 27 52  1  0
 27 53  1  0
 32 54  1  0
 32 55  1  0
 32 56  1  0
 33 57  1  0
 33 58  1  0
 33 59  1  0
 34 60  1  0
 35 61  1  0
 36 62  1  0
 37 63  1  0
 37 64  1  0
 38 65  1  0
 38 66  1  0
 39 67  1  0
 39 68  1  0
 40 69  1  0
 40 70  1  0
M  END
> <Uni-Dock RESULT> 
ENERGY=   -5.443  LOWER_BOUND=    2.052  UPPER_BOUND=    5.165
INTER + INTRA:          -5.443
INTER:                  -5.443
INTRA:                   0.000
UNBOUND:                 0.000

$$$$

     RDKit          3D

 70 72  0  0  0  0  0  0  0  0999 V2000
   50.4134    4.5759   19.4832 C   0  0  0  0  0  0  0  0  0  0  0  0
   49.1659    4.5961   18.9381 C   0  0  0  0  0  0  0  0  0  0  0  0
   50.6863    5.1721   20.6903 N   0  0  0  0  0  0  0  0  0  0  0  0
   48.3797    5.8098   20.7876 N   0  0  0  0  0  0  0  0  0  0  0  0
   49.6616    5.8254   21.3766 C   0  0  0  0  0  0  0  0  0  0  0  0
   48.0567    5.2313   19.5578 C   0  0  0  0  0  0  0  0  0  0  0  0
   51.3032    3.9139   18.6929 N   0  0  0  0  0  0  0  0  0  0  0  0
   49.2852    3.9255   17.7529 N   0  0  0  0  0  0  0  0  0  0  0  0
   50.5956    3.5328   17.6483 C   0  0  0  0  0  0  0  0  0  0  0  0
   48.2309    3.6234   16.8004 C   0  0  0  0  0  0  0  0  0  0  0  0
   49.8580    6.3967   22.4533 O   0  0  0  0  0  0  0  0  0  0  0  0
   46.9422    5.2576   19.0446 O   0  0  0  0  0  0  0  0  0  0  0  0
   47.8452    4.7709   15.9074 C   0  0  0  0  0  0  0  0  0  0  0  0
   46.9127    4.7523   15.1164 O   0  0  0  0  0  0  0  0  0  0  0  0
   52.0339    5.1419   21.2285 C   0  0  0  0  0  0  0  0  0  0  0  0
   47.3297    6.4940   21.5166 C   0  0  0  0  0  0  0  0  0  0  0  0
   48.6372    5.8566   15.9751 O   0  0  0  0  0  0  0  0  0  0  0  0
   50.5131    5.0506   19.2440 C   0  0  0  0  0  0  0  0  0  0  0  0
   49.2527    5.2635   18.7752 C   0  0  0  0  0  0  0  0  0  0  0  0
   50.7844    4.9864   20.5891 N   0  0  0  0  0  0  0  0  0  0  0  0
   48.4511    5.3602   20.9798 N   0  0  0  0  0  0  0  0  0  0  0  0
   49.7407    5.1313   21.5042 C   0  0  0  0  0  0  0  0  0  0  0  0
   48.1246    5.4272   19.6231 C   0  0  0  0  0  0  0  0  0  0  0  0
   51.4160    4.9171   18.2335 N   0  0  0  0  0  0  0  0  0  0  0  0
   49.3738    5.2537   17.4137 N   0  0  0  0  0  0  0  0  0  0  0  0
   50.6998    5.0401   17.1338 C   0  0  0  0  0  0  0  0  0  0  0  0
   48.3265    5.4819   16.4333 C   0  0  0  0  0  0  0  0  0  0  0  0
   49.9268    5.0630   22.7228 O   0  0  0  0  0  0  0  0  0  0  0  0
   46.9923    5.6056   19.1850 O   0  0  0  0  0  0  0  0  0  0  0  0
   47.4327    4.2979   16.1831 C   0  0  0  0  0  0  0  0  0  0  0  0
   46.4441    4.3145   15.4633 O   0  0  0  0  0  0  0  0  0  0  0  0
   52.1403    4.7446   21.0471 C   0  0  0  0  0  0  0  0  0  0  0  0
   47.3821    5.5080   21.9478 C   0  0  0  0  0  0  0  0  0  0  0  0
   47.8074    3.1469   16.7705 O   0  0  0  0  0  0  0  0  0  0  0  0
   48.7896    4.5126   17.7999 N   0  0  0  0  0  0  0  0  0  0  0  0
   49.5001    5.3372   20.5607 N   0  0  0  0  0  0  0  0  0  0  0  0
   47.8366    5.2111   18.6824 C   0  0  0  0  0  0  0  0  0  0  0  0
   48.5340    6.0869   19.7459 C   0  0  0  0  0  0  0  0  0  0  0  0
   49.7233    3.7369   18.6374 C   0  0  0  0  0  0  0  0  0  0  0  0
   50.4363    4.6010   19.7001 C   0  0  0  0  0  0  0  0  0  0  0  0
   50.9780    2.9763   16.8016 H   0  0  0  0  0  0  0  0  0  0  0  0
   48.5806    2.7978   16.1718 H   0  0  0  0  0  0  0  0  0  0  0  0
   47.3576    3.2923   17.3702 H   0  0  0  0  0  0  0  0  0  0  0  0
   52.3603    4.1012   21.3220 H   0  0  0  0  0  0  0  0  0  0  0  0
   52.7017    5.6760   20.5453 H   0  0  0  0  0  0  0  0  0  0  0  0
   52.0903    5.6139   22.2128 H   0  0  0  0  0  0  0  0  0  0  0  0
   46.3469    6.3626   21.0569 H   0  0  0  0  0  0  0  0  0  0  0  0
   47.2934    6.1133   22.5427 H   0  0  0  0  0  0  0  0  0  0  0  0
   47.5668    7.5626   21.5519 H   0  0  0  0  0  0  0  0  0  0  0  0
   48.2328    6.4956   15.3500 H   0  0  0  0  0  0  0  0  0  0  0  0
   51.0874    4.9855   16.1240 H   0  0  0  0  0  0  0  0  0  0  0  0
   47.7264    6.3270   16.7831 H   0  0  0  0  0  0  0  0  0  0  0  0
   48.8115    5.7546   15.4901 H   0  0  0  0  0  0  0  0  0  0  0  0
   52.8023    5.5116   20.6331 H   0  0  0  0  0  0  0  0  0  0  0  0
   52.4612    3.7570   20.7010 H   0  0  0  0  0  0  0  0  0  0  0  0
   52.2134    4.7737   22.1373 H   0  0  0  0  0  0  0  0  0  0  0  0
   46.4215    5.7388   21.4804 H   0  0  0  0  0  0  0  0  0  0  0  0
   47.6380    6.3117   22.6462 H   0  0  0  0  0  0  0  0  0  0  0  0
   47.2876    4.5754   22.5136 H   0  0  0  0  0  0  0  0  0  0  0  0
   47.1117    2.5033   16.5165 H   0  0  0  0  0  0  0  0  0  0  0  0
   49.3292    5.2184   17.2996 H   0  0  0  0  0  0  0  0  0  0  0  0
   50.0164    5.9801   21.1589 H   0  0  0  0  0  0  0  0  0  0  0  0
   47.1882    4.4735   19.1716 H   0  0  0  0  0  0  0  0  0  0  0  0
   47.1864    5.8416   18.0658 H   0  0  0  0  0  0  0  0  0  0  0  0
   47.7759    6.5196   20.4076 H   0  0  0  0  0  0  0  0  0  0  0  0
   49.0463    6.9227   19.2529 H   0  0  0  0  0  0  0  0  0  0  0  0
   50.4733    3.2727   17.9873 H   0  0  0  0  0  0  0  0  0  0  0  0
   49.1787    2.9183   19.1244 H   0  0  0  0  0  0  0  0  0  0  0  0
   51.1082    5.3120   19.2027 H   0  0  0  0  0  0  0  0  0  0  0  0
   51.0594    3.9553   20.3283 H   0  0  0  0  0  0  0  0  0  0  0  0
  2  1  2  0
  3  1  1  0
  4  5  1  0
  5  3  1  0
  6  2  1  0
  7  1  1  0
  8  2  1  0
  9  7  2  0
 10  8  1  0
 11  5  2  0
 12  6  2  0
 13 10  1  0
 14 13  2  0
 15  3  1  0
 16  4  1  0
 17 13  1  0
  6  4  1  0
  8  9  1  0
 19 18  2  0
 20 18  1  0
 21 22  1  0
 22 20  1  0
 23 19  1  0
 24 18  1  0
 25 19  1  0
 26 24  2  0
 27 25  1  0
 28 22  2  0
 29 23  2  0
 30 27  1  0
 31 30  2  0
 32 20  1  0
 33 21  1  0
 34 30  1  0
 23 21  1  0
 25 26  1  0
 36 40  1  0
 37 35  1  0
 38 37  1  0
 39 35  1  0
 40 39  1  0
 38 36  1  0
  9 41  1  0
 10 42  1  0
 10 43  1  0
 15 44  1  0
 15 45  1  0
 15 46  1  0
 16 47  1  0
 16 48  1  0
 16 49  1  0
 17 50  1  0
 26 51  1  0
 27 52  1  0
 27 53  1  0
 32 54  1  0
 32 55  1  0
 32 56  1  0
 33 57  1  0
 33 58  1  0
 33 59  1  0
 34 60  1  0
 35 61  1  0
 36 62  1  0
 37 63  1  0
 37 64  1  0
 38 65  1  0
 38 66  1  0
 39 67  1  0
 39 68  1  0
 40 69  1  0
 40 70  1  0
M  END
> <Uni-Dock RESULT> 
ENERGY=   -5.160  LOWER_BOUND=    6.105  UPPER_BOUND=    8.475
INTER + INTRA:          -5.160
INTER:                  -5.160
INTRA:                   0.000
UNBOUND:                 0.000

$$$$

     RDKit          3D

 70 72  0  0  0  0  0  0  0  0999 V2000
   46.9200    6.0608   13.6865 C   0  0  0  0  0  0  0  0  0  0  0  0
   45.7045    5.8580   13.1078 C   0  0  0  0  0  0  0  0  0  0  0  0
   47.5979    7.2479   13.5509 N   0  0  0  0  0  0  0  0  0  0  0  0
   45.7651    8.0319   12.2232 N   0  0  0  0  0  0  0  0  0  0  0  0
   47.0330    8.2743   12.7926 C   0  0  0  0  0  0  0  0  0  0  0  0
   45.0447    6.8389   12.3201 C   0  0  0  0  0  0  0  0  0  0  0  0
   47.3418    4.9676   14.3806 N   0  0  0  0  0  0  0  0  0  0  0  0
   45.3576    4.5803   13.4482 N   0  0  0  0  0  0  0  0  0  0  0  0
   46.3789    4.0825   14.2172 C   0  0  0  0  0  0  0  0  0  0  0  0
   44.1257    3.8837   13.1208 C   0  0  0  0  0  0  0  0  0  0  0  0
   47.6102    9.3519   12.6200 O   0  0  0  0  0  0  0  0  0  0  0  0
   43.9576    6.6342   11.7888 O   0  0  0  0  0  0  0  0  0  0  0  0
   44.0683    3.3362   11.7209 C   0  0  0  0  0  0  0  0  0  0  0  0
   43.0829    2.8135   11.2195 O   0  0  0  0  0  0  0  0  0  0  0  0
   48.8994    7.4173   14.1707 C   0  0  0  0  0  0  0  0  0  0  0  0
   45.1963    9.1108   11.4394 C   0  0  0  0  0  0  0  0  0  0  0  0
   45.2162    3.3969   11.0215 O   0  0  0  0  0  0  0  0  0  0  0  0
   47.1533    5.8933   13.2282 C   0  0  0  0  0  0  0  0  0  0  0  0
   46.0128    5.8008   12.4904 C   0  0  0  0  0  0  0  0  0  0  0  0
   47.5987    7.0938   13.7259 N   0  0  0  0  0  0  0  0  0  0  0  0
   45.6890    8.1163   12.7041 N   0  0  0  0  0  0  0  0  0  0  0  0
   46.8591    8.2515   13.4807 C   0  0  0  0  0  0  0  0  0  0  0  0
   45.1927    6.9192   12.1825 C   0  0  0  0  0  0  0  0  0  0  0  0
   47.7537    4.6820   13.3910 N   0  0  0  0  0  0  0  0  0  0  0  0
   45.8925    4.4733   12.1875 N   0  0  0  0  0  0  0  0  0  0  0  0
   46.9677    3.8369   12.7542 C   0  0  0  0  0  0  0  0  0  0  0  0
   44.8663    3.8435   11.3750 C   0  0  0  0  0  0  0  0  0  0  0  0
   47.2046    9.3522   13.9206 O   0  0  0  0  0  0  0  0  0  0  0  0
   44.1603    6.8176   11.5269 O   0  0  0  0  0  0  0  0  0  0  0  0
   43.5577    3.6170   12.0818 C   0  0  0  0  0  0  0  0  0  0  0  0
   42.5467    3.1825   11.5481 O   0  0  0  0  0  0  0  0  0  0  0  0
   48.8131    7.1469   14.5193 C   0  0  0  0  0  0  0  0  0  0  0  0
   44.9363    9.3314   12.4616 C   0  0  0  0  0  0  0  0  0  0  0  0
   43.5529    3.8759   13.4021 O   0  0  0  0  0  0  0  0  0  0  0  0
   45.1413    4.8542   12.7622 N   0  0  0  0  0  0  0  0  0  0  0  0
   46.5629    7.4510   12.9691 N   0  0  0  0  0  0  0  0  0  0  0  0
   44.6915    6.0575   12.0378 C   0  0  0  0  0  0  0  0  0  0  0  0
   45.8385    7.0518   11.7545 C   0  0  0  0  0  0  0  0  0  0  0  0
   45.8300    5.2785   13.9953 C   0  0  0  0  0  0  0  0  0  0  0  0
   46.9866    6.2659   13.7276 C   0  0  0  0  0  0  0  0  0  0  0  0
   46.3712    3.0815   14.6306 H   0  0  0  0  0  0  0  0  0  0  0  0
   44.0210    3.0503   13.8232 H   0  0  0  0  0  0  0  0  0  0  0  0
   43.3003    4.5851   13.2745 H   0  0  0  0  0  0  0  0  0  0  0  0
   48.8110    7.2382   15.2470 H   0  0  0  0  0  0  0  0  0  0  0  0
   49.5975    6.6958   13.7346 H   0  0  0  0  0  0  0  0  0  0  0  0
   49.2959    8.4243   14.0171 H   0  0  0  0  0  0  0  0  0  0  0  0
   44.1769    8.8958   11.1090 H   0  0  0  0  0  0  0  0  0  0  0  0
   45.1876   10.0279   12.0376 H   0  0  0  0  0  0  0  0  0  0  0  0
   45.8284    9.2765   10.5607 H   0  0  0  0  0  0  0  0  0  0  0  0
   44.9909    3.0178   10.1451 H   0  0  0  0  0  0  0  0  0  0  0  0
   47.1306    2.7694   12.6726 H   0  0  0  0  0  0  0  0  0  0  0  0
   44.7047    4.4778   10.4986 H   0  0  0  0  0  0  0  0  0  0  0  0
   45.2546    2.8736   11.0469 H   0  0  0  0  0  0  0  0  0  0  0  0
   49.6402    6.7247   13.9400 H   0  0  0  0  0  0  0  0  0  0  0  0
   48.6670    6.5603   15.4318 H   0  0  0  0  0  0  0  0  0  0  0  0
   49.0720    8.1711   14.7997 H   0  0  0  0  0  0  0  0  0  0  0  0
   44.0752    9.1683   11.8086 H   0  0  0  0  0  0  0  0  0  0  0  0
   45.5940   10.0757   12.0006 H   0  0  0  0  0  0  0  0  0  0  0  0
   44.5859    9.7262   13.4208 H   0  0  0  0  0  0  0  0  0  0  0  0
   42.6315    3.6930   13.6853 H   0  0  0  0  0  0  0  0  0  0  0  0
   45.8195    4.3696   12.1750 H   0  0  0  0  0  0  0  0  0  0  0  0
   47.3785    8.0061   12.7154 H   0  0  0  0  0  0  0  0  0  0  0  0
   43.9005    6.5531   12.6144 H   0  0  0  0  0  0  0  0  0  0  0  0
   44.2411    5.7464   11.0887 H   0  0  0  0  0  0  0  0  0  0  0  0
   45.4267    7.9485   11.2792 H   0  0  0  0  0  0  0  0  0  0  0  0
   46.5431    6.6041   11.0423 H   0  0  0  0  0  0  0  0  0  0  0  0
   46.2243    4.3891   14.4994 H   0  0  0  0  0  0  0  0  0  0  0  0
   45.1017    5.7315   14.6796 H   0  0  0  0  0  0  0  0  0  0  0  0
   47.7873    5.7519   13.1810 H   0  0  0  0  0  0  0  0  0  0  0  0
   47.4084    6.5921   14.6844 H   0  0  0  0  0  0  0  0  0  0  0  0
  2  1  2  0
  3  1  1  0
  4  5  1  0
  5  3  1  0
  6  2  1  0
  7  1  1  0
  8  2  1  0
  9  7  2  0
 10  8  1  0
 11  5  2  0
 12  6  2  0
 13 10  1  0
 14 13  2  0
 15  3  1  0
 16  4  1  0
 17 13  1  0
  6  4  1  0
  8  9  1  0
 19 18  2  0
 20 18  1  0
 21 22  1  0
 22 20  1  0
 23 19  1  0
 24 18  1  0
 25 19  1  0
 26 24  2  0
 27 25  1  0
 28 22  2  0
 29 23  2  0
 30 27  1  0
 31 30  2  0
 32 20  1  0
 33 21  1  0
 34 30  1  0
 23 21  1  0
 25 26  1  0
 36 40  1  0
 37 35  1  0
 38 37  1  0
 39 35  1  0
 40 39  1  0
 38 36  1  0
  9 41  1  0
 10 42  1  0
 10 43  1  0
 15 44  1  0
 15 45  1  0
 15 46  1  0
 16 47  1  0
 16 48  1  0
 16 49  1  0
 17 50  1  0
 26 51  1  0
 27 52  1  0
 27 53  1  0
 32 54  1  0
 32 55  1  0
 32 56  1  0
 33 57  1  0
 33 58  1  0
 33 59  1  0
 34 60  1  0
 35 61  1  0
 36 62  1  0
 37 63  1  0
 37 64  1  0
 38 65  1  0
 38 66  1  0
 39 67  1  0
 39 68  1  0
 40 69  1  0
 40 70  1  0
M  END
> <Uni-Dock RESULT> 
ENERGY=   -5.132  LOWER_BOUND=    1.235  UPPER_BOUND=    3.005
INTER + INTRA:          -5.132
INTER:                  -5.132
INTRA:                   0.000
UNBOUND:                 0.000

$$$$

     RDKit          3D

 70 72  0  0  0  0  0  0  0  0999 V2000
   46.8815    6.7157   12.7175 C   0  0  0  0  0  0  0  0  0  0  0  0
   47.2020    8.0312   12.5746 C   0  0  0  0  0  0  0  0  0  0  0  0
   45.5931    6.2635   12.5670 N   0  0  0  0  0  0  0  0  0  0  0  0
   44.9544    8.5264   12.1112 N   0  0  0  0  0  0  0  0  0  0  0  0
   44.5798    7.1753   12.2681 C   0  0  0  0  0  0  0  0  0  0  0  0
   46.2456    9.0359   12.2687 C   0  0  0  0  0  0  0  0  0  0  0  0
   47.9712    5.9564   13.0186 N   0  0  0  0  0  0  0  0  0  0  0  0
   48.5478    8.0961   12.8054 N   0  0  0  0  0  0  0  0  0  0  0  0
   48.9680    6.8172   13.0703 C   0  0  0  0  0  0  0  0  0  0  0  0
   49.3998    9.2703   12.7319 C   0  0  0  0  0  0  0  0  0  0  0  0
   43.4022    6.8253   12.1452 O   0  0  0  0  0  0  0  0  0  0  0  0
   46.5468   10.2208   12.1620 O   0  0  0  0  0  0  0  0  0  0  0  0
   49.3305   10.1712   13.9347 C   0  0  0  0  0  0  0  0  0  0  0  0
   49.8865   11.2570   14.0221 O   0  0  0  0  0  0  0  0  0  0  0  0
   45.2912    4.8549   12.7441 C   0  0  0  0  0  0  0  0  0  0  0  0
   43.8867    9.4570   11.8011 C   0  0  0  0  0  0  0  0  0  0  0  0
   48.6429    9.6906   14.9867 O   0  0  0  0  0  0  0  0  0  0  0  0
   46.7706    6.8112   13.2381 C   0  0  0  0  0  0  0  0  0  0  0  0
   46.9091    8.1647   13.1877 C   0  0  0  0  0  0  0  0  0  0  0  0
   45.7957    6.1557   12.5259 N   0  0  0  0  0  0  0  0  0  0  0  0
   45.0973    8.2927   11.7000 N   0  0  0  0  0  0  0  0  0  0  0  0
   44.9282    6.8921   11.7180 C   0  0  0  0  0  0  0  0  0  0  0  0
   46.0755    9.0031   12.4000 C   0  0  0  0  0  0  0  0  0  0  0  0
   47.6946    6.2353   14.0560 N   0  0  0  0  0  0  0  0  0  0  0  0
   47.9706    8.4437   14.0024 N   0  0  0  0  0  0  0  0  0  0  0  0
   48.4127    7.2457   14.5040 C   0  0  0  0  0  0  0  0  0  0  0  0
   48.5073    9.7518   14.3349 C   0  0  0  0  0  0  0  0  0  0  0  0
   44.0474    6.3509   11.0430 O   0  0  0  0  0  0  0  0  0  0  0  0
   46.2211   10.2208   12.3550 O   0  0  0  0  0  0  0  0  0  0  0  0
   49.3908   10.3548   13.2771 C   0  0  0  0  0  0  0  0  0  0  0  0
   49.8657   11.4807   13.3284 O   0  0  0  0  0  0  0  0  0  0  0  0
   45.6906    4.7098   12.5973 C   0  0  0  0  0  0  0  0  0  0  0  0
   44.1854    9.0379   10.8544 C   0  0  0  0  0  0  0  0  0  0  0  0
   49.6964    9.5516   12.2419 O   0  0  0  0  0  0  0  0  0  0  0  0
   48.1045    8.6871   13.0214 N   0  0  0  0  0  0  0  0  0  0  0  0
   45.5063    7.4385   12.3161 N   0  0  0  0  0  0  0  0  0  0  0  0
   46.9163    9.4872   12.6705 C   0  0  0  0  0  0  0  0  0  0  0  0
   45.5898    8.7539   12.9657 C   0  0  0  0  0  0  0  0  0  0  0  0
   48.0177    7.3886   12.3276 C   0  0  0  0  0  0  0  0  0  0  0  0
   46.7004    6.6381   12.6207 C   0  0  0  0  0  0  0  0  0  0  0  0
   49.9991    6.5696   13.2902 H   0  0  0  0  0  0  0  0  0  0  0  0
   50.4319    8.9228   12.6186 H   0  0  0  0  0  0  0  0  0  0  0  0
   49.1120    9.8303   11.8372 H   0  0  0  0  0  0  0  0  0  0  0  0
   45.9032    4.2665   12.0531 H   0  0  0  0  0  0  0  0  0  0  0  0
   45.5230    4.5684   13.7748 H   0  0  0  0  0  0  0  0  0  0  0  0
   44.2382    4.6361   12.5487 H   0  0  0  0  0  0  0  0  0  0  0  0
   44.2561   10.4654   11.5981 H   0  0  0  0  0  0  0  0  0  0  0  0
   43.3372    9.0990   10.9242 H   0  0  0  0  0  0  0  0  0  0  0  0
   43.1966    9.4943   12.6506 H   0  0  0  0  0  0  0  0  0  0  0  0
   48.6895   10.4044   15.6582 H   0  0  0  0  0  0  0  0  0  0  0  0
   49.2506    7.1656   15.1855 H   0  0  0  0  0  0  0  0  0  0  0  0
   47.6599   10.4163   14.5275 H   0  0  0  0  0  0  0  0  0  0  0  0
   49.0926    9.6442   15.2542 H   0  0  0  0  0  0  0  0  0  0  0  0
   45.5669    4.4090   13.6423 H   0  0  0  0  0  0  0  0  0  0  0  0
   46.6065    4.2668   12.1937 H   0  0  0  0  0  0  0  0  0  0  0  0
   44.8388    4.3345   12.0242 H   0  0  0  0  0  0  0  0  0  0  0  0
   44.3321   10.1183   10.9289 H   0  0  0  0  0  0  0  0  0  0  0  0
   43.1552    8.8001   11.1394 H   0  0  0  0  0  0  0  0  0  0  0  0
   44.3367    8.7290    9.8149 H   0  0  0  0  0  0  0  0  0  0  0  0
   50.2531   10.1073   11.6553 H   0  0  0  0  0  0  0  0  0  0  0  0
   48.0776    8.5090   14.0250 H   0  0  0  0  0  0  0  0  0  0  0  0
   44.6732    6.9488   12.6385 H   0  0  0  0  0  0  0  0  0  0  0  0
   46.9644    9.7611   11.6092 H   0  0  0  0  0  0  0  0  0  0  0  0
   46.9450   10.4236   13.2386 H   0  0  0  0  0  0  0  0  0  0  0  0
   44.7539    9.3714   12.6197 H   0  0  0  0  0  0  0  0  0  0  0  0
   45.4730    8.6314   14.0499 H   0  0  0  0  0  0  0  0  0  0  0  0
   48.8642    6.7674   12.6410 H   0  0  0  0  0  0  0  0  0  0  0  0
   48.1261    7.5469   11.2474 H   0  0  0  0  0  0  0  0  0  0  0  0
   46.6772    6.3383   13.6761 H   0  0  0  0  0  0  0  0  0  0  0  0
   46.6706    5.7196   12.0247 H   0  0  0  0  0  0  0  0  0  0  0  0
  2  1  2  0
  3  1  1  0
  4  5  1  0
  5  3  1  0
  6  2  1  0
  7  1  1  0
  8  2  1  0
  9  7  2  0
 10  8  1  0
 11  5  2  0
 12  6  2  0
 13 10  1  0
 14 13  2  0
 15  3  1  0
 16  4  1  0
 17 13  1  0
  6  4  1  0
  8  9  1  0
 19 18  2  0
 20 18  1  0
 21 22  1  0
 22 20  1  0
 23 19  1  0
 24 18  1  0
 25 19  1  0
 26 24  2  0
 27 25  1  0
 28 22  2  0
 29 23  2  0
 30 27  1  0
 31 30  2  0
 32 20  1  0
 33 21  1  0
 34 30  1  0
 23 21  1  0
 25 26  1  0
 36 40  1  0
 37 35  1  0
 38 37  1  0
 39 35  1  0
 40 39  1  0
 38 36  1  0
  9 41  1  0
 10 42  1  0
 10 43  1  0
 15 44  1  0
 15 45  1  0
 15 46  1  0
 16 47  1  0
 16 48  1  0
 16 49  1  0
 17 50  1  0
 26 51  1  0
 27 52  1  0
 27 53  1  0
 32 54  1  0
 32 55  1  0
 32 56  1  0
 33 57  1  0
 33 58  1  0
 33 59  1  0
 34 60  1  0
 35 61  1  0
 36 62  1  0
 37 63  1  0
 37 64  1  0
 38 65  1  0
 38 66  1  0
 39 67  1  0
 39 68  1  0
 40 69  1  0
 40 70  1  0
M  END
> <Uni-Dock RESULT> 
ENERGY=   -5.120  LOWER_BOUND=    1.980  UPPER_BOUND=    5.587
INTER + INTRA:          -5.120
INTER:                  -5.120
INTRA:                   0.000
UNBOUND:                 0.000

$$$$

     RDKit          3D

 70 72  0  0  0  0  0  0  0  0999 V2000
   45.4814   12.2927    9.5870 C   0  0  0  0  0  0  0  0  0  0  0  0
   44.1866   11.9134    9.4041 C   0  0  0  0  0  0  0  0  0  0  0  0
   46.3572   12.4107    8.5352 N   0  0  0  0  0  0  0  0  0  0  0  0
   44.5622   11.7534    7.0921 N   0  0  0  0  0  0  0  0  0  0  0  0
   45.9144   12.1266    7.2426 C   0  0  0  0  0  0  0  0  0  0  0  0
   43.6390   11.6053    8.1301 C   0  0  0  0  0  0  0  0  0  0  0  0
   45.7637   12.5224   10.8993 N   0  0  0  0  0  0  0  0  0  0  0  0
   43.6408   11.8974   10.6572 N   0  0  0  0  0  0  0  0  0  0  0  0
   44.6326   12.2719   11.5279 C   0  0  0  0  0  0  0  0  0  0  0  0
   42.2645   11.6020   11.0162 C   0  0  0  0  0  0  0  0  0  0  0  0
   46.6661   12.1945    6.2655 O   0  0  0  0  0  0  0  0  0  0  0  0
   42.4748   11.2460    7.9836 O   0  0  0  0  0  0  0  0  0  0  0  0
   41.9244   10.1369   11.0431 C   0  0  0  0  0  0  0  0  0  0  0  0
   40.8002    9.6880   11.2170 O   0  0  0  0  0  0  0  0  0  0  0  0
   47.7341   12.8020    8.7755 C   0  0  0  0  0  0  0  0  0  0  0  0
   44.1227   11.4626    5.7415 C   0  0  0  0  0  0  0  0  0  0  0  0
   42.9644    9.2925   10.9157 O   0  0  0  0  0  0  0  0  0  0  0  0
   45.6175   11.7703    9.6213 C   0  0  0  0  0  0  0  0  0  0  0  0
   44.3974   11.2633    9.2928 C   0  0  0  0  0  0  0  0  0  0  0  0
   46.3497   12.5257    8.7378 N   0  0  0  0  0  0  0  0  0  0  0  0
   44.5654   12.2420    7.1654 N   0  0  0  0  0  0  0  0  0  0  0  0
   45.8276   12.7931    7.4716 C   0  0  0  0  0  0  0  0  0  0  0  0
   43.7813   11.4747    8.0303 C   0  0  0  0  0  0  0  0  0  0  0  0
   45.9832   11.4351   10.8894 N   0  0  0  0  0  0  0  0  0  0  0  0
   43.9808   10.5902   10.4072 N   0  0  0  0  0  0  0  0  0  0  0  0
   44.9723   10.7231   11.3460 C   0  0  0  0  0  0  0  0  0  0  0  0
   42.7566    9.8254   10.5696 C   0  0  0  0  0  0  0  0  0  0  0  0
   46.4357   13.4820    6.6469 O   0  0  0  0  0  0  0  0  0  0  0  0
   42.6749   11.0215    7.7537 O   0  0  0  0  0  0  0  0  0  0  0  0
   41.5288   10.6546   10.8305 C   0  0  0  0  0  0  0  0  0  0  0  0
   40.3930   10.2077   10.9078 O   0  0  0  0  0  0  0  0  0  0  0  0
   47.6408   13.0588    9.1324 C   0  0  0  0  0  0  0  0  0  0  0  0
   44.0423   12.5321    5.8448 C   0  0  0  0  0  0  0  0  0  0  0  0
   41.7415   11.9672   11.0359 O   0  0  0  0  0  0  0  0  0  0  0  0
   43.3979   11.3826   10.1391 N   0  0  0  0  0  0  0  0  0  0  0  0
   45.3175   12.1216    8.0000 N   0  0  0  0  0  0  0  0  0  0  0  0
   43.1061   11.1640    8.7101 C   0  0  0  0  0  0  0  0  0  0  0  0
   44.3815   10.9981    7.8554 C   0  0  0  0  0  0  0  0  0  0  0  0
   44.3064   12.5378   10.2615 C   0  0  0  0  0  0  0  0  0  0  0  0
   45.5917   12.3825    9.4198 C   0  0  0  0  0  0  0  0  0  0  0  0
   44.4801   12.3475   12.5974 H   0  0  0  0  0  0  0  0  0  0  0  0
   42.0872   12.0170   12.0138 H   0  0  0  0  0  0  0  0  0  0  0  0
   41.6194   12.1151   10.2969 H   0  0  0  0  0  0  0  0  0  0  0  0
   47.7485   13.7661    9.2936 H   0  0  0  0  0  0  0  0  0  0  0  0
   48.2158   12.0426    9.3995 H   0  0  0  0  0  0  0  0  0  0  0  0
   48.2985   12.8989    7.8444 H   0  0  0  0  0  0  0  0  0  0  0  0
   43.0476   11.2750    5.6823 H   0  0  0  0  0  0  0  0  0  0  0  0
   44.3704   12.3071    5.0899 H   0  0  0  0  0  0  0  0  0  0  0  0
   44.6593   10.5784    5.3812 H   0  0  0  0  0  0  0  0  0  0  0  0
   42.5601    8.3988   10.9390 H   0  0  0  0  0  0  0  0  0  0  0  0
   44.9102   10.2850   12.3346 H   0  0  0  0  0  0  0  0  0  0  0  0
   42.6139    9.2351    9.6597 H   0  0  0  0  0  0  0  0  0  0  0  0
   42.9018    9.1464   11.4164 H   0  0  0  0  0  0  0  0  0  0  0  0
   48.2889   12.2353    9.4483 H   0  0  0  0  0  0  0  0  0  0  0  0
   47.4983   13.7542    9.9656 H   0  0  0  0  0  0  0  0  0  0  0  0
   48.1296   13.5912    8.3125 H   0  0  0  0  0  0  0  0  0  0  0  0
   43.0906   12.0308    5.6510 H   0  0  0  0  0  0  0  0  0  0  0  0
   44.7702   12.2128    5.0917 H   0  0  0  0  0  0  0  0  0  0  0  0
   43.9002   13.6137    5.7518 H   0  0  0  0  0  0  0  0  0  0  0  0
   40.8453   12.3437   11.1688 H   0  0  0  0  0  0  0  0  0  0  0  0
   43.8878   10.5596   10.4888 H   0  0  0  0  0  0  0  0  0  0  0  0
   46.1878   11.9077    7.5157 H   0  0  0  0  0  0  0  0  0  0  0  0
   42.5073   12.0011    8.3302 H   0  0  0  0  0  0  0  0  0  0  0  0
   42.4874   10.2650    8.6130 H   0  0  0  0  0  0  0  0  0  0  0  0
   44.0977   10.9094    6.8012 H   0  0  0  0  0  0  0  0  0  0  0  0
   44.8886   10.0652    8.1322 H   0  0  0  0  0  0  0  0  0  0  0  0
   44.5782   12.6588   11.3161 H   0  0  0  0  0  0  0  0  0  0  0  0
   43.7738   13.4505    9.9667 H   0  0  0  0  0  0  0  0  0  0  0  0
   46.2001   11.5657    9.8283 H   0  0  0  0  0  0  0  0  0  0  0  0
   46.1867   13.2986    9.5013 H   0  0  0  0  0  0  0  0  0  0  0  0
  2  1  2  0
  3  1  1  0
  4  5  1  0
  5  3  1  0
  6  2  1  0
  7  1  1  0
  8  2  1  0
  9  7  2  0
 10  8  1  0
 11  5  2  0
 12  6  2  0
 13 10  1  0
 14 13  2  0
 15  3  1  0
 16  4  1  0
 17 13  1  0
  6  4  1  0
  8  9  1  0
 19 18  2  0
 20 18  1  0
 21 22  1  0
 22 20  1  0
 23 19  1  0
 24 18  1  0
 25 19  1  0
 26 24  2  0
 27 25  1  0
 28 22  2  0
 29 23  2  0
 30 27  1  0
 31 30  2  0
 32 20  1  0
 33 21  1  0
 34 30  1  0
 23 21  1  0
 25 26  1  0
 36 40  1  0
 37 35  1  0
 38 37  1  0
 39 35  1  0
 40 39  1  0
 38 36  1  0
  9 41  1  0
 10 42  1  0
 10 43  1  0
 15 44  1  0
 15 45  1  0
 15 46  1  0
 16 47  1  0
 16 48  1  0
 16 49  1  0
 17 50  1  0
 26 51  1  0
 27 52  1  0
 27 53  1  0
 32 54  1  0
 32 55  1  0
 32 56  1  0
 33 57  1  0
 33 58  1  0
 33 59  1  0
 34 60  1  0
 35 61  1  0
 36 62  1  0
 37 63  1  0
 37 64  1  0
 38 65  1  0
 38 66  1  0
 39 67  1  0
 39 68  1  0
 40 69  1  0
 40 70  1  0
M  END
> <Uni-Dock RESULT> 
ENERGY=   -4.874  LOWER_BOUND=    5.158  UPPER_BOUND=    7.283
INTER + INTRA:          -4.874
INTER:                  -4.874
INTRA:                   0.000
UNBOUND:                 0.000

$$$$
