
     RDKit          3D

 70 72  0  0  0  0  0  0  0  0999 V2000
   49.6980    5.0206   20.0097 C   0  0  0  0  0  0  0  0  0  0  0  0
   50.4877    4.4122   19.0823 C   0  0  0  0  0  0  0  0  0  0  0  0
   48.3826    5.3228   19.7534 N   0  0  0  0  0  0  0  0  0  0  0  0
   48.6855    4.3691   17.5780 N   0  0  0  0  0  0  0  0  0  0  0  0
   47.8477    5.0342   18.4973 C   0  0  0  0  0  0  0  0  0  0  0  0
   50.0275    4.0451   17.7886 C   0  0  0  0  0  0  0  0  0  0  0  0
   50.3736    5.2749   21.1650 N   0  0  0  0  0  0  0  0  0  0  0  0
   51.7105    4.2919   19.6817 N   0  0  0  0  0  0  0  0  0  0  0  0
   51.5934    4.8298   20.9382 C   0  0  0  0  0  0  0  0  0  0  0  0
   52.9036    3.6783   19.1284 C   0  0  0  0  0  0  0  0  0  0  0  0
   46.6920    5.3460   18.1952 O   0  0  0  0  0  0  0  0  0  0  0  0
   50.7528    3.5017   16.9608 O   0  0  0  0  0  0  0  0  0  0  0  0
   53.6312    4.5909   18.1802 C   0  0  0  0  0  0  0  0  0  0  0  0
   53.4317    5.7776   17.9823 O   0  0  0  0  0  0  0  0  0  0  0  0
   47.5835    6.0118   20.7487 C   0  0  0  0  0  0  0  0  0  0  0  0
   48.1107    4.0674   16.2822 C   0  0  0  0  0  0  0  0  0  0  0  0
   54.6422    3.9594   17.5446 O   0  0  0  0  0  0  0  0  0  0  0  0
   49.3119    5.5915   19.2186 C   0  0  0  0  0  0  0  0  0  0  0  0
   50.4709    5.0456   18.7572 C   0  0  0  0  0  0  0  0  0  0  0  0
   48.0863    5.0540   18.9097 N   0  0  0  0  0  0  0  0  0  0  0  0
   49.2461    3.3585   17.6772 N   0  0  0  0  0  0  0  0  0  0  0  0
   48.0250    3.8910   18.1404 C   0  0  0  0  0  0  0  0  0  0  0  0
   50.5134    3.8827   17.9411 C   0  0  0  0  0  0  0  0  0  0  0  0
   49.5399    6.6929   19.9866 N   0  0  0  0  0  0  0  0  0  0  0  0
   51.4628    5.8388   19.2623 N   0  0  0  0  0  0  0  0  0  0  0  0
   50.8520    6.8174   20.0034 C   0  0  0  0  0  0  0  0  0  0  0  0
   52.8901    5.7122   19.0342 C   0  0  0  0  0  0  0  0  0  0  0  0
   46.9507    3.3445   17.8720 O   0  0  0  0  0  0  0  0  0  0  0  0
   51.5664    3.4116   17.5221 O   0  0  0  0  0  0  0  0  0  0  0  0
   53.5136    4.6363   19.8801 C   0  0  0  0  0  0  0  0  0  0  0  0
   53.0088    4.0289   20.8095 O   0  0  0  0  0  0  0  0  0  0  0  0
   46.8709    5.6380   19.4454 C   0  0  0  0  0  0  0  0  0  0  0  0
   49.1571    2.1549   16.8738 C   0  0  0  0  0  0  0  0  0  0  0  0
   54.7985    4.4004   19.5364 O   0  0  0  0  0  0  0  0  0  0  0  0
   49.6857    5.4926   19.9032 N   0  0  0  0  0  0  0  0  0  0  0  0
   50.7710    3.8275   17.6935 N   0  0  0  0  0  0  0  0  0  0  0  0
   50.8882    4.6568   20.0662 C   0  0  0  0  0  0  0  0  0  0  0  0
   51.6337    4.4085   18.7373 C   0  0  0  0  0  0  0  0  0  0  0  0
   48.8232    4.9115   18.8593 C   0  0  0  0  0  0  0  0  0  0  0  0
   49.5688    4.6636   17.5302 C   0  0  0  0  0  0  0  0  0  0  0  0
   52.4166    4.8715   21.6411 H   0  0  0  0  0  0  0  0  0  0  0  0
   52.6021    2.7598   18.6174 H   0  0  0  0  0  0  0  0  0  0  0  0
   53.5688    3.4245   19.9596 H   0  0  0  0  0  0  0  0  0  0  0  0
   46.5189    5.9825   20.4999 H   0  0  0  0  0  0  0  0  0  0  0  0
   47.9048    7.0576   20.7943 H   0  0  0  0  0  0  0  0  0  0  0  0
   47.7240    5.5398   21.7267 H   0  0  0  0  0  0  0  0  0  0  0  0
   48.0008    5.0037   15.7261 H   0  0  0  0  0  0  0  0  0  0  0  0
   48.7324    3.3803   15.7028 H   0  0  0  0  0  0  0  0  0  0  0  0
   47.1205    3.6194   16.4106 H   0  0  0  0  0  0  0  0  0  0  0  0
   55.0245    4.6477   16.9570 H   0  0  0  0  0  0  0  0  0  0  0  0
   51.4011    7.5896   20.5276 H   0  0  0  0  0  0  0  0  0  0  0  0
   53.3569    6.6720   19.2766 H   0  0  0  0  0  0  0  0  0  0  0  0
   53.0401    5.4969   17.9723 H   0  0  0  0  0  0  0  0  0  0  0  0
   46.7603    5.3183   20.4862 H   0  0  0  0  0  0  0  0  0  0  0  0
   46.9272    6.7296   19.4003 H   0  0  0  0  0  0  0  0  0  0  0  0
   45.9926    5.3124   18.8815 H   0  0  0  0  0  0  0  0  0  0  0  0
   48.6735    1.3692   17.4641 H   0  0  0  0  0  0  0  0  0  0  0  0
   48.5368    2.3581   15.9949 H   0  0  0  0  0  0  0  0  0  0  0  0
   50.1348    1.7985   16.5417 H   0  0  0  0  0  0  0  0  0  0  0  0
   55.0797    3.6764   20.1369 H   0  0  0  0  0  0  0  0  0  0  0  0
   49.9886    6.4122   19.5792 H   0  0  0  0  0  0  0  0  0  0  0  0
   50.4680    2.9079   18.0172 H   0  0  0  0  0  0  0  0  0  0  0  0
   50.6015    3.6985   20.5168 H   0  0  0  0  0  0  0  0  0  0  0  0
   51.5644    5.1477   20.7748 H   0  0  0  0  0  0  0  0  0  0  0  0
   52.0606    5.3492   18.3682 H   0  0  0  0  0  0  0  0  0  0  0  0
   52.4749    3.7298   18.9155 H   0  0  0  0  0  0  0  0  0  0  0  0
   48.3963    3.9705   19.2277 H   0  0  0  0  0  0  0  0  0  0  0  0
   47.9816    5.5899   18.6810 H   0  0  0  0  0  0  0  0  0  0  0  0
   48.8927    4.1722   16.8219 H   0  0  0  0  0  0  0  0  0  0  0  0
   49.8560    5.6217   17.0795 H   0  0  0  0  0  0  0  0  0  0  0  0
  2  1  2  0
  3  1  1  0
  4  5  1  0
  5  3  1  0
  6  2  1  0
  7  1  1  0
  8  2  1  0
  9  7  2  0
 10  8  1  0
 11  5  2  0
 12  6  2  0
 13 10  1  0
 14 13  2  0
 15  3  1  0
 16  4  1  0
 17 13  1  0
  6  4  1  0
  8  9  1  0
 19 18  2  0
 20 18  1  0
 21 22  1  0
 22 20  1  0
 23 19  1  0
 24 18  1  0
 25 19  1  0
 26 24  2  0
 27 25  1  0
 28 22  2  0
 29 23  2  0
 30 27  1  0
 31 30  2  0
 32 20  1  0
 33 21  1  0
 34 30  1  0
 23 21  1  0
 25 26  1  0
 36 40  1  0
 37 35  1  0
 38 37  1  0
 39 35  1  0
 40 39  1  0
 38 36  1  0
  9 41  1  0
 10 42  1  0
 10 43  1  0
 15 44  1  0
 15 45  1  0
 15 46  1  0
 16 47  1  0
 16 48  1  0
 16 49  1  0
 17 50  1  0
 26 51  1  0
 27 52  1  0
 27 53  1  0
 32 54  1  0
 32 55  1  0
 32 56  1  0
 33 57  1  0
 33 58  1  0
 33 59  1  0
 34 60  1  0
 35 61  1  0
 36 62  1  0
 37 63  1  0
 37 64  1  0
 38 65  1  0
 38 66  1  0
 39 67  1  0
 39 68  1  0
 40 69  1  0
 40 70  1  0
M  END
> <Uni-Dock RESULT> 
ENERGY=   -4.303  LOWER_BOUND=    0.000  UPPER_BOUND=    0.000
INTER + INTRA:          -4.303
INTER:                  -4.303
INTRA:                   0.000
UNBOUND:                 0.000

$$$$

     RDKit          3D

 70 72  0  0  0  0  0  0  0  0999 V2000
   49.0423    8.7733   18.5546 C   0  0  0  0  0  0  0  0  0  0  0  0
   48.4473    8.4988   19.7481 C   0  0  0  0  0  0  0  0  0  0  0  0
   48.7580    9.9185   17.8509 N   0  0  0  0  0  0  0  0  0  0  0  0
   47.2420   10.5089   19.6078 N   0  0  0  0  0  0  0  0  0  0  0  0
   47.8070   10.8089   18.3508 C   0  0  0  0  0  0  0  0  0  0  0  0
   47.4940    9.3584   20.3583 C   0  0  0  0  0  0  0  0  0  0  0  0
   49.9108    7.7923   18.1816 N   0  0  0  0  0  0  0  0  0  0  0  0
   48.9591    7.2900   20.1298 N   0  0  0  0  0  0  0  0  0  0  0  0
   49.8371    6.9013   19.1501 C   0  0  0  0  0  0  0  0  0  0  0  0
   48.6737    6.5618   21.3522 C   0  0  0  0  0  0  0  0  0  0  0  0
   47.4679   11.8175   17.7247 O   0  0  0  0  0  0  0  0  0  0  0  0
   46.9617    9.0952   21.4326 O   0  0  0  0  0  0  0  0  0  0  0  0
   47.3712    5.8136   21.2838 C   0  0  0  0  0  0  0  0  0  0  0  0
   46.6670    5.6248   20.3061 O   0  0  0  0  0  0  0  0  0  0  0  0
   49.3772   10.1566   16.5610 C   0  0  0  0  0  0  0  0  0  0  0  0
   46.2642   11.4497   20.1170 C   0  0  0  0  0  0  0  0  0  0  0  0
   47.0322    5.2763   22.4759 O   0  0  0  0  0  0  0  0  0  0  0  0
   48.1035    9.1139   18.2330 C   0  0  0  0  0  0  0  0  0  0  0  0
   47.8710    8.3704   19.3498 C   0  0  0  0  0  0  0  0  0  0  0  0
   48.1494   10.4860   18.2746 N   0  0  0  0  0  0  0  0  0  0  0  0
   47.7560   10.3335   20.6327 N   0  0  0  0  0  0  0  0  0  0  0  0
   48.0000   11.1374   19.4999 C   0  0  0  0  0  0  0  0  0  0  0  0
   47.6735    8.9393   20.6372 C   0  0  0  0  0  0  0  0  0  0  0  0
   48.2696    8.3338   17.1291 N   0  0  0  0  0  0  0  0  0  0  0  0
   47.8971    7.0719   18.9237 N   0  0  0  0  0  0  0  0  0  0  0  0
   48.1470    7.0998   17.5758 C   0  0  0  0  0  0  0  0  0  0  0  0
   47.6643    5.8816   19.7201 C   0  0  0  0  0  0  0  0  0  0  0  0
   48.0768   12.3661   19.5971 O   0  0  0  0  0  0  0  0  0  0  0  0
   47.4512    8.2549   21.6314 O   0  0  0  0  0  0  0  0  0  0  0  0
   48.8673    5.4907   20.5336 C   0  0  0  0  0  0  0  0  0  0  0  0
   50.0004    5.9347   20.4540 O   0  0  0  0  0  0  0  0  0  0  0  0
   48.4340   11.2491   17.0738 C   0  0  0  0  0  0  0  0  0  0  0  0
   47.5964   11.0325   21.8928 C   0  0  0  0  0  0  0  0  0  0  0  0
   48.5904    4.4956   21.4042 O   0  0  0  0  0  0  0  0  0  0  0  0
   48.7335    8.6444   18.2048 N   0  0  0  0  0  0  0  0  0  0  0  0
   47.4629    8.7860   20.8880 N   0  0  0  0  0  0  0  0  0  0  0  0
   49.1849    7.8116   19.3335 C   0  0  0  0  0  0  0  0  0  0  0  0
   48.0720    7.5481   20.3705 C   0  0  0  0  0  0  0  0  0  0  0  0
   48.1242    9.8822   18.7225 C   0  0  0  0  0  0  0  0  0  0  0  0
   47.0110    9.6185   19.7593 C   0  0  0  0  0  0  0  0  0  0  0  0
   50.3916    5.9716   19.1900 H   0  0  0  0  0  0  0  0  0  0  0  0
   48.6571    7.2816   22.1752 H   0  0  0  0  0  0  0  0  0  0  0  0
   49.4866    5.8476   21.5168 H   0  0  0  0  0  0  0  0  0  0  0  0
   49.2352   11.1898   16.2317 H   0  0  0  0  0  0  0  0  0  0  0  0
   48.9214    9.4874   15.8240 H   0  0  0  0  0  0  0  0  0  0  0  0
   50.4521    9.9579   16.6248 H   0  0  0  0  0  0  0  0  0  0  0  0
   45.3505   11.3550   19.5218 H   0  0  0  0  0  0  0  0  0  0  0  0
   46.0244   11.2701   21.1680 H   0  0  0  0  0  0  0  0  0  0  0  0
   46.6433   12.4712   20.0144 H   0  0  0  0  0  0  0  0  0  0  0  0
   46.1731    4.8315   22.3041 H   0  0  0  0  0  0  0  0  0  0  0  0
   48.2269    6.2044   16.9721 H   0  0  0  0  0  0  0  0  0  0  0  0
   47.4135    5.0632   19.0380 H   0  0  0  0  0  0  0  0  0  0  0  0
   46.8101    6.0799   20.3739 H   0  0  0  0  0  0  0  0  0  0  0  0
   49.5108   11.2085   16.8824 H   0  0  0  0  0  0  0  0  0  0  0  0
   47.8932   10.8253   16.2225 H   0  0  0  0  0  0  0  0  0  0  0  0
   48.1357   12.2947   17.1885 H   0  0  0  0  0  0  0  0  0  0  0  0
   48.5084   11.6024   22.1004 H   0  0  0  0  0  0  0  0  0  0  0  0
   46.7616   11.7354   21.8071 H   0  0  0  0  0  0  0  0  0  0  0  0
   47.4037   10.3547   22.7275 H   0  0  0  0  0  0  0  0  0  0  0  0
   49.4362    4.3501   21.8809 H   0  0  0  0  0  0  0  0  0  0  0  0
   48.0081    8.1260   17.7074 H   0  0  0  0  0  0  0  0  0  0  0  0
   48.1880    9.3047   21.3855 H   0  0  0  0  0  0  0  0  0  0  0  0
   50.0393    8.2982   19.8200 H   0  0  0  0  0  0  0  0  0  0  0  0
   49.5489    6.8553   18.9416 H   0  0  0  0  0  0  0  0  0  0  0  0
   47.2893    6.9210   19.9258 H   0  0  0  0  0  0  0  0  0  0  0  0
   48.4877    6.9830   21.2119 H   0  0  0  0  0  0  0  0  0  0  0  0
   48.9065   10.5095   19.1677 H   0  0  0  0  0  0  0  0  0  0  0  0
   47.7087   10.4478   17.8813 H   0  0  0  0  0  0  0  0  0  0  0  0
   46.6475   10.5747   20.1515 H   0  0  0  0  0  0  0  0  0  0  0  0
   46.1566    9.1315   19.2732 H   0  0  0  0  0  0  0  0  0  0  0  0
  2  1  2  0
  3  1  1  0
  4  5  1  0
  5  3  1  0
  6  2  1  0
  7  1  1  0
  8  2  1  0
  9  7  2  0
 10  8  1  0
 11  5  2  0
 12  6  2  0
 13 10  1  0
 14 13  2  0
 15  3  1  0
 16  4  1  0
 17 13  1  0
  6  4  1  0
  8  9  1  0
 19 18  2  0
 20 18  1  0
 21 22  1  0
 22 20  1  0
 23 19  1  0
 24 18  1  0
 25 19  1  0
 26 24  2  0
 27 25  1  0
 28 22  2  0
 29 23  2  0
 30 27  1  0
 31 30  2  0
 32 20  1  0
 33 21  1  0
 34 30  1  0
 23 21  1  0
 25 26  1  0
 36 40  1  0
 37 35  1  0
 38 37  1  0
 39 35  1  0
 40 39  1  0
 38 36  1  0
  9 41  1  0
 10 42  1  0
 10 43  1  0
 15 44  1  0
 15 45  1  0
 15 46  1  0
 16 47  1  0
 16 48  1  0
 16 49  1  0
 17 50  1  0
 26 51  1  0
 27 52  1  0
 27 53  1  0
 32 54  1  0
 32 55  1  0
 32 56  1  0
 33 57  1  0
 33 58  1  0
 33 59  1  0
 34 60  1  0
 35 61  1  0
 36 62  1  0
 37 63  1  0
 37 64  1  0
 38 65  1  0
 38 66  1  0
 39 67  1  0
 39 68  1  0
 40 69  1  0
 40 70  1  0
M  END
> <Uni-Dock RESULT> 
ENERGY=   -4.105  LOWER_BOUND=    3.825  UPPER_BOUND=    6.065
INTER + INTRA:          -4.105
INTER:                  -4.105
INTRA:                   0.000
UNBOUND:                 0.000

$$$$

     RDKit          3D

 70 72  0  0  0  0  0  0  0  0999 V2000
   49.5302   11.4113   21.9651 C   0  0  0  0  0  0  0  0  0  0  0  0
   49.3565   12.6593   21.4490 C   0  0  0  0  0  0  0  0  0  0  0  0
   48.5622   10.4425   21.8569 N   0  0  0  0  0  0  0  0  0  0  0  0
   47.2255   12.0429   20.6796 N   0  0  0  0  0  0  0  0  0  0  0  0
   47.3520   10.7526   21.2351 C   0  0  0  0  0  0  0  0  0  0  0  0
   48.1764   13.0620   20.7668 C   0  0  0  0  0  0  0  0  0  0  0  0
   50.7405   11.2773   22.5757 N   0  0  0  0  0  0  0  0  0  0  0  0
   50.5033   13.3348   21.7608 N   0  0  0  0  0  0  0  0  0  0  0  0
   51.3087   12.4594   22.4441 C   0  0  0  0  0  0  0  0  0  0  0  0
   50.8409   14.7017   21.4091 C   0  0  0  0  0  0  0  0  0  0  0  0
   46.4261    9.9385   21.1715 O   0  0  0  0  0  0  0  0  0  0  0  0
   48.0318   14.1926   20.3114 O   0  0  0  0  0  0  0  0  0  0  0  0
   50.1870   15.7062   22.3170 C   0  0  0  0  0  0  0  0  0  0  0  0
   49.5875   15.4954   23.3580 O   0  0  0  0  0  0  0  0  0  0  0  0
   48.7632    9.1378   22.4579 C   0  0  0  0  0  0  0  0  0  0  0  0
   45.9665   12.3445   20.0282 C   0  0  0  0  0  0  0  0  0  0  0  0
   50.3697   16.9734   21.8859 O   0  0  0  0  0  0  0  0  0  0  0  0
   48.5293   11.4653   22.2748 C   0  0  0  0  0  0  0  0  0  0  0  0
   48.9046   12.7435   21.9931 C   0  0  0  0  0  0  0  0  0  0  0  0
   47.8029   10.7123   21.3850 N   0  0  0  0  0  0  0  0  0  0  0  0
   47.8801   12.5799   19.8868 N   0  0  0  0  0  0  0  0  0  0  0  0
   47.4782   11.2519   20.1395 C   0  0  0  0  0  0  0  0  0  0  0  0
   48.5952   13.3941   20.7679 C   0  0  0  0  0  0  0  0  0  0  0  0
   48.9559   11.0705   23.5065 N   0  0  0  0  0  0  0  0  0  0  0  0
   49.5975   13.1611   23.0948 N   0  0  0  0  0  0  0  0  0  0  0  0
   49.6070   12.1141   23.9801 C   0  0  0  0  0  0  0  0  0  0  0  0
   50.1806   14.4703   23.3211 C   0  0  0  0  0  0  0  0  0  0  0  0
   46.8648   10.6006   19.2882 O   0  0  0  0  0  0  0  0  0  0  0  0
   48.9294   14.5520   20.5356 O   0  0  0  0  0  0  0  0  0  0  0  0
   51.4910   14.6469   22.6046 C   0  0  0  0  0  0  0  0  0  0  0  0
   52.1575   13.7936   22.0432 O   0  0  0  0  0  0  0  0  0  0  0  0
   47.4479    9.3411   21.6998 C   0  0  0  0  0  0  0  0  0  0  0  0
   47.5252   13.1216   18.5897 C   0  0  0  0  0  0  0  0  0  0  0  0
   51.9385   15.9198   22.6701 O   0  0  0  0  0  0  0  0  0  0  0  0
   49.3037   11.3977   22.3926 N   0  0  0  0  0  0  0  0  0  0  0  0
   48.5424   13.7510   20.7445 N   0  0  0  0  0  0  0  0  0  0  0  0
   50.2896   12.3988   21.9487 C   0  0  0  0  0  0  0  0  0  0  0  0
   49.6657   13.7884   21.6975 C   0  0  0  0  0  0  0  0  0  0  0  0
   48.1804   11.3606   21.4396 C   0  0  0  0  0  0  0  0  0  0  0  0
   47.5563   12.7503   21.1887 C   0  0  0  0  0  0  0  0  0  0  0  0
   52.2885   12.7291   22.8190 H   0  0  0  0  0  0  0  0  0  0  0  0
   50.5330   14.8671   20.3730 H   0  0  0  0  0  0  0  0  0  0  0  0
   51.9276   14.8100   21.4819 H   0  0  0  0  0  0  0  0  0  0  0  0
   48.0241    8.4139   22.1035 H   0  0  0  0  0  0  0  0  0  0  0  0
   48.6682    9.2335   23.5445 H   0  0  0  0  0  0  0  0  0  0  0  0
   49.7616    8.7651   22.2063 H   0  0  0  0  0  0  0  0  0  0  0  0
   45.1939   12.4421   20.7973 H   0  0  0  0  0  0  0  0  0  0  0  0
   46.0109   13.2701   19.4488 H   0  0  0  0  0  0  0  0  0  0  0  0
   45.6898   11.5251   19.3575 H   0  0  0  0  0  0  0  0  0  0  0  0
   49.8943   17.5235   22.5468 H   0  0  0  0  0  0  0  0  0  0  0  0
   50.0942   12.1628   24.9459 H   0  0  0  0  0  0  0  0  0  0  0  0
   50.3441   14.5853   24.3972 H   0  0  0  0  0  0  0  0  0  0  0  0
   49.4583   15.2195   22.9846 H   0  0  0  0  0  0  0  0  0  0  0  0
   48.3252    8.7078   21.5356 H   0  0  0  0  0  0  0  0  0  0  0  0
   47.1305    9.2656   22.7441 H   0  0  0  0  0  0  0  0  0  0  0  0
   46.6330    8.9863   21.0631 H   0  0  0  0  0  0  0  0  0  0  0  0
   47.9784   12.5006   17.8097 H   0  0  0  0  0  0  0  0  0  0  0  0
   46.4373   13.0835   18.4732 H   0  0  0  0  0  0  0  0  0  0  0  0
   47.8587   14.1537   18.4602 H   0  0  0  0  0  0  0  0  0  0  0  0
   52.7746   15.9083   22.1558 H   0  0  0  0  0  0  0  0  0  0  0  0
   48.9356   11.7035   23.2945 H   0  0  0  0  0  0  0  0  0  0  0  0
   48.9102   13.4453   19.8425 H   0  0  0  0  0  0  0  0  0  0  0  0
   50.7795   12.0401   21.0350 H   0  0  0  0  0  0  0  0  0  0  0  0
   51.0712   12.4851   22.7117 H   0  0  0  0  0  0  0  0  0  0  0  0
   49.3186   14.2178   22.6455 H   0  0  0  0  0  0  0  0  0  0  0  0
   50.4341   14.4651   21.3081 H   0  0  0  0  0  0  0  0  0  0  0  0
   48.5270   10.9315   20.4913 H   0  0  0  0  0  0  0  0  0  0  0  0
   47.4119   10.6836   21.8285 H   0  0  0  0  0  0  0  0  0  0  0  0
   46.7750   12.6640   20.4254 H   0  0  0  0  0  0  0  0  0  0  0  0
   47.0665   13.1095   22.1024 H   0  0  0  0  0  0  0  0  0  0  0  0
  2  1  2  0
  3  1  1  0
  4  5  1  0
  5  3  1  0
  6  2  1  0
  7  1  1  0
  8  2  1  0
  9  7  2  0
 10  8  1  0
 11  5  2  0
 12  6  2  0
 13 10  1  0
 14 13  2  0
 15  3  1  0
 16  4  1  0
 17 13  1  0
  6  4  1  0
  8  9  1  0
 19 18  2  0
 20 18  1  0
 21 22  1  0
 22 20  1  0
 23 19  1  0
 24 18  1  0
 25 19  1  0
 26 24  2  0
 27 25  1  0
 28 22  2  0
 29 23  2  0
 30 27  1  0
 31 30  2  0
 32 20  1  0
 33 21  1  0
 34 30  1  0
 23 21  1  0
 25 26  1  0
 36 40  1  0
 37 35  1  0
 38 37  1  0
 39 35  1  0
 40 39  1  0
 38 36  1  0
  9 41  1  0
 10 42  1  0
 10 43  1  0
 15 44  1  0
 15 45  1  0
 15 46  1  0
 16 47  1  0
 16 48  1  0
 16 49  1  0
 17 50  1  0
 26 51  1  0
 27 52  1  0
 27 53  1  0
 32 54  1  0
 32 55  1  0
 32 56  1  0
 33 57  1  0
 33 58  1  0
 33 59  1  0
 34 60  1  0
 35 61  1  0
 36 62  1  0
 37 63  1  0
 37 64  1  0
 38 65  1  0
 38 66  1  0
 39 67  1  0
 39 68  1  0
 40 69  1  0
 40 70  1  0
M  END
> <Uni-Dock RESULT> 
ENERGY=   -4.077  LOWER_BOUND=    7.124  UPPER_BOUND=    9.003
INTER + INTRA:          -4.077
INTER:                  -4.077
INTRA:                   0.000
UNBOUND:                 0.000

$$$$

     RDKit          3D

 70 72  0  0  0  0  0  0  0  0999 V2000
   40.5677   11.4363   10.7310 C   0  0  0  0  0  0  0  0  0  0  0  0
   41.4056   12.3501   11.2938 C   0  0  0  0  0  0  0  0  0  0  0  0
   39.3887   11.0688   11.3328 N   0  0  0  0  0  0  0  0  0  0  0  0
   39.9287   12.5876   13.1036 N   0  0  0  0  0  0  0  0  0  0  0  0
   39.0548   11.6163   12.5722 C   0  0  0  0  0  0  0  0  0  0  0  0
   41.1384   12.9908   12.5341 C   0  0  0  0  0  0  0  0  0  0  0  0
   41.0509   10.9637    9.5483 N   0  0  0  0  0  0  0  0  0  0  0  0
   42.4611   12.4428   10.4300 N   0  0  0  0  0  0  0  0  0  0  0  0
   42.2032   11.5844    9.3915 C   0  0  0  0  0  0  0  0  0  0  0  0
   43.6203   13.3079   10.5489 C   0  0  0  0  0  0  0  0  0  0  0  0
   38.0406   11.2693   13.1846 O   0  0  0  0  0  0  0  0  0  0  0  0
   41.9060   13.8091   13.0319 O   0  0  0  0  0  0  0  0  0  0  0  0
   44.6482   12.7623   11.5012 C   0  0  0  0  0  0  0  0  0  0  0  0
   44.6834   11.6546   12.0104 O   0  0  0  0  0  0  0  0  0  0  0  0
   38.5422   10.0589   10.7267 C   0  0  0  0  0  0  0  0  0  0  0  0
   39.5613   13.1537   14.3861 C   0  0  0  0  0  0  0  0  0  0  0  0
   45.6431   13.6460   11.7338 O   0  0  0  0  0  0  0  0  0  0  0  0
   40.4317   11.0542   11.6986 C   0  0  0  0  0  0  0  0  0  0  0  0
   41.5518   11.8264   11.7539 C   0  0  0  0  0  0  0  0  0  0  0  0
   39.2134   11.5153   12.1340 N   0  0  0  0  0  0  0  0  0  0  0  0
   40.2901   13.5922   12.6501 N   0  0  0  0  0  0  0  0  0  0  0  0
   39.1073   12.8254   12.6036 C   0  0  0  0  0  0  0  0  0  0  0  0
   41.5550   13.1601   12.2451 C   0  0  0  0  0  0  0  0  0  0  0  0
   40.6896    9.8219   11.1792 N   0  0  0  0  0  0  0  0  0  0  0  0
   42.5488   11.0428   11.2438 N   0  0  0  0  0  0  0  0  0  0  0  0
   41.9786    9.8428   10.9049 C   0  0  0  0  0  0  0  0  0  0  0  0
   43.9540   11.3815   11.1174 C   0  0  0  0  0  0  0  0  0  0  0  0
   38.0267   13.3014   12.9653 O   0  0  0  0  0  0  0  0  0  0  0  0
   42.5767   13.8378   12.3009 O   0  0  0  0  0  0  0  0  0  0  0  0
   44.2284   12.2595    9.9276 C   0  0  0  0  0  0  0  0  0  0  0  0
   43.4693   12.5420    9.0157 O   0  0  0  0  0  0  0  0  0  0  0  0
   38.0310   10.6809   12.0297 C   0  0  0  0  0  0  0  0  0  0  0  0
   40.1569   14.9470   13.1486 C   0  0  0  0  0  0  0  0  0  0  0  0
   45.4991   12.7175    9.9163 O   0  0  0  0  0  0  0  0  0  0  0  0
   40.6518   11.0104   10.9451 N   0  0  0  0  0  0  0  0  0  0  0  0
   41.8414   13.3065   12.4102 N   0  0  0  0  0  0  0  0  0  0  0  0
   41.6522   11.9014   10.3315 C   0  0  0  0  0  0  0  0  0  0  0  0
   42.5795   12.5706   11.3686 C   0  0  0  0  0  0  0  0  0  0  0  0
   39.9139   11.7464   11.9868 C   0  0  0  0  0  0  0  0  0  0  0  0
   40.8414   12.4153   13.0242 C   0  0  0  0  0  0  0  0  0  0  0  0
   42.8784   11.4507    8.5551 H   0  0  0  0  0  0  0  0  0  0  0  0
   43.2733   14.2893   10.8838 H   0  0  0  0  0  0  0  0  0  0  0  0
   44.0709   13.4062    9.5564 H   0  0  0  0  0  0  0  0  0  0  0  0
   37.5513   10.0350   11.1887 H   0  0  0  0  0  0  0  0  0  0  0  0
   39.0147    9.0799   10.8580 H   0  0  0  0  0  0  0  0  0  0  0  0
   38.4218   10.2701    9.6590 H   0  0  0  0  0  0  0  0  0  0  0  0
   39.7088   12.3900   15.1563 H   0  0  0  0  0  0  0  0  0  0  0  0
   40.1595   14.0330   14.6378 H   0  0  0  0  0  0  0  0  0  0  0  0
   38.5051   13.4403   14.3766 H   0  0  0  0  0  0  0  0  0  0  0  0
   46.2335   13.1826   12.3678 H   0  0  0  0  0  0  0  0  0  0  0  0
   42.5395    9.0255   10.4689 H   0  0  0  0  0  0  0  0  0  0  0  0
   44.5173   10.4492   11.0103 H   0  0  0  0  0  0  0  0  0  0  0  0
   44.2602   11.8831   12.0399 H   0  0  0  0  0  0  0  0  0  0  0  0
   37.6802   10.7019   10.9932 H   0  0  0  0  0  0  0  0  0  0  0  0
   38.2707    9.6525   12.3157 H   0  0  0  0  0  0  0  0  0  0  0  0
   37.2307   11.0442   12.6800 H   0  0  0  0  0  0  0  0  0  0  0  0
   39.4521   15.4919   12.5114 H   0  0  0  0  0  0  0  0  0  0  0  0
   39.7504   14.9146   14.1645 H   0  0  0  0  0  0  0  0  0  0  0  0
   41.1082   15.4837   13.1654 H   0  0  0  0  0  0  0  0  0  0  0  0
   45.5438   13.2849    9.1164 H   0  0  0  0  0  0  0  0  0  0  0  0
   41.1541   10.2474   11.4010 H   0  0  0  0  0  0  0  0  0  0  0  0
   41.3391   14.0696   11.9547 H   0  0  0  0  0  0  0  0  0  0  0  0
   41.1360   12.6701    9.7431 H   0  0  0  0  0  0  0  0  0  0  0  0
   42.2567   11.3193    9.6271 H   0  0  0  0  0  0  0  0  0  0  0  0
   43.2138   11.8128   11.8450 H   0  0  0  0  0  0  0  0  0  0  0  0
   43.2522   13.2672   10.8565 H   0  0  0  0  0  0  0  0  0  0  0  0
   39.2797   12.5047   11.5110 H   0  0  0  0  0  0  0  0  0  0  0  0
   39.2408   11.0501   12.4990 H   0  0  0  0  0  0  0  0  0  0  0  0
   40.2369   12.9977   13.7282 H   0  0  0  0  0  0  0  0  0  0  0  0
   41.3581   11.6468   13.6125 H   0  0  0  0  0  0  0  0  0  0  0  0
  2  1  2  0
  3  1  1  0
  4  5  1  0
  5  3  1  0
  6  2  1  0
  7  1  1  0
  8  2  1  0
  9  7  2  0
 10  8  1  0
 11  5  2  0
 12  6  2  0
 13 10  1  0
 14 13  2  0
 15  3  1  0
 16  4  1  0
 17 13  1  0
  6  4  1  0
  8  9  1  0
 19 18  2  0
 20 18  1  0
 21 22  1  0
 22 20  1  0
 23 19  1  0
 24 18  1  0
 25 19  1  0
 26 24  2  0
 27 25  1  0
 28 22  2  0
 29 23  2  0
 30 27  1  0
 31 30  2  0
 32 20  1  0
 33 21  1  0
 34 30  1  0
 23 21  1  0
 25 26  1  0
 36 40  1  0
 37 35  1  0
 38 37  1  0
 39 35  1  0
 40 39  1  0
 38 36  1  0
  9 41  1  0
 10 42  1  0
 10 43  1  0
 15 44  1  0
 15 45  1  0
 15 46  1  0
 16 47  1  0
 16 48  1  0
 16 49  1  0
 17 50  1  0
 26 51  1  0
 27 52  1  0
 27 53  1  0
 32 54  1  0
 32 55  1  0
 32 56  1  0
 33 57  1  0
 33 58  1  0
 33 59  1  0
 34 60  1  0
 35 61  1  0
 36 62  1  0
 37 63  1  0
 37 64  1  0
 38 65  1  0
 38 66  1  0
 39 67  1  0
 39 68  1  0
 40 69  1  0
 40 70  1  0
M  END
> <Uni-Dock RESULT> 
ENERGY=   -4.066  LOWER_BOUND=   12.309  UPPER_BOUND=   14.083
INTER + INTRA:          -4.066
INTER:                  -4.066
INTRA:                   0.000
UNBOUND:                 0.000

$$$$

     RDKit          3D

 70 72  0  0  0  0  0  0  0  0999 V2000
   48.5805    7.9273   21.5507 C   0  0  0  0  0  0  0  0  0  0  0  0
   48.2686    8.4990   20.3551 C   0  0  0  0  0  0  0  0  0  0  0  0
   48.4587    6.5749   21.7596 N   0  0  0  0  0  0  0  0  0  0  0  0
   47.6923    6.3902   19.4985 N   0  0  0  0  0  0  0  0  0  0  0  0
   47.9672    5.7669   20.7336 C   0  0  0  0  0  0  0  0  0  0  0  0
   47.7952    7.7584   19.2382 C   0  0  0  0  0  0  0  0  0  0  0  0
   49.0037    8.8488   22.4604 N   0  0  0  0  0  0  0  0  0  0  0  0
   48.4971    9.8354   20.5307 N   0  0  0  0  0  0  0  0  0  0  0  0
   48.9375    9.9988   21.8195 C   0  0  0  0  0  0  0  0  0  0  0  0
   48.3492   10.8890   19.5437 C   0  0  0  0  0  0  0  0  0  0  0  0
   47.7764    4.5576   20.8927 O   0  0  0  0  0  0  0  0  0  0  0  0
   47.5129    8.2885   18.1677 O   0  0  0  0  0  0  0  0  0  0  0  0
   46.9177   11.3151   19.3693 C   0  0  0  0  0  0  0  0  0  0  0  0
   45.9572   11.0109   20.0565 O   0  0  0  0  0  0  0  0  0  0  0  0
   48.7571    6.0062   23.0601 C   0  0  0  0  0  0  0  0  0  0  0  0
   47.1929    5.5346   18.4408 C   0  0  0  0  0  0  0  0  0  0  0  0
   46.7666   12.1733   18.3371 O   0  0  0  0  0  0  0  0  0  0  0  0
   47.7273    7.3309   21.4200 C   0  0  0  0  0  0  0  0  0  0  0  0
   47.5959    8.3702   20.5502 C   0  0  0  0  0  0  0  0  0  0  0  0
   48.1708    6.0971   21.0107 N   0  0  0  0  0  0  0  0  0  0  0  0
   48.3864    7.0107   18.8067 N   0  0  0  0  0  0  0  0  0  0  0  0
   48.5413    5.9124   19.6778 C   0  0  0  0  0  0  0  0  0  0  0  0
   47.9150    8.2746   19.1685 C   0  0  0  0  0  0  0  0  0  0  0  0
   47.3675    7.6799   22.6864 N   0  0  0  0  0  0  0  0  0  0  0  0
   47.1382    9.4117   21.3079 N   0  0  0  0  0  0  0  0  0  0  0  0
   47.0212    8.9483   22.5931 C   0  0  0  0  0  0  0  0  0  0  0  0
   46.7950   10.7454   20.8512 C   0  0  0  0  0  0  0  0  0  0  0  0
   48.9873    4.8356   19.2697 O   0  0  0  0  0  0  0  0  0  0  0  0
   47.7774    9.2177   18.3952 O   0  0  0  0  0  0  0  0  0  0  0  0
   48.0071   11.6118   20.6462 C   0  0  0  0  0  0  0  0  0  0  0  0
   49.1569   11.3808   20.9810 O   0  0  0  0  0  0  0  0  0  0  0  0
   48.3337    5.0191   21.9681 C   0  0  0  0  0  0  0  0  0  0  0  0
   48.7703    6.7931   17.4257 C   0  0  0  0  0  0  0  0  0  0  0  0
   47.6984   12.7854   20.0527 O   0  0  0  0  0  0  0  0  0  0  0  0
   48.1670    7.8644   21.7944 N   0  0  0  0  0  0  0  0  0  0  0  0
   47.7434    8.4669   18.9150 N   0  0  0  0  0  0  0  0  0  0  0  0
   48.6437    9.1130   21.1740 C   0  0  0  0  0  0  0  0  0  0  0  0
   47.8163    9.5253   19.9375 C   0  0  0  0  0  0  0  0  0  0  0  0
   48.0940    6.8061   20.7716 C   0  0  0  0  0  0  0  0  0  0  0  0
   47.2662    7.2185   19.5353 C   0  0  0  0  0  0  0  0  0  0  0  0
   49.1947   10.9647   22.2371 H   0  0  0  0  0  0  0  0  0  0  0  0
   48.7555   10.5215   18.5974 H   0  0  0  0  0  0  0  0  0  0  0  0
   48.9386   11.7487   19.8773 H   0  0  0  0  0  0  0  0  0  0  0  0
   48.8334    4.9162   23.0142 H   0  0  0  0  0  0  0  0  0  0  0  0
   47.9524    6.2731   23.7530 H   0  0  0  0  0  0  0  0  0  0  0  0
   49.7082    6.4049   23.4282 H   0  0  0  0  0  0  0  0  0  0  0  0
   46.1669    5.2434   18.6869 H   0  0  0  0  0  0  0  0  0  0  0  0
   47.1978    6.0324   17.4678 H   0  0  0  0  0  0  0  0  0  0  0  0
   47.8058    4.6304   18.3740 H   0  0  0  0  0  0  0  0  0  0  0  0
   45.8030   12.3644   18.3218 H   0  0  0  0  0  0  0  0  0  0  0  0
   46.6810    9.5666   23.4144 H   0  0  0  0  0  0  0  0  0  0  0  0
   46.1513   11.2056   21.6074 H   0  0  0  0  0  0  0  0  0  0  0  0
   46.2364   10.6441   19.9163 H   0  0  0  0  0  0  0  0  0  0  0  0
   49.2642    5.1818   22.5208 H   0  0  0  0  0  0  0  0  0  0  0  0
   47.4902    5.0049   22.6647 H   0  0  0  0  0  0  0  0  0  0  0  0
   48.3864    4.0487   21.4674 H   0  0  0  0  0  0  0  0  0  0  0  0
   49.8277    6.5097   17.3918 H   0  0  0  0  0  0  0  0  0  0  0  0
   48.1781    5.9680   17.0170 H   0  0  0  0  0  0  0  0  0  0  0  0
   48.6198    7.6783   16.8036 H   0  0  0  0  0  0  0  0  0  0  0  0
   48.5622   13.2419   19.9573 H   0  0  0  0  0  0  0  0  0  0  0  0
   47.2198    8.0304   22.1374 H   0  0  0  0  0  0  0  0  0  0  0  0
   48.6904    8.3008   18.5716 H   0  0  0  0  0  0  0  0  0  0  0  0
   49.6979    8.9955   20.8940 H   0  0  0  0  0  0  0  0  0  0  0  0
   48.6039    9.9142   21.9203 H   0  0  0  0  0  0  0  0  0  0  0  0
   46.7993    9.7994   20.2443 H   0  0  0  0  0  0  0  0  0  0  0  0
   48.2605   10.4194   19.4865 H   0  0  0  0  0  0  0  0  0  0  0  0
   49.1107    6.5320   20.4641 H   0  0  0  0  0  0  0  0  0  0  0  0
   47.6501    5.9118   21.2224 H   0  0  0  0  0  0  0  0  0  0  0  0
   47.3064    6.4176   18.7888 H   0  0  0  0  0  0  0  0  0  0  0  0
   46.2119    7.3365   19.8150 H   0  0  0  0  0  0  0  0  0  0  0  0
  2  1  2  0
  3  1  1  0
  4  5  1  0
  5  3  1  0
  6  2  1  0
  7  1  1  0
  8  2  1  0
  9  7  2  0
 10  8  1  0
 11  5  2  0
 12  6  2  0
 13 10  1  0
 14 13  2  0
 15  3  1  0
 16  4  1  0
 17 13  1  0
  6  4  1  0
  8  9  1  0
 19 18  2  0
 20 18  1  0
 21 22  1  0
 22 20  1  0
 23 19  1  0
 24 18  1  0
 25 19  1  0
 26 24  2  0
 27 25  1  0
 28 22  2  0
 29 23  2  0
 30 27  1  0
 31 30  2  0
 32 20  1  0
 33 21  1  0
 34 30  1  0
 23 21  1  0
 25 26  1  0
 36 40  1  0
 37 35  1  0
 38 37  1  0
 39 35  1  0
 40 39  1  0
 38 36  1  0
  9 41  1  0
 10 42  1  0
 10 43  1  0
 15 44  1  0
 15 45  1  0
 15 46  1  0
 16 47  1  0
 16 48  1  0
 16 49  1  0
 17 50  1  0
 26 51  1  0
 27 52  1  0
 27 53  1  0
 32 54  1  0
 32 55  1  0
 32 56  1  0
 33 57  1  0
 33 58  1  0
 33 59  1  0
 34 60  1  0
 35 61  1  0
 36 62  1  0
 37 63  1  0
 37 64  1  0
 38 65  1  0
 38 66  1  0
 39 67  1  0
 39 68  1  0
 40 69  1  0
 40 70  1  0
M  END
> <Uni-Dock RESULT> 
ENERGY=   -4.052  LOWER_BOUND=    3.619  UPPER_BOUND=    5.768
INTER + INTRA:          -4.052
INTER:                  -4.052
INTRA:                   0.000
UNBOUND:                 0.000

$$$$

     RDKit          3D

 70 72  0  0  0  0  0  0  0  0999 V2000
   51.2671    4.7810   17.3952 C   0  0  0  0  0  0  0  0  0  0  0  0
   50.1109    5.4917   17.2863 C   0  0  0  0  0  0  0  0  0  0  0  0
   51.2656    3.4149   17.5409 N   0  0  0  0  0  0  0  0  0  0  0  0
   48.8740    3.5036   17.4614 N   0  0  0  0  0  0  0  0  0  0  0  0
   50.0480    2.7375   17.6173 C   0  0  0  0  0  0  0  0  0  0  0  0
   48.8228    4.8916   17.3158 C   0  0  0  0  0  0  0  0  0  0  0  0
   52.3654    5.5854   17.3456 N   0  0  0  0  0  0  0  0  0  0  0  0
   50.5054    6.7958   17.1747 N   0  0  0  0  0  0  0  0  0  0  0  0
   51.8765    6.8030   17.2185 C   0  0  0  0  0  0  0  0  0  0  0  0
   49.6552    7.9589   17.0001 C   0  0  0  0  0  0  0  0  0  0  0  0
   49.9922    1.5201   17.8145 O   0  0  0  0  0  0  0  0  0  0  0  0
   47.7886    5.5460   17.2217 O   0  0  0  0  0  0  0  0  0  0  0  0
   49.0386    8.4183   18.2923 C   0  0  0  0  0  0  0  0  0  0  0  0
   49.3057    8.0467   19.4227 O   0  0  0  0  0  0  0  0  0  0  0  0
   52.5149    2.6952   17.6993 C   0  0  0  0  0  0  0  0  0  0  0  0
   47.6188    2.7828   17.5326 C   0  0  0  0  0  0  0  0  0  0  0  0
   48.1231    9.3927   18.0987 O   0  0  0  0  0  0  0  0  0  0  0  0
   50.7786    4.2134   18.1301 C   0  0  0  0  0  0  0  0  0  0  0  0
   50.0414    5.3484   17.9805 C   0  0  0  0  0  0  0  0  0  0  0  0
   50.4144    3.0310   17.5337 N   0  0  0  0  0  0  0  0  0  0  0  0
   48.5449    4.1929   16.5884 N   0  0  0  0  0  0  0  0  0  0  0  0
   49.2848    2.9988   16.7146 C   0  0  0  0  0  0  0  0  0  0  0  0
   48.8585    5.4111   17.1951 C   0  0  0  0  0  0  0  0  0  0  0  0
   51.8687    4.4164   18.9208 N   0  0  0  0  0  0  0  0  0  0  0  0
   50.7028    6.2995   18.7060 N   0  0  0  0  0  0  0  0  0  0  0  0
   51.8038    5.6908   19.2512 C   0  0  0  0  0  0  0  0  0  0  0  0
   50.3085    7.6811   18.9083 C   0  0  0  0  0  0  0  0  0  0  0  0
   48.9404    1.9720   16.1213 O   0  0  0  0  0  0  0  0  0  0  0  0
   48.1980    6.4394   17.0821 O   0  0  0  0  0  0  0  0  0  0  0  0
   50.6415    8.5520   17.7284 C   0  0  0  0  0  0  0  0  0  0  0  0
   51.3304    8.2708   16.7619 O   0  0  0  0  0  0  0  0  0  0  0  0
   51.2397    1.8470   17.6833 C   0  0  0  0  0  0  0  0  0  0  0  0
   47.3715    4.1335   15.7390 C   0  0  0  0  0  0  0  0  0  0  0  0
   50.1142    9.7901   17.8456 O   0  0  0  0  0  0  0  0  0  0  0  0
   51.3412    4.6948   17.8657 N   0  0  0  0  0  0  0  0  0  0  0  0
   48.5843    5.6336   17.2729 N   0  0  0  0  0  0  0  0  0  0  0  0
   51.0732    6.0018   17.2405 C   0  0  0  0  0  0  0  0  0  0  0  0
   49.6800    6.5646   17.5950 C   0  0  0  0  0  0  0  0  0  0  0  0
   50.2453    3.7638   17.5437 C   0  0  0  0  0  0  0  0  0  0  0  0
   48.8521    4.3267   17.8986 C   0  0  0  0  0  0  0  0  0  0  0  0
   52.4641    7.7107   17.1534 H   0  0  0  0  0  0  0  0  0  0  0  0
   48.8768    7.6998   16.2772 H   0  0  0  0  0  0  0  0  0  0  0  0
   50.2695    8.7673   16.5913 H   0  0  0  0  0  0  0  0  0  0  0  0
   52.3758    1.6172   17.5785 H   0  0  0  0  0  0  0  0  0  0  0  0
   52.9065    2.8884   18.7034 H   0  0  0  0  0  0  0  0  0  0  0  0
   53.2361    3.0377   16.9499 H   0  0  0  0  0  0  0  0  0  0  0  0
   47.4543    2.4763   18.5704 H   0  0  0  0  0  0  0  0  0  0  0  0
   46.7725    3.3905   17.2027 H   0  0  0  0  0  0  0  0  0  0  0  0
   47.6698    1.8858   16.9077 H   0  0  0  0  0  0  0  0  0  0  0  0
   47.7921    9.5949   19.0014 H   0  0  0  0  0  0  0  0  0  0  0  0
   52.5176    6.2129   19.8761 H   0  0  0  0  0  0  0  0  0  0  0  0
   50.8373    8.0571   19.7898 H   0  0  0  0  0  0  0  0  0  0  0  0
   49.2319    7.6957   19.1010 H   0  0  0  0  0  0  0  0  0  0  0  0
   52.0985    1.9338   17.0106 H   0  0  0  0  0  0  0  0  0  0  0  0
   51.5893    1.7610   18.7164 H   0  0  0  0  0  0  0  0  0  0  0  0
   50.6830    0.9410   17.4290 H   0  0  0  0  0  0  0  0  0  0  0  0
   47.6793    3.8443   14.7284 H   0  0  0  0  0  0  0  0  0  0  0  0
   46.6904    3.3683   16.1251 H   0  0  0  0  0  0  0  0  0  0  0  0
   46.8405    5.0868   15.6892 H   0  0  0  0  0  0  0  0  0  0  0  0
   50.3804   10.2451   17.0174 H   0  0  0  0  0  0  0  0  0  0  0  0
   51.3462    4.8301   18.8777 H   0  0  0  0  0  0  0  0  0  0  0  0
   48.5790    5.4980   16.2611 H   0  0  0  0  0  0  0  0  0  0  0  0
   51.1699    5.9061   16.1519 H   0  0  0  0  0  0  0  0  0  0  0  0
   51.8434    6.7109   17.5635 H   0  0  0  0  0  0  0  0  0  0  0  0
   49.6390    6.8123   18.6630 H   0  0  0  0  0  0  0  0  0  0  0  0
   49.5178    7.5002   17.0487 H   0  0  0  0  0  0  0  0  0  0  0  0
   50.2856    3.5161   16.4757 H   0  0  0  0  0  0  0  0  0  0  0  0
   50.4074    2.8280   18.0897 H   0  0  0  0  0  0  0  0  0  0  0  0
   48.0820    3.6178   17.5751 H   0  0  0  0  0  0  0  0  0  0  0  0
   48.7552    4.4230   18.9872 H   0  0  0  0  0  0  0  0  0  0  0  0
  2  1  2  0
  3  1  1  0
  4  5  1  0
  5  3  1  0
  6  2  1  0
  7  1  1  0
  8  2  1  0
  9  7  2  0
 10  8  1  0
 11  5  2  0
 12  6  2  0
 13 10  1  0
 14 13  2  0
 15  3  1  0
 16  4  1  0
 17 13  1  0
  6  4  1  0
  8  9  1  0
 19 18  2  0
 20 18  1  0
 21 22  1  0
 22 20  1  0
 23 19  1  0
 24 18  1  0
 25 19  1  0
 26 24  2  0
 27 25  1  0
 28 22  2  0
 29 23  2  0
 30 27  1  0
 31 30  2  0
 32 20  1  0
 33 21  1  0
 34 30  1  0
 23 21  1  0
 25 26  1  0
 36 40  1  0
 37 35  1  0
 38 37  1  0
 39 35  1  0
 40 39  1  0
 38 36  1  0
  9 41  1  0
 10 42  1  0
 10 43  1  0
 15 44  1  0
 15 45  1  0
 15 46  1  0
 16 47  1  0
 16 48  1  0
 16 49  1  0
 17 50  1  0
 26 51  1  0
 27 52  1  0
 27 53  1  0
 32 54  1  0
 32 55  1  0
 32 56  1  0
 33 57  1  0
 33 58  1  0
 33 59  1  0
 34 60  1  0
 35 61  1  0
 36 62  1  0
 37 63  1  0
 37 64  1  0
 38 65  1  0
 38 66  1  0
 39 67  1  0
 39 68  1  0
 40 69  1  0
 40 70  1  0
M  END
> <Uni-Dock RESULT> 
ENERGY=   -4.051  LOWER_BOUND=    2.255  UPPER_BOUND=    3.997
INTER + INTRA:          -4.051
INTER:                  -4.051
INTRA:                   0.000
UNBOUND:                 0.000

$$$$

     RDKit          3D

 70 72  0  0  0  0  0  0  0  0999 V2000
   47.8213   12.3613   17.8479 C   0  0  0  0  0  0  0  0  0  0  0  0
   47.8835   11.0111   18.0121 C   0  0  0  0  0  0  0  0  0  0  0  0
   48.4812   12.9967   16.8241 N   0  0  0  0  0  0  0  0  0  0  0  0
   49.2752   10.8475   16.1282 N   0  0  0  0  0  0  0  0  0  0  0  0
   49.2676   12.2465   15.9489 C   0  0  0  0  0  0  0  0  0  0  0  0
   48.6266   10.1561   17.1537 C   0  0  0  0  0  0  0  0  0  0  0  0
   47.0521   12.9550   18.8027 N   0  0  0  0  0  0  0  0  0  0  0  0
   47.1294   10.7538   19.1230 N   0  0  0  0  0  0  0  0  0  0  0  0
   46.6499   11.9597   19.5676 C   0  0  0  0  0  0  0  0  0  0  0  0
   46.8440    9.4577   19.7101 C   0  0  0  0  0  0  0  0  0  0  0  0
   49.9327   12.7774   15.0544 O   0  0  0  0  0  0  0  0  0  0  0  0
   48.6777    8.9407   17.3173 O   0  0  0  0  0  0  0  0  0  0  0  0
   47.9795    8.9469   20.5532 C   0  0  0  0  0  0  0  0  0  0  0  0
   48.9749    9.5522   20.9141 O   0  0  0  0  0  0  0  0  0  0  0  0
   48.4292   14.4414   16.7063 C   0  0  0  0  0  0  0  0  0  0  0  0
   50.0885   10.0828   15.2040 C   0  0  0  0  0  0  0  0  0  0  0  0
   47.7769    7.6745   20.9591 O   0  0  0  0  0  0  0  0  0  0  0  0
   48.8445   12.3203   17.6193 C   0  0  0  0  0  0  0  0  0  0  0  0
   48.5488   11.1403   18.2310 C   0  0  0  0  0  0  0  0  0  0  0  0
   48.9448   12.4213   16.2532 N   0  0  0  0  0  0  0  0  0  0  0  0
   48.3945   10.0927   16.1354 N   0  0  0  0  0  0  0  0  0  0  0  0
   48.6927   11.2973   15.4652 C   0  0  0  0  0  0  0  0  0  0  0  0
   48.3077    9.9334   17.5202 C   0  0  0  0  0  0  0  0  0  0  0  0
   49.0204   13.3282   18.5183 N   0  0  0  0  0  0  0  0  0  0  0  0
   48.5365   11.4266   19.5676 N   0  0  0  0  0  0  0  0  0  0  0  0
   48.8213   12.7620   19.6917 C   0  0  0  0  0  0  0  0  0  0  0  0
   48.3110   10.5007   20.6617 C   0  0  0  0  0  0  0  0  0  0  0  0
   48.7271   11.3466   14.2317 O   0  0  0  0  0  0  0  0  0  0  0  0
   48.0560    8.8749   18.0882 O   0  0  0  0  0  0  0  0  0  0  0  0
   46.8531   10.1890   20.8590 C   0  0  0  0  0  0  0  0  0  0  0  0
   45.8940   10.7427   20.3478 O   0  0  0  0  0  0  0  0  0  0  0  0
   49.2268   13.7004   15.6289 C   0  0  0  0  0  0  0  0  0  0  0  0
   48.1440    8.9371   15.2966 C   0  0  0  0  0  0  0  0  0  0  0  0
   46.6624    9.1952   21.7538 O   0  0  0  0  0  0  0  0  0  0  0  0
   48.2225   12.5502   18.0419 N   0  0  0  0  0  0  0  0  0  0  0  0
   48.3883    9.6080   17.6555 N   0  0  0  0  0  0  0  0  0  0  0  0
   47.2841   11.6179   18.6910 C   0  0  0  0  0  0  0  0  0  0  0  0
   47.8824   10.2104   18.9015 C   0  0  0  0  0  0  0  0  0  0  0  0
   48.7285   11.9476   16.7960 C   0  0  0  0  0  0  0  0  0  0  0  0
   49.3271   10.5401   17.0067 C   0  0  0  0  0  0  0  0  0  0  0  0
   46.0183   12.0571   20.4423 H   0  0  0  0  0  0  0  0  0  0  0  0
   46.6303    8.7603   18.8955 H   0  0  0  0  0  0  0  0  0  0  0  0
   45.9529    9.5605   20.3372 H   0  0  0  0  0  0  0  0  0  0  0  0
   48.8036   14.7793   15.7358 H   0  0  0  0  0  0  0  0  0  0  0  0
   49.0498   14.8805   17.4943 H   0  0  0  0  0  0  0  0  0  0  0  0
   47.3952   14.7842   16.8172 H   0  0  0  0  0  0  0  0  0  0  0  0
   51.1421   10.2642   15.4387 H   0  0  0  0  0  0  0  0  0  0  0  0
   49.8895    9.0100   15.2665 H   0  0  0  0  0  0  0  0  0  0  0  0
   49.8972   10.4148   14.1788 H   0  0  0  0  0  0  0  0  0  0  0  0
   48.5794    7.4581   21.4829 H   0  0  0  0  0  0  0  0  0  0  0  0
   48.8735   13.2675   20.6479 H   0  0  0  0  0  0  0  0  0  0  0  0
   48.7054   10.9560   21.5756 H   0  0  0  0  0  0  0  0  0  0  0  0
   48.8703    9.5860   20.4449 H   0  0  0  0  0  0  0  0  0  0  0  0
   48.3061   14.2918   15.6154 H   0  0  0  0  0  0  0  0  0  0  0  0
   49.9972   14.2326   16.1946 H   0  0  0  0  0  0  0  0  0  0  0  0
   49.5778   13.5713   14.6016 H   0  0  0  0  0  0  0  0  0  0  0  0
   47.2938    9.1524   14.6406 H   0  0  0  0  0  0  0  0  0  0  0  0
   49.0241    8.7524   14.6723 H   0  0  0  0  0  0  0  0  0  0  0  0
   47.9264    8.0370   15.8760 H   0  0  0  0  0  0  0  0  0  0  0  0
   45.6884    9.0748   21.7766 H   0  0  0  0  0  0  0  0  0  0  0  0
   49.0173   12.6778   18.6699 H   0  0  0  0  0  0  0  0  0  0  0  0
   47.5938    9.4801   17.0273 H   0  0  0  0  0  0  0  0  0  0  0  0
   46.3714   11.5477   18.0864 H   0  0  0  0  0  0  0  0  0  0  0  0
   46.9882   12.0345   19.6601 H   0  0  0  0  0  0  0  0  0  0  0  0
   48.6972   10.2577   19.6345 H   0  0  0  0  0  0  0  0  0  0  0  0
   47.1166    9.5511   19.3245 H   0  0  0  0  0  0  0  0  0  0  0  0
   47.9139   11.8996   16.0627 H   0  0  0  0  0  0  0  0  0  0  0  0
   49.4941   12.6068   16.3725 H   0  0  0  0  0  0  0  0  0  0  0  0
   49.6225   10.1233   16.0375 H   0  0  0  0  0  0  0  0  0  0  0  0
   50.2397   10.6098   17.6117 H   0  0  0  0  0  0  0  0  0  0  0  0
  2  1  2  0
  3  1  1  0
  4  5  1  0
  5  3  1  0
  6  2  1  0
  7  1  1  0
  8  2  1  0
  9  7  2  0
 10  8  1  0
 11  5  2  0
 12  6  2  0
 13 10  1  0
 14 13  2  0
 15  3  1  0
 16  4  1  0
 17 13  1  0
  6  4  1  0
  8  9  1  0
 19 18  2  0
 20 18  1  0
 21 22  1  0
 22 20  1  0
 23 19  1  0
 24 18  1  0
 25 19  1  0
 26 24  2  0
 27 25  1  0
 28 22  2  0
 29 23  2  0
 30 27  1  0
 31 30  2  0
 32 20  1  0
 33 21  1  0
 34 30  1  0
 23 21  1  0
 25 26  1  0
 36 40  1  0
 37 35  1  0
 38 37  1  0
 39 35  1  0
 40 39  1  0
 38 36  1  0
  9 41  1  0
 10 42  1  0
 10 43  1  0
 15 44  1  0
 15 45  1  0
 15 46  1  0
 16 47  1  0
 16 48  1  0
 16 49  1  0
 17 50  1  0
 26 51  1  0
 27 52  1  0
 27 53  1  0
 32 54  1  0
 32 55  1  0
 32 56  1  0
 33 57  1  0
 33 58  1  0
 33 59  1  0
 34 60  1  0
 35 61  1  0
 36 62  1  0
 37 63  1  0
 37 64  1  0
 38 65  1  0
 38 66  1  0
 39 67  1  0
 39 68  1  0
 40 69  1  0
 40 70  1  0
M  END
> <Uni-Dock RESULT> 
ENERGY=   -4.026  LOWER_BOUND=    5.838  UPPER_BOUND=    7.611
INTER + INTRA:          -4.026
INTER:                  -4.026
INTRA:                   0.000
UNBOUND:                 0.000

$$$$

     RDKit          3D

 70 72  0  0  0  0  0  0  0  0999 V2000
   47.5830    8.6266   12.1105 C   0  0  0  0  0  0  0  0  0  0  0  0
   48.5503    9.5611   11.8987 C   0  0  0  0  0  0  0  0  0  0  0  0
   46.2555    8.9677   12.2035 N   0  0  0  0  0  0  0  0  0  0  0  0
   46.9135   11.2440   11.8582 N   0  0  0  0  0  0  0  0  0  0  0  0
   45.8878   10.3110   12.1165 C   0  0  0  0  0  0  0  0  0  0  0  0
   48.2750   10.9486   11.7602 C   0  0  0  0  0  0  0  0  0  0  0  0
   48.1024    7.3716   12.2153 N   0  0  0  0  0  0  0  0  0  0  0  0
   49.7235    8.8596   11.8815 N   0  0  0  0  0  0  0  0  0  0  0  0
   49.4026    7.5407   12.0798 C   0  0  0  0  0  0  0  0  0  0  0  0
   51.0576    9.3844   11.6560 C   0  0  0  0  0  0  0  0  0  0  0  0
   44.7170   10.6755   12.2603 O   0  0  0  0  0  0  0  0  0  0  0  0
   49.1583   11.7805   11.5748 O   0  0  0  0  0  0  0  0  0  0  0  0
   51.6385   10.0238   12.8869 C   0  0  0  0  0  0  0  0  0  0  0  0
   51.2029    9.9878   14.0254 O   0  0  0  0  0  0  0  0  0  0  0  0
   45.2568    7.9514   12.4745 C   0  0  0  0  0  0  0  0  0  0  0  0
   46.5127   12.6333   11.7603 C   0  0  0  0  0  0  0  0  0  0  0  0
   52.8050   10.6539   12.6281 O   0  0  0  0  0  0  0  0  0  0  0  0
   47.1414    9.3188   12.7636 C   0  0  0  0  0  0  0  0  0  0  0  0
   48.4211    9.7442   12.5747 C   0  0  0  0  0  0  0  0  0  0  0  0
   46.0860    9.8784   12.0859 N   0  0  0  0  0  0  0  0  0  0  0  0
   47.6699   11.2954   10.9803 N   0  0  0  0  0  0  0  0  0  0  0  0
   46.3325   10.8785   11.1441 C   0  0  0  0  0  0  0  0  0  0  0  0
   48.7720   10.7773   11.6640 C   0  0  0  0  0  0  0  0  0  0  0  0
   47.0706    8.3131   13.6793 N   0  0  0  0  0  0  0  0  0  0  0  0
   49.1796    8.9678   13.4055 N   0  0  0  0  0  0  0  0  0  0  0  0
   48.3203    8.1141   14.0480 C   0  0  0  0  0  0  0  0  0  0  0  0
   50.6134    9.0459   13.6140 C   0  0  0  0  0  0  0  0  0  0  0  0
   45.4235   11.3828   10.4775 O   0  0  0  0  0  0  0  0  0  0  0  0
   49.9293   11.1582   11.5160 O   0  0  0  0  0  0  0  0  0  0  0  0
   51.3910    8.3794   12.5127 C   0  0  0  0  0  0  0  0  0  0  0  0
   50.9628    7.6669   11.6202 O   0  0  0  0  0  0  0  0  0  0  0  0
   44.7378    9.3797   12.2829 C   0  0  0  0  0  0  0  0  0  0  0  0
   47.9006   12.3405   10.0024 C   0  0  0  0  0  0  0  0  0  0  0  0
   52.7179    8.6097   12.6163 O   0  0  0  0  0  0  0  0  0  0  0  0
   47.4771    8.6312   12.5827 N   0  0  0  0  0  0  0  0  0  0  0  0
   49.0527   10.9985   11.7187 N   0  0  0  0  0  0  0  0  0  0  0  0
   48.8163    8.5072   11.9809 C   0  0  0  0  0  0  0  0  0  0  0  0
   49.6921    9.7601   12.1971 C   0  0  0  0  0  0  0  0  0  0  0  0
   46.8379    9.8698   12.1044 C   0  0  0  0  0  0  0  0  0  0  0  0
   47.7137   11.1227   12.3209 C   0  0  0  0  0  0  0  0  0  0  0  0
   50.1443    6.7520   12.1156 H   0  0  0  0  0  0  0  0  0  0  0  0
   50.9989   10.1107   10.8407 H   0  0  0  0  0  0  0  0  0  0  0  0
   51.6999    8.5527   11.3498 H   0  0  0  0  0  0  0  0  0  0  0  0
   44.2444    8.3257   12.2983 H   0  0  0  0  0  0  0  0  0  0  0  0
   45.3411    7.6471   13.5229 H   0  0  0  0  0  0  0  0  0  0  0  0
   45.4244    7.0862   11.8247 H   0  0  0  0  0  0  0  0  0  0  0  0
   46.2442   12.9872   12.7606 H   0  0  0  0  0  0  0  0  0  0  0  0
   47.3081   13.2670   11.3602 H   0  0  0  0  0  0  0  0  0  0  0  0
   45.6355   12.7218   11.1118 H   0  0  0  0  0  0  0  0  0  0  0  0
   53.0717   11.0323   13.4947 H   0  0  0  0  0  0  0  0  0  0  0  0
   48.6507    7.3765   14.7686 H   0  0  0  0  0  0  0  0  0  0  0  0
   50.8436    8.5516   14.5630 H   0  0  0  0  0  0  0  0  0  0  0  0
   50.8827   10.1037   13.6844 H   0  0  0  0  0  0  0  0  0  0  0  0
   44.6235    8.4511   11.7151 H   0  0  0  0  0  0  0  0  0  0  0  0
   44.5608    9.1851   13.3449 H   0  0  0  0  0  0  0  0  0  0  0  0
   43.9935   10.1002   11.9336 H   0  0  0  0  0  0  0  0  0  0  0  0
   47.5562   11.9922    9.0228 H   0  0  0  0  0  0  0  0  0  0  0  0
   47.3165   13.2238   10.2801 H   0  0  0  0  0  0  0  0  0  0  0  0
   48.9536   12.6218    9.9290 H   0  0  0  0  0  0  0  0  0  0  0  0
   53.1042    8.1475   11.8411 H   0  0  0  0  0  0  0  0  0  0  0  0
   47.5975    8.7143   13.5931 H   0  0  0  0  0  0  0  0  0  0  0  0
   48.9323   10.9157   10.7083 H   0  0  0  0  0  0  0  0  0  0  0  0
   48.7108    8.3076   10.9073 H   0  0  0  0  0  0  0  0  0  0  0  0
   49.3178    7.6352   12.4152 H   0  0  0  0  0  0  0  0  0  0  0  0
   49.9320    9.8677   13.2621 H   0  0  0  0  0  0  0  0  0  0  0  0
   50.6445    9.6310   11.6715 H   0  0  0  0  0  0  0  0  0  0  0  0
   46.5981    9.7629   11.0392 H   0  0  0  0  0  0  0  0  0  0  0  0
   45.8852    9.9990   12.6295 H   0  0  0  0  0  0  0  0  0  0  0  0
   47.2125   11.9945   11.8862 H   0  0  0  0  0  0  0  0  0  0  0  0
   47.8198   11.3224   13.3945 H   0  0  0  0  0  0  0  0  0  0  0  0
  2  1  2  0
  3  1  1  0
  4  5  1  0
  5  3  1  0
  6  2  1  0
  7  1  1  0
  8  2  1  0
  9  7  2  0
 10  8  1  0
 11  5  2  0
 12  6  2  0
 13 10  1  0
 14 13  2  0
 15  3  1  0
 16  4  1  0
 17 13  1  0
  6  4  1  0
  8  9  1  0
 19 18  2  0
 20 18  1  0
 21 22  1  0
 22 20  1  0
 23 19  1  0
 24 18  1  0
 25 19  1  0
 26 24  2  0
 27 25  1  0
 28 22  2  0
 29 23  2  0
 30 27  1  0
 31 30  2  0
 32 20  1  0
 33 21  1  0
 34 30  1  0
 23 21  1  0
 25 26  1  0
 36 40  1  0
 37 35  1  0
 38 37  1  0
 39 35  1  0
 40 39  1  0
 38 36  1  0
  9 41  1  0
 10 42  1  0
 10 43  1  0
 15 44  1  0
 15 45  1  0
 15 46  1  0
 16 47  1  0
 16 48  1  0
 16 49  1  0
 17 50  1  0
 26 51  1  0
 27 52  1  0
 27 53  1  0
 32 54  1  0
 32 55  1  0
 32 56  1  0
 33 57  1  0
 33 58  1  0
 33 59  1  0
 34 60  1  0
 35 61  1  0
 36 62  1  0
 37 63  1  0
 37 64  1  0
 38 65  1  0
 38 66  1  0
 39 67  1  0
 39 68  1  0
 40 69  1  0
 40 70  1  0
M  END
> <Uni-Dock RESULT> 
ENERGY=   -3.990  LOWER_BOUND=    7.577  UPPER_BOUND=    8.929
INTER + INTRA:          -3.990
INTER:                  -3.990
INTRA:                   0.000
UNBOUND:                 0.000

$$$$
