
     RDKit          3D

 70 72  0  0  0  0  0  0  0  0999 V2000
   47.0132    6.8508   13.5294 C   0  0  0  0  0  0  0  0  0  0  0  0
   46.4570    5.6866   13.0949 C   0  0  0  0  0  0  0  0  0  0  0  0
   47.9025    6.8824   14.5761 N   0  0  0  0  0  0  0  0  0  0  0  0
   47.6623    4.5041   14.7261 N   0  0  0  0  0  0  0  0  0  0  0  0
   48.2466    5.6912   15.2166 C   0  0  0  0  0  0  0  0  0  0  0  0
   46.7399    4.4234   13.6800 C   0  0  0  0  0  0  0  0  0  0  0  0
   46.5758    7.9223   12.8117 N   0  0  0  0  0  0  0  0  0  0  0  0
   45.6301    6.0489   12.0684 N   0  0  0  0  0  0  0  0  0  0  0  0
   45.7350    7.4101   11.9350 C   0  0  0  0  0  0  0  0  0  0  0  0
   44.8311    5.1736   11.2279 C   0  0  0  0  0  0  0  0  0  0  0  0
   49.0270    5.6658   16.1731 O   0  0  0  0  0  0  0  0  0  0  0  0
   46.2137    3.3852   13.2906 O   0  0  0  0  0  0  0  0  0  0  0  0
   43.5503    4.6981   11.8572 C   0  0  0  0  0  0  0  0  0  0  0  0
   42.7968    3.8730   11.3601 O   0  0  0  0  0  0  0  0  0  0  0  0
   48.4626    8.1475   15.0164 C   0  0  0  0  0  0  0  0  0  0  0  0
   48.0311    3.2781   15.4063 C   0  0  0  0  0  0  0  0  0  0  0  0
   43.2176    5.2845   13.0218 O   0  0  0  0  0  0  0  0  0  0  0  0
   47.4596    6.5420   13.0887 C   0  0  0  0  0  0  0  0  0  0  0  0
   46.5586    5.5219   13.1050 C   0  0  0  0  0  0  0  0  0  0  0  0
   48.2952    6.7871   14.1514 N   0  0  0  0  0  0  0  0  0  0  0  0
   47.2924    4.9127   15.2528 N   0  0  0  0  0  0  0  0  0  0  0  0
   48.2101    5.9823   15.2901 C   0  0  0  0  0  0  0  0  0  0  0  0
   46.4079    4.6371   14.2054 C   0  0  0  0  0  0  0  0  0  0  0  0
   47.4066    7.2480   11.9251 N   0  0  0  0  0  0  0  0  0  0  0  0
   45.9076    5.6031   11.9061 N   0  0  0  0  0  0  0  0  0  0  0  0
   46.4531    6.6631   11.2279 C   0  0  0  0  0  0  0  0  0  0  0  0
   44.8682    4.7200   11.4102 C   0  0  0  0  0  0  0  0  0  0  0  0
   48.9058    6.1967   16.2869 O   0  0  0  0  0  0  0  0  0  0  0  0
   45.5820    3.7287   14.2176 O   0  0  0  0  0  0  0  0  0  0  0  0
   43.5248    5.0127   12.0207 C   0  0  0  0  0  0  0  0  0  0  0  0
   43.2094    5.9653   12.7135 O   0  0  0  0  0  0  0  0  0  0  0  0
   49.2192    7.9057   14.1057 C   0  0  0  0  0  0  0  0  0  0  0  0
   47.1879    4.0639   16.4237 C   0  0  0  0  0  0  0  0  0  0  0  0
   42.6022    4.0861   11.6833 O   0  0  0  0  0  0  0  0  0  0  0  0
   46.9873    7.0152   13.3274 N   0  0  0  0  0  0  0  0  0  0  0  0
   46.1081    4.2108   13.7687 N   0  0  0  0  0  0  0  0  0  0  0  0
   46.1709    6.2828   12.3433 C   0  0  0  0  0  0  0  0  0  0  0  0
   45.3125    5.1700   12.9822 C   0  0  0  0  0  0  0  0  0  0  0  0
   47.7820    6.0566   14.1157 C   0  0  0  0  0  0  0  0  0  0  0  0
   46.9233    4.9434   14.7539 C   0  0  0  0  0  0  0  0  0  0  0  0
   45.1858    7.9733   11.1904 H   0  0  0  0  0  0  0  0  0  0  0  0
   44.5838    5.7265   10.3159 H   0  0  0  0  0  0  0  0  0  0  0  0
   45.4525    4.3127   10.9655 H   0  0  0  0  0  0  0  0  0  0  0  0
   47.6489    8.8059   15.3362 H   0  0  0  0  0  0  0  0  0  0  0  0
   49.1555    8.0184   15.8519 H   0  0  0  0  0  0  0  0  0  0  0  0
   49.0026    8.6091   14.1840 H   0  0  0  0  0  0  0  0  0  0  0  0
   47.6532    3.3205   16.4334 H   0  0  0  0  0  0  0  0  0  0  0  0
   49.1226    3.1976   15.4416 H   0  0  0  0  0  0  0  0  0  0  0  0
   47.6278    2.3887   14.9146 H   0  0  0  0  0  0  0  0  0  0  0  0
   42.3798    4.8473   13.2854 H   0  0  0  0  0  0  0  0  0  0  0  0
   46.1248    6.9636   10.2406 H   0  0  0  0  0  0  0  0  0  0  0  0
   45.1713    3.6927   11.6325 H   0  0  0  0  0  0  0  0  0  0  0  0
   44.8032    4.8501   10.3251 H   0  0  0  0  0  0  0  0  0  0  0  0
   49.8360    7.8282   13.2044 H   0  0  0  0  0  0  0  0  0  0  0  0
   49.8790    7.9240   14.9772 H   0  0  0  0  0  0  0  0  0  0  0  0
   48.6458    8.8379   14.0801 H   0  0  0  0  0  0  0  0  0  0  0  0
   46.2870    4.3502   16.9776 H   0  0  0  0  0  0  0  0  0  0  0  0
   48.0562    4.1545   17.0820 H   0  0  0  0  0  0  0  0  0  0  0  0
   47.0890    3.0167   16.1178 H   0  0  0  0  0  0  0  0  0  0  0  0
   41.7916    4.3685   12.1594 H   0  0  0  0  0  0  0  0  0  0  0  0
   46.3498    7.4901   13.9677 H   0  0  0  0  0  0  0  0  0  0  0  0
   46.7473    3.7394   13.1277 H   0  0  0  0  0  0  0  0  0  0  0  0
   46.8286    5.8526   11.5780 H   0  0  0  0  0  0  0  0  0  0  0  0
   45.5158    6.9956   11.8303 H   0  0  0  0  0  0  0  0  0  0  0  0
   44.7829    4.6242   12.1936 H   0  0  0  0  0  0  0  0  0  0  0  0
   44.5450    5.6157   13.6271 H   0  0  0  0  0  0  0  0  0  0  0  0
   48.5499    5.6117   13.4710 H   0  0  0  0  0  0  0  0  0  0  0  0
   48.3110    6.6028   14.9044 H   0  0  0  0  0  0  0  0  0  0  0  0
   47.5776    4.2306   15.2682 H   0  0  0  0  0  0  0  0  0  0  0  0
   46.2633    5.3734   15.5176 H   0  0  0  0  0  0  0  0  0  0  0  0
  2  1  2  0
  3  1  1  0
  4  5  1  0
  5  3  1  0
  6  2  1  0
  7  1  1  0
  8  2  1  0
  9  7  2  0
 10  8  1  0
 11  5  2  0
 12  6  2  0
 13 10  1  0
 14 13  2  0
 15  3  1  0
 16  4  1  0
 17 13  1  0
  6  4  1  0
  8  9  1  0
 19 18  2  0
 20 18  1  0
 21 22  1  0
 22 20  1  0
 23 19  1  0
 24 18  1  0
 25 19  1  0
 26 24  2  0
 27 25  1  0
 28 22  2  0
 29 23  2  0
 30 27  1  0
 31 30  2  0
 32 20  1  0
 33 21  1  0
 34 30  1  0
 23 21  1  0
 25 26  1  0
 36 40  1  0
 37 35  1  0
 38 37  1  0
 39 35  1  0
 40 39  1  0
 38 36  1  0
  9 41  1  0
 10 42  1  0
 10 43  1  0
 15 44  1  0
 15 45  1  0
 15 46  1  0
 16 47  1  0
 16 48  1  0
 16 49  1  0
 17 50  1  0
 26 51  1  0
 27 52  1  0
 27 53  1  0
 32 54  1  0
 32 55  1  0
 32 56  1  0
 33 57  1  0
 33 58  1  0
 33 59  1  0
 34 60  1  0
 35 61  1  0
 36 62  1  0
 37 63  1  0
 37 64  1  0
 38 65  1  0
 38 66  1  0
 39 67  1  0
 39 68  1  0
 40 69  1  0
 40 70  1  0
M  END
> <Uni-Dock RESULT> 
ENERGY=   -6.472  LOWER_BOUND=    0.000  UPPER_BOUND=    0.000
INTER + INTRA:          -6.472
INTER:                  -6.472
INTRA:                   0.000
UNBOUND:                 0.000

$$$$

     RDKit          3D

 70 72  0  0  0  0  0  0  0  0999 V2000
   45.4793    7.1640   12.8007 C   0  0  0  0  0  0  0  0  0  0  0  0
   46.5474    6.3388   12.9791 C   0  0  0  0  0  0  0  0  0  0  0  0
   45.6347    8.4938   12.4928 N   0  0  0  0  0  0  0  0  0  0  0  0
   48.0014    8.1281   12.5360 N   0  0  0  0  0  0  0  0  0  0  0  0
   46.9210    9.0188   12.3604 C   0  0  0  0  0  0  0  0  0  0  0  0
   47.8947    6.7754   12.8686 C   0  0  0  0  0  0  0  0  0  0  0  0
   44.2972    6.5090   12.9685 N   0  0  0  0  0  0  0  0  0  0  0  0
   46.0082    5.1192   13.2804 N   0  0  0  0  0  0  0  0  0  0  0  0
   44.6451    5.2721   13.2628 C   0  0  0  0  0  0  0  0  0  0  0  0
   46.7189    3.8745   13.5179 C   0  0  0  0  0  0  0  0  0  0  0  0
   47.1168   10.2101   12.1022 O   0  0  0  0  0  0  0  0  0  0  0  0
   48.8472    6.0238   13.0536 O   0  0  0  0  0  0  0  0  0  0  0  0
   47.3222    3.7492   14.8901 C   0  0  0  0  0  0  0  0  0  0  0  0
   48.0482    2.8327   15.2485 O   0  0  0  0  0  0  0  0  0  0  0  0
   44.4687    9.3421   12.3236 C   0  0  0  0  0  0  0  0  0  0  0  0
   49.3290    8.6935   12.3964 C   0  0  0  0  0  0  0  0  0  0  0  0
   46.9718    4.7027   15.7726 O   0  0  0  0  0  0  0  0  0  0  0  0
   45.6929    6.9382   12.1744 C   0  0  0  0  0  0  0  0  0  0  0  0
   46.7096    6.3682   12.8773 C   0  0  0  0  0  0  0  0  0  0  0  0
   45.6425    8.2915   11.9425 N   0  0  0  0  0  0  0  0  0  0  0  0
   47.7050    8.4804   13.1436 N   0  0  0  0  0  0  0  0  0  0  0  0
   46.6497    9.1127   12.4553 C   0  0  0  0  0  0  0  0  0  0  0  0
   47.7889    7.1127   13.4227 C   0  0  0  0  0  0  0  0  0  0  0  0
   44.7800    6.0151   11.7627 N   0  0  0  0  0  0  0  0  0  0  0  0
   46.4114    5.0350   12.9165 N   0  0  0  0  0  0  0  0  0  0  0  0
   45.2349    4.8701   12.2312 C   0  0  0  0  0  0  0  0  0  0  0  0
   47.1984    3.9771   13.5227 C   0  0  0  0  0  0  0  0  0  0  0  0
   46.6187   10.3386   12.3142 O   0  0  0  0  0  0  0  0  0  0  0  0
   48.6942    6.5921   14.0685 O   0  0  0  0  0  0  0  0  0  0  0  0
   47.0448    3.9306   15.0185 C   0  0  0  0  0  0  0  0  0  0  0  0
   46.2450    4.5407   15.7078 O   0  0  0  0  0  0  0  0  0  0  0  0
   44.5233    8.8626   11.2157 C   0  0  0  0  0  0  0  0  0  0  0  0
   48.7616    9.3134   13.6838 C   0  0  0  0  0  0  0  0  0  0  0  0
   47.9029    3.0579   15.5890 O   0  0  0  0  0  0  0  0  0  0  0  0
   45.2800    7.0026   12.7481 N   0  0  0  0  0  0  0  0  0  0  0  0
   48.1287    6.5243   13.4469 N   0  0  0  0  0  0  0  0  0  0  0  0
   45.8234    5.6480   12.9501 C   0  0  0  0  0  0  0  0  0  0  0  0
   47.0485    5.6246   13.8892 C   0  0  0  0  0  0  0  0  0  0  0  0
   46.3598    7.9035   12.3076 C   0  0  0  0  0  0  0  0  0  0  0  0
   47.5853    7.8794   13.2466 C   0  0  0  0  0  0  0  0  0  0  0  0
   43.9584    4.4595   13.4666 H   0  0  0  0  0  0  0  0  0  0  0  0
   46.0066    3.0552   13.3773 H   0  0  0  0  0  0  0  0  0  0  0  0
   47.5061    3.7961   12.7626 H   0  0  0  0  0  0  0  0  0  0  0  0
   43.8938    9.3482   13.2549 H   0  0  0  0  0  0  0  0  0  0  0  0
   44.7444   10.3708   12.0774 H   0  0  0  0  0  0  0  0  0  0  0  0
   43.8504    8.9436   11.5133 H   0  0  0  0  0  0  0  0  0  0  0  0
   49.4871    9.4183   13.2021 H   0  0  0  0  0  0  0  0  0  0  0  0
   49.4001    9.2191   11.4385 H   0  0  0  0  0  0  0  0  0  0  0  0
   50.1144    7.9341   12.4409 H   0  0  0  0  0  0  0  0  0  0  0  0
   47.4622    4.4715   16.5904 H   0  0  0  0  0  0  0  0  0  0  0  0
   44.7571    3.9067   12.1028 H   0  0  0  0  0  0  0  0  0  0  0  0
   48.2450    4.1455   13.2528 H   0  0  0  0  0  0  0  0  0  0  0  0
   46.8658    3.0236   13.0998 H   0  0  0  0  0  0  0  0  0  0  0  0
   44.4202    8.3527   10.2523 H   0  0  0  0  0  0  0  0  0  0  0  0
   44.6616    9.9310   11.0299 H   0  0  0  0  0  0  0  0  0  0  0  0
   43.6109    8.7241   11.8046 H   0  0  0  0  0  0  0  0  0  0  0  0
   48.5976    9.4225   14.7616 H   0  0  0  0  0  0  0  0  0  0  0  0
   48.7859   10.3051   13.2237 H   0  0  0  0  0  0  0  0  0  0  0  0
   49.7331    8.8320   13.5277 H   0  0  0  0  0  0  0  0  0  0  0  0
   47.7267    3.1405   16.5511 H   0  0  0  0  0  0  0  0  0  0  0  0
   44.9436    7.3400   13.6509 H   0  0  0  0  0  0  0  0  0  0  0  0
   48.4614    6.1877   12.5427 H   0  0  0  0  0  0  0  0  0  0  0  0
   46.0919    5.2185   11.9771 H   0  0  0  0  0  0  0  0  0  0  0  0
   45.0351    5.0119   13.3678 H   0  0  0  0  0  0  0  0  0  0  0  0
   47.4421    4.6037   13.9448 H   0  0  0  0  0  0  0  0  0  0  0  0
   46.7435    5.9008   14.9062 H   0  0  0  0  0  0  0  0  0  0  0  0
   46.6642    7.6280   11.2903 H   0  0  0  0  0  0  0  0  0  0  0  0
   45.9660    8.9244   12.2526 H   0  0  0  0  0  0  0  0  0  0  0  0
   48.3737    8.5162   12.8302 H   0  0  0  0  0  0  0  0  0  0  0  0
   47.3167    8.3064   14.2209 H   0  0  0  0  0  0  0  0  0  0  0  0
  2  1  2  0
  3  1  1  0
  4  5  1  0
  5  3  1  0
  6  2  1  0
  7  1  1  0
  8  2  1  0
  9  7  2  0
 10  8  1  0
 11  5  2  0
 12  6  2  0
 13 10  1  0
 14 13  2  0
 15  3  1  0
 16  4  1  0
 17 13  1  0
  6  4  1  0
  8  9  1  0
 19 18  2  0
 20 18  1  0
 21 22  1  0
 22 20  1  0
 23 19  1  0
 24 18  1  0
 25 19  1  0
 26 24  2  0
 27 25  1  0
 28 22  2  0
 29 23  2  0
 30 27  1  0
 31 30  2  0
 32 20  1  0
 33 21  1  0
 34 30  1  0
 23 21  1  0
 25 26  1  0
 36 40  1  0
 37 35  1  0
 38 37  1  0
 39 35  1  0
 40 39  1  0
 38 36  1  0
  9 41  1  0
 10 42  1  0
 10 43  1  0
 15 44  1  0
 15 45  1  0
 15 46  1  0
 16 47  1  0
 16 48  1  0
 16 49  1  0
 17 50  1  0
 26 51  1  0
 27 52  1  0
 27 53  1  0
 32 54  1  0
 32 55  1  0
 32 56  1  0
 33 57  1  0
 33 58  1  0
 33 59  1  0
 34 60  1  0
 35 61  1  0
 36 62  1  0
 37 63  1  0
 37 64  1  0
 38 65  1  0
 38 66  1  0
 39 67  1  0
 39 68  1  0
 40 69  1  0
 40 70  1  0
M  END
> <Uni-Dock RESULT> 
ENERGY=   -5.773  LOWER_BOUND=    2.067  UPPER_BOUND=    4.003
INTER + INTRA:          -5.773
INTER:                  -5.773
INTRA:                   0.000
UNBOUND:                 0.000

$$$$

     RDKit          3D

 70 72  0  0  0  0  0  0  0  0999 V2000
   47.1855    6.1427   13.0918 C   0  0  0  0  0  0  0  0  0  0  0  0
   45.8547    5.8876   12.9600 C   0  0  0  0  0  0  0  0  0  0  0  0
   47.6915    7.4167   13.0004 N   0  0  0  0  0  0  0  0  0  0  0  0
   45.4481    8.1791   12.6500 N   0  0  0  0  0  0  0  0  0  0  0  0
   46.8216    8.4821   12.7636 C   0  0  0  0  0  0  0  0  0  0  0  0
   44.8890    6.9005   12.7158 C   0  0  0  0  0  0  0  0  0  0  0  0
   47.9018    5.0056   13.3119 N   0  0  0  0  0  0  0  0  0  0  0  0
   45.7373    4.5323   13.0942 N   0  0  0  0  0  0  0  0  0  0  0  0
   47.0014    4.0428   13.3046 C   0  0  0  0  0  0  0  0  0  0  0  0
   44.5153    3.7467   13.0805 C   0  0  0  0  0  0  0  0  0  0  0  0
   47.2259    9.6436   12.6553 O   0  0  0  0  0  0  0  0  0  0  0  0
   43.6950    6.6517   12.5779 O   0  0  0  0  0  0  0  0  0  0  0  0
   43.9560    3.4816   11.7095 C   0  0  0  0  0  0  0  0  0  0  0  0
   42.8830    2.9372   11.4905 O   0  0  0  0  0  0  0  0  0  0  0  0
   49.1193    7.6434   13.1341 C   0  0  0  0  0  0  0  0  0  0  0  0
   44.5617    9.2991   12.4021 C   0  0  0  0  0  0  0  0  0  0  0  0
   44.7449    3.8335   10.6777 O   0  0  0  0  0  0  0  0  0  0  0  0
   46.8760    6.2517   13.7092 C   0  0  0  0  0  0  0  0  0  0  0  0
   45.7253    6.0185   13.0207 C   0  0  0  0  0  0  0  0  0  0  0  0
   47.5747    7.4271   13.5748 N   0  0  0  0  0  0  0  0  0  0  0  0
   45.8911    8.1434   12.0306 N   0  0  0  0  0  0  0  0  0  0  0  0
   47.1063    8.4061   12.6952 C   0  0  0  0  0  0  0  0  0  0  0  0
   45.1572    6.9563   12.1183 C   0  0  0  0  0  0  0  0  0  0  0  0
   47.2147    5.1989   14.5041 N   0  0  0  0  0  0  0  0  0  0  0  0
   45.3368    4.7620   13.3924 N   0  0  0  0  0  0  0  0  0  0  0  0
   46.2693    4.3060   14.2887 C   0  0  0  0  0  0  0  0  0  0  0  0
   44.1468    4.0492   12.9658 C   0  0  0  0  0  0  0  0  0  0  0  0
   47.7277    9.4557   12.5056 O   0  0  0  0  0  0  0  0  0  0  0  0
   44.1266    6.7315   11.4899 O   0  0  0  0  0  0  0  0  0  0  0  0
   44.2892    3.4648   11.5870 C   0  0  0  0  0  0  0  0  0  0  0  0
   45.2990    3.3877   10.9077 O   0  0  0  0  0  0  0  0  0  0  0  0
   48.8150    7.6220   14.3034 C   0  0  0  0  0  0  0  0  0  0  0  0
   45.3859    9.1462   11.1133 C   0  0  0  0  0  0  0  0  0  0  0  0
   43.1267    2.9497   11.1324 O   0  0  0  0  0  0  0  0  0  0  0  0
   47.2798    5.9344   13.2192 N   0  0  0  0  0  0  0  0  0  0  0  0
   44.5743    6.6147   12.1947 N   0  0  0  0  0  0  0  0  0  0  0  0
   46.1495    4.9924   13.2973 C   0  0  0  0  0  0  0  0  0  0  0  0
   45.0880    5.2334   12.2026 C   0  0  0  0  0  0  0  0  0  0  0  0
   46.7670    7.3159   13.2093 C   0  0  0  0  0  0  0  0  0  0  0  0
   45.7049    7.5566   12.1148 C   0  0  0  0  0  0  0  0  0  0  0  0
   47.2092    2.9894   13.4475 H   0  0  0  0  0  0  0  0  0  0  0  0
   44.7349    2.7854   13.5561 H   0  0  0  0  0  0  0  0  0  0  0  0
   43.7742    4.2809   13.6819 H   0  0  0  0  0  0  0  0  0  0  0  0
   49.6435    7.0900   12.3486 H   0  0  0  0  0  0  0  0  0  0  0  0
   49.3747    8.7024   13.0441 H   0  0  0  0  0  0  0  0  0  0  0  0
   49.4480    7.2877   14.1154 H   0  0  0  0  0  0  0  0  0  0  0  0
   44.7937    9.7175   11.4168 H   0  0  0  0  0  0  0  0  0  0  0  0
   44.7360   10.0730   13.1570 H   0  0  0  0  0  0  0  0  0  0  0  0
   43.5070    9.0123   12.4283 H   0  0  0  0  0  0  0  0  0  0  0  0
   44.2210    3.6051    9.8801 H   0  0  0  0  0  0  0  0  0  0  0  0
   46.2142    3.3281   14.7510 H   0  0  0  0  0  0  0  0  0  0  0  0
   43.3096    4.7526   12.9963 H   0  0  0  0  0  0  0  0  0  0  0  0
   43.9637    3.2395   13.6796 H   0  0  0  0  0  0  0  0  0  0  0  0
   48.6365    7.4576   15.3710 H   0  0  0  0  0  0  0  0  0  0  0  0
   49.2110    8.6321   14.1693 H   0  0  0  0  0  0  0  0  0  0  0  0
   49.5562    6.9034   13.9393 H   0  0  0  0  0  0  0  0  0  0  0  0
   45.6046    8.8193   10.0907 H   0  0  0  0  0  0  0  0  0  0  0  0
   45.8384   10.1276   11.2794 H   0  0  0  0  0  0  0  0  0  0  0  0
   44.2999    9.2390   11.2231 H   0  0  0  0  0  0  0  0  0  0  0  0
   43.3407    2.6322   10.2286 H   0  0  0  0  0  0  0  0  0  0  0  0
   47.7566    5.7742   12.3309 H   0  0  0  0  0  0  0  0  0  0  0  0
   44.1011    6.7743   13.0847 H   0  0  0  0  0  0  0  0  0  0  0  0
   45.6856    5.0674   14.2886 H   0  0  0  0  0  0  0  0  0  0  0  0
   46.5363    3.9712   13.2077 H   0  0  0  0  0  0  0  0  0  0  0  0
   44.2482    4.5469   12.3558 H   0  0  0  0  0  0  0  0  0  0  0  0
   45.5100    5.0004   11.2171 H   0  0  0  0  0  0  0  0  0  0  0  0
   46.3459    7.5493   14.1950 H   0  0  0  0  0  0  0  0  0  0  0  0
   47.6071    8.0021   13.0556 H   0  0  0  0  0  0  0  0  0  0  0  0
   45.3183    8.5780   12.2030 H   0  0  0  0  0  0  0  0  0  0  0  0
   46.1676    7.4791   11.1230 H   0  0  0  0  0  0  0  0  0  0  0  0
  2  1  2  0
  3  1  1  0
  4  5  1  0
  5  3  1  0
  6  2  1  0
  7  1  1  0
  8  2  1  0
  9  7  2  0
 10  8  1  0
 11  5  2  0
 12  6  2  0
 13 10  1  0
 14 13  2  0
 15  3  1  0
 16  4  1  0
 17 13  1  0
  6  4  1  0
  8  9  1  0
 19 18  2  0
 20 18  1  0
 21 22  1  0
 22 20  1  0
 23 19  1  0
 24 18  1  0
 25 19  1  0
 26 24  2  0
 27 25  1  0
 28 22  2  0
 29 23  2  0
 30 27  1  0
 31 30  2  0
 32 20  1  0
 33 21  1  0
 34 30  1  0
 23 21  1  0
 25 26  1  0
 36 40  1  0
 37 35  1  0
 38 37  1  0
 39 35  1  0
 40 39  1  0
 38 36  1  0
  9 41  1  0
 10 42  1  0
 10 43  1  0
 15 44  1  0
 15 45  1  0
 15 46  1  0
 16 47  1  0
 16 48  1  0
 16 49  1  0
 17 50  1  0
 26 51  1  0
 27 52  1  0
 27 53  1  0
 32 54  1  0
 32 55  1  0
 32 56  1  0
 33 57  1  0
 33 58  1  0
 33 59  1  0
 34 60  1  0
 35 61  1  0
 36 62  1  0
 37 63  1  0
 37 64  1  0
 38 65  1  0
 38 66  1  0
 39 67  1  0
 39 68  1  0
 40 69  1  0
 40 70  1  0
M  END
> <Uni-Dock RESULT> 
ENERGY=   -5.660  LOWER_BOUND=    1.765  UPPER_BOUND=    3.351
INTER + INTRA:          -5.660
INTER:                  -5.660
INTRA:                   0.000
UNBOUND:                 0.000

$$$$

     RDKit          3D

 70 72  0  0  0  0  0  0  0  0999 V2000
   45.2656    6.8115   12.1019 C   0  0  0  0  0  0  0  0  0  0  0  0
   46.3018    7.1819   12.9035 C   0  0  0  0  0  0  0  0  0  0  0  0
   44.6936    5.5653   12.1869 N   0  0  0  0  0  0  0  0  0  0  0  0
   46.2492    5.0766   13.9412 N   0  0  0  0  0  0  0  0  0  0  0  0
   45.1863    4.6492   13.1173 C   0  0  0  0  0  0  0  0  0  0  0  0
   46.8758    6.3237   13.8793 C   0  0  0  0  0  0  0  0  0  0  0  0
   44.9035    7.8071   11.2462 N   0  0  0  0  0  0  0  0  0  0  0  0
   46.6051    8.4600   12.5250 N   0  0  0  0  0  0  0  0  0  0  0  0
   45.7334    8.7941   11.5197 C   0  0  0  0  0  0  0  0  0  0  0  0
   47.6109    9.3359   13.1010 C   0  0  0  0  0  0  0  0  0  0  0  0
   44.7203    3.5108   13.2228 O   0  0  0  0  0  0  0  0  0  0  0  0
   47.8241    6.6651   14.5797 O   0  0  0  0  0  0  0  0  0  0  0  0
   49.0182    9.0566   12.6491 C   0  0  0  0  0  0  0  0  0  0  0  0
   50.0139    9.6063   13.0985 O   0  0  0  0  0  0  0  0  0  0  0  0
   43.5984    5.2061   11.3039 C   0  0  0  0  0  0  0  0  0  0  0  0
   46.7479    4.1097   14.8994 C   0  0  0  0  0  0  0  0  0  0  0  0
   49.1448    8.1741   11.6412 O   0  0  0  0  0  0  0  0  0  0  0  0
   45.0065    7.0316   12.7128 C   0  0  0  0  0  0  0  0  0  0  0  0
   46.3136    7.1121   13.0838 C   0  0  0  0  0  0  0  0  0  0  0  0
   44.3605    5.8248   12.5936 N   0  0  0  0  0  0  0  0  0  0  0  0
   46.4040    4.7703   13.2604 N   0  0  0  0  0  0  0  0  0  0  0  0
   45.0641    4.6435   12.8407 C   0  0  0  0  0  0  0  0  0  0  0  0
   47.1091    5.9724   13.3751 C   0  0  0  0  0  0  0  0  0  0  0  0
   44.4665    8.2610   12.4848 N   0  0  0  0  0  0  0  0  0  0  0  0
   46.6045    8.4474   13.0744 N   0  0  0  0  0  0  0  0  0  0  0  0
   45.4576    9.1019   12.7042 C   0  0  0  0  0  0  0  0  0  0  0  0
   47.8650    9.0735   13.4281 C   0  0  0  0  0  0  0  0  0  0  0  0
   44.5384    3.5359   12.6976 O   0  0  0  0  0  0  0  0  0  0  0  0
   48.2919    6.0535   13.6945 O   0  0  0  0  0  0  0  0  0  0  0  0
   48.8883    8.9674   12.3306 C   0  0  0  0  0  0  0  0  0  0  0  0
   48.7196    8.5857   11.1847 O   0  0  0  0  0  0  0  0  0  0  0  0
   42.9747    5.7822   12.1638 C   0  0  0  0  0  0  0  0  0  0  0  0
   47.1531    3.5571   13.5232 C   0  0  0  0  0  0  0  0  0  0  0  0
   50.1038    9.4018   12.7273 O   0  0  0  0  0  0  0  0  0  0  0  0
   45.1619    7.0375   12.0203 N   0  0  0  0  0  0  0  0  0  0  0  0
   47.5222    6.3971   13.7088 N   0  0  0  0  0  0  0  0  0  0  0  0
   46.0787    8.0783   12.5177 C   0  0  0  0  0  0  0  0  0  0  0  0
   47.5029    7.5472   12.7876 C   0  0  0  0  0  0  0  0  0  0  0  0
   45.1819    5.8862   12.9399 C   0  0  0  0  0  0  0  0  0  0  0  0
   46.6065    5.3556   13.2102 C   0  0  0  0  0  0  0  0  0  0  0  0
   45.7435    9.7590   11.0276 H   0  0  0  0  0  0  0  0  0  0  0  0
   47.3550   10.3627   12.8204 H   0  0  0  0  0  0  0  0  0  0  0  0
   47.5486    9.2374   14.1886 H   0  0  0  0  0  0  0  0  0  0  0  0
   43.9398    5.2741   10.2662 H   0  0  0  0  0  0  0  0  0  0  0  0
   43.2423    4.1892   11.4879 H   0  0  0  0  0  0  0  0  0  0  0  0
   42.7676    5.9005   11.4631 H   0  0  0  0  0  0  0  0  0  0  0  0
   47.1949    3.2730   14.3519 H   0  0  0  0  0  0  0  0  0  0  0  0
   45.9130    3.7270   15.4958 H   0  0  0  0  0  0  0  0  0  0  0  0
   47.4964    4.5354   15.5732 H   0  0  0  0  0  0  0  0  0  0  0  0
   50.1127    8.1075   11.4944 H   0  0  0  0  0  0  0  0  0  0  0  0
   45.3972   10.1793   12.6109 H   0  0  0  0  0  0  0  0  0  0  0  0
   48.2319    8.5902   14.3383 H   0  0  0  0  0  0  0  0  0  0  0  0
   47.6711   10.1311   13.6345 H   0  0  0  0  0  0  0  0  0  0  0  0
   42.3736    6.4216   12.8185 H   0  0  0  0  0  0  0  0  0  0  0  0
   42.5683    4.7680   12.2009 H   0  0  0  0  0  0  0  0  0  0  0  0
   42.9119    6.1479   11.1339 H   0  0  0  0  0  0  0  0  0  0  0  0
   47.8119    3.3668   12.6686 H   0  0  0  0  0  0  0  0  0  0  0  0
   46.5029    2.6909   13.6731 H   0  0  0  0  0  0  0  0  0  0  0  0
   47.7731    3.6875   14.4168 H   0  0  0  0  0  0  0  0  0  0  0  0
   50.6790    9.2559   11.9454 H   0  0  0  0  0  0  0  0  0  0  0  0
   45.5147    6.7191   11.1169 H   0  0  0  0  0  0  0  0  0  0  0  0
   47.1660    6.7163   14.6103 H   0  0  0  0  0  0  0  0  0  0  0  0
   45.6644    8.5154   13.4347 H   0  0  0  0  0  0  0  0  0  0  0  0
   46.1276    8.8858   11.7788 H   0  0  0  0  0  0  0  0  0  0  0  0
   48.1133    8.3503   13.2150 H   0  0  0  0  0  0  0  0  0  0  0  0
   47.9783    7.2592   11.8418 H   0  0  0  0  0  0  0  0  0  0  0  0
   44.7057    6.1739   13.8853 H   0  0  0  0  0  0  0  0  0  0  0  0
   44.5718    5.0832   12.5118 H   0  0  0  0  0  0  0  0  0  0  0  0
   46.5584    4.5472   13.9482 H   0  0  0  0  0  0  0  0  0  0  0  0
   47.0225    4.9208   12.2928 H   0  0  0  0  0  0  0  0  0  0  0  0
  2  1  2  0
  3  1  1  0
  4  5  1  0
  5  3  1  0
  6  2  1  0
  7  1  1  0
  8  2  1  0
  9  7  2  0
 10  8  1  0
 11  5  2  0
 12  6  2  0
 13 10  1  0
 14 13  2  0
 15  3  1  0
 16  4  1  0
 17 13  1  0
  6  4  1  0
  8  9  1  0
 19 18  2  0
 20 18  1  0
 21 22  1  0
 22 20  1  0
 23 19  1  0
 24 18  1  0
 25 19  1  0
 26 24  2  0
 27 25  1  0
 28 22  2  0
 29 23  2  0
 30 27  1  0
 31 30  2  0
 32 20  1  0
 33 21  1  0
 34 30  1  0
 23 21  1  0
 25 26  1  0
 36 40  1  0
 37 35  1  0
 38 37  1  0
 39 35  1  0
 40 39  1  0
 38 36  1  0
  9 41  1  0
 10 42  1  0
 10 43  1  0
 15 44  1  0
 15 45  1  0
 15 46  1  0
 16 47  1  0
 16 48  1  0
 16 49  1  0
 17 50  1  0
 26 51  1  0
 27 52  1  0
 27 53  1  0
 32 54  1  0
 32 55  1  0
 32 56  1  0
 33 57  1  0
 33 58  1  0
 33 59  1  0
 34 60  1  0
 35 61  1  0
 36 62  1  0
 37 63  1  0
 37 64  1  0
 38 65  1  0
 38 66  1  0
 39 67  1  0
 39 68  1  0
 40 69  1  0
 40 70  1  0
M  END
> <Uni-Dock RESULT> 
ENERGY=   -5.586  LOWER_BOUND=    2.067  UPPER_BOUND=    4.462
INTER + INTRA:          -5.586
INTER:                  -5.586
INTRA:                   0.000
UNBOUND:                 0.000

$$$$

     RDKit          3D

 70 72  0  0  0  0  0  0  0  0999 V2000
   45.5719    6.9803   12.6761 C   0  0  0  0  0  0  0  0  0  0  0  0
   46.4817    7.9931   12.6853 C   0  0  0  0  0  0  0  0  0  0  0  0
   44.3746    7.0881   12.0111 N   0  0  0  0  0  0  0  0  0  0  0  0
   45.0523    9.2868   11.3454 N   0  0  0  0  0  0  0  0  0  0  0  0
   44.0769    8.2673   11.3265 C   0  0  0  0  0  0  0  0  0  0  0  0
   46.2733    9.2319   12.0221 C   0  0  0  0  0  0  0  0  0  0  0  0
   46.0023    5.9036   13.3903 N   0  0  0  0  0  0  0  0  0  0  0  0
   47.5198    7.5317   13.4457 N   0  0  0  0  0  0  0  0  0  0  0  0
   47.1837    6.2647   13.8503 C   0  0  0  0  0  0  0  0  0  0  0  0
   48.7720    8.2096   13.7340 C   0  0  0  0  0  0  0  0  0  0  0  0
   43.0084    8.4229   10.7277 O   0  0  0  0  0  0  0  0  0  0  0  0
   47.0944   10.1436   12.0577 O   0  0  0  0  0  0  0  0  0  0  0  0
   48.6838    9.2591   14.8079 C   0  0  0  0  0  0  0  0  0  0  0  0
   49.5952   10.0132   15.1185 O   0  0  0  0  0  0  0  0  0  0  0  0
   43.4265    5.9888   12.0374 C   0  0  0  0  0  0  0  0  0  0  0  0
   44.7230   10.5041   10.6303 C   0  0  0  0  0  0  0  0  0  0  0  0
   47.5236    9.3043   15.4880 O   0  0  0  0  0  0  0  0  0  0  0  0
   45.9545    6.9408   12.0922 C   0  0  0  0  0  0  0  0  0  0  0  0
   46.4980    8.1090   12.5309 C   0  0  0  0  0  0  0  0  0  0  0  0
   44.6892    6.8857   11.5597 N   0  0  0  0  0  0  0  0  0  0  0  0
   44.5398    9.2496   11.9085 N   0  0  0  0  0  0  0  0  0  0  0  0
   43.9275    8.0541   11.4804 C   0  0  0  0  0  0  0  0  0  0  0  0
   45.8136    9.3521   12.4762 C   0  0  0  0  0  0  0  0  0  0  0  0
   46.8063    5.8908   12.2570 N   0  0  0  0  0  0  0  0  0  0  0  0
   47.7360    7.7711   13.0008 N   0  0  0  0  0  0  0  0  0  0  0  0
   47.8766    6.4194   12.8160 C   0  0  0  0  0  0  0  0  0  0  0  0
   48.7394    8.6634   13.5513 C   0  0  0  0  0  0  0  0  0  0  0  0
   42.7685    8.0428   11.0556 O   0  0  0  0  0  0  0  0  0  0  0  0
   46.3058   10.3988   12.8881 O   0  0  0  0  0  0  0  0  0  0  0  0
   48.4420    9.0572   14.9724 C   0  0  0  0  0  0  0  0  0  0  0  0
   47.5917    8.5952   15.7144 O   0  0  0  0  0  0  0  0  0  0  0  0
   44.1354    5.6134   11.1335 C   0  0  0  0  0  0  0  0  0  0  0  0
   43.7677   10.4746   11.8344 C   0  0  0  0  0  0  0  0  0  0  0  0
   49.2840   10.0132   15.4201 O   0  0  0  0  0  0  0  0  0  0  0  0
   45.7110    6.7668   12.7358 N   0  0  0  0  0  0  0  0  0  0  0  0
   46.4250    9.6443   12.5312 N   0  0  0  0  0  0  0  0  0  0  0  0
   47.0535    7.2700   13.0757 C   0  0  0  0  0  0  0  0  0  0  0  0
   47.0474    8.7480   13.5216 C   0  0  0  0  0  0  0  0  0  0  0  0
   45.0870    7.6635   11.7468 C   0  0  0  0  0  0  0  0  0  0  0  0
   45.0816    9.1417   12.1927 C   0  0  0  0  0  0  0  0  0  0  0  0
   47.8285    5.6535   14.4699 H   0  0  0  0  0  0  0  0  0  0  0  0
   49.4937    7.4500   14.0513 H   0  0  0  0  0  0  0  0  0  0  0  0
   49.1208    8.6658   12.8031 H   0  0  0  0  0  0  0  0  0  0  0  0
   43.1399    5.7897   13.0748 H   0  0  0  0  0  0  0  0  0  0  0  0
   42.5240    6.2141   11.4634 H   0  0  0  0  0  0  0  0  0  0  0  0
   43.8984    5.0987   11.6098 H   0  0  0  0  0  0  0  0  0  0  0  0
   43.8719   10.9822   11.1268 H   0  0  0  0  0  0  0  0  0  0  0  0
   44.4305   10.2542    9.6051 H   0  0  0  0  0  0  0  0  0  0  0  0
   45.5581   11.2090   10.5966 H   0  0  0  0  0  0  0  0  0  0  0  0
   47.6408   10.0429   16.1232 H   0  0  0  0  0  0  0  0  0  0  0  0
   48.7679    5.8745   13.1017 H   0  0  0  0  0  0  0  0  0  0  0  0
   48.7821    9.5500   12.9119 H   0  0  0  0  0  0  0  0  0  0  0  0
   49.7049    8.1481   13.5182 H   0  0  0  0  0  0  0  0  0  0  0  0
   44.8202    5.1416   10.4214 H   0  0  0  0  0  0  0  0  0  0  0  0
   43.1621    5.7347   10.6506 H   0  0  0  0  0  0  0  0  0  0  0  0
   44.0142    4.9686   12.0098 H   0  0  0  0  0  0  0  0  0  0  0  0
   43.4080   10.7167   12.8407 H   0  0  0  0  0  0  0  0  0  0  0  0
   42.9113   10.3866   11.1602 H   0  0  0  0  0  0  0  0  0  0  0  0
   44.4035   11.2960   11.4864 H   0  0  0  0  0  0  0  0  0  0  0  0
   48.9729   10.2007   16.3320 H   0  0  0  0  0  0  0  0  0  0  0  0
   45.1439    6.7979   13.5840 H   0  0  0  0  0  0  0  0  0  0  0  0
   46.9912    9.6093   11.6828 H   0  0  0  0  0  0  0  0  0  0  0  0
   47.7152    7.1452   12.2096 H   0  0  0  0  0  0  0  0  0  0  0  0
   47.4676    6.6512   13.8795 H   0  0  0  0  0  0  0  0  0  0  0  0
   48.0777    9.0775   13.6954 H   0  0  0  0  0  0  0  0  0  0  0  0
   46.5194    8.8461   14.4782 H   0  0  0  0  0  0  0  0  0  0  0  0
   45.6144    7.5647   10.7900 H   0  0  0  0  0  0  0  0  0  0  0  0
   44.0566    7.3340   11.5737 H   0  0  0  0  0  0  0  0  0  0  0  0
   44.6666    9.7612   11.3899 H   0  0  0  0  0  0  0  0  0  0  0  0
   44.4222    9.2668   13.0606 H   0  0  0  0  0  0  0  0  0  0  0  0
  2  1  2  0
  3  1  1  0
  4  5  1  0
  5  3  1  0
  6  2  1  0
  7  1  1  0
  8  2  1  0
  9  7  2  0
 10  8  1  0
 11  5  2  0
 12  6  2  0
 13 10  1  0
 14 13  2  0
 15  3  1  0
 16  4  1  0
 17 13  1  0
  6  4  1  0
  8  9  1  0
 19 18  2  0
 20 18  1  0
 21 22  1  0
 22 20  1  0
 23 19  1  0
 24 18  1  0
 25 19  1  0
 26 24  2  0
 27 25  1  0
 28 22  2  0
 29 23  2  0
 30 27  1  0
 31 30  2  0
 32 20  1  0
 33 21  1  0
 34 30  1  0
 23 21  1  0
 25 26  1  0
 36 40  1  0
 37 35  1  0
 38 37  1  0
 39 35  1  0
 40 39  1  0
 38 36  1  0
  9 41  1  0
 10 42  1  0
 10 43  1  0
 15 44  1  0
 15 45  1  0
 15 46  1  0
 16 47  1  0
 16 48  1  0
 16 49  1  0
 17 50  1  0
 26 51  1  0
 27 52  1  0
 27 53  1  0
 32 54  1  0
 32 55  1  0
 32 56  1  0
 33 57  1  0
 33 58  1  0
 33 59  1  0
 34 60  1  0
 35 61  1  0
 36 62  1  0
 37 63  1  0
 37 64  1  0
 38 65  1  0
 38 66  1  0
 39 67  1  0
 39 68  1  0
 40 69  1  0
 40 70  1  0
M  END
> <Uni-Dock RESULT> 
ENERGY=   -5.415  LOWER_BOUND=    2.328  UPPER_BOUND=    5.720
INTER + INTRA:          -5.415
INTER:                  -5.415
INTRA:                   0.000
UNBOUND:                 0.000

$$$$

     RDKit          3D

 70 72  0  0  0  0  0  0  0  0999 V2000
   51.5360    5.5501   17.0391 C   0  0  0  0  0  0  0  0  0  0  0  0
   50.2014    5.5001   17.3036 C   0  0  0  0  0  0  0  0  0  0  0  0
   52.0946    6.5813   16.3234 N   0  0  0  0  0  0  0  0  0  0  0  0
   49.9007    7.5282   16.1596 N   0  0  0  0  0  0  0  0  0  0  0  0
   51.2752    7.6071   15.8502 C   0  0  0  0  0  0  0  0  0  0  0  0
   49.2839    6.4922   16.8654 C   0  0  0  0  0  0  0  0  0  0  0  0
   52.1979    4.4795   17.5591 N   0  0  0  0  0  0  0  0  0  0  0  0
   50.0220    4.3440   18.0107 N   0  0  0  0  0  0  0  0  0  0  0  0
   51.2572    3.7612   18.1394 C   0  0  0  0  0  0  0  0  0  0  0  0
   48.7832    3.8398   18.5780 C   0  0  0  0  0  0  0  0  0  0  0  0
   51.7231    8.5476   15.1874 O   0  0  0  0  0  0  0  0  0  0  0  0
   48.0800    6.4218   17.0936 O   0  0  0  0  0  0  0  0  0  0  0  0
   47.8687    3.1689   17.5898 C   0  0  0  0  0  0  0  0  0  0  0  0
   46.7382    2.7782   17.8442 O   0  0  0  0  0  0  0  0  0  0  0  0
   53.5209    6.5893   16.0524 C   0  0  0  0  0  0  0  0  0  0  0  0
   49.0666    8.6022   15.6571 C   0  0  0  0  0  0  0  0  0  0  0  0
   48.3865    2.9529   16.3667 O   0  0  0  0  0  0  0  0  0  0  0  0
   51.4066    5.9406   17.6044 C   0  0  0  0  0  0  0  0  0  0  0  0
   50.1024    5.6646   17.3296 C   0  0  0  0  0  0  0  0  0  0  0  0
   52.1322    6.8323   16.8519 N   0  0  0  0  0  0  0  0  0  0  0  0
   50.1636    7.1800   15.5343 N   0  0  0  0  0  0  0  0  0  0  0  0
   51.5258    7.4623   15.7624 C   0  0  0  0  0  0  0  0  0  0  0  0
   49.3911    6.2660   16.2577 C   0  0  0  0  0  0  0  0  0  0  0  0
   51.8605    5.2337   18.6764 N   0  0  0  0  0  0  0  0  0  0  0  0
   49.7310    4.7369   18.2619 N   0  0  0  0  0  0  0  0  0  0  0  0
   50.8276    4.5063   19.0526 C   0  0  0  0  0  0  0  0  0  0  0  0
   48.4213    4.1340   18.4267 C   0  0  0  0  0  0  0  0  0  0  0  0
   52.1533    8.2321   15.0293 O   0  0  0  0  0  0  0  0  0  0  0  0
   48.2188    5.9998   16.0078 O   0  0  0  0  0  0  0  0  0  0  0  0
   48.1565    3.0485   17.4195 C   0  0  0  0  0  0  0  0  0  0  0  0
   48.9464    2.5410   16.6413 O   0  0  0  0  0  0  0  0  0  0  0  0
   53.5301    7.0734   17.1596 C   0  0  0  0  0  0  0  0  0  0  0  0
   49.5138    7.8235   14.4093 C   0  0  0  0  0  0  0  0  0  0  0  0
   46.8807    2.6092   17.4715 O   0  0  0  0  0  0  0  0  0  0  0  0
   51.6443    5.3940   17.2191 N   0  0  0  0  0  0  0  0  0  0  0  0
   48.8243    6.0873   16.5879 N   0  0  0  0  0  0  0  0  0  0  0  0
   50.5060    4.7674   17.9139 C   0  0  0  0  0  0  0  0  0  0  0  0
   49.2177    4.7491   17.0635 C   0  0  0  0  0  0  0  0  0  0  0  0
   51.2513    6.7315   16.7415 C   0  0  0  0  0  0  0  0  0  0  0  0
   49.9624    6.7131   15.8916 C   0  0  0  0  0  0  0  0  0  0  0  0
   51.4156    2.8254   18.6614 H   0  0  0  0  0  0  0  0  0  0  0  0
   49.0464    3.1135   19.3538 H   0  0  0  0  0  0  0  0  0  0  0  0
   48.2659    4.6847   19.0414 H   0  0  0  0  0  0  0  0  0  0  0  0
   53.7802    5.6939   15.4788 H   0  0  0  0  0  0  0  0  0  0  0  0
   53.8226    7.4698   15.4793 H   0  0  0  0  0  0  0  0  0  0  0  0
   54.0658    6.5877   17.0015 H   0  0  0  0  0  0  0  0  0  0  0  0
   49.0652    8.5614   14.5626 H   0  0  0  0  0  0  0  0  0  0  0  0
   49.4883    9.5639   15.9675 H   0  0  0  0  0  0  0  0  0  0  0  0
   48.0365    8.5362   16.0177 H   0  0  0  0  0  0  0  0  0  0  0  0
   47.6578    2.5300   15.8637 H   0  0  0  0  0  0  0  0  0  0  0  0
   50.8217    3.8077   19.8803 H   0  0  0  0  0  0  0  0  0  0  0  0
   47.6757    4.9291   18.3340 H   0  0  0  0  0  0  0  0  0  0  0  0
   48.3699    3.7071   19.4336 H   0  0  0  0  0  0  0  0  0  0  0  0
   53.6235    7.3667   18.2103 H   0  0  0  0  0  0  0  0  0  0  0  0
   53.9521    7.8681   16.5386 H   0  0  0  0  0  0  0  0  0  0  0  0
   54.0955    6.1527   16.9831 H   0  0  0  0  0  0  0  0  0  0  0  0
   49.4342    7.0953   13.5945 H   0  0  0  0  0  0  0  0  0  0  0  0
   50.0660    8.6980   14.0544 H   0  0  0  0  0  0  0  0  0  0  0  0
   48.5037    8.1392   14.6923 H   0  0  0  0  0  0  0  0  0  0  0  0
   46.8282    1.9360   16.7592 H   0  0  0  0  0  0  0  0  0  0  0  0
   51.8606    4.8235   16.4006 H   0  0  0  0  0  0  0  0  0  0  0  0
   48.6118    6.6573   17.4074 H   0  0  0  0  0  0  0  0  0  0  0  0
   50.3226    5.2980   18.8563 H   0  0  0  0  0  0  0  0  0  0  0  0
   50.7789    3.7400   18.1795 H   0  0  0  0  0  0  0  0  0  0  0  0
   48.3976    4.3324   17.6585 H   0  0  0  0  0  0  0  0  0  0  0  0
   49.3504    4.0848   16.2006 H   0  0  0  0  0  0  0  0  0  0  0  0
   51.1194    7.3961   17.6042 H   0  0  0  0  0  0  0  0  0  0  0  0
   52.0715    7.1477   16.1461 H   0  0  0  0  0  0  0  0  0  0  0  0
   49.6894    7.7401   15.6245 H   0  0  0  0  0  0  0  0  0  0  0  0
   50.1444    6.1802   14.9500 H   0  0  0  0  0  0  0  0  0  0  0  0
  2  1  2  0
  3  1  1  0
  4  5  1  0
  5  3  1  0
  6  2  1  0
  7  1  1  0
  8  2  1  0
  9  7  2  0
 10  8  1  0
 11  5  2  0
 12  6  2  0
 13 10  1  0
 14 13  2  0
 15  3  1  0
 16  4  1  0
 17 13  1  0
  6  4  1  0
  8  9  1  0
 19 18  2  0
 20 18  1  0
 21 22  1  0
 22 20  1  0
 23 19  1  0
 24 18  1  0
 25 19  1  0
 26 24  2  0
 27 25  1  0
 28 22  2  0
 29 23  2  0
 30 27  1  0
 31 30  2  0
 32 20  1  0
 33 21  1  0
 34 30  1  0
 23 21  1  0
 25 26  1  0
 36 40  1  0
 37 35  1  0
 38 37  1  0
 39 35  1  0
 40 39  1  0
 38 36  1  0
  9 41  1  0
 10 42  1  0
 10 43  1  0
 15 44  1  0
 15 45  1  0
 15 46  1  0
 16 47  1  0
 16 48  1  0
 16 49  1  0
 17 50  1  0
 26 51  1  0
 27 52  1  0
 27 53  1  0
 32 54  1  0
 32 55  1  0
 32 56  1  0
 33 57  1  0
 33 58  1  0
 33 59  1  0
 34 60  1  0
 35 61  1  0
 36 62  1  0
 37 63  1  0
 37 64  1  0
 38 65  1  0
 38 66  1  0
 39 67  1  0
 39 68  1  0
 40 69  1  0
 40 70  1  0
M  END
> <Uni-Dock RESULT> 
ENERGY=   -5.256  LOWER_BOUND=    4.315  UPPER_BOUND=    6.133
INTER + INTRA:          -5.256
INTER:                  -5.256
INTRA:                   0.000
UNBOUND:                 0.000

$$$$

     RDKit          3D

 70 72  0  0  0  0  0  0  0  0999 V2000
   45.6891   11.9352   11.6099 C   0  0  0  0  0  0  0  0  0  0  0  0
   44.8186   10.9682   11.2090 C   0  0  0  0  0  0  0  0  0  0  0  0
   46.9001   11.6280   12.1813 N   0  0  0  0  0  0  0  0  0  0  0  0
   46.3302    9.3169   11.9165 N   0  0  0  0  0  0  0  0  0  0  0  0
   47.2514   10.2893   12.3603 C   0  0  0  0  0  0  0  0  0  0  0  0
   45.0808    9.5790   11.3489 C   0  0  0  0  0  0  0  0  0  0  0  0
   45.2032   13.1856   11.3755 N   0  0  0  0  0  0  0  0  0  0  0  0
   43.7396   11.6447   10.7121 N   0  0  0  0  0  0  0  0  0  0  0  0
   44.0183   12.9823   10.8349 C   0  0  0  0  0  0  0  0  0  0  0  0
   42.5440   11.0794   10.1107 C   0  0  0  0  0  0  0  0  0  0  0  0
   48.3193    9.9587   12.8843 O   0  0  0  0  0  0  0  0  0  0  0  0
   44.2763    8.7194   11.0021 O   0  0  0  0  0  0  0  0  0  0  0  0
   41.5366   10.5518   11.0952 C   0  0  0  0  0  0  0  0  0  0  0  0
   40.5213    9.9420   10.7905 O   0  0  0  0  0  0  0  0  0  0  0  0
   47.7937   12.6904   12.6067 C   0  0  0  0  0  0  0  0  0  0  0  0
   46.7128    7.9325   12.1134 C   0  0  0  0  0  0  0  0  0  0  0  0
   41.7767   10.8376   12.3880 O   0  0  0  0  0  0  0  0  0  0  0  0
   45.8747   11.7199   10.9711 C   0  0  0  0  0  0  0  0  0  0  0  0
   44.8865   10.7996   11.1419 C   0  0  0  0  0  0  0  0  0  0  0  0
   47.0797   11.6181   11.6233 N   0  0  0  0  0  0  0  0  0  0  0  0
   46.2638    9.6003   12.6211 N   0  0  0  0  0  0  0  0  0  0  0  0
   47.2960   10.5531   12.5013 C   0  0  0  0  0  0  0  0  0  0  0  0
   45.0150    9.6724   11.9961 C   0  0  0  0  0  0  0  0  0  0  0  0
   45.5065   12.7062   10.1070 N   0  0  0  0  0  0  0  0  0  0  0  0
   43.8538   11.2374   10.3612 N   0  0  0  0  0  0  0  0  0  0  0  0
   44.2746   12.3944    9.7567 C   0  0  0  0  0  0  0  0  0  0  0  0
   42.5690   10.5925   10.1627 C   0  0  0  0  0  0  0  0  0  0  0  0
   48.3435   10.4492   13.1459 O   0  0  0  0  0  0  0  0  0  0  0  0
   44.1126    8.8552   12.1559 O   0  0  0  0  0  0  0  0  0  0  0  0
   41.6295   10.8139   11.3165 C   0  0  0  0  0  0  0  0  0  0  0  0
   41.7692   11.5740   12.2599 O   0  0  0  0  0  0  0  0  0  0  0  0
   48.0946   12.6390   11.4375 C   0  0  0  0  0  0  0  0  0  0  0  0
   46.4672    8.4862   13.5264 C   0  0  0  0  0  0  0  0  0  0  0  0
   40.5036   10.0773   11.2018 O   0  0  0  0  0  0  0  0  0  0  0  0
   45.6172   12.1479   11.4754 N   0  0  0  0  0  0  0  0  0  0  0  0
   44.5035    9.3976   11.6423 N   0  0  0  0  0  0  0  0  0  0  0  0
   44.3758   11.7588   10.7834 C   0  0  0  0  0  0  0  0  0  0  0  0
   43.6466   10.5841   11.4702 C   0  0  0  0  0  0  0  0  0  0  0  0
   46.4740   10.9616   11.6495 C   0  0  0  0  0  0  0  0  0  0  0  0
   45.7443    9.7868   12.3358 C   0  0  0  0  0  0  0  0  0  0  0  0
   43.3332   13.7585   10.5164 H   0  0  0  0  0  0  0  0  0  0  0  0
   42.0682   11.8670    9.5176 H   0  0  0  0  0  0  0  0  0  0  0  0
   42.8616   10.2731    9.4432 H   0  0  0  0  0  0  0  0  0  0  0  0
   47.2883   13.3008   13.3617 H   0  0  0  0  0  0  0  0  0  0  0  0
   48.7184   12.2979   13.0377 H   0  0  0  0  0  0  0  0  0  0  0  0
   48.0482   13.3118   11.7426 H   0  0  0  0  0  0  0  0  0  0  0  0
   46.7662    7.7338   13.1891 H   0  0  0  0  0  0  0  0  0  0  0  0
   47.7048    7.7658   11.6805 H   0  0  0  0  0  0  0  0  0  0  0  0
   46.0069    7.2338   11.6564 H   0  0  0  0  0  0  0  0  0  0  0  0
   41.0398   10.4096   12.8743 H   0  0  0  0  0  0  0  0  0  0  0  0
   43.6532   12.9647    9.0774 H   0  0  0  0  0  0  0  0  0  0  0  0
   42.7525    9.5234   10.0213 H   0  0  0  0  0  0  0  0  0  0  0  0
   42.1206   11.0048    9.2530 H   0  0  0  0  0  0  0  0  0  0  0  0
   48.3001   12.7538   10.3682 H   0  0  0  0  0  0  0  0  0  0  0  0
   49.0282   12.3816   11.9447 H   0  0  0  0  0  0  0  0  0  0  0  0
   47.7237   13.5853   11.8443 H   0  0  0  0  0  0  0  0  0  0  0  0
   45.9074    8.6838   14.4473 H   0  0  0  0  0  0  0  0  0  0  0  0
   47.5219    8.3384   13.7739 H   0  0  0  0  0  0  0  0  0  0  0  0
   46.0813    7.5648   13.0768 H   0  0  0  0  0  0  0  0  0  0  0  0
   39.9956   10.2848   12.0156 H   0  0  0  0  0  0  0  0  0  0  0  0
   45.3621   12.4853   12.4044 H   0  0  0  0  0  0  0  0  0  0  0  0
   44.7605    9.0637   10.7127 H   0  0  0  0  0  0  0  0  0  0  0  0
   44.6096   11.4954    9.7445 H   0  0  0  0  0  0  0  0  0  0  0  0
   43.7081   12.6266   10.7452 H   0  0  0  0  0  0  0  0  0  0  0  0
   42.7722   10.3026   10.8732 H   0  0  0  0  0  0  0  0  0  0  0  0
   43.2700   10.9017   12.4505 H   0  0  0  0  0  0  0  0  0  0  0  0
   46.8513   10.6447   10.6694 H   0  0  0  0  0  0  0  0  0  0  0  0
   47.3480   11.2435   12.2470 H   0  0  0  0  0  0  0  0  0  0  0  0
   46.4118    8.9188   12.3755 H   0  0  0  0  0  0  0  0  0  0  0  0
   45.5077   10.0505   13.3742 H   0  0  0  0  0  0  0  0  0  0  0  0
  2  1  2  0
  3  1  1  0
  4  5  1  0
  5  3  1  0
  6  2  1  0
  7  1  1  0
  8  2  1  0
  9  7  2  0
 10  8  1  0
 11  5  2  0
 12  6  2  0
 13 10  1  0
 14 13  2  0
 15  3  1  0
 16  4  1  0
 17 13  1  0
  6  4  1  0
  8  9  1  0
 19 18  2  0
 20 18  1  0
 21 22  1  0
 22 20  1  0
 23 19  1  0
 24 18  1  0
 25 19  1  0
 26 24  2  0
 27 25  1  0
 28 22  2  0
 29 23  2  0
 30 27  1  0
 31 30  2  0
 32 20  1  0
 33 21  1  0
 34 30  1  0
 23 21  1  0
 25 26  1  0
 36 40  1  0
 37 35  1  0
 38 37  1  0
 39 35  1  0
 40 39  1  0
 38 36  1  0
  9 41  1  0
 10 42  1  0
 10 43  1  0
 15 44  1  0
 15 45  1  0
 15 46  1  0
 16 47  1  0
 16 48  1  0
 16 49  1  0
 17 50  1  0
 26 51  1  0
 27 52  1  0
 27 53  1  0
 32 54  1  0
 32 55  1  0
 32 56  1  0
 33 57  1  0
 33 58  1  0
 33 59  1  0
 34 60  1  0
 35 61  1  0
 36 62  1  0
 37 63  1  0
 37 64  1  0
 38 65  1  0
 38 66  1  0
 39 67  1  0
 39 68  1  0
 40 69  1  0
 40 70  1  0
M  END
> <Uni-Dock RESULT> 
ENERGY=   -5.227  LOWER_BOUND=    4.357  UPPER_BOUND=    5.827
INTER + INTRA:          -5.227
INTER:                  -5.227
INTRA:                   0.000
UNBOUND:                 0.000

$$$$

     RDKit          3D

 70 72  0  0  0  0  0  0  0  0999 V2000
   50.3436    4.8111   20.6152 C   0  0  0  0  0  0  0  0  0  0  0  0
   50.0014    4.8857   19.2996 C   0  0  0  0  0  0  0  0  0  0  0  0
   51.6504    4.6772   21.0174 N   0  0  0  0  0  0  0  0  0  0  0  0
   52.2653    4.7108   18.7029 N   0  0  0  0  0  0  0  0  0  0  0  0
   52.6585    4.6129   20.0545 C   0  0  0  0  0  0  0  0  0  0  0  0
   50.9508    4.8278   18.2445 C   0  0  0  0  0  0  0  0  0  0  0  0
   49.2538    4.8813   21.4289 N   0  0  0  0  0  0  0  0  0  0  0  0
   48.6390    4.9976   19.2922 N   0  0  0  0  0  0  0  0  0  0  0  0
   48.2325    4.9897   20.6024 C   0  0  0  0  0  0  0  0  0  0  0  0
   47.7728    5.1559   18.1366 C   0  0  0  0  0  0  0  0  0  0  0  0
   53.8466    4.4753   20.3610 O   0  0  0  0  0  0  0  0  0  0  0  0
   50.6243    4.8747   17.0623 O   0  0  0  0  0  0  0  0  0  0  0  0
   47.4956    3.8844   17.3823 C   0  0  0  0  0  0  0  0  0  0  0  0
   46.8839    3.8235   16.3251 O   0  0  0  0  0  0  0  0  0  0  0  0
   51.9708    4.5883   22.4307 C   0  0  0  0  0  0  0  0  0  0  0  0
   53.3271    4.6398   17.7183 C   0  0  0  0  0  0  0  0  0  0  0  0
   47.9189    2.7508   17.9708 O   0  0  0  0  0  0  0  0  0  0  0  0
   50.4201    5.4728   20.4028 C   0  0  0  0  0  0  0  0  0  0  0  0
   50.1221    4.9699   19.1736 C   0  0  0  0  0  0  0  0  0  0  0  0
   51.6423    5.2630   20.9942 N   0  0  0  0  0  0  0  0  0  0  0  0
   52.2711    4.0280   19.0418 N   0  0  0  0  0  0  0  0  0  0  0  0
   52.6033    4.4979   20.3287 C   0  0  0  0  0  0  0  0  0  0  0  0
   51.0357    4.1971   18.4090 C   0  0  0  0  0  0  0  0  0  0  0  0
   49.3782    6.1729   20.9314 N   0  0  0  0  0  0  0  0  0  0  0  0
   48.8356    5.3622   18.9310 N   0  0  0  0  0  0  0  0  0  0  0  0
   48.4274    6.0851   20.0228 C   0  0  0  0  0  0  0  0  0  0  0  0
   48.0517    5.1102   17.7360 C   0  0  0  0  0  0  0  0  0  0  0  0
   53.6959    4.2422   20.8432 O   0  0  0  0  0  0  0  0  0  0  0  0
   50.7531    3.7346   17.3072 O   0  0  0  0  0  0  0  0  0  0  0  0
   47.5037    3.7100   17.6919 C   0  0  0  0  0  0  0  0  0  0  0  0
   47.5076    2.8766   18.5821 O   0  0  0  0  0  0  0  0  0  0  0  0
   51.9075    5.7900   22.3204 C   0  0  0  0  0  0  0  0  0  0  0  0
   53.2540    3.2323   18.3326 C   0  0  0  0  0  0  0  0  0  0  0  0
   46.9194    3.4316   16.5067 O   0  0  0  0  0  0  0  0  0  0  0  0
   50.1399    4.9158   20.7419 N   0  0  0  0  0  0  0  0  0  0  0  0
   50.6539    4.3554   17.8690 N   0  0  0  0  0  0  0  0  0  0  0  0
   49.1221    5.1457   19.7015 C   0  0  0  0  0  0  0  0  0  0  0  0
   49.3108    4.2414   18.4646 C   0  0  0  0  0  0  0  0  0  0  0  0
   51.4834    5.0278   20.1469 C   0  0  0  0  0  0  0  0  0  0  0  0
   51.6716    4.1237   18.9095 C   0  0  0  0  0  0  0  0  0  0  0  0
   47.1931    5.0672   20.8973 H   0  0  0  0  0  0  0  0  0  0  0  0
   46.8200    5.5625   18.4909 H   0  0  0  0  0  0  0  0  0  0  0  0
   48.2445    5.8829   17.4693 H   0  0  0  0  0  0  0  0  0  0  0  0
   51.4686    3.7137   22.8561 H   0  0  0  0  0  0  0  0  0  0  0  0
   53.0461    4.4895   22.6002 H   0  0  0  0  0  0  0  0  0  0  0  0
   51.6202    5.4941   22.9351 H   0  0  0  0  0  0  0  0  0  0  0  0
   53.7782    3.6427   17.7616 H   0  0  0  0  0  0  0  0  0  0  0  0
   54.0971    5.3793   17.9619 H   0  0  0  0  0  0  0  0  0  0  0  0
   52.9691    4.8253   16.7021 H   0  0  0  0  0  0  0  0  0  0  0  0
   47.6703    2.0405   17.3412 H   0  0  0  0  0  0  0  0  0  0  0  0
   47.4397    6.5217   20.1054 H   0  0  0  0  0  0  0  0  0  0  0  0
   48.6961    5.2940   16.8713 H   0  0  0  0  0  0  0  0  0  0  0  0
   47.2185    5.8204   17.7222 H   0  0  0  0  0  0  0  0  0  0  0  0
   51.7118    6.8672   22.3269 H   0  0  0  0  0  0  0  0  0  0  0  0
   52.9444    5.6239   22.6243 H   0  0  0  0  0  0  0  0  0  0  0  0
   51.2474    5.2920   23.0379 H   0  0  0  0  0  0  0  0  0  0  0  0
   52.9614    2.1789   18.4044 H   0  0  0  0  0  0  0  0  0  0  0  0
   54.2606    3.3525   18.7422 H   0  0  0  0  0  0  0  0  0  0  0  0
   53.2710    3.5163   17.2747 H   0  0  0  0  0  0  0  0  0  0  0  0
   46.6337    2.4965   16.5924 H   0  0  0  0  0  0  0  0  0  0  0  0
   50.0286    3.9587   21.0789 H   0  0  0  0  0  0  0  0  0  0  0  0
   50.7648    5.3136   17.5359 H   0  0  0  0  0  0  0  0  0  0  0  0
   49.1474    6.2000   19.3992 H   0  0  0  0  0  0  0  0  0  0  0  0
   48.1314    4.9661   20.1334 H   0  0  0  0  0  0  0  0  0  0  0  0
   48.5662    4.5065   17.7059 H   0  0  0  0  0  0  0  0  0  0  0  0
   49.1249    3.1950   18.7365 H   0  0  0  0  0  0  0  0  0  0  0  0
   51.6696    6.0743   19.8759 H   0  0  0  0  0  0  0  0  0  0  0  0
   52.2276    4.7621   20.9058 H   0  0  0  0  0  0  0  0  0  0  0  0
   52.6627    4.3019   18.4776 H   0  0  0  0  0  0  0  0  0  0  0  0
   51.6438    3.0691   19.2107 H   0  0  0  0  0  0  0  0  0  0  0  0
  2  1  2  0
  3  1  1  0
  4  5  1  0
  5  3  1  0
  6  2  1  0
  7  1  1  0
  8  2  1  0
  9  7  2  0
 10  8  1  0
 11  5  2  0
 12  6  2  0
 13 10  1  0
 14 13  2  0
 15  3  1  0
 16  4  1  0
 17 13  1  0
  6  4  1  0
  8  9  1  0
 19 18  2  0
 20 18  1  0
 21 22  1  0
 22 20  1  0
 23 19  1  0
 24 18  1  0
 25 19  1  0
 26 24  2  0
 27 25  1  0
 28 22  2  0
 29 23  2  0
 30 27  1  0
 31 30  2  0
 32 20  1  0
 33 21  1  0
 34 30  1  0
 23 21  1  0
 25 26  1  0
 36 40  1  0
 37 35  1  0
 38 37  1  0
 39 35  1  0
 40 39  1  0
 38 36  1  0
  9 41  1  0
 10 42  1  0
 10 43  1  0
 15 44  1  0
 15 45  1  0
 15 46  1  0
 16 47  1  0
 16 48  1  0
 16 49  1  0
 17 50  1  0
 26 51  1  0
 27 52  1  0
 27 53  1  0
 32 54  1  0
 32 55  1  0
 32 56  1  0
 33 57  1  0
 33 58  1  0
 33 59  1  0
 34 60  1  0
 35 61  1  0
 36 62  1  0
 37 63  1  0
 37 64  1  0
 38 65  1  0
 38 66  1  0
 39 67  1  0
 39 68  1  0
 40 69  1  0
 40 70  1  0
M  END
> <Uni-Dock RESULT> 
ENERGY=   -5.165  LOWER_BOUND=    5.168  UPPER_BOUND=    7.369
INTER + INTRA:          -5.165
INTER:                  -5.165
INTRA:                   0.000
UNBOUND:                 0.000

$$$$

     RDKit          3D

 70 72  0  0  0  0  0  0  0  0999 V2000
   47.8194    7.5782   19.9811 C   0  0  0  0  0  0  0  0  0  0  0  0
   48.3634    6.3341   19.8812 C   0  0  0  0  0  0  0  0  0  0  0  0
   47.5137    8.1396   21.1971 N   0  0  0  0  0  0  0  0  0  0  0  0
   48.3436    6.1397   22.2208 N   0  0  0  0  0  0  0  0  0  0  0  0
   47.7635    7.4179   22.3652 C   0  0  0  0  0  0  0  0  0  0  0  0
   48.6535    5.5192   21.0081 C   0  0  0  0  0  0  0  0  0  0  0  0
   47.6302    8.1500   18.7597 N   0  0  0  0  0  0  0  0  0  0  0  0
   48.5110    6.1171   18.5396 N   0  0  0  0  0  0  0  0  0  0  0  0
   48.0533    7.2425   17.9023 C   0  0  0  0  0  0  0  0  0  0  0  0
   49.0923    4.9535   17.8925 C   0  0  0  0  0  0  0  0  0  0  0  0
   47.4916    7.8685   23.4821 O   0  0  0  0  0  0  0  0  0  0  0  0
   49.1241    4.3908   20.9004 O   0  0  0  0  0  0  0  0  0  0  0  0
   48.1774    3.7626   17.8050 C   0  0  0  0  0  0  0  0  0  0  0  0
   48.5115    2.6587   17.3983 O   0  0  0  0  0  0  0  0  0  0  0  0
   46.9225    9.4643   21.2584 C   0  0  0  0  0  0  0  0  0  0  0  0
   48.5931    5.4055   23.4458 C   0  0  0  0  0  0  0  0  0  0  0  0
   46.8971    3.9813   18.1566 O   0  0  0  0  0  0  0  0  0  0  0  0
   48.5110    7.6301   20.0700 C   0  0  0  0  0  0  0  0  0  0  0  0
   48.4831    6.2702   20.0195 C   0  0  0  0  0  0  0  0  0  0  0  0
   48.0700    8.3230   21.1714 N   0  0  0  0  0  0  0  0  0  0  0  0
   47.5852    6.2114   22.1905 N   0  0  0  0  0  0  0  0  0  0  0  0
   47.5609    7.6190   22.2654 C   0  0  0  0  0  0  0  0  0  0  0  0
   48.0031    5.4637   21.0852 C   0  0  0  0  0  0  0  0  0  0  0  0
   49.0099    8.1709   18.9239 N   0  0  0  0  0  0  0  0  0  0  0  0
   48.9736    5.9500   18.7847 N   0  0  0  0  0  0  0  0  0  0  0  0
   49.2765    7.1317   18.1581 C   0  0  0  0  0  0  0  0  0  0  0  0
   49.1827    4.6208   18.2411 C   0  0  0  0  0  0  0  0  0  0  0  0
   47.1079    8.2014   23.2551 O   0  0  0  0  0  0  0  0  0  0  0  0
   47.9676    4.2379   21.0251 O   0  0  0  0  0  0  0  0  0  0  0  0
   47.9049    3.9869   17.7632 C   0  0  0  0  0  0  0  0  0  0  0  0
   46.8113    4.5113   17.6366 O   0  0  0  0  0  0  0  0  0  0  0  0
   48.0871    9.7745   21.1711 C   0  0  0  0  0  0  0  0  0  0  0  0
   47.0623    5.4604   23.3151 C   0  0  0  0  0  0  0  0  0  0  0  0
   48.0799    2.6940   17.4150 O   0  0  0  0  0  0  0  0  0  0  0  0
   47.8787    7.6940   19.7539 N   0  0  0  0  0  0  0  0  0  0  0  0
   48.3529    4.9539   20.8023 N   0  0  0  0  0  0  0  0  0  0  0  0
   48.4908    6.6334   18.9344 C   0  0  0  0  0  0  0  0  0  0  0  0
   48.0759    5.2143   19.3785 C   0  0  0  0  0  0  0  0  0  0  0  0
   48.1536    7.4334   21.1781 C   0  0  0  0  0  0  0  0  0  0  0  0
   47.7391    6.0138   21.6219 C   0  0  0  0  0  0  0  0  0  0  0  0
   48.0524    7.3500   16.8245 H   0  0  0  0  0  0  0  0  0  0  0  0
   49.3756    5.2472   16.8767 H   0  0  0  0  0  0  0  0  0  0  0  0
   49.9936    4.6833   18.4501 H   0  0  0  0  0  0  0  0  0  0  0  0
   45.9693    9.4548   20.7205 H   0  0  0  0  0  0  0  0  0  0  0  0
   46.7385    9.7820   22.2879 H   0  0  0  0  0  0  0  0  0  0  0  0
   47.6020   10.1818   20.7883 H   0  0  0  0  0  0  0  0  0  0  0  0
   47.6320    5.1769   23.9186 H   0  0  0  0  0  0  0  0  0  0  0  0
   49.1761    6.0305   24.1303 H   0  0  0  0  0  0  0  0  0  0  0  0
   49.1357    4.4725   23.2717 H   0  0  0  0  0  0  0  0  0  0  0  0
   46.4623    3.1078   18.0533 H   0  0  0  0  0  0  0  0  0  0  0  0
   49.6848    7.1803   17.1561 H   0  0  0  0  0  0  0  0  0  0  0  0
   49.6405    4.0099   19.0246 H   0  0  0  0  0  0  0  0  0  0  0  0
   49.8763    4.7054   17.3983 H   0  0  0  0  0  0  0  0  0  0  0  0
   49.0981   10.1238   20.9372 H   0  0  0  0  0  0  0  0  0  0  0  0
   47.7939   10.1849   22.1410 H   0  0  0  0  0  0  0  0  0  0  0  0
   47.3877   10.1367   20.4109 H   0  0  0  0  0  0  0  0  0  0  0  0
   46.0604    5.1019   23.0541 H   0  0  0  0  0  0  0  0  0  0  0  0
   47.0004    6.0632   24.2253 H   0  0  0  0  0  0  0  0  0  0  0  0
   47.7006    4.5926   23.5134 H   0  0  0  0  0  0  0  0  0  0  0  0
   47.1836    2.3911   17.1538 H   0  0  0  0  0  0  0  0  0  0  0  0
   46.8679    7.6459   19.6193 H   0  0  0  0  0  0  0  0  0  0  0  0
   49.3634    5.0058   20.9358 H   0  0  0  0  0  0  0  0  0  0  0  0
   49.5827    6.7318   18.9746 H   0  0  0  0  0  0  0  0  0  0  0  0
   48.1997    6.7851   17.8891 H   0  0  0  0  0  0  0  0  0  0  0  0
   48.6135    4.4748   18.7749 H   0  0  0  0  0  0  0  0  0  0  0  0
   47.0068    5.0615   19.1858 H   0  0  0  0  0  0  0  0  0  0  0  0
   49.2224    7.5872   21.3710 H   0  0  0  0  0  0  0  0  0  0  0  0
   47.6154    8.1728   21.7814 H   0  0  0  0  0  0  0  0  0  0  0  0
   48.0289    5.8617   22.6676 H   0  0  0  0  0  0  0  0  0  0  0  0
   46.6474    5.9139   21.5794 H   0  0  0  0  0  0  0  0  0  0  0  0
  2  1  2  0
  3  1  1  0
  4  5  1  0
  5  3  1  0
  6  2  1  0
  7  1  1  0
  8  2  1  0
  9  7  2  0
 10  8  1  0
 11  5  2  0
 12  6  2  0
 13 10  1  0
 14 13  2  0
 15  3  1  0
 16  4  1  0
 17 13  1  0
  6  4  1  0
  8  9  1  0
 19 18  2  0
 20 18  1  0
 21 22  1  0
 22 20  1  0
 23 19  1  0
 24 18  1  0
 25 19  1  0
 26 24  2  0
 27 25  1  0
 28 22  2  0
 29 23  2  0
 30 27  1  0
 31 30  2  0
 32 20  1  0
 33 21  1  0
 34 30  1  0
 23 21  1  0
 25 26  1  0
 36 40  1  0
 37 35  1  0
 38 37  1  0
 39 35  1  0
 40 39  1  0
 38 36  1  0
  9 41  1  0
 10 42  1  0
 10 43  1  0
 15 44  1  0
 15 45  1  0
 15 46  1  0
 16 47  1  0
 16 48  1  0
 16 49  1  0
 17 50  1  0
 26 51  1  0
 27 52  1  0
 27 53  1  0
 32 54  1  0
 32 55  1  0
 32 56  1  0
 33 57  1  0
 33 58  1  0
 33 59  1  0
 34 60  1  0
 35 61  1  0
 36 62  1  0
 37 63  1  0
 37 64  1  0
 38 65  1  0
 38 66  1  0
 39 67  1  0
 39 68  1  0
 40 69  1  0
 40 70  1  0
M  END
> <Uni-Dock RESULT> 
ENERGY=   -4.990  LOWER_BOUND=    5.300  UPPER_BOUND=    7.271
INTER + INTRA:          -4.990
INTER:                  -4.990
INTRA:                   0.000
UNBOUND:                 0.000

$$$$
