
     RDKit          3D

132133  0  0  0  0  0  0  0  0999 V2000
   -0.0092    0.3983    0.0000 O   0  0  0  0  0  0  0  0  0  0  0  0
   -2.2985    0.1524   -1.3826 N   0  0  0  0  0  0  0  0  0  0  0  0
   -1.6164   -0.8355   -0.5280 C   0  0  1  0  0  0  0  0  0  0  0  0
   -1.1312    0.7510   -1.7810 C   0  0  0  0  0  0  0  0  0  0  0  0
   -0.2750   -0.3739   -1.1464 C   0  0  1  0  0  0  0  0  0  0  0  0
   -3.3607    0.9610   -0.7873 C   0  0  2  0  0  0  0  0  0  0  0  0
   -2.0249   -0.2716    1.1762 S   0  0  0  0  0  0  0  0  0  0  0  0
   -3.6758    0.3716    0.6051 C   0  0  0  0  0  0  0  0  0  0  0  0
    0.7857    0.0587   -0.1929 N   0  0  0  0  0  0  0  0  0  0  0  0
   -4.5659    1.0140   -1.7189 C   0  0  0  0  0  0  0  0  0  0  0  0
    1.8580   -0.7618    0.0984 C   0  0  0  0  0  0  0  0  0  0  0  0
   -0.9400    1.8292   -2.2946 O   0  0  0  0  0  0  0  0  0  0  0  0
   -4.8601    0.2154   -2.5935 O   0  0  0  0  0  0  0  0  0  0  0  0
    2.0210   -1.8579   -0.4464 O   0  0  0  0  0  0  0  0  0  0  0  0
    2.7928   -0.2071    1.1570 C   0  0  0  0  0  0  0  0  0  0  0  0
   -5.3789    2.0545   -1.4460 O   0  0  0  0  0  0  0  0  0  0  0  0
   -4.6580   -0.8050    0.5860 C   0  0  0  0  0  0  0  0  0  0  0  0
   -4.1580    1.4399    1.5849 C   0  0  0  0  0  0  0  0  0  0  0  0
    4.2521   -0.4423    0.8523 C   0  0  0  0  0  0  0  0  0  0  0  0
    5.0226   -1.2761    1.6720 C   0  0  0  0  0  0  0  0  0  0  0  0
    4.8606    0.1744   -0.2493 C   0  0  0  0  0  0  0  0  0  0  0  0
    6.3746   -1.4978    1.3893 C   0  0  0  0  0  0  0  0  0  0  0  0
    6.2110   -0.0454   -0.5303 C   0  0  0  0  0  0  0  0  0  0  0  0
    6.9678   -0.8845    0.2863 C   0  0  0  0  0  0  0  0  0  0  0  0
    1.4309    0.5564    1.3449 N   0  0  0  0  0  0  0  0  0  0  0  0
   -0.9769   -0.4693    0.0085 N   0  0  0  0  0  0  0  0  0  0  0  0
   -3.3400   -0.4385   -0.8022 C   0  0  0  0  0  0  0  0  0  0  0  0
    3.5409    0.2121    0.1584 C   0  0  0  0  0  0  0  0  0  0  0  0
    2.2425    0.9826    0.2090 C   0  0  0  0  0  0  0  0  0  0  0  0
   -1.8912   -0.7371   -1.1089 C   0  0  0  0  0  0  0  0  0  0  0  0
    0.1420    1.2574    1.4283 C   0  0  0  0  0  0  0  0  0  0  0  0
   -0.8618    0.9674    0.2868 C   0  0  0  0  0  0  0  0  0  0  0  0
   -4.0807    0.4168   -1.6314 C   0  0  0  0  0  0  0  0  0  0  0  0
   -3.9804   -1.0373    0.2921 C   0  0  0  0  0  0  0  0  0  0  0  0
    3.7474   -0.7833   -0.8059 C   0  0  0  0  0  0  0  0  0  0  0  0
    4.5542    0.4702    1.0953 C   0  0  0  0  0  0  0  0  0  0  0  0
   -5.4247    0.6840   -1.3538 C   0  0  0  0  0  0  0  0  0  0  0  0
    4.9470   -1.4942   -0.8454 C   0  0  0  0  0  0  0  0  0  0  0  0
    5.7548   -0.2415    1.0535 C   0  0  0  0  0  0  0  0  0  0  0  0
   -5.3215   -0.7698    0.5699 C   0  0  0  0  0  0  0  0  0  0  0  0
   -6.0427    0.0936   -0.2527 C   0  0  0  0  0  0  0  0  0  0  0  0
    5.9497   -1.2240    0.0852 C   0  0  0  0  0  0  0  0  0  0  0  0
   -2.6472   -0.5339   -0.6601 N   0  0  0  0  0  0  0  0  0  0  0  0
   -1.5113   -1.0096    0.1570 C   0  0  1  0  0  0  0  0  0  0  0  0
   -1.8549   -0.1573   -1.7063 C   0  0  0  0  0  0  0  0  0  0  0  0
   -0.6089   -0.8311   -1.0872 C   0  0  1  0  0  0  0  0  0  0  0  0
   -3.5582    0.4453   -0.0674 C   0  0  2  0  0  0  0  0  0  0  0  0
   -1.4036    0.2298    1.5070 S   0  0  0  0  0  0  0  0  0  0  0  0
   -3.2373    0.5222    1.4408 C   0  0  0  0  0  0  0  0  0  0  0  0
    0.5923    0.0361   -0.9655 N   0  0  0  0  0  0  0  0  0  0  0  0
   -5.0289    0.1448   -0.3456 C   0  0  0  0  0  0  0  0  0  0  0  0
    1.6838   -0.3567   -0.2148 C   0  0  0  0  0  0  0  0  0  0  0  0
   -2.0703    0.5721   -2.6487 O   0  0  0  0  0  0  0  0  0  0  0  0
   -5.9719    0.8102    0.0574 O   0  0  0  0  0  0  0  0  0  0  0  0
    1.7229   -1.4397    0.3589 O   0  0  0  0  0  0  0  0  0  0  0  0
    2.7722    0.6970   -0.1033 C   0  0  0  0  0  0  0  0  0  0  0  0
   -5.2585   -0.9486   -1.0959 O   0  0  0  0  0  0  0  0  0  0  0  0
   -3.5186    1.9100    2.0245 C   0  0  0  0  0  0  0  0  0  0  0  0
   -3.9233   -0.5581    2.2856 C   0  0  0  0  0  0  0  0  0  0  0  0
    4.1677    0.1688   -0.3242 C   0  0  0  0  0  0  0  0  0  0  0  0
    4.7856    0.2892   -1.5783 C   0  0  0  0  0  0  0  0  0  0  0  0
    4.8759   -0.4352    0.7245 C   0  0  0  0  0  0  0  0  0  0  0  0
    6.0946   -0.1619   -1.7697 C   0  0  0  0  0  0  0  0  0  0  0  0
    6.1820   -0.8862    0.5323 C   0  0  0  0  0  0  0  0  0  0  0  0
    6.7938   -0.7442   -0.7112 C   0  0  0  0  0  0  0  0  0  0  0  0
    0.0004    0.3973    0.0000 O   0  0  0  0  0  0  0  0  0  0  0  0
   -0.0032    0.3976    0.0000 O   0  0  0  0  0  0  0  0  0  0  0  0
   -0.0262    0.3973    0.0000 O   0  0  0  0  0  0  0  0  0  0  0  0
    0.7680   -0.1818    0.0000 H   0  0  0  0  0  0  0  0  0  0  0  0
   -0.7588   -0.2165    0.0000 H   0  0  0  0  0  0  0  0  0  0  0  0
   -1.8987   -1.8666   -0.7574 H   0  0  0  0  0  0  0  0  0  0  0  0
    0.1176   -1.0500   -1.9204 H   0  0  0  0  0  0  0  0  0  0  0  0
   -2.9862    1.9897   -0.6970 H   0  0  0  0  0  0  0  0  0  0  0  0
    0.6336    0.8917    0.3770 H   0  0  0  0  0  0  0  0  0  0  0  0
    2.6381    0.8701    1.2810 H   0  0  0  0  0  0  0  0  0  0  0  0
    2.5099   -0.6764    2.1055 H   0  0  0  0  0  0  0  0  0  0  0  0
   -6.0847    1.9815   -2.1270 H   0  0  0  0  0  0  0  0  0  0  0  0
   -4.3651   -1.5884   -0.1225 H   0  0  0  0  0  0  0  0  0  0  0  0
   -5.6638   -0.4683    0.3029 H   0  0  0  0  0  0  0  0  0  0  0  0
   -4.7462   -1.2669    1.5754 H   0  0  0  0  0  0  0  0  0  0  0  0
   -3.4351    2.2600    1.6857 H   0  0  0  0  0  0  0  0  0  0  0  0
   -4.3400    1.0175    2.5809 H   0  0  0  0  0  0  0  0  0  0  0  0
   -5.0984    1.8792    1.2388 H   0  0  0  0  0  0  0  0  0  0  0  0
    4.5771   -1.7767    2.5308 H   0  0  0  0  0  0  0  0  0  0  0  0
    4.2837    0.8225   -0.9053 H   0  0  0  0  0  0  0  0  0  0  0  0
    6.9661   -2.1519    2.0320 H   0  0  0  0  0  0  0  0  0  0  0  0
    6.6717    0.4294   -1.3914 H   0  0  0  0  0  0  0  0  0  0  0  0
    8.0175   -1.0599    0.0625 H   0  0  0  0  0  0  0  0  0  0  0  0
    1.2623   -0.4473    1.2953 H   0  0  0  0  0  0  0  0  0  0  0  0
   -0.0563   -0.8228   -0.2478 H   0  0  0  0  0  0  0  0  0  0  0  0
    1.7102    0.8477   -0.7395 H   0  0  0  0  0  0  0  0  0  0  0  0
    2.4777    2.0514    0.2897 H   0  0  0  0  0  0  0  0  0  0  0  0
   -1.5613   -0.1920   -2.0010 H   0  0  0  0  0  0  0  0  0  0  0  0
   -1.8253   -1.8038   -1.3611 H   0  0  0  0  0  0  0  0  0  0  0  0
    0.3067    2.3407    1.5020 H   0  0  0  0  0  0  0  0  0  0  0  0
   -0.3218    0.9561    2.3741 H   0  0  0  0  0  0  0  0  0  0  0  0
   -0.5373    1.4982   -0.6196 H   0  0  0  0  0  0  0  0  0  0  0  0
   -1.8304    1.3849    0.5808 H   0  0  0  0  0  0  0  0  0  0  0  0
   -3.6151    0.8892   -2.4929 H   0  0  0  0  0  0  0  0  0  0  0  0
   -3.4213   -1.7052    0.9442 H   0  0  0  0  0  0  0  0  0  0  0  0
    2.9774   -1.0102   -1.5345 H   0  0  0  0  0  0  0  0  0  0  0  0
    4.4037    1.2288    1.8629 H   0  0  0  0  0  0  0  0  0  0  0  0
   -5.9852    1.3533   -1.9984 H   0  0  0  0  0  0  0  0  0  0  0  0
    5.1013   -2.2634   -1.5965 H   0  0  0  0  0  0  0  0  0  0  0  0
    6.5328   -0.0328    1.7867 H   0  0  0  0  0  0  0  0  0  0  0  0
   -5.8013   -1.2379    1.4280 H   0  0  0  0  0  0  0  0  0  0  0  0
   -7.0899    0.2947   -0.0411 H   0  0  0  0  0  0  0  0  0  0  0  0
    6.8835   -1.7753    0.0580 H   0  0  0  0  0  0  0  0  0  0  0  0
   -1.6445   -2.0426    0.4905 H   0  0  0  0  0  0  0  0  0  0  0  0
   -0.3603   -1.7699   -1.5994 H   0  0  0  0  0  0  0  0  0  0  0  0
   -3.3605    1.4130   -0.5494 H   0  0  0  0  0  0  0  0  0  0  0  0
    0.5804    0.9623   -1.3748 H   0  0  0  0  0  0  0  0  0  0  0  0
    2.6988    1.1419    0.8938 H   0  0  0  0  0  0  0  0  0  0  0  0
    2.5841    1.5122   -0.8129 H   0  0  0  0  0  0  0  0  0  0  0  0
   -6.2290   -0.9710   -1.2264 H   0  0  0  0  0  0  0  0  0  0  0  0
   -4.5874    2.1437    1.9878 H   0  0  0  0  0  0  0  0  0  0  0  0
   -2.9963    2.6936    1.4621 H   0  0  0  0  0  0  0  0  0  0  0  0
   -3.2075    1.9736    3.0746 H   0  0  0  0  0  0  0  0  0  0  0  0
   -3.7812   -1.5641    1.8702 H   0  0  0  0  0  0  0  0  0  0  0  0
   -3.5479   -0.5669    3.3155 H   0  0  0  0  0  0  0  0  0  0  0  0
   -5.0025   -0.3847    2.3482 H   0  0  0  0  0  0  0  0  0  0  0  0
    4.2610    0.7487   -2.4101 H   0  0  0  0  0  0  0  0  0  0  0  0
    4.4105   -0.5546    1.7020 H   0  0  0  0  0  0  0  0  0  0  0  0
    6.5692   -0.0587   -2.7467 H   0  0  0  0  0  0  0  0  0  0  0  0
    6.7213   -1.3497    1.3514 H   0  0  0  0  0  0  0  0  0  0  0  0
    7.8140   -1.0895   -0.8636 H   0  0  0  0  0  0  0  0  0  0  0  0
   -0.7634   -0.1977    0.0000 H   0  0  0  0  0  0  0  0  0  0  0  0
    0.7630   -0.1996    0.0000 H   0  0  0  0  0  0  0  0  0  0  0  0
    0.7649   -0.1925    0.0000 H   0  0  0  0  0  0  0  0  0  0  0  0
   -0.7617   -0.2051    0.0000 H   0  0  0  0  0  0  0  0  0  0  0  0
   -0.7479   -0.2489    0.0000 H   0  0  0  0  0  0  0  0  0  0  0  0
    0.7741   -0.1484    0.0000 H   0  0  0  0  0  0  0  0  0  0  0  0
  3  2  1  0
  4  2  1  0
  5  3  1  0
  6  2  1  0
  3  7  1  0
  8  6  1  0
  5  9  1  0
  6 10  1  0
 11  9  1  0
 12  4  2  0
 13 10  2  0
 14 11  2  0
 15 11  1  0
 16 10  1  0
 17  8  1  0
 18  8  1  0
 19 15  1  0
 20 19  2  0
 21 19  1  0
 22 20  1  0
 23 21  2  0
 24 23  1  0
  7  8  1  0
  4  5  1  0
 24 22  2  0
 26 32  1  0
 27 30  1  0
 28 29  1  0
 29 25  1  0
 30 26  1  0
 31 25  1  0
 32 31  1  0
 33 27  2  0
 34 27  1  0
 35 28  2  0
 36 28  1  0
 37 33  1  0
 38 35  1  0
 39 36  2  0
 40 34  2  0
 41 37  2  0
 42 39  1  0
 42 38  2  0
 40 41  1  0
 44 43  1  0
 45 43  1  0
 46 44  1  0
 47 43  1  0
 44 48  1  0
 49 47  1  0
 46 50  1  0
 47 51  1  0
 52 50  1  0
 53 45  2  0
 54 51  2  0
 55 52  2  0
 56 52  1  0
 57 51  1  0
 58 49  1  0
 59 49  1  0
 60 56  1  0
 61 60  2  0
 62 60  1  0
 63 61  1  0
 64 62  2  0
 65 64  1  0
 48 49  1  0
 45 46  1  0
 65 63  2  0
  1 69  1  0
  1 70  1  0
  3 71  1  6
  5 72  1  6
  6 73  1  1
  9 74  1  0
 15 75  1  0
 15 76  1  0
 16 77  1  0
 17 78  1  0
 17 79  1  0
 17 80  1  0
 18 81  1  0
 18 82  1  0
 18 83  1  0
 20 84  1  0
 21 85  1  0
 22 86  1  0
 23 87  1  0
 24 88  1  0
 25 89  1  0
 26 90  1  0
 29 91  1  0
 29 92  1  0
 30 93  1  0
 30 94  1  0
 31 95  1  0
 31 96  1  0
 32 97  1  0
 32 98  1  0
 33 99  1  0
 34100  1  0
 35101  1  0
 36102  1  0
 37103  1  0
 38104  1  0
 39105  1  0
 40106  1  0
 41107  1  0
 42108  1  0
 44109  1  1
 46110  1  6
 47111  1  6
 50112  1  0
 56113  1  0
 56114  1  0
 57115  1  0
 58116  1  0
 58117  1  0
 58118  1  0
 59119  1  0
 59120  1  0
 59121  1  0
 61122  1  0
 62123  1  0
 63124  1  0
 64125  1  0
 65126  1  0
 66127  1  0
 66128  1  0
 67129  1  0
 67130  1  0
 68131  1  0
 68132  1  0
M  END
$$$$
