
     RDKit          3D

132133  0  0  0  0  0  0  0  0999 V2000
   -0.0009    0.3976    0.0000 O   0  0  0  0  0  0  0  0  0  0  0  0
   -2.3642    0.2968    1.6876 N   0  0  0  0  0  0  0  0  0  0  0  0
   -1.3573    1.0703    0.9428 C   0  0  1  0  0  0  0  0  0  0  0  0
   -1.5150   -0.7397    1.9451 C   0  0  0  0  0  0  0  0  0  0  0  0
   -0.2888    0.0880    1.4965 C   0  0  1  0  0  0  0  0  0  0  0  0
   -3.6606    0.0923    1.0482 C   0  0  2  0  0  0  0  0  0  0  0  0
   -1.8353    0.8976   -0.8263 S   0  0  0  0  0  0  0  0  0  0  0  0
   -3.4053   -0.0266   -0.4757 C   0  0  0  0  0  0  0  0  0  0  0  0
    0.6223   -0.5641    0.5182 N   0  0  0  0  0  0  0  0  0  0  0  0
   -4.6318    1.2134    1.4338 C   0  0  0  0  0  0  0  0  0  0  0  0
    1.6217    0.1629   -0.0969 C   0  0  0  0  0  0  0  0  0  0  0  0
   -1.7312   -1.8847    2.2658 O   0  0  0  0  0  0  0  0  0  0  0  0
   -5.8285    1.2328    1.1829 O   0  0  0  0  0  0  0  0  0  0  0  0
    1.8015    1.3519    0.1569 O   0  0  0  0  0  0  0  0  0  0  0  0
    2.4313   -0.6183   -1.1178 C   0  0  0  0  0  0  0  0  0  0  0  0
   -4.0760    2.2603    2.0788 O   0  0  0  0  0  0  0  0  0  0  0  0
   -3.1757   -1.4924   -0.8864 C   0  0  0  0  0  0  0  0  0  0  0  0
   -4.5008    0.5545   -1.3769 C   0  0  0  0  0  0  0  0  0  0  0  0
    3.9174   -0.3944   -0.9918 C   0  0  0  0  0  0  0  0  0  0  0  0
    4.6904   -1.1967   -0.1407 C   0  0  0  0  0  0  0  0  0  0  0  0
    4.5406    0.6405   -1.7025 C   0  0  0  0  0  0  0  0  0  0  0  0
    6.0636   -0.9754   -0.0165 C   0  0  0  0  0  0  0  0  0  0  0  0
    5.9132    0.8589   -1.5769 C   0  0  0  0  0  0  0  0  0  0  0  0
    6.6747    0.0502   -0.7357 C   0  0  0  0  0  0  0  0  0  0  0  0
    1.8063    0.7319    0.6762 N   0  0  0  0  0  0  0  0  0  0  0  0
   -1.8391   -0.4322    0.7671 N   0  0  0  0  0  0  0  0  0  0  0  0
   -3.9342   -0.0721   -0.4457 C   0  0  0  0  0  0  0  0  0  0  0  0
    3.9562    0.0864   -0.2898 C   0  0  0  0  0  0  0  0  0  0  0  0
    2.4551    0.0795   -0.4568 C   0  0  0  0  0  0  0  0  0  0  0  0
   -2.4252   -0.0459   -0.5170 C   0  0  0  0  0  0  0  0  0  0  0  0
    0.3484    0.8040    0.5425 C   0  0  0  0  0  0  0  0  0  0  0  0
   -0.3789   -0.5488    0.7101 C   0  0  0  0  0  0  0  0  0  0  0  0
   -4.6234    0.8956    0.3003 C   0  0  0  0  0  0  0  0  0  0  0  0
   -4.6680   -1.0648   -1.1102 C   0  0  0  0  0  0  0  0  0  0  0  0
    4.6699    1.2920   -0.3640 C   0  0  0  0  0  0  0  0  0  0  0  0
    4.6593   -1.1025   -0.0486 C   0  0  0  0  0  0  0  0  0  0  0  0
   -6.0168    0.8778    0.3712 C   0  0  0  0  0  0  0  0  0  0  0  0
    6.0567    1.3081   -0.2095 C   0  0  0  0  0  0  0  0  0  0  0  0
    6.0475   -1.0849    0.1051 C   0  0  0  0  0  0  0  0  0  0  0  0
   -6.0623   -1.0811   -1.0382 C   0  0  0  0  0  0  0  0  0  0  0  0
   -6.7357   -0.1095   -0.2995 C   0  0  0  0  0  0  0  0  0  0  0  0
    6.7450    0.1191    0.0232 C   0  0  0  0  0  0  0  0  0  0  0  0
   -2.4464   -1.5209   -0.8475 N   0  0  0  0  0  0  0  0  0  0  0  0
   -1.3900   -1.4064    0.1742 C   0  0  1  0  0  0  0  0  0  0  0  0
   -1.6090   -1.2068   -1.8794 C   0  0  0  0  0  0  0  0  0  0  0  0
   -0.3584   -1.4023   -0.9896 C   0  0  1  0  0  0  0  0  0  0  0  0
   -3.6793   -0.7797   -0.6136 C   0  0  2  0  0  0  0  0  0  0  0  0
   -1.7107    0.2017    1.0170 S   0  0  0  0  0  0  0  0  0  0  0  0
   -3.3189    0.5153    0.1480 C   0  0  0  0  0  0  0  0  0  0  0  0
    0.6431   -0.3023   -1.0173 N   0  0  0  0  0  0  0  0  0  0  0  0
   -4.6284   -1.6992    0.1502 C   0  0  0  0  0  0  0  0  0  0  0  0
    1.6888   -0.2844   -0.1159 C   0  0  0  0  0  0  0  0  0  0  0  0
   -1.8402   -0.7990   -2.9935 O   0  0  0  0  0  0  0  0  0  0  0  0
   -4.3377   -2.5322    0.9925 O   0  0  0  0  0  0  0  0  0  0  0  0
    1.8616   -1.1975    0.6867 O   0  0  0  0  0  0  0  0  0  0  0  0
    2.5437    0.9695   -0.1843 C   0  0  0  0  0  0  0  0  0  0  0  0
   -5.9239   -1.4840   -0.1675 O   0  0  0  0  0  0  0  0  0  0  0  0
   -4.3489    0.9536    1.1977 C   0  0  0  0  0  0  0  0  0  0  0  0
   -3.0930    1.6831   -0.8268 C   0  0  0  0  0  0  0  0  0  0  0  0
    4.0134    0.7183    0.0459 C   0  0  0  0  0  0  0  0  0  0  0  0
    4.5425    0.7445    1.3439 C   0  0  0  0  0  0  0  0  0  0  0  0
    4.8667    0.4381   -1.0304 C   0  0  0  0  0  0  0  0  0  0  0  0
    5.9020    0.5135    1.5589 C   0  0  0  0  0  0  0  0  0  0  0  0
    6.2264    0.2073   -0.8126 C   0  0  0  0  0  0  0  0  0  0  0  0
    6.7443    0.2478    0.4808 C   0  0  0  0  0  0  0  0  0  0  0  0
   -0.0050    0.3976    0.0000 O   0  0  0  0  0  0  0  0  0  0  0  0
   -0.0001    0.3977    0.0000 O   0  0  0  0  0  0  0  0  0  0  0  0
    0.0007    0.3978    0.0000 O   0  0  0  0  0  0  0  0  0  0  0  0
    0.7639   -0.1971    0.0000 H   0  0  0  0  0  0  0  0  0  0  0  0
   -0.7630   -0.2005    0.0000 H   0  0  0  0  0  0  0  0  0  0  0  0
   -1.2639    2.1022    1.2925 H   0  0  0  0  0  0  0  0  0  0  0  0
    0.2732    0.4734    2.3563 H   0  0  0  0  0  0  0  0  0  0  0  0
   -4.0923   -0.8324    1.4519 H   0  0  0  0  0  0  0  0  0  0  0  0
    0.4692   -1.5312    0.2543 H   0  0  0  0  0  0  0  0  0  0  0  0
    2.0856   -0.3212   -2.1154 H   0  0  0  0  0  0  0  0  0  0  0  0
    2.2219   -1.6922   -1.0322 H   0  0  0  0  0  0  0  0  0  0  0  0
   -4.8222    2.8747    2.2368 H   0  0  0  0  0  0  0  0  0  0  0  0
   -2.9681   -1.5843   -1.9596 H   0  0  0  0  0  0  0  0  0  0  0  0
   -2.3417   -1.9588   -0.3535 H   0  0  0  0  0  0  0  0  0  0  0  0
   -4.0705   -2.0920   -0.6787 H   0  0  0  0  0  0  0  0  0  0  0  0
   -5.4592    0.0548   -1.1955 H   0  0  0  0  0  0  0  0  0  0  0  0
   -4.6448    1.6299   -1.2195 H   0  0  0  0  0  0  0  0  0  0  0  0
   -4.2670    0.4136   -2.4402 H   0  0  0  0  0  0  0  0  0  0  0  0
    4.2309   -1.9973    0.4338 H   0  0  0  0  0  0  0  0  0  0  0  0
    3.9570    1.2914   -2.3505 H   0  0  0  0  0  0  0  0  0  0  0  0
    6.6567   -1.6003    0.6469 H   0  0  0  0  0  0  0  0  0  0  0  0
    6.3863    1.6669   -2.1292 H   0  0  0  0  0  0  0  0  0  0  0  0
    7.7426    0.2247   -0.6345 H   0  0  0  0  0  0  0  0  0  0  0  0
    2.0581    0.2470    1.5363 H   0  0  0  0  0  0  0  0  0  0  0  0
   -2.2364   -1.3320    1.0385 H   0  0  0  0  0  0  0  0  0  0  0  0
    2.1087   -0.9544   -0.5637 H   0  0  0  0  0  0  0  0  0  0  0  0
    2.2118    0.5975   -1.3932 H   0  0  0  0  0  0  0  0  0  0  0  0
   -2.1201    0.9674   -0.8016 H   0  0  0  0  0  0  0  0  0  0  0  0
   -2.0852   -0.7208   -1.3124 H   0  0  0  0  0  0  0  0  0  0  0  0
   -0.0124    1.4906    1.3183 H   0  0  0  0  0  0  0  0  0  0  0  0
    0.0949    1.2679   -0.4174 H   0  0  0  0  0  0  0  0  0  0  0  0
   -0.0522   -0.9993    1.6555 H   0  0  0  0  0  0  0  0  0  0  0  0
   -0.0928   -1.2493   -0.0831 H   0  0  0  0  0  0  0  0  0  0  0  0
   -4.0687    1.6636    0.8357 H   0  0  0  0  0  0  0  0  0  0  0  0
   -4.1590   -1.8318   -1.6891 H   0  0  0  0  0  0  0  0  0  0  0  0
    4.1382    2.2262   -0.5334 H   0  0  0  0  0  0  0  0  0  0  0  0
    4.1316   -2.0504    0.0219 H   0  0  0  0  0  0  0  0  0  0  0  0
   -6.5394    1.6327    0.9528 H   0  0  0  0  0  0  0  0  0  0  0  0
    6.5974    2.2490   -0.2662 H   0  0  0  0  0  0  0  0  0  0  0  0
    6.5852   -2.0114    0.2908 H   0  0  0  0  0  0  0  0  0  0  0  0
   -6.6238   -1.8529   -1.5583 H   0  0  0  0  0  0  0  0  0  0  0  0
   -7.8210   -0.1243   -0.2426 H   0  0  0  0  0  0  0  0  0  0  0  0
    7.8248    0.1320    0.1458 H   0  0  0  0  0  0  0  0  0  0  0  0
   -1.3416   -2.2727    0.8396 H   0  0  0  0  0  0  0  0  0  0  0  0
    0.1199   -2.3730   -1.1711 H   0  0  0  0  0  0  0  0  0  0  0  0
   -4.1348   -0.5618   -1.5877 H   0  0  0  0  0  0  0  0  0  0  0  0
    0.4793    0.5075   -1.6053 H   0  0  0  0  0  0  0  0  0  0  0  0
    2.4150    1.4609   -1.1569 H   0  0  0  0  0  0  0  0  0  0  0  0
    2.1615    1.6732    0.5656 H   0  0  0  0  0  0  0  0  0  0  0  0
   -6.4138   -2.1379    0.3771 H   0  0  0  0  0  0  0  0  0  0  0  0
   -5.3260    1.1286    0.7324 H   0  0  0  0  0  0  0  0  0  0  0  0
   -4.4831    0.2083    1.9893 H   0  0  0  0  0  0  0  0  0  0  0  0
   -4.0537    1.8919    1.6837 H   0  0  0  0  0  0  0  0  0  0  0  0
   -2.8042    2.6006   -0.3003 H   0  0  0  0  0  0  0  0  0  0  0  0
   -2.3145    1.4716   -1.5669 H   0  0  0  0  0  0  0  0  0  0  0  0
   -4.0144    1.9043   -1.3785 H   0  0  0  0  0  0  0  0  0  0  0  0
    3.8954    0.9347    2.1978 H   0  0  0  0  0  0  0  0  0  0  0  0
    4.4804    0.3961   -2.0463 H   0  0  0  0  0  0  0  0  0  0  0  0
    6.3017    0.5336    2.5693 H   0  0  0  0  0  0  0  0  0  0  0  0
    6.8824   -0.0092   -1.6516 H   0  0  0  0  0  0  0  0  0  0  0  0
    7.8027    0.0656    0.6501 H   0  0  0  0  0  0  0  0  0  0  0  0
   -0.7609   -0.2082    0.0000 H   0  0  0  0  0  0  0  0  0  0  0  0
    0.7659   -0.1895    0.0000 H   0  0  0  0  0  0  0  0  0  0  0  0
    0.7635   -0.1987    0.0000 H   0  0  0  0  0  0  0  0  0  0  0  0
   -0.7634   -0.1991    0.0000 H   0  0  0  0  0  0  0  0  0  0  0  0
   -0.7639   -0.1976    0.0000 H   0  0  0  0  0  0  0  0  0  0  0  0
    0.7632   -0.2002    0.0000 H   0  0  0  0  0  0  0  0  0  0  0  0
  3  2  1  0
  4  2  1  0
  5  3  1  0
  6  2  1  0
  3  7  1  0
  8  6  1  0
  5  9  1  0
  6 10  1  0
 11  9  1  0
 12  4  2  0
 13 10  2  0
 14 11  2  0
 15 11  1  0
 16 10  1  0
 17  8  1  0
 18  8  1  0
 19 15  1  0
 20 19  2  0
 21 19  1  0
 22 20  1  0
 23 21  2  0
 24 23  1  0
  7  8  1  0
  4  5  1  0
 24 22  2  0
 26 32  1  0
 27 30  1  0
 28 29  1  0
 29 25  1  0
 30 26  1  0
 31 25  1  0
 32 31  1  0
 33 27  2  0
 34 27  1  0
 35 28  2  0
 36 28  1  0
 37 33  1  0
 38 35  1  0
 39 36  2  0
 40 34  2  0
 41 37  2  0
 42 39  1  0
 42 38  2  0
 40 41  1  0
 44 43  1  0
 45 43  1  0
 46 44  1  0
 47 43  1  0
 44 48  1  0
 49 47  1  0
 46 50  1  0
 47 51  1  0
 52 50  1  0
 53 45  2  0
 54 51  2  0
 55 52  2  0
 56 52  1  0
 57 51  1  0
 58 49  1  0
 59 49  1  0
 60 56  1  0
 61 60  2  0
 62 60  1  0
 63 61  1  0
 64 62  2  0
 65 64  1  0
 48 49  1  0
 45 46  1  0
 65 63  2  0
  1 69  1  0
  1 70  1  0
  3 71  1  1
  5 72  1  1
  6 73  1  1
  9 74  1  0
 15 75  1  0
 15 76  1  0
 16 77  1  0
 17 78  1  0
 17 79  1  0
 17 80  1  0
 18 81  1  0
 18 82  1  0
 18 83  1  0
 20 84  1  0
 21 85  1  0
 22 86  1  0
 23 87  1  0
 24 88  1  0
 25 89  1  0
 26 90  1  0
 29 91  1  0
 29 92  1  0
 30 93  1  0
 30 94  1  0
 31 95  1  0
 31 96  1  0
 32 97  1  0
 32 98  1  0
 33 99  1  0
 34100  1  0
 35101  1  0
 36102  1  0
 37103  1  0
 38104  1  0
 39105  1  0
 40106  1  0
 41107  1  0
 42108  1  0
 44109  1  1
 46110  1  6
 47111  1  6
 50112  1  0
 56113  1  0
 56114  1  0
 57115  1  0
 58116  1  0
 58117  1  0
 58118  1  0
 59119  1  0
 59120  1  0
 59121  1  0
 61122  1  0
 62123  1  0
 63124  1  0
 64125  1  0
 65126  1  0
 66127  1  0
 66128  1  0
 67129  1  0
 67130  1  0
 68131  1  0
 68132  1  0
M  END
$$$$
