
     RDKit          3D

132133  0  0  0  0  0  0  0  0999 V2000
   -0.0000    0.3978    0.0000 O   0  0  0  0  0  0  0  0  0  0  0  0
   -2.3211   -1.4950   -0.0546 N   0  0  0  0  0  0  0  0  0  0  0  0
   -1.0611   -1.2646    0.6794 C   0  0  1  0  0  0  0  0  0  0  0  0
   -1.7172   -2.2320   -1.0377 C   0  0  0  0  0  0  0  0  0  0  0  0
   -0.3905   -2.3034   -0.2504 C   0  0  1  0  0  0  0  0  0  0  0  0
   -3.1179   -0.3272   -0.4359 C   0  0  2  0  0  0  0  0  0  0  0  0
   -0.7157    0.5175    0.3795 S   0  0  0  0  0  0  0  0  0  0  0  0
   -2.5330    0.8980    0.2985 C   0  0  0  0  0  0  0  0  0  0  0  0
    0.8331   -1.8715   -0.9789 N   0  0  0  0  0  0  0  0  0  0  0  0
   -4.6145   -0.5135   -0.1969 C   0  0  0  0  0  0  0  0  0  0  0  0
    2.0629   -1.8982   -0.3570 C   0  0  0  0  0  0  0  0  0  0  0  0
   -2.0949   -2.5386   -2.1449 O   0  0  0  0  0  0  0  0  0  0  0  0
   -5.4795    0.3085   -0.4632 O   0  0  0  0  0  0  0  0  0  0  0  0
    2.2131   -2.3586    0.7728 O   0  0  0  0  0  0  0  0  0  0  0  0
    3.2019   -1.3246   -1.1796 C   0  0  0  0  0  0  0  0  0  0  0  0
   -4.9564   -1.6876    0.3706 O   0  0  0  0  0  0  0  0  0  0  0  0
   -2.7197    2.1904   -0.5007 C   0  0  0  0  0  0  0  0  0  0  0  0
   -3.0461    1.0813    1.7344 C   0  0  0  0  0  0  0  0  0  0  0  0
    3.7234   -0.0266   -0.6180 C   0  0  0  0  0  0  0  0  0  0  0  0
    4.7040   -0.0345    0.3839 C   0  0  0  0  0  0  0  0  0  0  0  0
    3.2173    1.2020   -1.0639 C   0  0  0  0  0  0  0  0  0  0  0  0
    5.1828    1.1635    0.9162 C   0  0  0  0  0  0  0  0  0  0  0  0
    3.6967    2.3992   -0.5290 C   0  0  0  0  0  0  0  0  0  0  0  0
    4.6806    2.3799    0.4578 C   0  0  0  0  0  0  0  0  0  0  0  0
   -1.7645    0.4175    0.0290 N   0  0  0  0  0  0  0  0  0  0  0  0
    1.9814    0.8373    0.4934 N   0  0  0  0  0  0  0  0  0  0  0  0
    4.0741   -0.1578   -0.2915 C   0  0  0  0  0  0  0  0  0  0  0  0
   -4.1195   -0.2517   -0.0772 C   0  0  0  0  0  0  0  0  0  0  0  0
   -2.6877   -0.7173    0.0443 C   0  0  0  0  0  0  0  0  0  0  0  0
    2.6435    0.1878   -0.6355 C   0  0  0  0  0  0  0  0  0  0  0  0
   -0.3819   -0.0223    0.2298 C   0  0  0  0  0  0  0  0  0  0  0  0
    0.5853    1.1806    0.2093 C   0  0  0  0  0  0  0  0  0  0  0  0
    4.4798   -1.4941   -0.1645 C   0  0  0  0  0  0  0  0  0  0  0  0
    5.0197    0.8584   -0.0888 C   0  0  0  0  0  0  0  0  0  0  0  0
   -5.0149   -0.3966    0.9922 C   0  0  0  0  0  0  0  0  0  0  0  0
   -4.5745    0.3393   -1.2655 C   0  0  0  0  0  0  0  0  0  0  0  0
    5.8043   -1.8055    0.1505 C   0  0  0  0  0  0  0  0  0  0  0  0
   -6.3381    0.0322    0.8711 C   0  0  0  0  0  0  0  0  0  0  0  0
   -5.8969    0.7686   -1.3843 C   0  0  0  0  0  0  0  0  0  0  0  0
    6.3426    0.5455    0.2271 C   0  0  0  0  0  0  0  0  0  0  0  0
    6.7348   -0.7862    0.3453 C   0  0  0  0  0  0  0  0  0  0  0  0
   -6.7787    0.6134   -0.3168 C   0  0  0  0  0  0  0  0  0  0  0  0
   -2.3614   -0.9883    1.4865 N   0  0  0  0  0  0  0  0  0  0  0  0
   -1.3259    0.0612    1.5074 C   0  0  1  0  0  0  0  0  0  0  0  0
   -1.5237   -1.9328    0.9685 C   0  0  0  0  0  0  0  0  0  0  0  0
   -0.2793   -1.0590    1.2533 C   0  0  1  0  0  0  0  0  0  0  0  0
   -3.6316   -0.6549    0.8543 C   0  0  2  0  0  0  0  0  0  0  0  0
   -1.7394    1.1685    0.0939 S   0  0  0  0  0  0  0  0  0  0  0  0
   -3.3395    0.3236   -0.3057 C   0  0  0  0  0  0  0  0  0  0  0  0
    0.6668   -0.8833    0.1188 N   0  0  0  0  0  0  0  0  0  0  0  0
   -4.5429   -0.0832    1.9370 C   0  0  0  0  0  0  0  0  0  0  0  0
    1.6707    0.0628    0.1783 C   0  0  0  0  0  0  0  0  0  0  0  0
   -1.7523   -2.9744    0.3988 O   0  0  0  0  0  0  0  0  0  0  0  0
   -4.2127    0.5291    2.9410 O   0  0  0  0  0  0  0  0  0  0  0  0
    1.8442    0.7566    1.1752 O   0  0  0  0  0  0  0  0  0  0  0  0
    2.4780    0.1957   -1.1024 C   0  0  0  0  0  0  0  0  0  0  0  0
   -5.8529   -0.2947    1.6798 O   0  0  0  0  0  0  0  0  0  0  0  0
   -4.4077    1.4032   -0.5224 C   0  0  0  0  0  0  0  0  0  0  0  0
   -3.1388   -0.4331   -1.6295 C   0  0  0  0  0  0  0  0  0  0  0  0
    3.9631    0.3133   -0.8712 C   0  0  0  0  0  0  0  0  0  0  0  0
    4.5520    1.5682   -0.6620 C   0  0  0  0  0  0  0  0  0  0  0  0
    4.7746   -0.8300   -0.8440 C   0  0  0  0  0  0  0  0  0  0  0  0
    5.9273    1.6804   -0.4545 C   0  0  0  0  0  0  0  0  0  0  0  0
    6.1504   -0.7154   -0.6359 C   0  0  0  0  0  0  0  0  0  0  0  0
    6.7274    0.5395   -0.4443 C   0  0  0  0  0  0  0  0  0  0  0  0
    0.0015    0.3975    0.0000 O   0  0  0  0  0  0  0  0  0  0  0  0
   -0.0005    0.3980    0.0000 O   0  0  0  0  0  0  0  0  0  0  0  0
    0.0009    0.3976    0.0000 O   0  0  0  0  0  0  0  0  0  0  0  0
   -0.7635   -0.1990    0.0000 H   0  0  0  0  0  0  0  0  0  0  0  0
    0.7635   -0.1988    0.0000 H   0  0  0  0  0  0  0  0  0  0  0  0
   -1.1278   -1.5518    1.7330 H   0  0  0  0  0  0  0  0  0  0  0  0
   -0.2521   -3.2917    0.2073 H   0  0  0  0  0  0  0  0  0  0  0  0
   -3.0121   -0.1987   -1.5236 H   0  0  0  0  0  0  0  0  0  0  0  0
    0.7378   -1.3690   -1.8548 H   0  0  0  0  0  0  0  0  0  0  0  0
    2.8890   -1.1793   -2.2211 H   0  0  0  0  0  0  0  0  0  0  0  0
    4.0030   -2.0744   -1.2153 H   0  0  0  0  0  0  0  0  0  0  0  0
   -5.9349   -1.6649    0.4201 H   0  0  0  0  0  0  0  0  0  0  0  0
   -3.7807    2.4473   -0.5849 H   0  0  0  0  0  0  0  0  0  0  0  0
   -2.2192    3.0392   -0.0188 H   0  0  0  0  0  0  0  0  0  0  0  0
   -2.3234    2.1000   -1.5195 H   0  0  0  0  0  0  0  0  0  0  0  0
   -2.5021    1.8794    2.2545 H   0  0  0  0  0  0  0  0  0  0  0  0
   -2.9524    0.1654    2.3295 H   0  0  0  0  0  0  0  0  0  0  0  0
   -4.1043    1.3660    1.7408 H   0  0  0  0  0  0  0  0  0  0  0  0
    5.0944   -0.9774    0.7627 H   0  0  0  0  0  0  0  0  0  0  0  0
    2.4446    1.2390   -1.8271 H   0  0  0  0  0  0  0  0  0  0  0  0
    5.9424    1.1459    1.6937 H   0  0  0  0  0  0  0  0  0  0  0  0
    3.2988    3.3484   -0.8788 H   0  0  0  0  0  0  0  0  0  0  0  0
    5.0507    3.3122    0.8766 H   0  0  0  0  0  0  0  0  0  0  0  0
   -2.0340    1.0667    0.7685 H   0  0  0  0  0  0  0  0  0  0  0  0
    2.0400    0.2320    1.3100 H   0  0  0  0  0  0  0  0  0  0  0  0
   -2.4733   -1.3974   -0.7896 H   0  0  0  0  0  0  0  0  0  0  0  0
   -2.5669   -1.2945    0.9696 H   0  0  0  0  0  0  0  0  0  0  0  0
    2.1138   -0.7264   -0.9270 H   0  0  0  0  0  0  0  0  0  0  0  0
    2.6507    0.8486   -1.5106 H   0  0  0  0  0  0  0  0  0  0  0  0
   -0.2903   -0.5406    1.1923 H   0  0  0  0  0  0  0  0  0  0  0  0
   -0.1094   -0.7285   -0.5624 H   0  0  0  0  0  0  0  0  0  0  0  0
    0.2692    1.8948    0.9803 H   0  0  0  0  0  0  0  0  0  0  0  0
    0.5127    1.7152   -0.7465 H   0  0  0  0  0  0  0  0  0  0  0  0
    3.7677   -2.3030   -0.3122 H   0  0  0  0  0  0  0  0  0  0  0  0
    4.7192    1.9009   -0.1702 H   0  0  0  0  0  0  0  0  0  0  0  0
   -4.6886   -0.8463    1.9268 H   0  0  0  0  0  0  0  0  0  0  0  0
   -3.8896    0.4722   -2.1010 H   0  0  0  0  0  0  0  0  0  0  0  0
    6.1103   -2.8442    0.2452 H   0  0  0  0  0  0  0  0  0  0  0  0
   -7.0256   -0.0860    1.7042 H   0  0  0  0  0  0  0  0  0  0  0  0
   -6.2368    1.2263   -2.3092 H   0  0  0  0  0  0  0  0  0  0  0  0
    7.0653    1.3421    0.3830 H   0  0  0  0  0  0  0  0  0  0  0  0
    7.7650   -1.0295    0.5915 H   0  0  0  0  0  0  0  0  0  0  0  0
   -7.8084    0.9486   -0.4095 H   0  0  0  0  0  0  0  0  0  0  0  0
   -1.2474    0.5633    2.4762 H   0  0  0  0  0  0  0  0  0  0  0  0
    0.2513   -1.3927    2.1541 H   0  0  0  0  0  0  0  0  0  0  0  0
   -4.0865   -1.5857    0.4934 H   0  0  0  0  0  0  0  0  0  0  0  0
    0.4861   -1.3611   -0.7583 H   0  0  0  0  0  0  0  0  0  0  0  0
    2.1090    1.0818   -1.6354 H   0  0  0  0  0  0  0  0  0  0  0  0
    2.2868   -0.6578   -1.7641 H   0  0  0  0  0  0  0  0  0  0  0  0
   -6.3134    0.1110    2.4455 H   0  0  0  0  0  0  0  0  0  0  0  0
   -5.3781    0.9491   -0.7505 H   0  0  0  0  0  0  0  0  0  0  0  0
   -4.5365    2.0469    0.3552 H   0  0  0  0  0  0  0  0  0  0  0  0
   -4.1547    2.0555   -1.3675 H   0  0  0  0  0  0  0  0  0  0  0  0
   -2.9090    0.2512   -2.4556 H   0  0  0  0  0  0  0  0  0  0  0  0
   -4.0522   -0.9737   -1.9036 H   0  0  0  0  0  0  0  0  0  0  0  0
   -2.3294   -1.1688   -1.5779 H   0  0  0  0  0  0  0  0  0  0  0  0
    3.9391    2.4672   -0.6528 H   0  0  0  0  0  0  0  0  0  0  0  0
    4.3434   -1.8186   -0.9879 H   0  0  0  0  0  0  0  0  0  0  0  0
    6.3732    2.6579   -0.2933 H   0  0  0  0  0  0  0  0  0  0  0  0
    6.7738   -1.6057   -0.6190 H   0  0  0  0  0  0  0  0  0  0  0  0
    7.7980    0.6271   -0.2794 H   0  0  0  0  0  0  0  0  0  0  0  0
    0.7627   -0.2016    0.0000 H   0  0  0  0  0  0  0  0  0  0  0  0
   -0.7642   -0.1959    0.0000 H   0  0  0  0  0  0  0  0  0  0  0  0
    0.7638   -0.1982    0.0000 H   0  0  0  0  0  0  0  0  0  0  0  0
   -0.7634   -0.1998    0.0000 H   0  0  0  0  0  0  0  0  0  0  0  0
   -0.7638   -0.1971    0.0000 H   0  0  0  0  0  0  0  0  0  0  0  0
    0.7629   -0.2006    0.0000 H   0  0  0  0  0  0  0  0  0  0  0  0
  3  2  1  0
  4  2  1  0
  5  3  1  0
  6  2  1  0
  3  7  1  0
  8  6  1  0
  5  9  1  0
  6 10  1  0
 11  9  1  0
 12  4  2  0
 13 10  2  0
 14 11  2  0
 15 11  1  0
 16 10  1  0
 17  8  1  0
 18  8  1  0
 19 15  1  0
 20 19  2  0
 21 19  1  0
 22 20  1  0
 23 21  2  0
 24 23  1  0
  7  8  1  0
  4  5  1  0
 24 22  2  0
 26 32  1  0
 27 30  1  0
 28 29  1  0
 29 25  1  0
 30 26  1  0
 31 25  1  0
 32 31  1  0
 33 27  2  0
 34 27  1  0
 35 28  2  0
 36 28  1  0
 37 33  1  0
 38 35  1  0
 39 36  2  0
 40 34  2  0
 41 37  2  0
 42 39  1  0
 42 38  2  0
 40 41  1  0
 44 43  1  0
 45 43  1  0
 46 44  1  0
 47 43  1  0
 44 48  1  0
 49 47  1  0
 46 50  1  0
 47 51  1  0
 52 50  1  0
 53 45  2  0
 54 51  2  0
 55 52  2  0
 56 52  1  0
 57 51  1  0
 58 49  1  0
 59 49  1  0
 60 56  1  0
 61 60  2  0
 62 60  1  0
 63 61  1  0
 64 62  2  0
 65 64  1  0
 48 49  1  0
 45 46  1  0
 65 63  2  0
  1 69  1  0
  1 70  1  0
  3 71  1  1
  5 72  1  1
  6 73  1  6
  9 74  1  0
 15 75  1  0
 15 76  1  0
 16 77  1  0
 17 78  1  0
 17 79  1  0
 17 80  1  0
 18 81  1  0
 18 82  1  0
 18 83  1  0
 20 84  1  0
 21 85  1  0
 22 86  1  0
 23 87  1  0
 24 88  1  0
 25 89  1  0
 26 90  1  0
 29 91  1  0
 29 92  1  0
 30 93  1  0
 30 94  1  0
 31 95  1  0
 31 96  1  0
 32 97  1  0
 32 98  1  0
 33 99  1  0
 34100  1  0
 35101  1  0
 36102  1  0
 37103  1  0
 38104  1  0
 39105  1  0
 40106  1  0
 41107  1  0
 42108  1  0
 44109  1  1
 46110  1  1
 47111  1  6
 50112  1  0
 56113  1  0
 56114  1  0
 57115  1  0
 58116  1  0
 58117  1  0
 58118  1  0
 59119  1  0
 59120  1  0
 59121  1  0
 61122  1  0
 62123  1  0
 63124  1  0
 64125  1  0
 65126  1  0
 66127  1  0
 66128  1  0
 67129  1  0
 67130  1  0
 68131  1  0
 68132  1  0
M  END
$$$$
