
     RDKit          3D

132133  0  0  0  0  0  0  0  0999 V2000
   -0.0236    0.3970    0.0000 O   0  0  0  0  0  0  0  0  0  0  0  0
   -2.4625    1.4480   -0.6360 N   0  0  0  0  0  0  0  0  0  0  0  0
   -1.4160    0.6541   -1.3065 C   0  0  1  0  0  0  0  0  0  0  0  0
   -1.6138    1.9305    0.3184 C   0  0  0  0  0  0  0  0  0  0  0  0
   -0.3729    1.4523   -0.4744 C   0  0  1  0  0  0  0  0  0  0  0  0
   -3.6925    0.7514   -0.2792 C   0  0  2  0  0  0  0  0  0  0  0  0
   -1.7432   -1.0910   -0.8033 S   0  0  0  0  0  0  0  0  0  0  0  0
   -3.3227   -0.7037    0.0864 C   0  0  0  0  0  0  0  0  0  0  0  0
    0.6345    0.6782    0.2992 N   0  0  0  0  0  0  0  0  0  0  0  0
   -4.6419    0.8674   -1.4685 C   0  0  0  0  0  0  0  0  0  0  0  0
    1.6587    0.0177   -0.3466 C   0  0  0  0  0  0  0  0  0  0  0  0
   -1.8315    2.3933    1.4122 O   0  0  0  0  0  0  0  0  0  0  0  0
   -4.3479    0.9405   -2.6516 O   0  0  0  0  0  0  0  0  0  0  0  0
    1.7958    0.0728   -1.5663 O   0  0  0  0  0  0  0  0  0  0  0  0
    2.5661   -0.7882    0.5669 C   0  0  0  0  0  0  0  0  0  0  0  0
   -5.9410    0.8561   -1.0980 O   0  0  0  0  0  0  0  0  0  0  0  0
   -3.0470   -0.8454    1.5930 C   0  0  0  0  0  0  0  0  0  0  0  0
   -4.3684   -1.7524   -0.3115 C   0  0  0  0  0  0  0  0  0  0  0  0
    4.0290   -0.4861    0.3604 C   0  0  0  0  0  0  0  0  0  0  0  0
    4.7854   -1.2333   -0.5530 C   0  0  0  0  0  0  0  0  0  0  0  0
    4.6443    0.5651    1.0547 C   0  0  0  0  0  0  0  0  0  0  0  0
    6.1356   -0.9453   -0.7550 C   0  0  0  0  0  0  0  0  0  0  0  0
    5.9952    0.8516    0.8501 C   0  0  0  0  0  0  0  0  0  0  0  0
    6.7407    0.0959   -0.0530 C   0  0  0  0  0  0  0  0  0  0  0  0
    1.0478   -0.5477    0.6412 N   0  0  0  0  0  0  0  0  0  0  0  0
   -1.2636    0.2182   -0.9209 N   0  0  0  0  0  0  0  0  0  0  0  0
   -3.4737   -0.6221   -0.3123 C   0  0  0  0  0  0  0  0  0  0  0  0
    3.2486    0.6385    0.5868 C   0  0  0  0  0  0  0  0  0  0  0  0
    1.7686    0.7088    0.8831 C   0  0  0  0  0  0  0  0  0  0  0  0
   -2.1269   -0.9649   -0.9032 C   0  0  0  0  0  0  0  0  0  0  0  0
    0.9909   -0.9129   -0.7851 C   0  0  0  0  0  0  0  0  0  0  0  0
    0.0133   -0.0413   -1.6058 C   0  0  0  0  0  0  0  0  0  0  0  0
   -3.6483   -0.5791    1.0788 C   0  0  0  0  0  0  0  0  0  0  0  0
   -4.5589   -0.3027   -1.1418 C   0  0  0  0  0  0  0  0  0  0  0  0
    4.0593   -0.3203    1.2121 C   0  0  0  0  0  0  0  0  0  0  0  0
    3.8405    1.5489   -0.3013 C   0  0  0  0  0  0  0  0  0  0  0  0
   -4.8859   -0.2404    1.6278 C   0  0  0  0  0  0  0  0  0  0  0  0
    5.4290   -0.3730    0.9501 C   0  0  0  0  0  0  0  0  0  0  0  0
    5.2104    1.4943   -0.5641 C   0  0  0  0  0  0  0  0  0  0  0  0
   -5.7952    0.0379   -0.5905 C   0  0  0  0  0  0  0  0  0  0  0  0
   -5.9589    0.0676    0.7933 C   0  0  0  0  0  0  0  0  0  0  0  0
    6.0038    0.5340    0.0614 C   0  0  0  0  0  0  0  0  0  0  0  0
   -2.4549   -0.7256   -1.2554 N   0  0  0  0  0  0  0  0  0  0  0  0
   -1.4170   -1.0698   -0.2619 C   0  0  1  0  0  0  0  0  0  0  0  0
   -1.5466   -0.3012   -2.1867 C   0  0  0  0  0  0  0  0  0  0  0  0
   -0.3591   -0.8669   -1.3748 C   0  0  1  0  0  0  0  0  0  0  0  0
   -3.5263    0.1787   -0.8372 C   0  0  2  0  0  0  0  0  0  0  0  0
   -1.6017    0.2444    1.0148 S   0  0  0  0  0  0  0  0  0  0  0  0
   -3.4279    0.3561    0.6916 C   0  0  0  0  0  0  0  0  0  0  0  0
    0.7576    0.0757   -1.0941 N   0  0  0  0  0  0  0  0  0  0  0  0
   -4.8751   -0.3518   -1.3049 C   0  0  0  0  0  0  0  0  0  0  0  0
    1.7798   -0.2862   -0.2400 C   0  0  0  0  0  0  0  0  0  0  0  0
   -1.6833    0.3867   -3.1722 O   0  0  0  0  0  0  0  0  0  0  0  0
   -5.1693   -1.5101   -1.5560 O   0  0  0  0  0  0  0  0  0  0  0  0
    1.8317   -1.4073    0.2609 O   0  0  0  0  0  0  0  0  0  0  0  0
    2.7799    0.8219    0.0474 C   0  0  0  0  0  0  0  0  0  0  0  0
   -5.8140    0.6150   -1.3888 O   0  0  0  0  0  0  0  0  0  0  0  0
   -4.1252   -0.7417    1.5076 C   0  0  0  0  0  0  0  0  0  0  0  0
   -3.9192    1.7343    1.1414 C   0  0  0  0  0  0  0  0  0  0  0  0
    4.2158    0.3584    0.0541 C   0  0  0  0  0  0  0  0  0  0  0  0
    4.7572   -0.2571    1.1918 C   0  0  0  0  0  0  0  0  0  0  0  0
    5.0256    0.5219   -1.0785 C   0  0  0  0  0  0  0  0  0  0  0  0
    6.0857   -0.6846    1.2021 C   0  0  0  0  0  0  0  0  0  0  0  0
    6.3553    0.0944   -1.0651 C   0  0  0  0  0  0  0  0  0  0  0  0
    6.8853   -0.5056    0.0756 C   0  0  0  0  0  0  0  0  0  0  0  0
   -0.0083    0.3977    0.0000 O   0  0  0  0  0  0  0  0  0  0  0  0
   -0.0068    0.3980    0.0000 O   0  0  0  0  0  0  0  0  0  0  0  0
   -0.0100    0.3975    0.0000 O   0  0  0  0  0  0  0  0  0  0  0  0
   -0.7506   -0.2438    0.0000 H   0  0  0  0  0  0  0  0  0  0  0  0
    0.7742   -0.1532    0.0000 H   0  0  0  0  0  0  0  0  0  0  0  0
   -1.3760    0.8209   -2.3872 H   0  0  0  0  0  0  0  0  0  0  0  0
    0.1018    2.2777   -1.0200 H   0  0  0  0  0  0  0  0  0  0  0  0
   -4.1498    1.2789    0.5664 H   0  0  0  0  0  0  0  0  0  0  0  0
    0.5174    0.5655    1.2998 H   0  0  0  0  0  0  0  0  0  0  0  0
    2.3648   -1.8511    0.3852 H   0  0  0  0  0  0  0  0  0  0  0  0
    2.3085   -0.6106    1.6192 H   0  0  0  0  0  0  0  0  0  0  0  0
   -6.4299    0.9430   -1.9441 H   0  0  0  0  0  0  0  0  0  0  0  0
   -3.9440   -0.5946    2.1721 H   0  0  0  0  0  0  0  0  0  0  0  0
   -2.2424   -0.1924    1.9434 H   0  0  0  0  0  0  0  0  0  0  0  0
   -2.7702   -1.8729    1.8584 H   0  0  0  0  0  0  0  0  0  0  0  0
   -4.5401   -1.7831   -1.3935 H   0  0  0  0  0  0  0  0  0  0  0  0
   -4.0657   -2.7604   -0.0032 H   0  0  0  0  0  0  0  0  0  0  0  0
   -5.3291   -1.5445    0.1745 H   0  0  0  0  0  0  0  0  0  0  0  0
    4.3229   -2.0379   -1.1213 H   0  0  0  0  0  0  0  0  0  0  0  0
    4.0774    1.1705    1.7575 H   0  0  0  0  0  0  0  0  0  0  0  0
    6.7131   -1.5292   -1.4674 H   0  0  0  0  0  0  0  0  0  0  0  0
    6.4660    1.6689    1.3909 H   0  0  0  0  0  0  0  0  0  0  0  0
    7.7912    0.3217   -0.2154 H   0  0  0  0  0  0  0  0  0  0  0  0
    0.0748   -0.3802    0.9180 H   0  0  0  0  0  0  0  0  0  0  0  0
   -1.7584    0.9589   -1.4184 H   0  0  0  0  0  0  0  0  0  0  0  0
    1.6602    0.9633    1.9448 H   0  0  0  0  0  0  0  0  0  0  0  0
    1.2995    1.5344    0.3346 H   0  0  0  0  0  0  0  0  0  0  0  0
   -2.2685   -1.3571   -1.9184 H   0  0  0  0  0  0  0  0  0  0  0  0
   -1.6809   -1.7723   -0.3106 H   0  0  0  0  0  0  0  0  0  0  0  0
    0.6480   -1.9536   -0.8322 H   0  0  0  0  0  0  0  0  0  0  0  0
    1.9832   -0.9079   -1.2496 H   0  0  0  0  0  0  0  0  0  0  0  0
   -0.1547   -0.4904   -2.5919 H   0  0  0  0  0  0  0  0  0  0  0  0
    0.4893    0.9295   -1.7891 H   0  0  0  0  0  0  0  0  0  0  0  0
   -2.8135   -0.8044    1.7394 H   0  0  0  0  0  0  0  0  0  0  0  0
   -4.4453   -0.3145   -2.2235 H   0  0  0  0  0  0  0  0  0  0  0  0
    3.6151   -1.0357    1.9014 H   0  0  0  0  0  0  0  0  0  0  0  0
    3.2362    2.3058   -0.7955 H   0  0  0  0  0  0  0  0  0  0  0  0
   -5.0105   -0.2121    2.7071 H   0  0  0  0  0  0  0  0  0  0  0  0
    6.0460   -1.1226    1.4391 H   0  0  0  0  0  0  0  0  0  0  0  0
    5.6594    2.2026   -1.2556 H   0  0  0  0  0  0  0  0  0  0  0  0
   -6.6307    0.2847   -1.2411 H   0  0  0  0  0  0  0  0  0  0  0  0
   -6.9207    0.3351    1.2221 H   0  0  0  0  0  0  0  0  0  0  0  0
    7.0708    0.4928   -0.1428 H   0  0  0  0  0  0  0  0  0  0  0  0
   -1.5153   -2.0949    0.1104 H   0  0  0  0  0  0  0  0  0  0  0  0
    0.0189   -1.8003   -1.8109 H   0  0  0  0  0  0  0  0  0  0  0  0
   -3.3642    1.1382   -1.3478 H   0  0  0  0  0  0  0  0  0  0  0  0
    0.6771    1.0448   -1.3859 H   0  0  0  0  0  0  0  0  0  0  0  0
    2.5250    1.2578    1.0215 H   0  0  0  0  0  0  0  0  0  0  0  0
    2.6655    1.6296   -0.6855 H   0  0  0  0  0  0  0  0  0  0  0  0
   -6.6096    0.1470   -1.7224 H   0  0  0  0  0  0  0  0  0  0  0  0
   -3.8193   -1.7484    1.2007 H   0  0  0  0  0  0  0  0  0  0  0  0
   -5.2137   -0.6833    1.3939 H   0  0  0  0  0  0  0  0  0  0  0  0
   -3.9136   -0.6395    2.5797 H   0  0  0  0  0  0  0  0  0  0  0  0
   -3.4170    2.5447    0.6014 H   0  0  0  0  0  0  0  0  0  0  0  0
   -3.7539    1.8931    2.2141 H   0  0  0  0  0  0  0  0  0  0  0  0
   -4.9955    1.8425    0.9617 H   0  0  0  0  0  0  0  0  0  0  0  0
    4.1401   -0.4179    2.0735 H   0  0  0  0  0  0  0  0  0  0  0  0
    4.6305    0.9835   -1.9806 H   0  0  0  0  0  0  0  0  0  0  0  0
    6.4931   -1.1631    2.0887 H   0  0  0  0  0  0  0  0  0  0  0  0
    6.9781    0.2264   -1.9466 H   0  0  0  0  0  0  0  0  0  0  0  0
    7.9196   -0.8398    0.0852 H   0  0  0  0  0  0  0  0  0  0  0  0
    0.7675   -0.1829    0.0000 H   0  0  0  0  0  0  0  0  0  0  0  0
   -0.7592   -0.2148    0.0000 H   0  0  0  0  0  0  0  0  0  0  0  0
    0.7671   -0.1858    0.0000 H   0  0  0  0  0  0  0  0  0  0  0  0
   -0.7603   -0.2122    0.0000 H   0  0  0  0  0  0  0  0  0  0  0  0
   -0.7582   -0.2181    0.0000 H   0  0  0  0  0  0  0  0  0  0  0  0
    0.7682   -0.1794    0.0000 H   0  0  0  0  0  0  0  0  0  0  0  0
  3  2  1  0
  4  2  1  0
  5  3  1  0
  6  2  1  0
  3  7  1  0
  8  6  1  0
  5  9  1  0
  6 10  1  0
 11  9  1  0
 12  4  2  0
 13 10  2  0
 14 11  2  0
 15 11  1  0
 16 10  1  0
 17  8  1  0
 18  8  1  0
 19 15  1  0
 20 19  2  0
 21 19  1  0
 22 20  1  0
 23 21  2  0
 24 23  1  0
  7  8  1  0
  4  5  1  0
 24 22  2  0
 26 32  1  0
 27 30  1  0
 28 29  1  0
 29 25  1  0
 30 26  1  0
 31 25  1  0
 32 31  1  0
 33 27  2  0
 34 27  1  0
 35 28  2  0
 36 28  1  0
 37 33  1  0
 38 35  1  0
 39 36  2  0
 40 34  2  0
 41 37  2  0
 42 39  1  0
 42 38  2  0
 40 41  1  0
 44 43  1  0
 45 43  1  0
 46 44  1  0
 47 43  1  0
 44 48  1  0
 49 47  1  0
 46 50  1  0
 47 51  1  0
 52 50  1  0
 53 45  2  0
 54 51  2  0
 55 52  2  0
 56 52  1  0
 57 51  1  0
 58 49  1  0
 59 49  1  0
 60 56  1  0
 61 60  2  0
 62 60  1  0
 63 61  1  0
 64 62  2  0
 65 64  1  0
 48 49  1  0
 45 46  1  0
 65 63  2  0
  1 69  1  0
  1 70  1  0
  3 71  1  6
  5 72  1  6
  6 73  1  1
  9 74  1  0
 15 75  1  0
 15 76  1  0
 16 77  1  0
 17 78  1  0
 17 79  1  0
 17 80  1  0
 18 81  1  0
 18 82  1  0
 18 83  1  0
 20 84  1  0
 21 85  1  0
 22 86  1  0
 23 87  1  0
 24 88  1  0
 25 89  1  0
 26 90  1  0
 29 91  1  0
 29 92  1  0
 30 93  1  0
 30 94  1  0
 31 95  1  0
 31 96  1  0
 32 97  1  0
 32 98  1  0
 33 99  1  0
 34100  1  0
 35101  1  0
 36102  1  0
 37103  1  0
 38104  1  0
 39105  1  0
 40106  1  0
 41107  1  0
 42108  1  0
 44109  1  1
 46110  1  6
 47111  1  6
 50112  1  0
 56113  1  0
 56114  1  0
 57115  1  0
 58116  1  0
 58117  1  0
 58118  1  0
 59119  1  0
 59120  1  0
 59121  1  0
 61122  1  0
 62123  1  0
 63124  1  0
 64125  1  0
 65126  1  0
 66127  1  0
 66128  1  0
 67129  1  0
 67130  1  0
 68131  1  0
 68132  1  0
M  END
$$$$
