
     RDKit          3D

132133  0  0  0  0  0  0  0  0999 V2000
   -0.0053    0.3982    0.0000 O   0  0  0  0  0  0  0  0  0  0  0  0
   -2.5810   -0.8436   -1.1322 N   0  0  0  0  0  0  0  0  0  0  0  0
   -1.5678   -1.2423   -0.1428 C   0  0  1  0  0  0  0  0  0  0  0  0
   -1.6708   -0.2800   -1.9779 C   0  0  0  0  0  0  0  0  0  0  0  0
   -0.4888   -0.9225   -1.2152 C   0  0  1  0  0  0  0  0  0  0  0  0
   -3.7464   -0.1129   -0.6455 C   0  0  2  0  0  0  0  0  0  0  0  0
   -1.7631   -0.0503    1.2455 S   0  0  0  0  0  0  0  0  0  0  0  0
   -3.2740    0.7642    0.5437 C   0  0  0  0  0  0  0  0  0  0  0  0
    0.6177   -0.0057   -0.8281 N   0  0  0  0  0  0  0  0  0  0  0  0
   -4.8834   -1.0803   -0.2983 C   0  0  0  0  0  0  0  0  0  0  0  0
    1.5761   -0.4099    0.0788 C   0  0  0  0  0  0  0  0  0  0  0  0
   -1.8061    0.5157   -2.8783 O   0  0  0  0  0  0  0  0  0  0  0  0
   -6.0262   -0.7579   -0.0044 O   0  0  0  0  0  0  0  0  0  0  0  0
    1.5907   -1.5497    0.5362 O   0  0  0  0  0  0  0  0  0  0  0  0
    2.5533    0.6800    0.4829 C   0  0  0  0  0  0  0  0  0  0  0  0
   -4.5488   -2.3874   -0.3076 O   0  0  0  0  0  0  0  0  0  0  0  0
   -2.8621    2.1664    0.0613 C   0  0  0  0  0  0  0  0  0  0  0  0
   -4.2814    0.9292    1.6895 C   0  0  0  0  0  0  0  0  0  0  0  0
    3.9910    0.2267    0.4891 C   0  0  0  0  0  0  0  0  0  0  0  0
    4.7799    0.3371   -0.6647 C   0  0  0  0  0  0  0  0  0  0  0  0
    4.5532   -0.3317    1.6461 C   0  0  0  0  0  0  0  0  0  0  0  0
    6.1111   -0.0847   -0.6541 C   0  0  0  0  0  0  0  0  0  0  0  0
    5.8840   -0.7528    1.6549 C   0  0  0  0  0  0  0  0  0  0  0  0
    6.6625   -0.6270    0.5058 C   0  0  0  0  0  0  0  0  0  0  0  0
    1.9057   -0.3947   -0.8581 N   0  0  0  0  0  0  0  0  0  0  0  0
   -1.8043   -0.1582   -0.1043 N   0  0  0  0  0  0  0  0  0  0  0  0
   -4.1141    0.4662    0.4053 C   0  0  0  0  0  0  0  0  0  0  0  0
    4.0657   -0.2060    0.2723 C   0  0  0  0  0  0  0  0  0  0  0  0
    2.5911   -0.4886    0.4324 C   0  0  0  0  0  0  0  0  0  0  0  0
   -2.6584    0.8436    0.5337 C   0  0  0  0  0  0  0  0  0  0  0  0
    0.4955   -0.7914   -0.7688 C   0  0  0  0  0  0  0  0  0  0  0  0
   -0.3968    0.2554   -0.0714 C   0  0  0  0  0  0  0  0  0  0  0  0
   -4.6645   -0.5294    1.2261 C   0  0  0  0  0  0  0  0  0  0  0  0
   -4.9329    1.0853   -0.5505 C   0  0  0  0  0  0  0  0  0  0  0  0
    4.5194    1.1106    0.1039 C   0  0  0  0  0  0  0  0  0  0  0  0
    4.9994   -1.2525    0.2599 C   0  0  0  0  0  0  0  0  0  0  0  0
   -6.0087   -0.8861    1.1048 C   0  0  0  0  0  0  0  0  0  0  0  0
    5.8800    1.3772   -0.0548 C   0  0  0  0  0  0  0  0  0  0  0  0
    6.3604   -0.9841    0.1002 C   0  0  0  0  0  0  0  0  0  0  0  0
   -6.2769    0.7264   -0.6714 C   0  0  0  0  0  0  0  0  0  0  0  0
   -6.8150   -0.2565    0.1579 C   0  0  0  0  0  0  0  0  0  0  0  0
    6.7999    0.3301   -0.0559 C   0  0  0  0  0  0  0  0  0  0  0  0
   -2.4849   -0.9982    1.3934 N   0  0  0  0  0  0  0  0  0  0  0  0
   -1.3135   -0.1316    1.6194 C   0  0  1  0  0  0  0  0  0  0  0  0
   -1.7853   -1.9052    0.6504 C   0  0  0  0  0  0  0  0  0  0  0  0
   -0.4317   -1.2994    1.0936 C   0  0  1  0  0  0  0  0  0  0  0  0
   -3.6930   -0.3604    0.8875 C   0  0  2  0  0  0  0  0  0  0  0  0
   -1.5619    1.3108    0.4967 S   0  0  0  0  0  0  0  0  0  0  0  0
   -3.2634    0.8042   -0.0341 C   0  0  0  0  0  0  0  0  0  0  0  0
    0.5364   -0.9981    0.0041 N   0  0  0  0  0  0  0  0  0  0  0  0
   -4.5143    0.0822    2.0955 C   0  0  0  0  0  0  0  0  0  0  0  0
    1.6647   -0.2435    0.2571 C   0  0  0  0  0  0  0  0  0  0  0  0
   -2.1569   -2.7427   -0.1383 O   0  0  0  0  0  0  0  0  0  0  0  0
   -4.0986    0.4539    3.1807 O   0  0  0  0  0  0  0  0  0  0  0  0
    1.9347    0.1510    1.3878 O   0  0  0  0  0  0  0  0  0  0  0  0
    2.4848    0.0848   -0.9797 C   0  0  0  0  0  0  0  0  0  0  0  0
   -5.8446    0.0760    1.8506 O   0  0  0  0  0  0  0  0  0  0  0  0
   -3.1691    0.3432   -1.4985 C   0  0  0  0  0  0  0  0  0  0  0  0
   -4.1702    2.0407    0.0258 C   0  0  0  0  0  0  0  0  0  0  0  0
    3.9749   -0.0105   -0.7646 C   0  0  0  0  0  0  0  0  0  0  0  0
    4.6583   -1.2083   -1.0178 C   0  0  0  0  0  0  0  0  0  0  0  0
    4.6956    1.0954   -0.2922 C   0  0  0  0  0  0  0  0  0  0  0  0
    6.0385   -1.2903   -0.8224 C   0  0  0  0  0  0  0  0  0  0  0  0
    6.0749    1.0117   -0.0973 C   0  0  0  0  0  0  0  0  0  0  0  0
    6.7460   -0.1799   -0.3658 C   0  0  0  0  0  0  0  0  0  0  0  0
   -0.0051    0.3982    0.0000 O   0  0  0  0  0  0  0  0  0  0  0  0
   -0.0002    0.3981    0.0000 O   0  0  0  0  0  0  0  0  0  0  0  0
   -0.0001    0.3979    0.0000 O   0  0  0  0  0  0  0  0  0  0  0  0
   -0.7604   -0.2092    0.0000 H   0  0  0  0  0  0  0  0  0  0  0  0
    0.7658   -0.1890    0.0000 H   0  0  0  0  0  0  0  0  0  0  0  0
   -1.6401   -2.2948    0.1449 H   0  0  0  0  0  0  0  0  0  0  0  0
   -0.1000   -1.8057   -1.7374 H   0  0  0  0  0  0  0  0  0  0  0  0
   -4.1227    0.5074   -1.4690 H   0  0  0  0  0  0  0  0  0  0  0  0
    0.5889    0.9641   -1.1253 H   0  0  0  0  0  0  0  0  0  0  0  0
    2.2628    1.0300    1.4816 H   0  0  0  0  0  0  0  0  0  0  0  0
    2.4551    1.5481   -0.1802 H   0  0  0  0  0  0  0  0  0  0  0  0
   -5.3759   -2.8536   -0.0684 H   0  0  0  0  0  0  0  0  0  0  0  0
   -3.7254    2.6964   -0.3570 H   0  0  0  0  0  0  0  0  0  0  0  0
   -2.4749    2.7806    0.8820 H   0  0  0  0  0  0  0  0  0  0  0  0
   -2.0927    2.1376   -0.7145 H   0  0  0  0  0  0  0  0  0  0  0  0
   -4.5470   -0.0277    2.1524 H   0  0  0  0  0  0  0  0  0  0  0  0
   -5.2044    1.3988    1.3325 H   0  0  0  0  0  0  0  0  0  0  0  0
   -3.8856    1.5745    2.4842 H   0  0  0  0  0  0  0  0  0  0  0  0
    4.3650    0.7518   -1.5807 H   0  0  0  0  0  0  0  0  0  0  0  0
    3.9527   -0.4509    2.5460 H   0  0  0  0  0  0  0  0  0  0  0  0
    6.7173    0.0050   -1.5521 H   0  0  0  0  0  0  0  0  0  0  0  0
    6.3096   -1.1848    2.5575 H   0  0  0  0  0  0  0  0  0  0  0  0
    7.6976   -0.9574    0.5129 H   0  0  0  0  0  0  0  0  0  0  0  0
    2.3810   -1.0208   -1.5090 H   0  0  0  0  0  0  0  0  0  0  0  0
   -2.1049   -0.2676   -1.0727 H   0  0  0  0  0  0  0  0  0  0  0  0
    2.1807    0.2303    1.1509 H   0  0  0  0  0  0  0  0  0  0  0  0
    2.4583   -1.4876    0.8673 H   0  0  0  0  0  0  0  0  0  0  0  0
   -2.4995    1.8325    0.0845 H   0  0  0  0  0  0  0  0  0  0  0  0
   -2.4106    0.9360    1.5990 H   0  0  0  0  0  0  0  0  0  0  0  0
    0.4003   -1.7693   -0.2792 H   0  0  0  0  0  0  0  0  0  0  0  0
    0.1320   -0.9233   -1.7959 H   0  0  0  0  0  0  0  0  0  0  0  0
   -0.2778    1.2224   -0.5757 H   0  0  0  0  0  0  0  0  0  0  0  0
   -0.0821    0.3759    0.9710 H   0  0  0  0  0  0  0  0  0  0  0  0
   -4.0394   -1.0348    1.9598 H   0  0  0  0  0  0  0  0  0  0  0  0
   -4.5280    1.8512   -1.2082 H   0  0  0  0  0  0  0  0  0  0  0  0
    3.8061    1.9325    0.0889 H   0  0  0  0  0  0  0  0  0  0  0  0
    4.6719   -2.2832    0.3752 H   0  0  0  0  0  0  0  0  0  0  0  0
   -6.4249   -1.6577    1.7469 H   0  0  0  0  0  0  0  0  0  0  0  0
    6.2202    2.4014   -0.1833 H   0  0  0  0  0  0  0  0  0  0  0  0
    7.0777   -1.8007    0.0934 H   0  0  0  0  0  0  0  0  0  0  0  0
   -6.9047    1.2138   -1.4127 H   0  0  0  0  0  0  0  0  0  0  0  0
   -7.8611   -0.5362    0.0627 H   0  0  0  0  0  0  0  0  0  0  0  0
    7.8593    0.5378   -0.1815 H   0  0  0  0  0  0  0  0  0  0  0  0
   -1.1686    0.1257    2.6715 H   0  0  0  0  0  0  0  0  0  0  0  0
    0.0424   -1.8973    1.8828 H   0  0  0  0  0  0  0  0  0  0  0  0
   -4.2756   -1.1139    0.3438 H   0  0  0  0  0  0  0  0  0  0  0  0
    0.2942   -1.2223   -0.9557 H   0  0  0  0  0  0  0  0  0  0  0  0
    2.2148    1.1017   -1.2954 H   0  0  0  0  0  0  0  0  0  0  0  0
    2.2008   -0.5748   -1.8084 H   0  0  0  0  0  0  0  0  0  0  0  0
   -6.2423    0.3750    2.6966 H   0  0  0  0  0  0  0  0  0  0  0  0
   -2.4604   -0.4787   -1.6397 H   0  0  0  0  0  0  0  0  0  0  0  0
   -2.8583    1.1592   -2.1602 H   0  0  0  0  0  0  0  0  0  0  0  0
   -4.1461   -0.0032   -1.8558 H   0  0  0  0  0  0  0  0  0  0  0  0
   -4.2051    2.4858    1.0268 H   0  0  0  0  0  0  0  0  0  0  0  0
   -3.8313    2.8229   -0.6648 H   0  0  0  0  0  0  0  0  0  0  0  0
   -5.1964    1.7836   -0.2631 H   0  0  0  0  0  0  0  0  0  0  0  0
    4.1228   -2.0870   -1.3706 H   0  0  0  0  0  0  0  0  0  0  0  0
    4.1826    2.0273   -0.0644 H   0  0  0  0  0  0  0  0  0  0  0  0
    6.5621   -2.2216   -1.0222 H   0  0  0  0  0  0  0  0  0  0  0  0
    6.6232    1.8756    0.2700 H   0  0  0  0  0  0  0  0  0  0  0  0
    7.8197   -0.2438   -0.2119 H   0  0  0  0  0  0  0  0  0  0  0  0
   -0.7603   -0.2087    0.0000 H   0  0  0  0  0  0  0  0  0  0  0  0
    0.7653   -0.1895    0.0000 H   0  0  0  0  0  0  0  0  0  0  0  0
   -0.7631   -0.1995    0.0000 H   0  0  0  0  0  0  0  0  0  0  0  0
    0.7633   -0.1987    0.0000 H   0  0  0  0  0  0  0  0  0  0  0  0
   -0.7629   -0.1992    0.0000 H   0  0  0  0  0  0  0  0  0  0  0  0
    0.7631   -0.1987    0.0000 H   0  0  0  0  0  0  0  0  0  0  0  0
  3  2  1  0
  4  2  1  0
  5  3  1  0
  6  2  1  0
  3  7  1  0
  8  6  1  0
  5  9  1  0
  6 10  1  0
 11  9  1  0
 12  4  2  0
 13 10  2  0
 14 11  2  0
 15 11  1  0
 16 10  1  0
 17  8  1  0
 18  8  1  0
 19 15  1  0
 20 19  2  0
 21 19  1  0
 22 20  1  0
 23 21  2  0
 24 23  1  0
  7  8  1  0
  4  5  1  0
 24 22  2  0
 26 32  1  0
 27 30  1  0
 28 29  1  0
 29 25  1  0
 30 26  1  0
 31 25  1  0
 32 31  1  0
 33 27  2  0
 34 27  1  0
 35 28  2  0
 36 28  1  0
 37 33  1  0
 38 35  1  0
 39 36  2  0
 40 34  2  0
 41 37  2  0
 42 39  1  0
 42 38  2  0
 40 41  1  0
 44 43  1  0
 45 43  1  0
 46 44  1  0
 47 43  1  0
 44 48  1  0
 49 47  1  0
 46 50  1  0
 47 51  1  0
 52 50  1  0
 53 45  2  0
 54 51  2  0
 55 52  2  0
 56 52  1  0
 57 51  1  0
 58 49  1  0
 59 49  1  0
 60 56  1  0
 61 60  2  0
 62 60  1  0
 63 61  1  0
 64 62  2  0
 65 64  1  0
 48 49  1  0
 45 46  1  0
 65 63  2  0
  1 69  1  0
  1 70  1  0
  3 71  1  1
  5 72  1  6
  6 73  1  6
  9 74  1  0
 15 75  1  0
 15 76  1  0
 16 77  1  0
 17 78  1  0
 17 79  1  0
 17 80  1  0
 18 81  1  0
 18 82  1  0
 18 83  1  0
 20 84  1  0
 21 85  1  0
 22 86  1  0
 23 87  1  0
 24 88  1  0
 25 89  1  0
 26 90  1  0
 29 91  1  0
 29 92  1  0
 30 93  1  0
 30 94  1  0
 31 95  1  0
 31 96  1  0
 32 97  1  0
 32 98  1  0
 33 99  1  0
 34100  1  0
 35101  1  0
 36102  1  0
 37103  1  0
 38104  1  0
 39105  1  0
 40106  1  0
 41107  1  0
 42108  1  0
 44109  1  1
 46110  1  1
 47111  1  6
 50112  1  0
 56113  1  0
 56114  1  0
 57115  1  0
 58116  1  0
 58117  1  0
 58118  1  0
 59119  1  0
 59120  1  0
 59121  1  0
 61122  1  0
 62123  1  0
 63124  1  0
 64125  1  0
 65126  1  0
 66127  1  0
 66128  1  0
 67129  1  0
 67130  1  0
 68131  1  0
 68132  1  0
M  END
$$$$
