
     RDKit          2D

 70 71  0  0  0  0  0  0  0  0999 V2000
   10.6955  -12.6696    0.0000 O   0  0  0  0  0  0  0  0  0  0  0  0
    1.3005   -9.1954    0.0000 N   0  0  0  0  0  0  0  0  0  0  0  0
    1.2956   -8.3705    0.0000 C   0  0  0  0  0  0  0  0  0  0  0  0
    0.4707   -9.2003    0.0000 C   0  0  0  0  0  0  0  0  0  0  0  0
    0.4707   -8.3705    0.0000 C   0  0  0  0  0  0  0  0  0  0  0  0
    2.0866   -9.4478    0.0000 C   0  0  0  0  0  0  0  0  0  0  0  0
    2.0817   -8.1134    0.0000 S   0  0  0  0  0  0  0  0  0  0  0  0
    2.5718   -8.7781    0.0000 C   0  0  0  0  0  0  0  0  0  0  0  0
   -0.2475   -7.9533    0.0000 N   0  0  0  0  0  0  0  0  0  0  0  0
    2.0817  -10.2679    0.0000 C   0  0  0  0  0  0  0  0  0  0  0  0
   -0.9657   -8.3705    0.0000 C   0  0  0  0  0  0  0  0  0  0  0  0
   -0.1116   -9.7826    0.0000 O   0  0  0  0  0  0  0  0  0  0  0  0
    1.3587  -10.6755    0.0000 O   0  0  0  0  0  0  0  0  0  0  0  0
   -0.9657   -9.1954    0.0000 O   0  0  0  0  0  0  0  0  0  0  0  0
   -1.6790   -7.9580    0.0000 C   0  0  0  0  0  0  0  0  0  0  0  0
    2.7901  -10.6901    0.0000 O   0  0  0  0  0  0  0  0  0  0  0  0
    3.2803   -9.1906    0.0000 C   0  0  0  0  0  0  0  0  0  0  0  0
    3.2803   -8.3609    0.0000 C   0  0  0  0  0  0  0  0  0  0  0  0
   -2.3923   -8.3705    0.0000 C   0  0  0  0  0  0  0  0  0  0  0  0
   -3.1056   -7.9533    0.0000 C   0  0  0  0  0  0  0  0  0  0  0  0
   -2.3923   -9.1858    0.0000 C   0  0  0  0  0  0  0  0  0  0  0  0
   -3.8189   -8.3656    0.0000 C   0  0  0  0  0  0  0  0  0  0  0  0
   -3.1007   -9.6030    0.0000 C   0  0  0  0  0  0  0  0  0  0  0  0
   -3.8189   -9.1906    0.0000 C   0  0  0  0  0  0  0  0  0  0  0  0
    1.2859   -7.5457    0.0000 H   0  0  0  0  0  0  0  0  0  0  0  0
    9.5739   -8.6422    0.0000 N   0  0  0  0  0  0  0  0  0  0  0  0
    7.4292   -9.0596    0.0000 N   0  0  0  0  0  0  0  0  0  0  0  0
    6.0026   -9.0644    0.0000 C   0  0  0  0  0  0  0  0  0  0  0  0
   11.0054   -8.6375    0.0000 C   0  0  0  0  0  0  0  0  0  0  0  0
   10.2872   -9.0547    0.0000 C   0  0  0  0  0  0  0  0  0  0  0  0
    6.7159   -8.6520    0.0000 C   0  0  0  0  0  0  0  0  0  0  0  0
    8.8606   -9.0596    0.0000 C   0  0  0  0  0  0  0  0  0  0  0  0
    8.1473   -8.6471    0.0000 C   0  0  0  0  0  0  0  0  0  0  0  0
    5.2844   -8.6520    0.0000 C   0  0  0  0  0  0  0  0  0  0  0  0
    6.0026   -9.8991    0.0000 C   0  0  0  0  0  0  0  0  0  0  0  0
   11.7236   -9.0547    0.0000 C   0  0  0  0  0  0  0  0  0  0  0  0
   11.0054   -7.8174    0.0000 C   0  0  0  0  0  0  0  0  0  0  0  0
    4.5710   -9.0693    0.0000 C   0  0  0  0  0  0  0  0  0  0  0  0
   12.4370   -8.6375    0.0000 C   0  0  0  0  0  0  0  0  0  0  0  0
   11.7139   -7.4001    0.0000 C   0  0  0  0  0  0  0  0  0  0  0  0
    5.2844  -10.3116    0.0000 C   0  0  0  0  0  0  0  0  0  0  0  0
    4.5661   -9.8991    0.0000 C   0  0  0  0  0  0  0  0  0  0  0  0
   12.4370   -7.8125    0.0000 C   0  0  0  0  0  0  0  0  0  0  0  0
    1.3157  -13.3553    0.0000 N   0  0  0  0  0  0  0  0  0  0  0  0
    1.3108  -12.5304    0.0000 C   0  0  0  0  0  0  0  0  0  0  0  0
    0.4859  -13.3601    0.0000 C   0  0  0  0  0  0  0  0  0  0  0  0
    0.4859  -12.5304    0.0000 C   0  0  0  0  0  0  0  0  0  0  0  0
    2.1018  -13.6076    0.0000 C   0  0  0  0  0  0  0  0  0  0  0  0
    2.0969  -12.2732    0.0000 S   0  0  0  0  0  0  0  0  0  0  0  0
    2.5870  -12.9380    0.0000 C   0  0  0  0  0  0  0  0  0  0  0  0
   -0.2323  -12.1131    0.0000 N   0  0  0  0  0  0  0  0  0  0  0  0
    2.0969  -14.4277    0.0000 C   0  0  0  0  0  0  0  0  0  0  0  0
   -0.9505  -12.5304    0.0000 C   0  0  0  0  0  0  0  0  0  0  0  0
   -0.0964  -13.9424    0.0000 O   0  0  0  0  0  0  0  0  0  0  0  0
    1.3739  -14.8353    0.0000 O   0  0  0  0  0  0  0  0  0  0  0  0
   -0.9505  -13.3553    0.0000 O   0  0  0  0  0  0  0  0  0  0  0  0
   -1.6638  -12.1179    0.0000 C   0  0  0  0  0  0  0  0  0  0  0  0
    2.8053  -14.8499    0.0000 O   0  0  0  0  0  0  0  0  0  0  0  0
    3.2955  -13.3505    0.0000 C   0  0  0  0  0  0  0  0  0  0  0  0
    3.2955  -12.5207    0.0000 C   0  0  0  0  0  0  0  0  0  0  0  0
   -2.3771  -12.5304    0.0000 C   0  0  0  0  0  0  0  0  0  0  0  0
   -3.0904  -12.1131    0.0000 C   0  0  0  0  0  0  0  0  0  0  0  0
   -2.3771  -13.3456    0.0000 C   0  0  0  0  0  0  0  0  0  0  0  0
   -3.8037  -12.5255    0.0000 C   0  0  0  0  0  0  0  0  0  0  0  0
   -3.0855  -13.7629    0.0000 C   0  0  0  0  0  0  0  0  0  0  0  0
   -3.8037  -13.3505    0.0000 C   0  0  0  0  0  0  0  0  0  0  0  0
    1.3012  -11.7055    0.0000 H   0  0  0  0  0  0  0  0  0  0  0  0
    8.9571  -11.1670    0.0000 O   0  0  0  0  0  0  0  0  0  0  0  0
   10.6366  -11.1670    0.0000 O   0  0  0  0  0  0  0  0  0  0  0  0
    8.6920  -12.8170    0.0000 O   0  0  0  0  0  0  0  0  0  0  0  0
  3  2  1  0
  4  2  1  0
  5  3  1  0
  6  2  1  0
  7  3  1  0
  8  6  1  0
  5  9  1  1
  6 10  1  6
 11  9  1  0
 12  4  2  0
 13 10  2  0
 14 11  2  0
 15 11  1  0
 16 10  1  0
 17  8  1  0
 18  8  1  0
 19 15  1  0
 20 19  2  0
 21 19  1  0
 22 20  1  0
 23 21  2  0
 24 23  1  0
  3 25  1  6
  7  8  1  0
  4  5  1  0
 24 22  2  0
 27 33  1  0
 28 31  1  0
 29 30  1  0
 30 26  1  0
 31 27  1  0
 32 26  1  0
 33 32  1  0
 34 28  2  0
 35 28  1  0
 36 29  2  0
 37 29  1  0
 38 34  1  0
 39 36  1  0
 40 37  2  0
 41 35  2  0
 42 38  2  0
 43 40  1  0
 43 39  2  0
 41 42  1  0
 45 44  1  0
 46 44  1  0
 47 45  1  0
 48 44  1  0
 49 45  1  0
 50 48  1  0
 47 51  1  1
 48 52  1  6
 53 51  1  0
 54 46  2  0
 55 52  2  0
 56 53  2  0
 57 53  1  0
 58 52  1  0
 59 50  1  0
 60 50  1  0
 61 57  1  0
 62 61  2  0
 63 61  1  0
 64 62  1  0
 65 63  2  0
 66 65  1  0
 45 67  1  6
 49 50  1  0
 46 47  1  0
 66 64  2  0
M  END
> <chembl_id>
CHEMBL3989515

> <chembl_pref_name>
PENICILLIN G BENZATHINE
