
     RDKit          3D

132133  0  0  0  0  0  0  0  0999 V2000
    0.0082    0.3982    0.0000 O   0  0  0  0  0  0  0  0  0  0  0  0
    2.4564   -0.1809   -1.6533 N   0  0  0  0  0  0  0  0  0  0  0  0
    1.3093    0.6908   -1.3443 C   0  0  1  0  0  0  0  0  0  0  0  0
    1.7321   -1.3316   -1.5290 C   0  0  0  0  0  0  0  0  0  0  0  0
    0.3966   -0.5513   -1.5481 C   0  0  1  0  0  0  0  0  0  0  0  0
    3.6834    0.0434   -0.9013 C   0  0  2  0  0  0  0  0  0  0  0  0
    1.5897    1.2492    0.3898 S   0  0  0  0  0  0  0  0  0  0  0  0
    3.2931    0.5272    0.5143 C   0  0  0  0  0  0  0  0  0  0  0  0
   -0.5732   -0.8776   -0.4685 N   0  0  0  0  0  0  0  0  0  0  0  0
    4.5226    1.0483   -1.6862 C   0  0  0  0  0  0  0  0  0  0  0  0
   -1.6798   -0.0782   -0.2592 C   0  0  0  0  0  0  0  0  0  0  0  0
    2.0799   -2.4763   -1.3519 O   0  0  0  0  0  0  0  0  0  0  0  0
    4.1237    1.9764   -2.3702 O   0  0  0  0  0  0  0  0  0  0  0  0
   -1.9346    0.8721   -0.9940 O   0  0  0  0  0  0  0  0  0  0  0  0
   -2.4975   -0.4525    0.9651 C   0  0  0  0  0  0  0  0  0  0  0  0
    5.8505    0.8523   -1.5231 O   0  0  0  0  0  0  0  0  0  0  0  0
    4.2170    1.5974    1.1100 C   0  0  0  0  0  0  0  0  0  0  0  0
    3.2179   -0.6535    1.4968 C   0  0  0  0  0  0  0  0  0  0  0  0
   -3.9874   -0.4013    0.7364 C   0  0  0  0  0  0  0  0  0  0  0  0
   -4.6761   -1.5279    0.2647 C   0  0  0  0  0  0  0  0  0  0  0  0
   -4.7011    0.7813    0.9748 C   0  0  0  0  0  0  0  0  0  0  0  0
   -6.0552   -1.4763    0.0560 C   0  0  0  0  0  0  0  0  0  0  0  0
   -6.0806    0.8294    0.7654 C   0  0  0  0  0  0  0  0  0  0  0  0
   -6.7576   -0.2998    0.3091 C   0  0  0  0  0  0  0  0  0  0  0  0
    1.3768   -1.3560    0.3110 N   0  0  0  0  0  0  0  0  0  0  0  0
   -1.3483   -1.2761   -0.6643 N   0  0  0  0  0  0  0  0  0  0  0  0
   -3.6438   -0.3226   -0.8241 C   0  0  0  0  0  0  0  0  0  0  0  0
    3.6565   -0.4108    0.6427 C   0  0  0  0  0  0  0  0  0  0  0  0
    2.5907   -1.3700    1.1210 C   0  0  0  0  0  0  0  0  0  0  0  0
   -2.5504   -1.1358   -1.4790 C   0  0  0  0  0  0  0  0  0  0  0  0
    0.5747   -0.1421    0.4853 C   0  0  0  0  0  0  0  0  0  0  0  0
   -0.5793   -0.0345   -0.5433 C   0  0  0  0  0  0  0  0  0  0  0  0
   -4.3385   -0.8224    0.2878 C   0  0  0  0  0  0  0  0  0  0  0  0
   -3.9745    0.9491   -1.3149 C   0  0  0  0  0  0  0  0  0  0  0  0
    3.9736    0.7324    1.3915 C   0  0  0  0  0  0  0  0  0  0  0  0
    4.3424   -0.6438   -0.5595 C   0  0  0  0  0  0  0  0  0  0  0  0
   -5.3394   -0.0632    0.8965 C   0  0  0  0  0  0  0  0  0  0  0  0
    4.9516    1.6238    0.9471 C   0  0  0  0  0  0  0  0  0  0  0  0
    5.3206    0.2494   -1.0027 C   0  0  0  0  0  0  0  0  0  0  0  0
   -4.9762    1.7055   -0.7046 C   0  0  0  0  0  0  0  0  0  0  0  0
   -5.6579    1.2002    0.4005 C   0  0  0  0  0  0  0  0  0  0  0  0
    5.6235    1.3829   -0.2501 C   0  0  0  0  0  0  0  0  0  0  0  0
   -2.3937   -0.0298    1.5521 N   0  0  0  0  0  0  0  0  0  0  0  0
   -1.3801    0.8093    0.8823 C   0  0  1  0  0  0  0  0  0  0  0  0
   -1.4708   -0.9397    1.9976 C   0  0  0  0  0  0  0  0  0  0  0  0
   -0.2913   -0.0322    1.5916 C   0  0  1  0  0  0  0  0  0  0  0  0
   -3.5277   -0.5033    0.7555 C   0  0  2  0  0  0  0  0  0  0  0  0
   -1.6966    0.5057   -0.9060 S   0  0  0  0  0  0  0  0  0  0  0  0
   -3.5137    0.2675   -0.5800 C   0  0  0  0  0  0  0  0  0  0  0  0
    0.7576   -0.6513    0.7367 N   0  0  0  0  0  0  0  0  0  0  0  0
   -4.8612   -0.4114    1.4919 C   0  0  0  0  0  0  0  0  0  0  0  0
    1.7807    0.1194    0.2207 C   0  0  0  0  0  0  0  0  0  0  0  0
   -1.6021   -2.0717    2.4048 O   0  0  0  0  0  0  0  0  0  0  0  0
   -5.9442   -0.7604    1.0438 O   0  0  0  0  0  0  0  0  0  0  0  0
    1.8825    1.3133    0.4943 O   0  0  0  0  0  0  0  0  0  0  0  0
    2.7077   -0.6197   -0.7298 C   0  0  0  0  0  0  0  0  0  0  0  0
   -4.7893    0.1104    2.7336 O   0  0  0  0  0  0  0  0  0  0  0  0
   -4.1702    1.6535   -0.5205 C   0  0  0  0  0  0  0  0  0  0  0  0
   -4.1090   -0.5527   -1.7269 C   0  0  0  0  0  0  0  0  0  0  0  0
    4.1663   -0.2842   -0.5420 C   0  0  0  0  0  0  0  0  0  0  0  0
    4.6951    0.9012   -1.0735 C   0  0  0  0  0  0  0  0  0  0  0  0
    5.0136   -1.1436    0.1734 C   0  0  0  0  0  0  0  0  0  0  0  0
    6.0454    1.2130   -0.9071 C   0  0  0  0  0  0  0  0  0  0  0  0
    6.3647   -0.8301    0.3359 C   0  0  0  0  0  0  0  0  0  0  0  0
    6.8809    0.3456   -0.2067 C   0  0  0  0  0  0  0  0  0  0  0  0
    0.0081    0.3981    0.0000 O   0  0  0  0  0  0  0  0  0  0  0  0
    0.0032    0.3981    0.0000 O   0  0  0  0  0  0  0  0  0  0  0  0
    0.0027    0.3981    0.0000 O   0  0  0  0  0  0  0  0  0  0  0  0
    0.7585   -0.2151    0.0000 H   0  0  0  0  0  0  0  0  0  0  0  0
   -0.7667   -0.1831    0.0000 H   0  0  0  0  0  0  0  0  0  0  0  0
    1.1736    1.4967   -2.0710 H   0  0  0  0  0  0  0  0  0  0  0  0
   -0.0859   -0.5961   -2.5334 H   0  0  0  0  0  0  0  0  0  0  0  0
    4.2392   -0.9023   -0.8666 H   0  0  0  0  0  0  0  0  0  0  0  0
   -0.3259   -1.5725    0.2295 H   0  0  0  0  0  0  0  0  0  0  0  0
   -2.2156    0.2315    1.7748 H   0  0  0  0  0  0  0  0  0  0  0  0
   -2.2252   -1.4567    1.3126 H   0  0  0  0  0  0  0  0  0  0  0  0
    6.2604    1.5472   -2.0823 H   0  0  0  0  0  0  0  0  0  0  0  0
    3.9057    1.8816    2.1236 H   0  0  0  0  0  0  0  0  0  0  0  0
    4.2381    2.5136    0.5094 H   0  0  0  0  0  0  0  0  0  0  0  0
    5.2441    1.2223    1.1848 H   0  0  0  0  0  0  0  0  0  0  0  0
    4.2050   -1.1217    1.6054 H   0  0  0  0  0  0  0  0  0  0  0  0
    2.5235   -1.4317    1.1678 H   0  0  0  0  0  0  0  0  0  0  0  0
    2.9037   -0.3319    2.4959 H   0  0  0  0  0  0  0  0  0  0  0  0
   -4.1454   -2.4536    0.0570 H   0  0  0  0  0  0  0  0  0  0  0  0
   -4.1849    1.6755    1.3181 H   0  0  0  0  0  0  0  0  0  0  0  0
   -6.5831   -2.3545   -0.3083 H   0  0  0  0  0  0  0  0  0  0  0  0
   -6.6253    1.7515    0.9525 H   0  0  0  0  0  0  0  0  0  0  0  0
   -7.8311   -0.2595    0.1440 H   0  0  0  0  0  0  0  0  0  0  0  0
    1.5995   -1.4770   -0.6749 H   0  0  0  0  0  0  0  0  0  0  0  0
   -1.5826   -1.6234    0.2638 H   0  0  0  0  0  0  0  0  0  0  0  0
    3.0116   -2.3822    1.0958 H   0  0  0  0  0  0  0  0  0  0  0  0
    2.3466   -1.1849    2.1744 H   0  0  0  0  0  0  0  0  0  0  0  0
   -2.2963   -0.7231   -2.4630 H   0  0  0  0  0  0  0  0  0  0  0  0
   -2.9515   -2.1370   -1.6814 H   0  0  0  0  0  0  0  0  0  0  0  0
    1.1847    0.7614    0.3831 H   0  0  0  0  0  0  0  0  0  0  0  0
    0.1474   -0.1428    1.4959 H   0  0  0  0  0  0  0  0  0  0  0  0
   -0.1553    0.2162   -1.5229 H   0  0  0  0  0  0  0  0  0  0  0  0
   -1.2152    0.8021   -0.2311 H   0  0  0  0  0  0  0  0  0  0  0  0
   -4.1022   -1.8075    0.6833 H   0  0  0  0  0  0  0  0  0  0  0  0
   -3.4488    1.3590   -2.1743 H   0  0  0  0  0  0  0  0  0  0  0  0
    3.4553    0.9356    2.3263 H   0  0  0  0  0  0  0  0  0  0  0  0
    4.1186   -1.5263   -1.1545 H   0  0  0  0  0  0  0  0  0  0  0  0
   -5.8725   -0.4587    1.7584 H   0  0  0  0  0  0  0  0  0  0  0  0
    5.1895    2.5065    1.5357 H   0  0  0  0  0  0  0  0  0  0  0  0
    5.8467    0.0591   -1.9344 H   0  0  0  0  0  0  0  0  0  0  0  0
   -5.2252    2.6899   -1.0918 H   0  0  0  0  0  0  0  0  0  0  0  0
   -6.4370    1.7898    0.8761 H   0  0  0  0  0  0  0  0  0  0  0  0
    6.3846    2.0774   -0.5956 H   0  0  0  0  0  0  0  0  0  0  0  0
   -1.4338    1.8584    1.1886 H   0  0  0  0  0  0  0  0  0  0  0  0
    0.1553    0.4580    2.4671 H   0  0  0  0  0  0  0  0  0  0  0  0
   -3.3734   -1.5778    0.5734 H   0  0  0  0  0  0  0  0  0  0  0  0
    0.6310   -1.6007    0.3987 H   0  0  0  0  0  0  0  0  0  0  0  0
    2.3988   -0.3769   -1.7525 H   0  0  0  0  0  0  0  0  0  0  0  0
    2.5689   -1.7029   -0.6194 H   0  0  0  0  0  0  0  0  0  0  0  0
   -5.7000    0.0348    3.0846 H   0  0  0  0  0  0  0  0  0  0  0  0
   -4.0123    2.2091   -1.4542 H   0  0  0  0  0  0  0  0  0  0  0  0
   -5.2538    1.5709   -0.3834 H   0  0  0  0  0  0  0  0  0  0  0  0
   -3.7853    2.2635    0.3042 H   0  0  0  0  0  0  0  0  0  0  0  0
   -3.9941   -0.0432   -2.6927 H   0  0  0  0  0  0  0  0  0  0  0  0
   -3.6393   -1.5396   -1.8113 H   0  0  0  0  0  0  0  0  0  0  0  0
   -5.1821   -0.7151   -1.5755 H   0  0  0  0  0  0  0  0  0  0  0  0
    4.0523    1.5961   -1.6119 H   0  0  0  0  0  0  0  0  0  0  0  0
    4.6315   -2.0661    0.6066 H   0  0  0  0  0  0  0  0  0  0  0  0
    6.4436    2.1355   -1.3221 H   0  0  0  0  0  0  0  0  0  0  0  0
    7.0157   -1.5031    0.8868 H   0  0  0  0  0  0  0  0  0  0  0  0
    7.9321    0.5900   -0.0768 H   0  0  0  0  0  0  0  0  0  0  0  0
   -0.7667   -0.1836    0.0000 H   0  0  0  0  0  0  0  0  0  0  0  0
    0.7586   -0.2145    0.0000 H   0  0  0  0  0  0  0  0  0  0  0  0
   -0.7644   -0.1927    0.0000 H   0  0  0  0  0  0  0  0  0  0  0  0
    0.7612   -0.2053    0.0000 H   0  0  0  0  0  0  0  0  0  0  0  0
   -0.7647   -0.1934    0.0000 H   0  0  0  0  0  0  0  0  0  0  0  0
    0.7619   -0.2047    0.0000 H   0  0  0  0  0  0  0  0  0  0  0  0
  3  2  1  0
  4  2  1  0
  5  3  1  0
  6  2  1  0
  3  7  1  0
  8  6  1  0
  5  9  1  0
  6 10  1  0
 11  9  1  0
 12  4  2  0
 13 10  2  0
 14 11  2  0
 15 11  1  0
 16 10  1  0
 17  8  1  0
 18  8  1  0
 19 15  1  0
 20 19  2  0
 21 19  1  0
 22 20  1  0
 23 21  2  0
 24 23  1  0
  7  8  1  0
  4  5  1  0
 24 22  2  0
 26 32  1  0
 27 30  1  0
 28 29  1  0
 29 25  1  0
 30 26  1  0
 31 25  1  0
 32 31  1  0
 33 27  2  0
 34 27  1  0
 35 28  2  0
 36 28  1  0
 37 33  1  0
 38 35  1  0
 39 36  2  0
 40 34  2  0
 41 37  2  0
 42 39  1  0
 42 38  2  0
 40 41  1  0
 44 43  1  0
 45 43  1  0
 46 44  1  0
 47 43  1  0
 44 48  1  0
 49 47  1  0
 46 50  1  0
 47 51  1  0
 52 50  1  0
 53 45  2  0
 54 51  2  0
 55 52  2  0
 56 52  1  0
 57 51  1  0
 58 49  1  0
 59 49  1  0
 60 56  1  0
 61 60  2  0
 62 60  1  0
 63 61  1  0
 64 62  2  0
 65 64  1  0
 48 49  1  0
 45 46  1  0
 65 63  2  0
  1 69  1  0
  1 70  1  0
  3 71  1  6
  5 72  1  6
  6 73  1  1
  9 74  1  0
 15 75  1  0
 15 76  1  0
 16 77  1  0
 17 78  1  0
 17 79  1  0
 17 80  1  0
 18 81  1  0
 18 82  1  0
 18 83  1  0
 20 84  1  0
 21 85  1  0
 22 86  1  0
 23 87  1  0
 24 88  1  0
 25 89  1  0
 26 90  1  0
 29 91  1  0
 29 92  1  0
 30 93  1  0
 30 94  1  0
 31 95  1  0
 31 96  1  0
 32 97  1  0
 32 98  1  0
 33 99  1  0
 34100  1  0
 35101  1  0
 36102  1  0
 37103  1  0
 38104  1  0
 39105  1  0
 40106  1  0
 41107  1  0
 42108  1  0
 44109  1  6
 46110  1  1
 47111  1  6
 50112  1  0
 56113  1  0
 56114  1  0
 57115  1  0
 58116  1  0
 58117  1  0
 58118  1  0
 59119  1  0
 59120  1  0
 59121  1  0
 61122  1  0
 62123  1  0
 63124  1  0
 64125  1  0
 65126  1  0
 66127  1  0
 66128  1  0
 67129  1  0
 67130  1  0
 68131  1  0
 68132  1  0
M  END
$$$$
