
     RDKit          3D

132133  0  0  0  0  0  0  0  0999 V2000
    0.0003    0.3979    0.0000 O   0  0  0  0  0  0  0  0  0  0  0  0
   -2.3138    1.5178    0.3796 N   0  0  0  0  0  0  0  0  0  0  0  0
   -1.3537    1.0408   -0.6355 C   0  0  1  0  0  0  0  0  0  0  0  0
   -1.3425    1.7684    1.3110 C   0  0  0  0  0  0  0  0  0  0  0  0
   -0.2098    1.5255    0.2894 C   0  0  1  0  0  0  0  0  0  0  0  0
   -3.4285    0.6367    0.7378 C   0  0  2  0  0  0  0  0  0  0  0  0
   -1.6949   -0.7648   -0.7302 S   0  0  0  0  0  0  0  0  0  0  0  0
   -3.4835   -0.4924   -0.3115 C   0  0  0  0  0  0  0  0  0  0  0  0
    0.8187    0.5238    0.6824 N   0  0  0  0  0  0  0  0  0  0  0  0
   -4.7570    1.3713    0.8934 C   0  0  0  0  0  0  0  0  0  0  0  0
    1.7401    0.0705   -0.2392 C   0  0  0  0  0  0  0  0  0  0  0  0
   -1.4147    1.9487    2.5058 O   0  0  0  0  0  0  0  0  0  0  0  0
   -5.8117    0.8552    1.2317 O   0  0  0  0  0  0  0  0  0  0  0  0
    1.8183    0.5564   -1.3655 O   0  0  0  0  0  0  0  0  0  0  0  0
    2.5915   -1.0905    0.2441 C   0  0  0  0  0  0  0  0  0  0  0  0
   -4.7169    2.6867    0.5996 O   0  0  0  0  0  0  0  0  0  0  0  0
   -4.2233   -0.1195   -1.6035 C   0  0  0  0  0  0  0  0  0  0  0  0
   -4.0467   -1.7936    0.2645 C   0  0  0  0  0  0  0  0  0  0  0  0
    4.0656   -0.9075   -0.0112 C   0  0  0  0  0  0  0  0  0  0  0  0
    4.8844   -0.2891    0.9439 C   0  0  0  0  0  0  0  0  0  0  0  0
    4.6365   -1.3457   -1.2143 C   0  0  0  0  0  0  0  0  0  0  0  0
    6.2510   -0.1318    0.7069 C   0  0  0  0  0  0  0  0  0  0  0  0
    6.0028   -1.1874   -1.4490 C   0  0  0  0  0  0  0  0  0  0  0  0
    6.8104   -0.5834   -0.4871 C   0  0  0  0  0  0  0  0  0  0  0  0
   -1.0531   -0.3553   -0.0010 N   0  0  0  0  0  0  0  0  0  0  0  0
    1.7397    1.0788   -0.7246 N   0  0  0  0  0  0  0  0  0  0  0  0
    3.5455   -0.4503   -0.1257 C   0  0  0  0  0  0  0  0  0  0  0  0
   -3.5094   -0.2661    0.3879 C   0  0  0  0  0  0  0  0  0  0  0  0
   -2.1404   -0.5515    0.9587 C   0  0  0  0  0  0  0  0  0  0  0  0
    2.0847   -0.3222   -0.4983 C   0  0  0  0  0  0  0  0  0  0  0  0
   -0.7754    1.0609   -0.2613 C   0  0  0  0  0  0  0  0  0  0  0  0
    0.3875    1.2609   -1.2606 C   0  0  0  0  0  0  0  0  0  0  0  0
    3.9277   -0.7374    1.1925 C   0  0  0  0  0  0  0  0  0  0  0  0
    4.5428   -0.2634   -1.0945 C   0  0  0  0  0  0  0  0  0  0  0  0
   -4.1054   -1.1615   -0.5134 C   0  0  0  0  0  0  0  0  0  0  0  0
   -4.2004    0.9031    0.7376 C   0  0  0  0  0  0  0  0  0  0  0  0
    5.2783   -0.8471    1.5304 C   0  0  0  0  0  0  0  0  0  0  0  0
   -5.3659   -0.8935   -1.0497 C   0  0  0  0  0  0  0  0  0  0  0  0
   -5.4609    1.1689    0.2000 C   0  0  0  0  0  0  0  0  0  0  0  0
    5.8924   -0.3735   -0.7551 C   0  0  0  0  0  0  0  0  0  0  0  0
    6.2597   -0.6670    0.5573 C   0  0  0  0  0  0  0  0  0  0  0  0
   -6.0427    0.2715   -0.6932 C   0  0  0  0  0  0  0  0  0  0  0  0
   -2.7026   -0.3578   -1.2718 N   0  0  0  0  0  0  0  0  0  0  0  0
   -1.5645   -1.1169   -0.7301 C   0  0  1  0  0  0  0  0  0  0  0  0
   -1.9175    0.6214   -1.8082 C   0  0  0  0  0  0  0  0  0  0  0  0
   -0.6365   -0.2164   -1.5920 C   0  0  1  0  0  0  0  0  0  0  0  0
   -3.8068   -0.0593   -0.3663 C   0  0  2  0  0  0  0  0  0  0  0  0
   -1.6054   -0.8082    1.0827 S   0  0  0  0  0  0  0  0  0  0  0  0
   -3.2014    0.1355    1.0475 C   0  0  0  0  0  0  0  0  0  0  0  0
    0.4881    0.4756   -0.9077 N   0  0  0  0  0  0  0  0  0  0  0  0
   -4.8792   -1.1504   -0.4466 C   0  0  0  0  0  0  0  0  0  0  0  0
    1.5760   -0.2386   -0.4493 C   0  0  0  0  0  0  0  0  0  0  0  0
   -2.1821    1.7445   -2.1696 O   0  0  0  0  0  0  0  0  0  0  0  0
   -5.9831   -1.1010    0.0781 O   0  0  0  0  0  0  0  0  0  0  0  0
    1.6751   -1.4486   -0.6322 O   0  0  0  0  0  0  0  0  0  0  0  0
    2.5876    0.5885    0.3257 C   0  0  0  0  0  0  0  0  0  0  0  0
   -4.5300   -2.2493   -1.1475 O   0  0  0  0  0  0  0  0  0  0  0  0
   -2.8634    1.6148    1.3024 C   0  0  0  0  0  0  0  0  0  0  0  0
   -4.0636   -0.3672    2.2118 C   0  0  0  0  0  0  0  0  0  0  0  0
    4.0120    0.3459   -0.1027 C   0  0  0  0  0  0  0  0  0  0  0  0
    4.5996    1.1285   -1.1061 C   0  0  0  0  0  0  0  0  0  0  0  0
    4.7633   -0.6824    0.4843 C   0  0  0  0  0  0  0  0  0  0  0  0
    5.9189    0.8977   -1.5005 C   0  0  0  0  0  0  0  0  0  0  0  0
    6.0821   -0.9110    0.0884 C   0  0  0  0  0  0  0  0  0  0  0  0
    6.6601   -0.1187   -0.9011 C   0  0  0  0  0  0  0  0  0  0  0  0
   -0.0075    0.3978    0.0000 O   0  0  0  0  0  0  0  0  0  0  0  0
   -0.0128    0.3975    0.0000 O   0  0  0  0  0  0  0  0  0  0  0  0
   -0.0038    0.3979    0.0000 O   0  0  0  0  0  0  0  0  0  0  0  0
   -0.7637   -0.1986    0.0000 H   0  0  0  0  0  0  0  0  0  0  0  0
    0.7635   -0.1993    0.0000 H   0  0  0  0  0  0  0  0  0  0  0  0
   -1.4461    1.5773   -1.5847 H   0  0  0  0  0  0  0  0  0  0  0  0
    0.2577    2.4657   -0.0283 H   0  0  0  0  0  0  0  0  0  0  0  0
   -3.2077    0.2194    1.7313 H   0  0  0  0  0  0  0  0  0  0  0  0
    0.7380    0.0516    1.5764 H   0  0  0  0  0  0  0  0  0  0  0  0
    2.2306   -1.9959   -0.2591 H   0  0  0  0  0  0  0  0  0  0  0  0
    2.4323   -1.2614    1.3156 H   0  0  0  0  0  0  0  0  0  0  0  0
   -5.6226    3.0107    0.7842 H   0  0  0  0  0  0  0  0  0  0  0  0
   -4.1075   -0.8945   -2.3708 H   0  0  0  0  0  0  0  0  0  0  0  0
   -5.2985   -0.0127   -1.4236 H   0  0  0  0  0  0  0  0  0  0  0  0
   -3.8710    0.8276   -2.0271 H   0  0  0  0  0  0  0  0  0  0  0  0
   -3.5191   -2.0993    1.1764 H   0  0  0  0  0  0  0  0  0  0  0  0
   -5.1052   -1.6806    0.5229 H   0  0  0  0  0  0  0  0  0  0  0  0
   -3.9768   -2.6186   -0.4549 H   0  0  0  0  0  0  0  0  0  0  0  0
    4.4663    0.0715    1.8807 H   0  0  0  0  0  0  0  0  0  0  0  0
    4.0162   -1.8089   -1.9801 H   0  0  0  0  0  0  0  0  0  0  0  0
    6.8811    0.3447    1.4538 H   0  0  0  0  0  0  0  0  0  0  0  0
    6.4358   -1.5325   -2.3846 H   0  0  0  0  0  0  0  0  0  0  0  0
    7.8743   -0.4604   -0.6711 H   0  0  0  0  0  0  0  0  0  0  0  0
   -1.2928   -0.8185   -0.8769 H   0  0  0  0  0  0  0  0  0  0  0  0
    1.8329    1.5754    0.1598 H   0  0  0  0  0  0  0  0  0  0  0  0
   -1.9648    0.0380    1.8674 H   0  0  0  0  0  0  0  0  0  0  0  0
   -2.1213   -1.5980    1.2889 H   0  0  0  0  0  0  0  0  0  0  0  0
    1.4783   -0.7536    0.3044 H   0  0  0  0  0  0  0  0  0  0  0  0
    1.9066   -0.9228   -1.3998 H   0  0  0  0  0  0  0  0  0  0  0  0
   -1.6617    1.5416   -0.6915 H   0  0  0  0  0  0  0  0  0  0  0  0
   -0.5416    1.5827    0.6752 H   0  0  0  0  0  0  0  0  0  0  0  0
    0.3342    2.3005   -1.6087 H   0  0  0  0  0  0  0  0  0  0  0  0
    0.2400    0.6457   -2.1570 H   0  0  0  0  0  0  0  0  0  0  0  0
    3.1738   -0.8773    1.9637 H   0  0  0  0  0  0  0  0  0  0  0  0
    4.2641   -0.0216   -2.1182 H   0  0  0  0  0  0  0  0  0  0  0  0
   -3.5905   -2.0768   -0.7983 H   0  0  0  0  0  0  0  0  0  0  0  0
   -3.7585    1.6148    1.4311 H   0  0  0  0  0  0  0  0  0  0  0  0
    5.5646   -1.0718    2.5546 H   0  0  0  0  0  0  0  0  0  0  0  0
   -5.8206   -1.5940   -1.7456 H   0  0  0  0  0  0  0  0  0  0  0  0
   -5.9891    2.0773    0.4774 H   0  0  0  0  0  0  0  0  0  0  0  0
    6.6557   -0.2259   -1.5143 H   0  0  0  0  0  0  0  0  0  0  0  0
    7.3103   -0.7507    0.8211 H   0  0  0  0  0  0  0  0  0  0  0  0
   -7.0243    0.4796   -1.1116 H   0  0  0  0  0  0  0  0  0  0  0  0
   -1.5810   -2.1732   -1.0145 H   0  0  0  0  0  0  0  0  0  0  0  0
   -0.2968   -0.6850   -2.5241 H   0  0  0  0  0  0  0  0  0  0  0  0
   -4.2909    0.8608   -0.7183 H   0  0  0  0  0  0  0  0  0  0  0  0
    0.3924    1.4543   -0.6550 H   0  0  0  0  0  0  0  0  0  0  0  0
    2.3609    1.6572    0.2335 H   0  0  0  0  0  0  0  0  0  0  0  0
    2.4664    0.3472    1.3901 H   0  0  0  0  0  0  0  0  0  0  0  0
   -5.3191   -2.8300   -1.1060 H   0  0  0  0  0  0  0  0  0  0  0  0
   -3.7733    2.2263    1.2716 H   0  0  0  0  0  0  0  0  0  0  0  0
   -2.4097    1.7619    2.2906 H   0  0  0  0  0  0  0  0  0  0  0  0
   -2.1708    2.0250    0.5608 H   0  0  0  0  0  0  0  0  0  0  0  0
   -5.0275    0.1541    2.2353 H   0  0  0  0  0  0  0  0  0  0  0  0
   -3.5804   -0.1840    3.1800 H   0  0  0  0  0  0  0  0  0  0  0  0
   -4.2620   -1.4439    2.1504 H   0  0  0  0  0  0  0  0  0  0  0  0
    4.0363    1.9238   -1.5891 H   0  0  0  0  0  0  0  0  0  0  0  0
    4.3199   -1.3187    1.2479 H   0  0  0  0  0  0  0  0  0  0  0  0
    6.3682    1.5091   -2.2785 H   0  0  0  0  0  0  0  0  0  0  0  0
    6.6548   -1.7121    0.5487 H   0  0  0  0  0  0  0  0  0  0  0  0
    7.6859   -0.2991   -1.2110 H   0  0  0  0  0  0  0  0  0  0  0  0
   -0.7597   -0.2131    0.0000 H   0  0  0  0  0  0  0  0  0  0  0  0
    0.7671   -0.1846    0.0000 H   0  0  0  0  0  0  0  0  0  0  0  0
   -0.7567   -0.2232    0.0000 H   0  0  0  0  0  0  0  0  0  0  0  0
    0.7695   -0.1743    0.0000 H   0  0  0  0  0  0  0  0  0  0  0  0
    0.7654   -0.1919    0.0000 H   0  0  0  0  0  0  0  0  0  0  0  0
   -0.7616   -0.2060    0.0000 H   0  0  0  0  0  0  0  0  0  0  0  0
  3  2  1  0
  4  2  1  0
  5  3  1  0
  6  2  1  0
  3  7  1  0
  8  6  1  0
  5  9  1  0
  6 10  1  0
 11  9  1  0
 12  4  2  0
 13 10  2  0
 14 11  2  0
 15 11  1  0
 16 10  1  0
 17  8  1  0
 18  8  1  0
 19 15  1  0
 20 19  2  0
 21 19  1  0
 22 20  1  0
 23 21  2  0
 24 23  1  0
  7  8  1  0
  4  5  1  0
 24 22  2  0
 26 32  1  0
 27 30  1  0
 28 29  1  0
 29 25  1  0
 30 26  1  0
 31 25  1  0
 32 31  1  0
 33 27  2  0
 34 27  1  0
 35 28  2  0
 36 28  1  0
 37 33  1  0
 38 35  1  0
 39 36  2  0
 40 34  2  0
 41 37  2  0
 42 39  1  0
 42 38  2  0
 40 41  1  0
 44 43  1  0
 45 43  1  0
 46 44  1  0
 47 43  1  0
 44 48  1  0
 49 47  1  0
 46 50  1  0
 47 51  1  0
 52 50  1  0
 53 45  2  0
 54 51  2  0
 55 52  2  0
 56 52  1  0
 57 51  1  0
 58 49  1  0
 59 49  1  0
 60 56  1  0
 61 60  2  0
 62 60  1  0
 63 61  1  0
 64 62  2  0
 65 64  1  0
 48 49  1  0
 45 46  1  0
 65 63  2  0
  1 69  1  0
  1 70  1  0
  3 71  1  6
  5 72  1  6
  6 73  1  1
  9 74  1  0
 15 75  1  0
 15 76  1  0
 16 77  1  0
 17 78  1  0
 17 79  1  0
 17 80  1  0
 18 81  1  0
 18 82  1  0
 18 83  1  0
 20 84  1  0
 21 85  1  0
 22 86  1  0
 23 87  1  0
 24 88  1  0
 25 89  1  0
 26 90  1  0
 29 91  1  0
 29 92  1  0
 30 93  1  0
 30 94  1  0
 31 95  1  0
 31 96  1  0
 32 97  1  0
 32 98  1  0
 33 99  1  0
 34100  1  0
 35101  1  0
 36102  1  0
 37103  1  0
 38104  1  0
 39105  1  0
 40106  1  0
 41107  1  0
 42108  1  0
 44109  1  1
 46110  1  6
 47111  1  6
 50112  1  0
 56113  1  0
 56114  1  0
 57115  1  0
 58116  1  0
 58117  1  0
 58118  1  0
 59119  1  0
 59120  1  0
 59121  1  0
 61122  1  0
 62123  1  0
 63124  1  0
 64125  1  0
 65126  1  0
 66127  1  0
 66128  1  0
 67129  1  0
 67130  1  0
 68131  1  0
 68132  1  0
M  END
$$$$
