
     RDKit          3D

132133  0  0  0  0  0  0  0  0999 V2000
   -0.0124    0.3969    0.0000 O   0  0  0  0  0  0  0  0  0  0  0  0
   -2.1687   -0.4688    1.3529 N   0  0  0  0  0  0  0  0  0  0  0  0
   -1.3694    0.7698    1.3957 C   0  0  1  0  0  0  0  0  0  0  0  0
   -1.0894   -1.2595    1.0710 C   0  0  0  0  0  0  0  0  0  0  0  0
   -0.1025   -0.1311    1.4497 C   0  0  1  0  0  0  0  0  0  0  0  0
   -3.3468   -0.4704    0.4954 C   0  0  2  0  0  0  0  0  0  0  0  0
   -1.7278    1.6277   -0.1976 S   0  0  0  0  0  0  0  0  0  0  0  0
   -3.0613    0.4475   -0.7152 C   0  0  0  0  0  0  0  0  0  0  0  0
    0.9804    0.1446    0.4731 N   0  0  0  0  0  0  0  0  0  0  0  0
   -4.5342   -0.0195    1.3416 C   0  0  0  0  0  0  0  0  0  0  0  0
    1.7821    1.2562    0.5985 C   0  0  0  0  0  0  0  0  0  0  0  0
   -1.0262   -2.3601    0.5783 O   0  0  0  0  0  0  0  0  0  0  0  0
   -4.5518    0.8524    2.1943 O   0  0  0  0  0  0  0  0  0  0  0  0
    1.6650    2.0480    1.5310 O   0  0  0  0  0  0  0  0  0  0  0  0
    2.7739    1.4607   -0.5311 C   0  0  0  0  0  0  0  0  0  0  0  0
   -5.6684   -0.6824    1.0279 O   0  0  0  0  0  0  0  0  0  0  0  0
   -2.5215   -0.3638   -1.9043 C   0  0  0  0  0  0  0  0  0  0  0  0
   -4.2654    1.2692   -1.1975 C   0  0  0  0  0  0  0  0  0  0  0  0
    3.7759    0.3404   -0.6642 C   0  0  0  0  0  0  0  0  0  0  0  0
    3.7609   -0.5056   -1.7821 C   0  0  0  0  0  0  0  0  0  0  0  0
    4.7399    0.1341    0.3321 C   0  0  0  0  0  0  0  0  0  0  0  0
    4.6925   -1.5387   -1.8971 C   0  0  0  0  0  0  0  0  0  0  0  0
    5.6707   -0.8988    0.2136 C   0  0  0  0  0  0  0  0  0  0  0  0
    5.6458   -1.7347   -0.9002 C   0  0  0  0  0  0  0  0  0  0  0  0
   -1.8136    0.0077   -0.7524 N   0  0  0  0  0  0  0  0  0  0  0  0
    1.8017   -0.2221    0.4982 N   0  0  0  0  0  0  0  0  0  0  0  0
    4.0264    0.4811   -0.2359 C   0  0  0  0  0  0  0  0  0  0  0  0
   -4.0513   -0.5746    0.0266 C   0  0  0  0  0  0  0  0  0  0  0  0
   -2.5876   -0.9470    0.0381 C   0  0  0  0  0  0  0  0  0  0  0  0
    2.5368    0.6844   -0.3847 C   0  0  0  0  0  0  0  0  0  0  0  0
   -0.3804   -0.2994   -0.7715 C   0  0  0  0  0  0  0  0  0  0  0  0
    0.3633    0.0666    0.5332 C   0  0  0  0  0  0  0  0  0  0  0  0
    4.6503   -0.6348   -0.8134 C   0  0  0  0  0  0  0  0  0  0  0  0
    4.8039    1.3865    0.5003 C   0  0  0  0  0  0  0  0  0  0  0  0
   -4.6415    0.0532    1.1333 C   0  0  0  0  0  0  0  0  0  0  0  0
   -4.8360   -0.8248   -1.1085 C   0  0  0  0  0  0  0  0  0  0  0  0
    6.0247   -0.8309   -0.6732 C   0  0  0  0  0  0  0  0  0  0  0  0
   -5.9915    0.4089    1.1074 C   0  0  0  0  0  0  0  0  0  0  0  0
   -6.1846   -0.4685   -1.1326 C   0  0  0  0  0  0  0  0  0  0  0  0
    6.1781    1.1866    0.6430 C   0  0  0  0  0  0  0  0  0  0  0  0
    6.7884    0.0803    0.0537 C   0  0  0  0  0  0  0  0  0  0  0  0
   -6.7626    0.1469   -0.0240 C   0  0  0  0  0  0  0  0  0  0  0  0
   -2.1544   -0.1039    1.7003 N   0  0  0  0  0  0  0  0  0  0  0  0
   -1.3731    0.8846    0.9325 C   0  0  1  0  0  0  0  0  0  0  0  0
   -1.0607   -0.8785    1.9835 C   0  0  0  0  0  0  0  0  0  0  0  0
   -0.0886    0.1959    1.4498 C   0  0  1  0  0  0  0  0  0  0  0  0
   -3.3128   -0.7162    1.0462 C   0  0  2  0  0  0  0  0  0  0  0  0
   -1.8920    0.5760   -0.8059 S   0  0  0  0  0  0  0  0  0  0  0  0
   -3.5918    0.0698   -0.2491 C   0  0  0  0  0  0  0  0  0  0  0  0
    0.9035   -0.2465    0.4341 N   0  0  0  0  0  0  0  0  0  0  0  0
   -4.4927   -0.7763    2.0086 C   0  0  0  0  0  0  0  0  0  0  0  0
    1.7306    0.6742   -0.1730 C   0  0  0  0  0  0  0  0  0  0  0  0
   -0.9753   -2.0187    2.3794 O   0  0  0  0  0  0  0  0  0  0  0  0
   -4.5952   -0.2356    3.0994 O   0  0  0  0  0  0  0  0  0  0  0  0
    1.7273    1.8624    0.1470 O   0  0  0  0  0  0  0  0  0  0  0  0
    2.6479    0.1024   -1.2388 C   0  0  0  0  0  0  0  0  0  0  0  0
   -5.5114   -1.5302    1.5424 O   0  0  0  0  0  0  0  0  0  0  0  0
   -4.2163   -0.8054   -1.3385 C   0  0  0  0  0  0  0  0  0  0  0  0
   -4.4249    1.3427   -0.0502 C   0  0  0  0  0  0  0  0  0  0  0  0
    4.0988    0.1252   -0.8284 C   0  0  0  0  0  0  0  0  0  0  0  0
    5.0130    0.9492   -1.4987 C   0  0  0  0  0  0  0  0  0  0  0  0
    4.5549   -0.6742    0.2288 C   0  0  0  0  0  0  0  0  0  0  0  0
    6.3556    0.9719   -1.1197 C   0  0  0  0  0  0  0  0  0  0  0  0
    5.8977   -0.6478    0.6085 C   0  0  0  0  0  0  0  0  0  0  0  0
    6.7975    0.1752   -0.0666 C   0  0  0  0  0  0  0  0  0  0  0  0
    0.0514    0.3941    0.0000 O   0  0  0  0  0  0  0  0  0  0  0  0
    0.0853    0.3880    0.0000 O   0  0  0  0  0  0  0  0  0  0  0  0
   -0.0126    0.3972    0.0000 O   0  0  0  0  0  0  0  0  0  0  0  0
   -0.7574   -0.2218    0.0000 H   0  0  0  0  0  0  0  0  0  0  0  0
    0.7699   -0.1751    0.0000 H   0  0  0  0  0  0  0  0  0  0  0  0
   -1.5558    1.3700    2.2906 H   0  0  0  0  0  0  0  0  0  0  0  0
    0.3056   -0.2714    2.4596 H   0  0  0  0  0  0  0  0  0  0  0  0
   -3.5358   -1.5050    0.1801 H   0  0  0  0  0  0  0  0  0  0  0  0
    1.1975   -0.5343   -0.2488 H   0  0  0  0  0  0  0  0  0  0  0  0
    2.2051    1.5908   -1.4598 H   0  0  0  0  0  0  0  0  0  0  0  0
    3.3102    2.4025   -0.3630 H   0  0  0  0  0  0  0  0  0  0  0  0
   -6.3426   -0.3150    1.6378 H   0  0  0  0  0  0  0  0  0  0  0  0
   -3.2673   -1.0932   -2.2403 H   0  0  0  0  0  0  0  0  0  0  0  0
   -2.2885    0.2779   -2.7630 H   0  0  0  0  0  0  0  0  0  0  0  0
   -1.6136   -0.9227   -1.6562 H   0  0  0  0  0  0  0  0  0  0  0  0
   -5.0898    0.6100   -1.4926 H   0  0  0  0  0  0  0  0  0  0  0  0
   -4.6408    1.9537   -0.4287 H   0  0  0  0  0  0  0  0  0  0  0  0
   -4.0109    1.8762   -2.0752 H   0  0  0  0  0  0  0  0  0  0  0  0
    3.0315   -0.3632   -2.5770 H   0  0  0  0  0  0  0  0  0  0  0  0
    4.7733    0.7815    1.2072 H   0  0  0  0  0  0  0  0  0  0  0  0
    4.6770   -2.1905   -2.7673 H   0  0  0  0  0  0  0  0  0  0  0  0
    6.4163   -1.0491    0.9896 H   0  0  0  0  0  0  0  0  0  0  0  0
    6.3751   -2.5355   -0.9943 H   0  0  0  0  0  0  0  0  0  0  0  0
   -1.9721    0.9474   -0.3931 H   0  0  0  0  0  0  0  0  0  0  0  0
    2.1829   -0.1212    1.4396 H   0  0  0  0  0  0  0  0  0  0  0  0
   -2.4812   -1.9583   -0.3701 H   0  0  0  0  0  0  0  0  0  0  0  0
   -2.2356   -0.9835    1.0746 H   0  0  0  0  0  0  0  0  0  0  0  0
    2.2905    1.7289   -0.1596 H   0  0  0  0  0  0  0  0  0  0  0  0
    2.2726    0.5117   -1.4344 H   0  0  0  0  0  0  0  0  0  0  0  0
    0.0450    0.2774   -1.6007 H   0  0  0  0  0  0  0  0  0  0  0  0
   -0.2193   -1.3549   -1.0204 H   0  0  0  0  0  0  0  0  0  0  0  0
   -0.0569   -0.5198    1.3572 H   0  0  0  0  0  0  0  0  0  0  0  0
    0.1959    1.1210    0.7866 H   0  0  0  0  0  0  0  0  0  0  0  0
    4.0598   -1.3569   -1.3733 H   0  0  0  0  0  0  0  0  0  0  0  0
    4.3436    2.2540    0.9677 H   0  0  0  0  0  0  0  0  0  0  0  0
   -4.0541    0.2685    2.0228 H   0  0  0  0  0  0  0  0  0  0  0  0
   -4.3887   -1.2920   -1.9839 H   0  0  0  0  0  0  0  0  0  0  0  0
    6.4977   -1.6969   -1.1281 H   0  0  0  0  0  0  0  0  0  0  0  0
   -6.4424    0.8943    1.9690 H   0  0  0  0  0  0  0  0  0  0  0  0
   -6.7818   -0.6670   -2.0188 H   0  0  0  0  0  0  0  0  0  0  0  0
    6.7742    1.8949    1.2123 H   0  0  0  0  0  0  0  0  0  0  0  0
    7.8581   -0.0745    0.1647 H   0  0  0  0  0  0  0  0  0  0  0  0
   -7.8126    0.4270   -0.0449 H   0  0  0  0  0  0  0  0  0  0  0  0
   -1.5262    1.9080    1.2857 H   0  0  0  0  0  0  0  0  0  0  0  0
    0.4071    0.7304    2.2714 H   0  0  0  0  0  0  0  0  0  0  0  0
   -3.0499   -1.7588    0.8166 H   0  0  0  0  0  0  0  0  0  0  0  0
    0.8853   -1.2026    0.0943 H   0  0  0  0  0  0  0  0  0  0  0  0
    2.3625   -0.9270   -1.4861 H   0  0  0  0  0  0  0  0  0  0  0  0
    2.4866    0.6891   -2.1501 H   0  0  0  0  0  0  0  0  0  0  0  0
   -6.1798   -1.4782    2.2583 H   0  0  0  0  0  0  0  0  0  0  0  0
   -4.2866   -0.2717   -2.2945 H   0  0  0  0  0  0  0  0  0  0  0  0
   -5.2322   -1.1069   -1.0646 H   0  0  0  0  0  0  0  0  0  0  0  0
   -3.6407   -1.7232   -1.5082 H   0  0  0  0  0  0  0  0  0  0  0  0
   -4.0139    1.9980    0.7256 H   0  0  0  0  0  0  0  0  0  0  0  0
   -4.4917    1.9268   -0.9761 H   0  0  0  0  0  0  0  0  0  0  0  0
   -5.4522    1.0995    0.2417 H   0  0  0  0  0  0  0  0  0  0  0  0
    4.6854    1.5876   -2.3169 H   0  0  0  0  0  0  0  0  0  0  0  0
    3.8683   -1.3197    0.7725 H   0  0  0  0  0  0  0  0  0  0  0  0
    7.0561    1.6178   -1.6436 H   0  0  0  0  0  0  0  0  0  0  0  0
    6.2418   -1.2644    1.4340 H   0  0  0  0  0  0  0  0  0  0  0  0
    7.8424    0.1990    0.2328 H   0  0  0  0  0  0  0  0  0  0  0  0
   -0.7831   -0.0972    0.0000 H   0  0  0  0  0  0  0  0  0  0  0  0
    0.7317   -0.2969    0.0000 H   0  0  0  0  0  0  0  0  0  0  0  0
   -0.7886   -0.0292    0.0000 H   0  0  0  0  0  0  0  0  0  0  0  0
    0.7034   -0.3588    0.0000 H   0  0  0  0  0  0  0  0  0  0  0  0
    0.7698   -0.1746    0.0000 H   0  0  0  0  0  0  0  0  0  0  0  0
   -0.7573   -0.2226    0.0000 H   0  0  0  0  0  0  0  0  0  0  0  0
  3  2  1  0
  4  2  1  0
  5  3  1  0
  6  2  1  0
  3  7  1  0
  8  6  1  0
  5  9  1  0
  6 10  1  0
 11  9  1  0
 12  4  2  0
 13 10  2  0
 14 11  2  0
 15 11  1  0
 16 10  1  0
 17  8  1  0
 18  8  1  0
 19 15  1  0
 20 19  2  0
 21 19  1  0
 22 20  1  0
 23 21  2  0
 24 23  1  0
  7  8  1  0
  4  5  1  0
 24 22  2  0
 26 32  1  0
 27 30  1  0
 28 29  1  0
 29 25  1  0
 30 26  1  0
 31 25  1  0
 32 31  1  0
 33 27  2  0
 34 27  1  0
 35 28  2  0
 36 28  1  0
 37 33  1  0
 38 35  1  0
 39 36  2  0
 40 34  2  0
 41 37  2  0
 42 39  1  0
 42 38  2  0
 40 41  1  0
 44 43  1  0
 45 43  1  0
 46 44  1  0
 47 43  1  0
 44 48  1  0
 49 47  1  0
 46 50  1  0
 47 51  1  0
 52 50  1  0
 53 45  2  0
 54 51  2  0
 55 52  2  0
 56 52  1  0
 57 51  1  0
 58 49  1  0
 59 49  1  0
 60 56  1  0
 61 60  2  0
 62 60  1  0
 63 61  1  0
 64 62  2  0
 65 64  1  0
 48 49  1  0
 45 46  1  0
 65 63  2  0
  1 69  1  0
  1 70  1  0
  3 71  1  1
  5 72  1  1
  6 73  1  6
  9 74  1  0
 15 75  1  0
 15 76  1  0
 16 77  1  0
 17 78  1  0
 17 79  1  0
 17 80  1  0
 18 81  1  0
 18 82  1  0
 18 83  1  0
 20 84  1  0
 21 85  1  0
 22 86  1  0
 23 87  1  0
 24 88  1  0
 25 89  1  0
 26 90  1  0
 29 91  1  0
 29 92  1  0
 30 93  1  0
 30 94  1  0
 31 95  1  0
 31 96  1  0
 32 97  1  0
 32 98  1  0
 33 99  1  0
 34100  1  0
 35101  1  0
 36102  1  0
 37103  1  0
 38104  1  0
 39105  1  0
 40106  1  0
 41107  1  0
 42108  1  0
 44109  1  1
 46110  1  1
 47111  1  6
 50112  1  0
 56113  1  0
 56114  1  0
 57115  1  0
 58116  1  0
 58117  1  0
 58118  1  0
 59119  1  0
 59120  1  0
 59121  1  0
 61122  1  0
 62123  1  0
 63124  1  0
 64125  1  0
 65126  1  0
 66127  1  0
 66128  1  0
 67129  1  0
 67130  1  0
 68131  1  0
 68132  1  0
M  END
$$$$
