
     RDKit          3D

132133  0  0  0  0  0  0  0  0999 V2000
    0.0129    0.3977    0.0000 O   0  0  0  0  0  0  0  0  0  0  0  0
   -2.2597    1.3310    0.9253 N   0  0  0  0  0  0  0  0  0  0  0  0
   -1.2474    1.3654   -0.1499 C   0  0  1  0  0  0  0  0  0  0  0  0
   -1.3489    0.9902    1.8905 C   0  0  0  0  0  0  0  0  0  0  0  0
   -0.1534    1.2225    0.9381 C   0  0  1  0  0  0  0  0  0  0  0  0
   -3.4328    0.4791    0.7262 C   0  0  2  0  0  0  0  0  0  0  0  0
   -1.6534   -0.1099   -1.1735 S   0  0  0  0  0  0  0  0  0  0  0  0
   -3.4531    0.0301   -0.7476 C   0  0  0  0  0  0  0  0  0  0  0  0
    0.7982    0.0852    0.8160 N   0  0  0  0  0  0  0  0  0  0  0  0
   -4.6959    1.2096    1.1625 C   0  0  0  0  0  0  0  0  0  0  0  0
    1.7798    0.0880   -0.1556 C   0  0  0  0  0  0  0  0  0  0  0  0
   -1.5059    0.5277    2.9971 O   0  0  0  0  0  0  0  0  0  0  0  0
   -4.8911    2.4149    1.1724 O   0  0  0  0  0  0  0  0  0  0  0  0
    1.9556    1.0560   -0.8926 O   0  0  0  0  0  0  0  0  0  0  0  0
    2.5637   -1.2091   -0.2611 C   0  0  0  0  0  0  0  0  0  0  0  0
   -5.6860    0.3625    1.5187 O   0  0  0  0  0  0  0  0  0  0  0  0
   -4.0989   -1.3461   -0.9188 C   0  0  0  0  0  0  0  0  0  0  0  0
   -4.0932    1.0378   -1.7113 C   0  0  0  0  0  0  0  0  0  0  0  0
    4.0586   -1.0162   -0.2967 C   0  0  0  0  0  0  0  0  0  0  0  0
    4.8214   -1.1180    0.8752 C   0  0  0  0  0  0  0  0  0  0  0  0
    4.7080   -0.7288   -1.5053 C   0  0  0  0  0  0  0  0  0  0  0  0
    6.2081   -0.9549    0.8341 C   0  0  0  0  0  0  0  0  0  0  0  0
    6.0940   -0.5695   -1.5444 C   0  0  0  0  0  0  0  0  0  0  0  0
    6.8447   -0.6863   -0.3761 C   0  0  0  0  0  0  0  0  0  0  0  0
    1.5472   -1.0639    0.2606 N   0  0  0  0  0  0  0  0  0  0  0  0
   -1.0497    0.4180    0.3390 N   0  0  0  0  0  0  0  0  0  0  0  0
   -3.5163    0.6781    0.0831 C   0  0  0  0  0  0  0  0  0  0  0  0
    3.6001    0.1210   -0.3497 C   0  0  0  0  0  0  0  0  0  0  0  0
    2.2100   -0.2879   -0.7850 C   0  0  0  0  0  0  0  0  0  0  0  0
   -2.1493    1.3120   -0.0112 C   0  0  0  0  0  0  0  0  0  0  0  0
    0.2777   -1.6426   -0.1943 C   0  0  0  0  0  0  0  0  0  0  0  0
   -0.8178   -0.6426   -0.6449 C   0  0  0  0  0  0  0  0  0  0  0  0
   -4.2502    0.3953   -1.0786 C   0  0  0  0  0  0  0  0  0  0  0  0
   -4.0714    0.3531    1.3295 C   0  0  0  0  0  0  0  0  0  0  0  0
    3.7712    1.0933    0.6468 C   0  0  0  0  0  0  0  0  0  0  0  0
    4.7348   -0.4690   -0.9259 C   0  0  0  0  0  0  0  0  0  0  0  0
   -5.5131   -0.1934   -0.9945 C   0  0  0  0  0  0  0  0  0  0  0  0
    5.0496    1.4773    1.0520 C   0  0  0  0  0  0  0  0  0  0  0  0
    6.0135   -0.0852   -0.5144 C   0  0  0  0  0  0  0  0  0  0  0  0
   -5.3342   -0.2358    1.4128 C   0  0  0  0  0  0  0  0  0  0  0  0
   -6.0541   -0.5104    0.2508 C   0  0  0  0  0  0  0  0  0  0  0  0
    6.1706    0.8892    0.4697 C   0  0  0  0  0  0  0  0  0  0  0  0
   -2.4450    0.7301   -1.6702 N   0  0  0  0  0  0  0  0  0  0  0  0
   -1.3709   -0.2739   -1.6103 C   0  0  1  0  0  0  0  0  0  0  0  0
   -1.6362    1.7611   -1.2929 C   0  0  0  0  0  0  0  0  0  0  0  0
   -0.3634    0.9059   -1.4926 C   0  0  1  0  0  0  0  0  0  0  0  0
   -3.6897    0.4295   -0.9725 C   0  0  2  0  0  0  0  0  0  0  0  0
   -1.7151   -1.2515   -0.0912 S   0  0  0  0  0  0  0  0  0  0  0  0
   -3.3238   -0.4116    0.2782 C   0  0  0  0  0  0  0  0  0  0  0  0
    0.5941    0.8921   -0.3525 N   0  0  0  0  0  0  0  0  0  0  0  0
   -4.6851   -0.2483   -1.9218 C   0  0  0  0  0  0  0  0  0  0  0  0
    1.6024   -0.0488   -0.2941 C   0  0  0  0  0  0  0  0  0  0  0  0
   -1.8935    2.8569   -0.8513 O   0  0  0  0  0  0  0  0  0  0  0  0
   -5.8544   -0.4971   -1.6635 O   0  0  0  0  0  0  0  0  0  0  0  0
    1.7813   -0.8621   -1.1958 O   0  0  0  0  0  0  0  0  0  0  0  0
    2.4135   -0.0111    0.9885 C   0  0  0  0  0  0  0  0  0  0  0  0
   -4.1851   -0.6008   -3.1225 O   0  0  0  0  0  0  0  0  0  0  0  0
   -4.3351   -1.4963    0.6672 C   0  0  0  0  0  0  0  0  0  0  0  0
   -3.0946    0.4919    1.5030 C   0  0  0  0  0  0  0  0  0  0  0  0
    3.9020   -0.0646    0.7559 C   0  0  0  0  0  0  0  0  0  0  0  0
    4.6407    1.1144    0.5822 C   0  0  0  0  0  0  0  0  0  0  0  0
    4.5646   -1.2978    0.6932 C   0  0  0  0  0  0  0  0  0  0  0  0
    6.0195    1.0605    0.3665 C   0  0  0  0  0  0  0  0  0  0  0  0
    5.9431   -1.3477    0.4775 C   0  0  0  0  0  0  0  0  0  0  0  0
    6.6712   -0.1701    0.3173 C   0  0  0  0  0  0  0  0  0  0  0  0
    0.0181    0.3977    0.0000 O   0  0  0  0  0  0  0  0  0  0  0  0
   -0.0009    0.3978    0.0000 O   0  0  0  0  0  0  0  0  0  0  0  0
    0.0011    0.3979    0.0000 O   0  0  0  0  0  0  0  0  0  0  0  0
    0.7566   -0.2235    0.0000 H   0  0  0  0  0  0  0  0  0  0  0  0
   -0.7694   -0.1743    0.0000 H   0  0  0  0  0  0  0  0  0  0  0  0
   -1.2465    2.3167   -0.6925 H   0  0  0  0  0  0  0  0  0  0  0  0
    0.3760    2.1546    1.1687 H   0  0  0  0  0  0  0  0  0  0  0  0
   -3.3253   -0.3910    1.3905 H   0  0  0  0  0  0  0  0  0  0  0  0
    0.6170   -0.7719    1.3334 H   0  0  0  0  0  0  0  0  0  0  0  0
    2.3061   -1.8805    0.5676 H   0  0  0  0  0  0  0  0  0  0  0  0
    2.2324   -1.7223   -1.1734 H   0  0  0  0  0  0  0  0  0  0  0  0
   -6.4182    0.9550    1.7937 H   0  0  0  0  0  0  0  0  0  0  0  0
   -3.6293   -2.0975   -0.2746 H   0  0  0  0  0  0  0  0  0  0  0  0
   -5.1611   -1.3116   -0.6538 H   0  0  0  0  0  0  0  0  0  0  0  0
   -4.0356   -1.6998   -1.9546 H   0  0  0  0  0  0  0  0  0  0  0  0
   -5.1728    1.1136   -1.5338 H   0  0  0  0  0  0  0  0  0  0  0  0
   -3.6708    2.0434   -1.6056 H   0  0  0  0  0  0  0  0  0  0  0  0
   -3.9675    0.7296   -2.7569 H   0  0  0  0  0  0  0  0  0  0  0  0
    4.3434   -1.3282    1.8297 H   0  0  0  0  0  0  0  0  0  0  0  0
    4.1357   -0.6233   -2.4251 H   0  0  0  0  0  0  0  0  0  0  0  0
    6.7932   -1.0408    1.7460 H   0  0  0  0  0  0  0  0  0  0  0  0
    6.5875   -0.3491   -2.4868 H   0  0  0  0  0  0  0  0  0  0  0  0
    7.9237   -0.5580   -0.4074 H   0  0  0  0  0  0  0  0  0  0  0  0
    2.1708   -1.8129    0.5542 H   0  0  0  0  0  0  0  0  0  0  0  0
   -1.1950    0.0070    1.2584 H   0  0  0  0  0  0  0  0  0  0  0  0
    1.6440    0.6220   -1.0206 H   0  0  0  0  0  0  0  0  0  0  0  0
    2.2804   -0.8720   -1.7115 H   0  0  0  0  0  0  0  0  0  0  0  0
   -2.1276    2.1710    0.6718 H   0  0  0  0  0  0  0  0  0  0  0  0
   -1.9879    1.7394   -1.0101 H   0  0  0  0  0  0  0  0  0  0  0  0
   -0.1260   -2.2267    0.6426 H   0  0  0  0  0  0  0  0  0  0  0  0
    0.4645   -2.3585   -1.0043 H   0  0  0  0  0  0  0  0  0  0  0  0
   -1.7327   -1.2209   -0.8140 H   0  0  0  0  0  0  0  0  0  0  0  0
   -0.5334   -0.1943   -1.6033 H   0  0  0  0  0  0  0  0  0  0  0  0
   -3.8414    0.6373   -2.0578 H   0  0  0  0  0  0  0  0  0  0  0  0
   -3.5213    0.5666    2.2433 H   0  0  0  0  0  0  0  0  0  0  0  0
    2.8978    1.5470    1.1096 H   0  0  0  0  0  0  0  0  0  0  0  0
    4.6312   -1.2323   -1.6942 H   0  0  0  0  0  0  0  0  0  0  0  0
   -6.0726   -0.4047   -1.9010 H   0  0  0  0  0  0  0  0  0  0  0  0
    5.1687    2.2313    1.8247 H   0  0  0  0  0  0  0  0  0  0  0  0
    6.8888   -0.5453   -0.9691 H   0  0  0  0  0  0  0  0  0  0  0  0
   -5.7555   -0.4804    2.3844 H   0  0  0  0  0  0  0  0  0  0  0  0
   -7.0380   -0.9677    0.3153 H   0  0  0  0  0  0  0  0  0  0  0  0
    7.1664    1.1874    0.7848 H   0  0  0  0  0  0  0  0  0  0  0  0
   -1.2902   -0.8657   -2.5268 H   0  0  0  0  0  0  0  0  0  0  0  0
    0.1514    1.1529   -2.4303 H   0  0  0  0  0  0  0  0  0  0  0  0
   -4.1537    1.3820   -0.6852 H   0  0  0  0  0  0  0  0  0  0  0  0
    0.4237    1.4926    0.4481 H   0  0  0  0  0  0  0  0  0  0  0  0
    2.1736    0.8882    1.5661 H   0  0  0  0  0  0  0  0  0  0  0  0
    2.0950   -0.8596    1.6064 H   0  0  0  0  0  0  0  0  0  0  0  0
   -4.9389   -1.0157   -3.5945 H   0  0  0  0  0  0  0  0  0  0  0  0
   -4.4738   -2.2391   -0.1273 H   0  0  0  0  0  0  0  0  0  0  0  0
   -5.3144   -1.0533    0.8884 H   0  0  0  0  0  0  0  0  0  0  0  0
   -4.0187   -2.0389    1.5671 H   0  0  0  0  0  0  0  0  0  0  0  0
   -2.3299    1.2528    1.3298 H   0  0  0  0  0  0  0  0  0  0  0  0
   -4.0200    1.0143    1.7737 H   0  0  0  0  0  0  0  0  0  0  0  0
   -2.7825   -0.0864    2.3813 H   0  0  0  0  0  0  0  0  0  0  0  0
    4.1516    2.0846    0.6177 H   0  0  0  0  0  0  0  0  0  0  0  0
    4.0080   -2.2262    0.8057 H   0  0  0  0  0  0  0  0  0  0  0  0
    6.5863    1.9790    0.2323 H   0  0  0  0  0  0  0  0  0  0  0  0
    6.4478   -2.3091    0.4297 H   0  0  0  0  0  0  0  0  0  0  0  0
    7.7442   -0.2133    0.1506 H   0  0  0  0  0  0  0  0  0  0  0  0
    0.7535   -0.2336    0.0000 H   0  0  0  0  0  0  0  0  0  0  0  0
   -0.7717   -0.1640    0.0000 H   0  0  0  0  0  0  0  0  0  0  0  0
    0.7637   -0.1974    0.0000 H   0  0  0  0  0  0  0  0  0  0  0  0
   -0.7629   -0.2004    0.0000 H   0  0  0  0  0  0  0  0  0  0  0  0
   -0.7640   -0.1968    0.0000 H   0  0  0  0  0  0  0  0  0  0  0  0
    0.7628   -0.2011    0.0000 H   0  0  0  0  0  0  0  0  0  0  0  0
  3  2  1  0
  4  2  1  0
  5  3  1  0
  6  2  1  0
  3  7  1  0
  8  6  1  0
  5  9  1  0
  6 10  1  0
 11  9  1  0
 12  4  2  0
 13 10  2  0
 14 11  2  0
 15 11  1  0
 16 10  1  0
 17  8  1  0
 18  8  1  0
 19 15  1  0
 20 19  2  0
 21 19  1  0
 22 20  1  0
 23 21  2  0
 24 23  1  0
  7  8  1  0
  4  5  1  0
 24 22  2  0
 26 32  1  0
 27 30  1  0
 28 29  1  0
 29 25  1  0
 30 26  1  0
 31 25  1  0
 32 31  1  0
 33 27  2  0
 34 27  1  0
 35 28  2  0
 36 28  1  0
 37 33  1  0
 38 35  1  0
 39 36  2  0
 40 34  2  0
 41 37  2  0
 42 39  1  0
 42 38  2  0
 40 41  1  0
 44 43  1  0
 45 43  1  0
 46 44  1  0
 47 43  1  0
 44 48  1  0
 49 47  1  0
 46 50  1  0
 47 51  1  0
 52 50  1  0
 53 45  2  0
 54 51  2  0
 55 52  2  0
 56 52  1  0
 57 51  1  0
 58 49  1  0
 59 49  1  0
 60 56  1  0
 61 60  2  0
 62 60  1  0
 63 61  1  0
 64 62  2  0
 65 64  1  0
 48 49  1  0
 45 46  1  0
 65 63  2  0
  1 69  1  0
  1 70  1  0
  3 71  1  6
  5 72  1  1
  6 73  1  1
  9 74  1  0
 15 75  1  0
 15 76  1  0
 16 77  1  0
 17 78  1  0
 17 79  1  0
 17 80  1  0
 18 81  1  0
 18 82  1  0
 18 83  1  0
 20 84  1  0
 21 85  1  0
 22 86  1  0
 23 87  1  0
 24 88  1  0
 25 89  1  0
 26 90  1  0
 29 91  1  0
 29 92  1  0
 30 93  1  0
 30 94  1  0
 31 95  1  0
 31 96  1  0
 32 97  1  0
 32 98  1  0
 33 99  1  0
 34100  1  0
 35101  1  0
 36102  1  0
 37103  1  0
 38104  1  0
 39105  1  0
 40106  1  0
 41107  1  0
 42108  1  0
 44109  1  6
 46110  1  6
 47111  1  1
 50112  1  0
 56113  1  0
 56114  1  0
 57115  1  0
 58116  1  0
 58117  1  0
 58118  1  0
 59119  1  0
 59120  1  0
 59121  1  0
 61122  1  0
 62123  1  0
 63124  1  0
 64125  1  0
 65126  1  0
 66127  1  0
 66128  1  0
 67129  1  0
 67130  1  0
 68131  1  0
 68132  1  0
M  END
$$$$
