
     RDKit          2D

 11 12  0  0  0  0  0  0  0  0999 V2000
    0.9667   -1.4000    0.0000 O   0  0  0  0  0  0  0  0  0  0  0  0
    2.3042   -0.6250    0.0000 C   0  0  0  0  0  0  0  0  0  0  0  0
    0.9667    1.6833    0.0000 C   0  0  0  0  0  0  0  0  0  0  0  0
   -0.3708   -0.6250    0.0000 C   0  0  0  0  0  0  0  0  0  0  0  0
    2.3042    0.9125    0.0000 C   0  0  0  0  0  0  0  0  0  0  0  0
   -0.3708    0.9125    0.0000 C   0  0  0  0  0  0  0  0  0  0  0  0
    3.6375   -1.4000    0.0000 O   0  0  0  0  0  0  0  0  0  0  0  0
   -1.7000   -1.4000    0.0000 C   0  0  0  0  0  0  0  0  0  0  0  0
   -1.7000    1.6833    0.0000 C   0  0  0  0  0  0  0  0  0  0  0  0
   -3.0375   -0.6250    0.0000 C   0  0  0  0  0  0  0  0  0  0  0  0
   -3.0375    0.9125    0.0000 C   0  0  0  0  0  0  0  0  0  0  0  0
  2  1  1  0
  3  6  1  0
  4  1  1  0
  5  2  1  0
  6  4  2  0
  7  2  2  0
  8  4  1  0
  9  6  1  0
 10  8  2  0
 11 10  1  0
  5  3  2  0
  9 11  2  0
M  END
> <chembl_id>
CHEMBL6466

> <chembl_pref_name>
COUMARIN
