
     RDKit          3D

 17 18  0  0  0  0  0  0  0  0999 V2000
    1.2801   -1.5079    0.1401 O   0  0  0  0  0  0  0  0  0  0  0  0
    2.4970   -0.8419    0.0988 C   0  0  0  0  0  0  0  0  0  0  0  0
    1.3049    1.3068   -0.0936 C   0  0  0  0  0  0  0  0  0  0  0  0
    0.0630   -0.8026    0.0674 C   0  0  0  0  0  0  0  0  0  0  0  0
    2.4529    0.6261   -0.0238 C   0  0  0  0  0  0  0  0  0  0  0  0
    0.0435    0.5862   -0.0482 C   0  0  0  0  0  0  0  0  0  0  0  0
    3.5703   -1.4308    0.1601 O   0  0  0  0  0  0  0  0  0  0  0  0
   -1.1119   -1.5492    0.1159 C   0  0  0  0  0  0  0  0  0  0  0  0
   -1.1881    1.2405   -0.1168 C   0  0  0  0  0  0  0  0  0  0  0  0
   -2.3374   -0.8892    0.0470 C   0  0  0  0  0  0  0  0  0  0  0  0
   -2.3756    0.5026   -0.0691 C   0  0  0  0  0  0  0  0  0  0  0  0
    1.2959    2.3872   -0.1835 H   0  0  0  0  0  0  0  0  0  0  0  0
    3.4145    1.1238   -0.0540 H   0  0  0  0  0  0  0  0  0  0  0  0
   -1.0726   -2.6307    0.2063 H   0  0  0  0  0  0  0  0  0  0  0  0
   -1.2393    2.3226   -0.2074 H   0  0  0  0  0  0  0  0  0  0  0  0
   -3.2635   -1.4577    0.0835 H   0  0  0  0  0  0  0  0  0  0  0  0
   -3.3338    1.0145   -0.1227 H   0  0  0  0  0  0  0  0  0  0  0  0
  2  1  1  0
  3  6  1  0
  4  1  1  0
  5  2  1  0
  6  4  2  0
  7  2  2  0
  8  4  1  0
  9  6  1  0
 10  8  2  0
 11 10  1  0
  5  3  2  0
  9 11  2  0
  3 12  1  0
  5 13  1  0
  8 14  1  0
  9 15  1  0
 10 16  1  0
 11 17  1  0
M  END
$$$$
