
     RDKit          3D

 17 18  0  0  0  0  0  0  0  0999 V2000
   -1.3789   -1.4163   -0.1572 O   0  0  0  0  0  0  0  0  0  0  0  0
   -2.5479   -0.6787   -0.0330 C   0  0  0  0  0  0  0  0  0  0  0  0
   -1.2135    1.3792    0.2105 C   0  0  0  0  0  0  0  0  0  0  0  0
   -0.1171   -0.7928   -0.1027 C   0  0  0  0  0  0  0  0  0  0  0  0
   -2.4048    0.7758    0.1571 C   0  0  0  0  0  0  0  0  0  0  0  0
   -0.0037    0.5846    0.0778 C   0  0  0  0  0  0  0  0  0  0  0  0
   -3.6585   -1.1957   -0.0767 O   0  0  0  0  0  0  0  0  0  0  0  0
    1.0046   -1.6078   -0.2362 C   0  0  0  0  0  0  0  0  0  0  0  0
    1.2691    1.1566    0.1252 C   0  0  0  0  0  0  0  0  0  0  0  0
    2.2717   -1.0297   -0.1879 C   0  0  0  0  0  0  0  0  0  0  0  0
    2.4039    0.3494   -0.0076 C   0  0  0  0  0  0  0  0  0  0  0  0
   -1.1315    2.4511    0.3511 H   0  0  0  0  0  0  0  0  0  0  0  0
   -3.3304    1.3303    0.2516 H   0  0  0  0  0  0  0  0  0  0  0  0
    0.8923   -2.6789   -0.3760 H   0  0  0  0  0  0  0  0  0  0  0  0
    1.3933    2.2276    0.2647 H   0  0  0  0  0  0  0  0  0  0  0  0
    3.1572   -1.6522   -0.2905 H   0  0  0  0  0  0  0  0  0  0  0  0
    3.3944    0.7973    0.0297 H   0  0  0  0  0  0  0  0  0  0  0  0
  2  1  1  0
  3  6  1  0
  4  1  1  0
  5  2  1  0
  6  4  2  0
  7  2  2  0
  8  4  1  0
  9  6  1  0
 10  8  2  0
 11 10  1  0
  5  3  2  0
  9 11  2  0
  3 12  1  0
  5 13  1  0
  8 14  1  0
  9 15  1  0
 10 16  1  0
 11 17  1  0
M  END
$$$$
