
     RDKit          3D

 17 18  0  0  0  0  0  0  0  0999 V2000
   -1.3125    1.4639   -0.2577 O   0  0  0  0  0  0  0  0  0  0  0  0
   -2.5148    0.7837   -0.1241 C   0  0  0  0  0  0  0  0  0  0  0  0
   -1.2765   -1.3143    0.2500 C   0  0  0  0  0  0  0  0  0  0  0  0
   -0.0803    0.7909   -0.1440 C   0  0  0  0  0  0  0  0  0  0  0  0
   -2.4390   -0.6642    0.1400 C   0  0  0  0  0  0  0  0  0  0  0  0
   -0.0308   -0.5793    0.1062 C   0  0  0  0  0  0  0  0  0  0  0  0
   -3.6006    1.3446   -0.2184 O   0  0  0  0  0  0  0  0  0  0  0  0
    1.0783    1.5499   -0.2916 C   0  0  0  0  0  0  0  0  0  0  0  0
    1.2147   -1.2017    0.2105 C   0  0  0  0  0  0  0  0  0  0  0  0
    2.3178    0.9217   -0.1862 C   0  0  0  0  0  0  0  0  0  0  0  0
    2.3861   -0.4511    0.0643 C   0  0  0  0  0  0  0  0  0  0  0  0
   -1.2441   -2.3804    0.4447 H   0  0  0  0  0  0  0  0  0  0  0  0
   -3.3896   -1.1735    0.2404 H   0  0  0  0  0  0  0  0  0  0  0  0
    1.0156    2.6165   -0.4862 H   0  0  0  0  0  0  0  0  0  0  0  0
    1.2892   -2.2688    0.4050 H   0  0  0  0  0  0  0  0  0  0  0  0
    3.2314    1.5002   -0.2989 H   0  0  0  0  0  0  0  0  0  0  0  0
    3.3551   -0.9382    0.1460 H   0  0  0  0  0  0  0  0  0  0  0  0
  2  1  1  0
  3  6  1  0
  4  1  1  0
  5  2  1  0
  6  4  2  0
  7  2  2  0
  8  4  1  0
  9  6  1  0
 10  8  2  0
 11 10  1  0
  5  3  2  0
  9 11  2  0
  3 12  1  0
  5 13  1  0
  8 14  1  0
  9 15  1  0
 10 16  1  0
 11 17  1  0
M  END
$$$$
