
     RDKit          3D

 17 18  0  0  0  0  0  0  0  0999 V2000
   -0.7538    1.8341   -0.0035 O   0  0  0  0  0  0  0  0  0  0  0  0
   -2.1150    1.5731   -0.0766 C   0  0  0  0  0  0  0  0  0  0  0  0
   -1.6415   -0.8456   -0.0981 C   0  0  0  0  0  0  0  0  0  0  0  0
    0.1865    0.7857    0.0241 C   0  0  0  0  0  0  0  0  0  0  0  0
   -2.5237    0.1579   -0.1236 C   0  0  0  0  0  0  0  0  0  0  0  0
   -0.2212   -0.5462   -0.0213 C   0  0  0  0  0  0  0  0  0  0  0  0
   -2.9544    2.4660   -0.1020 O   0  0  0  0  0  0  0  0  0  0  0  0
    1.5325    1.1366    0.0981 C   0  0  0  0  0  0  0  0  0  0  0  0
    0.7485   -1.5504    0.0085 C   0  0  0  0  0  0  0  0  0  0  0  0
    2.4947    0.1289    0.1275 C   0  0  0  0  0  0  0  0  0  0  0  0
    2.1038   -1.2117    0.0828 C   0  0  0  0  0  0  0  0  0  0  0  0
   -1.9646   -1.8799   -0.1337 H   0  0  0  0  0  0  0  0  0  0  0  0
   -3.5905   -0.0210   -0.1804 H   0  0  0  0  0  0  0  0  0  0  0  0
    1.8271    2.1813    0.1324 H   0  0  0  0  0  0  0  0  0  0  0  0
    0.4649   -2.5993   -0.0253 H   0  0  0  0  0  0  0  0  0  0  0  0
    3.5495    0.3863    0.1852 H   0  0  0  0  0  0  0  0  0  0  0  0
    2.8573   -1.9956    0.1060 H   0  0  0  0  0  0  0  0  0  0  0  0
  2  1  1  0
  3  6  1  0
  4  1  1  0
  5  2  1  0
  6  4  2  0
  7  2  2  0
  8  4  1  0
  9  6  1  0
 10  8  2  0
 11 10  1  0
  5  3  2  0
  9 11  2  0
  3 12  1  0
  5 13  1  0
  8 14  1  0
  9 15  1  0
 10 16  1  0
 11 17  1  0
M  END
$$$$
