
     RDKit          3D

 11 12  0  0  0  0  0  0  0  0999 V2000
    0.9530   -1.1509    0.0029 O   0  0  0  0  0  0  0  0  0  0  0  0
    2.0446   -0.4329   -0.2093 C   0  0  0  0  0  0  0  0  0  0  0  0
    0.7509    1.6036   -0.2635 C   0  0  0  0  0  0  0  0  0  0  0  0
   -0.2392   -0.5730    0.0905 C   0  0  0  0  0  0  0  0  0  0  0  0
    1.9817    0.9419   -0.3470 C   0  0  0  0  0  0  0  0  0  0  0  0
   -0.3641    0.7958   -0.0388 C   0  0  0  0  0  0  0  0  0  0  0  0
    3.1513   -1.0473   -0.2824 O   0  0  0  0  0  0  0  0  0  0  0  0
   -1.3467   -1.3859    0.3148 C   0  0  0  0  0  0  0  0  0  0  0  0
   -1.6125    1.3874    0.0543 C   0  0  0  0  0  0  0  0  0  0  0  0
   -2.5859   -0.7535    0.4024 C   0  0  0  0  0  0  0  0  0  0  0  0
   -2.7331    0.6148    0.2759 C   0  0  0  0  0  0  0  0  0  0  0  0
  2  1  1  0
  3  6  1  0
  4  1  1  0
  5  2  1  0
  6  4  2  0
  7  2  2  0
  8  4  1  0
  9  6  1  0
 10  8  2  0
 11 10  1  0
  5  3  2  0
  9 11  2  0
M  END
