
     RDKit          3D

 17 18  0  0  0  0  0  0  0  0999 V2000
    1.1234   -1.6191   -0.2208 O   0  0  0  0  0  0  0  0  0  0  0  0
    2.3963   -1.1003   -0.0292 C   0  0  0  0  0  0  0  0  0  0  0  0
    1.4229    1.1371    0.3189 C   0  0  0  0  0  0  0  0  0  0  0  0
   -0.0158   -0.7937   -0.1502 C   0  0  0  0  0  0  0  0  0  0  0  0
    2.4959    0.3434    0.2493 C   0  0  0  0  0  0  0  0  0  0  0  0
    0.1004    0.5698    0.1144 C   0  0  0  0  0  0  0  0  0  0  0  0
    3.4041   -1.7958   -0.0851 O   0  0  0  0  0  0  0  0  0  0  0  0
   -1.2549   -1.3960   -0.3551 C   0  0  0  0  0  0  0  0  0  0  0  0
   -1.0582    1.3468    0.1745 C   0  0  0  0  0  0  0  0  0  0  0  0
   -2.4069   -0.6141   -0.2935 C   0  0  0  0  0  0  0  0  0  0  0  0
   -2.3089    0.7543   -0.0293 C   0  0  0  0  0  0  0  0  0  0  0  0
    1.5194    2.1971    0.5251 H   0  0  0  0  0  0  0  0  0  0  0  0
    3.4989    0.7253    0.3953 H   0  0  0  0  0  0  0  0  0  0  0  0
   -1.3215   -2.4605   -0.5599 H   0  0  0  0  0  0  0  0  0  0  0  0
   -1.0033    2.4132    0.3788 H   0  0  0  0  0  0  0  0  0  0  0  0
   -3.3816   -1.0693   -0.4512 H   0  0  0  0  0  0  0  0  0  0  0  0
   -3.2100    1.3616    0.0180 H   0  0  0  0  0  0  0  0  0  0  0  0
  2  1  1  0
  3  6  1  0
  4  1  1  0
  5  2  1  0
  6  4  2  0
  7  2  2  0
  8  4  1  0
  9  6  1  0
 10  8  2  0
 11 10  1  0
  5  3  2  0
  9 11  2  0
  3 12  1  0
  5 13  1  0
  8 14  1  0
  9 15  1  0
 10 16  1  0
 11 17  1  0
M  END
$$$$
