
     RDKit          3D

 17 18  0  0  0  0  0  0  0  0999 V2000
    1.0777   -1.5535    0.5979 O   0  0  0  0  0  0  0  0  0  0  0  0
    2.3565   -1.1615    0.2275 C   0  0  0  0  0  0  0  0  0  0  0  0
    1.4431    0.9478   -0.6621 C   0  0  0  0  0  0  0  0  0  0  0  0
   -0.0352   -0.7248    0.3551 C   0  0  0  0  0  0  0  0  0  0  0  0
    2.4909    0.1525   -0.4263 C   0  0  0  0  0  0  0  0  0  0  0  0
    0.1138    0.5146   -0.2647 C   0  0  0  0  0  0  0  0  0  0  0  0
    3.3418   -1.8628    0.4268 O   0  0  0  0  0  0  0  0  0  0  0  0
   -1.2824   -1.1955    0.7590 C   0  0  0  0  0  0  0  0  0  0  0  0
   -1.0195    1.3002   -0.4838 C   0  0  0  0  0  0  0  0  0  0  0  0
   -2.4090   -0.4057    0.5370 C   0  0  0  0  0  0  0  0  0  0  0  0
   -2.2780    0.8394   -0.0830 C   0  0  0  0  0  0  0  0  0  0  0  0
    1.5651    1.9110   -1.1447 H   0  0  0  0  0  0  0  0  0  0  0  0
    3.4978    0.4368   -0.7062 H   0  0  0  0  0  0  0  0  0  0  0  0
   -1.3747   -2.1647    1.2403 H   0  0  0  0  0  0  0  0  0  0  0  0
   -0.9388    2.2719   -0.9646 H   0  0  0  0  0  0  0  0  0  0  0  0
   -3.3896   -0.7589    0.8465 H   0  0  0  0  0  0  0  0  0  0  0  0
   -3.1594    1.4532   -0.2547 H   0  0  0  0  0  0  0  0  0  0  0  0
  2  1  1  0
  3  6  1  0
  4  1  1  0
  5  2  1  0
  6  4  2  0
  7  2  2  0
  8  4  1  0
  9  6  1  0
 10  8  2  0
 11 10  1  0
  5  3  2  0
  9 11  2  0
  3 12  1  0
  5 13  1  0
  8 14  1  0
  9 15  1  0
 10 16  1  0
 11 17  1  0
M  END
$$$$
