
     RDKit          3D

 17 18  0  0  0  0  0  0  0  0999 V2000
    1.2702   -1.5227   -0.0054 O   0  0  0  0  0  0  0  0  0  0  0  0
    2.4914   -0.8638    0.0245 C   0  0  0  0  0  0  0  0  0  0  0  0
    1.3133    1.3011    0.0419 C   0  0  0  0  0  0  0  0  0  0  0  0
    0.0578   -0.8057   -0.0124 C   0  0  0  0  0  0  0  0  0  0  0  0
    2.4568    0.6093    0.0482 C   0  0  0  0  0  0  0  0  0  0  0  0
    0.0472    0.5877    0.0104 C   0  0  0  0  0  0  0  0  0  0  0  0
    3.5607   -1.4629    0.0312 O   0  0  0  0  0  0  0  0  0  0  0  0
   -1.1219   -1.5458   -0.0430 C   0  0  0  0  0  0  0  0  0  0  0  0
   -1.1800    1.2537    0.0024 C   0  0  0  0  0  0  0  0  0  0  0  0
   -2.3430   -0.8742   -0.0509 C   0  0  0  0  0  0  0  0  0  0  0  0
   -2.3722    0.5224   -0.0282 C   0  0  0  0  0  0  0  0  0  0  0  0
    1.3113    2.3851    0.0598 H   0  0  0  0  0  0  0  0  0  0  0  0
    3.4215    1.1013    0.0714 H   0  0  0  0  0  0  0  0  0  0  0  0
   -1.0896   -2.6312   -0.0604 H   0  0  0  0  0  0  0  0  0  0  0  0
   -1.2241    2.3398    0.0196 H   0  0  0  0  0  0  0  0  0  0  0  0
   -3.2727   -1.4374   -0.0746 H   0  0  0  0  0  0  0  0  0  0  0  0
   -3.3269    1.0434   -0.0345 H   0  0  0  0  0  0  0  0  0  0  0  0
  2  1  1  0
  3  6  1  0
  4  1  1  0
  5  2  1  0
  6  4  2  0
  7  2  2  0
  8  4  1  0
  9  6  1  0
 10  8  2  0
 11 10  1  0
  5  3  2  0
  9 11  2  0
  3 12  1  0
  5 13  1  0
  8 14  1  0
  9 15  1  0
 10 16  1  0
 11 17  1  0
M  END
$$$$
