
     RDKit          3D

 43 46  0  0  0  0  0  0  0  0999 V2000
   -0.4690    0.0131    0.4958 C   0  0  0  0  0  0  0  0  0  0  0  0
   -1.2390   -1.2413    0.6977 C   0  0  0  0  0  0  0  0  0  0  0  0
   -1.2299    1.2868    0.4212 C   0  0  0  0  0  0  0  0  0  0  0  0
    0.8654   -0.0298    0.2325 C   0  0  0  0  0  0  0  0  0  0  0  0
   -2.4967   -0.8698   -1.4764 C   0  0  0  0  0  0  0  0  0  0  0  0
   -2.4827    0.4665   -1.6288 C   0  0  0  0  0  0  0  0  0  0  0  0
    3.8194   -0.1781   -0.4554 N   0  0  0  0  0  0  0  0  0  0  0  0
   -2.1906    1.4761   -0.5925 C   0  0  0  0  0  0  0  0  0  0  0  0
   -2.2131   -1.6316   -0.2436 C   0  0  0  0  0  0  0  0  0  0  0  0
    1.6698   -1.3246    0.1509 C   0  0  0  0  0  0  0  0  0  0  0  0
    1.7129    1.1930   -0.1026 C   0  0  0  0  0  0  0  0  0  0  0  0
    2.8337   -1.2017   -0.8460 C   0  0  0  0  0  0  0  0  0  0  0  0
    3.2004    0.9727    0.2239 C   0  0  0  0  0  0  0  0  0  0  0  0
   -1.0261   -2.0180    1.8485 C   0  0  0  0  0  0  0  0  0  0  0  0
   -1.0491    2.2754    1.4020 C   0  0  0  0  0  0  0  0  0  0  0  0
    4.6163    0.2320   -1.6087 C   0  0  0  0  0  0  0  0  0  0  0  0
   -2.8907    2.6920   -0.6448 C   0  0  0  0  0  0  0  0  0  0  0  0
   -2.9157   -2.8283   -0.0325 C   0  0  0  0  0  0  0  0  0  0  0  0
   -1.7648    3.4708    1.3450 C   0  0  0  0  0  0  0  0  0  0  0  0
   -1.7442   -3.1961    2.0489 C   0  0  0  0  0  0  0  0  0  0  0  0
   -2.6783    3.6827    0.3166 C   0  0  0  0  0  0  0  0  0  0  0  0
   -2.6843   -3.6036    1.1065 C   0  0  0  0  0  0  0  0  0  0  0  0
   -2.7624   -1.4776   -2.3389 H   0  0  0  0  0  0  0  0  0  0  0  0
   -2.7389    0.8717   -2.6055 H   0  0  0  0  0  0  0  0  0  0  0  0
    2.0626   -1.5676    1.1463 H   0  0  0  0  0  0  0  0  0  0  0  0
    1.0486   -2.1654   -0.1752 H   0  0  0  0  0  0  0  0  0  0  0  0
    1.3892    2.0781    0.4499 H   0  0  0  0  0  0  0  0  0  0  0  0
    1.6054    1.4168   -1.1717 H   0  0  0  0  0  0  0  0  0  0  0  0
    3.3452   -2.1689   -0.9181 H   0  0  0  0  0  0  0  0  0  0  0  0
    2.4163   -0.9856   -1.8396 H   0  0  0  0  0  0  0  0  0  0  0  0
    3.2952    0.8025    1.3047 H   0  0  0  0  0  0  0  0  0  0  0  0
    3.7582    1.8973    0.0277 H   0  0  0  0  0  0  0  0  0  0  0  0
   -0.2964   -1.7038    2.5910 H   0  0  0  0  0  0  0  0  0  0  0  0
   -0.3459    2.1131    2.2155 H   0  0  0  0  0  0  0  0  0  0  0  0
    5.0940   -0.6365   -2.0761 H   0  0  0  0  0  0  0  0  0  0  0  0
    4.0130    0.7449   -2.3662 H   0  0  0  0  0  0  0  0  0  0  0  0
    5.4245    0.9035   -1.2983 H   0  0  0  0  0  0  0  0  0  0  0  0
   -3.6259    2.8698   -1.4265 H   0  0  0  0  0  0  0  0  0  0  0  0
   -3.6627   -3.1610   -0.7497 H   0  0  0  0  0  0  0  0  0  0  0  0
   -1.6113    4.2329    2.1043 H   0  0  0  0  0  0  0  0  0  0  0  0
   -1.5700   -3.7935    2.9398 H   0  0  0  0  0  0  0  0  0  0  0  0
   -3.2376    4.6135    0.2688 H   0  0  0  0  0  0  0  0  0  0  0  0
   -3.2444   -4.5224    1.2596 H   0  0  0  0  0  0  0  0  0  0  0  0
  2  1  1  0
  3  1  1  0
  4  1  2  3
  5  9  1  0
  6  8  1  0
  7 13  1  0
  8  3  2  0
  9  2  2  0
 10  4  1  0
 11  4  1  0
 12 10  1  0
 13 11  1  0
 14  2  1  0
 15  3  1  0
 16  7  1  0
 17  8  1  0
 18  9  1  0
 19 15  2  0
 20 14  2  0
 21 19  1  0
 22 20  1  0
  7 12  1  0
  6  5  2  0
 21 17  2  0
 22 18  2  0
  5 23  1  0
  6 24  1  0
 10 25  1  0
 10 26  1  0
 11 27  1  0
 11 28  1  0
 12 29  1  0
 12 30  1  0
 13 31  1  0
 13 32  1  0
 14 33  1  0
 15 34  1  0
 16 35  1  0
 16 36  1  0
 16 37  1  0
 17 38  1  0
 18 39  1  0
 19 40  1  0
 20 41  1  0
 21 42  1  0
 22 43  1  0
M  END
$$$$
