
     RDKit          3D

 43 46  0  0  0  0  0  0  0  0999 V2000
   -0.4813   -0.2646    0.2682 C   0  0  0  0  0  0  0  0  0  0  0  0
   -1.4089   -1.1990   -0.4198 C   0  0  0  0  0  0  0  0  0  0  0  0
   -1.0485    0.6303    1.3096 C   0  0  0  0  0  0  0  0  0  0  0  0
    0.8064   -0.1147   -0.1456 C   0  0  0  0  0  0  0  0  0  0  0  0
   -2.7676    0.7483   -1.3177 C   0  0  0  0  0  0  0  0  0  0  0  0
   -2.5850    1.7122   -0.3975 C   0  0  0  0  0  0  0  0  0  0  0  0
    3.6030    0.3673   -1.2259 N   0  0  0  0  0  0  0  0  0  0  0  0
   -2.0628    1.5501    0.9741 C   0  0  0  0  0  0  0  0  0  0  0  0
   -2.4967   -0.6941   -1.1601 C   0  0  0  0  0  0  0  0  0  0  0  0
    1.7609    0.9329    0.4211 C   0  0  0  0  0  0  0  0  0  0  0  0
    1.4379   -0.9085   -1.2848 C   0  0  0  0  0  0  0  0  0  0  0  0
    2.7657    1.4250   -0.6346 C   0  0  0  0  0  0  0  0  0  0  0  0
    2.9699   -0.9610   -1.1568 C   0  0  0  0  0  0  0  0  0  0  0  0
   -1.2500   -2.5867   -0.2749 C   0  0  0  0  0  0  0  0  0  0  0  0
   -0.6039    0.5312    2.6382 C   0  0  0  0  0  0  0  0  0  0  0  0
    4.9392    0.3331   -0.6384 C   0  0  0  0  0  0  0  0  0  0  0  0
   -2.5701    2.3919    1.9762 C   0  0  0  0  0  0  0  0  0  0  0  0
   -3.3547   -1.5977   -1.8070 C   0  0  0  0  0  0  0  0  0  0  0  0
   -1.1305    1.3652    3.6236 C   0  0  0  0  0  0  0  0  0  0  0  0
   -2.1213   -3.4708   -0.9105 C   0  0  0  0  0  0  0  0  0  0  0  0
   -2.1086    2.2985    3.2917 C   0  0  0  0  0  0  0  0  0  0  0  0
   -3.1674   -2.9763   -1.6838 C   0  0  0  0  0  0  0  0  0  0  0  0
   -3.1840    1.0346   -2.2813 H   0  0  0  0  0  0  0  0  0  0  0  0
   -2.8624    2.7299   -0.6646 H   0  0  0  0  0  0  0  0  0  0  0  0
    2.3056    0.4985    1.2687 H   0  0  0  0  0  0  0  0  0  0  0  0
    1.2216    1.8117    0.7898 H   0  0  0  0  0  0  0  0  0  0  0  0
    1.0798   -1.9404   -1.3110 H   0  0  0  0  0  0  0  0  0  0  0  0
    1.1661   -0.4414   -2.2400 H   0  0  0  0  0  0  0  0  0  0  0  0
    3.3814    2.2270   -0.2079 H   0  0  0  0  0  0  0  0  0  0  0  0
    2.2058    1.8953   -1.4541 H   0  0  0  0  0  0  0  0  0  0  0  0
    3.2188   -1.4643   -0.2118 H   0  0  0  0  0  0  0  0  0  0  0  0
    3.3740   -1.5824   -1.9648 H   0  0  0  0  0  0  0  0  0  0  0  0
   -0.4420   -2.9816    0.3362 H   0  0  0  0  0  0  0  0  0  0  0  0
    0.1559   -0.1989    2.9058 H   0  0  0  0  0  0  0  0  0  0  0  0
    5.4537    1.2874   -0.7971 H   0  0  0  0  0  0  0  0  0  0  0  0
    5.5529   -0.4365   -1.1198 H   0  0  0  0  0  0  0  0  0  0  0  0
    4.9117    0.1307    0.4383 H   0  0  0  0  0  0  0  0  0  0  0  0
   -3.3428    3.1208    1.7423 H   0  0  0  0  0  0  0  0  0  0  0  0
   -4.1916   -1.2334   -2.3986 H   0  0  0  0  0  0  0  0  0  0  0  0
   -0.7785    1.2850    4.6486 H   0  0  0  0  0  0  0  0  0  0  0  0
   -1.9843   -4.5431   -0.7996 H   0  0  0  0  0  0  0  0  0  0  0  0
   -2.5200    2.9510    4.0576 H   0  0  0  0  0  0  0  0  0  0  0  0
   -3.8476   -3.6624   -2.1818 H   0  0  0  0  0  0  0  0  0  0  0  0
  2  1  1  0
  3  1  1  0
  4  1  2  3
  5  9  1  0
  6  8  1  0
  7 13  1  0
  8  3  2  0
  9  2  2  0
 10  4  1  0
 11  4  1  0
 12 10  1  0
 13 11  1  0
 14  2  1  0
 15  3  1  0
 16  7  1  0
 17  8  1  0
 18  9  1  0
 19 15  2  0
 20 14  2  0
 21 19  1  0
 22 20  1  0
  7 12  1  0
  6  5  2  0
 21 17  2  0
 22 18  2  0
  5 23  1  0
  6 24  1  0
 10 25  1  0
 10 26  1  0
 11 27  1  0
 11 28  1  0
 12 29  1  0
 12 30  1  0
 13 31  1  0
 13 32  1  0
 14 33  1  0
 15 34  1  0
 16 35  1  0
 16 36  1  0
 16 37  1  0
 17 38  1  0
 18 39  1  0
 19 40  1  0
 20 41  1  0
 21 42  1  0
 22 43  1  0
M  END
$$$$
