
     RDKit          3D

 43 46  0  0  0  0  0  0  0  0999 V2000
   -0.5661   -0.2339   -0.2987 C   0  0  0  0  0  0  0  0  0  0  0  0
   -1.3145   -1.2807    0.4437 C   0  0  0  0  0  0  0  0  0  0  0  0
   -1.3396    0.9057   -0.8559 C   0  0  0  0  0  0  0  0  0  0  0  0
    0.7944   -0.2456   -0.3269 C   0  0  0  0  0  0  0  0  0  0  0  0
   -2.0932    0.4271    2.1536 C   0  0  0  0  0  0  0  0  0  0  0  0
   -2.0942    1.5857    1.4705 C   0  0  0  0  0  0  0  0  0  0  0  0
    3.8309   -0.2602   -0.2885 N   0  0  0  0  0  0  0  0  0  0  0  0
   -2.0660    1.7531    0.0044 C   0  0  0  0  0  0  0  0  0  0  0  0
   -2.0511   -0.9395    1.5965 C   0  0  0  0  0  0  0  0  0  0  0  0
    1.6488    0.8459   -0.9630 C   0  0  0  0  0  0  0  0  0  0  0  0
    1.6449   -1.3150    0.3541 C   0  0  0  0  0  0  0  0  0  0  0  0
    3.0344    0.3236   -1.3813 C   0  0  0  0  0  0  0  0  0  0  0  0
    2.9947   -0.7476    0.8230 C   0  0  0  0  0  0  0  0  0  0  0  0
   -1.3219   -2.6042   -0.0258 C   0  0  0  0  0  0  0  0  0  0  0  0
   -1.4096    1.0990   -2.2451 C   0  0  0  0  0  0  0  0  0  0  0  0
    4.8464    0.6672    0.2034 C   0  0  0  0  0  0  0  0  0  0  0  0
   -2.7802    2.8288   -0.5473 C   0  0  0  0  0  0  0  0  0  0  0  0
   -2.7375   -1.9524    2.2844 C   0  0  0  0  0  0  0  0  0  0  0  0
   -2.1375    2.1624   -2.7781 C   0  0  0  0  0  0  0  0  0  0  0  0
   -2.0211   -3.5947    0.6627 C   0  0  0  0  0  0  0  0  0  0  0  0
   -2.8141    3.0327   -1.9288 C   0  0  0  0  0  0  0  0  0  0  0  0
   -2.7240   -3.2699    1.8196 C   0  0  0  0  0  0  0  0  0  0  0  0
   -2.1468    0.4767    3.2393 H   0  0  0  0  0  0  0  0  0  0  0  0
   -2.1501    2.5124    2.0374 H   0  0  0  0  0  0  0  0  0  0  0  0
    1.1790    1.2649   -1.8560 H   0  0  0  0  0  0  0  0  0  0  0  0
    1.7715    1.6650   -0.2429 H   0  0  0  0  0  0  0  0  0  0  0  0
    1.8179   -2.1386   -0.3497 H   0  0  0  0  0  0  0  0  0  0  0  0
    1.1420   -1.7295    1.2344 H   0  0  0  0  0  0  0  0  0  0  0  0
    2.8943   -0.4610   -2.1370 H   0  0  0  0  0  0  0  0  0  0  0  0
    3.5864    1.1216   -1.8938 H   0  0  0  0  0  0  0  0  0  0  0  0
    3.5456   -1.5318    1.3558 H   0  0  0  0  0  0  0  0  0  0  0  0
    2.7992    0.0550    1.5481 H   0  0  0  0  0  0  0  0  0  0  0  0
   -0.7789   -2.8647   -0.9312 H   0  0  0  0  0  0  0  0  0  0  0  0
   -0.8938    0.4168   -2.9166 H   0  0  0  0  0  0  0  0  0  0  0  0
    5.5388    0.9413   -0.6006 H   0  0  0  0  0  0  0  0  0  0  0  0
    4.4056    1.5856    0.6073 H   0  0  0  0  0  0  0  0  0  0  0  0
    5.4495    0.1976    0.9887 H   0  0  0  0  0  0  0  0  0  0  0  0
   -3.3358    3.5076    0.0961 H   0  0  0  0  0  0  0  0  0  0  0  0
   -3.3025   -1.7203    3.1845 H   0  0  0  0  0  0  0  0  0  0  0  0
   -2.1779    2.3082   -3.8542 H   0  0  0  0  0  0  0  0  0  0  0  0
   -2.0171   -4.6174    0.2953 H   0  0  0  0  0  0  0  0  0  0  0  0
   -3.3818    3.8633   -2.3404 H   0  0  0  0  0  0  0  0  0  0  0  0
   -3.2689   -4.0404    2.3590 H   0  0  0  0  0  0  0  0  0  0  0  0
  2  1  1  0
  3  1  1  0
  4  1  2  3
  5  9  1  0
  6  8  1  0
  7 13  1  0
  8  3  2  0
  9  2  2  0
 10  4  1  0
 11  4  1  0
 12 10  1  0
 13 11  1  0
 14  2  1  0
 15  3  1  0
 16  7  1  0
 17  8  1  0
 18  9  1  0
 19 15  2  0
 20 14  2  0
 21 19  1  0
 22 20  1  0
  7 12  1  0
  6  5  2  0
 21 17  2  0
 22 18  2  0
  5 23  1  0
  6 24  1  0
 10 25  1  0
 10 26  1  0
 11 27  1  0
 11 28  1  0
 12 29  1  0
 12 30  1  0
 13 31  1  0
 13 32  1  0
 14 33  1  0
 15 34  1  0
 16 35  1  0
 16 36  1  0
 16 37  1  0
 17 38  1  0
 18 39  1  0
 19 40  1  0
 20 41  1  0
 21 42  1  0
 22 43  1  0
M  END
$$$$
