
     RDKit          3D

 43 46  0  0  0  0  0  0  0  0999 V2000
   -0.3591    0.0371   -0.6147 C   0  0  0  0  0  0  0  0  0  0  0  0
   -1.4983    0.9665   -0.4023 C   0  0  0  0  0  0  0  0  0  0  0  0
   -0.6715   -1.3236   -1.1222 C   0  0  0  0  0  0  0  0  0  0  0  0
    0.9030    0.3728   -0.2329 C   0  0  0  0  0  0  0  0  0  0  0  0
   -2.5090   -0.6012    1.3189 C   0  0  0  0  0  0  0  0  0  0  0  0
   -2.0709   -1.8145    0.9375 C   0  0  0  0  0  0  0  0  0  0  0  0
    3.2263    0.6223    1.6418 N   0  0  0  0  0  0  0  0  0  0  0  0
   -1.5009   -2.1827   -0.3735 C   0  0  0  0  0  0  0  0  0  0  0  0
   -2.5183    0.6351    0.5122 C   0  0  0  0  0  0  0  0  0  0  0  0
    2.1084   -0.5566   -0.3126 C   0  0  0  0  0  0  0  0  0  0  0  0
    1.2920    1.7044    0.3983 C   0  0  0  0  0  0  0  0  0  0  0  0
    2.8397   -0.6642    1.0382 C   0  0  0  0  0  0  0  0  0  0  0  0
    2.0544    1.5106    1.7219 C   0  0  0  0  0  0  0  0  0  0  0  0
   -1.5907    2.1490   -1.1550 C   0  0  0  0  0  0  0  0  0  0  0  0
   -0.1885   -1.7346   -2.3757 C   0  0  0  0  0  0  0  0  0  0  0  0
    4.3428    1.2469    0.9373 C   0  0  0  0  0  0  0  0  0  0  0  0
   -1.7714   -3.4665   -0.8725 C   0  0  0  0  0  0  0  0  0  0  0  0
   -3.5777    1.5365    0.6999 C   0  0  0  0  0  0  0  0  0  0  0  0
   -0.4808   -3.0077   -2.8634 C   0  0  0  0  0  0  0  0  0  0  0  0
   -2.6589    3.0252   -0.9672 C   0  0  0  0  0  0  0  0  0  0  0  0
   -1.2654   -3.8754   -2.1089 C   0  0  0  0  0  0  0  0  0  0  0  0
   -3.6476    2.7226   -0.0351 C   0  0  0  0  0  0  0  0  0  0  0  0
   -2.9274   -0.5005    2.3182 H   0  0  0  0  0  0  0  0  0  0  0  0
   -2.1569   -2.6345    1.6475 H   0  0  0  0  0  0  0  0  0  0  0  0
    2.7912   -0.1761   -1.0820 H   0  0  0  0  0  0  0  0  0  0  0  0
    1.8431   -1.5731   -0.6148 H   0  0  0  0  0  0  0  0  0  0  0  0
    1.9114    2.2606   -0.3159 H   0  0  0  0  0  0  0  0  0  0  0  0
    0.4300    2.3406    0.6156 H   0  0  0  0  0  0  0  0  0  0  0  0
    3.7244   -1.3032    0.9244 H   0  0  0  0  0  0  0  0  0  0  0  0
    2.1896   -1.1920    1.7492 H   0  0  0  0  0  0  0  0  0  0  0  0
    1.3635    1.0959    2.4685 H   0  0  0  0  0  0  0  0  0  0  0  0
    2.3550    2.4892    2.1167 H   0  0  0  0  0  0  0  0  0  0  0  0
   -0.8247    2.3892   -1.8884 H   0  0  0  0  0  0  0  0  0  0  0  0
    0.4206   -1.0601   -2.9726 H   0  0  0  0  0  0  0  0  0  0  0  0
    4.6455    2.1690    1.4460 H   0  0  0  0  0  0  0  0  0  0  0  0
    4.1179    1.4934   -0.1050 H   0  0  0  0  0  0  0  0  0  0  0  0
    5.2169    0.5863    0.9484 H   0  0  0  0  0  0  0  0  0  0  0  0
   -2.3957   -4.1553   -0.3079 H   0  0  0  0  0  0  0  0  0  0  0  0
   -4.3700    1.3129    1.4108 H   0  0  0  0  0  0  0  0  0  0  0  0
   -0.0977   -3.3203   -3.8311 H   0  0  0  0  0  0  0  0  0  0  0  0
   -2.7194    3.9412   -1.5487 H   0  0  0  0  0  0  0  0  0  0  0  0
   -1.4939   -4.8691   -2.4859 H   0  0  0  0  0  0  0  0  0  0  0  0
   -4.4809    3.4043    0.1145 H   0  0  0  0  0  0  0  0  0  0  0  0
  2  1  1  0
  3  1  1  0
  4  1  2  3
  5  9  1  0
  6  8  1  0
  7 13  1  0
  8  3  2  0
  9  2  2  0
 10  4  1  0
 11  4  1  0
 12 10  1  0
 13 11  1  0
 14  2  1  0
 15  3  1  0
 16  7  1  0
 17  8  1  0
 18  9  1  0
 19 15  2  0
 20 14  2  0
 21 19  1  0
 22 20  1  0
  7 12  1  0
  6  5  2  0
 21 17  2  0
 22 18  2  0
  5 23  1  0
  6 24  1  0
 10 25  1  0
 10 26  1  0
 11 27  1  0
 11 28  1  0
 12 29  1  0
 12 30  1  0
 13 31  1  0
 13 32  1  0
 14 33  1  0
 15 34  1  0
 16 35  1  0
 16 36  1  0
 16 37  1  0
 17 38  1  0
 18 39  1  0
 19 40  1  0
 20 41  1  0
 21 42  1  0
 22 43  1  0
M  END
$$$$
