
     RDKit          3D

 43 46  0  0  0  0  0  0  0  0999 V2000
   -0.5411   -0.0000   -0.2845 C   0  0  0  0  0  0  0  0  0  0  0  0
   -1.2781    1.2564    0.0076 C   0  0  0  0  0  0  0  0  0  0  0  0
   -1.3401   -1.2230   -0.5543 C   0  0  0  0  0  0  0  0  0  0  0  0
    0.8120   -0.0554   -0.1496 C   0  0  0  0  0  0  0  0  0  0  0  0
   -2.3458    0.2031    2.0559 C   0  0  0  0  0  0  0  0  0  0  0  0
   -2.3695   -1.1095    1.7634 C   0  0  0  0  0  0  0  0  0  0  0  0
    3.7978   -0.2396    0.3705 N   0  0  0  0  0  0  0  0  0  0  0  0
   -2.2121   -1.7266    0.4318 C   0  0  0  0  0  0  0  0  0  0  0  0
   -2.1467    1.3242    1.1158 C   0  0  0  0  0  0  0  0  0  0  0  0
    1.6695    1.1340    0.2740 C   0  0  0  0  0  0  0  0  0  0  0  0
    1.6380   -1.3268   -0.3161 C   0  0  0  0  0  0  0  0  0  0  0  0
    2.9048    0.6938    1.0781 C   0  0  0  0  0  0  0  0  0  0  0  0
    3.0999   -1.0092   -0.6738 C   0  0  0  0  0  0  0  0  0  0  0  0
   -1.1418    2.3644   -0.8448 C   0  0  0  0  0  0  0  0  0  0  0  0
   -1.2862   -1.8382   -1.8155 C   0  0  0  0  0  0  0  0  0  0  0  0
    4.9693    0.4347   -0.1816 C   0  0  0  0  0  0  0  0  0  0  0  0
   -2.9508   -2.8879    0.1549 C   0  0  0  0  0  0  0  0  0  0  0  0
   -2.8192    2.5287    1.3746 C   0  0  0  0  0  0  0  0  0  0  0  0
   -2.0394   -2.9817   -2.0798 C   0  0  0  0  0  0  0  0  0  0  0  0
   -1.8299    3.5480   -0.5806 C   0  0  0  0  0  0  0  0  0  0  0  0
   -2.8641   -3.5115   -1.0919 C   0  0  0  0  0  0  0  0  0  0  0  0
   -2.6634    3.6317    0.5312 C   0  0  0  0  0  0  0  0  0  0  0  0
   -2.5066    0.4968    3.0913 H   0  0  0  0  0  0  0  0  0  0  0  0
   -2.5491   -1.8105    2.5759 H   0  0  0  0  0  0  0  0  0  0  0  0
    1.1068    1.8334    0.9012 H   0  0  0  0  0  0  0  0  0  0  0  0
    1.9926    1.6786   -0.6220 H   0  0  0  0  0  0  0  0  0  0  0  0
    1.6060   -1.8993    0.6197 H   0  0  0  0  0  0  0  0  0  0  0  0
    1.2436   -1.9693   -1.1070 H   0  0  0  0  0  0  0  0  0  0  0  0
    2.5625    0.1896    1.9918 H   0  0  0  0  0  0  0  0  0  0  0  0
    3.4509    1.5804    1.4247 H   0  0  0  0  0  0  0  0  0  0  0  0
    3.6403   -1.9499   -0.8335 H   0  0  0  0  0  0  0  0  0  0  0  0
    3.1100   -0.4686   -1.6308 H   0  0  0  0  0  0  0  0  0  0  0  0
   -0.4967    2.3045   -1.7179 H   0  0  0  0  0  0  0  0  0  0  0  0
   -0.6530   -1.4247   -2.5967 H   0  0  0  0  0  0  0  0  0  0  0  0
    4.6963    1.2046   -0.9122 H   0  0  0  0  0  0  0  0  0  0  0  0
    5.6347   -0.2858   -0.6702 H   0  0  0  0  0  0  0  0  0  0  0  0
    5.5527    0.9075    0.6163 H   0  0  0  0  0  0  0  0  0  0  0  0
   -3.6180   -3.3067    0.9050 H   0  0  0  0  0  0  0  0  0  0  0  0
   -3.4843    2.6136    2.2311 H   0  0  0  0  0  0  0  0  0  0  0  0
   -1.9838   -3.4556   -3.0561 H   0  0  0  0  0  0  0  0  0  0  0  0
   -1.7163    4.4021   -1.2428 H   0  0  0  0  0  0  0  0  0  0  0  0
   -3.4516   -4.4034   -1.2939 H   0  0  0  0  0  0  0  0  0  0  0  0
   -3.2001    4.5535    0.7404 H   0  0  0  0  0  0  0  0  0  0  0  0
  2  1  1  0
  3  1  1  0
  4  1  2  3
  5  9  1  0
  6  8  1  0
  7 13  1  0
  8  3  2  0
  9  2  2  0
 10  4  1  0
 11  4  1  0
 12 10  1  0
 13 11  1  0
 14  2  1  0
 15  3  1  0
 16  7  1  0
 17  8  1  0
 18  9  1  0
 19 15  2  0
 20 14  2  0
 21 19  1  0
 22 20  1  0
  7 12  1  0
  6  5  2  0
 21 17  2  0
 22 18  2  0
  5 23  1  0
  6 24  1  0
 10 25  1  0
 10 26  1  0
 11 27  1  0
 11 28  1  0
 12 29  1  0
 12 30  1  0
 13 31  1  0
 13 32  1  0
 14 33  1  0
 15 34  1  0
 16 35  1  0
 16 36  1  0
 16 37  1  0
 17 38  1  0
 18 39  1  0
 19 40  1  0
 20 41  1  0
 21 42  1  0
 22 43  1  0
M  END
$$$$
