
     RDKit          3D

 43 46  0  0  0  0  0  0  0  0999 V2000
   -0.3959   -0.1487   -0.3691 C   0  0  0  0  0  0  0  0  0  0  0  0
   -1.0987    1.0674   -0.8528 C   0  0  0  0  0  0  0  0  0  0  0  0
   -1.2304   -1.3234   -0.0082 C   0  0  0  0  0  0  0  0  0  0  0  0
    0.9450   -0.1411   -0.1385 C   0  0  0  0  0  0  0  0  0  0  0  0
   -2.3332    1.2811    1.3546 C   0  0  0  0  0  0  0  0  0  0  0  0
   -2.4029    0.0146    1.8020 C   0  0  0  0  0  0  0  0  0  0  0  0
    3.4534    0.2799    1.4443 N   0  0  0  0  0  0  0  0  0  0  0  0
   -2.1902   -1.2185    1.0186 C   0  0  0  0  0  0  0  0  0  0  0  0
   -2.0281    1.7232   -0.0205 C   0  0  0  0  0  0  0  0  0  0  0  0
    1.7282   -1.3045    0.4583 C   0  0  0  0  0  0  0  0  0  0  0  0
    1.8582    1.0560   -0.3755 C   0  0  0  0  0  0  0  0  0  0  0  0
    2.5621   -0.8690    1.6773 C   0  0  0  0  0  0  0  0  0  0  0  0
    2.6871    1.4014    0.8753 C   0  0  0  0  0  0  0  0  0  0  0  0
   -0.8817    1.5314   -2.1608 C   0  0  0  0  0  0  0  0  0  0  0  0
   -1.1050   -2.5229   -0.7286 C   0  0  0  0  0  0  0  0  0  0  0  0
    4.6041   -0.0753    0.6180 C   0  0  0  0  0  0  0  0  0  0  0  0
   -2.9579   -2.3473    1.3451 C   0  0  0  0  0  0  0  0  0  0  0  0
   -2.6702    2.8756   -0.5000 C   0  0  0  0  0  0  0  0  0  0  0  0
   -1.8876   -3.6295   -0.4014 C   0  0  0  0  0  0  0  0  0  0  0  0
   -1.5407    2.6686   -2.6262 C   0  0  0  0  0  0  0  0  0  0  0  0
   -2.8080   -3.5438    0.6395 C   0  0  0  0  0  0  0  0  0  0  0  0
   -2.4286    3.3442   -1.7938 C   0  0  0  0  0  0  0  0  0  0  0  0
   -2.5429    2.0835    2.0589 H   0  0  0  0  0  0  0  0  0  0  0  0
   -2.6656   -0.1442    2.8458 H   0  0  0  0  0  0  0  0  0  0  0  0
    1.0862   -2.1260    0.7867 H   0  0  0  0  0  0  0  0  0  0  0  0
    2.3829   -1.7183   -0.3183 H   0  0  0  0  0  0  0  0  0  0  0  0
    1.3112    1.9597   -0.6567 H   0  0  0  0  0  0  0  0  0  0  0  0
    2.5230    0.8256   -1.2170 H   0  0  0  0  0  0  0  0  0  0  0  0
    1.8782   -0.6085    2.4966 H   0  0  0  0  0  0  0  0  0  0  0  0
    3.1440   -1.7233    2.0455 H   0  0  0  0  0  0  0  0  0  0  0  0
    3.3620    2.2359    0.6469 H   0  0  0  0  0  0  0  0  0  0  0  0
    2.0098    1.7800    1.6528 H   0  0  0  0  0  0  0  0  0  0  0  0
   -0.1934    1.0056   -2.8181 H   0  0  0  0  0  0  0  0  0  0  0  0
   -0.3918   -2.5953   -1.5461 H   0  0  0  0  0  0  0  0  0  0  0  0
    4.3319   -0.4151   -0.3861 H   0  0  0  0  0  0  0  0  0  0  0  0
    5.1866   -0.8695    1.0983 H   0  0  0  0  0  0  0  0  0  0  0  0
    5.2776    0.7828    0.5146 H   0  0  0  0  0  0  0  0  0  0  0  0
   -3.6948   -2.2985    2.1436 H   0  0  0  0  0  0  0  0  0  0  0  0
   -3.3804    3.4100    0.1270 H   0  0  0  0  0  0  0  0  0  0  0  0
   -1.7796   -4.5558   -0.9593 H   0  0  0  0  0  0  0  0  0  0  0  0
   -1.3621    3.0249   -3.6372 H   0  0  0  0  0  0  0  0  0  0  0  0
   -3.4186   -4.4051    0.8978 H   0  0  0  0  0  0  0  0  0  0  0  0
   -2.9429    4.2318   -2.1533 H   0  0  0  0  0  0  0  0  0  0  0  0
  2  1  1  0
  3  1  1  0
  4  1  2  3
  5  9  1  0
  6  8  1  0
  7 13  1  0
  8  3  2  0
  9  2  2  0
 10  4  1  0
 11  4  1  0
 12 10  1  0
 13 11  1  0
 14  2  1  0
 15  3  1  0
 16  7  1  0
 17  8  1  0
 18  9  1  0
 19 15  2  0
 20 14  2  0
 21 19  1  0
 22 20  1  0
  7 12  1  0
  6  5  2  0
 21 17  2  0
 22 18  2  0
  5 23  1  0
  6 24  1  0
 10 25  1  0
 10 26  1  0
 11 27  1  0
 11 28  1  0
 12 29  1  0
 12 30  1  0
 13 31  1  0
 13 32  1  0
 14 33  1  0
 15 34  1  0
 16 35  1  0
 16 36  1  0
 16 37  1  0
 17 38  1  0
 18 39  1  0
 19 40  1  0
 20 41  1  0
 21 42  1  0
 22 43  1  0
M  END
$$$$
