
     RDKit          2D

 22 25  0  0  0  0  0  0  0  0999 V2000
    6.0917   -5.1042    0.0000 C   0  0  0  0  0  0  0  0  0  0  0  0
    5.4625   -5.4125    0.0000 C   0  0  0  0  0  0  0  0  0  0  0  0
    6.7292   -5.4167    0.0000 C   0  0  0  0  0  0  0  0  0  0  0  0
    6.1000   -4.3917    0.0000 C   0  0  0  0  0  0  0  0  0  0  0  0
    5.7542   -6.6625    0.0000 C   0  0  0  0  0  0  0  0  0  0  0  0
    6.4500   -6.6667    0.0000 C   0  0  0  0  0  0  0  0  0  0  0  0
    6.1000   -2.9792    0.0000 N   0  0  0  0  0  0  0  0  0  0  0  0
    6.8917   -6.1167    0.0000 C   0  0  0  0  0  0  0  0  0  0  0  0
    5.3042   -6.1125    0.0000 C   0  0  0  0  0  0  0  0  0  0  0  0
    5.4917   -4.0417    0.0000 C   0  0  0  0  0  0  0  0  0  0  0  0
    6.7125   -4.0417    0.0000 C   0  0  0  0  0  0  0  0  0  0  0  0
    5.4917   -3.3292    0.0000 C   0  0  0  0  0  0  0  0  0  0  0  0
    6.7125   -3.3375    0.0000 C   0  0  0  0  0  0  0  0  0  0  0  0
    4.9417   -4.9292    0.0000 C   0  0  0  0  0  0  0  0  0  0  0  0
    7.2542   -4.9292    0.0000 C   0  0  0  0  0  0  0  0  0  0  0  0
    6.1000   -2.2750    0.0000 C   0  0  0  0  0  0  0  0  0  0  0  0
    7.5750   -6.3167    0.0000 C   0  0  0  0  0  0  0  0  0  0  0  0
    4.6292   -6.3167    0.0000 C   0  0  0  0  0  0  0  0  0  0  0  0
    7.9375   -5.1417    0.0000 C   0  0  0  0  0  0  0  0  0  0  0  0
    4.2542   -5.1375    0.0000 C   0  0  0  0  0  0  0  0  0  0  0  0
    8.0917   -5.8375    0.0000 C   0  0  0  0  0  0  0  0  0  0  0  0
    4.1042   -5.8292    0.0000 C   0  0  0  0  0  0  0  0  0  0  0  0
  2  1  1  0
  3  1  1  0
  4  1  2  0
  5  9  1  0
  6  8  1  0
  7 13  1  0
  8  3  1  0
  9  2  2  0
 10  4  1  0
 11  4  1  0
 12 10  1  0
 13 11  1  0
 14  2  1  0
 15  3  2  0
 16  7  1  0
 17  8  2  0
 18  9  1  0
 19 15  1  0
 20 14  2  0
 21 19  2  0
 22 20  1  0
  7 12  1  0
  6  5  2  0
 21 17  1  0
 22 18  2  0
M  END
> <chembl_id>
CHEMBL516

> <chembl_pref_name>
CYPROHEPTADINE
