
     RDKit          3D

 43 46  0  0  0  0  0  0  0  0999 V2000
   -0.4392   -0.1091   -0.6824 C   0  0  0  0  0  0  0  0  0  0  0  0
   -1.4496   -1.1331   -0.3127 C   0  0  0  0  0  0  0  0  0  0  0  0
   -0.9322    1.2490   -1.0264 C   0  0  0  0  0  0  0  0  0  0  0  0
    0.8921   -0.3668   -0.5775 C   0  0  0  0  0  0  0  0  0  0  0  0
   -2.1993    0.2614    1.6715 C   0  0  0  0  0  0  0  0  0  0  0  0
   -1.9253    1.5228    1.2935 C   0  0  0  0  0  0  0  0  0  0  0  0
    3.5262   -0.5393    0.7557 N   0  0  0  0  0  0  0  0  0  0  0  0
   -1.6506    2.0017   -0.0757 C   0  0  0  0  0  0  0  0  0  0  0  0
   -2.2870   -0.9288    0.8024 C   0  0  0  0  0  0  0  0  0  0  0  0
    1.4923   -1.6920   -0.1252 C   0  0  0  0  0  0  0  0  0  0  0  0
    2.0006    0.6483   -0.8264 C   0  0  0  0  0  0  0  0  0  0  0  0
    2.4526   -1.5016    1.0614 C   0  0  0  0  0  0  0  0  0  0  0  0
    2.9443    0.7624    0.3830 C   0  0  0  0  0  0  0  0  0  0  0  0
   -1.6120   -2.2791   -1.1086 C   0  0  0  0  0  0  0  0  0  0  0  0
   -0.7345    1.7615   -2.3193 C   0  0  0  0  0  0  0  0  0  0  0  0
    4.4221   -0.3906    1.9013 C   0  0  0  0  0  0  0  0  0  0  0  0
   -2.0969    3.2856   -0.4262 C   0  0  0  0  0  0  0  0  0  0  0  0
   -3.2269   -1.9177    1.1329 C   0  0  0  0  0  0  0  0  0  0  0  0
   -1.1988    3.0326   -2.6552 C   0  0  0  0  0  0  0  0  0  0  0  0
   -2.5618   -3.2437   -0.7746 C   0  0  0  0  0  0  0  0  0  0  0  0
   -1.8731    3.7968   -1.7070 C   0  0  0  0  0  0  0  0  0  0  0  0
   -3.3635   -3.0664    0.3495 C   0  0  0  0  0  0  0  0  0  0  0  0
   -2.4065    0.0774    2.7236 H   0  0  0  0  0  0  0  0  0  0  0  0
   -1.9247    2.2961    2.0588 H   0  0  0  0  0  0  0  0  0  0  0  0
    0.7394   -2.4237    0.1782 H   0  0  0  0  0  0  0  0  0  0  0  0
    2.0339   -2.1355   -0.9709 H   0  0  0  0  0  0  0  0  0  0  0  0
    1.6244    1.6512   -1.0429 H   0  0  0  0  0  0  0  0  0  0  0  0
    2.5698    0.3323   -1.7104 H   0  0  0  0  0  0  0  0  0  0  0  0
    2.8957   -2.4769    1.2979 H   0  0  0  0  0  0  0  0  0  0  0  0
    1.8825   -1.1810    1.9442 H   0  0  0  0  0  0  0  0  0  0  0  0
    2.4000    1.2021    1.2300 H   0  0  0  0  0  0  0  0  0  0  0  0
    3.7503    1.4581    0.1187 H   0  0  0  0  0  0  0  0  0  0  0  0
   -0.9921   -2.4217   -1.9907 H   0  0  0  0  0  0  0  0  0  0  0  0
   -0.2126    1.1680   -3.0663 H   0  0  0  0  0  0  0  0  0  0  0  0
    5.2411    0.2967    1.6616 H   0  0  0  0  0  0  0  0  0  0  0  0
    4.8831   -1.3515    2.1555 H   0  0  0  0  0  0  0  0  0  0  0  0
    3.9029   -0.0117    2.7892 H   0  0  0  0  0  0  0  0  0  0  0  0
   -2.6407    3.8939    0.2930 H   0  0  0  0  0  0  0  0  0  0  0  0
   -3.8757   -1.7926    1.9969 H   0  0  0  0  0  0  0  0  0  0  0  0
   -1.0352    3.4239   -3.6557 H   0  0  0  0  0  0  0  0  0  0  0  0
   -2.6758   -4.1306   -1.3921 H   0  0  0  0  0  0  0  0  0  0  0  0
   -2.2353    4.7885   -1.9657 H   0  0  0  0  0  0  0  0  0  0  0  0
   -4.1041   -3.8171    0.6129 H   0  0  0  0  0  0  0  0  0  0  0  0
  2  1  1  0
  3  1  1  0
  4  1  2  3
  5  9  1  0
  6  8  1  0
  7 13  1  0
  8  3  2  0
  9  2  2  0
 10  4  1  0
 11  4  1  0
 12 10  1  0
 13 11  1  0
 14  2  1  0
 15  3  1  0
 16  7  1  0
 17  8  1  0
 18  9  1  0
 19 15  2  0
 20 14  2  0
 21 19  1  0
 22 20  1  0
  7 12  1  0
  6  5  2  0
 21 17  2  0
 22 18  2  0
  5 23  1  0
  6 24  1  0
 10 25  1  0
 10 26  1  0
 11 27  1  0
 11 28  1  0
 12 29  1  0
 12 30  1  0
 13 31  1  0
 13 32  1  0
 14 33  1  0
 15 34  1  0
 16 35  1  0
 16 36  1  0
 16 37  1  0
 17 38  1  0
 18 39  1  0
 19 40  1  0
 20 41  1  0
 21 42  1  0
 22 43  1  0
M  END
$$$$
