
     RDKit          3D

 25 24  0  0  0  0  0  0  0  0999 V2000
    1.3087   -1.2216    0.1978 C   0  0  0  0  0  0  0  0  0  0  0  0
    2.3816    0.8721   -0.4894 N   0  0  0  0  0  0  0  0  0  0  0  0
   -0.0167   -0.5998   -0.1091 C   0  0  0  0  0  0  0  0  0  0  0  0
    2.2572   -0.0907    0.6129 C   0  0  1  0  0  0  0  0  0  0  0  0
   -0.9492   -0.4639    0.9131 C   0  0  0  0  0  0  0  0  0  0  0  0
   -0.3383   -0.1558   -1.3869 C   0  0  0  0  0  0  0  0  0  0  0  0
    1.6033    0.6028    1.8151 C   0  0  0  0  0  0  0  0  0  0  0  0
   -2.1978    0.1115    0.6666 C   0  0  0  0  0  0  0  0  0  0  0  0
   -1.5776    0.4122   -1.6188 C   0  0  0  0  0  0  0  0  0  0  0  0
   -2.4711    0.5331   -0.6013 C   0  0  0  0  0  0  0  0  0  0  0  0
    0.0076    0.0365   -0.0088 S   0  0  0  0  0  0  0  0  0  0  0  0
   -0.2239    1.0349   -1.0985 O   0  0  0  0  0  0  0  0  0  0  0  0
    0.0521    0.7554    1.3070 O   0  0  0  0  0  0  0  0  0  0  0  0
   -1.2745   -1.0348    0.0100 O   0  0  0  0  0  0  0  0  0  0  0  0
    1.4388   -0.7920   -0.2098 O   0  0  0  0  0  0  0  0  0  0  0  0
    1.2390   -0.2037   -0.9237 C   0  0  0  0  0  0  0  0  0  0  0  0
    3.5302   -0.6618   -0.2343 N   0  0  0  0  0  0  0  0  0  0  0  0
   -0.1874   -0.0474   -0.4693 C   0  0  0  0  0  0  0  0  0  0  0  0
    2.1481   -0.5156    0.2419 C   0  0  1  0  0  0  0  0  0  0  0  0
   -1.0485   -1.1210   -0.4196 C   0  0  0  0  0  0  0  0  0  0  0  0
   -0.6695    1.1989   -0.0861 C   0  0  0  0  0  0  0  0  0  0  0  0
    2.1584    0.6841    1.1772 C   0  0  0  0  0  0  0  0  0  0  0  0
   -2.3479   -0.9625   -0.0025 C   0  0  0  0  0  0  0  0  0  0  0  0
   -1.9846    1.3427    0.3329 C   0  0  0  0  0  0  0  0  0  0  0  0
   -2.8376    0.2863    0.3835 C   0  0  0  0  0  0  0  0  0  0  0  0
  4  2  1  0
  3  1  1  0
  4  1  1  0
  5  3  2  0
  6  3  1  0
  4  7  1  1
  8  5  1  0
  9  6  2  0
 10  8  2  0
  9 10  1  0
 12 11  2  0
 13 11  2  0
 14 11  1  0
 15 11  1  0
 19 17  1  0
 18 16  1  0
 19 16  1  0
 20 18  2  0
 21 18  1  0
 19 22  1  1
 23 20  1  0
 24 21  2  0
 25 23  2  0
 24 25  1  0
M  END
