
     RDKit          3D

 53 52  0  0  0  0  0  0  0  0999 V2000
   -0.5746   -0.7625    1.2186 C   0  0  0  0  0  0  0  0  0  0  0  0
   -2.0623    1.2141    0.8171 N   0  0  0  0  0  0  0  0  0  0  0  0
    0.6531   -0.2811    0.4774 C   0  0  0  0  0  0  0  0  0  0  0  0
   -1.9339   -0.2435    0.6940 C   0  0  1  0  0  0  0  0  0  0  0  0
    1.2727    0.9236    0.8379 C   0  0  0  0  0  0  0  0  0  0  0  0
    1.1911   -1.0293   -0.5787 C   0  0  0  0  0  0  0  0  0  0  0  0
   -2.2209   -0.6740   -0.7448 C   0  0  0  0  0  0  0  0  0  0  0  0
    2.4016    1.3742    0.1523 C   0  0  0  0  0  0  0  0  0  0  0  0
    2.3204   -0.5775   -1.2637 C   0  0  0  0  0  0  0  0  0  0  0  0
    2.9246    0.6241   -0.8989 C   0  0  0  0  0  0  0  0  0  0  0  0
   -0.0036    0.4472   -0.0855 S   0  0  0  0  0  0  0  0  0  0  0  0
   -0.3427    1.3409    0.9924 O   0  0  0  0  0  0  0  0  0  0  0  0
    0.3248    0.8851   -1.4182 O   0  0  0  0  0  0  0  0  0  0  0  0
   -1.1983   -0.6189   -0.1836 O   0  0  0  0  0  0  0  0  0  0  0  0
    1.2071   -0.4888    0.3955 O   0  0  0  0  0  0  0  0  0  0  0  0
   -0.6559   -0.5473    0.8375 C   0  0  0  0  0  0  0  0  0  0  0  0
   -2.9946   -1.1420    0.3416 N   0  0  0  0  0  0  0  0  0  0  0  0
    0.6925   -0.1316    0.2955 C   0  0  0  0  0  0  0  0  0  0  0  0
   -1.7772   -0.5416   -0.2222 C   0  0  1  0  0  0  0  0  0  0  0  0
    1.2218    1.1308    0.5958 C   0  0  0  0  0  0  0  0  0  0  0  0
    1.4303   -1.0006   -0.5203 C   0  0  0  0  0  0  0  0  0  0  0  0
   -2.1136    0.8703   -0.7036 C   0  0  0  0  0  0  0  0  0  0  0  0
    2.4631    1.5169    0.0877 C   0  0  0  0  0  0  0  0  0  0  0  0
    2.6716   -0.6128   -1.0271 C   0  0  0  0  0  0  0  0  0  0  0  0
    3.1874    0.6456   -0.7236 C   0  0  0  0  0  0  0  0  0  0  0  0
   -0.4702   -0.4923    2.2785 H   0  0  0  0  0  0  0  0  0  0  0  0
   -0.5845   -1.8608    1.2070 H   0  0  0  0  0  0  0  0  0  0  0  0
   -2.9598    1.5100    0.4350 H   0  0  0  0  0  0  0  0  0  0  0  0
   -1.3546    1.6570    0.2282 H   0  0  0  0  0  0  0  0  0  0  0  0
   -2.7100   -0.6859    1.3310 H   0  0  0  0  0  0  0  0  0  0  0  0
    0.8746    1.5176    1.6587 H   0  0  0  0  0  0  0  0  0  0  0  0
    0.7335   -1.9703   -0.8749 H   0  0  0  0  0  0  0  0  0  0  0  0
   -3.2449   -0.4087   -1.0316 H   0  0  0  0  0  0  0  0  0  0  0  0
   -1.5445   -0.1949   -1.4606 H   0  0  0  0  0  0  0  0  0  0  0  0
   -2.1197   -1.7592   -0.8523 H   0  0  0  0  0  0  0  0  0  0  0  0
    2.8735    2.3097    0.4409 H   0  0  0  0  0  0  0  0  0  0  0  0
    2.7301   -1.1648   -2.0813 H   0  0  0  0  0  0  0  0  0  0  0  0
    3.8047    0.9743   -1.4315 H   0  0  0  0  0  0  0  0  0  0  0  0
   -1.5971   -0.6887    0.7085 H   0  0  0  0  0  0  0  0  0  0  0  0
    1.6096   -0.8768   -0.4090 H   0  0  0  0  0  0  0  0  0  0  0  0
   -0.9322    0.0965    1.6834 H   0  0  0  0  0  0  0  0  0  0  0  0
   -0.5459   -1.5560    1.2595 H   0  0  0  0  0  0  0  0  0  0  0  0
   -2.8118   -2.1133    0.5915 H   0  0  0  0  0  0  0  0  0  0  0  0
   -3.7242   -1.1635   -0.3704 H   0  0  0  0  0  0  0  0  0  0  0  0
   -1.4748   -1.1426   -1.0882 H   0  0  0  0  0  0  0  0  0  0  0  0
    0.6681    1.8233    1.2261 H   0  0  0  0  0  0  0  0  0  0  0  0
    1.0431   -1.9874   -0.7633 H   0  0  0  0  0  0  0  0  0  0  0  0
   -2.4044    1.5201    0.1295 H   0  0  0  0  0  0  0  0  0  0  0  0
   -1.2586    1.3300   -1.2095 H   0  0  0  0  0  0  0  0  0  0  0  0
   -2.9409    0.8535   -1.4223 H   0  0  0  0  0  0  0  0  0  0  0  0
    2.8649    2.4983    0.3257 H   0  0  0  0  0  0  0  0  0  0  0  0
    3.2373   -1.2936   -1.6578 H   0  0  0  0  0  0  0  0  0  0  0  0
    4.1541    0.9470   -1.1179 H   0  0  0  0  0  0  0  0  0  0  0  0
  4  2  1  0
  3  1  1  0
  4  1  1  0
  5  3  2  0
  6  3  1  0
  4  7  1  0
  8  5  1  0
  9  6  2  0
 10  8  2  0
  9 10  1  0
 12 11  2  0
 13 11  2  0
 14 11  1  0
 15 11  1  0
 19 17  1  0
 18 16  1  0
 19 16  1  0
 20 18  2  0
 21 18  1  0
 19 22  1  0
 23 20  1  0
 24 21  2  0
 25 23  2  0
 24 25  1  0
  1 26  1  0
  1 27  1  0
  2 28  1  0
  2 29  1  0
  4 30  1  1
  5 31  1  0
  6 32  1  0
  7 33  1  0
  7 34  1  0
  7 35  1  0
  8 36  1  0
  9 37  1  0
 10 38  1  0
 14 39  1  0
 15 40  1  0
 16 41  1  0
 16 42  1  0
 17 43  1  0
 17 44  1  0
 19 45  1  6
 20 46  1  0
 21 47  1  0
 22 48  1  0
 22 49  1  0
 22 50  1  0
 23 51  1  0
 24 52  1  0
 25 53  1  0
M  END
$$$$
