
     RDKit          3D

 53 52  0  0  0  0  0  0  0  0999 V2000
    0.7916    0.3567   -0.6676 C   0  0  0  0  0  0  0  0  0  0  0  0
    1.7891   -1.0137    1.1790 N   0  0  0  0  0  0  0  0  0  0  0  0
   -0.6554    0.1157   -0.3013 C   0  0  0  0  0  0  0  0  0  0  0  0
    1.7569    0.3072    0.5375 C   0  0  1  0  0  0  0  0  0  0  0  0
   -1.3822    1.0859    0.4025 C   0  0  0  0  0  0  0  0  0  0  0  0
   -1.2890   -1.0839   -0.6536 C   0  0  0  0  0  0  0  0  0  0  0  0
    3.1753    0.6642    0.0953 C   0  0  0  0  0  0  0  0  0  0  0  0
   -2.7148    0.8587    0.7494 C   0  0  0  0  0  0  0  0  0  0  0  0
   -2.6218   -1.3090   -0.3056 C   0  0  0  0  0  0  0  0  0  0  0  0
   -3.3341   -0.3384    0.3959 C   0  0  0  0  0  0  0  0  0  0  0  0
   -0.1367   -0.2729    0.3347 S   0  0  0  0  0  0  0  0  0  0  0  0
    0.7943   -0.5656    1.3946 O   0  0  0  0  0  0  0  0  0  0  0  0
   -1.4758   -0.8013    0.2739 O   0  0  0  0  0  0  0  0  0  0  0  0
    0.6108   -0.6333   -1.0381 O   0  0  0  0  0  0  0  0  0  0  0  0
   -0.2715    1.3204    0.2051 O   0  0  0  0  0  0  0  0  0  0  0  0
    0.7007    0.0958   -1.0621 C   0  0  0  0  0  0  0  0  0  0  0  0
    3.0360   -0.7229   -0.9703 N   0  0  0  0  0  0  0  0  0  0  0  0
   -0.6620    0.1234   -0.4104 C   0  0  0  0  0  0  0  0  0  0  0  0
    1.7919   -0.5757   -0.2007 C   0  0  1  0  0  0  0  0  0  0  0  0
   -1.4137   -1.0531   -0.2843 C   0  0  0  0  0  0  0  0  0  0  0  0
   -1.1928    1.3238    0.0808 C   0  0  0  0  0  0  0  0  0  0  0  0
    2.1054    0.2221    1.0655 C   0  0  0  0  0  0  0  0  0  0  0  0
   -2.6699   -1.0289    0.3234 C   0  0  0  0  0  0  0  0  0  0  0  0
   -2.4494    1.3458    0.6883 C   0  0  0  0  0  0  0  0  0  0  0  0
   -3.1872    0.1700    0.8097 C   0  0  0  0  0  0  0  0  0  0  0  0
    1.1064   -0.3703   -1.4285 H   0  0  0  0  0  0  0  0  0  0  0  0
    0.8583    1.3392   -1.1539 H   0  0  0  0  0  0  0  0  0  0  0  0
    0.8462   -1.2421    1.5009 H   0  0  0  0  0  0  0  0  0  0  0  0
    2.0202   -1.7256    0.4874 H   0  0  0  0  0  0  0  0  0  0  0  0
    1.4417    1.0377    1.2921 H   0  0  0  0  0  0  0  0  0  0  0  0
   -0.9140    2.0259    0.6857 H   0  0  0  0  0  0  0  0  0  0  0  0
   -0.7487   -1.8526   -1.2013 H   0  0  0  0  0  0  0  0  0  0  0  0
    3.8661    0.6559    0.9459 H   0  0  0  0  0  0  0  0  0  0  0  0
    3.5533   -0.0399   -0.6546 H   0  0  0  0  0  0  0  0  0  0  0  0
    3.2022    1.6682   -0.3418 H   0  0  0  0  0  0  0  0  0  0  0  0
   -3.2701    1.6167    1.2958 H   0  0  0  0  0  0  0  0  0  0  0  0
   -3.1052   -2.2422   -0.5828 H   0  0  0  0  0  0  0  0  0  0  0  0
   -4.3718   -0.5143    0.6663 H   0  0  0  0  0  0  0  0  0  0  0  0
    1.5728   -0.5482   -0.8746 H   0  0  0  0  0  0  0  0  0  0  0  0
   -1.0939    1.5009   -0.2956 H   0  0  0  0  0  0  0  0  0  0  0  0
    0.5999   -0.4380   -2.0172 H   0  0  0  0  0  0  0  0  0  0  0  0
    1.0072    1.1167   -1.3270 H   0  0  0  0  0  0  0  0  0  0  0  0
    2.8494   -1.2408   -1.8282 H   0  0  0  0  0  0  0  0  0  0  0  0
    3.3741    0.1946   -1.2593 H   0  0  0  0  0  0  0  0  0  0  0  0
    1.4666   -1.5799    0.0954 H   0  0  0  0  0  0  0  0  0  0  0  0
   -1.0250   -1.9970   -0.6599 H   0  0  0  0  0  0  0  0  0  0  0  0
   -0.6299    2.2507   -0.0029 H   0  0  0  0  0  0  0  0  0  0  0  0
    2.9146   -0.2497    1.6347 H   0  0  0  0  0  0  0  0  0  0  0  0
    2.4125    1.2472    0.8298 H   0  0  0  0  0  0  0  0  0  0  0  0
    1.2343    0.2730    1.7267 H   0  0  0  0  0  0  0  0  0  0  0  0
   -3.2451   -1.9463    0.4173 H   0  0  0  0  0  0  0  0  0  0  0  0
   -2.8523    2.2811    1.0677 H   0  0  0  0  0  0  0  0  0  0  0  0
   -4.1652    0.1880    1.2832 H   0  0  0  0  0  0  0  0  0  0  0  0
  4  2  1  0
  3  1  1  0
  4  1  1  0
  5  3  2  0
  6  3  1  0
  4  7  1  0
  8  5  1  0
  9  6  2  0
 10  8  2  0
  9 10  1  0
 12 11  2  0
 13 11  2  0
 14 11  1  0
 15 11  1  0
 19 17  1  0
 18 16  1  0
 19 16  1  0
 20 18  2  0
 21 18  1  0
 19 22  1  0
 23 20  1  0
 24 21  2  0
 25 23  2  0
 24 25  1  0
  1 26  1  0
  1 27  1  0
  2 28  1  0
  2 29  1  0
  4 30  1  1
  5 31  1  0
  6 32  1  0
  7 33  1  0
  7 34  1  0
  7 35  1  0
  8 36  1  0
  9 37  1  0
 10 38  1  0
 14 39  1  0
 15 40  1  0
 16 41  1  0
 16 42  1  0
 17 43  1  0
 17 44  1  0
 19 45  1  1
 20 46  1  0
 21 47  1  0
 22 48  1  0
 22 49  1  0
 22 50  1  0
 23 51  1  0
 24 52  1  0
 25 53  1  0
M  END
$$$$
