
     RDKit          3D

 53 52  0  0  0  0  0  0  0  0999 V2000
    0.6838    0.3396   -0.8874 C   0  0  0  0  0  0  0  0  0  0  0  0
    1.9478   -0.8060    0.9492 N   0  0  0  0  0  0  0  0  0  0  0  0
   -0.7003    0.0386   -0.3584 C   0  0  0  0  0  0  0  0  0  0  0  0
    1.7623    0.4514    0.2131 C   0  0  1  0  0  0  0  0  0  0  0  0
   -1.2812   -1.2209   -0.5600 C   0  0  0  0  0  0  0  0  0  0  0  0
   -1.4197    1.0128    0.3473 C   0  0  0  0  0  0  0  0  0  0  0  0
    3.1031    0.8559   -0.3981 C   0  0  0  0  0  0  0  0  0  0  0  0
   -2.5550   -1.5006   -0.0623 C   0  0  0  0  0  0  0  0  0  0  0  0
   -2.6932    0.7310    0.8442 C   0  0  0  0  0  0  0  0  0  0  0  0
   -3.2601   -0.5253    0.6398 C   0  0  0  0  0  0  0  0  0  0  0  0
   -0.0822    0.4133    0.1726 S   0  0  0  0  0  0  0  0  0  0  0  0
   -0.7886    0.4962    1.4255 O   0  0  0  0  0  0  0  0  0  0  0  0
    0.3793    1.5606   -0.5663 O   0  0  0  0  0  0  0  0  0  0  0  0
   -0.9888   -0.4837   -0.8005 O   0  0  0  0  0  0  0  0  0  0  0  0
    1.1925   -0.5399    0.3730 O   0  0  0  0  0  0  0  0  0  0  0  0
   -0.7970    0.6654   -0.3934 C   0  0  0  0  0  0  0  0  0  0  0  0
   -1.9384   -1.2616    0.7073 N   0  0  0  0  0  0  0  0  0  0  0  0
    0.6202    0.5869    0.1276 C   0  0  0  0  0  0  0  0  0  0  0  0
   -1.4688   -0.7138   -0.5731 C   0  0  1  0  0  0  0  0  0  0  0  0
    0.8701    0.4093    1.4945 C   0  0  0  0  0  0  0  0  0  0  0  0
    1.7073    0.6793   -0.7530 C   0  0  0  0  0  0  0  0  0  0  0  0
   -2.6602   -0.6055   -1.5270 C   0  0  0  0  0  0  0  0  0  0  0  0
    2.1793    0.3337    1.9728 C   0  0  0  0  0  0  0  0  0  0  0  0
    3.0164    0.6045   -0.2734 C   0  0  0  0  0  0  0  0  0  0  0  0
    3.2521    0.4330    1.0893 C   0  0  0  0  0  0  0  0  0  0  0  0
    0.9748   -0.4265   -1.6187 H   0  0  0  0  0  0  0  0  0  0  0  0
    0.6330    1.2807   -1.4511 H   0  0  0  0  0  0  0  0  0  0  0  0
    2.1608   -1.5582    0.2955 H   0  0  0  0  0  0  0  0  0  0  0  0
    1.0583   -1.0643    1.3814 H   0  0  0  0  0  0  0  0  0  0  0  0
    1.4717    1.2224    0.9365 H   0  0  0  0  0  0  0  0  0  0  0  0
   -0.7456   -1.9942   -1.1058 H   0  0  0  0  0  0  0  0  0  0  0  0
   -0.9920    1.9988    0.5151 H   0  0  0  0  0  0  0  0  0  0  0  0
    3.8716    0.9627    0.3757 H   0  0  0  0  0  0  0  0  0  0  0  0
    3.4551    0.1149   -1.1248 H   0  0  0  0  0  0  0  0  0  0  0  0
    3.0176    1.8186   -0.9135 H   0  0  0  0  0  0  0  0  0  0  0  0
   -2.9978   -2.4801   -0.2234 H   0  0  0  0  0  0  0  0  0  0  0  0
   -3.2430    1.4926    1.3910 H   0  0  0  0  0  0  0  0  0  0  0  0
   -4.2519   -0.7437    1.0268 H   0  0  0  0  0  0  0  0  0  0  0  0
   -1.5168   -1.0827   -0.2328 H   0  0  0  0  0  0  0  0  0  0  0  0
    1.8046   -0.3639   -0.3714 H   0  0  0  0  0  0  0  0  0  0  0  0
   -0.7790    1.1927   -1.3568 H   0  0  0  0  0  0  0  0  0  0  0  0
   -1.3931    1.3057    0.2711 H   0  0  0  0  0  0  0  0  0  0  0  0
   -2.6723   -0.6674    1.0901 H   0  0  0  0  0  0  0  0  0  0  0  0
   -2.3630   -2.1749    0.5513 H   0  0  0  0  0  0  0  0  0  0  0  0
   -0.7479   -1.4198   -1.0029 H   0  0  0  0  0  0  0  0  0  0  0  0
    0.0413    0.3176    2.1930 H   0  0  0  0  0  0  0  0  0  0  0  0
    1.5419    0.8104   -1.8196 H   0  0  0  0  0  0  0  0  0  0  0  0
   -2.3356   -0.2522   -2.5117 H   0  0  0  0  0  0  0  0  0  0  0  0
   -3.1410   -1.5797   -1.6697 H   0  0  0  0  0  0  0  0  0  0  0  0
   -3.4150    0.0939   -1.1499 H   0  0  0  0  0  0  0  0  0  0  0  0
    2.3596    0.1919    3.0348 H   0  0  0  0  0  0  0  0  0  0  0  0
    3.8522    0.6783   -0.9637 H   0  0  0  0  0  0  0  0  0  0  0  0
    4.2708    0.3722    1.4622 H   0  0  0  0  0  0  0  0  0  0  0  0
  4  2  1  0
  3  1  1  0
  4  1  1  0
  5  3  2  0
  6  3  1  0
  4  7  1  0
  8  5  1  0
  9  6  2  0
 10  8  2  0
  9 10  1  0
 12 11  2  0
 13 11  2  0
 14 11  1  0
 15 11  1  0
 19 17  1  0
 18 16  1  0
 19 16  1  0
 20 18  2  0
 21 18  1  0
 19 22  1  0
 23 20  1  0
 24 21  2  0
 25 23  2  0
 24 25  1  0
  1 26  1  0
  1 27  1  0
  2 28  1  0
  2 29  1  0
  4 30  1  1
  5 31  1  0
  6 32  1  0
  7 33  1  0
  7 34  1  0
  7 35  1  0
  8 36  1  0
  9 37  1  0
 10 38  1  0
 14 39  1  0
 15 40  1  0
 16 41  1  0
 16 42  1  0
 17 43  1  0
 17 44  1  0
 19 45  1  6
 20 46  1  0
 21 47  1  0
 22 48  1  0
 22 49  1  0
 22 50  1  0
 23 51  1  0
 24 52  1  0
 25 53  1  0
M  END
$$$$
