
     RDKit          3D

 53 52  0  0  0  0  0  0  0  0999 V2000
   -0.7376    0.2389    0.8315 C   0  0  0  0  0  0  0  0  0  0  0  0
   -1.7540   -1.5427   -0.5898 N   0  0  0  0  0  0  0  0  0  0  0  0
    0.7266    0.2043    0.4558 C   0  0  0  0  0  0  0  0  0  0  0  0
   -1.6864   -0.0959   -0.3406 C   0  0  1  0  0  0  0  0  0  0  0  0
    1.4181   -1.0120    0.3874 C   0  0  0  0  0  0  0  0  0  0  0  0
    1.4123    1.3906    0.1586 C   0  0  0  0  0  0  0  0  0  0  0  0
   -3.0973    0.4180   -0.0468 C   0  0  0  0  0  0  0  0  0  0  0  0
    2.7690   -1.0418    0.0371 C   0  0  0  0  0  0  0  0  0  0  0  0
    2.7637    1.3597   -0.1906 C   0  0  0  0  0  0  0  0  0  0  0  0
    3.4420    0.1439   -0.2502 C   0  0  0  0  0  0  0  0  0  0  0  0
   -0.0236    0.3945    0.2262 S   0  0  0  0  0  0  0  0  0  0  0  0
    0.5467    0.4532    1.5479 O   0  0  0  0  0  0  0  0  0  0  0  0
   -0.6643    1.5103   -0.4220 O   0  0  0  0  0  0  0  0  0  0  0  0
    1.1304   -0.1580   -0.7415 O   0  0  0  0  0  0  0  0  0  0  0  0
   -1.0718   -0.8190    0.1812 O   0  0  0  0  0  0  0  0  0  0  0  0
   -0.9185   -0.2997   -1.0978 C   0  0  0  0  0  0  0  0  0  0  0  0
   -1.8622   -1.4337    0.9438 N   0  0  0  0  0  0  0  0  0  0  0  0
    0.4755   -0.0631   -0.5616 C   0  0  0  0  0  0  0  0  0  0  0  0
   -2.0512   -0.3665   -0.0458 C   0  0  1  0  0  0  0  0  0  0  0  0
    1.3006   -1.1437   -0.2187 C   0  0  0  0  0  0  0  0  0  0  0  0
    0.9662    1.2398   -0.4004 C   0  0  0  0  0  0  0  0  0  0  0  0
   -2.2665    0.9588    0.6841 C   0  0  0  0  0  0  0  0  0  0  0  0
    2.5846   -0.9248    0.2829 C   0  0  0  0  0  0  0  0  0  0  0  0
    2.2504    1.4572    0.1016 C   0  0  0  0  0  0  0  0  0  0  0  0
    3.0587    0.3753    0.4442 C   0  0  0  0  0  0  0  0  0  0  0  0
   -0.9690    1.2417    1.2154 H   0  0  0  0  0  0  0  0  0  0  0  0
   -0.9110   -0.4381    1.6790 H   0  0  0  0  0  0  0  0  0  0  0  0
   -2.1649   -2.0141    0.2147 H   0  0  0  0  0  0  0  0  0  0  0  0
   -2.3774   -1.7237   -1.3756 H   0  0  0  0  0  0  0  0  0  0  0  0
   -1.3266    0.3918   -1.2546 H   0  0  0  0  0  0  0  0  0  0  0  0
    0.9010   -1.9458    0.5970 H   0  0  0  0  0  0  0  0  0  0  0  0
    0.8982    2.3479    0.1973 H   0  0  0  0  0  0  0  0  0  0  0  0
   -3.5084   -0.0335    0.8632 H   0  0  0  0  0  0  0  0  0  0  0  0
   -3.7790    0.1939   -0.8750 H   0  0  0  0  0  0  0  0  0  0  0  0
   -3.0919    1.5049    0.0890 H   0  0  0  0  0  0  0  0  0  0  0  0
    3.2929   -1.9922   -0.0162 H   0  0  0  0  0  0  0  0  0  0  0  0
    3.2867    2.2846   -0.4181 H   0  0  0  0  0  0  0  0  0  0  0  0
    4.4930    0.1195   -0.5245 H   0  0  0  0  0  0  0  0  0  0  0  0
    1.7297   -0.7056   -0.1931 H   0  0  0  0  0  0  0  0  0  0  0  0
   -1.6470   -0.6752   -0.5988 H   0  0  0  0  0  0  0  0  0  0  0  0
   -1.1531    0.4849   -1.8298 H   0  0  0  0  0  0  0  0  0  0  0  0
   -0.9138   -1.2340   -1.6763 H   0  0  0  0  0  0  0  0  0  0  0  0
   -1.6684   -2.3115    0.4648 H   0  0  0  0  0  0  0  0  0  0  0  0
   -1.0254   -1.2289    1.4934 H   0  0  0  0  0  0  0  0  0  0  0  0
   -2.9777   -0.5929   -0.5880 H   0  0  0  0  0  0  0  0  0  0  0  0
    0.9492   -2.1654   -0.3428 H   0  0  0  0  0  0  0  0  0  0  0  0
    0.3498    2.0965   -0.6637 H   0  0  0  0  0  0  0  0  0  0  0  0
   -3.1599    0.9108    1.3173 H   0  0  0  0  0  0  0  0  0  0  0  0
   -2.4131    1.7757   -0.0305 H   0  0  0  0  0  0  0  0  0  0  0  0
   -1.4203    1.2174    1.3293 H   0  0  0  0  0  0  0  0  0  0  0  0
    3.2163   -1.7693    0.5460 H   0  0  0  0  0  0  0  0  0  0  0  0
    2.6202    2.4718    0.2247 H   0  0  0  0  0  0  0  0  0  0  0  0
    4.0586    0.5455    0.8343 H   0  0  0  0  0  0  0  0  0  0  0  0
  4  2  1  0
  3  1  1  0
  4  1  1  0
  5  3  2  0
  6  3  1  0
  4  7  1  0
  8  5  1  0
  9  6  2  0
 10  8  2  0
  9 10  1  0
 12 11  2  0
 13 11  2  0
 14 11  1  0
 15 11  1  0
 19 17  1  0
 18 16  1  0
 19 16  1  0
 20 18  2  0
 21 18  1  0
 19 22  1  0
 23 20  1  0
 24 21  2  0
 25 23  2  0
 24 25  1  0
  1 26  1  0
  1 27  1  0
  2 28  1  0
  2 29  1  0
  4 30  1  6
  5 31  1  0
  6 32  1  0
  7 33  1  0
  7 34  1  0
  7 35  1  0
  8 36  1  0
  9 37  1  0
 10 38  1  0
 14 39  1  0
 15 40  1  0
 16 41  1  0
 16 42  1  0
 17 43  1  0
 17 44  1  0
 19 45  1  6
 20 46  1  0
 21 47  1  0
 22 48  1  0
 22 49  1  0
 22 50  1  0
 23 51  1  0
 24 52  1  0
 25 53  1  0
M  END
$$$$
