
     RDKit          3D

 53 52  0  0  0  0  0  0  0  0999 V2000
   -0.6689   -0.4084   -0.7865 C   0  0  0  0  0  0  0  0  0  0  0  0
   -1.8500    1.5407    0.2303 N   0  0  0  0  0  0  0  0  0  0  0  0
    0.7620   -0.2382   -0.3286 C   0  0  0  0  0  0  0  0  0  0  0  0
   -1.7116    0.0776    0.2443 C   0  0  1  0  0  0  0  0  0  0  0  0
    1.4019    1.0039   -0.4306 C   0  0  0  0  0  0  0  0  0  0  0  0
    1.4673   -1.3204    0.2165 C   0  0  0  0  0  0  0  0  0  0  0  0
   -3.0779   -0.5473   -0.0453 C   0  0  0  0  0  0  0  0  0  0  0  0
    2.7218    1.1594   -0.0041 C   0  0  0  0  0  0  0  0  0  0  0  0
    2.7879   -1.1639    0.6417 C   0  0  0  0  0  0  0  0  0  0  0  0
    3.4152    0.0754    0.5303 C   0  0  0  0  0  0  0  0  0  0  0  0
    0.0001    0.4196    0.1770 S   0  0  0  0  0  0  0  0  0  0  0  0
   -0.7471    1.4440   -0.5070 O   0  0  0  0  0  0  0  0  0  0  0  0
    0.7477    0.6442    1.3878 O   0  0  0  0  0  0  0  0  0  0  0  0
    1.0190   -0.2462   -0.8681 O   0  0  0  0  0  0  0  0  0  0  0  0
   -1.0193   -0.7930    0.4298 O   0  0  0  0  0  0  0  0  0  0  0  0
    0.6438   -0.5018    0.7526 C   0  0  0  0  0  0  0  0  0  0  0  0
    2.0730    1.1711   -0.4248 N   0  0  0  0  0  0  0  0  0  0  0  0
   -0.7645   -0.0864    0.3918 C   0  0  0  0  0  0  0  0  0  0  0  0
    1.6735   -0.2421   -0.3691 C   0  0  1  0  0  0  0  0  0  0  0  0
   -1.6928   -1.0365   -0.0568 C   0  0  0  0  0  0  0  0  0  0  0  0
   -1.1610    1.2537    0.4884 C   0  0  0  0  0  0  0  0  0  0  0  0
    2.9236   -1.0973   -0.1527 C   0  0  0  0  0  0  0  0  0  0  0  0
   -2.9929   -0.6537   -0.3926 C   0  0  0  0  0  0  0  0  0  0  0  0
   -2.4607    1.6354    0.1515 C   0  0  0  0  0  0  0  0  0  0  0  0
   -3.3768    0.6817   -0.2873 C   0  0  0  0  0  0  0  0  0  0  0  0
   -0.8351   -1.4725   -1.0023 H   0  0  0  0  0  0  0  0  0  0  0  0
   -0.8052    0.1026   -1.7493 H   0  0  0  0  0  0  0  0  0  0  0  0
   -2.2185    1.8453   -0.6695 H   0  0  0  0  0  0  0  0  0  0  0  0
   -2.5348    1.8243    0.9299 H   0  0  0  0  0  0  0  0  0  0  0  0
   -1.4013   -0.2266    1.2513 H   0  0  0  0  0  0  0  0  0  0  0  0
    0.8674    1.8611   -0.8342 H   0  0  0  0  0  0  0  0  0  0  0  0
    0.9927   -2.2938    0.3135 H   0  0  0  0  0  0  0  0  0  0  0  0
   -3.0229   -1.6398    0.0128 H   0  0  0  0  0  0  0  0  0  0  0  0
   -3.8254   -0.2169    0.6846 H   0  0  0  0  0  0  0  0  0  0  0  0
   -3.4383   -0.2806   -1.0452 H   0  0  0  0  0  0  0  0  0  0  0  0
    3.2054    2.1291   -0.0850 H   0  0  0  0  0  0  0  0  0  0  0  0
    3.3265   -2.0089    1.0618 H   0  0  0  0  0  0  0  0  0  0  0  0
    4.4420    0.1980    0.8636 H   0  0  0  0  0  0  0  0  0  0  0  0
    1.6998   -0.7194   -0.3463 H   0  0  0  0  0  0  0  0  0  0  0  0
   -1.7003   -0.7492   -0.2732 H   0  0  0  0  0  0  0  0  0  0  0  0
    0.6325   -1.5721    0.9993 H   0  0  0  0  0  0  0  0  0  0  0  0
    0.9441    0.0018    1.6816 H   0  0  0  0  0  0  0  0  0  0  0  0
    2.5590    1.4279    0.4332 H   0  0  0  0  0  0  0  0  0  0  0  0
    2.7410    1.3062   -1.1826 H   0  0  0  0  0  0  0  0  0  0  0  0
    1.2363   -0.5120   -1.3380 H   0  0  0  0  0  0  0  0  0  0  0  0
   -1.4097   -2.0823   -0.1478 H   0  0  0  0  0  0  0  0  0  0  0  0
   -0.4517    2.0099    0.8174 H   0  0  0  0  0  0  0  0  0  0  0  0
    3.4027   -0.8736    0.8071 H   0  0  0  0  0  0  0  0  0  0  0  0
    3.6593   -0.9285   -0.9471 H   0  0  0  0  0  0  0  0  0  0  0  0
    2.6691   -2.1627   -0.1621 H   0  0  0  0  0  0  0  0  0  0  0  0
   -3.7054   -1.3977   -0.7382 H   0  0  0  0  0  0  0  0  0  0  0  0
   -2.7545    2.6787    0.2271 H   0  0  0  0  0  0  0  0  0  0  0  0
   -4.3877    0.9800   -0.5510 H   0  0  0  0  0  0  0  0  0  0  0  0
  4  2  1  0
  3  1  1  0
  4  1  1  0
  5  3  2  0
  6  3  1  0
  4  7  1  0
  8  5  1  0
  9  6  2  0
 10  8  2  0
  9 10  1  0
 12 11  2  0
 13 11  2  0
 14 11  1  0
 15 11  1  0
 19 17  1  0
 18 16  1  0
 19 16  1  0
 20 18  2  0
 21 18  1  0
 19 22  1  0
 23 20  1  0
 24 21  2  0
 25 23  2  0
 24 25  1  0
  1 26  1  0
  1 27  1  0
  2 28  1  0
  2 29  1  0
  4 30  1  1
  5 31  1  0
  6 32  1  0
  7 33  1  0
  7 34  1  0
  7 35  1  0
  8 36  1  0
  9 37  1  0
 10 38  1  0
 14 39  1  0
 15 40  1  0
 16 41  1  0
 16 42  1  0
 17 43  1  0
 17 44  1  0
 19 45  1  6
 20 46  1  0
 21 47  1  0
 22 48  1  0
 22 49  1  0
 22 50  1  0
 23 51  1  0
 24 52  1  0
 25 53  1  0
M  END
$$$$
