
     RDKit          3D

 53 52  0  0  0  0  0  0  0  0999 V2000
   -0.6644    0.5020    0.7344 C   0  0  0  0  0  0  0  0  0  0  0  0
   -1.8488   -1.5590   -0.0251 N   0  0  0  0  0  0  0  0  0  0  0  0
    0.7638    0.2777    0.2914 C   0  0  0  0  0  0  0  0  0  0  0  0
   -1.7131   -0.1088   -0.2211 C   0  0  1  0  0  0  0  0  0  0  0  0
    1.4635    1.2848   -0.3883 C   0  0  0  0  0  0  0  0  0  0  0  0
    1.4064   -0.9416    0.5420 C   0  0  0  0  0  0  0  0  0  0  0  0
   -3.0784    0.5460   -0.0018 C   0  0  0  0  0  0  0  0  0  0  0  0
    2.7815    1.0779   -0.7999 C   0  0  0  0  0  0  0  0  0  0  0  0
    2.7238   -1.1476    0.1290 C   0  0  0  0  0  0  0  0  0  0  0  0
    3.4117   -0.1375   -0.5402 C   0  0  0  0  0  0  0  0  0  0  0  0
   -0.0960   -0.3593    0.2628 S   0  0  0  0  0  0  0  0  0  0  0  0
   -0.1903   -1.6525   -0.3650 O   0  0  0  0  0  0  0  0  0  0  0  0
   -0.2875   -0.1356    1.6731 O   0  0  0  0  0  0  0  0  0  0  0  0
   -1.0919    0.6445   -0.4948 O   0  0  0  0  0  0  0  0  0  0  0  0
    1.3297    0.2453   -0.1561 O   0  0  0  0  0  0  0  0  0  0  0  0
   -0.6463   -0.2114   -1.2869 C   0  0  0  0  0  0  0  0  0  0  0  0
   -2.1708   -1.4200    0.3004 N   0  0  0  0  0  0  0  0  0  0  0  0
    0.6430   -0.0672   -0.5101 C   0  0  0  0  0  0  0  0  0  0  0  0
   -1.9587   -0.1876   -0.4680 C   0  0  1  0  0  0  0  0  0  0  0  0
    1.3921    1.1158   -0.5925 C   0  0  0  0  0  0  0  0  0  0  0  0
    1.1176   -1.1098    0.2963 C   0  0  0  0  0  0  0  0  0  0  0  0
   -2.0622    1.0237    0.4576 C   0  0  0  0  0  0  0  0  0  0  0  0
    2.5864    1.2519    0.1179 C   0  0  0  0  0  0  0  0  0  0  0  0
    2.3114   -0.9726    1.0070 C   0  0  0  0  0  0  0  0  0  0  0  0
    3.0459    0.2077    0.9174 C   0  0  0  0  0  0  0  0  0  0  0  0
   -0.8310    1.5845    0.8179 H   0  0  0  0  0  0  0  0  0  0  0  0
   -0.7933    0.1141    1.7540 H   0  0  0  0  0  0  0  0  0  0  0  0
   -2.2108   -1.7502    0.9081 H   0  0  0  0  0  0  0  0  0  0  0  0
   -2.5377   -1.9277   -0.6794 H   0  0  0  0  0  0  0  0  0  0  0  0
   -1.4100    0.0687   -1.2601 H   0  0  0  0  0  0  0  0  0  0  0  0
    0.9866    2.2382   -0.6019 H   0  0  0  0  0  0  0  0  0  0  0  0
    0.8762   -1.7427    1.0522 H   0  0  0  0  0  0  0  0  0  0  0  0
   -3.8303    0.1270   -0.6800 H   0  0  0  0  0  0  0  0  0  0  0  0
   -3.4317    0.4048    1.0259 H   0  0  0  0  0  0  0  0  0  0  0  0
   -3.0258    1.6229   -0.1951 H   0  0  0  0  0  0  0  0  0  0  0  0
    3.3158    1.8650   -1.3251 H   0  0  0  0  0  0  0  0  0  0  0  0
    3.2096   -2.0993    0.3260 H   0  0  0  0  0  0  0  0  0  0  0  0
    4.4364   -0.2994   -0.8628 H   0  0  0  0  0  0  0  0  0  0  0  0
   -1.2349    1.4115    0.0976 H   0  0  0  0  0  0  0  0  0  0  0  0
    1.5709   -0.1540   -1.0175 H   0  0  0  0  0  0  0  0  0  0  0  0
   -0.6996    0.5931   -2.0333 H   0  0  0  0  0  0  0  0  0  0  0  0
   -0.5934   -1.1376   -1.8754 H   0  0  0  0  0  0  0  0  0  0  0  0
   -3.0655   -1.3726    0.7858 H   0  0  0  0  0  0  0  0  0  0  0  0
   -2.2252   -2.2146   -0.3347 H   0  0  0  0  0  0  0  0  0  0  0  0
   -2.7828   -0.1230   -1.1901 H   0  0  0  0  0  0  0  0  0  0  0  0
    1.0492    1.9425   -1.2101 H   0  0  0  0  0  0  0  0  0  0  0  0
    0.5526   -2.0351    0.3826 H   0  0  0  0  0  0  0  0  0  0  0  0
   -1.3256    0.9865    1.2675 H   0  0  0  0  0  0  0  0  0  0  0  0
   -3.0556    1.0775    0.9175 H   0  0  0  0  0  0  0  0  0  0  0  0
   -1.9079    1.9526   -0.1018 H   0  0  0  0  0  0  0  0  0  0  0  0
    3.1573    2.1738    0.0478 H   0  0  0  0  0  0  0  0  0  0  0  0
    2.6642   -1.7876    1.6331 H   0  0  0  0  0  0  0  0  0  0  0  0
    3.9740    0.3140    1.4721 H   0  0  0  0  0  0  0  0  0  0  0  0
  4  2  1  0
  3  1  1  0
  4  1  1  0
  5  3  2  0
  6  3  1  0
  4  7  1  0
  8  5  1  0
  9  6  2  0
 10  8  2  0
  9 10  1  0
 12 11  2  0
 13 11  2  0
 14 11  1  0
 15 11  1  0
 19 17  1  0
 18 16  1  0
 19 16  1  0
 20 18  2  0
 21 18  1  0
 19 22  1  0
 23 20  1  0
 24 21  2  0
 25 23  2  0
 24 25  1  0
  1 26  1  0
  1 27  1  0
  2 28  1  0
  2 29  1  0
  4 30  1  6
  5 31  1  0
  6 32  1  0
  7 33  1  0
  7 34  1  0
  7 35  1  0
  8 36  1  0
  9 37  1  0
 10 38  1  0
 14 39  1  0
 15 40  1  0
 16 41  1  0
 16 42  1  0
 17 43  1  0
 17 44  1  0
 19 45  1  6
 20 46  1  0
 21 47  1  0
 22 48  1  0
 22 49  1  0
 22 50  1  0
 23 51  1  0
 24 52  1  0
 25 53  1  0
M  END
$$$$
