
     RDKit          3D

 53 52  0  0  0  0  0  0  0  0999 V2000
   -0.7523   -0.1367   -1.0615 C   0  0  0  0  0  0  0  0  0  0  0  0
   -3.0828    0.6168   -0.7964 N   0  0  0  0  0  0  0  0  0  0  0  0
    0.6518   -0.1474   -0.5019 C   0  0  0  0  0  0  0  0  0  0  0  0
   -1.7969    0.4676   -0.1002 C   0  0  1  0  0  0  0  0  0  0  0  0
    1.2325   -1.3437   -0.0596 C   0  0  0  0  0  0  0  0  0  0  0  0
    1.3911    1.0402   -0.4117 C   0  0  0  0  0  0  0  0  0  0  0  0
   -2.0166   -0.4013    1.1388 C   0  0  0  0  0  0  0  0  0  0  0  0
    2.5259   -1.3510    0.4649 C   0  0  0  0  0  0  0  0  0  0  0  0
    2.6845    1.0308    0.1127 C   0  0  0  0  0  0  0  0  0  0  0  0
    3.2513   -0.1643    0.5513 C   0  0  0  0  0  0  0  0  0  0  0  0
   -0.1042    0.4422   -0.0315 S   0  0  0  0  0  0  0  0  0  0  0  0
   -0.2805    1.0049   -1.3460 O   0  0  0  0  0  0  0  0  0  0  0  0
   -0.2380    1.1958    1.1890 O   0  0  0  0  0  0  0  0  0  0  0  0
    1.3339   -0.2687   -0.0318 O   0  0  0  0  0  0  0  0  0  0  0  0
   -1.0759   -0.8264    0.1099 O   0  0  0  0  0  0  0  0  0  0  0  0
   -0.9829   -0.2344   -1.0476 C   0  0  0  0  0  0  0  0  0  0  0  0
   -2.0683   -1.2671    0.9673 N   0  0  0  0  0  0  0  0  0  0  0  0
    0.4750   -0.1318   -0.6596 C   0  0  0  0  0  0  0  0  0  0  0  0
   -2.0185   -0.0895    0.0926 C   0  0  1  0  0  0  0  0  0  0  0  0
    1.2263    0.9974   -1.0176 C   0  0  0  0  0  0  0  0  0  0  0  0
    1.1040   -1.1605    0.0535 C   0  0  0  0  0  0  0  0  0  0  0  0
   -1.8091    1.1701    0.9319 C   0  0  0  0  0  0  0  0  0  0  0  0
    2.5744    1.0946   -0.6672 C   0  0  0  0  0  0  0  0  0  0  0  0
    2.4517   -1.0622    0.4042 C   0  0  0  0  0  0  0  0  0  0  0  0
    3.1868    0.0648    0.0436 C   0  0  0  0  0  0  0  0  0  0  0  0
   -1.0472   -1.1551   -1.3481 H   0  0  0  0  0  0  0  0  0  0  0  0
   -0.7305    0.4375   -1.9982 H   0  0  0  0  0  0  0  0  0  0  0  0
   -3.7624    1.0436   -0.1674 H   0  0  0  0  0  0  0  0  0  0  0  0
   -2.9746    1.2615   -1.5785 H   0  0  0  0  0  0  0  0  0  0  0  0
   -1.4721    1.4633    0.2251 H   0  0  0  0  0  0  0  0  0  0  0  0
    0.6788   -2.2782   -0.1186 H   0  0  0  0  0  0  0  0  0  0  0  0
    0.9641    1.9804   -0.7531 H   0  0  0  0  0  0  0  0  0  0  0  0
   -2.3246   -1.4173    0.8674 H   0  0  0  0  0  0  0  0  0  0  0  0
   -1.1037   -0.4728    1.7387 H   0  0  0  0  0  0  0  0  0  0  0  0
   -2.7928    0.0248    1.7847 H   0  0  0  0  0  0  0  0  0  0  0  0
    2.9674   -2.2837    0.8058 H   0  0  0  0  0  0  0  0  0  0  0  0
    3.2507    1.9561    0.1778 H   0  0  0  0  0  0  0  0  0  0  0  0
    4.2585   -0.1713    0.9591 H   0  0  0  0  0  0  0  0  0  0  0  0
    1.5273   -0.5291   -0.9562 H   0  0  0  0  0  0  0  0  0  0  0  0
   -1.1627   -1.0186    1.0666 H   0  0  0  0  0  0  0  0  0  0  0  0
   -1.2016    0.5340   -1.8018 H   0  0  0  0  0  0  0  0  0  0  0  0
   -1.1356   -1.1900   -1.5677 H   0  0  0  0  0  0  0  0  0  0  0  0
   -2.7929   -1.1408    1.6726 H   0  0  0  0  0  0  0  0  0  0  0  0
   -2.3308   -2.0872    0.4230 H   0  0  0  0  0  0  0  0  0  0  0  0
   -3.0049   -0.0100   -0.3822 H   0  0  0  0  0  0  0  0  0  0  0  0
    0.7657    1.8122   -1.5711 H   0  0  0  0  0  0  0  0  0  0  0  0
    0.5424   -2.0439    0.3488 H   0  0  0  0  0  0  0  0  0  0  0  0
   -0.8814    1.1276    1.5128 H   0  0  0  0  0  0  0  0  0  0  0  0
   -1.7714    2.0589    0.2931 H   0  0  0  0  0  0  0  0  0  0  0  0
   -2.6351    1.3075    1.6390 H   0  0  0  0  0  0  0  0  0  0  0  0
    3.1459    1.9749   -0.9483 H   0  0  0  0  0  0  0  0  0  0  0  0
    2.9248   -1.8655    0.9624 H   0  0  0  0  0  0  0  0  0  0  0  0
    4.2352    0.1409    0.3183 H   0  0  0  0  0  0  0  0  0  0  0  0
  4  2  1  0
  3  1  1  0
  4  1  1  0
  5  3  2  0
  6  3  1  0
  4  7  1  0
  8  5  1  0
  9  6  2  0
 10  8  2  0
  9 10  1  0
 12 11  2  0
 13 11  2  0
 14 11  1  0
 15 11  1  0
 19 17  1  0
 18 16  1  0
 19 16  1  0
 20 18  2  0
 21 18  1  0
 19 22  1  0
 23 20  1  0
 24 21  2  0
 25 23  2  0
 24 25  1  0
  1 26  1  0
  1 27  1  0
  2 28  1  0
  2 29  1  0
  4 30  1  1
  5 31  1  0
  6 32  1  0
  7 33  1  0
  7 34  1  0
  7 35  1  0
  8 36  1  0
  9 37  1  0
 10 38  1  0
 14 39  1  0
 15 40  1  0
 16 41  1  0
 16 42  1  0
 17 43  1  0
 17 44  1  0
 19 45  1  6
 20 46  1  0
 21 47  1  0
 22 48  1  0
 22 49  1  0
 22 50  1  0
 23 51  1  0
 24 52  1  0
 25 53  1  0
M  END
$$$$
