
     RDKit          3D

 53 52  0  0  0  0  0  0  0  0999 V2000
   -0.6959   -0.9817    0.1432 C   0  0  0  0  0  0  0  0  0  0  0  0
   -1.6241    0.8221   -1.3061 N   0  0  0  0  0  0  0  0  0  0  0  0
    0.6981   -0.4226    0.3226 C   0  0  0  0  0  0  0  0  0  0  0  0
   -1.7758    0.1071   -0.0324 C   0  0  1  0  0  0  0  0  0  0  0  0
    1.1037    0.0953    1.5602 C   0  0  0  0  0  0  0  0  0  0  0  0
    1.5977   -0.3995   -0.7517 C   0  0  0  0  0  0  0  0  0  0  0  0
   -3.1707   -0.5146    0.0111 C   0  0  0  0  0  0  0  0  0  0  0  0
    2.3859    0.6234    1.7196 C   0  0  0  0  0  0  0  0  0  0  0  0
    2.8791    0.1294   -0.5905 C   0  0  0  0  0  0  0  0  0  0  0  0
    3.2729    0.6403    0.6447 C   0  0  0  0  0  0  0  0  0  0  0  0
   -0.0266    0.4211    0.1713 S   0  0  0  0  0  0  0  0  0  0  0  0
   -0.8086    1.3961   -0.5451 O   0  0  0  0  0  0  0  0  0  0  0  0
    0.6765    0.6996    1.3976 O   0  0  0  0  0  0  0  0  0  0  0  0
   -0.9870   -0.8406    0.4144 O   0  0  0  0  0  0  0  0  0  0  0  0
    1.0528   -0.2023   -0.8386 O   0  0  0  0  0  0  0  0  0  0  0  0
   -0.8179   -0.0519   -0.8760 C   0  0  0  0  0  0  0  0  0  0  0  0
   -1.7710    0.3583    1.4058 N   0  0  0  0  0  0  0  0  0  0  0  0
    0.6341    0.1176   -0.4899 C   0  0  0  0  0  0  0  0  0  0  0  0
   -1.7125   -0.5723    0.2710 C   0  0  1  0  0  0  0  0  0  0  0  0
    1.4470   -1.0026   -0.2687 C   0  0  0  0  0  0  0  0  0  0  0  0
    1.1864    1.3972   -0.3409 C   0  0  0  0  0  0  0  0  0  0  0  0
   -3.1354   -0.8100   -0.2329 C   0  0  0  0  0  0  0  0  0  0  0  0
    2.7845   -0.8454    0.0977 C   0  0  0  0  0  0  0  0  0  0  0  0
    2.5244    1.5521    0.0254 C   0  0  0  0  0  0  0  0  0  0  0  0
    3.3227    0.4314    0.2451 C   0  0  0  0  0  0  0  0  0  0  0  0
   -0.9295   -1.5965    1.0229 H   0  0  0  0  0  0  0  0  0  0  0  0
   -0.7116   -1.6742   -0.7092 H   0  0  0  0  0  0  0  0  0  0  0  0
   -0.7009    1.2589   -1.3288 H   0  0  0  0  0  0  0  0  0  0  0  0
   -2.2966    1.5867   -1.3486 H   0  0  0  0  0  0  0  0  0  0  0  0
   -1.6975    0.8370    0.7826 H   0  0  0  0  0  0  0  0  0  0  0  0
    0.4232    0.0882    2.4085 H   0  0  0  0  0  0  0  0  0  0  0  0
    1.3008   -0.7912   -1.7226 H   0  0  0  0  0  0  0  0  0  0  0  0
   -3.3359   -1.0263    0.9655 H   0  0  0  0  0  0  0  0  0  0  0  0
   -3.3099   -1.2470   -0.7922 H   0  0  0  0  0  0  0  0  0  0  0  0
   -3.9474    0.2516   -0.0906 H   0  0  0  0  0  0  0  0  0  0  0  0
    2.6933    1.0208    2.6833 H   0  0  0  0  0  0  0  0  0  0  0  0
    3.5697    0.1419   -1.4296 H   0  0  0  0  0  0  0  0  0  0  0  0
    4.2713    1.0507    0.7698 H   0  0  0  0  0  0  0  0  0  0  0  0
   -1.6508   -0.8414   -0.3060 H   0  0  0  0  0  0  0  0  0  0  0  0
    1.7438   -0.6325   -0.2935 H   0  0  0  0  0  0  0  0  0  0  0  0
   -1.2133    0.9002   -1.2552 H   0  0  0  0  0  0  0  0  0  0  0  0
   -0.8631   -0.7481   -1.7242 H   0  0  0  0  0  0  0  0  0  0  0  0
   -2.0772    1.2749    1.0826 H   0  0  0  0  0  0  0  0  0  0  0  0
   -0.8229    0.4976    1.7615 H   0  0  0  0  0  0  0  0  0  0  0  0
   -1.3188   -1.5264    0.6410 H   0  0  0  0  0  0  0  0  0  0  0  0
    1.0428   -2.0063   -0.3800 H   0  0  0  0  0  0  0  0  0  0  0  0
    0.5784    2.2832   -0.5085 H   0  0  0  0  0  0  0  0  0  0  0  0
   -3.7746   -1.2030    0.5657 H   0  0  0  0  0  0  0  0  0  0  0  0
   -3.5905    0.1141   -0.6070 H   0  0  0  0  0  0  0  0  0  0  0  0
   -3.1389   -1.5412   -1.0485 H   0  0  0  0  0  0  0  0  0  0  0  0
    3.4069   -1.7201    0.2680 H   0  0  0  0  0  0  0  0  0  0  0  0
    2.9445    2.5481    0.1386 H   0  0  0  0  0  0  0  0  0  0  0  0
    4.3644    0.5528    0.5301 H   0  0  0  0  0  0  0  0  0  0  0  0
  4  2  1  0
  3  1  1  0
  4  1  1  0
  5  3  2  0
  6  3  1  0
  4  7  1  0
  8  5  1  0
  9  6  2  0
 10  8  2  0
  9 10  1  0
 12 11  2  0
 13 11  2  0
 14 11  1  0
 15 11  1  0
 19 17  1  0
 18 16  1  0
 19 16  1  0
 20 18  2  0
 21 18  1  0
 19 22  1  0
 23 20  1  0
 24 21  2  0
 25 23  2  0
 24 25  1  0
  1 26  1  0
  1 27  1  0
  2 28  1  0
  2 29  1  0
  4 30  1  1
  5 31  1  0
  6 32  1  0
  7 33  1  0
  7 34  1  0
  7 35  1  0
  8 36  1  0
  9 37  1  0
 10 38  1  0
 14 39  1  0
 15 40  1  0
 16 41  1  0
 16 42  1  0
 17 43  1  0
 17 44  1  0
 19 45  1  1
 20 46  1  0
 21 47  1  0
 22 48  1  0
 22 49  1  0
 22 50  1  0
 23 51  1  0
 24 52  1  0
 25 53  1  0
M  END
$$$$
