
     RDKit          3D

140137  0  0  0  0  0  0  0  0999 V2000
   51.0216    6.4868   16.7525 O   0  0  0  0  0  0  0  0  0  0  0  0
   52.9898    7.4764   16.1296 O   0  0  0  0  0  0  0  0  0  0  0  0
   51.6753    3.6843   19.0582 O   0  0  0  0  0  0  0  0  0  0  0  0
   48.9730    3.9214   19.4978 O   0  0  0  0  0  0  0  0  0  0  0  0
   51.7743    7.3607   16.0310 C   0  0  0  0  0  0  0  0  0  0  0  0
   50.9062    4.5332   18.1911 C   0  0  2  0  0  0  0  0  0  0  0  0
   51.7728    5.6781   17.6668 C   0  0  0  0  0  0  0  0  0  0  0  0
   50.9261    8.2389   15.1413 C   0  0  0  0  0  0  0  0  0  0  0  0
   49.6913    7.5397   14.5738 C   0  0  0  0  0  0  0  0  0  0  0  0
   49.6982    5.0388   18.9814 C   0  0  0  0  0  0  0  0  0  0  0  0
   49.0011    8.3245   13.4534 C   0  0  0  0  0  0  0  0  0  0  0  0
   48.4760    9.6923   13.9001 C   0  0  0  0  0  0  0  0  0  0  0  0
   47.7129   10.4396   12.8006 C   0  0  0  0  0  0  0  0  0  0  0  0
   46.3362    9.8380   12.5055 C   0  0  0  0  0  0  0  0  0  0  0  0
   45.5897   10.5468   11.3730 C   0  0  0  0  0  0  0  0  0  0  0  0
   45.2020   11.9869   11.7037 C   0  0  0  0  0  0  0  0  0  0  0  0
   44.3404   12.5916   10.6050 C   0  0  0  0  0  0  0  0  0  0  0  0
   47.9533    9.3029   13.1213 C   0  0  0  0  0  0  0  0  0  0  0  0
   48.8762    7.9120   18.2223 C   0  0  0  0  0  0  0  0  0  0  0  0
   47.7931    9.7815   14.3848 O   0  0  0  0  0  0  0  0  0  0  0  0
   48.7673    8.4529   12.7894 O   0  0  0  0  0  0  0  0  0  0  0  0
   48.1166    7.0893   17.7382 O   0  0  0  0  0  0  0  0  0  0  0  0
   48.9699    9.2135   17.8262 O   0  0  0  0  0  0  0  0  0  0  0  0
   48.7048    9.2644   15.3780 C   0  0  2  0  0  0  0  0  0  0  0  0
   48.0971    9.5908   16.7482 C   0  0  0  0  0  0  0  0  0  0  0  0
   50.1023   11.2888   15.4423 O   0  0  0  0  0  0  0  0  0  0  0  0
   46.9554    9.9268   12.1771 C   0  0  0  0  0  0  0  0  0  0  0  0
   49.8291    7.6617   19.3688 C   0  0  0  0  0  0  0  0  0  0  0  0
   50.1055    9.8808   15.2087 C   0  0  0  0  0  0  0  0  0  0  0  0
   46.9778   11.4529   12.2420 C   0  0  0  0  0  0  0  0  0  0  0  0
   50.1726    6.1817   19.5417 C   0  0  0  0  0  0  0  0  0  0  0  0
   44.2511   12.4227    8.6791 C   0  0  0  0  0  0  0  0  0  0  0  0
   52.7445    2.1925   17.7399 C   0  0  0  0  0  0  0  0  0  0  0  0
   52.3042    3.6404   17.5210 C   0  0  0  0  0  0  0  0  0  0  0  0
   45.7386   12.7759    8.7614 C   0  0  0  0  0  0  0  0  0  0  0  0
   51.0707    5.6505   18.4215 C   0  0  0  0  0  0  0  0  0  0  0  0
   51.4091    4.1748   18.6398 C   0  0  0  0  0  0  0  0  0  0  0  0
   46.0553   12.1170   11.2162 C   0  0  0  0  0  0  0  0  0  0  0  0
   46.5559   11.9695    9.7763 C   0  0  0  0  0  0  0  0  0  0  0  0
   43.9837   10.9666    8.3280 C   0  0  0  0  0  0  0  0  0  0  0  0
   51.5962    1.1942   17.7053 C   0  0  0  0  0  0  0  0  0  0  0  0
   48.4894   10.6136   12.3689 O   0  0  0  0  0  0  0  0  0  0  0  0
   46.8631    9.0212   12.6286 O   0  0  0  0  0  0  0  0  0  0  0  0
   47.7126   13.2184   11.5044 O   0  0  0  0  0  0  0  0  0  0  0  0
   45.0758   10.6551   11.2880 O   0  0  0  0  0  0  0  0  0  0  0  0
   47.8556    9.6102   13.0368 C   0  0  0  0  0  0  0  0  0  0  0  0
   47.0627   12.0530   10.9809 C   0  0  1  0  0  0  0  0  0  0  0  0
   48.0354   10.8688   11.0220 C   0  0  0  0  0  0  0  0  0  0  0  0
   48.5159    9.3678   14.3728 C   0  0  0  0  0  0  0  0  0  0  0  0
   45.7522   11.8188   11.7388 C   0  0  0  0  0  0  0  0  0  0  0  0
   48.6318    7.8740   14.6589 C   0  0  0  0  0  0  0  0  0  0  0  0
   49.3135    7.6124   16.0024 C   0  0  0  0  0  0  0  0  0  0  0  0
   49.4897    6.1145   16.2587 C   0  0  0  0  0  0  0  0  0  0  0  0
   50.1582    5.8560   17.6098 C   0  0  0  0  0  0  0  0  0  0  0  0
   50.3874    4.3614   17.8391 C   0  0  0  0  0  0  0  0  0  0  0  0
   51.0388    4.0987   19.1865 C   0  0  0  0  0  0  0  0  0  0  0  0
   52.3993    3.3062   18.5277 H   0  0  0  0  0  0  0  0  0  0  0  0
   49.6554    3.3313   19.8741 H   0  0  0  0  0  0  0  0  0  0  0  0
   50.5470    3.9101   17.3632 H   0  0  0  0  0  0  0  0  0  0  0  0
   52.1251    6.2980   18.4991 H   0  0  0  0  0  0  0  0  0  0  0  0
   52.6545    5.2532   17.1686 H   0  0  0  0  0  0  0  0  0  0  0  0
   50.6394    9.1204   15.7268 H   0  0  0  0  0  0  0  0  0  0  0  0
   51.5662    8.5662   14.3121 H   0  0  0  0  0  0  0  0  0  0  0  0
   49.9783    6.5566   14.1795 H   0  0  0  0  0  0  0  0  0  0  0  0
   48.9704    7.3497   15.3789 H   0  0  0  0  0  0  0  0  0  0  0  0
   49.0196    5.6280   18.3561 H   0  0  0  0  0  0  0  0  0  0  0  0
   50.0095    5.6478   19.8383 H   0  0  0  0  0  0  0  0  0  0  0  0
   49.6937    8.4530   12.6130 H   0  0  0  0  0  0  0  0  0  0  0  0
   48.1724    7.7093   13.0824 H   0  0  0  0  0  0  0  0  0  0  0  0
   49.3243   10.3178   14.2028 H   0  0  0  0  0  0  0  0  0  0  0  0
   47.8331    9.5789   14.7833 H   0  0  0  0  0  0  0  0  0  0  0  0
   48.3148   10.4695   11.8853 H   0  0  0  0  0  0  0  0  0  0  0  0
   47.5882   11.4772   13.1329 H   0  0  0  0  0  0  0  0  0  0  0  0
   45.7229    9.8595   13.4148 H   0  0  0  0  0  0  0  0  0  0  0  0
   46.4466    8.7856   12.2216 H   0  0  0  0  0  0  0  0  0  0  0  0
   46.1980   10.5274   10.4615 H   0  0  0  0  0  0  0  0  0  0  0  0
   44.6807    9.9730   11.1525 H   0  0  0  0  0  0  0  0  0  0  0  0
   46.0974   12.6054   11.8293 H   0  0  0  0  0  0  0  0  0  0  0  0
   44.6479   12.0179   12.6485 H   0  0  0  0  0  0  0  0  0  0  0  0
   44.8694   12.5929    9.6470 H   0  0  0  0  0  0  0  0  0  0  0  0
   43.4080   12.0313   10.4833 H   0  0  0  0  0  0  0  0  0  0  0  0
   44.0844   13.6264   10.8488 H   0  0  0  0  0  0  0  0  0  0  0  0
   48.7817    8.1750   15.2735 H   0  0  0  0  0  0  0  0  0  0  0  0
   47.1072    9.1289   16.8584 H   0  0  0  0  0  0  0  0  0  0  0  0
   47.9178   10.6693   16.8390 H   0  0  0  0  0  0  0  0  0  0  0  0
   50.1474   11.4263   16.4054 H   0  0  0  0  0  0  0  0  0  0  0  0
   47.2110    9.5850   11.1690 H   0  0  0  0  0  0  0  0  0  0  0  0
   45.9612    9.5341   12.4169 H   0  0  0  0  0  0  0  0  0  0  0  0
   49.3472    8.0330   20.2782 H   0  0  0  0  0  0  0  0  0  0  0  0
   50.7492    8.2348   19.2075 H   0  0  0  0  0  0  0  0  0  0  0  0
   50.4772    9.7354   14.1904 H   0  0  0  0  0  0  0  0  0  0  0  0
   50.8257    9.4166   15.8911 H   0  0  0  0  0  0  0  0  0  0  0  0
   46.6583   11.7739   13.2427 H   0  0  0  0  0  0  0  0  0  0  0  0
   48.0047   11.8203   12.1164 H   0  0  0  0  0  0  0  0  0  0  0  0
   50.6885    6.0570   20.5004 H   0  0  0  0  0  0  0  0  0  0  0  0
   49.2538    5.5870   19.5926 H   0  0  0  0  0  0  0  0  0  0  0  0
   43.7499   12.6673    9.6219 H   0  0  0  0  0  0  0  0  0  0  0  0
   43.7912   13.0588    7.9116 H   0  0  0  0  0  0  0  0  0  0  0  0
   53.2709    2.1069   18.6964 H   0  0  0  0  0  0  0  0  0  0  0  0
   53.4621    1.9239   16.9566 H   0  0  0  0  0  0  0  0  0  0  0  0
   53.2047    4.2648   17.4524 H   0  0  0  0  0  0  0  0  0  0  0  0
   51.7847    3.7253   16.5600 H   0  0  0  0  0  0  0  0  0  0  0  0
   45.8317   13.8439    8.9982 H   0  0  0  0  0  0  0  0  0  0  0  0
   46.1902   12.6378    7.7716 H   0  0  0  0  0  0  0  0  0  0  0  0
   50.5731    5.7666   17.4529 H   0  0  0  0  0  0  0  0  0  0  0  0
   51.9967    6.2379   18.3822 H   0  0  0  0  0  0  0  0  0  0  0  0
   51.9181    4.0520   19.6045 H   0  0  0  0  0  0  0  0  0  0  0  0
   50.4807    3.5957   18.6875 H   0  0  0  0  0  0  0  0  0  0  0  0
   45.9811   13.1836   11.4594 H   0  0  0  0  0  0  0  0  0  0  0  0
   45.0479   11.6964   11.3164 H   0  0  0  0  0  0  0  0  0  0  0  0
   47.5981   12.3095    9.7231 H   0  0  0  0  0  0  0  0  0  0  0  0
   46.5633   10.9150    9.4802 H   0  0  0  0  0  0  0  0  0  0  0  0
   44.3111   10.2914    9.1235 H   0  0  0  0  0  0  0  0  0  0  0  0
   44.4959   10.6860    7.4036 H   0  0  0  0  0  0  0  0  0  0  0  0
   42.9105   10.8096    8.1823 H   0  0  0  0  0  0  0  0  0  0  0  0
   51.0235    1.2828   16.7775 H   0  0  0  0  0  0  0  0  0  0  0  0
   51.9855    0.1741   17.7683 H   0  0  0  0  0  0  0  0  0  0  0  0
   50.9142    1.3361   18.5481 H   0  0  0  0  0  0  0  0  0  0  0  0
   48.1347   12.9557   12.3438 H   0  0  0  0  0  0  0  0  0  0  0  0
   45.4763    9.8830   11.7465 H   0  0  0  0  0  0  0  0  0  0  0  0
   46.8236   12.2564    9.9315 H   0  0  0  0  0  0  0  0  0  0  0  0
   48.9362   11.1265   10.4548 H   0  0  0  0  0  0  0  0  0  0  0  0
   47.6107    9.9729   10.5560 H   0  0  0  0  0  0  0  0  0  0  0  0
   49.5162    9.8151   14.3675 H   0  0  0  0  0  0  0  0  0  0  0  0
   47.9274    9.8806   15.1406 H   0  0  0  0  0  0  0  0  0  0  0  0
   45.0873   12.6768   11.5854 H   0  0  0  0  0  0  0  0  0  0  0  0
   45.9169   11.7514   12.8195 H   0  0  0  0  0  0  0  0  0  0  0  0
   49.1996    7.3904   13.8533 H   0  0  0  0  0  0  0  0  0  0  0  0
   47.6357    7.4157   14.6589 H   0  0  0  0  0  0  0  0  0  0  0  0
   48.7177    8.0583   16.8079 H   0  0  0  0  0  0  0  0  0  0  0  0
   50.2947    8.1026   16.0202 H   0  0  0  0  0  0  0  0  0  0  0  0
   48.5136    5.6155   16.2270 H   0  0  0  0  0  0  0  0  0  0  0  0
   50.1010    5.6780   15.4590 H   0  0  0  0  0  0  0  0  0  0  0  0
   51.1190    6.3848   17.6554 H   0  0  0  0  0  0  0  0  0  0  0  0
   49.5302    6.2598   18.4137 H   0  0  0  0  0  0  0  0  0  0  0  0
   51.0231    3.9567   17.0432 H   0  0  0  0  0  0  0  0  0  0  0  0
   49.4318    3.8249   17.7928 H   0  0  0  0  0  0  0  0  0  0  0  0
   51.2142    3.0260   19.3203 H   0  0  0  0  0  0  0  0  0  0  0  0
   52.0031    4.6108   19.2665 H   0  0  0  0  0  0  0  0  0  0  0  0
   50.3974    4.4419   20.0049 H   0  0  0  0  0  0  0  0  0  0  0  0
  1  5  1  0
  1  7  1  0
  2  5  2  0
  3  6  1  0
  4 10  1  0
  5  8  1  0
  6  7  1  0
  6 10  1  0
  8  9  1  0
  9 11  1  0
 11 12  1  0
 12 13  1  0
 13 14  1  0
 14 15  1  0
 15 16  1  0
 16 17  1  0
 19 23  1  0
 20 18  1  0
 21 18  2  0
 22 19  2  0
 23 25  1  0
 24 20  1  0
 25 24  1  0
 26 29  1  0
 27 18  1  0
 28 19  1  0
 29 24  1  0
 30 27  1  0
 31 28  1  0
 32 35  1  0
 33 34  1  0
 34 37  1  0
 35 39  1  0
 36 31  1  0
 37 36  1  0
 38 30  1  0
 39 38  1  0
 40 32  1  0
 41 33  1  0
 42 46  1  0
 42 48  1  0
 43 46  2  0
 44 47  1  0
 45 50  1  0
 46 49  1  0
 47 48  1  0
 47 50  1  0
 49 51  1  0
 51 52  1  0
 52 53  1  0
 53 54  1  0
 54 55  1  0
 55 56  1  0
  3 57  1  0
  4 58  1  0
  6 59  1  6
  7 60  1  0
  7 61  1  0
  8 62  1  0
  8 63  1  0
  9 64  1  0
  9 65  1  0
 10 66  1  0
 10 67  1  0
 11 68  1  0
 11 69  1  0
 12 70  1  0
 12 71  1  0
 13 72  1  0
 13 73  1  0
 14 74  1  0
 14 75  1  0
 15 76  1  0
 15 77  1  0
 16 78  1  0
 16 79  1  0
 17 80  1  0
 17 81  1  0
 17 82  1  0
 24 83  1  1
 25 84  1  0
 25 85  1  0
 26 86  1  0
 27 87  1  0
 27 88  1  0
 28 89  1  0
 28 90  1  0
 29 91  1  0
 29 92  1  0
 30 93  1  0
 30 94  1  0
 31 95  1  0
 31 96  1  0
 32 97  1  0
 32 98  1  0
 33 99  1  0
 33100  1  0
 34101  1  0
 34102  1  0
 35103  1  0
 35104  1  0
 36105  1  0
 36106  1  0
 37107  1  0
 37108  1  0
 38109  1  0
 38110  1  0
 39111  1  0
 39112  1  0
 40113  1  0
 40114  1  0
 40115  1  0
 41116  1  0
 41117  1  0
 41118  1  0
 44119  1  0
 45120  1  0
 47121  1  6
 48122  1  0
 48123  1  0
 49124  1  0
 49125  1  0
 50126  1  0
 50127  1  0
 51128  1  0
 51129  1  0
 52130  1  0
 52131  1  0
 53132  1  0
 53133  1  0
 54134  1  0
 54135  1  0
 55136  1  0
 55137  1  0
 56138  1  0
 56139  1  0
 56140  1  0
M  END
> <Uni-Dock RESULT> 
ENERGY=   -5.670  LOWER_BOUND=    0.000  UPPER_BOUND=    0.000
INTER + INTRA:          -5.670
INTER:                  -5.670
INTRA:                   0.000
UNBOUND:                 0.000

$$$$

     RDKit          3D

140137  0  0  0  0  0  0  0  0999 V2000
   52.6538    9.7178   15.6123 O   0  0  0  0  0  0  0  0  0  0  0  0
   52.9352   11.0509   13.7726 O   0  0  0  0  0  0  0  0  0  0  0  0
   55.5095   10.0984   17.9138 O   0  0  0  0  0  0  0  0  0  0  0  0
   53.7925    8.8233   19.6395 O   0  0  0  0  0  0  0  0  0  0  0  0
   52.3166   10.1856   14.3801 C   0  0  0  0  0  0  0  0  0  0  0  0
   54.2989    9.5300   17.3893 C   0  0  2  0  0  0  0  0  0  0  0  0
   53.8257   10.3241   16.1719 C   0  0  0  0  0  0  0  0  0  0  0  0
   51.0344    9.5695   13.8714 C   0  0  0  0  0  0  0  0  0  0  0  0
   50.8358    8.1135   14.2909 C   0  0  0  0  0  0  0  0  0  0  0  0
   53.2605    9.5215   18.5123 C   0  0  0  0  0  0  0  0  0  0  0  0
   49.7001    7.4078   13.5427 C   0  0  0  0  0  0  0  0  0  0  0  0
   48.3273    8.0470   13.7732 C   0  0  0  0  0  0  0  0  0  0  0  0
   47.1817    7.2902   13.0917 C   0  0  0  0  0  0  0  0  0  0  0  0
   46.8463    5.9611   13.7737 C   0  0  0  0  0  0  0  0  0  0  0  0
   45.7385    5.1750   13.0686 C   0  0  0  0  0  0  0  0  0  0  0  0
   44.3763    5.8651   13.1123 C   0  0  0  0  0  0  0  0  0  0  0  0
   43.2894    4.9760   12.5264 C   0  0  0  0  0  0  0  0  0  0  0  0
   48.2709    7.0573   13.5524 C   0  0  0  0  0  0  0  0  0  0  0  0
   50.3880   10.0095   17.5033 C   0  0  0  0  0  0  0  0  0  0  0  0
   47.9031    7.9658   14.4961 O   0  0  0  0  0  0  0  0  0  0  0  0
   49.4014    6.9270   13.1049 O   0  0  0  0  0  0  0  0  0  0  0  0
   50.5719    8.8335   17.7706 O   0  0  0  0  0  0  0  0  0  0  0  0
   49.3518   10.4853   16.7551 O   0  0  0  0  0  0  0  0  0  0  0  0
   48.9386    8.8660   14.9458 C   0  0  2  0  0  0  0  0  0  0  0  0
   48.4446    9.4870   16.2587 C   0  0  0  0  0  0  0  0  0  0  0  0
   48.1123   10.7875   13.6496 O   0  0  0  0  0  0  0  0  0  0  0  0
   47.1034    6.1878   13.1560 C   0  0  0  0  0  0  0  0  0  0  0  0
   51.2447   11.1627   17.9734 C   0  0  0  0  0  0  0  0  0  0  0  0
   49.2346    9.9362   13.8793 C   0  0  0  0  0  0  0  0  0  0  0  0
   45.8851    7.0125   12.7443 C   0  0  0  0  0  0  0  0  0  0  0  0
   52.6586   10.7302   18.3635 C   0  0  0  0  0  0  0  0  0  0  0  0
   43.2027    3.6698   11.1009 C   0  0  0  0  0  0  0  0  0  0  0  0
   57.2199    9.2032   16.7391 C   0  0  0  0  0  0  0  0  0  0  0  0
   55.7719    9.5322   16.3741 C   0  0  0  0  0  0  0  0  0  0  0  0
   43.7847    4.8125   10.2645 C   0  0  0  0  0  0  0  0  0  0  0  0
   53.5091   10.3355   17.1532 C   0  0  0  0  0  0  0  0  0  0  0  0
   54.9205    9.9295   17.5807 C   0  0  0  0  0  0  0  0  0  0  0  0
   44.7212    6.1602   12.2310 C   0  0  0  0  0  0  0  0  0  0  0  0
   45.0020    5.5216   10.8676 C   0  0  0  0  0  0  0  0  0  0  0  0
   44.1968    2.5566   11.3968 C   0  0  0  0  0  0  0  0  0  0  0  0
   57.3613    7.9717   17.6222 C   0  0  0  0  0  0  0  0  0  0  0  0
   47.4516    7.5941   12.2827 O   0  0  0  0  0  0  0  0  0  0  0  0
   47.8242    5.9464   13.8301 O   0  0  0  0  0  0  0  0  0  0  0  0
   44.8135    7.9102   11.2454 O   0  0  0  0  0  0  0  0  0  0  0  0
   45.3457    4.8624   13.2447 O   0  0  0  0  0  0  0  0  0  0  0  0
   47.9578    7.1015   13.4472 C   0  0  0  0  0  0  0  0  0  0  0  0
   45.3352    6.6047   11.5240 C   0  0  1  0  0  0  0  0  0  0  0  0
   46.8618    6.6287   11.3853 C   0  0  0  0  0  0  0  0  0  0  0  0
   48.6557    8.1936   14.2216 C   0  0  0  0  0  0  0  0  0  0  0  0
   44.8341    6.1395   12.8949 C   0  0  0  0  0  0  0  0  0  0  0  0
   49.9592    7.6828   14.8272 C   0  0  0  0  0  0  0  0  0  0  0  0
   50.6857    8.7829   15.6018 C   0  0  0  0  0  0  0  0  0  0  0  0
   52.0247    8.2889   16.1527 C   0  0  0  0  0  0  0  0  0  0  0  0
   52.7418    9.3871   16.9394 C   0  0  0  0  0  0  0  0  0  0  0  0
   54.1064    8.9111   17.4397 C   0  0  0  0  0  0  0  0  0  0  0  0
   54.8167    9.9944   18.2340 C   0  0  0  0  0  0  0  0  0  0  0  0
   56.1877   10.0311   17.2181 H   0  0  0  0  0  0  0  0  0  0  0  0
   54.6994    9.1723   19.7458 H   0  0  0  0  0  0  0  0  0  0  0  0
   54.5221    8.4929   17.1112 H   0  0  0  0  0  0  0  0  0  0  0  0
   53.6014   11.3579   16.4582 H   0  0  0  0  0  0  0  0  0  0  0  0
   54.6359   10.3496   15.4311 H   0  0  0  0  0  0  0  0  0  0  0  0
   50.2063   10.1935   14.2277 H   0  0  0  0  0  0  0  0  0  0  0  0
   51.0656    9.6266   12.7759 H   0  0  0  0  0  0  0  0  0  0  0  0
   51.7635    7.5541   14.1158 H   0  0  0  0  0  0  0  0  0  0  0  0
   50.6444    8.0617   15.3701 H   0  0  0  0  0  0  0  0  0  0  0  0
   52.3342    9.0238   18.2072 H   0  0  0  0  0  0  0  0  0  0  0  0
   53.0235   10.5396   18.8432 H   0  0  0  0  0  0  0  0  0  0  0  0
   49.9218    7.3897   12.4689 H   0  0  0  0  0  0  0  0  0  0  0  0
   49.6860    6.3627   13.8751 H   0  0  0  0  0  0  0  0  0  0  0  0
   48.3384    9.0679   13.3731 H   0  0  0  0  0  0  0  0  0  0  0  0
   48.1260    8.1292   14.8497 H   0  0  0  0  0  0  0  0  0  0  0  0
   47.4242    7.1211   12.0363 H   0  0  0  0  0  0  0  0  0  0  0  0
   46.2982    7.9394   13.1146 H   0  0  0  0  0  0  0  0  0  0  0  0
   46.5550    6.1455   14.8152 H   0  0  0  0  0  0  0  0  0  0  0  0
   47.7378    5.3250   13.8011 H   0  0  0  0  0  0  0  0  0  0  0  0
   46.0249    4.9872   12.0275 H   0  0  0  0  0  0  0  0  0  0  0  0
   45.6577    4.1926   13.5509 H   0  0  0  0  0  0  0  0  0  0  0  0
   44.4045    6.8041   12.5490 H   0  0  0  0  0  0  0  0  0  0  0  0
   44.1148    6.1121   14.1473 H   0  0  0  0  0  0  0  0  0  0  0  0
   43.5090    4.7219   11.4848 H   0  0  0  0  0  0  0  0  0  0  0  0
   43.1930    4.0459   13.0952 H   0  0  0  0  0  0  0  0  0  0  0  0
   42.3243    5.4895   12.5505 H   0  0  0  0  0  0  0  0  0  0  0  0
   49.8568    8.2992   15.1440 H   0  0  0  0  0  0  0  0  0  0  0  0
   48.2559    8.7117   17.0129 H   0  0  0  0  0  0  0  0  0  0  0  0
   47.4747    9.9771   16.1079 H   0  0  0  0  0  0  0  0  0  0  0  0
   48.1130   11.4679   14.3466 H   0  0  0  0  0  0  0  0  0  0  0  0
   47.4383    5.5618   12.3227 H   0  0  0  0  0  0  0  0  0  0  0  0
   46.8676    5.5233   13.9944 H   0  0  0  0  0  0  0  0  0  0  0  0
   50.7461   11.6048   18.8412 H   0  0  0  0  0  0  0  0  0  0  0  0
   51.2984   11.9205   17.1834 H   0  0  0  0  0  0  0  0  0  0  0  0
   49.4767    9.4746   12.9177 H   0  0  0  0  0  0  0  0  0  0  0  0
   50.0886   10.5573   14.1702 H   0  0  0  0  0  0  0  0  0  0  0  0
   45.5293    7.5842   13.6121 H   0  0  0  0  0  0  0  0  0  0  0  0
   46.1705    7.7535   11.9861 H   0  0  0  0  0  0  0  0  0  0  0  0
   53.1439   11.5647   18.8820 H   0  0  0  0  0  0  0  0  0  0  0  0
   52.6134    9.8956   19.0718 H   0  0  0  0  0  0  0  0  0  0  0  0
   42.7984    4.0562   12.0429 H   0  0  0  0  0  0  0  0  0  0  0  0
   42.3524    3.2441   10.5524 H   0  0  0  0  0  0  0  0  0  0  0  0
   57.6794   10.0626   17.2388 H   0  0  0  0  0  0  0  0  0  0  0  0
   57.7831    9.0343   15.8145 H   0  0  0  0  0  0  0  0  0  0  0  0
   55.7809   10.3599   15.6528 H   0  0  0  0  0  0  0  0  0  0  0  0
   55.3165    8.6740   15.8673 H   0  0  0  0  0  0  0  0  0  0  0  0
   42.9940    5.5532   10.0863 H   0  0  0  0  0  0  0  0  0  0  0  0
   44.0696    4.4211    9.2806 H   0  0  0  0  0  0  0  0  0  0  0  0
   53.0404    9.5020   16.6195 H   0  0  0  0  0  0  0  0  0  0  0  0
   53.5654   11.1779   16.4524 H   0  0  0  0  0  0  0  0  0  0  0  0
   55.4008   10.7644   18.1071 H   0  0  0  0  0  0  0  0  0  0  0  0
   54.8568    9.0950   18.2870 H   0  0  0  0  0  0  0  0  0  0  0  0
   43.8355    6.8011   12.1480 H   0  0  0  0  0  0  0  0  0  0  0  0
   44.4880    5.3889   12.9744 H   0  0  0  0  0  0  0  0  0  0  0  0
   45.3249    6.3020   10.1665 H   0  0  0  0  0  0  0  0  0  0  0  0
   45.8345    4.8137   10.9410 H   0  0  0  0  0  0  0  0  0  0  0  0
   45.0046    2.8981   12.0500 H   0  0  0  0  0  0  0  0  0  0  0  0
   44.6381    2.1700   10.4741 H   0  0  0  0  0  0  0  0  0  0  0  0
   43.6898    1.7293   11.9031 H   0  0  0  0  0  0  0  0  0  0  0  0
   56.8752    7.1028   17.1691 H   0  0  0  0  0  0  0  0  0  0  0  0
   58.4192    7.7334   17.7648 H   0  0  0  0  0  0  0  0  0  0  0  0
   56.9268    8.1344   18.6123 H   0  0  0  0  0  0  0  0  0  0  0  0
   45.3457    8.5451   11.7608 H   0  0  0  0  0  0  0  0  0  0  0  0
   46.2442    4.9958   13.6209 H   0  0  0  0  0  0  0  0  0  0  0  0
   44.9382    5.9252   10.7621 H   0  0  0  0  0  0  0  0  0  0  0  0
   47.1236    6.9693   10.3778 H   0  0  0  0  0  0  0  0  0  0  0  0
   47.3006    5.6325   11.5091 H   0  0  0  0  0  0  0  0  0  0  0  0
   48.8716    9.0314   13.5491 H   0  0  0  0  0  0  0  0  0  0  0  0
   47.9680    8.5560   14.9926 H   0  0  0  0  0  0  0  0  0  0  0  0
   43.7402    6.0718   12.8764 H   0  0  0  0  0  0  0  0  0  0  0  0
   45.0806    6.8609   13.6813 H   0  0  0  0  0  0  0  0  0  0  0  0
   50.6079    7.2995   14.0287 H   0  0  0  0  0  0  0  0  0  0  0  0
   49.7541    6.8387   15.4964 H   0  0  0  0  0  0  0  0  0  0  0  0
   50.0513    9.1297   16.4264 H   0  0  0  0  0  0  0  0  0  0  0  0
   50.8579    9.6446   14.9452 H   0  0  0  0  0  0  0  0  0  0  0  0
   51.8614    7.4174   16.7982 H   0  0  0  0  0  0  0  0  0  0  0  0
   52.6610    7.9599   15.3217 H   0  0  0  0  0  0  0  0  0  0  0  0
   52.8734   10.2727   16.3044 H   0  0  0  0  0  0  0  0  0  0  0  0
   52.1228    9.6919   17.7925 H   0  0  0  0  0  0  0  0  0  0  0  0
   54.7313    8.6153   16.5892 H   0  0  0  0  0  0  0  0  0  0  0  0
   53.9841    8.0244   18.0737 H   0  0  0  0  0  0  0  0  0  0  0  0
   55.7997    9.6409   18.5628 H   0  0  0  0  0  0  0  0  0  0  0  0
   54.9669   10.8945   17.6292 H   0  0  0  0  0  0  0  0  0  0  0  0
   54.2403   10.2692   19.1235 H   0  0  0  0  0  0  0  0  0  0  0  0
  1  5  1  0
  1  7  1  0
  2  5  2  0
  3  6  1  0
  4 10  1  0
  5  8  1  0
  6  7  1  0
  6 10  1  0
  8  9  1  0
  9 11  1  0
 11 12  1  0
 12 13  1  0
 13 14  1  0
 14 15  1  0
 15 16  1  0
 16 17  1  0
 19 23  1  0
 20 18  1  0
 21 18  2  0
 22 19  2  0
 23 25  1  0
 24 20  1  0
 25 24  1  0
 26 29  1  0
 27 18  1  0
 28 19  1  0
 29 24  1  0
 30 27  1  0
 31 28  1  0
 32 35  1  0
 33 34  1  0
 34 37  1  0
 35 39  1  0
 36 31  1  0
 37 36  1  0
 38 30  1  0
 39 38  1  0
 40 32  1  0
 41 33  1  0
 42 46  1  0
 42 48  1  0
 43 46  2  0
 44 47  1  0
 45 50  1  0
 46 49  1  0
 47 48  1  0
 47 50  1  0
 49 51  1  0
 51 52  1  0
 52 53  1  0
 53 54  1  0
 54 55  1  0
 55 56  1  0
  3 57  1  0
  4 58  1  0
  6 59  1  6
  7 60  1  0
  7 61  1  0
  8 62  1  0
  8 63  1  0
  9 64  1  0
  9 65  1  0
 10 66  1  0
 10 67  1  0
 11 68  1  0
 11 69  1  0
 12 70  1  0
 12 71  1  0
 13 72  1  0
 13 73  1  0
 14 74  1  0
 14 75  1  0
 15 76  1  0
 15 77  1  0
 16 78  1  0
 16 79  1  0
 17 80  1  0
 17 81  1  0
 17 82  1  0
 24 83  1  1
 25 84  1  0
 25 85  1  0
 26 86  1  0
 27 87  1  0
 27 88  1  0
 28 89  1  0
 28 90  1  0
 29 91  1  0
 29 92  1  0
 30 93  1  0
 30 94  1  0
 31 95  1  0
 31 96  1  0
 32 97  1  0
 32 98  1  0
 33 99  1  0
 33100  1  0
 34101  1  0
 34102  1  0
 35103  1  0
 35104  1  0
 36105  1  0
 36106  1  0
 37107  1  0
 37108  1  0
 38109  1  0
 38110  1  0
 39111  1  0
 39112  1  0
 40113  1  0
 40114  1  0
 40115  1  0
 41116  1  0
 41117  1  0
 41118  1  0
 44119  1  0
 45120  1  0
 47121  1  6
 48122  1  0
 48123  1  0
 49124  1  0
 49125  1  0
 50126  1  0
 50127  1  0
 51128  1  0
 51129  1  0
 52130  1  0
 52131  1  0
 53132  1  0
 53133  1  0
 54134  1  0
 54135  1  0
 55136  1  0
 55137  1  0
 56138  1  0
 56139  1  0
 56140  1  0
M  END
> <Uni-Dock RESULT> 
ENERGY=   -5.620  LOWER_BOUND=    3.673  UPPER_BOUND=    5.073
INTER + INTRA:          -5.620
INTER:                  -5.620
INTRA:                   0.000
UNBOUND:                 0.000

$$$$

     RDKit          3D

140137  0  0  0  0  0  0  0  0999 V2000
   49.4303   11.6273   15.2273 O   0  0  0  0  0  0  0  0  0  0  0  0
   48.1582   12.6383   13.6147 O   0  0  0  0  0  0  0  0  0  0  0  0
   48.7534   13.1391   18.5218 O   0  0  0  0  0  0  0  0  0  0  0  0
   50.0741   10.8925   19.3939 O   0  0  0  0  0  0  0  0  0  0  0  0
   49.0391   11.8535   13.9442 C   0  0  0  0  0  0  0  0  0  0  0  0
   49.4274   12.3157   17.5566 C   0  0  2  0  0  0  0  0  0  0  0  0
   48.7199   12.3989   16.2042 C   0  0  0  0  0  0  0  0  0  0  0  0
   49.7649   10.9611   12.9648 C   0  0  0  0  0  0  0  0  0  0  0  0
   51.2126   10.6621   13.3521 C   0  0  0  0  0  0  0  0  0  0  0  0
   49.4626   10.8873   18.1027 C   0  0  0  0  0  0  0  0  0  0  0  0
   52.0274   10.0113   12.2294 C   0  0  0  0  0  0  0  0  0  0  0  0
   51.4778    8.6524   11.7850 C   0  0  0  0  0  0  0  0  0  0  0  0
   52.3414    7.9654   10.7211 C   0  0  0  0  0  0  0  0  0  0  0  0
   53.6614    7.4214   11.2741 C   0  0  0  0  0  0  0  0  0  0  0  0
   54.5525    6.7802   10.2078 C   0  0  0  0  0  0  0  0  0  0  0  0
   53.9593    5.5115    9.5975 C   0  0  0  0  0  0  0  0  0  0  0  0
   54.9466    4.8404    8.6541 C   0  0  0  0  0  0  0  0  0  0  0  0
   52.4773    8.7447   11.6305 C   0  0  0  0  0  0  0  0  0  0  0  0
   49.2214    8.7460   15.8973 C   0  0  0  0  0  0  0  0  0  0  0  0
   51.5588    7.9548   12.2496 O   0  0  0  0  0  0  0  0  0  0  0  0
   52.5459    9.9608   11.7388 O   0  0  0  0  0  0  0  0  0  0  0  0
   50.3693    8.8443   16.2983 O   0  0  0  0  0  0  0  0  0  0  0  0
   48.8515    8.1312   14.7376 O   0  0  0  0  0  0  0  0  0  0  0  0
   50.5696    8.6401   13.0478 C   0  0  2  0  0  0  0  0  0  0  0  0
   49.9312    7.5858   13.9612 C   0  0  0  0  0  0  0  0  0  0  0  0
   48.7669    8.3921   11.3914 O   0  0  0  0  0  0  0  0  0  0  0  0
   53.4430    7.9162   10.8196 C   0  0  0  0  0  0  0  0  0  0  0  0
   47.9920    9.2510   16.6173 C   0  0  0  0  0  0  0  0  0  0  0  0
   49.5265    9.3316   12.1512 C   0  0  0  0  0  0  0  0  0  0  0  0
   52.7243    6.9731    9.8564 C   0  0  0  0  0  0  0  0  0  0  0  0
   48.3068   10.3611   17.6207 C   0  0  0  0  0  0  0  0  0  0  0  0
   56.3137    5.4563    7.4304 C   0  0  0  0  0  0  0  0  0  0  0  0
   49.5734   15.2320   18.2884 C   0  0  0  0  0  0  0  0  0  0  0  0
   49.3631   14.0848   17.2994 C   0  0  0  0  0  0  0  0  0  0  0  0
   55.1683    6.2979    6.8612 C   0  0  0  0  0  0  0  0  0  0  0  0
   48.6902   11.6783   16.9412 C   0  0  0  0  0  0  0  0  0  0  0  0
   48.9773   12.7683   17.9751 C   0  0  0  0  0  0  0  0  0  0  0  0
   53.6773    6.1991    8.9415 C   0  0  0  0  0  0  0  0  0  0  0  0
   54.3505    7.0860    7.8898 C   0  0  0  0  0  0  0  0  0  0  0  0
   57.3406    6.2635    8.2108 C   0  0  0  0  0  0  0  0  0  0  0  0
   50.7541   15.0206   19.2252 C   0  0  0  0  0  0  0  0  0  0  0  0
   52.0530    8.5534   10.0959 O   0  0  0  0  0  0  0  0  0  0  0  0
   53.6046    8.2715   11.7577 O   0  0  0  0  0  0  0  0  0  0  0  0
   51.9676    6.6419    7.9806 O   0  0  0  0  0  0  0  0  0  0  0  0
   54.8846    6.3645   10.2132 O   0  0  0  0  0  0  0  0  0  0  0  0
   52.4599    8.5096   11.3949 C   0  0  0  0  0  0  0  0  0  0  0  0
   53.2203    7.0431    8.5500 C   0  0  1  0  0  0  0  0  0  0  0  0
   53.0942    8.4689    9.0988 C   0  0  0  0  0  0  0  0  0  0  0  0
   51.2899    8.7398   12.3211 C   0  0  0  0  0  0  0  0  0  0  0  0
   53.6625    6.0054    9.5866 C   0  0  0  0  0  0  0  0  0  0  0  0
   51.6816    9.6587   13.4739 C   0  0  0  0  0  0  0  0  0  0  0  0
   50.5017    9.9140   14.4123 C   0  0  0  0  0  0  0  0  0  0  0  0
   50.8764   10.8883   15.5307 C   0  0  0  0  0  0  0  0  0  0  0  0
   49.6986   11.1299   16.4759 C   0  0  0  0  0  0  0  0  0  0  0  0
   50.0557   12.1488   17.5591 C   0  0  0  0  0  0  0  0  0  0  0  0
   48.8929   12.3817   18.5091 C   0  0  0  0  0  0  0  0  0  0  0  0
   48.8014   14.0584   18.2038 H   0  0  0  0  0  0  0  0  0  0  0  0
   49.6577   11.6405   19.8659 H   0  0  0  0  0  0  0  0  0  0  0  0
   50.4567   12.6856   17.4777 H   0  0  0  0  0  0  0  0  0  0  0  0
   47.6936   12.0244   16.2902 H   0  0  0  0  0  0  0  0  0  0  0  0
   48.6679   13.4522   15.8978 H   0  0  0  0  0  0  0  0  0  0  0  0
   49.1868   10.0338   12.8746 H   0  0  0  0  0  0  0  0  0  0  0  0
   49.7513   11.4743   11.9948 H   0  0  0  0  0  0  0  0  0  0  0  0
   51.7118   11.5948   13.6438 H   0  0  0  0  0  0  0  0  0  0  0  0
   51.2330   10.0127   14.2363 H   0  0  0  0  0  0  0  0  0  0  0  0
   50.0369   10.2173   17.4547 H   0  0  0  0  0  0  0  0  0  0  0  0
   48.4511   10.4823   18.2241 H   0  0  0  0  0  0  0  0  0  0  0  0
   52.0742   10.6886   11.3682 H   0  0  0  0  0  0  0  0  0  0  0  0
   53.0561    9.8976   12.5922 H   0  0  0  0  0  0  0  0  0  0  0  0
   50.4762    8.7946   11.3620 H   0  0  0  0  0  0  0  0  0  0  0  0
   51.3655    7.9893   12.6532 H   0  0  0  0  0  0  0  0  0  0  0  0
   52.5365    8.6598    9.8959 H   0  0  0  0  0  0  0  0  0  0  0  0
   51.7560    7.1360   10.3066 H   0  0  0  0  0  0  0  0  0  0  0  0
   53.4551    6.6890   12.0642 H   0  0  0  0  0  0  0  0  0  0  0  0
   54.2312    8.2351   11.7361 H   0  0  0  0  0  0  0  0  0  0  0  0
   54.7626    7.5083    9.4160 H   0  0  0  0  0  0  0  0  0  0  0  0
   55.5173    6.5372   10.6708 H   0  0  0  0  0  0  0  0  0  0  0  0
   53.0448    5.7453    9.0417 H   0  0  0  0  0  0  0  0  0  0  0  0
   53.6886    4.8057   10.3907 H   0  0  0  0  0  0  0  0  0  0  0  0
   55.2275    5.5120    7.8370 H   0  0  0  0  0  0  0  0  0  0  0  0
   55.8567    4.5427    9.1841 H   0  0  0  0  0  0  0  0  0  0  0  0
   54.5021    3.9435    8.2139 H   0  0  0  0  0  0  0  0  0  0  0  0
   51.0614    9.3984   13.6697 H   0  0  0  0  0  0  0  0  0  0  0  0
   50.6860    7.1160   14.6055 H   0  0  0  0  0  0  0  0  0  0  0  0
   49.5177    6.7636   13.3640 H   0  0  0  0  0  0  0  0  0  0  0  0
   48.0598    8.0517   11.9684 H   0  0  0  0  0  0  0  0  0  0  0  0
   54.0778    8.6150   10.2653 H   0  0  0  0  0  0  0  0  0  0  0  0
   54.0872    7.3619   11.5109 H   0  0  0  0  0  0  0  0  0  0  0  0
   47.5506    8.3988   17.1427 H   0  0  0  0  0  0  0  0  0  0  0  0
   47.2657    9.6167   15.8824 H   0  0  0  0  0  0  0  0  0  0  0  0
   50.0092    9.9970   11.4298 H   0  0  0  0  0  0  0  0  0  0  0  0
   48.8349    9.9379   12.7462 H   0  0  0  0  0  0  0  0  0  0  0  0
   52.1437    6.2428   10.4361 H   0  0  0  0  0  0  0  0  0  0  0  0
   51.9971    7.5326    9.2536 H   0  0  0  0  0  0  0  0  0  0  0  0
   47.4193   10.5267   18.2417 H   0  0  0  0  0  0  0  0  0  0  0  0
   49.1124   10.0428   18.2915 H   0  0  0  0  0  0  0  0  0  0  0  0
   55.9181    4.6580    8.0678 H   0  0  0  0  0  0  0  0  0  0  0  0
   56.8208    4.9593    6.5932 H   0  0  0  0  0  0  0  0  0  0  0  0
   48.6637   15.3817   18.8794 H   0  0  0  0  0  0  0  0  0  0  0  0
   49.7402   16.1549   17.7219 H   0  0  0  0  0  0  0  0  0  0  0  0
   48.5675   14.3769   16.6014 H   0  0  0  0  0  0  0  0  0  0  0  0
   50.2716   13.9419   16.7037 H   0  0  0  0  0  0  0  0  0  0  0  0
   54.4935    5.6369    6.3015 H   0  0  0  0  0  0  0  0  0  0  0  0
   55.5791    7.0084    6.1338 H   0  0  0  0  0  0  0  0  0  0  0  0
   49.5763   11.5343   16.3138 H   0  0  0  0  0  0  0  0  0  0  0  0
   47.8758   12.0029   16.2814 H   0  0  0  0  0  0  0  0  0  0  0  0
   48.0894   12.9259   18.6010 H   0  0  0  0  0  0  0  0  0  0  0  0
   49.7842   12.4344   18.6360 H   0  0  0  0  0  0  0  0  0  0  0  0
   53.1047    5.4152    8.4318 H   0  0  0  0  0  0  0  0  0  0  0  0
   54.4317    5.6942    9.5562 H   0  0  0  0  0  0  0  0  0  0  0  0
   53.5790    7.6519    7.3520 H   0  0  0  0  0  0  0  0  0  0  0  0
   54.9941    7.8296    8.3720 H   0  0  0  0  0  0  0  0  0  0  0  0
   56.9159    6.6797    9.1286 H   0  0  0  0  0  0  0  0  0  0  0  0
   57.7329    7.0864    7.6071 H   0  0  0  0  0  0  0  0  0  0  0  0
   58.1799    5.6219    8.4963 H   0  0  0  0  0  0  0  0  0  0  0  0
   51.6733   14.8266   18.6647 H   0  0  0  0  0  0  0  0  0  0  0  0
   50.9109   15.9137   19.8366 H   0  0  0  0  0  0  0  0  0  0  0  0
   50.5816   14.1838   19.9076 H   0  0  0  0  0  0  0  0  0  0  0  0
   51.2758    6.8598    8.6332 H   0  0  0  0  0  0  0  0  0  0  0  0
   54.6725    6.9945   10.9376 H   0  0  0  0  0  0  0  0  0  0  0  0
   53.9571    7.0578    7.7396 H   0  0  0  0  0  0  0  0  0  0  0  0
   52.7780    9.1363    8.2900 H   0  0  0  0  0  0  0  0  0  0  0  0
   54.0508    8.8509    9.4718 H   0  0  0  0  0  0  0  0  0  0  0  0
   50.4675    9.1947   11.7576 H   0  0  0  0  0  0  0  0  0  0  0  0
   50.9454    7.7652   12.6819 H   0  0  0  0  0  0  0  0  0  0  0  0
   53.8081    5.0384    9.0911 H   0  0  0  0  0  0  0  0  0  0  0  0
   52.8934    5.8432   10.3494 H   0  0  0  0  0  0  0  0  0  0  0  0
   52.0509   10.6116   13.0727 H   0  0  0  0  0  0  0  0  0  0  0  0
   52.5096    9.2152   14.0397 H   0  0  0  0  0  0  0  0  0  0  0  0
   50.1667    8.9640   14.8457 H   0  0  0  0  0  0  0  0  0  0  0  0
   49.6580   10.3217   13.8420 H   0  0  0  0  0  0  0  0  0  0  0  0
   51.7298   10.4940   16.0956 H   0  0  0  0  0  0  0  0  0  0  0  0
   51.1939   11.8422   15.0911 H   0  0  0  0  0  0  0  0  0  0  0  0
   48.8330   11.4906   15.9053 H   0  0  0  0  0  0  0  0  0  0  0  0
   49.4032   10.1828   16.9444 H   0  0  0  0  0  0  0  0  0  0  0  0
   50.3415   13.0997   17.0949 H   0  0  0  0  0  0  0  0  0  0  0  0
   50.9218   11.7970   18.1329 H   0  0  0  0  0  0  0  0  0  0  0  0
   49.1620   13.1301   19.2619 H   0  0  0  0  0  0  0  0  0  0  0  0
   48.0103   12.7449   17.9727 H   0  0  0  0  0  0  0  0  0  0  0  0
   48.6229   11.4578   19.0311 H   0  0  0  0  0  0  0  0  0  0  0  0
  1  5  1  0
  1  7  1  0
  2  5  2  0
  3  6  1  0
  4 10  1  0
  5  8  1  0
  6  7  1  0
  6 10  1  0
  8  9  1  0
  9 11  1  0
 11 12  1  0
 12 13  1  0
 13 14  1  0
 14 15  1  0
 15 16  1  0
 16 17  1  0
 19 23  1  0
 20 18  1  0
 21 18  2  0
 22 19  2  0
 23 25  1  0
 24 20  1  0
 25 24  1  0
 26 29  1  0
 27 18  1  0
 28 19  1  0
 29 24  1  0
 30 27  1  0
 31 28  1  0
 32 35  1  0
 33 34  1  0
 34 37  1  0
 35 39  1  0
 36 31  1  0
 37 36  1  0
 38 30  1  0
 39 38  1  0
 40 32  1  0
 41 33  1  0
 42 46  1  0
 42 48  1  0
 43 46  2  0
 44 47  1  0
 45 50  1  0
 46 49  1  0
 47 48  1  0
 47 50  1  0
 49 51  1  0
 51 52  1  0
 52 53  1  0
 53 54  1  0
 54 55  1  0
 55 56  1  0
  3 57  1  0
  4 58  1  0
  6 59  1  6
  7 60  1  0
  7 61  1  0
  8 62  1  0
  8 63  1  0
  9 64  1  0
  9 65  1  0
 10 66  1  0
 10 67  1  0
 11 68  1  0
 11 69  1  0
 12 70  1  0
 12 71  1  0
 13 72  1  0
 13 73  1  0
 14 74  1  0
 14 75  1  0
 15 76  1  0
 15 77  1  0
 16 78  1  0
 16 79  1  0
 17 80  1  0
 17 81  1  0
 17 82  1  0
 24 83  1  1
 25 84  1  0
 25 85  1  0
 26 86  1  0
 27 87  1  0
 27 88  1  0
 28 89  1  0
 28 90  1  0
 29 91  1  0
 29 92  1  0
 30 93  1  0
 30 94  1  0
 31 95  1  0
 31 96  1  0
 32 97  1  0
 32 98  1  0
 33 99  1  0
 33100  1  0
 34101  1  0
 34102  1  0
 35103  1  0
 35104  1  0
 36105  1  0
 36106  1  0
 37107  1  0
 37108  1  0
 38109  1  0
 38110  1  0
 39111  1  0
 39112  1  0
 40113  1  0
 40114  1  0
 40115  1  0
 41116  1  0
 41117  1  0
 41118  1  0
 44119  1  0
 45120  1  0
 47121  1  6
 48122  1  0
 48123  1  0
 49124  1  0
 49125  1  0
 50126  1  0
 50127  1  0
 51128  1  0
 51129  1  0
 52130  1  0
 52131  1  0
 53132  1  0
 53133  1  0
 54134  1  0
 54135  1  0
 55136  1  0
 55137  1  0
 56138  1  0
 56139  1  0
 56140  1  0
M  END
> <Uni-Dock RESULT> 
ENERGY=   -5.187  LOWER_BOUND=    4.611  UPPER_BOUND=    7.686
INTER + INTRA:          -5.187
INTER:                  -5.187
INTRA:                   0.000
UNBOUND:                 0.000

$$$$

     RDKit          3D

140137  0  0  0  0  0  0  0  0999 V2000
   51.5985    9.7868   11.0913 O   0  0  0  0  0  0  0  0  0  0  0  0
   51.7662    7.7743   10.0131 O   0  0  0  0  0  0  0  0  0  0  0  0
   53.0003   12.4783    8.9965 O   0  0  0  0  0  0  0  0  0  0  0  0
   51.6734   14.0567   10.8131 O   0  0  0  0  0  0  0  0  0  0  0  0
   51.4903    8.4333   11.0081 C   0  0  0  0  0  0  0  0  0  0  0  0
   52.4601   11.8663   10.1786 C   0  0  2  0  0  0  0  0  0  0  0  0
   52.0776   10.4138    9.8948 C   0  0  0  0  0  0  0  0  0  0  0  0
   50.9099    7.8328   12.2670 C   0  0  0  0  0  0  0  0  0  0  0  0
   51.3229    8.5567   13.5480 C   0  0  0  0  0  0  0  0  0  0  0  0
   51.2611   12.7008   10.6320 C   0  0  0  0  0  0  0  0  0  0  0  0
   50.9818    7.7853   14.8272 C   0  0  0  0  0  0  0  0  0  0  0  0
   49.4809    7.5409   15.0109 C   0  0  0  0  0  0  0  0  0  0  0  0
   49.1353    6.8432   16.3313 C   0  0  0  0  0  0  0  0  0  0  0  0
   49.2914    7.7524   17.5533 C   0  0  0  0  0  0  0  0  0  0  0  0
   48.9984    7.0481   18.8801 C   0  0  0  0  0  0  0  0  0  0  0  0
   47.5410    6.6172   19.0348 C   0  0  0  0  0  0  0  0  0  0  0  0
   47.2769    6.0561   20.4243 C   0  0  0  0  0  0  0  0  0  0  0  0
   49.9871    7.5734   15.8907 C   0  0  0  0  0  0  0  0  0  0  0  0
   49.0101   11.0017   11.8783 C   0  0  0  0  0  0  0  0  0  0  0  0
   48.9446    8.1506   15.2342 O   0  0  0  0  0  0  0  0  0  0  0  0
   51.1128    7.4307   15.4348 O   0  0  0  0  0  0  0  0  0  0  0  0
   49.6466   11.5937   12.7343 O   0  0  0  0  0  0  0  0  0  0  0  0
   48.1750    9.9502   12.1166 O   0  0  0  0  0  0  0  0  0  0  0  0
   49.2048    8.5694   13.8770 C   0  0  2  0  0  0  0  0  0  0  0  0
   48.0817    9.5404   13.4911 C   0  0  0  0  0  0  0  0  0  0  0  0
   48.0120    6.6779   12.8500 O   0  0  0  0  0  0  0  0  0  0  0  0
   49.5875    7.1683   17.2881 C   0  0  0  0  0  0  0  0  0  0  0  0
   48.9955   11.3362   10.4043 C   0  0  0  0  0  0  0  0  0  0  0  0
   49.2655    7.3555   12.9318 C   0  0  0  0  0  0  0  0  0  0  0  0
   48.3270    6.3052   17.2990 C   0  0  0  0  0  0  0  0  0  0  0  0
   50.2311   12.1213    9.9624 C   0  0  0  0  0  0  0  0  0  0  0  0
   48.2973    5.0278   21.7077 C   0  0  0  0  0  0  0  0  0  0  0  0
   55.2019   11.9718    8.9405 C   0  0  0  0  0  0  0  0  0  0  0  0
   53.9809   11.2292    9.4848 C   0  0  0  0  0  0  0  0  0  0  0  0
   48.4817    4.0745   20.5239 C   0  0  0  0  0  0  0  0  0  0  0  0
   51.5012   11.2666    9.9562 C   0  0  0  0  0  0  0  0  0  0  0  0
   52.7099   12.0796    9.4897 C   0  0  0  0  0  0  0  0  0  0  0  0
   47.9593    5.7865   18.6918 C   0  0  0  0  0  0  0  0  0  0  0  0
   48.9338    4.7260   19.2127 C   0  0  0  0  0  0  0  0  0  0  0  0
   49.5529    5.8069   22.0708 C   0  0  0  0  0  0  0  0  0  0  0  0
   55.6341   13.1489    9.8030 C   0  0  0  0  0  0  0  0  0  0  0  0
   49.4653    6.0621   16.0141 O   0  0  0  0  0  0  0  0  0  0  0  0
   50.0758    8.0217   17.0318 O   0  0  0  0  0  0  0  0  0  0  0  0
   47.4976    4.4311   17.2804 O   0  0  0  0  0  0  0  0  0  0  0  0
   48.7749    7.2086   19.3355 O   0  0  0  0  0  0  0  0  0  0  0  0
   49.7446    7.3949   16.0337 C   0  0  0  0  0  0  0  0  0  0  0  0
   48.4681    5.1403   18.0610 C   0  0  1  0  0  0  0  0  0  0  0  0
   49.7420    5.3350   17.2307 C   0  0  0  0  0  0  0  0  0  0  0  0
   49.5333    7.9973   14.6654 C   0  0  0  0  0  0  0  0  0  0  0  0
   47.8492    6.4417   18.5805 C   0  0  0  0  0  0  0  0  0  0  0  0
   50.6484    8.9814   14.3266 C   0  0  0  0  0  0  0  0  0  0  0  0
   50.4565    9.5881   12.9362 C   0  0  0  0  0  0  0  0  0  0  0  0
   51.6097   10.5242   12.5696 C   0  0  0  0  0  0  0  0  0  0  0  0
   51.4071   11.1407   11.1847 C   0  0  0  0  0  0  0  0  0  0  0  0
   52.5885   12.0300   10.7945 C   0  0  0  0  0  0  0  0  0  0  0  0
   52.3853   12.6560    9.4249 C   0  0  0  0  0  0  0  0  0  0  0  0
   53.8067   11.9873    8.7574 H   0  0  0  0  0  0  0  0  0  0  0  0
   52.2071   14.2648   10.0210 H   0  0  0  0  0  0  0  0  0  0  0  0
   53.2350   11.9176   10.9529 H   0  0  0  0  0  0  0  0  0  0  0  0
   51.3008   10.3708    9.1230 H   0  0  0  0  0  0  0  0  0  0  0  0
   52.9607    9.8853    9.5115 H   0  0  0  0  0  0  0  0  0  0  0  0
   49.8190    7.8291   12.1566 H   0  0  0  0  0  0  0  0  0  0  0  0
   51.2574    6.7929   12.3142 H   0  0  0  0  0  0  0  0  0  0  0  0
   52.4054    8.7360   13.5322 H   0  0  0  0  0  0  0  0  0  0  0  0
   50.8478    9.5450   13.5846 H   0  0  0  0  0  0  0  0  0  0  0  0
   50.8476   12.3394   11.5791 H   0  0  0  0  0  0  0  0  0  0  0  0
   50.4673   12.7012    9.8757 H   0  0  0  0  0  0  0  0  0  0  0  0
   51.5138    6.8264   14.8320 H   0  0  0  0  0  0  0  0  0  0  0  0
   51.3727    8.3622   15.6740 H   0  0  0  0  0  0  0  0  0  0  0  0
   49.1209    6.9057   14.1928 H   0  0  0  0  0  0  0  0  0  0  0  0
   48.9334    8.4904   14.9412 H   0  0  0  0  0  0  0  0  0  0  0  0
   49.7518    5.9448   16.4492 H   0  0  0  0  0  0  0  0  0  0  0  0
   48.0937    6.5072   16.2637 H   0  0  0  0  0  0  0  0  0  0  0  0
   48.6323    8.6232   17.4504 H   0  0  0  0  0  0  0  0  0  0  0  0
   50.3172    8.1342   17.6006 H   0  0  0  0  0  0  0  0  0  0  0  0
   49.6552    6.1775   18.9885 H   0  0  0  0  0  0  0  0  0  0  0  0
   49.2567    7.7358   19.6954 H   0  0  0  0  0  0  0  0  0  0  0  0
   47.2868    5.8528   18.2925 H   0  0  0  0  0  0  0  0  0  0  0  0
   46.8776    7.4724   18.8641 H   0  0  0  0  0  0  0  0  0  0  0  0
   47.9119    5.1874   20.6241 H   0  0  0  0  0  0  0  0  0  0  0  0
   47.4695    6.8086   21.1954 H   0  0  0  0  0  0  0  0  0  0  0  0
   46.2346    5.7380   20.5140 H   0  0  0  0  0  0  0  0  0  0  0  0
   50.1640    9.1002   13.8346 H   0  0  0  0  0  0  0  0  0  0  0  0
   48.0646   10.4079   14.1639 H   0  0  0  0  0  0  0  0  0  0  0  0
   47.1027    9.0624   13.6208 H   0  0  0  0  0  0  0  0  0  0  0  0
   47.4588    7.1610   12.2102 H   0  0  0  0  0  0  0  0  0  0  0  0
   50.4306    6.6159   17.7152 H   0  0  0  0  0  0  0  0  0  0  0  0
   49.4513    8.0767   17.8851 H   0  0  0  0  0  0  0  0  0  0  0  0
   48.0977   11.9325   10.2158 H   0  0  0  0  0  0  0  0  0  0  0  0
   48.9227   10.4101    9.8228 H   0  0  0  0  0  0  0  0  0  0  0  0
   49.9940    6.6201   13.2848 H   0  0  0  0  0  0  0  0  0  0  0  0
   49.5647    7.6566   11.9221 H   0  0  0  0  0  0  0  0  0  0  0  0
   47.4823    6.8995   16.9250 H   0  0  0  0  0  0  0  0  0  0  0  0
   48.4407    5.4637   16.6031 H   0  0  0  0  0  0  0  0  0  0  0  0
   50.0540   12.5021    8.9502 H   0  0  0  0  0  0  0  0  0  0  0  0
   50.3742   12.9919   10.6118 H   0  0  0  0  0  0  0  0  0  0  0  0
   47.4797    5.7288   21.5071 H   0  0  0  0  0  0  0  0  0  0  0  0
   47.9882    4.4350   22.5784 H   0  0  0  0  0  0  0  0  0  0  0  0
   54.9977   12.3229    7.9235 H   0  0  0  0  0  0  0  0  0  0  0  0
   56.0373   11.2661    8.8718 H   0  0  0  0  0  0  0  0  0  0  0  0
   53.8159   10.3403    8.8620 H   0  0  0  0  0  0  0  0  0  0  0  0
   54.1902   10.8720   10.4994 H   0  0  0  0  0  0  0  0  0  0  0  0
   47.5352    3.5457   20.3503 H   0  0  0  0  0  0  0  0  0  0  0  0
   49.2181    3.3093   20.7974 H   0  0  0  0  0  0  0  0  0  0  0  0
   51.6962   10.8748   10.9601 H   0  0  0  0  0  0  0  0  0  0  0  0
   51.3609   10.4034    9.2935 H   0  0  0  0  0  0  0  0  0  0  0  0
   52.5261   12.4668    8.4791 H   0  0  0  0  0  0  0  0  0  0  0  0
   52.8387   12.9443   10.1493 H   0  0  0  0  0  0  0  0  0  0  0  0
   46.9537    5.3522   18.6431 H   0  0  0  0  0  0  0  0  0  0  0  0
   47.9075    6.6331   19.3864 H   0  0  0  0  0  0  0  0  0  0  0  0
   49.0406    3.9364   18.4578 H   0  0  0  0  0  0  0  0  0  0  0  0
   49.9318    5.1568   19.3470 H   0  0  0  0  0  0  0  0  0  0  0  0
   49.8349    6.5105   21.2826 H   0  0  0  0  0  0  0  0  0  0  0  0
   50.3946    5.1322   22.2495 H   0  0  0  0  0  0  0  0  0  0  0  0
   49.3815    6.3849   22.9841 H   0  0  0  0  0  0  0  0  0  0  0  0
   55.8064   12.8383   10.8376 H   0  0  0  0  0  0  0  0  0  0  0  0
   56.5647   13.5739    9.4164 H   0  0  0  0  0  0  0  0  0  0  0  0
   54.8854   13.9457    9.8008 H   0  0  0  0  0  0  0  0  0  0  0  0
   47.4568    4.8701   16.4100 H   0  0  0  0  0  0  0  0  0  0  0  0
   49.3204    7.7241   18.7005 H   0  0  0  0  0  0  0  0  0  0  0  0
   48.7193    4.5097   18.9207 H   0  0  0  0  0  0  0  0  0  0  0  0
   50.1110    4.3557   16.9075 H   0  0  0  0  0  0  0  0  0  0  0  0
   50.5440    5.8014   17.8134 H   0  0  0  0  0  0  0  0  0  0  0  0
   49.5160    7.1967   13.9174 H   0  0  0  0  0  0  0  0  0  0  0  0
   48.5515    8.4817   14.6554 H   0  0  0  0  0  0  0  0  0  0  0  0
   46.9985    6.2039   19.2297 H   0  0  0  0  0  0  0  0  0  0  0  0
   47.4474    7.0520   17.7645 H   0  0  0  0  0  0  0  0  0  0  0  0
   51.6174    8.4680   14.3779 H   0  0  0  0  0  0  0  0  0  0  0  0
   50.6786    9.7829   15.0743 H   0  0  0  0  0  0  0  0  0  0  0  0
   49.5085   10.1386   12.9049 H   0  0  0  0  0  0  0  0  0  0  0  0
   50.3869    8.7869   12.1902 H   0  0  0  0  0  0  0  0  0  0  0  0
   51.6948   11.3193   13.3201 H   0  0  0  0  0  0  0  0  0  0  0  0
   52.5526    9.9634   12.5857 H   0  0  0  0  0  0  0  0  0  0  0  0
   51.2860   10.3448   10.4385 H   0  0  0  0  0  0  0  0  0  0  0  0
   50.4830   11.7321   11.1773 H   0  0  0  0  0  0  0  0  0  0  0  0
   53.5123   11.4400   10.7908 H   0  0  0  0  0  0  0  0  0  0  0  0
   52.7181   12.8271   11.5367 H   0  0  0  0  0  0  0  0  0  0  0  0
   53.2516   13.2696    9.1560 H   0  0  0  0  0  0  0  0  0  0  0  0
   52.2626   11.8889    8.6535 H   0  0  0  0  0  0  0  0  0  0  0  0
   51.4988   13.2986    9.4159 H   0  0  0  0  0  0  0  0  0  0  0  0
  1  5  1  0
  1  7  1  0
  2  5  2  0
  3  6  1  0
  4 10  1  0
  5  8  1  0
  6  7  1  0
  6 10  1  0
  8  9  1  0
  9 11  1  0
 11 12  1  0
 12 13  1  0
 13 14  1  0
 14 15  1  0
 15 16  1  0
 16 17  1  0
 19 23  1  0
 20 18  1  0
 21 18  2  0
 22 19  2  0
 23 25  1  0
 24 20  1  0
 25 24  1  0
 26 29  1  0
 27 18  1  0
 28 19  1  0
 29 24  1  0
 30 27  1  0
 31 28  1  0
 32 35  1  0
 33 34  1  0
 34 37  1  0
 35 39  1  0
 36 31  1  0
 37 36  1  0
 38 30  1  0
 39 38  1  0
 40 32  1  0
 41 33  1  0
 42 46  1  0
 42 48  1  0
 43 46  2  0
 44 47  1  0
 45 50  1  0
 46 49  1  0
 47 48  1  0
 47 50  1  0
 49 51  1  0
 51 52  1  0
 52 53  1  0
 53 54  1  0
 54 55  1  0
 55 56  1  0
  3 57  1  0
  4 58  1  0
  6 59  1  6
  7 60  1  0
  7 61  1  0
  8 62  1  0
  8 63  1  0
  9 64  1  0
  9 65  1  0
 10 66  1  0
 10 67  1  0
 11 68  1  0
 11 69  1  0
 12 70  1  0
 12 71  1  0
 13 72  1  0
 13 73  1  0
 14 74  1  0
 14 75  1  0
 15 76  1  0
 15 77  1  0
 16 78  1  0
 16 79  1  0
 17 80  1  0
 17 81  1  0
 17 82  1  0
 24 83  1  1
 25 84  1  0
 25 85  1  0
 26 86  1  0
 27 87  1  0
 27 88  1  0
 28 89  1  0
 28 90  1  0
 29 91  1  0
 29 92  1  0
 30 93  1  0
 30 94  1  0
 31 95  1  0
 31 96  1  0
 32 97  1  0
 32 98  1  0
 33 99  1  0
 33100  1  0
 34101  1  0
 34102  1  0
 35103  1  0
 35104  1  0
 36105  1  0
 36106  1  0
 37107  1  0
 37108  1  0
 38109  1  0
 38110  1  0
 39111  1  0
 39112  1  0
 40113  1  0
 40114  1  0
 40115  1  0
 41116  1  0
 41117  1  0
 41118  1  0
 44119  1  0
 45120  1  0
 47121  1  6
 48122  1  0
 48123  1  0
 49124  1  0
 49125  1  0
 50126  1  0
 50127  1  0
 51128  1  0
 51129  1  0
 52130  1  0
 52131  1  0
 53132  1  0
 53133  1  0
 54134  1  0
 54135  1  0
 55136  1  0
 55137  1  0
 56138  1  0
 56139  1  0
 56140  1  0
M  END
> <Uni-Dock RESULT> 
ENERGY=   -5.101  LOWER_BOUND=    3.053  UPPER_BOUND=    8.904
INTER + INTRA:          -5.101
INTER:                  -5.101
INTRA:                   0.000
UNBOUND:                 0.000

$$$$

     RDKit          3D

140137  0  0  0  0  0  0  0  0999 V2000
   49.4594   12.7229    9.7795 O   0  0  0  0  0  0  0  0  0  0  0  0
   49.1430   14.3432    8.1934 O   0  0  0  0  0  0  0  0  0  0  0  0
   52.9930   11.6705    9.8424 O   0  0  0  0  0  0  0  0  0  0  0  0
   52.2138   10.5435   12.2246 O   0  0  0  0  0  0  0  0  0  0  0  0
   48.6992   13.5659    9.0296 C   0  0  0  0  0  0  0  0  0  0  0  0
   51.5926   11.6255   10.1600 C   0  0  2  0  0  0  0  0  0  0  0  0
   50.8656   12.8050    9.5143 C   0  0  0  0  0  0  0  0  0  0  0  0
   47.2370   13.4934    9.4025 C   0  0  0  0  0  0  0  0  0  0  0  0
   46.7700   12.0983    9.8161 C   0  0  0  0  0  0  0  0  0  0  0  0
   51.4575   11.6282   11.6835 C   0  0  0  0  0  0  0  0  0  0  0  0
   45.2465   11.9622    9.9079 C   0  0  0  0  0  0  0  0  0  0  0  0
   44.6128   12.8864   10.9520 C   0  0  0  0  0  0  0  0  0  0  0  0
   43.1000   12.6890   11.1009 C   0  0  0  0  0  0  0  0  0  0  0  0
   42.7285   11.3833   11.8090 C   0  0  0  0  0  0  0  0  0  0  0  0
   41.2191   11.1540   11.9152 C   0  0  0  0  0  0  0  0  0  0  0  0
   40.5076   12.1698   12.8073 C   0  0  0  0  0  0  0  0  0  0  0  0
   39.0409   11.8090   12.9917 C   0  0  0  0  0  0  0  0  0  0  0  0
   44.0690   12.0448   10.7865 C   0  0  0  0  0  0  0  0  0  0  0  0
   48.9694   13.1579   12.6718 C   0  0  0  0  0  0  0  0  0  0  0  0
   44.6761   12.7483   11.7803 O   0  0  0  0  0  0  0  0  0  0  0  0
   44.5978   11.7153    9.7343 O   0  0  0  0  0  0  0  0  0  0  0  0
   48.8048   11.9509   12.7374 O   0  0  0  0  0  0  0  0  0  0  0  0
   47.9709   14.0846   12.7338 O   0  0  0  0  0  0  0  0  0  0  0  0
   46.0328   13.1689   11.5206 C   0  0  2  0  0  0  0  0  0  0  0  0
   46.6447   13.5487   12.8751 C   0  0  0  0  0  0  0  0  0  0  0  0
   45.4334   15.5107   11.0605 O   0  0  0  0  0  0  0  0  0  0  0  0
   42.6571   11.6768   11.1704 C   0  0  0  0  0  0  0  0  0  0  0  0
   50.3031   13.8580   12.5449 C   0  0  0  0  0  0  0  0  0  0  0  0
   46.0606   14.3448   10.5272 C   0  0  0  0  0  0  0  0  0  0  0  0
   41.8471   12.8920   11.6188 C   0  0  0  0  0  0  0  0  0  0  0  0
   51.3944   12.9546   11.9695 C   0  0  0  0  0  0  0  0  0  0  0  0
   37.6778   10.9911   11.8879 C   0  0  0  0  0  0  0  0  0  0  0  0
   53.2467   10.6542    7.8400 C   0  0  0  0  0  0  0  0  0  0  0  0
   52.1047   11.4654    8.4534 C   0  0  0  0  0  0  0  0  0  0  0  0
   38.0724   12.0935   10.9015 C   0  0  0  0  0  0  0  0  0  0  0  0
   51.1884   12.6557   10.4822 C   0  0  0  0  0  0  0  0  0  0  0  0
   52.3090   11.7679    9.9384 C   0  0  0  0  0  0  0  0  0  0  0  0
   40.3789   12.5686   11.9089 C   0  0  0  0  0  0  0  0  0  0  0  0
   39.5755   12.2464   10.6454 C   0  0  0  0  0  0  0  0  0  0  0  0
   38.1479    9.6031   11.4788 C   0  0  0  0  0  0  0  0  0  0  0  0
   53.3753    9.2510    8.4151 C   0  0  0  0  0  0  0  0  0  0  0  0
   42.9602   13.0989   10.3059 O   0  0  0  0  0  0  0  0  0  0  0  0
   43.4723   11.0757   11.2506 O   0  0  0  0  0  0  0  0  0  0  0  0
   40.5625   14.4101   11.1229 O   0  0  0  0  0  0  0  0  0  0  0  0
   40.9100   10.9326   12.2875 O   0  0  0  0  0  0  0  0  0  0  0  0
   43.7970   12.2020   10.8977 C   0  0  0  0  0  0  0  0  0  0  0  0
   40.6027   12.9839   10.9859 C   0  0  1  0  0  0  0  0  0  0  0  0
   41.6544   12.6049    9.9369 C   0  0  0  0  0  0  0  0  0  0  0  0
   45.1615   12.8135   11.1067 C   0  0  0  0  0  0  0  0  0  0  0  0
   40.8265   12.3478   12.3614 C   0  0  0  0  0  0  0  0  0  0  0  0
   46.2629   11.8144   10.7668 C   0  0  0  0  0  0  0  0  0  0  0  0
   47.6516   12.4250   10.9585 C   0  0  0  0  0  0  0  0  0  0  0  0
   48.7548   11.4452   10.5542 C   0  0  0  0  0  0  0  0  0  0  0  0
   50.1426   12.0537   10.7612 C   0  0  0  0  0  0  0  0  0  0  0  0
   51.2429   11.0961   10.3017 C   0  0  0  0  0  0  0  0  0  0  0  0
   52.6243   11.6908   10.5184 C   0  0  0  0  0  0  0  0  0  0  0  0
   53.0744   11.5919    8.8750 H   0  0  0  0  0  0  0  0  0  0  0  0
   53.0726   10.5793   11.7590 H   0  0  0  0  0  0  0  0  0  0  0  0
   51.2038   10.6748    9.7758 H   0  0  0  0  0  0  0  0  0  0  0  0
   51.2570   13.7510    9.9055 H   0  0  0  0  0  0  0  0  0  0  0  0
   51.0542   12.7859    8.4326 H   0  0  0  0  0  0  0  0  0  0  0  0
   47.0677   14.2157   10.2098 H   0  0  0  0  0  0  0  0  0  0  0  0
   46.6668   13.8167    8.5223 H   0  0  0  0  0  0  0  0  0  0  0  0
   47.1387   11.3610    9.0918 H   0  0  0  0  0  0  0  0  0  0  0  0
   47.2154   11.8298   10.7823 H   0  0  0  0  0  0  0  0  0  0  0  0
   50.4162   11.5112   12.0006 H   0  0  0  0  0  0  0  0  0  0  0  0
   51.8586   12.5518   12.1173 H   0  0  0  0  0  0  0  0  0  0  0  0
   44.7997   12.1561    8.9254 H   0  0  0  0  0  0  0  0  0  0  0  0
   45.0232   10.9162   10.1503 H   0  0  0  0  0  0  0  0  0  0  0  0
   44.7867   13.9283   10.6576 H   0  0  0  0  0  0  0  0  0  0  0  0
   45.1007   12.7452   11.9257 H   0  0  0  0  0  0  0  0  0  0  0  0
   42.6210   12.7328   10.1162 H   0  0  0  0  0  0  0  0  0  0  0  0
   42.7126   13.5354   11.6806 H   0  0  0  0  0  0  0  0  0  0  0  0
   43.1698   11.3711   12.8132 H   0  0  0  0  0  0  0  0  0  0  0  0
   43.1550   10.5338   11.2643 H   0  0  0  0  0  0  0  0  0  0  0  0
   40.7731   11.1643   10.9141 H   0  0  0  0  0  0  0  0  0  0  0  0
   41.0548   10.1467   12.3184 H   0  0  0  0  0  0  0  0  0  0  0  0
   40.5711   13.1728   12.3716 H   0  0  0  0  0  0  0  0  0  0  0  0
   40.9911   12.2086   13.7898 H   0  0  0  0  0  0  0  0  0  0  0  0
   38.5204   11.7773   12.0296 H   0  0  0  0  0  0  0  0  0  0  0  0
   38.9339   10.8323   13.4741 H   0  0  0  0  0  0  0  0  0  0  0  0
   38.5424   12.5531   13.6190 H   0  0  0  0  0  0  0  0  0  0  0  0
   46.6012   12.3321   11.0958 H   0  0  0  0  0  0  0  0  0  0  0  0
   46.6330   12.6941   13.5644 H   0  0  0  0  0  0  0  0  0  0  0  0
   46.0355   14.3172   13.3669 H   0  0  0  0  0  0  0  0  0  0  0  0
   46.0853   15.9610   11.6270 H   0  0  0  0  0  0  0  0  0  0  0  0
   42.1958   11.2154   10.2912 H   0  0  0  0  0  0  0  0  0  0  0  0
   42.7006   10.9165   11.9579 H   0  0  0  0  0  0  0  0  0  0  0  0
   50.5932   14.1875   13.5471 H   0  0  0  0  0  0  0  0  0  0  0  0
   50.1887   14.7441   11.9102 H   0  0  0  0  0  0  0  0  0  0  0  0
   45.5220   14.0946    9.6087 H   0  0  0  0  0  0  0  0  0  0  0  0
   47.0882   14.6000   10.2468 H   0  0  0  0  0  0  0  0  0  0  0  0
   42.2917   13.3003   12.5365 H   0  0  0  0  0  0  0  0  0  0  0  0
   41.9143   13.6882   10.8659 H   0  0  0  0  0  0  0  0  0  0  0  0
   52.3608   13.4543   12.1011 H   0  0  0  0  0  0  0  0  0  0  0  0
   51.4397   12.0159   12.5326 H   0  0  0  0  0  0  0  0  0  0  0  0
   38.0575   11.2233   12.8889 H   0  0  0  0  0  0  0  0  0  0  0  0
   36.5830   10.9811   11.9685 H   0  0  0  0  0  0  0  0  0  0  0  0
   54.1930   11.1891    7.9733 H   0  0  0  0  0  0  0  0  0  0  0  0
   53.0764   10.5731    6.7606 H   0  0  0  0  0  0  0  0  0  0  0  0
   52.0229   12.4114    7.9021 H   0  0  0  0  0  0  0  0  0  0  0  0
   51.1579   10.9323    8.3119 H   0  0  0  0  0  0  0  0  0  0  0  0
   37.6752   13.0492   11.2681 H   0  0  0  0  0  0  0  0  0  0  0  0
   37.5795   11.9016    9.9409 H   0  0  0  0  0  0  0  0  0  0  0  0
   50.2261   12.1560   10.3284 H   0  0  0  0  0  0  0  0  0  0  0  0
   51.1584   13.5964    9.9183 H   0  0  0  0  0  0  0  0  0  0  0  0
   53.2763   12.2673   10.0794 H   0  0  0  0  0  0  0  0  0  0  0  0
   52.3397   10.8351   10.5114 H   0  0  0  0  0  0  0  0  0  0  0  0
   39.9272   13.4351   12.4063 H   0  0  0  0  0  0  0  0  0  0  0  0
   40.3301   11.7333   12.6171 H   0  0  0  0  0  0  0  0  0  0  0  0
   39.7173   13.0537    9.9155 H   0  0  0  0  0  0  0  0  0  0  0  0
   39.9571   11.3357   10.1714 H   0  0  0  0  0  0  0  0  0  0  0  0
   39.2380    9.5208   11.5045 H   0  0  0  0  0  0  0  0  0  0  0  0
   37.8060    9.3552   10.4701 H   0  0  0  0  0  0  0  0  0  0  0  0
   37.7436    8.8548   12.1675 H   0  0  0  0  0  0  0  0  0  0  0  0
   52.4319    8.7031    8.3346 H   0  0  0  0  0  0  0  0  0  0  0  0
   54.1406    8.6919    7.8693 H   0  0  0  0  0  0  0  0  0  0  0  0
   53.6743    9.2729    9.4666 H   0  0  0  0  0  0  0  0  0  0  0  0
   41.4852   14.7128   11.2178 H   0  0  0  0  0  0  0  0  0  0  0  0
   41.8317   10.7029   12.0338 H   0  0  0  0  0  0  0  0  0  0  0  0
   39.6238   12.6643   10.6125 H   0  0  0  0  0  0  0  0  0  0  0  0
   41.4113   13.1017    8.9916 H   0  0  0  0  0  0  0  0  0  0  0  0
   41.6651   11.5277    9.7375 H   0  0  0  0  0  0  0  0  0  0  0  0
   45.2629   13.6972   10.4666 H   0  0  0  0  0  0  0  0  0  0  0  0
   45.2281   13.1482   12.1470 H   0  0  0  0  0  0  0  0  0  0  0  0
   39.9872   12.6028   13.0189 H   0  0  0  0  0  0  0  0  0  0  0  0
   41.7247   12.7429   12.8480 H   0  0  0  0  0  0  0  0  0  0  0  0
   46.1442   11.4786    9.7283 H   0  0  0  0  0  0  0  0  0  0  0  0
   46.1653   10.9227   11.3975 H   0  0  0  0  0  0  0  0  0  0  0  0
   47.7814   12.7164   12.0077 H   0  0  0  0  0  0  0  0  0  0  0  0
   47.7389   13.3392   10.3586 H   0  0  0  0  0  0  0  0  0  0  0  0
   48.6639   10.5223   11.1396 H   0  0  0  0  0  0  0  0  0  0  0  0
   48.6294   11.1714    9.4992 H   0  0  0  0  0  0  0  0  0  0  0  0
   50.2213   12.9961   10.2039 H   0  0  0  0  0  0  0  0  0  0  0  0
   50.2836   12.2946   11.8222 H   0  0  0  0  0  0  0  0  0  0  0  0
   51.1112   10.8612    9.2392 H   0  0  0  0  0  0  0  0  0  0  0  0
   51.1700   10.1503   10.8524 H   0  0  0  0  0  0  0  0  0  0  0  0
   53.3952   10.9993   10.1623 H   0  0  0  0  0  0  0  0  0  0  0  0
   52.7392   12.6336    9.9738 H   0  0  0  0  0  0  0  0  0  0  0  0
   52.8056   11.8825   11.5811 H   0  0  0  0  0  0  0  0  0  0  0  0
  1  5  1  0
  1  7  1  0
  2  5  2  0
  3  6  1  0
  4 10  1  0
  5  8  1  0
  6  7  1  0
  6 10  1  0
  8  9  1  0
  9 11  1  0
 11 12  1  0
 12 13  1  0
 13 14  1  0
 14 15  1  0
 15 16  1  0
 16 17  1  0
 19 23  1  0
 20 18  1  0
 21 18  2  0
 22 19  2  0
 23 25  1  0
 24 20  1  0
 25 24  1  0
 26 29  1  0
 27 18  1  0
 28 19  1  0
 29 24  1  0
 30 27  1  0
 31 28  1  0
 32 35  1  0
 33 34  1  0
 34 37  1  0
 35 39  1  0
 36 31  1  0
 37 36  1  0
 38 30  1  0
 39 38  1  0
 40 32  1  0
 41 33  1  0
 42 46  1  0
 42 48  1  0
 43 46  2  0
 44 47  1  0
 45 50  1  0
 46 49  1  0
 47 48  1  0
 47 50  1  0
 49 51  1  0
 51 52  1  0
 52 53  1  0
 53 54  1  0
 54 55  1  0
 55 56  1  0
  3 57  1  0
  4 58  1  0
  6 59  1  6
  7 60  1  0
  7 61  1  0
  8 62  1  0
  8 63  1  0
  9 64  1  0
  9 65  1  0
 10 66  1  0
 10 67  1  0
 11 68  1  0
 11 69  1  0
 12 70  1  0
 12 71  1  0
 13 72  1  0
 13 73  1  0
 14 74  1  0
 14 75  1  0
 15 76  1  0
 15 77  1  0
 16 78  1  0
 16 79  1  0
 17 80  1  0
 17 81  1  0
 17 82  1  0
 24 83  1  1
 25 84  1  0
 25 85  1  0
 26 86  1  0
 27 87  1  0
 27 88  1  0
 28 89  1  0
 28 90  1  0
 29 91  1  0
 29 92  1  0
 30 93  1  0
 30 94  1  0
 31 95  1  0
 31 96  1  0
 32 97  1  0
 32 98  1  0
 33 99  1  0
 33100  1  0
 34101  1  0
 34102  1  0
 35103  1  0
 35104  1  0
 36105  1  0
 36106  1  0
 37107  1  0
 37108  1  0
 38109  1  0
 38110  1  0
 39111  1  0
 39112  1  0
 40113  1  0
 40114  1  0
 40115  1  0
 41116  1  0
 41117  1  0
 41118  1  0
 44119  1  0
 45120  1  0
 47121  1  6
 48122  1  0
 48123  1  0
 49124  1  0
 49125  1  0
 50126  1  0
 50127  1  0
 51128  1  0
 51129  1  0
 52130  1  0
 52131  1  0
 53132  1  0
 53133  1  0
 54134  1  0
 54135  1  0
 55136  1  0
 55137  1  0
 56138  1  0
 56139  1  0
 56140  1  0
M  END
> <Uni-Dock RESULT> 
ENERGY=   -4.807  LOWER_BOUND=    6.145  UPPER_BOUND=    8.063
INTER + INTRA:          -4.807
INTER:                  -4.807
INTRA:                   0.000
UNBOUND:                 0.000

$$$$

     RDKit          3D

140137  0  0  0  0  0  0  0  0999 V2000
   49.7561    7.7917   18.2274 O   0  0  0  0  0  0  0  0  0  0  0  0
   51.9450    8.2085   18.7530 O   0  0  0  0  0  0  0  0  0  0  0  0
   48.8724    4.3195   19.0994 O   0  0  0  0  0  0  0  0  0  0  0  0
   46.3247    5.2879   18.7477 O   0  0  0  0  0  0  0  0  0  0  0  0
   50.8841    8.5521   18.2462 C   0  0  0  0  0  0  0  0  0  0  0  0
   48.7027    5.6227   18.5189 C   0  0  2  0  0  0  0  0  0  0  0  0
   49.8972    6.5134   18.8600 C   0  0  0  0  0  0  0  0  0  0  0  0
   50.6586    9.9155   17.6358 C   0  0  0  0  0  0  0  0  0  0  0  0
   49.6740    9.9175   16.4670 C   0  0  0  0  0  0  0  0  0  0  0  0
   47.3853    6.1995   19.0398 C   0  0  0  0  0  0  0  0  0  0  0  0
   49.6695   11.2258   15.6695 C   0  0  0  0  0  0  0  0  0  0  0  0
   49.2572   12.4454   16.4993 C   0  0  0  0  0  0  0  0  0  0  0  0
   49.1724   13.7382   15.6801 C   0  0  0  0  0  0  0  0  0  0  0  0
   47.9643   13.7792   14.7403 C   0  0  0  0  0  0  0  0  0  0  0  0
   47.9014   15.0441   13.8811 C   0  0  0  0  0  0  0  0  0  0  0  0
   47.6728   16.3207   14.6884 C   0  0  0  0  0  0  0  0  0  0  0  0
   47.4747   17.5217   13.7753 C   0  0  0  0  0  0  0  0  0  0  0  0
   49.0500   12.5511   15.5108 C   0  0  0  0  0  0  0  0  0  0  0  0
   47.4821    9.2546   19.4454 C   0  0  0  0  0  0  0  0  0  0  0  0
   48.4616   12.5862   16.7370 O   0  0  0  0  0  0  0  0  0  0  0  0
   49.7631   11.6472   15.0988 O   0  0  0  0  0  0  0  0  0  0  0  0
   46.8635    8.9591   18.4364 O   0  0  0  0  0  0  0  0  0  0  0  0
   47.9628   10.4991   19.7279 O   0  0  0  0  0  0  0  0  0  0  0  0
   48.7642   11.4815   17.6163 C   0  0  2  0  0  0  0  0  0  0  0  0
   47.7057   11.4977   18.7265 C   0  0  0  0  0  0  0  0  0  0  0  0
   50.3401   12.7584   19.0096 O   0  0  0  0  0  0  0  0  0  0  0  0
   48.6691   13.7614   14.6943 C   0  0  0  0  0  0  0  0  0  0  0  0
   47.8043    8.3163   20.5860 C   0  0  0  0  0  0  0  0  0  0  0  0
   50.1912   11.6062   18.1806 C   0  0  0  0  0  0  0  0  0  0  0  0
   48.9325   15.0669   15.4429 C   0  0  0  0  0  0  0  0  0  0  0  0
   47.7748    6.8452   20.1696 C   0  0  0  0  0  0  0  0  0  0  0  0
   48.1742   18.0714   12.0566 C   0  0  0  0  0  0  0  0  0  0  0  0
   50.1131    3.1096   17.6491 C   0  0  0  0  0  0  0  0  0  0  0  0
   50.0700    4.6013   17.9828 C   0  0  0  0  0  0  0  0  0  0  0  0
   49.5262   17.8493   12.7400 C   0  0  0  0  0  0  0  0  0  0  0  0
   48.9505    6.4649   19.2658 C   0  0  0  0  0  0  0  0  0  0  0  0
   48.8982    4.9837   18.8879 C   0  0  0  0  0  0  0  0  0  0  0  0
   48.6601   16.3151   14.5992 C   0  0  0  0  0  0  0  0  0  0  0  0
   49.6842   16.5159   13.4782 C   0  0  0  0  0  0  0  0  0  0  0  0
   47.8254   17.0093   11.0245 C   0  0  0  0  0  0  0  0  0  0  0  0
   48.9285    2.6360   16.8191 C   0  0  0  0  0  0  0  0  0  0  0  0
   50.0756   13.7776   15.6340 O   0  0  0  0  0  0  0  0  0  0  0  0
   48.2367   12.8438   14.6369 O   0  0  0  0  0  0  0  0  0  0  0  0
   50.2094   16.6190   15.8441 O   0  0  0  0  0  0  0  0  0  0  0  0
   47.4989   15.3420   13.7012 O   0  0  0  0  0  0  0  0  0  0  0  0
   49.0530   12.8823   15.5484 C   0  0  0  0  0  0  0  0  0  0  0  0
   49.6442   16.0002   14.6814 C   0  0  1  0  0  0  0  0  0  0  0  0
   50.2826   14.6210   14.4803 C   0  0  0  0  0  0  0  0  0  0  0  0
   49.0365   11.9841   16.7619 C   0  0  0  0  0  0  0  0  0  0  0  0
   48.1180   15.9756   14.8105 C   0  0  0  0  0  0  0  0  0  0  0  0
   48.7546   10.5386   16.3647 C   0  0  0  0  0  0  0  0  0  0  0  0
   48.7506    9.6138   17.5824 C   0  0  0  0  0  0  0  0  0  0  0  0
   48.5341    8.1547   17.1767 C   0  0  0  0  0  0  0  0  0  0  0  0
   48.5157    7.2345   18.3982 C   0  0  0  0  0  0  0  0  0  0  0  0
   48.3582    5.7697   17.9876 C   0  0  0  0  0  0  0  0  0  0  0  0
   48.3255    4.8528   19.1988 C   0  0  0  0  0  0  0  0  0  0  0  0
   49.6725    3.9278   18.7058 H   0  0  0  0  0  0  0  0  0  0  0  0
   46.6693    4.4105   19.0065 H   0  0  0  0  0  0  0  0  0  0  0  0
   48.6201    5.4857   17.4340 H   0  0  0  0  0  0  0  0  0  0  0  0
   49.9711    6.6484   19.9451 H   0  0  0  0  0  0  0  0  0  0  0  0
   50.8158    6.0162   18.5207 H   0  0  0  0  0  0  0  0  0  0  0  0
   50.3139   10.5808   18.4361 H   0  0  0  0  0  0  0  0  0  0  0  0
   51.6347   10.2728   17.2837 H   0  0  0  0  0  0  0  0  0  0  0  0
   49.9207    9.0970   15.7814 H   0  0  0  0  0  0  0  0  0  0  0  0
   48.6606    9.7160   16.8361 H   0  0  0  0  0  0  0  0  0  0  0  0
   47.1485    7.1611   18.5730 H   0  0  0  0  0  0  0  0  0  0  0  0
   47.4104    6.3303   20.1281 H   0  0  0  0  0  0  0  0  0  0  0  0
   50.6617   11.3954   15.2344 H   0  0  0  0  0  0  0  0  0  0  0  0
   48.9787   11.0961   14.8276 H   0  0  0  0  0  0  0  0  0  0  0  0
   49.9960   12.6011   17.2945 H   0  0  0  0  0  0  0  0  0  0  0  0
   48.2939   12.2574   16.9923 H   0  0  0  0  0  0  0  0  0  0  0  0
   50.0979   13.8781   15.1101 H   0  0  0  0  0  0  0  0  0  0  0  0
   49.1059   14.5731   16.3880 H   0  0  0  0  0  0  0  0  0  0  0  0
   47.0404   13.6901   15.3249 H   0  0  0  0  0  0  0  0  0  0  0  0
   47.9952   12.9193   14.0621 H   0  0  0  0  0  0  0  0  0  0  0  0
   48.8221   15.1374   13.2940 H   0  0  0  0  0  0  0  0  0  0  0  0
   47.0831   14.9256   13.1595 H   0  0  0  0  0  0  0  0  0  0  0  0
   48.5267   16.5159   15.3462 H   0  0  0  0  0  0  0  0  0  0  0  0
   46.7884   16.2077   15.3252 H   0  0  0  0  0  0  0  0  0  0  0  0
   48.3482   17.6760   13.1344 H   0  0  0  0  0  0  0  0  0  0  0  0
   46.5967   17.3887   13.1356 H   0  0  0  0  0  0  0  0  0  0  0  0
   47.3281   18.4293   14.3675 H   0  0  0  0  0  0  0  0  0  0  0  0
   48.6832   10.5385   17.0616 H   0  0  0  0  0  0  0  0  0  0  0  0
   46.6964   11.3899   18.3080 H   0  0  0  0  0  0  0  0  0  0  0  0
   47.6993   12.4706   19.2335 H   0  0  0  0  0  0  0  0  0  0  0  0
   50.0000   12.5298   19.8932 H   0  0  0  0  0  0  0  0  0  0  0  0
   49.2594   13.7253   13.7731 H   0  0  0  0  0  0  0  0  0  0  0  0
   47.6139   13.6707   14.4143 H   0  0  0  0  0  0  0  0  0  0  0  0
   47.0592    8.4889   21.3685 H   0  0  0  0  0  0  0  0  0  0  0  0
   48.7926    8.5627   20.9904 H   0  0  0  0  0  0  0  0  0  0  0  0
   50.9239   11.7062   17.3748 H   0  0  0  0  0  0  0  0  0  0  0  0
   50.4633   10.7202   18.7644 H   0  0  0  0  0  0  0  0  0  0  0  0
   48.2847   15.1090   16.3290 H   0  0  0  0  0  0  0  0  0  0  0  0
   49.9644   15.0848   15.8173 H   0  0  0  0  0  0  0  0  0  0  0  0
   47.8093    6.2295   21.0755 H   0  0  0  0  0  0  0  0  0  0  0  0
   46.8303    6.6176   19.6633 H   0  0  0  0  0  0  0  0  0  0  0  0
   47.3755   18.1282   12.8042 H   0  0  0  0  0  0  0  0  0  0  0  0
   48.2001   19.0494   11.5586 H   0  0  0  0  0  0  0  0  0  0  0  0
   50.1647    2.5254   18.5739 H   0  0  0  0  0  0  0  0  0  0  0  0
   51.0331    2.9034   17.0908 H   0  0  0  0  0  0  0  0  0  0  0  0
   51.0110    4.8671   18.4821 H   0  0  0  0  0  0  0  0  0  0  0  0
   50.0263    5.1841   17.0559 H   0  0  0  0  0  0  0  0  0  0  0  0
   49.6990   18.6704   13.4481 H   0  0  0  0  0  0  0  0  0  0  0  0
   50.3193   17.9189   11.9859 H   0  0  0  0  0  0  0  0  0  0  0  0
   48.9350    7.0704   18.3533 H   0  0  0  0  0  0  0  0  0  0  0  0
   49.8953    6.6797   19.7807 H   0  0  0  0  0  0  0  0  0  0  0  0
   48.9243    4.3699   19.7976 H   0  0  0  0  0  0  0  0  0  0  0  0
   47.9492    4.7741   18.3830 H   0  0  0  0  0  0  0  0  0  0  0  0
   48.6811   17.1893   15.2608 H   0  0  0  0  0  0  0  0  0  0  0  0
   47.6468   16.2528   14.1854 H   0  0  0  0  0  0  0  0  0  0  0  0
   50.6945   16.4796   13.9058 H   0  0  0  0  0  0  0  0  0  0  0  0
   49.6282   15.6932   12.7573 H   0  0  0  0  0  0  0  0  0  0  0  0
   47.6629   16.0322   11.4879 H   0  0  0  0  0  0  0  0  0  0  0  0
   48.6198   16.9110   10.2796 H   0  0  0  0  0  0  0  0  0  0  0  0
   46.9036   17.2851   10.5031 H   0  0  0  0  0  0  0  0  0  0  0  0
   48.8242    3.2285   15.9055 H   0  0  0  0  0  0  0  0  0  0  0  0
   49.0676    1.5900   16.5316 H   0  0  0  0  0  0  0  0  0  0  0  0
   47.9926    2.6986   17.3811 H   0  0  0  0  0  0  0  0  0  0  0  0
   50.1860   15.9556   16.5592 H   0  0  0  0  0  0  0  0  0  0  0  0
   47.5258   14.3722   13.8607 H   0  0  0  0  0  0  0  0  0  0  0  0
   49.9082   16.6227   13.8196 H   0  0  0  0  0  0  0  0  0  0  0  0
   51.3683   14.7387   14.3963 H   0  0  0  0  0  0  0  0  0  0  0  0
   49.9414   14.1420   13.5560 H   0  0  0  0  0  0  0  0  0  0  0  0
   50.0085   12.0394   17.2650 H   0  0  0  0  0  0  0  0  0  0  0  0
   48.2813   12.3657   17.4567 H   0  0  0  0  0  0  0  0  0  0  0  0
   47.7428   17.0042   14.8647 H   0  0  0  0  0  0  0  0  0  0  0  0
   47.7987   15.4864   15.7370 H   0  0  0  0  0  0  0  0  0  0  0  0
   49.5125   10.2027   15.6449 H   0  0  0  0  0  0  0  0  0  0  0  0
   47.7867   10.4742   15.8534 H   0  0  0  0  0  0  0  0  0  0  0  0
   47.9611    9.9263   18.2764 H   0  0  0  0  0  0  0  0  0  0  0  0
   49.7033    9.7050   18.1183 H   0  0  0  0  0  0  0  0  0  0  0  0
   47.5901    8.0589   16.6266 H   0  0  0  0  0  0  0  0  0  0  0  0
   49.3366    7.8433   16.4965 H   0  0  0  0  0  0  0  0  0  0  0  0
   49.4455    7.3567   18.9686 H   0  0  0  0  0  0  0  0  0  0  0  0
   47.6907    7.5215   19.0621 H   0  0  0  0  0  0  0  0  0  0  0  0
   49.1865    5.4765   17.3323 H   0  0  0  0  0  0  0  0  0  0  0  0
   47.4321    5.6391   17.4146 H   0  0  0  0  0  0  0  0  0  0  0  0
   48.2351    3.8084   18.8817 H   0  0  0  0  0  0  0  0  0  0  0  0
   49.2409    4.9473   19.7917 H   0  0  0  0  0  0  0  0  0  0  0  0
   47.4718    5.0863   19.8435 H   0  0  0  0  0  0  0  0  0  0  0  0
  1  5  1  0
  1  7  1  0
  2  5  2  0
  3  6  1  0
  4 10  1  0
  5  8  1  0
  6  7  1  0
  6 10  1  0
  8  9  1  0
  9 11  1  0
 11 12  1  0
 12 13  1  0
 13 14  1  0
 14 15  1  0
 15 16  1  0
 16 17  1  0
 19 23  1  0
 20 18  1  0
 21 18  2  0
 22 19  2  0
 23 25  1  0
 24 20  1  0
 25 24  1  0
 26 29  1  0
 27 18  1  0
 28 19  1  0
 29 24  1  0
 30 27  1  0
 31 28  1  0
 32 35  1  0
 33 34  1  0
 34 37  1  0
 35 39  1  0
 36 31  1  0
 37 36  1  0
 38 30  1  0
 39 38  1  0
 40 32  1  0
 41 33  1  0
 42 46  1  0
 42 48  1  0
 43 46  2  0
 44 47  1  0
 45 50  1  0
 46 49  1  0
 47 48  1  0
 47 50  1  0
 49 51  1  0
 51 52  1  0
 52 53  1  0
 53 54  1  0
 54 55  1  0
 55 56  1  0
  3 57  1  0
  4 58  1  0
  6 59  1  6
  7 60  1  0
  7 61  1  0
  8 62  1  0
  8 63  1  0
  9 64  1  0
  9 65  1  0
 10 66  1  0
 10 67  1  0
 11 68  1  0
 11 69  1  0
 12 70  1  0
 12 71  1  0
 13 72  1  0
 13 73  1  0
 14 74  1  0
 14 75  1  0
 15 76  1  0
 15 77  1  0
 16 78  1  0
 16 79  1  0
 17 80  1  0
 17 81  1  0
 17 82  1  0
 24 83  1  1
 25 84  1  0
 25 85  1  0
 26 86  1  0
 27 87  1  0
 27 88  1  0
 28 89  1  0
 28 90  1  0
 29 91  1  0
 29 92  1  0
 30 93  1  0
 30 94  1  0
 31 95  1  0
 31 96  1  0
 32 97  1  0
 32 98  1  0
 33 99  1  0
 33100  1  0
 34101  1  0
 34102  1  0
 35103  1  0
 35104  1  0
 36105  1  0
 36106  1  0
 37107  1  0
 37108  1  0
 38109  1  0
 38110  1  0
 39111  1  0
 39112  1  0
 40113  1  0
 40114  1  0
 40115  1  0
 41116  1  0
 41117  1  0
 41118  1  0
 44119  1  0
 45120  1  0
 47121  1  6
 48122  1  0
 48123  1  0
 49124  1  0
 49125  1  0
 50126  1  0
 50127  1  0
 51128  1  0
 51129  1  0
 52130  1  0
 52131  1  0
 53132  1  0
 53133  1  0
 54134  1  0
 54135  1  0
 55136  1  0
 55137  1  0
 56138  1  0
 56139  1  0
 56140  1  0
M  END
> <Uni-Dock RESULT> 
ENERGY=   -4.766  LOWER_BOUND=    3.349  UPPER_BOUND=    4.243
INTER + INTRA:          -4.766
INTER:                  -4.766
INTRA:                   0.000
UNBOUND:                 0.000

$$$$

     RDKit          3D

140137  0  0  0  0  0  0  0  0999 V2000
   48.6990   10.3178   17.5857 O   0  0  0  0  0  0  0  0  0  0  0  0
   47.8265    9.2840   15.7387 O   0  0  0  0  0  0  0  0  0  0  0  0
   47.3953   13.7562   17.8596 O   0  0  0  0  0  0  0  0  0  0  0  0
   48.4306   13.5346   20.3955 O   0  0  0  0  0  0  0  0  0  0  0  0
   48.5930    9.2957   16.6941 C   0  0  0  0  0  0  0  0  0  0  0  0
   48.2298   12.6285   18.1689 C   0  0  2  0  0  0  0  0  0  0  0  0
   47.8248   11.4224   17.3216 C   0  0  0  0  0  0  0  0  0  0  0  0
   49.4789    8.1286   17.0622 C   0  0  0  0  0  0  0  0  0  0  0  0
   50.8029    8.5337   17.7091 C   0  0  0  0  0  0  0  0  0  0  0  0
   48.1037   12.3496   19.6675 C   0  0  0  0  0  0  0  0  0  0  0  0
   51.8136    7.3866   17.8110 C   0  0  0  0  0  0  0  0  0  0  0  0
   51.3260    6.2179   18.6727 C   0  0  0  0  0  0  0  0  0  0  0  0
   52.3709    5.1092   18.8416 C   0  0  0  0  0  0  0  0  0  0  0  0
   53.5274    5.5051   19.7637 C   0  0  0  0  0  0  0  0  0  0  0  0
   54.6011    4.4226   19.8961 C   0  0  0  0  0  0  0  0  0  0  0  0
   54.1086    3.1547   20.5915 C   0  0  0  0  0  0  0  0  0  0  0  0
   55.2497    2.1754   20.8243 C   0  0  0  0  0  0  0  0  0  0  0  0
   52.3381    6.2991   18.6522 C   0  0  0  0  0  0  0  0  0  0  0  0
   48.2615    9.3476   20.3537 C   0  0  0  0  0  0  0  0  0  0  0  0
   51.2852    6.2581   19.5129 O   0  0  0  0  0  0  0  0  0  0  0  0
   52.4215    7.0334   17.6779 O   0  0  0  0  0  0  0  0  0  0  0  0
   49.3024    9.9219   20.6276 O   0  0  0  0  0  0  0  0  0  0  0  0
   48.1235    7.9953   20.2450 O   0  0  0  0  0  0  0  0  0  0  0  0
   50.1733    7.1226   19.1947 C   0  0  2  0  0  0  0  0  0  0  0  0
   49.3239    7.2364   20.4670 C   0  0  0  0  0  0  0  0  0  0  0  0
   48.7509    5.3111   18.3283 O   0  0  0  0  0  0  0  0  0  0  0  0
   53.4252    5.3457   19.0830 C   0  0  0  0  0  0  0  0  0  0  0  0
   46.9254   10.0137   20.1174 C   0  0  0  0  0  0  0  0  0  0  0  0
   49.3641    6.5605   18.0116 C   0  0  0  0  0  0  0  0  0  0  0  0
   52.8945    3.9305   19.3061 C   0  0  0  0  0  0  0  0  0  0  0  0
   47.0583   11.4836   19.7171 C   0  0  0  0  0  0  0  0  0  0  0  0
   56.8620    1.6921   19.8692 C   0  0  0  0  0  0  0  0  0  0  0  0
   48.3129   14.7821   16.0673 C   0  0  0  0  0  0  0  0  0  0  0  0
   48.2779   13.3221   16.5206 C   0  0  0  0  0  0  0  0  0  0  0  0
   55.8892    1.4658   18.7088 C   0  0  0  0  0  0  0  0  0  0  0  0
   47.6179   11.6610   18.3032 C   0  0  0  0  0  0  0  0  0  0  0  0
   47.7167   13.1415   17.9316 C   0  0  0  0  0  0  0  0  0  0  0  0
   53.9928    2.9162   19.6363 C   0  0  0  0  0  0  0  0  0  0  0  0
   54.8997    2.6050   18.4420 C   0  0  0  0  0  0  0  0  0  0  0  0
   57.7279    2.9334   19.7123 C   0  0  0  0  0  0  0  0  0  0  0  0
   49.2635   15.6500   16.8794 C   0  0  0  0  0  0  0  0  0  0  0  0
   52.2391    4.8437   17.9862 O   0  0  0  0  0  0  0  0  0  0  0  0
   53.3978    6.3433   19.2734 O   0  0  0  0  0  0  0  0  0  0  0  0
   52.5377    2.0622   18.5426 O   0  0  0  0  0  0  0  0  0  0  0  0
   54.9111    4.2651   20.2988 O   0  0  0  0  0  0  0  0  0  0  0  0
   52.3629    5.9765   18.7321 C   0  0  0  0  0  0  0  0  0  0  0  0
   53.6554    2.9522   18.6569 C   0  0  1  0  0  0  0  0  0  0  0  0
   53.4629    4.1332   17.6986 C   0  0  0  0  0  0  0  0  0  0  0  0
   51.0327    6.6823   18.8421 C   0  0  0  0  0  0  0  0  0  0  0  0
   53.8367    3.3540   20.1240 C   0  0  0  0  0  0  0  0  0  0  0  0
   51.2034    8.1905   18.6907 C   0  0  0  0  0  0  0  0  0  0  0  0
   49.8618    8.9181   18.7841 C   0  0  0  0  0  0  0  0  0  0  0  0
   50.0248   10.4235   18.5657 C   0  0  0  0  0  0  0  0  0  0  0  0
   48.6832   11.1500   18.6745 C   0  0  0  0  0  0  0  0  0  0  0  0
   48.8379   12.6461   18.3980 C   0  0  0  0  0  0  0  0  0  0  0  0
   47.5098   13.3745   18.5187 C   0  0  0  0  0  0  0  0  0  0  0  0
   47.5385   13.9753   16.9215 H   0  0  0  0  0  0  0  0  0  0  0  0
   47.9488   14.2514   19.9377 H   0  0  0  0  0  0  0  0  0  0  0  0
   49.2641   12.9223   17.9534 H   0  0  0  0  0  0  0  0  0  0  0  0
   46.7916   11.1328   17.5449 H   0  0  0  0  0  0  0  0  0  0  0  0
   47.8721   11.7047   16.2613 H   0  0  0  0  0  0  0  0  0  0  0  0
   48.9031    7.4768   17.7297 H   0  0  0  0  0  0  0  0  0  0  0  0
   49.6856    7.5798   16.1346 H   0  0  0  0  0  0  0  0  0  0  0  0
   51.2595    9.3445   17.1275 H   0  0  0  0  0  0  0  0  0  0  0  0
   50.6165    8.9409   18.7108 H   0  0  0  0  0  0  0  0  0  0  0  0
   48.7792   11.5513   19.9918 H   0  0  0  0  0  0  0  0  0  0  0  0
   47.0767   12.0761   19.9367 H   0  0  0  0  0  0  0  0  0  0  0  0
   52.0618    7.0242   16.8062 H   0  0  0  0  0  0  0  0  0  0  0  0
   52.7391    7.7992   18.2303 H   0  0  0  0  0  0  0  0  0  0  0  0
   50.4404    5.7741   18.2024 H   0  0  0  0  0  0  0  0  0  0  0  0
   51.0128    6.5830   19.6600 H   0  0  0  0  0  0  0  0  0  0  0  0
   52.7570    4.8101   17.8605 H   0  0  0  0  0  0  0  0  0  0  0  0
   51.8590    4.2351   19.2617 H   0  0  0  0  0  0  0  0  0  0  0  0
   53.1365    5.7532   20.7581 H   0  0  0  0  0  0  0  0  0  0  0  0
   54.0135    6.4084   19.3789 H   0  0  0  0  0  0  0  0  0  0  0  0
   54.9959    4.1715   18.9050 H   0  0  0  0  0  0  0  0  0  0  0  0
   55.4390    4.8417   20.4675 H   0  0  0  0  0  0  0  0  0  0  0  0
   53.3390    2.6613   19.9881 H   0  0  0  0  0  0  0  0  0  0  0  0
   53.6550    3.4088   21.5560 H   0  0  0  0  0  0  0  0  0  0  0  0
   55.7171    1.8852   19.8784 H   0  0  0  0  0  0  0  0  0  0  0  0
   56.0183    2.6133   21.4688 H   0  0  0  0  0  0  0  0  0  0  0  0
   54.8787    1.2676   21.3081 H   0  0  0  0  0  0  0  0  0  0  0  0
   50.5478    8.1184   18.9270 H   0  0  0  0  0  0  0  0  0  0  0  0
   49.9112    7.6554   21.2947 H   0  0  0  0  0  0  0  0  0  0  0  0
   49.0185    6.2409   20.8124 H   0  0  0  0  0  0  0  0  0  0  0  0
   47.9280    5.5029   18.8128 H   0  0  0  0  0  0  0  0  0  0  0  0
   54.1842    5.3474   18.2942 H   0  0  0  0  0  0  0  0  0  0  0  0
   53.8918    5.7420   19.9914 H   0  0  0  0  0  0  0  0  0  0  0  0
   46.3564    9.9394   21.0490 H   0  0  0  0  0  0  0  0  0  0  0  0
   46.3816    9.4694   19.3369 H   0  0  0  0  0  0  0  0  0  0  0  0
   50.0086    6.3800   17.1466 H   0  0  0  0  0  0  0  0  0  0  0  0
   48.5831    7.2620   17.6992 H   0  0  0  0  0  0  0  0  0  0  0  0
   52.1820    3.9425   20.1420 H   0  0  0  0  0  0  0  0  0  0  0  0
   52.3283    3.5976   18.4264 H   0  0  0  0  0  0  0  0  0  0  0  0
   46.0661   11.9459   19.7673 H   0  0  0  0  0  0  0  0  0  0  0  0
   47.6947   12.0118   20.4357 H   0  0  0  0  0  0  0  0  0  0  0  0
   56.3161    1.7471   20.8174 H   0  0  0  0  0  0  0  0  0  0  0  0
   57.5172    0.8142   19.9415 H   0  0  0  0  0  0  0  0  0  0  0  0
   47.3048   15.2074   16.1129 H   0  0  0  0  0  0  0  0  0  0  0  0
   48.6245   14.8140   15.0173 H   0  0  0  0  0  0  0  0  0  0  0  0
   47.6561   12.7591   15.8121 H   0  0  0  0  0  0  0  0  0  0  0  0
   49.2860   12.8962   16.4667 H   0  0  0  0  0  0  0  0  0  0  0  0
   55.3259    0.5430   18.8999 H   0  0  0  0  0  0  0  0  0  0  0  0
   56.4661    1.2922   17.7925 H   0  0  0  0  0  0  0  0  0  0  0  0
   48.6107   11.2043   18.2312 H   0  0  0  0  0  0  0  0  0  0  0  0
   46.9709   11.1439   17.5836 H   0  0  0  0  0  0  0  0  0  0  0  0
   46.7229   13.6036   17.9911 H   0  0  0  0  0  0  0  0  0  0  0  0
   48.3560   13.6534   18.6588 H   0  0  0  0  0  0  0  0  0  0  0  0
   53.5148    1.9879   19.9713 H   0  0  0  0  0  0  0  0  0  0  0  0
   54.5848    3.2919   20.4790 H   0  0  0  0  0  0  0  0  0  0  0  0
   54.2768    2.3225   17.5836 H   0  0  0  0  0  0  0  0  0  0  0  0
   55.4514    3.5007   18.1373 H   0  0  0  0  0  0  0  0  0  0  0  0
   57.1339    3.8502   19.7608 H   0  0  0  0  0  0  0  0  0  0  0  0
   58.2644    2.9188   18.7596 H   0  0  0  0  0  0  0  0  0  0  0  0
   58.4676    2.9759   20.5177 H   0  0  0  0  0  0  0  0  0  0  0  0
   50.2730   15.2289   16.8881 H   0  0  0  0  0  0  0  0  0  0  0  0
   49.3172   16.6526   16.4457 H   0  0  0  0  0  0  0  0  0  0  0  0
   48.9248   15.7591   17.9133 H   0  0  0  0  0  0  0  0  0  0  0  0
   51.7318    2.6101   18.5906 H   0  0  0  0  0  0  0  0  0  0  0  0
   54.5722    5.1655   20.0964 H   0  0  0  0  0  0  0  0  0  0  0  0
   54.5459    2.4003   18.3371 H   0  0  0  0  0  0  0  0  0  0  0  0
   53.3451    3.7505   16.6792 H   0  0  0  0  0  0  0  0  0  0  0  0
   54.3319    4.8004   17.6902 H   0  0  0  0  0  0  0  0  0  0  0  0
   50.3619    6.3124   18.0586 H   0  0  0  0  0  0  0  0  0  0  0  0
   50.5890    6.4221   19.8086 H   0  0  0  0  0  0  0  0  0  0  0  0
   54.0518    2.4595   20.7202 H   0  0  0  0  0  0  0  0  0  0  0  0
   52.9200    3.7841   20.5414 H   0  0  0  0  0  0  0  0  0  0  0  0
   51.6791    8.4096   17.7258 H   0  0  0  0  0  0  0  0  0  0  0  0
   51.8795    8.5693   19.4664 H   0  0  0  0  0  0  0  0  0  0  0  0
   49.4129    8.7330   19.7673 H   0  0  0  0  0  0  0  0  0  0  0  0
   49.1700    8.5145   18.0345 H   0  0  0  0  0  0  0  0  0  0  0  0
   50.7275   10.8312   19.3024 H   0  0  0  0  0  0  0  0  0  0  0  0
   50.4578   10.6025   17.5737 H   0  0  0  0  0  0  0  0  0  0  0  0
   47.9687   10.7180   17.9620 H   0  0  0  0  0  0  0  0  0  0  0  0
   48.2658   11.0023   19.6784 H   0  0  0  0  0  0  0  0  0  0  0  0
   49.2452   12.7978   17.3917 H   0  0  0  0  0  0  0  0  0  0  0  0
   49.5526   13.0854   19.1046 H   0  0  0  0  0  0  0  0  0  0  0  0
   47.6391   14.4387   18.2950 H   0  0  0  0  0  0  0  0  0  0  0  0
   46.7715   12.9698   17.8190 H   0  0  0  0  0  0  0  0  0  0  0  0
   47.1068   13.2879   19.5331 H   0  0  0  0  0  0  0  0  0  0  0  0
  1  5  1  0
  1  7  1  0
  2  5  2  0
  3  6  1  0
  4 10  1  0
  5  8  1  0
  6  7  1  0
  6 10  1  0
  8  9  1  0
  9 11  1  0
 11 12  1  0
 12 13  1  0
 13 14  1  0
 14 15  1  0
 15 16  1  0
 16 17  1  0
 19 23  1  0
 20 18  1  0
 21 18  2  0
 22 19  2  0
 23 25  1  0
 24 20  1  0
 25 24  1  0
 26 29  1  0
 27 18  1  0
 28 19  1  0
 29 24  1  0
 30 27  1  0
 31 28  1  0
 32 35  1  0
 33 34  1  0
 34 37  1  0
 35 39  1  0
 36 31  1  0
 37 36  1  0
 38 30  1  0
 39 38  1  0
 40 32  1  0
 41 33  1  0
 42 46  1  0
 42 48  1  0
 43 46  2  0
 44 47  1  0
 45 50  1  0
 46 49  1  0
 47 48  1  0
 47 50  1  0
 49 51  1  0
 51 52  1  0
 52 53  1  0
 53 54  1  0
 54 55  1  0
 55 56  1  0
  3 57  1  0
  4 58  1  0
  6 59  1  6
  7 60  1  0
  7 61  1  0
  8 62  1  0
  8 63  1  0
  9 64  1  0
  9 65  1  0
 10 66  1  0
 10 67  1  0
 11 68  1  0
 11 69  1  0
 12 70  1  0
 12 71  1  0
 13 72  1  0
 13 73  1  0
 14 74  1  0
 14 75  1  0
 15 76  1  0
 15 77  1  0
 16 78  1  0
 16 79  1  0
 17 80  1  0
 17 81  1  0
 17 82  1  0
 24 83  1  1
 25 84  1  0
 25 85  1  0
 26 86  1  0
 27 87  1  0
 27 88  1  0
 28 89  1  0
 28 90  1  0
 29 91  1  0
 29 92  1  0
 30 93  1  0
 30 94  1  0
 31 95  1  0
 31 96  1  0
 32 97  1  0
 32 98  1  0
 33 99  1  0
 33100  1  0
 34101  1  0
 34102  1  0
 35103  1  0
 35104  1  0
 36105  1  0
 36106  1  0
 37107  1  0
 37108  1  0
 38109  1  0
 38110  1  0
 39111  1  0
 39112  1  0
 40113  1  0
 40114  1  0
 40115  1  0
 41116  1  0
 41117  1  0
 41118  1  0
 44119  1  0
 45120  1  0
 47121  1  6
 48122  1  0
 48123  1  0
 49124  1  0
 49125  1  0
 50126  1  0
 50127  1  0
 51128  1  0
 51129  1  0
 52130  1  0
 52131  1  0
 53132  1  0
 53133  1  0
 54134  1  0
 54135  1  0
 55136  1  0
 55137  1  0
 56138  1  0
 56139  1  0
 56140  1  0
M  END
> <Uni-Dock RESULT> 
ENERGY=   -4.746  LOWER_BOUND=    3.946  UPPER_BOUND=   10.161
INTER + INTRA:          -4.746
INTER:                  -4.746
INTRA:                   0.000
UNBOUND:                 0.000

$$$$

     RDKit          3D

140137  0  0  0  0  0  0  0  0999 V2000
   48.9070    8.0400   15.5385 O   0  0  0  0  0  0  0  0  0  0  0  0
   47.6347    9.1497   17.0848 O   0  0  0  0  0  0  0  0  0  0  0  0
   47.5233    8.5326   12.1561 O   0  0  0  0  0  0  0  0  0  0  0  0
   49.9782    7.5366   11.4258 O   0  0  0  0  0  0  0  0  0  0  0  0
   48.5509    8.3863   16.8050 C   0  0  0  0  0  0  0  0  0  0  0  0
   48.3697    7.9688   13.1708 C   0  0  2  0  0  0  0  0  0  0  0  0
   48.1077    8.6471   14.5154 C   0  0  0  0  0  0  0  0  0  0  0  0
   49.4716    7.7804   17.8382 C   0  0  0  0  0  0  0  0  0  0  0  0
   49.9881    6.3899   17.4705 C   0  0  0  0  0  0  0  0  0  0  0  0
   49.8205    8.1324   12.7148 C   0  0  0  0  0  0  0  0  0  0  0  0
   50.6732    5.6618   18.6317 C   0  0  0  0  0  0  0  0  0  0  0  0
   51.9146    6.3871   19.1598 C   0  0  0  0  0  0  0  0  0  0  0  0
   52.6457    5.6161   20.2646 C   0  0  0  0  0  0  0  0  0  0  0  0
   53.3974    4.3868   19.7468 C   0  0  0  0  0  0  0  0  0  0  0  0
   54.0869    3.5823   20.8511 C   0  0  0  0  0  0  0  0  0  0  0  0
   55.2230    4.3373   21.5390 C   0  0  0  0  0  0  0  0  0  0  0  0
   55.9627    3.4425   22.5226 C   0  0  0  0  0  0  0  0  0  0  0  0
   51.9498    5.3831   19.3084 C   0  0  0  0  0  0  0  0  0  0  0  0
   51.7689    8.6440   15.0492 C   0  0  0  0  0  0  0  0  0  0  0  0
   52.6441    6.4056   18.7395 O   0  0  0  0  0  0  0  0  0  0  0  0
   50.7634    5.1510   19.1246 O   0  0  0  0  0  0  0  0  0  0  0  0
   51.8526    7.4967   14.6430 O   0  0  0  0  0  0  0  0  0  0  0  0
   52.2548    9.0843   16.2448 O   0  0  0  0  0  0  0  0  0  0  0  0
   51.8812    7.2990   17.9000 C   0  0  2  0  0  0  0  0  0  0  0  0
   52.8931    8.0823   17.0539 C   0  0  0  0  0  0  0  0  0  0  0  0
   51.7789    9.1050   19.5683 O   0  0  0  0  0  0  0  0  0  0  0  0
   52.8504    4.5323   20.1695 C   0  0  0  0  0  0  0  0  0  0  0  0
   51.1467    9.7993   14.2989 C   0  0  0  0  0  0  0  0  0  0  0  0
   51.0001    8.2312   18.7516 C   0  0  0  0  0  0  0  0  0  0  0  0
   53.6257    5.3644   21.1895 C   0  0  0  0  0  0  0  0  0  0  0  0
   50.1538    9.3449   13.2284 C   0  0  0  0  0  0  0  0  0  0  0  0
   55.4642    1.9944   23.7058 C   0  0  0  0  0  0  0  0  0  0  0  0
   45.5511    7.4341   12.2589 C   0  0  0  0  0  0  0  0  0  0  0  0
   46.5957    7.7900   13.3174 C   0  0  0  0  0  0  0  0  0  0  0  0
   54.4411    3.0100   24.2214 C   0  0  0  0  0  0  0  0  0  0  0  0
   48.8616    8.7806   13.8246 C   0  0  0  0  0  0  0  0  0  0  0  0
   47.8866    8.3567   12.7249 C   0  0  0  0  0  0  0  0  0  0  0  0
   54.4642    4.5178   22.1510 C   0  0  0  0  0  0  0  0  0  0  0  0
   53.6140    3.7217   23.1454 C   0  0  0  0  0  0  0  0  0  0  0  0
   54.8539    0.8738   22.8769 C   0  0  0  0  0  0  0  0  0  0  0  0
   45.9787    6.3008   11.3373 C   0  0  0  0  0  0  0  0  0  0  0  0
   51.9866    5.8168   20.8518 O   0  0  0  0  0  0  0  0  0  0  0  0
   52.5790    4.3317   19.2111 O   0  0  0  0  0  0  0  0  0  0  0  0
   53.7344    6.1435   23.0820 O   0  0  0  0  0  0  0  0  0  0  0  0
   54.5435    3.3099   20.8717 O   0  0  0  0  0  0  0  0  0  0  0  0
   52.1654    5.4304   19.5582 C   0  0  0  0  0  0  0  0  0  0  0  0
   53.5434    4.8527   22.4891 C   0  0  1  0  0  0  0  0  0  0  0  0
   52.1503    4.7886   21.8525 C   0  0  0  0  0  0  0  0  0  0  0  0
   51.8358    6.5660   18.6192 C   0  0  0  0  0  0  0  0  0  0  0  0
   54.6935    4.5642   21.5192 C   0  0  0  0  0  0  0  0  0  0  0  0
   51.0516    6.0626   17.4116 C   0  0  0  0  0  0  0  0  0  0  0  0
   50.6965    7.2046   16.4588 C   0  0  0  0  0  0  0  0  0  0  0  0
   49.8531    6.7103   15.2820 C   0  0  0  0  0  0  0  0  0  0  0  0
   49.5123    7.8522   14.3233 C   0  0  0  0  0  0  0  0  0  0  0  0
   48.6203    7.3690   13.1789 C   0  0  0  0  0  0  0  0  0  0  0  0
   48.2904    8.4972   12.2160 C   0  0  0  0  0  0  0  0  0  0  0  0
   46.6012    8.3576   12.4163 H   0  0  0  0  0  0  0  0  0  0  0  0
   49.2112    7.8514   10.9081 H   0  0  0  0  0  0  0  0  0  0  0  0
   48.1390    6.8981   13.2268 H   0  0  0  0  0  0  0  0  0  0  0  0
   48.3436    9.7155   14.4526 H   0  0  0  0  0  0  0  0  0  0  0  0
   47.0402    8.5531   14.7555 H   0  0  0  0  0  0  0  0  0  0  0  0
   50.3042    8.4783   17.9858 H   0  0  0  0  0  0  0  0  0  0  0  0
   48.9025    7.7161   18.7743 H   0  0  0  0  0  0  0  0  0  0  0  0
   49.1518    5.7711   17.1214 H   0  0  0  0  0  0  0  0  0  0  0  0
   50.6876    6.4652   16.6285 H   0  0  0  0  0  0  0  0  0  0  0  0
   50.5212    7.6491   13.4034 H   0  0  0  0  0  0  0  0  0  0  0  0
   50.0908    9.1905   12.6186 H   0  0  0  0  0  0  0  0  0  0  0  0
   49.9568    5.5163   19.4491 H   0  0  0  0  0  0  0  0  0  0  0  0
   50.9480    4.6611   18.2769 H   0  0  0  0  0  0  0  0  0  0  0  0
   51.6116    7.3567   19.5729 H   0  0  0  0  0  0  0  0  0  0  0  0
   52.6086    6.5957   18.3345 H   0  0  0  0  0  0  0  0  0  0  0  0
   51.9348    5.3217   21.0449 H   0  0  0  0  0  0  0  0  0  0  0  0
   53.3607    6.3053   20.7297 H   0  0  0  0  0  0  0  0  0  0  0  0
   54.1423    4.6973   19.0038 H   0  0  0  0  0  0  0  0  0  0  0  0
   52.6989    3.7157   19.2350 H   0  0  0  0  0  0  0  0  0  0  0  0
   53.3467    3.2687   21.5960 H   0  0  0  0  0  0  0  0  0  0  0  0
   54.4870    2.6633   20.4043 H   0  0  0  0  0  0  0  0  0  0  0  0
   54.8330    5.2069   22.0790 H   0  0  0  0  0  0  0  0  0  0  0  0
   55.9329    4.7079   20.7913 H   0  0  0  0  0  0  0  0  0  0  0  0
   55.2864    3.0662   23.2964 H   0  0  0  0  0  0  0  0  0  0  0  0
   56.4136    2.5857   22.0123 H   0  0  0  0  0  0  0  0  0  0  0  0
   56.7618    4.0010   23.0177 H   0  0  0  0  0  0  0  0  0  0  0  0
   51.2367    6.7140   17.2322 H   0  0  0  0  0  0  0  0  0  0  0  0
   53.5001    7.4037   16.4403 H   0  0  0  0  0  0  0  0  0  0  0  0
   53.6129    8.5987   17.7011 H   0  0  0  0  0  0  0  0  0  0  0  0
   52.0548    9.8565   19.0135 H   0  0  0  0  0  0  0  0  0  0  0  0
   52.2117    3.8039   20.6794 H   0  0  0  0  0  0  0  0  0  0  0  0
   53.5288    3.9751   19.5142 H   0  0  0  0  0  0  0  0  0  0  0  0
   51.9617   10.3567   13.8275 H   0  0  0  0  0  0  0  0  0  0  0  0
   50.6409   10.4630   15.0094 H   0  0  0  0  0  0  0  0  0  0  0  0
   50.3633    7.6565   19.4303 H   0  0  0  0  0  0  0  0  0  0  0  0
   50.3433    8.8388   18.1198 H   0  0  0  0  0  0  0  0  0  0  0  0
   54.3046    6.0436   20.6562 H   0  0  0  0  0  0  0  0  0  0  0  0
   52.9363    6.0038   21.7561 H   0  0  0  0  0  0  0  0  0  0  0  0
   49.9076   10.2069   12.5981 H   0  0  0  0  0  0  0  0  0  0  0  0
   50.6195    8.5956   12.5788 H   0  0  0  0  0  0  0  0  0  0  0  0
   56.2390    2.5000   23.1194 H   0  0  0  0  0  0  0  0  0  0  0  0
   55.9730    1.5525   24.5725 H   0  0  0  0  0  0  0  0  0  0  0  0
   45.3157    8.3199   11.6595 H   0  0  0  0  0  0  0  0  0  0  0  0
   44.6263    7.1387   12.7669 H   0  0  0  0  0  0  0  0  0  0  0  0
   46.1556    8.5328   13.9957 H   0  0  0  0  0  0  0  0  0  0  0  0
   46.8240    6.9044   13.9210 H   0  0  0  0  0  0  0  0  0  0  0  0
   54.9683    3.7637   24.8209 H   0  0  0  0  0  0  0  0  0  0  0  0
   53.7495    2.5005   24.9031 H   0  0  0  0  0  0  0  0  0  0  0  0
   49.0859    7.9171   14.4599 H   0  0  0  0  0  0  0  0  0  0  0  0
   48.3891    9.5378   14.4628 H   0  0  0  0  0  0  0  0  0  0  0  0
   47.6487    9.2201   12.0903 H   0  0  0  0  0  0  0  0  0  0  0  0
   48.3675    7.6081   12.0863 H   0  0  0  0  0  0  0  0  0  0  0  0
   55.1299    5.1873   22.7084 H   0  0  0  0  0  0  0  0  0  0  0  0
   55.1040    3.8441   21.5690 H   0  0  0  0  0  0  0  0  0  0  0  0
   52.9163    4.4047   23.6469 H   0  0  0  0  0  0  0  0  0  0  0  0
   52.9960    2.9871   22.6180 H   0  0  0  0  0  0  0  0  0  0  0  0
   54.4413    1.2456   21.9349 H   0  0  0  0  0  0  0  0  0  0  0  0
   54.0564    0.3683   23.4283 H   0  0  0  0  0  0  0  0  0  0  0  0
   55.6202    0.1318   22.6321 H   0  0  0  0  0  0  0  0  0  0  0  0
   46.2609    5.4119   11.9089 H   0  0  0  0  0  0  0  0  0  0  0  0
   45.1546    6.0292   10.6715 H   0  0  0  0  0  0  0  0  0  0  0  0
   46.8247    6.5910   10.7083 H   0  0  0  0  0  0  0  0  0  0  0  0
   53.4651    6.8047   22.4170 H   0  0  0  0  0  0  0  0  0  0  0  0
   53.9364    3.4404   20.1094 H   0  0  0  0  0  0  0  0  0  0  0  0
   53.5790    4.1140   23.2970 H   0  0  0  0  0  0  0  0  0  0  0  0
   51.3974    5.0044   22.6181 H   0  0  0  0  0  0  0  0  0  0  0  0
   51.9257    3.7920   21.4566 H   0  0  0  0  0  0  0  0  0  0  0  0
   51.2392    7.3142   19.1532 H   0  0  0  0  0  0  0  0  0  0  0  0
   52.7748    7.0426   18.3197 H   0  0  0  0  0  0  0  0  0  0  0  0
   55.6389    4.5471   22.0739 H   0  0  0  0  0  0  0  0  0  0  0  0
   54.7963    5.3544   20.7678 H   0  0  0  0  0  0  0  0  0  0  0  0
   50.1349    5.5640   17.7527 H   0  0  0  0  0  0  0  0  0  0  0  0
   51.6377    5.3072   16.8746 H   0  0  0  0  0  0  0  0  0  0  0  0
   51.6170    7.6691   16.0854 H   0  0  0  0  0  0  0  0  0  0  0  0
   50.1434    7.9804   17.0024 H   0  0  0  0  0  0  0  0  0  0  0  0
   50.3940    5.9231   14.7429 H   0  0  0  0  0  0  0  0  0  0  0  0
   48.9261    6.2626   15.6614 H   0  0  0  0  0  0  0  0  0  0  0  0
   49.0027    8.6560   14.8702 H   0  0  0  0  0  0  0  0  0  0  0  0
   50.4375    8.2774   13.9146 H   0  0  0  0  0  0  0  0  0  0  0  0
   47.6903    6.9528   13.5831 H   0  0  0  0  0  0  0  0  0  0  0  0
   49.1214    6.5635   12.6283 H   0  0  0  0  0  0  0  0  0  0  0  0
   47.6335    8.1352   11.4181 H   0  0  0  0  0  0  0  0  0  0  0  0
   47.7781    9.3179   12.7285 H   0  0  0  0  0  0  0  0  0  0  0  0
   49.1994    8.8945   11.7525 H   0  0  0  0  0  0  0  0  0  0  0  0
  1  5  1  0
  1  7  1  0
  2  5  2  0
  3  6  1  0
  4 10  1  0
  5  8  1  0
  6  7  1  0
  6 10  1  0
  8  9  1  0
  9 11  1  0
 11 12  1  0
 12 13  1  0
 13 14  1  0
 14 15  1  0
 15 16  1  0
 16 17  1  0
 19 23  1  0
 20 18  1  0
 21 18  2  0
 22 19  2  0
 23 25  1  0
 24 20  1  0
 25 24  1  0
 26 29  1  0
 27 18  1  0
 28 19  1  0
 29 24  1  0
 30 27  1  0
 31 28  1  0
 32 35  1  0
 33 34  1  0
 34 37  1  0
 35 39  1  0
 36 31  1  0
 37 36  1  0
 38 30  1  0
 39 38  1  0
 40 32  1  0
 41 33  1  0
 42 46  1  0
 42 48  1  0
 43 46  2  0
 44 47  1  0
 45 50  1  0
 46 49  1  0
 47 48  1  0
 47 50  1  0
 49 51  1  0
 51 52  1  0
 52 53  1  0
 53 54  1  0
 54 55  1  0
 55 56  1  0
  3 57  1  0
  4 58  1  0
  6 59  1  6
  7 60  1  0
  7 61  1  0
  8 62  1  0
  8 63  1  0
  9 64  1  0
  9 65  1  0
 10 66  1  0
 10 67  1  0
 11 68  1  0
 11 69  1  0
 12 70  1  0
 12 71  1  0
 13 72  1  0
 13 73  1  0
 14 74  1  0
 14 75  1  0
 15 76  1  0
 15 77  1  0
 16 78  1  0
 16 79  1  0
 17 80  1  0
 17 81  1  0
 17 82  1  0
 24 83  1  1
 25 84  1  0
 25 85  1  0
 26 86  1  0
 27 87  1  0
 27 88  1  0
 28 89  1  0
 28 90  1  0
 29 91  1  0
 29 92  1  0
 30 93  1  0
 30 94  1  0
 31 95  1  0
 31 96  1  0
 32 97  1  0
 32 98  1  0
 33 99  1  0
 33100  1  0
 34101  1  0
 34102  1  0
 35103  1  0
 35104  1  0
 36105  1  0
 36106  1  0
 37107  1  0
 37108  1  0
 38109  1  0
 38110  1  0
 39111  1  0
 39112  1  0
 40113  1  0
 40114  1  0
 40115  1  0
 41116  1  0
 41117  1  0
 41118  1  0
 44119  1  0
 45120  1  0
 47121  1  6
 48122  1  0
 48123  1  0
 49124  1  0
 49125  1  0
 50126  1  0
 50127  1  0
 51128  1  0
 51129  1  0
 52130  1  0
 52131  1  0
 53132  1  0
 53133  1  0
 54134  1  0
 54135  1  0
 55136  1  0
 55137  1  0
 56138  1  0
 56139  1  0
 56140  1  0
M  END
> <Uni-Dock RESULT> 
ENERGY=   -4.723  LOWER_BOUND=    2.821  UPPER_BOUND=   10.329
INTER + INTRA:          -4.723
INTER:                  -4.723
INTRA:                   0.000
UNBOUND:                 0.000

$$$$

     RDKit          3D

140137  0  0  0  0  0  0  0  0999 V2000
   48.4207    7.7744   19.1431 O   0  0  0  0  0  0  0  0  0  0  0  0
   47.0500    9.5985   18.9568 O   0  0  0  0  0  0  0  0  0  0  0  0
   48.0121    6.2031   22.4539 O   0  0  0  0  0  0  0  0  0  0  0  0
   49.3567    4.1500   21.2174 O   0  0  0  0  0  0  0  0  0  0  0  0
   47.9399    8.8816   18.5157 C   0  0  0  0  0  0  0  0  0  0  0  0
   48.6000    6.4399   21.1646 C   0  0  2  0  0  0  0  0  0  0  0  0
   47.7965    7.4935   20.4023 C   0  0  0  0  0  0  0  0  0  0  0  0
   48.5773    9.0873   17.1615 C   0  0  0  0  0  0  0  0  0  0  0  0
   50.0446    8.6653   17.0952 C   0  0  0  0  0  0  0  0  0  0  0  0
   48.6521    5.1043   20.4211 C   0  0  0  0  0  0  0  0  0  0  0  0
   50.7640    9.1401   15.8284 C   0  0  0  0  0  0  0  0  0  0  0  0
   50.1614    8.5784   14.5371 C   0  0  0  0  0  0  0  0  0  0  0  0
   50.9333    8.9873   13.2775 C   0  0  0  0  0  0  0  0  0  0  0  0
   52.2814    8.2750   13.1377 C   0  0  0  0  0  0  0  0  0  0  0  0
   53.0812    8.7164   11.9099 C   0  0  0  0  0  0  0  0  0  0  0  0
   52.4244    8.3375   10.5837 C   0  0  0  0  0  0  0  0  0  0  0  0
   53.3287    8.6703    9.4062 C   0  0  0  0  0  0  0  0  0  0  0  0
   51.1482    8.8016   14.4488 C   0  0  0  0  0  0  0  0  0  0  0  0
   48.2149    5.3966   17.3829 C   0  0  0  0  0  0  0  0  0  0  0  0
   50.2650    7.7779   14.2972 O   0  0  0  0  0  0  0  0  0  0  0  0
   51.2442    9.5057   15.4440 O   0  0  0  0  0  0  0  0  0  0  0  0
   49.3906    5.2064   17.6469 O   0  0  0  0  0  0  0  0  0  0  0  0
   47.7509    5.8686   16.1906 O   0  0  0  0  0  0  0  0  0  0  0  0
   49.3483    7.5650   15.3924 C   0  0  2  0  0  0  0  0  0  0  0  0
   48.7617    6.1592   15.2108 C   0  0  0  0  0  0  0  0  0  0  0  0
   47.4250    8.5870   14.2472 O   0  0  0  0  0  0  0  0  0  0  0  0
   52.0381    8.9308   13.2373 C   0  0  0  0  0  0  0  0  0  0  0  0
   47.0500    5.1162   18.3045 C   0  0  0  0  0  0  0  0  0  0  0  0
   48.2534    8.6473   15.4079 C   0  0  0  0  0  0  0  0  0  0  0  0
   51.2355    9.0253   11.9409 C   0  0  0  0  0  0  0  0  0  0  0  0
   47.4556    5.0801   19.7784 C   0  0  0  0  0  0  0  0  0  0  0  0
   54.6120   10.0638    9.0100 C   0  0  0  0  0  0  0  0  0  0  0  0
   48.8465    7.7674   23.8551 C   0  0  0  0  0  0  0  0  0  0  0  0
   48.5456    7.7735   22.3558 C   0  0  0  0  0  0  0  0  0  0  0  0
   53.4417   10.9882    9.3563 C   0  0  0  0  0  0  0  0  0  0  0  0
   47.8093    6.4652   20.3263 C   0  0  0  0  0  0  0  0  0  0  0  0
   48.1892    6.3917   21.8062 C   0  0  0  0  0  0  0  0  0  0  0  0
   52.1061    9.2685   10.7051 C   0  0  0  0  0  0  0  0  0  0  0  0
   52.7145   10.6735   10.6679 C   0  0  0  0  0  0  0  0  0  0  0  0
   55.7063   10.0353   10.0667 C   0  0  0  0  0  0  0  0  0  0  0  0
   50.0892    6.9702   24.2243 C   0  0  0  0  0  0  0  0  0  0  0  0
   50.6093    9.8301   13.3429 O   0  0  0  0  0  0  0  0  0  0  0  0
   52.2739    8.4511   14.1014 O   0  0  0  0  0  0  0  0  0  0  0  0
   50.3378   10.2090   10.5289 O   0  0  0  0  0  0  0  0  0  0  0  0
   53.4060    8.4596   11.5757 O   0  0  0  0  0  0  0  0  0  0  0  0
   51.1097    8.8290   14.1189 C   0  0  0  0  0  0  0  0  0  0  0  0
   51.6353   10.0902   11.1263 C   0  0  1  0  0  0  0  0  0  0  0  0
   51.5728   10.5844   12.5761 C   0  0  0  0  0  0  0  0  0  0  0  0
   50.0147    8.2169   14.9592 C   0  0  0  0  0  0  0  0  0  0  0  0
   52.1355    8.6506   10.9720 C   0  0  0  0  0  0  0  0  0  0  0  0
   50.5049    7.9471   16.3783 C   0  0  0  0  0  0  0  0  0  0  0  0
   49.4014    7.3414   17.2463 C   0  0  0  0  0  0  0  0  0  0  0  0
   49.8730    7.1328   18.6866 C   0  0  0  0  0  0  0  0  0  0  0  0
   48.7718    6.5131   19.5483 C   0  0  0  0  0  0  0  0  0  0  0  0
   49.2240    6.3593   21.0011 C   0  0  0  0  0  0  0  0  0  0  0  0
   48.1380    5.7310   21.8584 C   0  0  0  0  0  0  0  0  0  0  0  0
   48.0515    7.0404   22.9497 H   0  0  0  0  0  0  0  0  0  0  0  0
   48.9883    4.2527   22.1170 H   0  0  0  0  0  0  0  0  0  0  0  0
   49.6265    6.7857   21.3354 H   0  0  0  0  0  0  0  0  0  0  0  0
   46.7733    7.1395   20.2326 H   0  0  0  0  0  0  0  0  0  0  0  0
   47.7392    8.4037   21.0141 H   0  0  0  0  0  0  0  0  0  0  0  0
   47.9792    8.5321   16.4293 H   0  0  0  0  0  0  0  0  0  0  0  0
   48.5008   10.1578   16.9321 H   0  0  0  0  0  0  0  0  0  0  0  0
   50.5788    9.0665   17.9657 H   0  0  0  0  0  0  0  0  0  0  0  0
   50.1193    7.5728   17.1650 H   0  0  0  0  0  0  0  0  0  0  0  0
   49.1663    5.1933   19.4586 H   0  0  0  0  0  0  0  0  0  0  0  0
   47.6458    4.7043   20.2498 H   0  0  0  0  0  0  0  0  0  0  0  0
   50.7584   10.2360   15.7906 H   0  0  0  0  0  0  0  0  0  0  0  0
   51.8146    8.8370   15.9129 H   0  0  0  0  0  0  0  0  0  0  0  0
   49.1338    8.9470   14.4341 H   0  0  0  0  0  0  0  0  0  0  0  0
   50.1024    7.4832   14.5942 H   0  0  0  0  0  0  0  0  0  0  0  0
   51.0784   10.0735   13.2670 H   0  0  0  0  0  0  0  0  0  0  0  0
   50.3056    8.7423   12.4123 H   0  0  0  0  0  0  0  0  0  0  0  0
   52.1218    7.1905   13.0973 H   0  0  0  0  0  0  0  0  0  0  0  0
   52.8966    8.4728   14.0224 H   0  0  0  0  0  0  0  0  0  0  0  0
   53.2443    9.7996   11.9458 H   0  0  0  0  0  0  0  0  0  0  0  0
   54.0733    8.2506   11.9638 H   0  0  0  0  0  0  0  0  0  0  0  0
   51.4754    8.8705   10.4603 H   0  0  0  0  0  0  0  0  0  0  0  0
   52.2013    7.2648   10.5695 H   0  0  0  0  0  0  0  0  0  0  0  0
   53.5597    9.7396    9.3784 H   0  0  0  0  0  0  0  0  0  0  0  0
   54.2704    8.1155    9.4645 H   0  0  0  0  0  0  0  0  0  0  0  0
   52.8386    8.4079    8.4645 H   0  0  0  0  0  0  0  0  0  0  0  0
   49.8967    7.6015   16.3419 H   0  0  0  0  0  0  0  0  0  0  0  0
   49.5541    5.3992   15.2202 H   0  0  0  0  0  0  0  0  0  0  0  0
   48.2922    6.0662   14.2237 H   0  0  0  0  0  0  0  0  0  0  0  0
   46.7568    7.8948   14.3996 H   0  0  0  0  0  0  0  0  0  0  0  0
   52.6417    9.8332   13.3778 H   0  0  0  0  0  0  0  0  0  0  0  0
   52.7223    8.0754   13.2188 H   0  0  0  0  0  0  0  0  0  0  0  0
   46.6347    4.1457   18.0166 H   0  0  0  0  0  0  0  0  0  0  0  0
   46.2778    5.8795   18.1557 H   0  0  0  0  0  0  0  0  0  0  0  0
   48.6926    9.6488   15.4247 H   0  0  0  0  0  0  0  0  0  0  0  0
   47.6174    8.5521   16.2945 H   0  0  0  0  0  0  0  0  0  0  0  0
   50.6873    8.0856   11.7894 H   0  0  0  0  0  0  0  0  0  0  0  0
   50.4751    9.8127   12.0252 H   0  0  0  0  0  0  0  0  0  0  0  0
   46.6189    4.6722   20.3566 H   0  0  0  0  0  0  0  0  0  0  0  0
   48.3031    4.3998   19.9176 H   0  0  0  0  0  0  0  0  0  0  0  0
   54.2514    9.0447    8.8324 H   0  0  0  0  0  0  0  0  0  0  0  0
   55.0482   10.4057    8.0624 H   0  0  0  0  0  0  0  0  0  0  0  0
   47.9851    7.3712   24.4032 H   0  0  0  0  0  0  0  0  0  0  0  0
   48.9862    8.8023   24.1870 H   0  0  0  0  0  0  0  0  0  0  0  0
   47.7056    8.4580   22.1786 H   0  0  0  0  0  0  0  0  0  0  0  0
   49.4055    8.1776   21.8100 H   0  0  0  0  0  0  0  0  0  0  0  0
   52.7169   10.9585    8.5321 H   0  0  0  0  0  0  0  0  0  0  0  0
   53.8094   12.0200    9.4081 H   0  0  0  0  0  0  0  0  0  0  0  0
   48.6445    6.8918   19.7607 H   0  0  0  0  0  0  0  0  0  0  0  0
   46.9540    7.1407   20.1995 H   0  0  0  0  0  0  0  0  0  0  0  0
   47.3523    5.9748   22.3813 H   0  0  0  0  0  0  0  0  0  0  0  0
   49.0370    5.7089   21.9269 H   0  0  0  0  0  0  0  0  0  0  0  0
   51.4850    9.1261    9.8128 H   0  0  0  0  0  0  0  0  0  0  0  0
   52.8953    8.5084   10.6687 H   0  0  0  0  0  0  0  0  0  0  0  0
   51.9148   11.4134   10.8013 H   0  0  0  0  0  0  0  0  0  0  0  0
   53.4037   10.8141   11.5075 H   0  0  0  0  0  0  0  0  0  0  0  0
   55.3571    9.5835   10.9993 H   0  0  0  0  0  0  0  0  0  0  0  0
   56.0666   11.0444   10.2849 H   0  0  0  0  0  0  0  0  0  0  0  0
   56.5539    9.4423    9.7094 H   0  0  0  0  0  0  0  0  0  0  0  0
   50.9615    7.3151   23.6615 H   0  0  0  0  0  0  0  0  0  0  0  0
   50.3050    7.0863   25.2902 H   0  0  0  0  0  0  0  0  0  0  0  0
   49.9538    5.9022   24.0329 H   0  0  0  0  0  0  0  0  0  0  0  0
   49.6994    9.8196   11.1557 H   0  0  0  0  0  0  0  0  0  0  0  0
   53.2579    8.3030   12.5350 H   0  0  0  0  0  0  0  0  0  0  0  0
   52.3107   10.7520   10.5735 H   0  0  0  0  0  0  0  0  0  0  0  0
   51.2090   11.6174   12.5861 H   0  0  0  0  0  0  0  0  0  0  0  0
   52.5604   10.5897   13.0505 H   0  0  0  0  0  0  0  0  0  0  0  0
   49.1607    8.9026   14.9944 H   0  0  0  0  0  0  0  0  0  0  0  0
   49.6820    7.2977   14.4663 H   0  0  0  0  0  0  0  0  0  0  0  0
   52.2287    8.4122    9.9061 H   0  0  0  0  0  0  0  0  0  0  0  0
   51.4221    7.9286   11.3835 H   0  0  0  0  0  0  0  0  0  0  0  0
   50.8591    8.8843   16.8272 H   0  0  0  0  0  0  0  0  0  0  0  0
   51.3650    7.2673   16.3530 H   0  0  0  0  0  0  0  0  0  0  0  0
   49.0838    6.3831   16.8181 H   0  0  0  0  0  0  0  0  0  0  0  0
   48.5248    8.0008   17.2422 H   0  0  0  0  0  0  0  0  0  0  0  0
   50.7590    6.4865   18.6968 H   0  0  0  0  0  0  0  0  0  0  0  0
   50.1727    8.0975   19.1147 H   0  0  0  0  0  0  0  0  0  0  0  0
   47.8726    7.1414   19.5094 H   0  0  0  0  0  0  0  0  0  0  0  0
   48.4963    5.5316   19.1426 H   0  0  0  0  0  0  0  0  0  0  0  0
   49.4903    7.3395   21.4131 H   0  0  0  0  0  0  0  0  0  0  0  0
   50.1240    5.7342   21.0488 H   0  0  0  0  0  0  0  0  0  0  0  0
   48.4738    5.6511   22.8977 H   0  0  0  0  0  0  0  0  0  0  0  0
   47.2243    6.3341   21.8444 H   0  0  0  0  0  0  0  0  0  0  0  0
   47.8921    4.7248   21.5033 H   0  0  0  0  0  0  0  0  0  0  0  0
  1  5  1  0
  1  7  1  0
  2  5  2  0
  3  6  1  0
  4 10  1  0
  5  8  1  0
  6  7  1  0
  6 10  1  0
  8  9  1  0
  9 11  1  0
 11 12  1  0
 12 13  1  0
 13 14  1  0
 14 15  1  0
 15 16  1  0
 16 17  1  0
 19 23  1  0
 20 18  1  0
 21 18  2  0
 22 19  2  0
 23 25  1  0
 24 20  1  0
 25 24  1  0
 26 29  1  0
 27 18  1  0
 28 19  1  0
 29 24  1  0
 30 27  1  0
 31 28  1  0
 32 35  1  0
 33 34  1  0
 34 37  1  0
 35 39  1  0
 36 31  1  0
 37 36  1  0
 38 30  1  0
 39 38  1  0
 40 32  1  0
 41 33  1  0
 42 46  1  0
 42 48  1  0
 43 46  2  0
 44 47  1  0
 45 50  1  0
 46 49  1  0
 47 48  1  0
 47 50  1  0
 49 51  1  0
 51 52  1  0
 52 53  1  0
 53 54  1  0
 54 55  1  0
 55 56  1  0
  3 57  1  0
  4 58  1  0
  6 59  1  6
  7 60  1  0
  7 61  1  0
  8 62  1  0
  8 63  1  0
  9 64  1  0
  9 65  1  0
 10 66  1  0
 10 67  1  0
 11 68  1  0
 11 69  1  0
 12 70  1  0
 12 71  1  0
 13 72  1  0
 13 73  1  0
 14 74  1  0
 14 75  1  0
 15 76  1  0
 15 77  1  0
 16 78  1  0
 16 79  1  0
 17 80  1  0
 17 81  1  0
 17 82  1  0
 24 83  1  1
 25 84  1  0
 25 85  1  0
 26 86  1  0
 27 87  1  0
 27 88  1  0
 28 89  1  0
 28 90  1  0
 29 91  1  0
 29 92  1  0
 30 93  1  0
 30 94  1  0
 31 95  1  0
 31 96  1  0
 32 97  1  0
 32 98  1  0
 33 99  1  0
 33100  1  0
 34101  1  0
 34102  1  0
 35103  1  0
 35104  1  0
 36105  1  0
 36106  1  0
 37107  1  0
 37108  1  0
 38109  1  0
 38110  1  0
 39111  1  0
 39112  1  0
 40113  1  0
 40114  1  0
 40115  1  0
 41116  1  0
 41117  1  0
 41118  1  0
 44119  1  0
 45120  1  0
 47121  1  6
 48122  1  0
 48123  1  0
 49124  1  0
 49125  1  0
 50126  1  0
 50127  1  0
 51128  1  0
 51129  1  0
 52130  1  0
 52131  1  0
 53132  1  0
 53133  1  0
 54134  1  0
 54135  1  0
 55136  1  0
 55137  1  0
 56138  1  0
 56139  1  0
 56140  1  0
M  END
> <Uni-Dock RESULT> 
ENERGY=   -4.450  LOWER_BOUND=    3.621  UPPER_BOUND=    5.352
INTER + INTRA:          -4.450
INTER:                  -4.450
INTRA:                   0.000
UNBOUND:                 0.000

$$$$
