
     RDKit          3D

140137  0  0  0  0  0  0  0  0999 V2000
   49.7133   11.9504   18.7600 O   0  0  0  0  0  0  0  0  0  0  0  0
   51.4956   11.9002   20.2096 O   0  0  0  0  0  0  0  0  0  0  0  0
   49.0278   14.4096   17.2450 O   0  0  0  0  0  0  0  0  0  0  0  0
   46.3244   13.7995   17.0965 O   0  0  0  0  0  0  0  0  0  0  0  0
   50.8425   11.4137   19.2941 C   0  0  0  0  0  0  0  0  0  0  0  0
   48.3369   13.9237   18.4061 C   0  0  2  0  0  0  0  0  0  0  0  0
   49.3154   13.2047   19.3363 C   0  0  0  0  0  0  0  0  0  0  0  0
   51.1702   10.1051   18.6307 C   0  0  0  0  0  0  0  0  0  0  0  0
   50.3442    8.9788   19.2364 C   0  0  0  0  0  0  0  0  0  0  0  0
   47.1796   13.0291   17.9468 C   0  0  0  0  0  0  0  0  0  0  0  0
   50.5762    7.6234   18.5608 C   0  0  0  0  0  0  0  0  0  0  0  0
   51.9679    7.0475   18.8485 C   0  0  0  0  0  0  0  0  0  0  0  0
   52.2500    5.7338   18.1057 C   0  0  0  0  0  0  0  0  0  0  0  0
   51.3271    4.5800   18.5159 C   0  0  0  0  0  0  0  0  0  0  0  0
   51.6724    3.2549   17.8190 C   0  0  0  0  0  0  0  0  0  0  0  0
   52.9620    2.6167   18.3397 C   0  0  0  0  0  0  0  0  0  0  0  0
   53.2439    1.2912   17.6450 C   0  0  0  0  0  0  0  0  0  0  0  0
   50.7120    5.9941   18.7099 C   0  0  0  0  0  0  0  0  0  0  0  0
   47.8266   10.0839   20.3149 C   0  0  0  0  0  0  0  0  0  0  0  0
   49.7296    6.2482   19.6182 O   0  0  0  0  0  0  0  0  0  0  0  0
   50.8256    6.5693   17.6351 O   0  0  0  0  0  0  0  0  0  0  0  0
   49.0257   10.2856   20.4219 O   0  0  0  0  0  0  0  0  0  0  0  0
   47.2372    8.8566   20.3840 O   0  0  0  0  0  0  0  0  0  0  0  0
   48.7860    7.2922   19.2716 C   0  0  2  0  0  0  0  0  0  0  0  0
   48.1357    7.7538   20.5833 C   0  0  0  0  0  0  0  0  0  0  0  0
   48.2213    6.5226   16.9810 O   0  0  0  0  0  0  0  0  0  0  0  0
   51.6271    4.9022   19.2079 C   0  0  0  0  0  0  0  0  0  0  0  0
   46.7623   11.1397   20.1264 C   0  0  0  0  0  0  0  0  0  0  0  0
   47.7225    6.7526   18.2975 C   0  0  0  0  0  0  0  0  0  0  0  0
   51.9487    3.9160   18.0867 C   0  0  0  0  0  0  0  0  0  0  0  0
   47.3201   12.4613   19.5969 C   0  0  0  0  0  0  0  0  0  0  0  0
   55.3914    2.9585   16.8832 C   0  0  0  0  0  0  0  0  0  0  0  0
   49.8006   15.6724   17.5776 C   0  0  0  0  0  0  0  0  0  0  0  0
   49.4246   14.3137   18.1749 C   0  0  0  0  0  0  0  0  0  0  0  0
   55.1030    3.6869   18.1964 C   0  0  0  0  0  0  0  0  0  0  0  0
   47.7756   12.3564   18.1359 C   0  0  0  0  0  0  0  0  0  0  0  0
   48.1826   13.6987   17.5247 C   0  0  0  0  0  0  0  0  0  0  0  0
   52.7391    2.6918   18.5624 C   0  0  0  0  0  0  0  0  0  0  0  0
   54.1301    2.9785   19.1412 C   0  0  0  0  0  0  0  0  0  0  0  0
   56.0215    1.5894   17.0826 C   0  0  0  0  0  0  0  0  0  0  0  0
   50.3280   15.5910   16.1535 C   0  0  0  0  0  0  0  0  0  0  0  0
   51.2721    5.4560   19.4893 O   0  0  0  0  0  0  0  0  0  0  0  0
   50.2423    5.4373   17.4433 O   0  0  0  0  0  0  0  0  0  0  0  0
   53.1615    2.4735   18.3774 O   0  0  0  0  0  0  0  0  0  0  0  0
   54.3570    4.6069   20.1690 O   0  0  0  0  0  0  0  0  0  0  0  0
   50.5608    6.0171   18.4701 C   0  0  0  0  0  0  0  0  0  0  0  0
   52.8036    3.8601   18.3878 C   0  0  1  0  0  0  0  0  0  0  0  0
   51.6027    4.0683   19.3179 C   0  0  0  0  0  0  0  0  0  0  0  0
   50.2609    7.4608   18.8022 C   0  0  0  0  0  0  0  0  0  0  0  0
   54.0278    4.7058   18.7823 C   0  0  0  0  0  0  0  0  0  0  0  0
   49.3589    8.1096   17.7551 C   0  0  0  0  0  0  0  0  0  0  0  0
   48.8875    9.5127   18.1409 C   0  0  0  0  0  0  0  0  0  0  0  0
   50.0224   10.5356   18.2292 C   0  0  0  0  0  0  0  0  0  0  0  0
   49.5561   11.9396   18.6295 C   0  0  0  0  0  0  0  0  0  0  0  0
   48.6294   12.5936   17.6027 C   0  0  0  0  0  0  0  0  0  0  0  0
   48.3218   14.0366   17.9782 C   0  0  0  0  0  0  0  0  0  0  0  0
   48.3469   14.5122   16.5483 H   0  0  0  0  0  0  0  0  0  0  0  0
   45.8015   14.3816   17.6691 H   0  0  0  0  0  0  0  0  0  0  0  0
   47.9435   14.8123   18.9129 H   0  0  0  0  0  0  0  0  0  0  0  0
   50.1901   13.8431   19.5035 H   0  0  0  0  0  0  0  0  0  0  0  0
   48.8301   12.9959   20.2965 H   0  0  0  0  0  0  0  0  0  0  0  0
   50.9945   10.1999   17.5518 H   0  0  0  0  0  0  0  0  0  0  0  0
   52.2417    9.9295   18.7502 H   0  0  0  0  0  0  0  0  0  0  0  0
   50.5504    8.9037   20.3076 H   0  0  0  0  0  0  0  0  0  0  0  0
   49.2770    9.2260   19.1501 H   0  0  0  0  0  0  0  0  0  0  0  0
   47.5379   12.1903   17.3438 H   0  0  0  0  0  0  0  0  0  0  0  0
   46.5970   12.6419   18.7894 H   0  0  0  0  0  0  0  0  0  0  0  0
   50.4161    7.7168   17.4805 H   0  0  0  0  0  0  0  0  0  0  0  0
   49.8127    6.9339   18.9327 H   0  0  0  0  0  0  0  0  0  0  0  0
   52.0847    6.8841   19.9254 H   0  0  0  0  0  0  0  0  0  0  0  0
   52.7393    7.7652   18.5500 H   0  0  0  0  0  0  0  0  0  0  0  0
   53.2893    5.4614   18.3042 H   0  0  0  0  0  0  0  0  0  0  0  0
   52.1685    5.9025   17.0249 H   0  0  0  0  0  0  0  0  0  0  0  0
   50.2923    4.8315   18.2511 H   0  0  0  0  0  0  0  0  0  0  0  0
   51.3598    4.4482   19.6045 H   0  0  0  0  0  0  0  0  0  0  0  0
   51.7350    3.4115   16.7341 H   0  0  0  0  0  0  0  0  0  0  0  0
   50.8431    2.5585   17.9863 H   0  0  0  0  0  0  0  0  0  0  0  0
   53.8156    3.2830   18.1781 H   0  0  0  0  0  0  0  0  0  0  0  0
   52.8749    2.4482   19.4198 H   0  0  0  0  0  0  0  0  0  0  0  0
   54.1372    0.8240   18.0682 H   0  0  0  0  0  0  0  0  0  0  0  0
   53.4131    1.4432   16.5731 H   0  0  0  0  0  0  0  0  0  0  0  0
   52.4019    0.5983   17.7665 H   0  0  0  0  0  0  0  0  0  0  0  0
   49.3232    8.1306   18.8117 H   0  0  0  0  0  0  0  0  0  0  0  0
   48.8938    7.9965   21.3418 H   0  0  0  0  0  0  0  0  0  0  0  0
   47.5454    6.9388   21.0148 H   0  0  0  0  0  0  0  0  0  0  0  0
   49.1836    6.7211   16.9568 H   0  0  0  0  0  0  0  0  0  0  0  0
   51.1323    4.3646   20.0277 H   0  0  0  0  0  0  0  0  0  0  0  0
   52.5296    5.3762   19.6090 H   0  0  0  0  0  0  0  0  0  0  0  0
   45.9990   10.7577   19.4380 H   0  0  0  0  0  0  0  0  0  0  0  0
   46.2931   11.3064   21.1010 H   0  0  0  0  0  0  0  0  0  0  0  0
   47.3235    5.8005   18.6611 H   0  0  0  0  0  0  0  0  0  0  0  0
   46.8930    7.4577   18.1964 H   0  0  0  0  0  0  0  0  0  0  0  0
   51.0069    3.5594   17.6412 H   0  0  0  0  0  0  0  0  0  0  0  0
   52.4869    4.4262   17.2778 H   0  0  0  0  0  0  0  0  0  0  0  0
   48.1561   12.7868   20.2279 H   0  0  0  0  0  0  0  0  0  0  0  0
   46.5367   13.2245   19.6734 H   0  0  0  0  0  0  0  0  0  0  0  0
   54.4819    2.8596   16.2820 H   0  0  0  0  0  0  0  0  0  0  0  0
   56.0844    3.5761   16.2966 H   0  0  0  0  0  0  0  0  0  0  0  0
   50.5750   16.1271   18.2048 H   0  0  0  0  0  0  0  0  0  0  0  0
   48.9374   16.3452   17.6102 H   0  0  0  0  0  0  0  0  0  0  0  0
   50.2722   13.6217   18.0954 H   0  0  0  0  0  0  0  0  0  0  0  0
   49.2377   14.4674   19.2433 H   0  0  0  0  0  0  0  0  0  0  0  0
   56.0518    3.8308   18.7306 H   0  0  0  0  0  0  0  0  0  0  0  0
   54.7294    4.6924   17.9683 H   0  0  0  0  0  0  0  0  0  0  0  0
   48.6115   11.6500   18.0476 H   0  0  0  0  0  0  0  0  0  0  0  0
   46.9555   11.9465   17.5339 H   0  0  0  0  0  0  0  0  0  0  0  0
   47.3411   14.3994   17.5951 H   0  0  0  0  0  0  0  0  0  0  0  0
   48.3743   13.5347   16.4592 H   0  0  0  0  0  0  0  0  0  0  0  0
   52.8371    1.9898   17.7249 H   0  0  0  0  0  0  0  0  0  0  0  0
   52.1537    2.1686   19.3272 H   0  0  0  0  0  0  0  0  0  0  0  0
   54.5716    2.0299   19.4714 H   0  0  0  0  0  0  0  0  0  0  0  0
   54.0250    3.5817   20.0498 H   0  0  0  0  0  0  0  0  0  0  0  0
   55.3285    0.8846   17.5513 H   0  0  0  0  0  0  0  0  0  0  0  0
   56.3211    1.1652   16.1180 H   0  0  0  0  0  0  0  0  0  0  0  0
   56.9177    1.6589   17.7078 H   0  0  0  0  0  0  0  0  0  0  0  0
   51.1942   14.9277   16.0908 H   0  0  0  0  0  0  0  0  0  0  0  0
   49.5640   15.2372   15.4599 H   0  0  0  0  0  0  0  0  0  0  0  0
   50.6406   16.5818   15.8157 H   0  0  0  0  0  0  0  0  0  0  0  0
   52.3912    1.9691   18.0719 H   0  0  0  0  0  0  0  0  0  0  0  0
   53.6612    5.0621   20.6726 H   0  0  0  0  0  0  0  0  0  0  0  0
   52.5452    4.1250   17.3556 H   0  0  0  0  0  0  0  0  0  0  0  0
   51.8176    3.6608   20.3114 H   0  0  0  0  0  0  0  0  0  0  0  0
   50.7297    3.4987   18.9720 H   0  0  0  0  0  0  0  0  0  0  0  0
   51.2179    7.9942   18.8614 H   0  0  0  0  0  0  0  0  0  0  0  0
   49.7651    7.4895   19.7816 H   0  0  0  0  0  0  0  0  0  0  0  0
   54.9070    4.3786   18.2179 H   0  0  0  0  0  0  0  0  0  0  0  0
   53.8535    5.7625   18.5574 H   0  0  0  0  0  0  0  0  0  0  0  0
   48.4692    7.4792   17.6068 H   0  0  0  0  0  0  0  0  0  0  0  0
   49.8752    8.1392   16.7854 H   0  0  0  0  0  0  0  0  0  0  0  0
   48.3569    9.4659   19.1018 H   0  0  0  0  0  0  0  0  0  0  0  0
   48.1578    9.8384   17.3878 H   0  0  0  0  0  0  0  0  0  0  0  0
   50.7569   10.2079   18.9787 H   0  0  0  0  0  0  0  0  0  0  0  0
   50.5518   10.5857   17.2717 H   0  0  0  0  0  0  0  0  0  0  0  0
   50.4471   12.5642   18.7652 H   0  0  0  0  0  0  0  0  0  0  0  0
   49.0511   11.8927   19.6024 H   0  0  0  0  0  0  0  0  0  0  0  0
   49.0961   12.5708   16.6124 H   0  0  0  0  0  0  0  0  0  0  0  0
   47.6847   12.0429   17.5363 H   0  0  0  0  0  0  0  0  0  0  0  0
   49.2367   14.6406   17.9913 H   0  0  0  0  0  0  0  0  0  0  0  0
   47.6379   14.4756   17.2484 H   0  0  0  0  0  0  0  0  0  0  0  0
   47.8511   14.0944   18.9666 H   0  0  0  0  0  0  0  0  0  0  0  0
  1  5  1  0
  1  7  1  0
  2  5  2  0
  3  6  1  0
  4 10  1  0
  5  8  1  0
  6  7  1  0
  6 10  1  0
  8  9  1  0
  9 11  1  0
 11 12  1  0
 12 13  1  0
 13 14  1  0
 14 15  1  0
 15 16  1  0
 16 17  1  0
 19 23  1  0
 20 18  1  0
 21 18  2  0
 22 19  2  0
 23 25  1  0
 24 20  1  0
 25 24  1  0
 26 29  1  0
 27 18  1  0
 28 19  1  0
 29 24  1  0
 30 27  1  0
 31 28  1  0
 32 35  1  0
 33 34  1  0
 34 37  1  0
 35 39  1  0
 36 31  1  0
 37 36  1  0
 38 30  1  0
 39 38  1  0
 40 32  1  0
 41 33  1  0
 42 46  1  0
 42 48  1  0
 43 46  2  0
 44 47  1  0
 45 50  1  0
 46 49  1  0
 47 48  1  0
 47 50  1  0
 49 51  1  0
 51 52  1  0
 52 53  1  0
 53 54  1  0
 54 55  1  0
 55 56  1  0
  3 57  1  0
  4 58  1  0
  6 59  1  6
  7 60  1  0
  7 61  1  0
  8 62  1  0
  8 63  1  0
  9 64  1  0
  9 65  1  0
 10 66  1  0
 10 67  1  0
 11 68  1  0
 11 69  1  0
 12 70  1  0
 12 71  1  0
 13 72  1  0
 13 73  1  0
 14 74  1  0
 14 75  1  0
 15 76  1  0
 15 77  1  0
 16 78  1  0
 16 79  1  0
 17 80  1  0
 17 81  1  0
 17 82  1  0
 24 83  1  1
 25 84  1  0
 25 85  1  0
 26 86  1  0
 27 87  1  0
 27 88  1  0
 28 89  1  0
 28 90  1  0
 29 91  1  0
 29 92  1  0
 30 93  1  0
 30 94  1  0
 31 95  1  0
 31 96  1  0
 32 97  1  0
 32 98  1  0
 33 99  1  0
 33100  1  0
 34101  1  0
 34102  1  0
 35103  1  0
 35104  1  0
 36105  1  0
 36106  1  0
 37107  1  0
 37108  1  0
 38109  1  0
 38110  1  0
 39111  1  0
 39112  1  0
 40113  1  0
 40114  1  0
 40115  1  0
 41116  1  0
 41117  1  0
 41118  1  0
 44119  1  0
 45120  1  0
 47121  1  1
 48122  1  0
 48123  1  0
 49124  1  0
 49125  1  0
 50126  1  0
 50127  1  0
 51128  1  0
 51129  1  0
 52130  1  0
 52131  1  0
 53132  1  0
 53133  1  0
 54134  1  0
 54135  1  0
 55136  1  0
 55137  1  0
 56138  1  0
 56139  1  0
 56140  1  0
M  END
> <Uni-Dock RESULT> 
ENERGY=   -5.748  LOWER_BOUND=    0.000  UPPER_BOUND=    0.000
INTER + INTRA:          -5.748
INTER:                  -5.748
INTRA:                   0.000
UNBOUND:                 0.000

$$$$

     RDKit          3D

140137  0  0  0  0  0  0  0  0999 V2000
   53.4475    9.8770   12.6901 O   0  0  0  0  0  0  0  0  0  0  0  0
   53.4572    8.2287   14.2913 O   0  0  0  0  0  0  0  0  0  0  0  0
   55.9031   10.5625   11.1693 O   0  0  0  0  0  0  0  0  0  0  0  0
   55.1529   13.2043   10.7688 O   0  0  0  0  0  0  0  0  0  0  0  0
   52.9591    8.7709   13.3118 C   0  0  0  0  0  0  0  0  0  0  0  0
   55.3523   11.3246   12.2544 C   0  0  2  0  0  0  0  0  0  0  0  0
   54.6641   10.3929   13.2535 C   0  0  0  0  0  0  0  0  0  0  0  0
   51.6867    8.3140   12.6543 C   0  0  0  0  0  0  0  0  0  0  0  0
   50.5032    9.1261   13.1617 C   0  0  0  0  0  0  0  0  0  0  0  0
   54.4086   12.3856   11.6764 C   0  0  0  0  0  0  0  0  0  0  0  0
   49.1793    8.7607   12.4825 C   0  0  0  0  0  0  0  0  0  0  0  0
   48.6719    7.3698   12.8814 C   0  0  0  0  0  0  0  0  0  0  0  0
   47.3940    6.9510   12.1406 C   0  0  0  0  0  0  0  0  0  0  0  0
   46.1825    7.8408   12.4442 C   0  0  0  0  0  0  0  0  0  0  0  0
   44.8954    7.3625   11.7545 C   0  0  0  0  0  0  0  0  0  0  0  0
   44.3147    6.0901   12.3751 C   0  0  0  0  0  0  0  0  0  0  0  0
   43.0238    5.6751   11.6820 C   0  0  0  0  0  0  0  0  0  0  0  0
   47.5564    8.5482   12.6107 C   0  0  0  0  0  0  0  0  0  0  0  0
   51.4448   11.7861   14.0337 C   0  0  0  0  0  0  0  0  0  0  0  0
   47.7350    9.6190   13.4330 O   0  0  0  0  0  0  0  0  0  0  0  0
   48.1633    8.3729   11.5620 O   0  0  0  0  0  0  0  0  0  0  0  0
   51.7077   10.6141   14.2509 O   0  0  0  0  0  0  0  0  0  0  0  0
   50.1863   12.3102   14.0256 O   0  0  0  0  0  0  0  0  0  0  0  0
   48.7351   10.5851   13.0246 C   0  0  2  0  0  0  0  0  0  0  0  0
   49.1287   11.3727   14.2822 C   0  0  0  0  0  0  0  0  0  0  0  0
   47.9932   10.9030   10.6780 O   0  0  0  0  0  0  0  0  0  0  0  0
   46.5032    7.6210   13.1664 C   0  0  0  0  0  0  0  0  0  0  0  0
   52.4462   12.8868   13.7722 C   0  0  0  0  0  0  0  0  0  0  0  0
   48.1635   11.5275   11.9492 C   0  0  0  0  0  0  0  0  0  0  0  0
   45.5637    7.1479   12.0588 C   0  0  0  0  0  0  0  0  0  0  0  0
   53.8086   12.3590   13.3209 C   0  0  0  0  0  0  0  0  0  0  0  0
   44.8221    3.5651   11.1476 C   0  0  0  0  0  0  0  0  0  0  0  0
   57.1969    9.8933   11.5943 C   0  0  0  0  0  0  0  0  0  0  0  0
   55.8057   10.2441   12.1288 C   0  0  0  0  0  0  0  0  0  0  0  0
   45.5014    4.0076   12.4441 C   0  0  0  0  0  0  0  0  0  0  0  0
   53.7643   11.7719   11.9044 C   0  0  0  0  0  0  0  0  0  0  0  0
   55.1412   11.3881   11.3585 C   0  0  0  0  0  0  0  0  0  0  0  0
   44.3721    6.3355   12.5786 C   0  0  0  0  0  0  0  0  0  0  0  0
   44.7187    5.0187   13.2844 C   0  0  0  0  0  0  0  0  0  0  0  0
   43.4843    2.8797   11.3749 C   0  0  0  0  0  0  0  0  0  0  0  0
   57.1792    9.2393   10.2215 C   0  0  0  0  0  0  0  0  0  0  0  0
   47.0300    8.0295   13.4260 O   0  0  0  0  0  0  0  0  0  0  0  0
   47.0067    8.8732   11.2966 O   0  0  0  0  0  0  0  0  0  0  0  0
   44.1814    5.8871   12.4275 O   0  0  0  0  0  0  0  0  0  0  0  0
   46.3310    4.9738   14.3604 O   0  0  0  0  0  0  0  0  0  0  0  0
   47.5772    8.6788   12.3589 C   0  0  0  0  0  0  0  0  0  0  0  0
   45.5462    6.3210   12.4336 C   0  0  1  0  0  0  0  0  0  0  0  0
   45.6667    7.6086   13.2572 C   0  0  0  0  0  0  0  0  0  0  0  0
   48.9941    9.0864   12.6917 C   0  0  0  0  0  0  0  0  0  0  0  0
   46.4463    5.1850   12.9521 C   0  0  0  0  0  0  0  0  0  0  0  0
   49.6193    9.9278   11.5816 C   0  0  0  0  0  0  0  0  0  0  0  0
   50.9851   10.5085   11.9517 C   0  0  0  0  0  0  0  0  0  0  0  0
   52.0649    9.4443   12.1610 C   0  0  0  0  0  0  0  0  0  0  0  0
   53.4316   10.0212   12.5460 C   0  0  0  0  0  0  0  0  0  0  0  0
   54.0601   10.8892   11.4540 C   0  0  0  0  0  0  0  0  0  0  0  0
   55.4748   11.3083   11.8292 C   0  0  0  0  0  0  0  0  0  0  0  0
   55.9862   11.1843   10.4170 H   0  0  0  0  0  0  0  0  0  0  0  0
   55.6917   13.8070   11.3042 H   0  0  0  0  0  0  0  0  0  0  0  0
   56.2058   11.8096   12.7418 H   0  0  0  0  0  0  0  0  0  0  0  0
   55.3441    9.5732   13.5106 H   0  0  0  0  0  0  0  0  0  0  0  0
   54.4059   10.9483   14.1624 H   0  0  0  0  0  0  0  0  0  0  0  0
   51.7986    8.3994   11.5662 H   0  0  0  0  0  0  0  0  0  0  0  0
   51.5660    7.2490   12.8651 H   0  0  0  0  0  0  0  0  0  0  0  0
   50.4128    9.0108   14.2452 H   0  0  0  0  0  0  0  0  0  0  0  0
   50.6949   10.1937   12.9857 H   0  0  0  0  0  0  0  0  0  0  0  0
   53.6054   11.9297   11.0911 H   0  0  0  0  0  0  0  0  0  0  0  0
   53.9701   13.0175   12.4560 H   0  0  0  0  0  0  0  0  0  0  0  0
   49.2906    8.8304   11.3943 H   0  0  0  0  0  0  0  0  0  0  0  0
   48.4408    9.5144   12.7713 H   0  0  0  0  0  0  0  0  0  0  0  0
   48.4884    7.3390   13.9609 H   0  0  0  0  0  0  0  0  0  0  0  0
   49.4371    6.6162   12.6670 H   0  0  0  0  0  0  0  0  0  0  0  0
   47.1728    5.9196   12.4254 H   0  0  0  0  0  0  0  0  0  0  0  0
   47.5847    6.9466   11.0605 H   0  0  0  0  0  0  0  0  0  0  0  0
   46.3846    8.8607   12.0934 H   0  0  0  0  0  0  0  0  0  0  0  0
   46.0258    7.8964   13.5285 H   0  0  0  0  0  0  0  0  0  0  0  0
   45.0820    7.2138   10.6828 H   0  0  0  0  0  0  0  0  0  0  0  0
   44.1517    8.1633   11.8336 H   0  0  0  0  0  0  0  0  0  0  0  0
   45.0296    5.2640   12.3033 H   0  0  0  0  0  0  0  0  0  0  0  0
   44.1151    6.2621   13.4396 H   0  0  0  0  0  0  0  0  0  0  0  0
   42.5948    4.7978   12.1736 H   0  0  0  0  0  0  0  0  0  0  0  0
   43.2110    5.4212   10.6327 H   0  0  0  0  0  0  0  0  0  0  0  0
   42.2839    6.4847   11.7143 H   0  0  0  0  0  0  0  0  0  0  0  0
   49.6122   10.0571   12.6310 H   0  0  0  0  0  0  0  0  0  0  0  0
   49.3928   10.6987   15.1097 H   0  0  0  0  0  0  0  0  0  0  0  0
   48.2728   11.9523   14.6431 H   0  0  0  0  0  0  0  0  0  0  0  0
   48.2435    9.9549   10.7434 H   0  0  0  0  0  0  0  0  0  0  0  0
   45.9197    8.1552   13.9281 H   0  0  0  0  0  0  0  0  0  0  0  0
   47.0148    6.7849   13.6554 H   0  0  0  0  0  0  0  0  0  0  0  0
   52.0410   13.5643   13.0112 H   0  0  0  0  0  0  0  0  0  0  0  0
   52.5634   13.4482   14.7044 H   0  0  0  0  0  0  0  0  0  0  0  0
   47.1827   11.9033   12.2569 H   0  0  0  0  0  0  0  0  0  0  0  0
   48.8254   12.3828   11.7887 H   0  0  0  0  0  0  0  0  0  0  0  0
   45.1682    8.0258   11.5244 H   0  0  0  0  0  0  0  0  0  0  0  0
   46.1218    6.5701   11.3113 H   0  0  0  0  0  0  0  0  0  0  0  0
   54.1627   11.6010   14.0301 H   0  0  0  0  0  0  0  0  0  0  0  0
   54.5265   13.1873   13.3425 H   0  0  0  0  0  0  0  0  0  0  0  0
   44.6895    4.4114   10.4660 H   0  0  0  0  0  0  0  0  0  0  0  0
   45.4902    2.8587   10.6373 H   0  0  0  0  0  0  0  0  0  0  0  0
   57.6768    9.2034   12.2969 H   0  0  0  0  0  0  0  0  0  0  0  0
   57.8215   10.7921   11.5634 H   0  0  0  0  0  0  0  0  0  0  0  0
   55.1623    9.3557   12.1112 H   0  0  0  0  0  0  0  0  0  0  0  0
   55.9227   10.5322   13.1791 H   0  0  0  0  0  0  0  0  0  0  0  0
   45.6827    3.1187   13.0633 H   0  0  0  0  0  0  0  0  0  0  0  0
   46.4907    4.4150   12.2037 H   0  0  0  0  0  0  0  0  0  0  0  0
   53.1062   10.8936   11.8767 H   0  0  0  0  0  0  0  0  0  0  0  0
   53.3260   12.5121   11.2238 H   0  0  0  0  0  0  0  0  0  0  0  0
   55.7939   12.2703   11.3677 H   0  0  0  0  0  0  0  0  0  0  0  0
   55.0142   11.0949   10.3112 H   0  0  0  0  0  0  0  0  0  0  0  0
   43.6973    6.1255   11.7393 H   0  0  0  0  0  0  0  0  0  0  0  0
   43.7996    6.9557   13.2777 H   0  0  0  0  0  0  0  0  0  0  0  0
   43.7872    4.5558   13.6336 H   0  0  0  0  0  0  0  0  0  0  0  0
   45.2928    5.2365   14.1918 H   0  0  0  0  0  0  0  0  0  0  0  0
   42.7319    3.5709   11.7660 H   0  0  0  0  0  0  0  0  0  0  0  0
   43.1007    2.4736   10.4326 H   0  0  0  0  0  0  0  0  0  0  0  0
   43.5862    2.0471   12.0786 H   0  0  0  0  0  0  0  0  0  0  0  0
   56.5650    8.3354   10.2229 H   0  0  0  0  0  0  0  0  0  0  0  0
   56.8021    9.9187    9.4558 H   0  0  0  0  0  0  0  0  0  0  0  0
   58.1933    8.9538    9.9326 H   0  0  0  0  0  0  0  0  0  0  0  0
   43.6442    6.5983   12.0448 H   0  0  0  0  0  0  0  0  0  0  0  0
   46.7356    5.7352   14.8090 H   0  0  0  0  0  0  0  0  0  0  0  0
   45.8223    6.5021   11.3880 H   0  0  0  0  0  0  0  0  0  0  0  0
   45.2469    7.4593   14.2576 H   0  0  0  0  0  0  0  0  0  0  0  0
   45.0598    8.4149   12.8237 H   0  0  0  0  0  0  0  0  0  0  0  0
   49.5764    8.1694   12.8464 H   0  0  0  0  0  0  0  0  0  0  0  0
   48.9720    9.6671   13.6235 H   0  0  0  0  0  0  0  0  0  0  0  0
   46.1808    4.2429   12.4618 H   0  0  0  0  0  0  0  0  0  0  0  0
   47.4974    5.3974   12.7337 H   0  0  0  0  0  0  0  0  0  0  0  0
   48.9459   10.7646   11.3422 H   0  0  0  0  0  0  0  0  0  0  0  0
   49.7004    9.3309   10.6624 H   0  0  0  0  0  0  0  0  0  0  0  0
   50.8862   11.1179   12.8605 H   0  0  0  0  0  0  0  0  0  0  0  0
   51.2897   11.1862   11.1434 H   0  0  0  0  0  0  0  0  0  0  0  0
   51.7587    8.7613   12.9661 H   0  0  0  0  0  0  0  0  0  0  0  0
   52.1669    8.8366   11.2554 H   0  0  0  0  0  0  0  0  0  0  0  0
   54.0995    9.1817   12.7727 H   0  0  0  0  0  0  0  0  0  0  0  0
   53.3337   10.6062   13.4690 H   0  0  0  0  0  0  0  0  0  0  0  0
   54.0868   10.3369   10.5089 H   0  0  0  0  0  0  0  0  0  0  0  0
   53.4613   11.7923   11.2929 H   0  0  0  0  0  0  0  0  0  0  0  0
   56.1265   10.4331   11.9357 H   0  0  0  0  0  0  0  0  0  0  0  0
   55.8944   11.9489   11.0504 H   0  0  0  0  0  0  0  0  0  0  0  0
   55.4829   11.8664   12.7728 H   0  0  0  0  0  0  0  0  0  0  0  0
  1  5  1  0
  1  7  1  0
  2  5  2  0
  3  6  1  0
  4 10  1  0
  5  8  1  0
  6  7  1  0
  6 10  1  0
  8  9  1  0
  9 11  1  0
 11 12  1  0
 12 13  1  0
 13 14  1  0
 14 15  1  0
 15 16  1  0
 16 17  1  0
 19 23  1  0
 20 18  1  0
 21 18  2  0
 22 19  2  0
 23 25  1  0
 24 20  1  0
 25 24  1  0
 26 29  1  0
 27 18  1  0
 28 19  1  0
 29 24  1  0
 30 27  1  0
 31 28  1  0
 32 35  1  0
 33 34  1  0
 34 37  1  0
 35 39  1  0
 36 31  1  0
 37 36  1  0
 38 30  1  0
 39 38  1  0
 40 32  1  0
 41 33  1  0
 42 46  1  0
 42 48  1  0
 43 46  2  0
 44 47  1  0
 45 50  1  0
 46 49  1  0
 47 48  1  0
 47 50  1  0
 49 51  1  0
 51 52  1  0
 52 53  1  0
 53 54  1  0
 54 55  1  0
 55 56  1  0
  3 57  1  0
  4 58  1  0
  6 59  1  6
  7 60  1  0
  7 61  1  0
  8 62  1  0
  8 63  1  0
  9 64  1  0
  9 65  1  0
 10 66  1  0
 10 67  1  0
 11 68  1  0
 11 69  1  0
 12 70  1  0
 12 71  1  0
 13 72  1  0
 13 73  1  0
 14 74  1  0
 14 75  1  0
 15 76  1  0
 15 77  1  0
 16 78  1  0
 16 79  1  0
 17 80  1  0
 17 81  1  0
 17 82  1  0
 24 83  1  1
 25 84  1  0
 25 85  1  0
 26 86  1  0
 27 87  1  0
 27 88  1  0
 28 89  1  0
 28 90  1  0
 29 91  1  0
 29 92  1  0
 30 93  1  0
 30 94  1  0
 31 95  1  0
 31 96  1  0
 32 97  1  0
 32 98  1  0
 33 99  1  0
 33100  1  0
 34101  1  0
 34102  1  0
 35103  1  0
 35104  1  0
 36105  1  0
 36106  1  0
 37107  1  0
 37108  1  0
 38109  1  0
 38110  1  0
 39111  1  0
 39112  1  0
 40113  1  0
 40114  1  0
 40115  1  0
 41116  1  0
 41117  1  0
 41118  1  0
 44119  1  0
 45120  1  0
 47121  1  1
 48122  1  0
 48123  1  0
 49124  1  0
 49125  1  0
 50126  1  0
 50127  1  0
 51128  1  0
 51129  1  0
 52130  1  0
 52131  1  0
 53132  1  0
 53133  1  0
 54134  1  0
 54135  1  0
 55136  1  0
 55137  1  0
 56138  1  0
 56139  1  0
 56140  1  0
M  END
> <Uni-Dock RESULT> 
ENERGY=   -5.637  LOWER_BOUND=    6.432  UPPER_BOUND=    8.909
INTER + INTRA:          -5.637
INTER:                  -5.637
INTRA:                   0.000
UNBOUND:                 0.000

$$$$

     RDKit          3D

140137  0  0  0  0  0  0  0  0999 V2000
   49.4619   15.2426   14.3478 O   0  0  0  0  0  0  0  0  0  0  0  0
   51.2294   13.9479   13.6547 O   0  0  0  0  0  0  0  0  0  0  0  0
   48.2801   17.3120   12.5775 O   0  0  0  0  0  0  0  0  0  0  0  0
   47.4530   18.9200   14.6831 O   0  0  0  0  0  0  0  0  0  0  0  0
   50.1256   14.0690   14.1727 C   0  0  0  0  0  0  0  0  0  0  0  0
   49.1650   17.5621   13.6802 C   0  0  2  0  0  0  0  0  0  0  0  0
   50.1459   16.3993   13.8399 C   0  0  0  0  0  0  0  0  0  0  0  0
   49.3334   12.9245   14.7407 C   0  0  0  0  0  0  0  0  0  0  0  0
   49.5456   12.8241   16.2449 C   0  0  0  0  0  0  0  0  0  0  0  0
   48.3218   17.8114   14.9362 C   0  0  0  0  0  0  0  0  0  0  0  0
   48.7131   11.7195   16.9039 C   0  0  0  0  0  0  0  0  0  0  0  0
   49.1894   10.3120   16.5257 C   0  0  0  0  0  0  0  0  0  0  0  0
   48.3102    9.1944   17.1046 C   0  0  0  0  0  0  0  0  0  0  0  0
   48.3089    9.1386   18.6371 C   0  0  0  0  0  0  0  0  0  0  0  0
   47.4854    7.9684   19.1969 C   0  0  0  0  0  0  0  0  0  0  0  0
   48.1531    6.6071   18.9912 C   0  0  0  0  0  0  0  0  0  0  0  0
   47.3181    5.4841   19.5919 C   0  0  0  0  0  0  0  0  0  0  0  0
   48.6061   10.5450   18.0461 C   0  0  0  0  0  0  0  0  0  0  0  0
   50.2325   15.4897   17.3153 C   0  0  0  0  0  0  0  0  0  0  0  0
   49.3125   11.4913   18.7246 O   0  0  0  0  0  0  0  0  0  0  0  0
   47.6957   10.7897   17.2649 O   0  0  0  0  0  0  0  0  0  0  0  0
   50.6270   14.7327   16.4428 O   0  0  0  0  0  0  0  0  0  0  0  0
   49.9619   15.1196   18.5992 O   0  0  0  0  0  0  0  0  0  0  0  0
   48.9560   12.8716   18.4639 C   0  0  2  0  0  0  0  0  0  0  0  0
   50.1570   13.7269   18.8913 C   0  0  0  0  0  0  0  0  0  0  0  0
   46.5003   12.6726   18.7608 O   0  0  0  0  0  0  0  0  0  0  0  0
   49.0939    9.1615   18.4005 C   0  0  0  0  0  0  0  0  0  0  0  0
   50.0041   16.9756   17.1648 C   0  0  0  0  0  0  0  0  0  0  0  0
   47.6987   13.2613   19.2630 C   0  0  0  0  0  0  0  0  0  0  0  0
   47.9155    8.2133   18.6137 C   0  0  0  0  0  0  0  0  0  0  0  0
   49.8413   17.4096   15.7076 C   0  0  0  0  0  0  0  0  0  0  0  0
   47.3321    4.9484   16.8198 C   0  0  0  0  0  0  0  0  0  0  0  0
   48.9822   17.5881   11.2611 C   0  0  0  0  0  0  0  0  0  0  0  0
   49.2429   16.9969   12.6491 C   0  0  0  0  0  0  0  0  0  0  0  0
   48.6580    5.7103   16.8254 C   0  0  0  0  0  0  0  0  0  0  0  0
   48.5161   16.9292   15.1025 C   0  0  0  0  0  0  0  0  0  0  0  0
   48.2458   17.4856   13.7030 C   0  0  0  0  0  0  0  0  0  0  0  0
   48.3324    6.8341   19.1371 C   0  0  0  0  0  0  0  0  0  0  0  0
   49.2363    6.0130   18.2092 C   0  0  0  0  0  0  0  0  0  0  0  0
   47.4240    3.5796   17.4748 C   0  0  0  0  0  0  0  0  0  0  0  0
   47.7120   17.0714   10.6035 C   0  0  0  0  0  0  0  0  0  0  0  0
   49.3833    9.8074   18.2964 O   0  0  0  0  0  0  0  0  0  0  0  0
   47.1920   10.4656   18.4050 O   0  0  0  0  0  0  0  0  0  0  0  0
   48.2076    6.3649   18.9803 O   0  0  0  0  0  0  0  0  0  0  0  0
   50.5526    6.9727   17.1577 O   0  0  0  0  0  0  0  0  0  0  0  0
   48.3470   10.6617   18.0596 C   0  0  0  0  0  0  0  0  0  0  0  0
   48.3787    7.5521   18.1979 C   0  0  1  0  0  0  0  0  0  0  0  0
   49.0513    8.6322   19.0533 C   0  0  0  0  0  0  0  0  0  0  0  0
   48.8498   11.8589   17.2861 C   0  0  0  0  0  0  0  0  0  0  0  0
   49.1656    7.2173   16.9180 C   0  0  0  0  0  0  0  0  0  0  0  0
   47.7608   12.9124   17.0979 C   0  0  0  0  0  0  0  0  0  0  0  0
   48.2714   14.2134   16.4763 C   0  0  0  0  0  0  0  0  0  0  0  0
   48.7752   14.0481   15.0407 C   0  0  0  0  0  0  0  0  0  0  0  0
   49.3009   15.3466   14.4192 C   0  0  0  0  0  0  0  0  0  0  0  0
   48.2271   16.4229   14.2482 C   0  0  0  0  0  0  0  0  0  0  0  0
   48.7697   17.6276   13.4918 C   0  0  0  0  0  0  0  0  0  0  0  0
   47.4818   17.8551   12.7430 H   0  0  0  0  0  0  0  0  0  0  0  0
   47.9914   19.7242   14.7428 H   0  0  0  0  0  0  0  0  0  0  0  0
   49.7205   18.4696   13.4172 H   0  0  0  0  0  0  0  0  0  0  0  0
   50.6038   16.1772   12.8695 H   0  0  0  0  0  0  0  0  0  0  0  0
   50.9294   16.6698   14.5570 H   0  0  0  0  0  0  0  0  0  0  0  0
   48.2746   13.0665   14.4906 H   0  0  0  0  0  0  0  0  0  0  0  0
   49.6479   12.0135   14.2267 H   0  0  0  0  0  0  0  0  0  0  0  0
   50.6068   12.6720   16.4594 H   0  0  0  0  0  0  0  0  0  0  0  0
   49.2761   13.7811   16.7130 H   0  0  0  0  0  0  0  0  0  0  0  0
   47.6749   16.9585   15.1590 H   0  0  0  0  0  0  0  0  0  0  0  0
   48.9408   18.0306   15.8127 H   0  0  0  0  0  0  0  0  0  0  0  0
   47.6560   11.8489   16.6447 H   0  0  0  0  0  0  0  0  0  0  0  0
   48.7887   11.8507   17.9874 H   0  0  0  0  0  0  0  0  0  0  0  0
   50.2218   10.1683   16.8623 H   0  0  0  0  0  0  0  0  0  0  0  0
   49.1908   10.1971   15.4366 H   0  0  0  0  0  0  0  0  0  0  0  0
   48.6772    8.2469   16.7028 H   0  0  0  0  0  0  0  0  0  0  0  0
   47.2824    9.3149   16.7408 H   0  0  0  0  0  0  0  0  0  0  0  0
   47.8755   10.0656   19.0333 H   0  0  0  0  0  0  0  0  0  0  0  0
   49.3400    9.0794   19.0067 H   0  0  0  0  0  0  0  0  0  0  0  0
   46.4825    7.9732   18.7502 H   0  0  0  0  0  0  0  0  0  0  0  0
   47.3491    8.1343   20.2715 H   0  0  0  0  0  0  0  0  0  0  0  0
   48.2950    6.4034   17.9249 H   0  0  0  0  0  0  0  0  0  0  0  0
   49.1441    6.6126   19.4608 H   0  0  0  0  0  0  0  0  0  0  0  0
   47.8364    4.5274   19.4847 H   0  0  0  0  0  0  0  0  0  0  0  0
   46.3499    5.4067   19.0850 H   0  0  0  0  0  0  0  0  0  0  0  0
   47.1356    5.6595   20.6596 H   0  0  0  0  0  0  0  0  0  0  0  0
   48.7727   13.0040   17.3906 H   0  0  0  0  0  0  0  0  0  0  0  0
   51.0905   13.3580   18.4425 H   0  0  0  0  0  0  0  0  0  0  0  0
   50.3056   13.6483   19.9732 H   0  0  0  0  0  0  0  0  0  0  0  0
   46.7174   12.0842   18.0041 H   0  0  0  0  0  0  0  0  0  0  0  0
   49.6839    9.2143   19.3252 H   0  0  0  0  0  0  0  0  0  0  0  0
   49.7543    8.8209   17.5956 H   0  0  0  0  0  0  0  0  0  0  0  0
   49.1129   17.2593   17.7373 H   0  0  0  0  0  0  0  0  0  0  0  0
   50.8693   17.4837   17.6020 H   0  0  0  0  0  0  0  0  0  0  0  0
   47.7995   12.9457   20.3062 H   0  0  0  0  0  0  0  0  0  0  0  0
   47.5446   14.3436   19.2438 H   0  0  0  0  0  0  0  0  0  0  0  0
   47.2240    8.6589   19.3458 H   0  0  0  0  0  0  0  0  0  0  0  0
   47.3406    8.1104   17.6846 H   0  0  0  0  0  0  0  0  0  0  0  0
   50.6831   17.0314   15.1149 H   0  0  0  0  0  0  0  0  0  0  0  0
   49.8778   18.5045   15.6651 H   0  0  0  0  0  0  0  0  0  0  0  0
   46.5421    5.5333   17.3017 H   0  0  0  0  0  0  0  0  0  0  0  0
   47.0226    4.8119   15.7752 H   0  0  0  0  0  0  0  0  0  0  0  0
   49.8293   17.3413   10.6120 H   0  0  0  0  0  0  0  0  0  0  0  0
   48.9439   18.6806   11.3227 H   0  0  0  0  0  0  0  0  0  0  0  0
   49.2295   15.9011   12.5986 H   0  0  0  0  0  0  0  0  0  0  0  0
   50.2565   17.2900   12.9435 H   0  0  0  0  0  0  0  0  0  0  0  0
   49.3997    5.1226   16.2679 H   0  0  0  0  0  0  0  0  0  0  0  0
   48.5310    6.6450   16.2662 H   0  0  0  0  0  0  0  0  0  0  0  0
   48.4892   15.8322   15.0673 H   0  0  0  0  0  0  0  0  0  0  0  0
   47.6911   17.2411   15.7546 H   0  0  0  0  0  0  0  0  0  0  0  0
   48.2534   18.5823   13.7410 H   0  0  0  0  0  0  0  0  0  0  0  0
   47.2343   17.1823   13.4139 H   0  0  0  0  0  0  0  0  0  0  0  0
   47.4276    6.2550   19.3605 H   0  0  0  0  0  0  0  0  0  0  0  0
   48.8525    6.9614   20.0933 H   0  0  0  0  0  0  0  0  0  0  0  0
   49.4857    5.0702   18.7119 H   0  0  0  0  0  0  0  0  0  0  0  0
   50.1909    6.5353   18.0814 H   0  0  0  0  0  0  0  0  0  0  0  0
   47.6052    3.6527   18.5512 H   0  0  0  0  0  0  0  0  0  0  0  0
   46.4880    3.0280   17.3348 H   0  0  0  0  0  0  0  0  0  0  0  0
   48.2293    2.9864   17.0293 H   0  0  0  0  0  0  0  0  0  0  0  0
   47.7236   15.9815   10.5249 H   0  0  0  0  0  0  0  0  0  0  0  0
   46.8206   17.3740   11.1547 H   0  0  0  0  0  0  0  0  0  0  0  0
   47.6241   17.4784    9.5935 H   0  0  0  0  0  0  0  0  0  0  0  0
   47.6622    6.5912   19.7500 H   0  0  0  0  0  0  0  0  0  0  0  0
   50.9657    7.8186   17.3999 H   0  0  0  0  0  0  0  0  0  0  0  0
   47.3762    7.8709   17.8885 H   0  0  0  0  0  0  0  0  0  0  0  0
   49.9828    8.2494   19.4835 H   0  0  0  0  0  0  0  0  0  0  0  0
   48.4338    8.8900   19.9242 H   0  0  0  0  0  0  0  0  0  0  0  0
   49.2034   11.5005   16.3112 H   0  0  0  0  0  0  0  0  0  0  0  0
   49.6902   12.2956   17.8419 H   0  0  0  0  0  0  0  0  0  0  0  0
   48.7552    6.3163   16.4506 H   0  0  0  0  0  0  0  0  0  0  0  0
   49.0932    8.0372   16.1969 H   0  0  0  0  0  0  0  0  0  0  0  0
   47.3193   13.1519   18.0770 H   0  0  0  0  0  0  0  0  0  0  0  0
   46.9442   12.4995   16.4894 H   0  0  0  0  0  0  0  0  0  0  0  0
   49.0736   14.6252   17.1041 H   0  0  0  0  0  0  0  0  0  0  0  0
   47.4467   14.9381   16.4946 H   0  0  0  0  0  0  0  0  0  0  0  0
   49.5971   13.3183   15.0199 H   0  0  0  0  0  0  0  0  0  0  0  0
   47.9765   13.6396   14.4123 H   0  0  0  0  0  0  0  0  0  0  0  0
   49.7295   15.1017   13.4401 H   0  0  0  0  0  0  0  0  0  0  0  0
   50.1202   15.7397   15.0341 H   0  0  0  0  0  0  0  0  0  0  0  0
   47.3710   16.0114   13.7036 H   0  0  0  0  0  0  0  0  0  0  0  0
   47.8662   16.7603   15.2260 H   0  0  0  0  0  0  0  0  0  0  0  0
   49.0821   17.3452   12.4795 H   0  0  0  0  0  0  0  0  0  0  0  0
   47.9967   18.3944   13.4050 H   0  0  0  0  0  0  0  0  0  0  0  0
   49.6291   18.0653   14.0130 H   0  0  0  0  0  0  0  0  0  0  0  0
  1  5  1  0
  1  7  1  0
  2  5  2  0
  3  6  1  0
  4 10  1  0
  5  8  1  0
  6  7  1  0
  6 10  1  0
  8  9  1  0
  9 11  1  0
 11 12  1  0
 12 13  1  0
 13 14  1  0
 14 15  1  0
 15 16  1  0
 16 17  1  0
 19 23  1  0
 20 18  1  0
 21 18  2  0
 22 19  2  0
 23 25  1  0
 24 20  1  0
 25 24  1  0
 26 29  1  0
 27 18  1  0
 28 19  1  0
 29 24  1  0
 30 27  1  0
 31 28  1  0
 32 35  1  0
 33 34  1  0
 34 37  1  0
 35 39  1  0
 36 31  1  0
 37 36  1  0
 38 30  1  0
 39 38  1  0
 40 32  1  0
 41 33  1  0
 42 46  1  0
 42 48  1  0
 43 46  2  0
 44 47  1  0
 45 50  1  0
 46 49  1  0
 47 48  1  0
 47 50  1  0
 49 51  1  0
 51 52  1  0
 52 53  1  0
 53 54  1  0
 54 55  1  0
 55 56  1  0
  3 57  1  0
  4 58  1  0
  6 59  1  6
  7 60  1  0
  7 61  1  0
  8 62  1  0
  8 63  1  0
  9 64  1  0
  9 65  1  0
 10 66  1  0
 10 67  1  0
 11 68  1  0
 11 69  1  0
 12 70  1  0
 12 71  1  0
 13 72  1  0
 13 73  1  0
 14 74  1  0
 14 75  1  0
 15 76  1  0
 15 77  1  0
 16 78  1  0
 16 79  1  0
 17 80  1  0
 17 81  1  0
 17 82  1  0
 24 83  1  1
 25 84  1  0
 25 85  1  0
 26 86  1  0
 27 87  1  0
 27 88  1  0
 28 89  1  0
 28 90  1  0
 29 91  1  0
 29 92  1  0
 30 93  1  0
 30 94  1  0
 31 95  1  0
 31 96  1  0
 32 97  1  0
 32 98  1  0
 33 99  1  0
 33100  1  0
 34101  1  0
 34102  1  0
 35103  1  0
 35104  1  0
 36105  1  0
 36106  1  0
 37107  1  0
 37108  1  0
 38109  1  0
 38110  1  0
 39111  1  0
 39112  1  0
 40113  1  0
 40114  1  0
 40115  1  0
 41116  1  0
 41117  1  0
 41118  1  0
 44119  1  0
 45120  1  0
 47121  1  1
 48122  1  0
 48123  1  0
 49124  1  0
 49125  1  0
 50126  1  0
 50127  1  0
 51128  1  0
 51129  1  0
 52130  1  0
 52131  1  0
 53132  1  0
 53133  1  0
 54134  1  0
 54135  1  0
 55136  1  0
 55137  1  0
 56138  1  0
 56139  1  0
 56140  1  0
M  END
> <Uni-Dock RESULT> 
ENERGY=   -5.277  LOWER_BOUND=    3.119  UPPER_BOUND=    5.974
INTER + INTRA:          -5.277
INTER:                  -5.277
INTRA:                   0.000
UNBOUND:                 0.000

$$$$

     RDKit          3D

140137  0  0  0  0  0  0  0  0999 V2000
   49.0053    9.2463   17.6135 O   0  0  0  0  0  0  0  0  0  0  0  0
   50.6978   10.8003   17.5818 O   0  0  0  0  0  0  0  0  0  0  0  0
   47.6342    8.5123   20.1422 O   0  0  0  0  0  0  0  0  0  0  0  0
   47.0226    5.9418   19.2929 O   0  0  0  0  0  0  0  0  0  0  0  0
   49.6534   10.3414   17.1347 C   0  0  0  0  0  0  0  0  0  0  0  0
   48.6280    7.7226   19.4709 C   0  0  2  0  0  0  0  0  0  0  0  0
   49.6264    8.6339   18.7549 C   0  0  0  0  0  0  0  0  0  0  0  0
   48.9310   10.9031   15.9420 C   0  0  0  0  0  0  0  0  0  0  0  0
   49.2993   10.1304   14.6831 C   0  0  0  0  0  0  0  0  0  0  0  0
   47.9190    6.7487   18.5225 C   0  0  0  0  0  0  0  0  0  0  0  0
   48.5461   10.6050   13.4362 C   0  0  0  0  0  0  0  0  0  0  0  0
   48.9878   11.9974   12.9702 C   0  0  0  0  0  0  0  0  0  0  0  0
   48.1798   12.5260   11.7766 C   0  0  0  0  0  0  0  0  0  0  0  0
   48.3386   11.6887   10.5017 C   0  0  0  0  0  0  0  0  0  0  0  0
   47.5843   12.2744    9.2980 C   0  0  0  0  0  0  0  0  0  0  0  0
   48.2342   13.5404    8.7358 C   0  0  0  0  0  0  0  0  0  0  0  0
   47.4725   14.0634    7.5253 C   0  0  0  0  0  0  0  0  0  0  0  0
   48.5650   10.8988   11.8210 C   0  0  0  0  0  0  0  0  0  0  0  0
   50.0797    7.3785   15.4185 C   0  0  0  0  0  0  0  0  0  0  0  0
   49.3332    9.7759   11.8808 O   0  0  0  0  0  0  0  0  0  0  0  0
   47.5768   11.0984   12.5157 O   0  0  0  0  0  0  0  0  0  0  0  0
   50.3852    8.5205   15.7226 O   0  0  0  0  0  0  0  0  0  0  0  0
   49.9465    6.9255   14.1396 O   0  0  0  0  0  0  0  0  0  0  0  0
   48.9440    8.7804   12.8596 C   0  0  2  0  0  0  0  0  0  0  0  0
   50.1785    7.9040   13.1139 C   0  0  0  0  0  0  0  0  0  0  0  0
   46.5338    8.6342   12.2873 O   0  0  0  0  0  0  0  0  0  0  0  0
   49.0945   11.8502   10.7760 C   0  0  0  0  0  0  0  0  0  0  0  0
   49.8288    6.2406   16.3804 C   0  0  0  0  0  0  0  0  0  0  0  0
   47.7748    7.9319   12.3265 C   0  0  0  0  0  0  0  0  0  0  0  0
   47.9499   12.4348    9.9505 C   0  0  0  0  0  0  0  0  0  0  0  0
   49.5127    6.7170   17.7986 C   0  0  0  0  0  0  0  0  0  0  0  0
   47.2003   16.0979    9.4640 C   0  0  0  0  0  0  0  0  0  0  0  0
   48.1938    9.0848   21.4311 C   0  0  0  0  0  0  0  0  0  0  0  0
   48.6010    8.7819   19.9866 C   0  0  0  0  0  0  0  0  0  0  0  0
   48.5154   15.5476   10.0171 C   0  0  0  0  0  0  0  0  0  0  0  0
   48.1343    7.3832   17.8943 C   0  0  0  0  0  0  0  0  0  0  0  0
   47.7166    7.7205   19.3271 C   0  0  0  0  0  0  0  0  0  0  0  0
   48.4265   13.2813    8.7647 C   0  0  0  0  0  0  0  0  0  0  0  0
   49.2332   14.5360    9.1214 C   0  0  0  0  0  0  0  0  0  0  0  0
   47.3673   16.8420    8.1489 C   0  0  0  0  0  0  0  0  0  0  0  0
   46.8648    9.8139   21.5532 C   0  0  0  0  0  0  0  0  0  0  0  0
   49.3680   11.3996   11.2597 O   0  0  0  0  0  0  0  0  0  0  0  0
   47.1965   10.6777   11.3595 O   0  0  0  0  0  0  0  0  0  0  0  0
   48.2885   13.7472    8.6093 O   0  0  0  0  0  0  0  0  0  0  0  0
   50.4275   14.4327   10.6453 O   0  0  0  0  0  0  0  0  0  0  0  0
   48.3081   10.7814   11.8547 C   0  0  0  0  0  0  0  0  0  0  0  0
   48.3708   13.2394    9.9458 C   0  0  1  0  0  0  0  0  0  0  0  0
   49.1231   11.9035    9.9366 C   0  0  0  0  0  0  0  0  0  0  0  0
   48.7211   10.2788   13.2191 C   0  0  0  0  0  0  0  0  0  0  0  0
   49.0217   14.2937   10.8590 C   0  0  0  0  0  0  0  0  0  0  0  0
   47.6128    9.4671   13.8854 C   0  0  0  0  0  0  0  0  0  0  0  0
   48.0487    8.7928   15.1872 C   0  0  0  0  0  0  0  0  0  0  0  0
   48.4010    9.7828   16.2999 C   0  0  0  0  0  0  0  0  0  0  0  0
   48.8521    9.1113   17.6016 C   0  0  0  0  0  0  0  0  0  0  0  0
   47.7605    8.2719   18.2685 C   0  0  0  0  0  0  0  0  0  0  0  0
   48.2148    7.7557   19.6267 C   0  0  0  0  0  0  0  0  0  0  0  0
   46.8546    7.9294   20.2520 H   0  0  0  0  0  0  0  0  0  0  0  0
   47.5599    5.2817   19.7573 H   0  0  0  0  0  0  0  0  0  0  0  0
   49.1481    7.1652   20.2583 H   0  0  0  0  0  0  0  0  0  0  0  0
   49.9818    9.3996   19.4535 H   0  0  0  0  0  0  0  0  0  0  0  0
   50.4789    8.0441   18.3991 H   0  0  0  0  0  0  0  0  0  0  0  0
   47.8511   10.8721   16.1337 H   0  0  0  0  0  0  0  0  0  0  0  0
   49.1950   11.9598   15.8592 H   0  0  0  0  0  0  0  0  0  0  0  0
   50.3779   10.1903   14.5146 H   0  0  0  0  0  0  0  0  0  0  0  0
   49.0750    9.0653   14.8337 H   0  0  0  0  0  0  0  0  0  0  0  0
   47.3034    7.2797   17.7914 H   0  0  0  0  0  0  0  0  0  0  0  0
   48.6247    6.0996   17.9934 H   0  0  0  0  0  0  0  0  0  0  0  0
   47.4670   10.5896   13.6281 H   0  0  0  0  0  0  0  0  0  0  0  0
   48.7335    9.8781   12.6404 H   0  0  0  0  0  0  0  0  0  0  0  0
   50.0505   11.9784   12.7051 H   0  0  0  0  0  0  0  0  0  0  0  0
   48.8763   12.7185   13.7868 H   0  0  0  0  0  0  0  0  0  0  0  0
   48.5080   13.5507   11.5863 H   0  0  0  0  0  0  0  0  0  0  0  0
   47.1191   12.5798   12.0507 H   0  0  0  0  0  0  0  0  0  0  0  0
   47.9439   10.6802   10.6788 H   0  0  0  0  0  0  0  0  0  0  0  0
   49.4029   11.5817   10.2586 H   0  0  0  0  0  0  0  0  0  0  0  0
   46.5402   12.4717    9.5746 H   0  0  0  0  0  0  0  0  0  0  0  0
   47.5598   11.5124    8.5109 H   0  0  0  0  0  0  0  0  0  0  0  0
   48.2653   14.3287    9.4949 H   0  0  0  0  0  0  0  0  0  0  0  0
   49.2687   13.3209    8.4456 H   0  0  0  0  0  0  0  0  0  0  0  0
   47.9819   14.9344    7.1042 H   0  0  0  0  0  0  0  0  0  0  0  0
   46.4571   14.3643    7.8062 H   0  0  0  0  0  0  0  0  0  0  0  0
   47.4013   13.2951    6.7452 H   0  0  0  0  0  0  0  0  0  0  0  0
   48.6491    9.2805   13.7902 H   0  0  0  0  0  0  0  0  0  0  0  0
   51.0620    8.5156   13.3465 H   0  0  0  0  0  0  0  0  0  0  0  0
   50.4394    7.3531   12.2043 H   0  0  0  0  0  0  0  0  0  0  0  0
   46.6740    9.5621   12.5794 H   0  0  0  0  0  0  0  0  0  0  0  0
   49.7774   11.3075   10.1088 H   0  0  0  0  0  0  0  0  0  0  0  0
   49.6692   12.6286   11.2896 H   0  0  0  0  0  0  0  0  0  0  0  0
   49.0008    5.6296   16.0018 H   0  0  0  0  0  0  0  0  0  0  0  0
   50.7322    5.6228   16.3962 H   0  0  0  0  0  0  0  0  0  0  0  0
   47.9855    7.5940   11.3070 H   0  0  0  0  0  0  0  0  0  0  0  0
   47.6137    7.0518   12.9549 H   0  0  0  0  0  0  0  0  0  0  0  0
   47.3361   11.6109    9.5540 H   0  0  0  0  0  0  0  0  0  0  0  0
   47.2818   13.0216   10.5936 H   0  0  0  0  0  0  0  0  0  0  0  0
   50.2902    7.4140   18.1344 H   0  0  0  0  0  0  0  0  0  0  0  0
   49.5387    5.8506   18.4699 H   0  0  0  0  0  0  0  0  0  0  0  0
   46.4616   15.2992    9.3422 H   0  0  0  0  0  0  0  0  0  0  0  0
   46.7842   16.7937   10.2046 H   0  0  0  0  0  0  0  0  0  0  0  0
   48.9700    9.7074   21.8892 H   0  0  0  0  0  0  0  0  0  0  0  0
   48.1563    8.1562   22.0100 H   0  0  0  0  0  0  0  0  0  0  0  0
   48.5882    9.7039   19.3923 H   0  0  0  0  0  0  0  0  0  0  0  0
   49.6382    8.4300   20.0069 H   0  0  0  0  0  0  0  0  0  0  0  0
   49.1980   16.3895   10.1944 H   0  0  0  0  0  0  0  0  0  0  0  0
   48.3258   15.1004   11.0004 H   0  0  0  0  0  0  0  0  0  0  0  0
   48.1097    8.2965   17.2856 H   0  0  0  0  0  0  0  0  0  0  0  0
   47.3801    6.7070   17.4735 H   0  0  0  0  0  0  0  0  0  0  0  0
   47.7221    6.8047   19.9317 H   0  0  0  0  0  0  0  0  0  0  0  0
   46.6820    8.0778   19.2969 H   0  0  0  0  0  0  0  0  0  0  0  0
   47.5531   13.5742    8.1687 H   0  0  0  0  0  0  0  0  0  0  0  0
   49.0427   12.6557    8.1090 H   0  0  0  0  0  0  0  0  0  0  0  0
   49.5387   15.0292    8.1902 H   0  0  0  0  0  0  0  0  0  0  0  0
   50.1664   14.2371    9.6115 H   0  0  0  0  0  0  0  0  0  0  0  0
   47.6593   16.1725    7.3344 H   0  0  0  0  0  0  0  0  0  0  0  0
   46.4248   17.3201    7.8607 H   0  0  0  0  0  0  0  0  0  0  0  0
   48.1249   17.6275    8.2377 H   0  0  0  0  0  0  0  0  0  0  0  0
   46.8739   10.7486   20.9873 H   0  0  0  0  0  0  0  0  0  0  0  0
   46.0340    9.1997   21.2030 H   0  0  0  0  0  0  0  0  0  0  0  0
   46.6699   10.0588   22.5999 H   0  0  0  0  0  0  0  0  0  0  0  0
   47.8252   13.0888    8.0682 H   0  0  0  0  0  0  0  0  0  0  0  0
   50.8591   13.6265   10.9749 H   0  0  0  0  0  0  0  0  0  0  0  0
   47.3398   13.1015   10.2928 H   0  0  0  0  0  0  0  0  0  0  0  0
   50.0964   12.0199    9.4484 H   0  0  0  0  0  0  0  0  0  0  0  0
   48.5984   11.1570    9.3254 H   0  0  0  0  0  0  0  0  0  0  0  0
   48.9730   11.1525   13.8331 H   0  0  0  0  0  0  0  0  0  0  0  0
   49.6125    9.6495   13.0952 H   0  0  0  0  0  0  0  0  0  0  0  0
   48.5698   15.2747   10.6804 H   0  0  0  0  0  0  0  0  0  0  0  0
   48.8702   14.0364   11.9118 H   0  0  0  0  0  0  0  0  0  0  0  0
   47.2744    8.6831   13.1913 H   0  0  0  0  0  0  0  0  0  0  0  0
   46.7393   10.1087   14.0678 H   0  0  0  0  0  0  0  0  0  0  0  0
   48.9098    8.1403   14.9873 H   0  0  0  0  0  0  0  0  0  0  0  0
   47.2266    8.1451   15.5191 H   0  0  0  0  0  0  0  0  0  0  0  0
   49.2202   10.4359   15.9668 H   0  0  0  0  0  0  0  0  0  0  0  0
   47.5433   10.4332   16.5025 H   0  0  0  0  0  0  0  0  0  0  0  0
   49.1776    9.8991   18.2914 H   0  0  0  0  0  0  0  0  0  0  0  0
   49.7288    8.4823   17.4027 H   0  0  0  0  0  0  0  0  0  0  0  0
   46.8546    8.8734   18.3964 H   0  0  0  0  0  0  0  0  0  0  0  0
   47.5017    7.4134   17.6391 H   0  0  0  0  0  0  0  0  0  0  0  0
   48.4215    8.5866   20.3115 H   0  0  0  0  0  0  0  0  0  0  0  0
   47.4329    7.1371   20.0727 H   0  0  0  0  0  0  0  0  0  0  0  0
   49.1215    7.1466   19.5332 H   0  0  0  0  0  0  0  0  0  0  0  0
  1  5  1  0
  1  7  1  0
  2  5  2  0
  3  6  1  0
  4 10  1  0
  5  8  1  0
  6  7  1  0
  6 10  1  0
  8  9  1  0
  9 11  1  0
 11 12  1  0
 12 13  1  0
 13 14  1  0
 14 15  1  0
 15 16  1  0
 16 17  1  0
 19 23  1  0
 20 18  1  0
 21 18  2  0
 22 19  2  0
 23 25  1  0
 24 20  1  0
 25 24  1  0
 26 29  1  0
 27 18  1  0
 28 19  1  0
 29 24  1  0
 30 27  1  0
 31 28  1  0
 32 35  1  0
 33 34  1  0
 34 37  1  0
 35 39  1  0
 36 31  1  0
 37 36  1  0
 38 30  1  0
 39 38  1  0
 40 32  1  0
 41 33  1  0
 42 46  1  0
 42 48  1  0
 43 46  2  0
 44 47  1  0
 45 50  1  0
 46 49  1  0
 47 48  1  0
 47 50  1  0
 49 51  1  0
 51 52  1  0
 52 53  1  0
 53 54  1  0
 54 55  1  0
 55 56  1  0
  3 57  1  0
  4 58  1  0
  6 59  1  6
  7 60  1  0
  7 61  1  0
  8 62  1  0
  8 63  1  0
  9 64  1  0
  9 65  1  0
 10 66  1  0
 10 67  1  0
 11 68  1  0
 11 69  1  0
 12 70  1  0
 12 71  1  0
 13 72  1  0
 13 73  1  0
 14 74  1  0
 14 75  1  0
 15 76  1  0
 15 77  1  0
 16 78  1  0
 16 79  1  0
 17 80  1  0
 17 81  1  0
 17 82  1  0
 24 83  1  1
 25 84  1  0
 25 85  1  0
 26 86  1  0
 27 87  1  0
 27 88  1  0
 28 89  1  0
 28 90  1  0
 29 91  1  0
 29 92  1  0
 30 93  1  0
 30 94  1  0
 31 95  1  0
 31 96  1  0
 32 97  1  0
 32 98  1  0
 33 99  1  0
 33100  1  0
 34101  1  0
 34102  1  0
 35103  1  0
 35104  1  0
 36105  1  0
 36106  1  0
 37107  1  0
 37108  1  0
 38109  1  0
 38110  1  0
 39111  1  0
 39112  1  0
 40113  1  0
 40114  1  0
 40115  1  0
 41116  1  0
 41117  1  0
 41118  1  0
 44119  1  0
 45120  1  0
 47121  1  1
 48122  1  0
 48123  1  0
 49124  1  0
 49125  1  0
 50126  1  0
 50127  1  0
 51128  1  0
 51129  1  0
 52130  1  0
 52131  1  0
 53132  1  0
 53133  1  0
 54134  1  0
 54135  1  0
 55136  1  0
 55137  1  0
 56138  1  0
 56139  1  0
 56140  1  0
M  END
> <Uni-Dock RESULT> 
ENERGY=   -5.223  LOWER_BOUND=    5.103  UPPER_BOUND=    9.624
INTER + INTRA:          -5.223
INTER:                  -5.223
INTRA:                   0.000
UNBOUND:                 0.000

$$$$

     RDKit          3D

140137  0  0  0  0  0  0  0  0999 V2000
   53.4204    7.5072    8.9171 O   0  0  0  0  0  0  0  0  0  0  0  0
   51.4017    7.1947    9.9697 O   0  0  0  0  0  0  0  0  0  0  0  0
   53.6020    8.9510    6.3295 O   0  0  0  0  0  0  0  0  0  0  0  0
   55.8583    7.5682    5.4931 O   0  0  0  0  0  0  0  0  0  0  0  0
   52.5827    7.5208    9.9879 C   0  0  0  0  0  0  0  0  0  0  0  0
   53.6748    7.5270    6.4987 C   0  0  2  0  0  0  0  0  0  0  0  0
   52.8099    7.0945    7.6840 C   0  0  0  0  0  0  0  0  0  0  0  0
   53.3148    7.9588   11.2257 C   0  0  0  0  0  0  0  0  0  0  0  0
   54.0791    6.7911   11.8341 C   0  0  0  0  0  0  0  0  0  0  0  0
   55.1471    7.1285    6.6545 C   0  0  0  0  0  0  0  0  0  0  0  0
   54.9064    7.1806   13.0634 C   0  0  0  0  0  0  0  0  0  0  0  0
   54.0372    7.5246   14.2788 C   0  0  0  0  0  0  0  0  0  0  0  0
   54.8470    8.0045   15.4917 C   0  0  0  0  0  0  0  0  0  0  0  0
   55.7987    6.9446   16.0595 C   0  0  0  0  0  0  0  0  0  0  0  0
   56.5443    7.4159   17.3176 C   0  0  0  0  0  0  0  0  0  0  0  0
   55.6480    7.5005   18.5548 C   0  0  0  0  0  0  0  0  0  0  0  0
   56.4370    7.9376   19.7818 C   0  0  0  0  0  0  0  0  0  0  0  0
   55.4762    6.7745   14.5486 C   0  0  0  0  0  0  0  0  0  0  0  0
   54.7490    4.8494    9.7119 C   0  0  0  0  0  0  0  0  0  0  0  0
   55.5525    5.5723   13.9133 O   0  0  0  0  0  0  0  0  0  0  0  0
   55.7201    7.8520   14.0211 O   0  0  0  0  0  0  0  0  0  0  0  0
   53.7574    5.4136   10.1458 O   0  0  0  0  0  0  0  0  0  0  0  0
   55.6869    4.2277   10.4816 O   0  0  0  0  0  0  0  0  0  0  0  0
   55.9251    5.6060   12.5131 C   0  0  2  0  0  0  0  0  0  0  0  0
   55.4532    4.2812   11.8978 C   0  0  0  0  0  0  0  0  0  0  0  0
   57.9250    7.0625   12.7068 O   0  0  0  0  0  0  0  0  0  0  0  0
   55.0627    6.5898   15.9882 C   0  0  0  0  0  0  0  0  0  0  0  0
   55.1147    4.6925    8.2543 C   0  0  0  0  0  0  0  0  0  0  0  0
   57.4503    5.7608   12.3674 C   0  0  0  0  0  0  0  0  0  0  0  0
   55.9014    7.4757   16.9074 C   0  0  0  0  0  0  0  0  0  0  0  0
   54.4072    5.7022    7.3497 C   0  0  0  0  0  0  0  0  0  0  0  0
   54.5835   10.0240   19.3541 C   0  0  0  0  0  0  0  0  0  0  0  0
   52.2999    9.3387    5.6538 C   0  0  0  0  0  0  0  0  0  0  0  0
   52.8596    8.3570    6.6867 C   0  0  0  0  0  0  0  0  0  0  0  0
   53.7346    8.9394   18.6896 C   0  0  0  0  0  0  0  0  0  0  0  0
   54.9340    7.1292    7.5479 C   0  0  0  0  0  0  0  0  0  0  0  0
   54.3675    8.1348    6.5434 C   0  0  0  0  0  0  0  0  0  0  0  0
   55.6483    7.2175   18.3970 C   0  0  0  0  0  0  0  0  0  0  0  0
   54.2253    7.5045   18.8921 C   0  0  0  0  0  0  0  0  0  0  0  0
   54.6599    9.8835   20.8659 C   0  0  0  0  0  0  0  0  0  0  0  0
   52.7453   10.7765    5.8705 C   0  0  0  0  0  0  0  0  0  0  0  0
   54.9042    6.2939   15.3565 O   0  0  0  0  0  0  0  0  0  0  0  0
   56.7525    7.4715   14.6902 O   0  0  0  0  0  0  0  0  0  0  0  0
   55.5532    7.5396   18.7811 O   0  0  0  0  0  0  0  0  0  0  0  0
   52.7587    7.1137   17.6855 O   0  0  0  0  0  0  0  0  0  0  0  0
   55.7027    6.9025   14.4336 C   0  0  0  0  0  0  0  0  0  0  0  0
   55.1631    7.6475   17.4074 C   0  0  1  0  0  0  0  0  0  0  0  0
   55.4018    6.3061   16.7043 C   0  0  0  0  0  0  0  0  0  0  0  0
   55.0701    6.7839   13.0660 C   0  0  0  0  0  0  0  0  0  0  0  0
   53.7018    8.1235   17.3219 C   0  0  0  0  0  0  0  0  0  0  0  0
   55.9774    7.3376   11.9699 C   0  0  0  0  0  0  0  0  0  0  0  0
   55.4544    7.0783   10.5561 C   0  0  0  0  0  0  0  0  0  0  0  0
   54.1417    7.8023   10.2481 C   0  0  0  0  0  0  0  0  0  0  0  0
   53.6068    7.5338    8.8372 C   0  0  0  0  0  0  0  0  0  0  0  0
   54.5179    8.0591    7.7260 C   0  0  0  0  0  0  0  0  0  0  0  0
   53.8674    7.9003    6.3587 C   0  0  0  0  0  0  0  0  0  0  0  0
   54.4130    9.2074    5.8437 H   0  0  0  0  0  0  0  0  0  0  0  0
   55.6455    6.9501    4.7769 H   0  0  0  0  0  0  0  0  0  0  0  0
   53.2667    7.0957    5.5775 H   0  0  0  0  0  0  0  0  0  0  0  0
   51.8127    7.5375    7.5840 H   0  0  0  0  0  0  0  0  0  0  0  0
   52.7214    6.0023    7.7004 H   0  0  0  0  0  0  0  0  0  0  0  0
   53.9839    8.7892   10.9676 H   0  0  0  0  0  0  0  0  0  0  0  0
   52.5786    8.3664   11.9221 H   0  0  0  0  0  0  0  0  0  0  0  0
   53.3838    5.9870   12.0898 H   0  0  0  0  0  0  0  0  0  0  0  0
   54.7613    6.3735   11.0807 H   0  0  0  0  0  0  0  0  0  0  0  0
   55.6095    7.6328    7.5073 H   0  0  0  0  0  0  0  0  0  0  0  0
   55.2727    6.0463    6.7665 H   0  0  0  0  0  0  0  0  0  0  0  0
   55.5661    8.0197   12.8143 H   0  0  0  0  0  0  0  0  0  0  0  0
   55.5546    6.3337   13.3072 H   0  0  0  0  0  0  0  0  0  0  0  0
   53.4419    6.6513   14.5665 H   0  0  0  0  0  0  0  0  0  0  0  0
   53.3306    8.3205   14.0207 H   0  0  0  0  0  0  0  0  0  0  0  0
   54.1346    8.3090   16.2622 H   0  0  0  0  0  0  0  0  0  0  0  0
   55.4172    8.9003   15.2169 H   0  0  0  0  0  0  0  0  0  0  0  0
   56.5538    6.6932   15.3040 H   0  0  0  0  0  0  0  0  0  0  0  0
   55.2415    6.0255   16.2788 H   0  0  0  0  0  0  0  0  0  0  0  0
   57.0214    8.3858   17.1247 H   0  0  0  0  0  0  0  0  0  0  0  0
   57.3535    6.7046   17.5176 H   0  0  0  0  0  0  0  0  0  0  0  0
   54.8325    8.2129   18.3933 H   0  0  0  0  0  0  0  0  0  0  0  0
   55.1963    6.5195   18.7453 H   0  0  0  0  0  0  0  0  0  0  0  0
   55.7935    7.9386   20.6657 H   0  0  0  0  0  0  0  0  0  0  0  0
   56.8343    8.9498   19.6473 H   0  0  0  0  0  0  0  0  0  0  0  0
   57.2786    7.2588   19.9688 H   0  0  0  0  0  0  0  0  0  0  0  0
   55.4157    6.4432   12.0207 H   0  0  0  0  0  0  0  0  0  0  0  0
   54.3961    4.0868   12.1295 H   0  0  0  0  0  0  0  0  0  0  0  0
   56.0048    3.4457   12.3413 H   0  0  0  0  0  0  0  0  0  0  0  0
   57.1725    7.6149   13.0143 H   0  0  0  0  0  0  0  0  0  0  0  0
   55.2081    5.5389   16.2720 H   0  0  0  0  0  0  0  0  0  0  0  0
   53.9936    6.8166   16.0632 H   0  0  0  0  0  0  0  0  0  0  0  0
   56.2010    4.7958    8.1460 H   0  0  0  0  0  0  0  0  0  0  0  0
   54.8349    3.6772    7.9562 H   0  0  0  0  0  0  0  0  0  0  0  0
   57.9676    5.0497   13.0190 H   0  0  0  0  0  0  0  0  0  0  0  0
   57.7641    5.5750   11.3366 H   0  0  0  0  0  0  0  0  0  0  0  0
   56.9686    7.2911   16.7079 H   0  0  0  0  0  0  0  0  0  0  0  0
   55.7322    8.5336   16.6698 H   0  0  0  0  0  0  0  0  0  0  0  0
   53.3272    5.6715    7.5384 H   0  0  0  0  0  0  0  0  0  0  0  0
   54.5652    5.4042    6.3065 H   0  0  0  0  0  0  0  0  0  0  0  0
   55.5949   10.0412   18.9357 H   0  0  0  0  0  0  0  0  0  0  0  0
   54.1350   10.9984   19.1195 H   0  0  0  0  0  0  0  0  0  0  0  0
   51.2060    9.3077    5.7000 H   0  0  0  0  0  0  0  0  0  0  0  0
   52.5791    9.0173    4.6451 H   0  0  0  0  0  0  0  0  0  0  0  0
   52.6258    8.7054    7.7004 H   0  0  0  0  0  0  0  0  0  0  0  0
   52.3367    7.4044    6.5485 H   0  0  0  0  0  0  0  0  0  0  0  0
   52.7116    9.0079   19.0833 H   0  0  0  0  0  0  0  0  0  0  0  0
   53.6605    9.1561   17.6171 H   0  0  0  0  0  0  0  0  0  0  0  0
   54.7197    7.4759    8.5673 H   0  0  0  0  0  0  0  0  0  0  0  0
   56.0258    7.1255    7.4423 H   0  0  0  0  0  0  0  0  0  0  0  0
   54.5982    7.7988    5.5245 H   0  0  0  0  0  0  0  0  0  0  0  0
   54.8903    9.0852    6.6931 H   0  0  0  0  0  0  0  0  0  0  0  0
   56.3586    7.8144   18.9827 H   0  0  0  0  0  0  0  0  0  0  0  0
   55.8806    6.1697   18.6186 H   0  0  0  0  0  0  0  0  0  0  0  0
   54.1699    7.2496   19.9578 H   0  0  0  0  0  0  0  0  0  0  0  0
   53.5263    6.8235   18.3939 H   0  0  0  0  0  0  0  0  0  0  0  0
   55.2128    8.9885   21.1660 H   0  0  0  0  0  0  0  0  0  0  0  0
   55.1711   10.7486   21.3022 H   0  0  0  0  0  0  0  0  0  0  0  0
   53.6582    9.8332   21.3050 H   0  0  0  0  0  0  0  0  0  0  0  0
   52.4760   11.1266    6.8701 H   0  0  0  0  0  0  0  0  0  0  0  0
   53.8220   10.8898    5.7372 H   0  0  0  0  0  0  0  0  0  0  0  0
   52.2567   11.4305    5.1445 H   0  0  0  0  0  0  0  0  0  0  0  0
   56.4912    7.2938   18.8062 H   0  0  0  0  0  0  0  0  0  0  0  0
   52.7630    6.4381   16.9867 H   0  0  0  0  0  0  0  0  0  0  0  0
   55.7868    8.4335   16.9652 H   0  0  0  0  0  0  0  0  0  0  0  0
   54.8950    5.4995   17.2445 H   0  0  0  0  0  0  0  0  0  0  0  0
   56.4639    6.0277   16.7310 H   0  0  0  0  0  0  0  0  0  0  0  0
   54.1223    7.3362   13.0889 H   0  0  0  0  0  0  0  0  0  0  0  0
   54.8696    5.7214   12.8739 H   0  0  0  0  0  0  0  0  0  0  0  0
   53.5435    8.9708   17.9969 H   0  0  0  0  0  0  0  0  0  0  0  0
   53.4628    8.4498   16.3051 H   0  0  0  0  0  0  0  0  0  0  0  0
   56.9711    6.8729   12.0570 H   0  0  0  0  0  0  0  0  0  0  0  0
   56.1315    8.4149   12.1227 H   0  0  0  0  0  0  0  0  0  0  0  0
   55.3230    5.9973   10.4103 H   0  0  0  0  0  0  0  0  0  0  0  0
   56.2282    7.4050    9.8489 H   0  0  0  0  0  0  0  0  0  0  0  0
   53.3674    7.4806   10.9590 H   0  0  0  0  0  0  0  0  0  0  0  0
   54.2707    8.8805   10.3908 H   0  0  0  0  0  0  0  0  0  0  0  0
   52.6217    8.0084    8.7547 H   0  0  0  0  0  0  0  0  0  0  0  0
   53.4509    6.4557    8.7052 H   0  0  0  0  0  0  0  0  0  0  0  0
   54.7421    9.1170    7.8975 H   0  0  0  0  0  0  0  0  0  0  0  0
   55.4689    7.5153    7.7236 H   0  0  0  0  0  0  0  0  0  0  0  0
   52.9420    8.4848    6.2959 H   0  0  0  0  0  0  0  0  0  0  0  0
   54.5445    8.2552    5.5786 H   0  0  0  0  0  0  0  0  0  0  0  0
   53.6311    6.8494    6.1548 H   0  0  0  0  0  0  0  0  0  0  0  0
  1  5  1  0
  1  7  1  0
  2  5  2  0
  3  6  1  0
  4 10  1  0
  5  8  1  0
  6  7  1  0
  6 10  1  0
  8  9  1  0
  9 11  1  0
 11 12  1  0
 12 13  1  0
 13 14  1  0
 14 15  1  0
 15 16  1  0
 16 17  1  0
 19 23  1  0
 20 18  1  0
 21 18  2  0
 22 19  2  0
 23 25  1  0
 24 20  1  0
 25 24  1  0
 26 29  1  0
 27 18  1  0
 28 19  1  0
 29 24  1  0
 30 27  1  0
 31 28  1  0
 32 35  1  0
 33 34  1  0
 34 37  1  0
 35 39  1  0
 36 31  1  0
 37 36  1  0
 38 30  1  0
 39 38  1  0
 40 32  1  0
 41 33  1  0
 42 46  1  0
 42 48  1  0
 43 46  2  0
 44 47  1  0
 45 50  1  0
 46 49  1  0
 47 48  1  0
 47 50  1  0
 49 51  1  0
 51 52  1  0
 52 53  1  0
 53 54  1  0
 54 55  1  0
 55 56  1  0
  3 57  1  0
  4 58  1  0
  6 59  1  6
  7 60  1  0
  7 61  1  0
  8 62  1  0
  8 63  1  0
  9 64  1  0
  9 65  1  0
 10 66  1  0
 10 67  1  0
 11 68  1  0
 11 69  1  0
 12 70  1  0
 12 71  1  0
 13 72  1  0
 13 73  1  0
 14 74  1  0
 14 75  1  0
 15 76  1  0
 15 77  1  0
 16 78  1  0
 16 79  1  0
 17 80  1  0
 17 81  1  0
 17 82  1  0
 24 83  1  1
 25 84  1  0
 25 85  1  0
 26 86  1  0
 27 87  1  0
 27 88  1  0
 28 89  1  0
 28 90  1  0
 29 91  1  0
 29 92  1  0
 30 93  1  0
 30 94  1  0
 31 95  1  0
 31 96  1  0
 32 97  1  0
 32 98  1  0
 33 99  1  0
 33100  1  0
 34101  1  0
 34102  1  0
 35103  1  0
 35104  1  0
 36105  1  0
 36106  1  0
 37107  1  0
 37108  1  0
 38109  1  0
 38110  1  0
 39111  1  0
 39112  1  0
 40113  1  0
 40114  1  0
 40115  1  0
 41116  1  0
 41117  1  0
 41118  1  0
 44119  1  0
 45120  1  0
 47121  1  1
 48122  1  0
 48123  1  0
 49124  1  0
 49125  1  0
 50126  1  0
 50127  1  0
 51128  1  0
 51129  1  0
 52130  1  0
 52131  1  0
 53132  1  0
 53133  1  0
 54134  1  0
 54135  1  0
 55136  1  0
 55137  1  0
 56138  1  0
 56139  1  0
 56140  1  0
M  END
> <Uni-Dock RESULT> 
ENERGY=   -5.116  LOWER_BOUND=    7.496  UPPER_BOUND=   10.074
INTER + INTRA:          -5.116
INTER:                  -5.116
INTRA:                   0.000
UNBOUND:                 0.000

$$$$

     RDKit          3D

140137  0  0  0  0  0  0  0  0999 V2000
   49.0998    7.7800   16.2745 O   0  0  0  0  0  0  0  0  0  0  0  0
   47.5280    9.3840   16.7619 O   0  0  0  0  0  0  0  0  0  0  0  0
   48.9109    5.0427   17.4078 O   0  0  0  0  0  0  0  0  0  0  0  0
   51.6543    4.6248   17.3654 O   0  0  0  0  0  0  0  0  0  0  0  0
   48.2236    8.7711   15.9606 C   0  0  0  0  0  0  0  0  0  0  0  0
   49.8012    6.0746   17.8598 C   0  0  2  0  0  0  0  0  0  0  0  0
   49.1526    7.4470   17.6709 C   0  0  0  0  0  0  0  0  0  0  0  0
   48.2469    9.0484   14.4833 C   0  0  0  0  0  0  0  0  0  0  0  0
   49.4124    9.9623   14.1308 C   0  0  0  0  0  0  0  0  0  0  0  0
   51.1323    5.9330   17.1123 C   0  0  0  0  0  0  0  0  0  0  0  0
   49.5397   10.2332   12.6283 C   0  0  0  0  0  0  0  0  0  0  0  0
   48.4063   11.1119   12.0856 C   0  0  0  0  0  0  0  0  0  0  0  0
   48.4685   11.3179   10.5655 C   0  0  0  0  0  0  0  0  0  0  0  0
   49.7194   12.0686   10.0930 C   0  0  0  0  0  0  0  0  0  0  0  0
   49.7282   12.3325    8.5793 C   0  0  0  0  0  0  0  0  0  0  0  0
   48.7282   13.4073    8.1478 C   0  0  0  0  0  0  0  0  0  0  0  0
   48.7977   13.6582    6.6473 C   0  0  0  0  0  0  0  0  0  0  0  0
   49.9027   11.2908   11.4260 C   0  0  0  0  0  0  0  0  0  0  0  0
   51.5664    9.6112   16.1207 C   0  0  0  0  0  0  0  0  0  0  0  0
   50.8328   11.6406   12.3573 O   0  0  0  0  0  0  0  0  0  0  0  0
   49.5425   10.1415   11.2064 O   0  0  0  0  0  0  0  0  0  0  0  0
   50.3731    9.8677   16.1106 O   0  0  0  0  0  0  0  0  0  0  0  0
   52.4953   10.2098   15.3223 O   0  0  0  0  0  0  0  0  0  0  0  0
   51.3968   10.5605   13.1420 C   0  0  2  0  0  0  0  0  0  0  0  0
   51.9803   11.1946   14.4124 C   0  0  0  0  0  0  0  0  0  0  0  0
   51.9865    9.0307   11.2791 O   0  0  0  0  0  0  0  0  0  0  0  0
   49.3915   12.5114   10.7006 C   0  0  0  0  0  0  0  0  0  0  0  0
   52.2541    8.6219   17.0324 C   0  0  0  0  0  0  0  0  0  0  0  0
   52.4944    9.8335   12.3433 C   0  0  0  0  0  0  0  0  0  0  0  0
   49.2904   12.2432    9.2002 C   0  0  0  0  0  0  0  0  0  0  0  0
   51.2922    7.5966   17.6340 C   0  0  0  0  0  0  0  0  0  0  0  0
   46.2022   12.6314    7.0720 C   0  0  0  0  0  0  0  0  0  0  0  0
   47.8278    4.7877   18.4393 C   0  0  0  0  0  0  0  0  0  0  0  0
   48.6324    5.9306   17.8148 C   0  0  0  0  0  0  0  0  0  0  0  0
   46.3623   13.2038    8.4809 C   0  0  0  0  0  0  0  0  0  0  0  0
   50.7776    6.5990   16.5885 C   0  0  0  0  0  0  0  0  0  0  0  0
   49.9471    5.4613   17.1861 C   0  0  0  0  0  0  0  0  0  0  0  0
   48.9354   13.4902    8.3825 C   0  0  0  0  0  0  0  0  0  0  0  0
   47.5702   14.1205    8.6846 C   0  0  0  0  0  0  0  0  0  0  0  0
   46.0213   13.7010    6.0069 C   0  0  0  0  0  0  0  0  0  0  0  0
   47.2405    3.8233   17.4205 C   0  0  0  0  0  0  0  0  0  0  0  0
   49.5876   12.3435   11.3677 O   0  0  0  0  0  0  0  0  0  0  0  0
   50.4174   10.4807   10.3244 O   0  0  0  0  0  0  0  0  0  0  0  0
   48.5834   13.5642    8.0207 O   0  0  0  0  0  0  0  0  0  0  0  0
   46.9522   14.0867   10.5221 O   0  0  0  0  0  0  0  0  0  0  0  0
   50.0215   11.0512   11.3292 C   0  0  0  0  0  0  0  0  0  0  0  0
   48.5158   12.7162    9.1728 C   0  0  1  0  0  0  0  0  0  0  0  0
   49.6693   13.0573   10.1235 C   0  0  0  0  0  0  0  0  0  0  0  0
   49.9064   10.4415   12.7075 C   0  0  0  0  0  0  0  0  0  0  0  0
   47.1305   12.8493    9.8305 C   0  0  0  0  0  0  0  0  0  0  0  0
   50.4940    9.0331   12.7570 C   0  0  0  0  0  0  0  0  0  0  0  0
   50.5583    8.4482   14.1689 C   0  0  0  0  0  0  0  0  0  0  0  0
   49.1823    8.2176   14.7979 C   0  0  0  0  0  0  0  0  0  0  0  0
   49.2426    7.6449   16.2181 C   0  0  0  0  0  0  0  0  0  0  0  0
   49.8537    6.2440   16.2887 C   0  0  0  0  0  0  0  0  0  0  0  0
   49.7495    5.6674   17.6938 C   0  0  0  0  0  0  0  0  0  0  0  0
   49.4759    4.2697   17.2007 H   0  0  0  0  0  0  0  0  0  0  0  0
   52.0244    4.6335   18.2615 H   0  0  0  0  0  0  0  0  0  0  0  0
   49.9523    5.8908   18.9297 H   0  0  0  0  0  0  0  0  0  0  0  0
   48.1440    7.4317   18.0987 H   0  0  0  0  0  0  0  0  0  0  0  0
   49.7499    8.2133   18.1780 H   0  0  0  0  0  0  0  0  0  0  0  0
   48.3037    8.0947   13.9437 H   0  0  0  0  0  0  0  0  0  0  0  0
   47.2874    9.4946   14.2123 H   0  0  0  0  0  0  0  0  0  0  0  0
   49.3201   10.9060   14.6752 H   0  0  0  0  0  0  0  0  0  0  0  0
   50.3492    9.5037   14.4765 H   0  0  0  0  0  0  0  0  0  0  0  0
   50.9925    6.0042   16.0302 H   0  0  0  0  0  0  0  0  0  0  0  0
   51.8659    6.6819   17.4292 H   0  0  0  0  0  0  0  0  0  0  0  0
   49.5820    9.2829   12.0836 H   0  0  0  0  0  0  0  0  0  0  0  0
   50.4989   10.7327   12.4627 H   0  0  0  0  0  0  0  0  0  0  0  0
   48.4256   12.0882   12.5821 H   0  0  0  0  0  0  0  0  0  0  0  0
   47.4369   10.6571   12.3155 H   0  0  0  0  0  0  0  0  0  0  0  0
   47.5742   11.8734   10.2728 H   0  0  0  0  0  0  0  0  0  0  0  0
   48.4136   10.3440   10.0640 H   0  0  0  0  0  0  0  0  0  0  0  0
   50.6104   11.4731   10.3287 H   0  0  0  0  0  0  0  0  0  0  0  0
   49.8104   13.0167   10.6372 H   0  0  0  0  0  0  0  0  0  0  0  0
   49.5394   11.3960    8.0383 H   0  0  0  0  0  0  0  0  0  0  0  0
   50.7364   12.6573    8.2985 H   0  0  0  0  0  0  0  0  0  0  0  0
   47.7063   13.1096    8.4040 H   0  0  0  0  0  0  0  0  0  0  0  0
   48.9436   14.3407    8.6814 H   0  0  0  0  0  0  0  0  0  0  0  0
   48.1173   14.4665    6.3663 H   0  0  0  0  0  0  0  0  0  0  0  0
   48.5098   12.7599    6.0899 H   0  0  0  0  0  0  0  0  0  0  0  0
   49.8135   13.9415    6.3441 H   0  0  0  0  0  0  0  0  0  0  0  0
   50.6026    9.8546   13.4138 H   0  0  0  0  0  0  0  0  0  0  0  0
   51.2447   11.8430   14.9098 H   0  0  0  0  0  0  0  0  0  0  0  0
   52.8160   11.8523   14.1518 H   0  0  0  0  0  0  0  0  0  0  0  0
   51.0096    9.1285   11.2335 H   0  0  0  0  0  0  0  0  0  0  0  0
   50.0841   13.3466   10.8699 H   0  0  0  0  0  0  0  0  0  0  0  0
   48.4228   12.7805   11.1355 H   0  0  0  0  0  0  0  0  0  0  0  0
   53.0411    8.1057   16.4698 H   0  0  0  0  0  0  0  0  0  0  0  0
   52.7263    9.1945   17.8368 H   0  0  0  0  0  0  0  0  0  0  0  0
   53.1833   10.5585   11.8987 H   0  0  0  0  0  0  0  0  0  0  0  0
   53.0686    9.1644   12.9900 H   0  0  0  0  0  0  0  0  0  0  0  0
   50.2586   11.8641    8.8374 H   0  0  0  0  0  0  0  0  0  0  0  0
   48.5654   11.4422    9.0077 H   0  0  0  0  0  0  0  0  0  0  0  0
   50.4483    8.1157   18.1043 H   0  0  0  0  0  0  0  0  0  0  0  0
   51.8190    7.0476   18.4234 H   0  0  0  0  0  0  0  0  0  0  0  0
   47.0516   11.9925    6.8097 H   0  0  0  0  0  0  0  0  0  0  0  0
   45.3151   11.9843    7.0664 H   0  0  0  0  0  0  0  0  0  0  0  0
   47.0040    5.2173   19.0196 H   0  0  0  0  0  0  0  0  0  0  0  0
   48.4537    4.2352   19.1477 H   0  0  0  0  0  0  0  0  0  0  0  0
   48.0234    6.4528   17.0664 H   0  0  0  0  0  0  0  0  0  0  0  0
   48.8468    6.6519   18.6109 H   0  0  0  0  0  0  0  0  0  0  0  0
   45.4571   13.7735    8.7303 H   0  0  0  0  0  0  0  0  0  0  0  0
   46.4039   12.3742    9.1969 H   0  0  0  0  0  0  0  0  0  0  0  0
   50.1832    7.1192   15.8260 H   0  0  0  0  0  0  0  0  0  0  0  0
   51.6337    6.1536   16.0670 H   0  0  0  0  0  0  0  0  0  0  0  0
   50.5472    4.9285   17.9346 H   0  0  0  0  0  0  0  0  0  0  0  0
   49.7314    4.7492   16.3829 H   0  0  0  0  0  0  0  0  0  0  0  0
   48.9851   13.2369    7.3161 H   0  0  0  0  0  0  0  0  0  0  0  0
   49.7058   14.2521    8.5475 H   0  0  0  0  0  0  0  0  0  0  0  0
   47.4550   15.0158    8.0608 H   0  0  0  0  0  0  0  0  0  0  0  0
   47.5618   14.4837    9.7182 H   0  0  0  0  0  0  0  0  0  0  0  0
   46.9253   14.3027    5.8740 H   0  0  0  0  0  0  0  0  0  0  0  0
   45.7875   13.2396    5.0413 H   0  0  0  0  0  0  0  0  0  0  0  0
   45.1952   14.3722    6.2633 H   0  0  0  0  0  0  0  0  0  0  0  0
   46.6065    4.3473   16.7010 H   0  0  0  0  0  0  0  0  0  0  0  0
   48.0195    3.2872   16.8768 H   0  0  0  0  0  0  0  0  0  0  0  0
   46.6245    3.0768   17.9273 H   0  0  0  0  0  0  0  0  0  0  0  0
   49.4425   13.4195    7.5941 H   0  0  0  0  0  0  0  0  0  0  0  0
   47.5190   14.0700   11.3116 H   0  0  0  0  0  0  0  0  0  0  0  0
   48.6047   11.6856    8.8092 H   0  0  0  0  0  0  0  0  0  0  0  0
   49.6608   14.1262   10.3616 H   0  0  0  0  0  0  0  0  0  0  0  0
   50.6423   12.8924    9.6417 H   0  0  0  0  0  0  0  0  0  0  0  0
   48.8421   10.4181   12.9730 H   0  0  0  0  0  0  0  0  0  0  0  0
   50.4451   11.0884   13.4126 H   0  0  0  0  0  0  0  0  0  0  0  0
   46.3465   12.7897    9.0687 H   0  0  0  0  0  0  0  0  0  0  0  0
   46.9674   12.0409   10.5499 H   0  0  0  0  0  0  0  0  0  0  0  0
   51.5160    9.0555   12.3496 H   0  0  0  0  0  0  0  0  0  0  0  0
   49.9194    8.3664   12.0990 H   0  0  0  0  0  0  0  0  0  0  0  0
   51.1510    9.1142   14.8110 H   0  0  0  0  0  0  0  0  0  0  0  0
   51.0995    7.4946   14.1106 H   0  0  0  0  0  0  0  0  0  0  0  0
   48.6369    9.1706   14.8515 H   0  0  0  0  0  0  0  0  0  0  0  0
   48.5902    7.5522   14.1605 H   0  0  0  0  0  0  0  0  0  0  0  0
   48.2201    7.6161   16.6131 H   0  0  0  0  0  0  0  0  0  0  0  0
   49.8119    8.3266   16.8625 H   0  0  0  0  0  0  0  0  0  0  0  0
   49.3403    5.5783   15.5872 H   0  0  0  0  0  0  0  0  0  0  0  0
   50.9108    6.2743   16.0029 H   0  0  0  0  0  0  0  0  0  0  0  0
   48.7009    5.5580   17.9947 H   0  0  0  0  0  0  0  0  0  0  0  0
   50.2155    4.6802   17.7288 H   0  0  0  0  0  0  0  0  0  0  0  0
   50.2563    6.3112   18.4221 H   0  0  0  0  0  0  0  0  0  0  0  0
  1  5  1  0
  1  7  1  0
  2  5  2  0
  3  6  1  0
  4 10  1  0
  5  8  1  0
  6  7  1  0
  6 10  1  0
  8  9  1  0
  9 11  1  0
 11 12  1  0
 12 13  1  0
 13 14  1  0
 14 15  1  0
 15 16  1  0
 16 17  1  0
 19 23  1  0
 20 18  1  0
 21 18  2  0
 22 19  2  0
 23 25  1  0
 24 20  1  0
 25 24  1  0
 26 29  1  0
 27 18  1  0
 28 19  1  0
 29 24  1  0
 30 27  1  0
 31 28  1  0
 32 35  1  0
 33 34  1  0
 34 37  1  0
 35 39  1  0
 36 31  1  0
 37 36  1  0
 38 30  1  0
 39 38  1  0
 40 32  1  0
 41 33  1  0
 42 46  1  0
 42 48  1  0
 43 46  2  0
 44 47  1  0
 45 50  1  0
 46 49  1  0
 47 48  1  0
 47 50  1  0
 49 51  1  0
 51 52  1  0
 52 53  1  0
 53 54  1  0
 54 55  1  0
 55 56  1  0
  3 57  1  0
  4 58  1  0
  6 59  1  6
  7 60  1  0
  7 61  1  0
  8 62  1  0
  8 63  1  0
  9 64  1  0
  9 65  1  0
 10 66  1  0
 10 67  1  0
 11 68  1  0
 11 69  1  0
 12 70  1  0
 12 71  1  0
 13 72  1  0
 13 73  1  0
 14 74  1  0
 14 75  1  0
 15 76  1  0
 15 77  1  0
 16 78  1  0
 16 79  1  0
 17 80  1  0
 17 81  1  0
 17 82  1  0
 24 83  1  1
 25 84  1  0
 25 85  1  0
 26 86  1  0
 27 87  1  0
 27 88  1  0
 28 89  1  0
 28 90  1  0
 29 91  1  0
 29 92  1  0
 30 93  1  0
 30 94  1  0
 31 95  1  0
 31 96  1  0
 32 97  1  0
 32 98  1  0
 33 99  1  0
 33100  1  0
 34101  1  0
 34102  1  0
 35103  1  0
 35104  1  0
 36105  1  0
 36106  1  0
 37107  1  0
 37108  1  0
 38109  1  0
 38110  1  0
 39111  1  0
 39112  1  0
 40113  1  0
 40114  1  0
 40115  1  0
 41116  1  0
 41117  1  0
 41118  1  0
 44119  1  0
 45120  1  0
 47121  1  1
 48122  1  0
 48123  1  0
 49124  1  0
 49125  1  0
 50126  1  0
 50127  1  0
 51128  1  0
 51129  1  0
 52130  1  0
 52131  1  0
 53132  1  0
 53133  1  0
 54134  1  0
 54135  1  0
 55136  1  0
 55137  1  0
 56138  1  0
 56139  1  0
 56140  1  0
M  END
> <Uni-Dock RESULT> 
ENERGY=   -5.024  LOWER_BOUND=    5.760  UPPER_BOUND=   10.296
INTER + INTRA:          -5.024
INTER:                  -5.024
INTRA:                   0.000
UNBOUND:                 0.000

$$$$

     RDKit          3D

140137  0  0  0  0  0  0  0  0999 V2000
   41.8527   11.5644   10.8631 O   0  0  0  0  0  0  0  0  0  0  0  0
   42.0940    9.3121   10.4763 O   0  0  0  0  0  0  0  0  0  0  0  0
   39.2734   12.7002   11.7960 O   0  0  0  0  0  0  0  0  0  0  0  0
   39.7092   15.1717   10.6109 O   0  0  0  0  0  0  0  0  0  0  0  0
   42.4866   10.3657   10.9631 C   0  0  0  0  0  0  0  0  0  0  0  0
   39.7826   12.7736   10.4554 C   0  0  2  0  0  0  0  0  0  0  0  0
   40.6119   11.5274   10.1402 C   0  0  0  0  0  0  0  0  0  0  0  0
   43.7723   10.5105   11.7286 C   0  0  0  0  0  0  0  0  0  0  0  0
   44.8795   11.0241   10.8186 C   0  0  0  0  0  0  0  0  0  0  0  0
   40.5777   14.0760   10.3058 C   0  0  0  0  0  0  0  0  0  0  0  0
   46.2053   11.2617   11.5487 C   0  0  0  0  0  0  0  0  0  0  0  0
   46.8800    9.9584   11.9930 C   0  0  0  0  0  0  0  0  0  0  0  0
   48.1634   10.1820   12.8053 C   0  0  0  0  0  0  0  0  0  0  0  0
   49.2810   10.8773   12.0187 C   0  0  0  0  0  0  0  0  0  0  0  0
   50.5823   11.0245   12.8224 C   0  0  0  0  0  0  0  0  0  0  0  0
   51.3262    9.7012   13.0148 C   0  0  0  0  0  0  0  0  0  0  0  0
   52.6242    9.9024   13.7855 C   0  0  0  0  0  0  0  0  0  0  0  0
   47.8458   11.2029   11.5189 C   0  0  0  0  0  0  0  0  0  0  0  0
   43.6879   12.5966    8.6209 C   0  0  0  0  0  0  0  0  0  0  0  0
   47.5853   11.5930   10.2403 O   0  0  0  0  0  0  0  0  0  0  0  0
   47.2176   11.5819   12.4990 O   0  0  0  0  0  0  0  0  0  0  0  0
   43.5657   11.4859    9.1121 O   0  0  0  0  0  0  0  0  0  0  0  0
   44.8792   13.1746    8.2966 O   0  0  0  0  0  0  0  0  0  0  0  0
   46.4679   12.4977   10.0577 C   0  0  2  0  0  0  0  0  0  0  0  0
   46.0440   12.3857    8.5865 C   0  0  0  0  0  0  0  0  0  0  0  0
   47.0689   14.1683   11.7915 O   0  0  0  0  0  0  0  0  0  0  0  0
   49.0178   10.2529   11.5566 C   0  0  0  0  0  0  0  0  0  0  0  0
   42.5606   13.5282    8.2411 C   0  0  0  0  0  0  0  0  0  0  0  0
   46.8853   13.9410   10.3952 C   0  0  0  0  0  0  0  0  0  0  0  0
   49.9556   10.6002   12.7113 C   0  0  0  0  0  0  0  0  0  0  0  0
   41.2469   13.1947    8.9490 C   0  0  0  0  0  0  0  0  0  0  0  0
   51.0489    8.2726   15.4688 C   0  0  0  0  0  0  0  0  0  0  0  0
   38.0810   11.7641   11.8597 C   0  0  0  0  0  0  0  0  0  0  0  0
   39.4465   11.9093   11.1826 C   0  0  0  0  0  0  0  0  0  0  0  0
   50.3810    7.8236   14.1685 C   0  0  0  0  0  0  0  0  0  0  0  0
   41.2950   13.5200   10.4473 C   0  0  0  0  0  0  0  0  0  0  0  0
   39.9468   13.3559   11.1521 C   0  0  0  0  0  0  0  0  0  0  0  0
   51.2507    9.7803   12.7098 C   0  0  0  0  0  0  0  0  0  0  0  0
   51.0824    8.2656   12.8826 C   0  0  0  0  0  0  0  0  0  0  0  0
   52.4627    7.7385   15.6325 C   0  0  0  0  0  0  0  0  0  0  0  0
   38.1120   12.0070   13.3606 C   0  0  0  0  0  0  0  0  0  0  0  0
   48.4607   10.3793   11.1259 O   0  0  0  0  0  0  0  0  0  0  0  0
   48.2993   12.2741   12.4029 O   0  0  0  0  0  0  0  0  0  0  0  0
   51.4832    9.5211   13.0828 O   0  0  0  0  0  0  0  0  0  0  0  0
   49.5326    7.4352   12.0654 O   0  0  0  0  0  0  0  0  0  0  0  0
   47.7999   11.4494   11.6531 C   0  0  0  0  0  0  0  0  0  0  0  0
   50.0803    9.7148   12.8697 C   0  0  1  0  0  0  0  0  0  0  0  0
   49.8537   10.2880   11.4659 C   0  0  0  0  0  0  0  0  0  0  0  0
   46.3622   11.4311   11.1870 C   0  0  0  0  0  0  0  0  0  0  0  0
   49.3344    8.3899   13.1097 C   0  0  0  0  0  0  0  0  0  0  0  0
   45.6008   12.6735   11.6430 C   0  0  0  0  0  0  0  0  0  0  0  0
   44.1963   12.7814   11.0470 C   0  0  0  0  0  0  0  0  0  0  0  0
   43.2507   11.6691   11.5061 C   0  0  0  0  0  0  0  0  0  0  0  0
   41.8464   11.7655   10.8999 C   0  0  0  0  0  0  0  0  0  0  0  0
   41.0795   13.0189   11.3260 C   0  0  0  0  0  0  0  0  0  0  0  0
   39.6446   12.9863   10.8184 C   0  0  0  0  0  0  0  0  0  0  0  0
   39.0899   13.6236   12.0665 H   0  0  0  0  0  0  0  0  0  0  0  0
   39.1305   15.2997    9.8435 H   0  0  0  0  0  0  0  0  0  0  0  0
   38.9024   12.7963    9.8027 H   0  0  0  0  0  0  0  0  0  0  0  0
   40.0382   10.6340   10.4108 H   0  0  0  0  0  0  0  0  0  0  0  0
   40.8458   11.4977    9.0699 H   0  0  0  0  0  0  0  0  0  0  0  0
   43.6051   11.1819   12.5801 H   0  0  0  0  0  0  0  0  0  0  0  0
   44.0189    9.5351   12.1540 H   0  0  0  0  0  0  0  0  0  0  0  0
   45.0284   10.3284    9.9884 H   0  0  0  0  0  0  0  0  0  0  0  0
   44.5636   11.9738   10.3650 H   0  0  0  0  0  0  0  0  0  0  0  0
   41.4005   14.1266   11.0240 H   0  0  0  0  0  0  0  0  0  0  0  0
   40.9767   14.2026    9.2937 H   0  0  0  0  0  0  0  0  0  0  0  0
   46.0405   11.9204   12.4092 H   0  0  0  0  0  0  0  0  0  0  0  0
   46.8676   11.7998   10.8642 H   0  0  0  0  0  0  0  0  0  0  0  0
   47.1118    9.3447   11.1157 H   0  0  0  0  0  0  0  0  0  0  0  0
   46.1943    9.3755   12.6170 H   0  0  0  0  0  0  0  0  0  0  0  0
   48.5092    9.2038   13.1481 H   0  0  0  0  0  0  0  0  0  0  0  0
   47.9282   10.7664   13.7033 H   0  0  0  0  0  0  0  0  0  0  0  0
   48.9525   11.8856   11.7363 H   0  0  0  0  0  0  0  0  0  0  0  0
   49.4769   10.3286   11.0893 H   0  0  0  0  0  0  0  0  0  0  0  0
   50.3675   11.4867   13.7948 H   0  0  0  0  0  0  0  0  0  0  0  0
   51.2357   11.7200   12.2838 H   0  0  0  0  0  0  0  0  0  0  0  0
   50.7045    8.9843   13.5609 H   0  0  0  0  0  0  0  0  0  0  0  0
   51.5510    9.2637   12.0347 H   0  0  0  0  0  0  0  0  0  0  0  0
   53.1682    8.9574   13.8648 H   0  0  0  0  0  0  0  0  0  0  0  0
   52.4213   10.2660   14.7990 H   0  0  0  0  0  0  0  0  0  0  0  0
   53.2707   10.6311   13.2805 H   0  0  0  0  0  0  0  0  0  0  0  0
   45.6385   12.1874   10.7048 H   0  0  0  0  0  0  0  0  0  0  0  0
   45.8917   11.3371    8.2930 H   0  0  0  0  0  0  0  0  0  0  0  0
   46.8453   12.7542    7.9377 H   0  0  0  0  0  0  0  0  0  0  0  0
   46.9279   13.3277   12.2808 H   0  0  0  0  0  0  0  0  0  0  0  0
   49.5708   10.3265   10.6106 H   0  0  0  0  0  0  0  0  0  0  0  0
   48.6232    9.2345   11.6405 H   0  0  0  0  0  0  0  0  0  0  0  0
   42.8555   14.5584    8.4740 H   0  0  0  0  0  0  0  0  0  0  0  0
   42.4221   13.4470    7.1585 H   0  0  0  0  0  0  0  0  0  0  0  0
   47.8308   14.1875    9.9022 H   0  0  0  0  0  0  0  0  0  0  0  0
   46.1266   14.6542   10.0618 H   0  0  0  0  0  0  0  0  0  0  0  0
   50.2283   11.6650   12.6443 H   0  0  0  0  0  0  0  0  0  0  0  0
   49.4332   10.4858   13.6695 H   0  0  0  0  0  0  0  0  0  0  0  0
   41.0094   12.1339    8.8031 H   0  0  0  0  0  0  0  0  0  0  0  0
   40.4434   13.7765    8.4823 H   0  0  0  0  0  0  0  0  0  0  0  0
   51.0578    9.3644   15.5481 H   0  0  0  0  0  0  0  0  0  0  0  0
   50.4416    7.9065   16.3072 H   0  0  0  0  0  0  0  0  0  0  0  0
   37.7108   10.7482   11.6841 H   0  0  0  0  0  0  0  0  0  0  0  0
   37.3601   12.4439   11.3938 H   0  0  0  0  0  0  0  0  0  0  0  0
   40.1828   11.2675   11.6820 H   0  0  0  0  0  0  0  0  0  0  0  0
   39.3435   11.5381   10.1572 H   0  0  0  0  0  0  0  0  0  0  0  0
   50.3258    6.7267   14.1661 H   0  0  0  0  0  0  0  0  0  0  0  0
   49.3433    8.1782   14.1633 H   0  0  0  0  0  0  0  0  0  0  0  0
   42.0443   12.8938   10.9490 H   0  0  0  0  0  0  0  0  0  0  0  0
   41.6192   14.5598   10.5775 H   0  0  0  0  0  0  0  0  0  0  0  0
   39.2016   13.9963   10.6633 H   0  0  0  0  0  0  0  0  0  0  0  0
   40.0605   13.7224   12.1776 H   0  0  0  0  0  0  0  0  0  0  0  0
   51.9080   10.1605   13.5019 H   0  0  0  0  0  0  0  0  0  0  0  0
   51.7807    9.9583   11.7672 H   0  0  0  0  0  0  0  0  0  0  0  0
   52.0735    7.7976   12.8311 H   0  0  0  0  0  0  0  0  0  0  0  0
   50.5272    7.8649   12.0273 H   0  0  0  0  0  0  0  0  0  0  0  0
   53.1501    8.1692   14.8985 H   0  0  0  0  0  0  0  0  0  0  0  0
   52.8481    7.9830   16.6284 H   0  0  0  0  0  0  0  0  0  0  0  0
   52.4837    6.6490   15.5263 H   0  0  0  0  0  0  0  0  0  0  0  0
   38.8218   11.3384   13.8540 H   0  0  0  0  0  0  0  0  0  0  0  0
   38.3785   13.0381   13.5969 H   0  0  0  0  0  0  0  0  0  0  0  0
   37.1242   11.8199   13.7880 H   0  0  0  0  0  0  0  0  0  0  0  0
   51.9216   10.3804   12.9811 H   0  0  0  0  0  0  0  0  0  0  0  0
   49.0659    7.7574   11.2760 H   0  0  0  0  0  0  0  0  0  0  0  0
   49.7414   10.4215   13.6365 H   0  0  0  0  0  0  0  0  0  0  0  0
   50.3299    9.6495   10.7143 H   0  0  0  0  0  0  0  0  0  0  0  0
   50.3486   11.2616   11.3503 H   0  0  0  0  0  0  0  0  0  0  0  0
   45.8919   10.5273   11.5943 H   0  0  0  0  0  0  0  0  0  0  0  0
   46.3599   11.3819   10.0900 H   0  0  0  0  0  0  0  0  0  0  0  0
   49.6811    7.9275   14.0395 H   0  0  0  0  0  0  0  0  0  0  0  0
   48.2579    8.5656   13.1984 H   0  0  0  0  0  0  0  0  0  0  0  0
   46.1667   13.5702   11.3485 H   0  0  0  0  0  0  0  0  0  0  0  0
   45.5468   12.6955   12.7405 H   0  0  0  0  0  0  0  0  0  0  0  0
   44.2661   12.7776    9.9504 H   0  0  0  0  0  0  0  0  0  0  0  0
   43.7843   13.7567   11.3381 H   0  0  0  0  0  0  0  0  0  0  0  0
   43.6648   10.6916   11.2205 H   0  0  0  0  0  0  0  0  0  0  0  0
   43.1778   11.6722   12.5990 H   0  0  0  0  0  0  0  0  0  0  0  0
   41.2857   10.8743   11.2062 H   0  0  0  0  0  0  0  0  0  0  0  0
   41.9185   11.7335    9.8055 H   0  0  0  0  0  0  0  0  0  0  0  0
   41.0736   13.0983   12.4180 H   0  0  0  0  0  0  0  0  0  0  0  0
   41.5674   13.9170   10.9315 H   0  0  0  0  0  0  0  0  0  0  0  0
   39.0988   12.1358   11.2437 H   0  0  0  0  0  0  0  0  0  0  0  0
   39.1237   13.9012   11.1093 H   0  0  0  0  0  0  0  0  0  0  0  0
   39.6153   12.9085    9.7253 H   0  0  0  0  0  0  0  0  0  0  0  0
  1  5  1  0
  1  7  1  0
  2  5  2  0
  3  6  1  0
  4 10  1  0
  5  8  1  0
  6  7  1  0
  6 10  1  0
  8  9  1  0
  9 11  1  0
 11 12  1  0
 12 13  1  0
 13 14  1  0
 14 15  1  0
 15 16  1  0
 16 17  1  0
 19 23  1  0
 20 18  1  0
 21 18  2  0
 22 19  2  0
 23 25  1  0
 24 20  1  0
 25 24  1  0
 26 29  1  0
 27 18  1  0
 28 19  1  0
 29 24  1  0
 30 27  1  0
 31 28  1  0
 32 35  1  0
 33 34  1  0
 34 37  1  0
 35 39  1  0
 36 31  1  0
 37 36  1  0
 38 30  1  0
 39 38  1  0
 40 32  1  0
 41 33  1  0
 42 46  1  0
 42 48  1  0
 43 46  2  0
 44 47  1  0
 45 50  1  0
 46 49  1  0
 47 48  1  0
 47 50  1  0
 49 51  1  0
 51 52  1  0
 52 53  1  0
 53 54  1  0
 54 55  1  0
 55 56  1  0
  3 57  1  0
  4 58  1  0
  6 59  1  6
  7 60  1  0
  7 61  1  0
  8 62  1  0
  8 63  1  0
  9 64  1  0
  9 65  1  0
 10 66  1  0
 10 67  1  0
 11 68  1  0
 11 69  1  0
 12 70  1  0
 12 71  1  0
 13 72  1  0
 13 73  1  0
 14 74  1  0
 14 75  1  0
 15 76  1  0
 15 77  1  0
 16 78  1  0
 16 79  1  0
 17 80  1  0
 17 81  1  0
 17 82  1  0
 24 83  1  1
 25 84  1  0
 25 85  1  0
 26 86  1  0
 27 87  1  0
 27 88  1  0
 28 89  1  0
 28 90  1  0
 29 91  1  0
 29 92  1  0
 30 93  1  0
 30 94  1  0
 31 95  1  0
 31 96  1  0
 32 97  1  0
 32 98  1  0
 33 99  1  0
 33100  1  0
 34101  1  0
 34102  1  0
 35103  1  0
 35104  1  0
 36105  1  0
 36106  1  0
 37107  1  0
 37108  1  0
 38109  1  0
 38110  1  0
 39111  1  0
 39112  1  0
 40113  1  0
 40114  1  0
 40115  1  0
 41116  1  0
 41117  1  0
 41118  1  0
 44119  1  0
 45120  1  0
 47121  1  1
 48122  1  0
 48123  1  0
 49124  1  0
 49125  1  0
 50126  1  0
 50127  1  0
 51128  1  0
 51129  1  0
 52130  1  0
 52131  1  0
 53132  1  0
 53133  1  0
 54134  1  0
 54135  1  0
 55136  1  0
 55137  1  0
 56138  1  0
 56139  1  0
 56140  1  0
M  END
> <Uni-Dock RESULT> 
ENERGY=   -5.006  LOWER_BOUND=    7.693  UPPER_BOUND=   10.345
INTER + INTRA:          -5.006
INTER:                  -5.006
INTRA:                   0.000
UNBOUND:                 0.000

$$$$

     RDKit          3D

140137  0  0  0  0  0  0  0  0999 V2000
   49.0527    8.0288   19.7996 O   0  0  0  0  0  0  0  0  0  0  0  0
   48.0706    7.2778   17.8625 O   0  0  0  0  0  0  0  0  0  0  0  0
   50.8362    6.2784   21.4021 O   0  0  0  0  0  0  0  0  0  0  0  0
   50.2349    7.5338   23.8031 O   0  0  0  0  0  0  0  0  0  0  0  0
   48.6941    8.1245   18.4916 C   0  0  0  0  0  0  0  0  0  0  0  0
   49.4741    6.6005   21.7221 C   0  0  2  0  0  0  0  0  0  0  0  0
   48.6669    6.8013   20.4383 C   0  0  0  0  0  0  0  0  0  0  0  0
   49.1358    9.4419   17.9179 C   0  0  0  0  0  0  0  0  0  0  0  0
   48.1418   10.5386   18.2743 C   0  0  0  0  0  0  0  0  0  0  0  0
   49.4651    7.8328   22.6344 C   0  0  0  0  0  0  0  0  0  0  0  0
   48.5638   11.9259   17.7795 C   0  0  0  0  0  0  0  0  0  0  0  0
   48.4920   12.0588   16.2536 C   0  0  0  0  0  0  0  0  0  0  0  0
   48.9979   13.4123   15.7348 C   0  0  0  0  0  0  0  0  0  0  0  0
   48.1622   14.6082   16.2071 C   0  0  0  0  0  0  0  0  0  0  0  0
   48.6365   15.9455   15.6176 C   0  0  0  0  0  0  0  0  0  0  0  0
   48.3069   16.1013   14.1316 C   0  0  0  0  0  0  0  0  0  0  0  0
   48.7645   17.4536   13.6014 C   0  0  0  0  0  0  0  0  0  0  0  0
   48.1230   13.3811   17.1602 C   0  0  0  0  0  0  0  0  0  0  0  0
   46.7622    9.8284   20.7872 C   0  0  0  0  0  0  0  0  0  0  0  0
   47.0846   13.1447   18.0091 O   0  0  0  0  0  0  0  0  0  0  0  0
   49.2888   13.0910   17.3962 O   0  0  0  0  0  0  0  0  0  0  0  0
   46.9757    9.3256   19.6957 O   0  0  0  0  0  0  0  0  0  0  0  0
   46.3129   11.1009   20.9806 O   0  0  0  0  0  0  0  0  0  0  0  0
   47.4099   12.4814   19.2559 C   0  0  2  0  0  0  0  0  0  0  0  0
   46.1056   11.8678   19.7839 C   0  0  0  0  0  0  0  0  0  0  0  0
   49.3057   13.9249   19.9489 O   0  0  0  0  0  0  0  0  0  0  0  0
   47.6373   14.0571   15.9013 C   0  0  0  0  0  0  0  0  0  0  0  0
   46.9117    9.1425   22.1251 C   0  0  0  0  0  0  0  0  0  0  0  0
   47.9845   13.4909   20.2668 C   0  0  0  0  0  0  0  0  0  0  0  0
   48.5788   15.1916   15.5017 C   0  0  0  0  0  0  0  0  0  0  0  0
   47.8112    7.9073   22.0651 C   0  0  0  0  0  0  0  0  0  0  0  0
   50.3193   15.5746   12.1789 C   0  0  0  0  0  0  0  0  0  0  0  0
   50.9523    4.8258   20.9792 C   0  0  0  0  0  0  0  0  0  0  0  0
   50.0222    6.0346   20.8457 C   0  0  0  0  0  0  0  0  0  0  0  0
   49.1504   14.6242   12.4414 C   0  0  0  0  0  0  0  0  0  0  0  0
   49.2853    8.2718   21.8479 C   0  0  0  0  0  0  0  0  0  0  0  0
   50.2324    7.0743   21.9496 C   0  0  0  0  0  0  0  0  0  0  0  0
   48.0590   16.0271   14.3264 C   0  0  0  0  0  0  0  0  0  0  0  0
   47.8846   15.2776   12.9997 C   0  0  0  0  0  0  0  0  0  0  0  0
   49.9966   16.6549   11.1592 C   0  0  0  0  0  0  0  0  0  0  0  0
   52.4124    5.1414   20.6948 C   0  0  0  0  0  0  0  0  0  0  0  0
   47.4003   13.5511   16.3481 O   0  0  0  0  0  0  0  0  0  0  0  0
   49.1086   14.3397   17.6544 O   0  0  0  0  0  0  0  0  0  0  0  0
   48.2877   16.1781   13.8961 O   0  0  0  0  0  0  0  0  0  0  0  0
   47.2877   13.4347   13.0811 O   0  0  0  0  0  0  0  0  0  0  0  0
   48.3214   13.4571   17.3493 C   0  0  0  0  0  0  0  0  0  0  0  0
   48.4766   14.9624   14.6290 C   0  0  1  0  0  0  0  0  0  0  0  0
   47.3581   14.8157   15.6673 C   0  0  0  0  0  0  0  0  0  0  0  0
   48.2288   12.0915   17.9904 C   0  0  0  0  0  0  0  0  0  0  0  0
   48.5527   13.7767   13.6504 C   0  0  0  0  0  0  0  0  0  0  0  0
   49.1505   11.9682   19.2013 C   0  0  0  0  0  0  0  0  0  0  0  0
   48.9594   10.6679   19.9837 C   0  0  0  0  0  0  0  0  0  0  0  0
   49.3424    9.4160   19.1909 C   0  0  0  0  0  0  0  0  0  0  0  0
   49.1388    8.1099   19.9664 C   0  0  0  0  0  0  0  0  0  0  0  0
   50.0366    7.9824   21.1987 C   0  0  0  0  0  0  0  0  0  0  0  0
   49.9009    6.6082   21.8398 C   0  0  0  0  0  0  0  0  0  0  0  0
   51.3644    6.5238   22.1897 H   0  0  0  0  0  0  0  0  0  0  0  0
   49.6877    6.9667   24.3681 H   0  0  0  0  0  0  0  0  0  0  0  0
   49.0814    5.7322   22.2635 H   0  0  0  0  0  0  0  0  0  0  0  0
   48.8373    5.9515   19.7680 H   0  0  0  0  0  0  0  0  0  0  0  0
   47.5992    6.8664   20.6770 H   0  0  0  0  0  0  0  0  0  0  0  0
   50.1420    9.6721   18.2900 H   0  0  0  0  0  0  0  0  0  0  0  0
   49.2319    9.3197   16.8367 H   0  0  0  0  0  0  0  0  0  0  0  0
   47.1540   10.2848   17.8803 H   0  0  0  0  0  0  0  0  0  0  0  0
   48.0297   10.5843   19.3665 H   0  0  0  0  0  0  0  0  0  0  0  0
   49.9515    8.6874   22.1563 H   0  0  0  0  0  0  0  0  0  0  0  0
   48.4510    8.1182   22.9333 H   0  0  0  0  0  0  0  0  0  0  0  0
   49.5746   12.1540   18.1368 H   0  0  0  0  0  0  0  0  0  0  0  0
   47.8952   12.6587   18.2409 H   0  0  0  0  0  0  0  0  0  0  0  0
   47.4604   11.9076   15.9177 H   0  0  0  0  0  0  0  0  0  0  0  0
   49.0983   11.2790   15.7808 H   0  0  0  0  0  0  0  0  0  0  0  0
   48.9917   13.3682   14.6430 H   0  0  0  0  0  0  0  0  0  0  0  0
   50.0424   13.5512   16.0394 H   0  0  0  0  0  0  0  0  0  0  0  0
   48.2283   14.6879   17.2996 H   0  0  0  0  0  0  0  0  0  0  0  0
   47.1066   14.4444   15.9578 H   0  0  0  0  0  0  0  0  0  0  0  0
   49.7156   16.0623   15.7837 H   0  0  0  0  0  0  0  0  0  0  0  0
   48.1462   16.7528   16.1731 H   0  0  0  0  0  0  0  0  0  0  0  0
   48.7912   15.3148   13.5437 H   0  0  0  0  0  0  0  0  0  0  0  0
   47.2245   16.0027   13.9861 H   0  0  0  0  0  0  0  0  0  0  0  0
   48.4716   17.5691   12.5544 H   0  0  0  0  0  0  0  0  0  0  0  0
   49.8546   17.5459   13.6633 H   0  0  0  0  0  0  0  0  0  0  0  0
   48.3157   18.2725   14.1774 H   0  0  0  0  0  0  0  0  0  0  0  0
   48.1407   11.6860   19.0655 H   0  0  0  0  0  0  0  0  0  0  0  0
   45.6062   11.2648   19.0120 H   0  0  0  0  0  0  0  0  0  0  0  0
   45.3945   12.6614   20.0359 H   0  0  0  0  0  0  0  0  0  0  0  0
   49.5893   13.5153   19.1018 H   0  0  0  0  0  0  0  0  0  0  0  0
   46.6345   14.4684   16.0781 H   0  0  0  0  0  0  0  0  0  0  0  0
   47.5582   13.2946   15.1188 H   0  0  0  0  0  0  0  0  0  0  0  0
   47.3150    9.8593   22.8503 H   0  0  0  0  0  0  0  0  0  0  0  0
   45.9100    8.8483   22.4537 H   0  0  0  0  0  0  0  0  0  0  0  0
   47.3541   14.3846   20.3104 H   0  0  0  0  0  0  0  0  0  0  0  0
   48.0336   13.0547   21.2682 H   0  0  0  0  0  0  0  0  0  0  0  0
   48.7150   15.8650   16.3624 H   0  0  0  0  0  0  0  0  0  0  0  0
   49.5756   14.7928   15.2743 H   0  0  0  0  0  0  0  0  0  0  0  0
   47.4678    7.2408   21.2646 H   0  0  0  0  0  0  0  0  0  0  0  0
   47.7135    7.3602   23.0101 H   0  0  0  0  0  0  0  0  0  0  0  0
   50.6634   16.0388   13.1086 H   0  0  0  0  0  0  0  0  0  0  0  0
   51.1616   14.9812   11.7992 H   0  0  0  0  0  0  0  0  0  0  0  0
   50.6245    4.0539   20.2744 H   0  0  0  0  0  0  0  0  0  0  0  0
   50.8597    4.3935   21.9809 H   0  0  0  0  0  0  0  0  0  0  0  0
   50.1519    6.5006   19.8611 H   0  0  0  0  0  0  0  0  0  0  0  0
   48.9933    5.6612   20.8886 H   0  0  0  0  0  0  0  0  0  0  0  0
   48.8883   14.1257   11.4986 H   0  0  0  0  0  0  0  0  0  0  0  0
   49.4857   13.8304   13.1197 H   0  0  0  0  0  0  0  0  0  0  0  0
   49.4179    8.7562   20.8716 H   0  0  0  0  0  0  0  0  0  0  0  0
   49.5876    9.0061   22.6045 H   0  0  0  0  0  0  0  0  0  0  0  0
   50.1144    6.6011   22.9327 H   0  0  0  0  0  0  0  0  0  0  0  0
   51.2576    7.4555   21.8988 H   0  0  0  0  0  0  0  0  0  0  0  0
   48.7367   16.8761   14.1720 H   0  0  0  0  0  0  0  0  0  0  0  0
   47.0908   16.4607   14.6019 H   0  0  0  0  0  0  0  0  0  0  0  0
   47.4792   15.9758   12.2567 H   0  0  0  0  0  0  0  0  0  0  0  0
   47.1176   14.5046   13.1207 H   0  0  0  0  0  0  0  0  0  0  0  0
   49.2488   17.3603   11.5335 H   0  0  0  0  0  0  0  0  0  0  0  0
   50.8976   17.2282   10.9153 H   0  0  0  0  0  0  0  0  0  0  0  0
   49.6206   16.2153   10.2296 H   0  0  0  0  0  0  0  0  0  0  0  0
   52.5363    5.5718   19.6979 H   0  0  0  0  0  0  0  0  0  0  0  0
   52.8261    5.8334   21.4296 H   0  0  0  0  0  0  0  0  0  0  0  0
   53.0063    4.2256   20.7395 H   0  0  0  0  0  0  0  0  0  0  0  0
   48.3000   16.9129   14.5292 H   0  0  0  0  0  0  0  0  0  0  0  0
   46.7411   13.0454   13.7843 H   0  0  0  0  0  0  0  0  0  0  0  0
   49.4538   15.0410   15.1201 H   0  0  0  0  0  0  0  0  0  0  0  0
   46.3789   14.8909   15.1829 H   0  0  0  0  0  0  0  0  0  0  0  0
   47.3722   15.6465   16.3855 H   0  0  0  0  0  0  0  0  0  0  0  0
   48.4996   11.3482   17.2302 H   0  0  0  0  0  0  0  0  0  0  0  0
   47.1885   11.9318   18.3038 H   0  0  0  0  0  0  0  0  0  0  0  0
   49.2251   14.0178   12.8209 H   0  0  0  0  0  0  0  0  0  0  0  0
   48.9408   12.8864   14.1548 H   0  0  0  0  0  0  0  0  0  0  0  0
   48.9604   12.8093   19.8850 H   0  0  0  0  0  0  0  0  0  0  0  0
   50.1981   12.0661   18.8837 H   0  0  0  0  0  0  0  0  0  0  0  0
   47.9134   10.5919   20.3114 H   0  0  0  0  0  0  0  0  0  0  0  0
   49.5752   10.7305   20.8906 H   0  0  0  0  0  0  0  0  0  0  0  0
   48.7306    9.3551   18.2796 H   0  0  0  0  0  0  0  0  0  0  0  0
   50.3855    9.4885   18.8648 H   0  0  0  0  0  0  0  0  0  0  0  0
   49.3402    7.2772   19.2820 H   0  0  0  0  0  0  0  0  0  0  0  0
   48.0873    8.0248   20.2679 H   0  0  0  0  0  0  0  0  0  0  0  0
   51.0817    8.1465   20.9163 H   0  0  0  0  0  0  0  0  0  0  0  0
   49.7720    8.7410   21.9435 H   0  0  0  0  0  0  0  0  0  0  0  0
   50.2202    5.8206   21.1472 H   0  0  0  0  0  0  0  0  0  0  0  0
   50.5279    6.5478   22.7320 H   0  0  0  0  0  0  0  0  0  0  0  0
   48.8637    6.4129   22.1363 H   0  0  0  0  0  0  0  0  0  0  0  0
  1  5  1  0
  1  7  1  0
  2  5  2  0
  3  6  1  0
  4 10  1  0
  5  8  1  0
  6  7  1  0
  6 10  1  0
  8  9  1  0
  9 11  1  0
 11 12  1  0
 12 13  1  0
 13 14  1  0
 14 15  1  0
 15 16  1  0
 16 17  1  0
 19 23  1  0
 20 18  1  0
 21 18  2  0
 22 19  2  0
 23 25  1  0
 24 20  1  0
 25 24  1  0
 26 29  1  0
 27 18  1  0
 28 19  1  0
 29 24  1  0
 30 27  1  0
 31 28  1  0
 32 35  1  0
 33 34  1  0
 34 37  1  0
 35 39  1  0
 36 31  1  0
 37 36  1  0
 38 30  1  0
 39 38  1  0
 40 32  1  0
 41 33  1  0
 42 46  1  0
 42 48  1  0
 43 46  2  0
 44 47  1  0
 45 50  1  0
 46 49  1  0
 47 48  1  0
 47 50  1  0
 49 51  1  0
 51 52  1  0
 52 53  1  0
 53 54  1  0
 54 55  1  0
 55 56  1  0
  3 57  1  0
  4 58  1  0
  6 59  1  6
  7 60  1  0
  7 61  1  0
  8 62  1  0
  8 63  1  0
  9 64  1  0
  9 65  1  0
 10 66  1  0
 10 67  1  0
 11 68  1  0
 11 69  1  0
 12 70  1  0
 12 71  1  0
 13 72  1  0
 13 73  1  0
 14 74  1  0
 14 75  1  0
 15 76  1  0
 15 77  1  0
 16 78  1  0
 16 79  1  0
 17 80  1  0
 17 81  1  0
 17 82  1  0
 24 83  1  1
 25 84  1  0
 25 85  1  0
 26 86  1  0
 27 87  1  0
 27 88  1  0
 28 89  1  0
 28 90  1  0
 29 91  1  0
 29 92  1  0
 30 93  1  0
 30 94  1  0
 31 95  1  0
 31 96  1  0
 32 97  1  0
 32 98  1  0
 33 99  1  0
 33100  1  0
 34101  1  0
 34102  1  0
 35103  1  0
 35104  1  0
 36105  1  0
 36106  1  0
 37107  1  0
 37108  1  0
 38109  1  0
 38110  1  0
 39111  1  0
 39112  1  0
 40113  1  0
 40114  1  0
 40115  1  0
 41116  1  0
 41117  1  0
 41118  1  0
 44119  1  0
 45120  1  0
 47121  1  1
 48122  1  0
 48123  1  0
 49124  1  0
 49125  1  0
 50126  1  0
 50127  1  0
 51128  1  0
 51129  1  0
 52130  1  0
 52131  1  0
 53132  1  0
 53133  1  0
 54134  1  0
 54135  1  0
 55136  1  0
 55137  1  0
 56138  1  0
 56139  1  0
 56140  1  0
M  END
> <Uni-Dock RESULT> 
ENERGY=   -4.970  LOWER_BOUND=    2.497  UPPER_BOUND=    9.317
INTER + INTRA:          -4.970
INTER:                  -4.970
INTRA:                   0.000
UNBOUND:                 0.000

$$$$

     RDKit          3D

140137  0  0  0  0  0  0  0  0999 V2000
   47.8068    9.6216   21.1641 O   0  0  0  0  0  0  0  0  0  0  0  0
   45.6526   10.1414   20.5559 O   0  0  0  0  0  0  0  0  0  0  0  0
   48.5021    6.9404   22.2324 O   0  0  0  0  0  0  0  0  0  0  0  0
   50.6212    7.8821   23.7573 O   0  0  0  0  0  0  0  0  0  0  0  0
   46.8573   10.1267   20.3324 C   0  0  0  0  0  0  0  0  0  0  0  0
   48.3497    8.1367   23.0119 C   0  0  2  0  0  0  0  0  0  0  0  0
   47.2959    9.0458   22.3770 C   0  0  0  0  0  0  0  0  0  0  0  0
   47.4907   10.7090   19.0997 C   0  0  0  0  0  0  0  0  0  0  0  0
   48.0016   12.1161   19.3768 C   0  0  0  0  0  0  0  0  0  0  0  0
   49.7204    8.8105   23.1453 C   0  0  0  0  0  0  0  0  0  0  0  0
   48.7226   12.7475   18.1815 C   0  0  0  0  0  0  0  0  0  0  0  0
   47.7722   13.0878   17.0274 C   0  0  0  0  0  0  0  0  0  0  0  0
   48.4909   13.6372   15.7869 C   0  0  0  0  0  0  0  0  0  0  0  0
   49.2061   14.9724   16.0263 C   0  0  0  0  0  0  0  0  0  0  0  0
   49.8552   15.5447   14.7566 C   0  0  0  0  0  0  0  0  0  0  0  0
   48.8383   16.0897   13.7516 C   0  0  0  0  0  0  0  0  0  0  0  0
   49.5288   16.6765   12.5277 C   0  0  0  0  0  0  0  0  0  0  0  0
   49.0462   14.0928   17.2977 C   0  0  0  0  0  0  0  0  0  0  0  0
   48.6366   12.3774   22.2493 C   0  0  0  0  0  0  0  0  0  0  0  0
   49.0254   14.6171   18.5544 O   0  0  0  0  0  0  0  0  0  0  0  0
   49.5032   12.9927   17.0150 O   0  0  0  0  0  0  0  0  0  0  0  0
   47.6910   12.0380   21.5560 O   0  0  0  0  0  0  0  0  0  0  0  0
   49.3767   13.5054   22.0534 O   0  0  0  0  0  0  0  0  0  0  0  0
   49.5643   13.7827   19.6097 C   0  0  2  0  0  0  0  0  0  0  0  0
   48.9849   14.3100   20.9299 C   0  0  0  0  0  0  0  0  0  0  0  0
   51.7141   13.1765   18.5285 O   0  0  0  0  0  0  0  0  0  0  0  0
   48.4408   15.0585   16.3085 C   0  0  0  0  0  0  0  0  0  0  0  0
   49.1482   11.6497   23.4706 C   0  0  0  0  0  0  0  0  0  0  0  0
   51.1022   13.8589   19.6216 C   0  0  0  0  0  0  0  0  0  0  0  0
   49.2813   15.1221   15.0346 C   0  0  0  0  0  0  0  0  0  0  0  0
   48.7061   10.1868   23.5222 C   0  0  0  0  0  0  0  0  0  0  0  0
   48.0576   14.4849   11.5256 C   0  0  0  0  0  0  0  0  0  0  0  0
   47.3595    5.9803   22.5058 C   0  0  0  0  0  0  0  0  0  0  0  0
   47.6450    7.4750   22.3378 C   0  0  0  0  0  0  0  0  0  0  0  0
   47.1482   14.7293   12.7304 C   0  0  0  0  0  0  0  0  0  0  0  0
   49.4040    9.3307   22.4577 C   0  0  0  0  0  0  0  0  0  0  0  0
   49.1118    7.8345   22.5886 C   0  0  0  0  0  0  0  0  0  0  0  0
   48.8170   16.2047   14.0537 C   0  0  0  0  0  0  0  0  0  0  0  0
   47.4007   16.0327   13.4909 C   0  0  0  0  0  0  0  0  0  0  0  0
   47.9313   15.5539   10.4521 C   0  0  0  0  0  0  0  0  0  0  0  0
   47.9766    5.1125   21.4202 C   0  0  0  0  0  0  0  0  0  0  0  0
   48.3186   14.8562   16.9837 O   0  0  0  0  0  0  0  0  0  0  0  0
   50.3828   13.8930   16.7423 O   0  0  0  0  0  0  0  0  0  0  0  0
   48.7236   16.1844   13.5525 O   0  0  0  0  0  0  0  0  0  0  0  0
   46.0488   15.2973   14.6702 O   0  0  0  0  0  0  0  0  0  0  0  0
   49.3008   13.9661   17.3043 C   0  0  0  0  0  0  0  0  0  0  0  0
   48.5206   15.1681   14.5409 C   0  0  1  0  0  0  0  0  0  0  0  0
   48.6475   15.7855   15.9385 C   0  0  0  0  0  0  0  0  0  0  0  0
   48.8264   13.0795   18.4327 C   0  0  0  0  0  0  0  0  0  0  0  0
   47.1633   14.4819   14.3039 C   0  0  0  0  0  0  0  0  0  0  0  0
   49.9284   12.1426   18.9215 C   0  0  0  0  0  0  0  0  0  0  0  0
   49.5472   11.3538   20.1753 C   0  0  0  0  0  0  0  0  0  0  0  0
   48.3980   10.3682   19.9510 C   0  0  0  0  0  0  0  0  0  0  0  0
   48.0033    9.5861   21.2085 C   0  0  0  0  0  0  0  0  0  0  0  0
   49.1068    8.6619   21.7270 C   0  0  0  0  0  0  0  0  0  0  0  0
   48.6091    7.8025   22.8810 C   0  0  0  0  0  0  0  0  0  0  0  0
   49.3939    6.5932   22.4416 H   0  0  0  0  0  0  0  0  0  0  0  0
   50.4097    7.8603   24.7033 H   0  0  0  0  0  0  0  0  0  0  0  0
   47.9975    7.8084   23.9965 H   0  0  0  0  0  0  0  0  0  0  0  0
   46.3917    8.4620   22.1719 H   0  0  0  0  0  0  0  0  0  0  0  0
   47.0508    9.8653   23.0622 H   0  0  0  0  0  0  0  0  0  0  0  0
   48.2978   10.0443   18.7671 H   0  0  0  0  0  0  0  0  0  0  0  0
   46.7423   10.7004   18.3041 H   0  0  0  0  0  0  0  0  0  0  0  0
   47.1729   12.7546   19.6944 H   0  0  0  0  0  0  0  0  0  0  0  0
   48.7025   12.0865   20.2226 H   0  0  0  0  0  0  0  0  0  0  0  0
   50.1445    9.0507   22.1666 H   0  0  0  0  0  0  0  0  0  0  0  0
   49.6756    9.7222   23.7503 H   0  0  0  0  0  0  0  0  0  0  0  0
   49.5207   12.0800   17.8365 H   0  0  0  0  0  0  0  0  0  0  0  0
   49.2091   13.6617   18.5343 H   0  0  0  0  0  0  0  0  0  0  0  0
   47.0279   13.8174   17.3645 H   0  0  0  0  0  0  0  0  0  0  0  0
   47.2227   12.1923   16.7182 H   0  0  0  0  0  0  0  0  0  0  0  0
   47.7422   13.7575   15.0003 H   0  0  0  0  0  0  0  0  0  0  0  0
   49.2122   12.8940   15.4256 H   0  0  0  0  0  0  0  0  0  0  0  0
   50.0026   14.8293   16.7675 H   0  0  0  0  0  0  0  0  0  0  0  0
   48.5010   15.7008   16.4453 H   0  0  0  0  0  0  0  0  0  0  0  0
   50.4857   14.7795   14.2850 H   0  0  0  0  0  0  0  0  0  0  0  0
   50.5244   16.3590   15.0564 H   0  0  0  0  0  0  0  0  0  0  0  0
   48.1584   15.2976   13.4215 H   0  0  0  0  0  0  0  0  0  0  0  0
   48.2314   16.8665   14.2321 H   0  0  0  0  0  0  0  0  0  0  0  0
   48.7908   17.1102   11.8476 H   0  0  0  0  0  0  0  0  0  0  0  0
   50.0800   15.9010   11.9841 H   0  0  0  0  0  0  0  0  0  0  0  0
   50.2361   17.4640   12.8167 H   0  0  0  0  0  0  0  0  0  0  0  0
   49.2426   12.7457   19.4542 H   0  0  0  0  0  0  0  0  0  0  0  0
   47.8908   14.4049   20.8768 H   0  0  0  0  0  0  0  0  0  0  0  0
   49.3541   15.3227   21.1219 H   0  0  0  0  0  0  0  0  0  0  0  0
   51.0169   12.8114   17.9397 H   0  0  0  0  0  0  0  0  0  0  0  0
   48.3994   16.0581   16.7614 H   0  0  0  0  0  0  0  0  0  0  0  0
   47.4141   14.7345   16.1069 H   0  0  0  0  0  0  0  0  0  0  0  0
   50.2431   11.7064   23.4869 H   0  0  0  0  0  0  0  0  0  0  0  0
   48.7639   12.1779   24.3488 H   0  0  0  0  0  0  0  0  0  0  0  0
   51.4306   14.9018   19.5741 H   0  0  0  0  0  0  0  0  0  0  0  0
   51.5076   13.4111   20.5330 H   0  0  0  0  0  0  0  0  0  0  0  0
   50.3273   15.3357   15.3050 H   0  0  0  0  0  0  0  0  0  0  0  0
   49.2949   14.1417   14.5417 H   0  0  0  0  0  0  0  0  0  0  0  0
   47.6181   10.1267   23.3976 H   0  0  0  0  0  0  0  0  0  0  0  0
   48.9438    9.7869   24.5150 H   0  0  0  0  0  0  0  0  0  0  0  0
   49.1039   14.3982   11.8355 H   0  0  0  0  0  0  0  0  0  0  0  0
   47.7846   13.5174   11.0839 H   0  0  0  0  0  0  0  0  0  0  0  0
   46.2747    5.8285   22.4911 H   0  0  0  0  0  0  0  0  0  0  0  0
   47.7087    5.6424   23.4870 H   0  0  0  0  0  0  0  0  0  0  0  0
   47.3435    7.8040   21.3356 H   0  0  0  0  0  0  0  0  0  0  0  0
   47.0115    8.0108   23.0531 H   0  0  0  0  0  0  0  0  0  0  0  0
   46.1057   14.7337   12.3848 H   0  0  0  0  0  0  0  0  0  0  0  0
   47.2351   13.8788   13.4172 H   0  0  0  0  0  0  0  0  0  0  0  0
   49.1208    9.6682   21.4520 H   0  0  0  0  0  0  0  0  0  0  0  0
   50.4887    9.4711   22.5403 H   0  0  0  0  0  0  0  0  0  0  0  0
   49.4125    7.4922   23.5869 H   0  0  0  0  0  0  0  0  0  0  0  0
   49.7434    7.3076   21.8658 H   0  0  0  0  0  0  0  0  0  0  0  0
   49.5300   16.2535   13.2212 H   0  0  0  0  0  0  0  0  0  0  0  0
   48.8688   17.1792   14.5524 H   0  0  0  0  0  0  0  0  0  0  0  0
   47.1820   16.8838   12.8338 H   0  0  0  0  0  0  0  0  0  0  0  0
   46.6764   16.1045   14.3097 H   0  0  0  0  0  0  0  0  0  0  0  0
   48.3104   16.5220   10.7924 H   0  0  0  0  0  0  0  0  0  0  0  0
   48.5049   15.2692    9.5633 H   0  0  0  0  0  0  0  0  0  0  0  0
   46.8873   15.6805   10.1474 H   0  0  0  0  0  0  0  0  0  0  0  0
   47.6423    5.4248   20.4277 H   0  0  0  0  0  0  0  0  0  0  0  0
   49.0666    5.1441   21.4494 H   0  0  0  0  0  0  0  0  0  0  0  0
   47.6772    4.0714   21.5614 H   0  0  0  0  0  0  0  0  0  0  0  0
   49.6069   16.5611   13.6894 H   0  0  0  0  0  0  0  0  0  0  0  0
   46.0401   15.3704   15.6394 H   0  0  0  0  0  0  0  0  0  0  0  0
   49.2988   14.4129   14.3784 H   0  0  0  0  0  0  0  0  0  0  0  0
   47.9695   16.6397   16.0386 H   0  0  0  0  0  0  0  0  0  0  0  0
   49.6479   16.2110   16.0948 H   0  0  0  0  0  0  0  0  0  0  0  0
   47.9716   12.4994   18.0632 H   0  0  0  0  0  0  0  0  0  0  0  0
   48.5005   13.7248   19.2594 H   0  0  0  0  0  0  0  0  0  0  0  0
   47.0480   14.2354   13.2435 H   0  0  0  0  0  0  0  0  0  0  0  0
   47.0971   13.5525   14.8780 H   0  0  0  0  0  0  0  0  0  0  0  0
   50.8278   12.7340   19.1504 H   0  0  0  0  0  0  0  0  0  0  0  0
   50.2157   11.4529   18.1155 H   0  0  0  0  0  0  0  0  0  0  0  0
   49.2809   12.0550   20.9782 H   0  0  0  0  0  0  0  0  0  0  0  0
   50.4389   10.8076   20.5099 H   0  0  0  0  0  0  0  0  0  0  0  0
   47.5060   10.9130   19.6102 H   0  0  0  0  0  0  0  0  0  0  0  0
   48.6618    9.6668   19.1523 H   0  0  0  0  0  0  0  0  0  0  0  0
   47.1134    8.9917   20.9697 H   0  0  0  0  0  0  0  0  0  0  0  0
   47.7118   10.2891   21.9989 H   0  0  0  0  0  0  0  0  0  0  0  0
   49.4578    8.0116   20.9190 H   0  0  0  0  0  0  0  0  0  0  0  0
   49.9637    9.2490   22.0753 H   0  0  0  0  0  0  0  0  0  0  0  0
   47.7911    7.1485   22.5567 H   0  0  0  0  0  0  0  0  0  0  0  0
   49.4186    7.1712   23.2538 H   0  0  0  0  0  0  0  0  0  0  0  0
   48.2510    8.4249   23.7093 H   0  0  0  0  0  0  0  0  0  0  0  0
  1  5  1  0
  1  7  1  0
  2  5  2  0
  3  6  1  0
  4 10  1  0
  5  8  1  0
  6  7  1  0
  6 10  1  0
  8  9  1  0
  9 11  1  0
 11 12  1  0
 12 13  1  0
 13 14  1  0
 14 15  1  0
 15 16  1  0
 16 17  1  0
 19 23  1  0
 20 18  1  0
 21 18  2  0
 22 19  2  0
 23 25  1  0
 24 20  1  0
 25 24  1  0
 26 29  1  0
 27 18  1  0
 28 19  1  0
 29 24  1  0
 30 27  1  0
 31 28  1  0
 32 35  1  0
 33 34  1  0
 34 37  1  0
 35 39  1  0
 36 31  1  0
 37 36  1  0
 38 30  1  0
 39 38  1  0
 40 32  1  0
 41 33  1  0
 42 46  1  0
 42 48  1  0
 43 46  2  0
 44 47  1  0
 45 50  1  0
 46 49  1  0
 47 48  1  0
 47 50  1  0
 49 51  1  0
 51 52  1  0
 52 53  1  0
 53 54  1  0
 54 55  1  0
 55 56  1  0
  3 57  1  0
  4 58  1  0
  6 59  1  6
  7 60  1  0
  7 61  1  0
  8 62  1  0
  8 63  1  0
  9 64  1  0
  9 65  1  0
 10 66  1  0
 10 67  1  0
 11 68  1  0
 11 69  1  0
 12 70  1  0
 12 71  1  0
 13 72  1  0
 13 73  1  0
 14 74  1  0
 14 75  1  0
 15 76  1  0
 15 77  1  0
 16 78  1  0
 16 79  1  0
 17 80  1  0
 17 81  1  0
 17 82  1  0
 24 83  1  1
 25 84  1  0
 25 85  1  0
 26 86  1  0
 27 87  1  0
 27 88  1  0
 28 89  1  0
 28 90  1  0
 29 91  1  0
 29 92  1  0
 30 93  1  0
 30 94  1  0
 31 95  1  0
 31 96  1  0
 32 97  1  0
 32 98  1  0
 33 99  1  0
 33100  1  0
 34101  1  0
 34102  1  0
 35103  1  0
 35104  1  0
 36105  1  0
 36106  1  0
 37107  1  0
 37108  1  0
 38109  1  0
 38110  1  0
 39111  1  0
 39112  1  0
 40113  1  0
 40114  1  0
 40115  1  0
 41116  1  0
 41117  1  0
 41118  1  0
 44119  1  0
 45120  1  0
 47121  1  1
 48122  1  0
 48123  1  0
 49124  1  0
 49125  1  0
 50126  1  0
 50127  1  0
 51128  1  0
 51129  1  0
 52130  1  0
 52131  1  0
 53132  1  0
 53133  1  0
 54134  1  0
 54135  1  0
 55136  1  0
 55137  1  0
 56138  1  0
 56139  1  0
 56140  1  0
M  END
> <Uni-Dock RESULT> 
ENERGY=   -4.928  LOWER_BOUND=    4.245  UPPER_BOUND=    9.521
INTER + INTRA:          -4.928
INTER:                  -4.928
INTRA:                   0.000
UNBOUND:                 0.000

$$$$
