
     RDKit          3D

140137  0  0  0  0  0  0  0  0999 V2000
   49.4509    5.6376   18.0508 O   0  0  0  0  0  0  0  0  0  0  0  0
   47.8716    7.3050   18.0774 O   0  0  0  0  0  0  0  0  0  0  0  0
   48.8802    5.5407   21.7141 O   0  0  0  0  0  0  0  0  0  0  0  0
   51.5754    5.1692   20.9547 O   0  0  0  0  0  0  0  0  0  0  0  0
   48.7579    6.6785   17.5094 C   0  0  0  0  0  0  0  0  0  0  0  0
   49.3799    6.1113   20.4973 C   0  0  2  0  0  0  0  0  0  0  0  0
   49.0025    5.1811   19.3385 C   0  0  0  0  0  0  0  0  0  0  0  0
   49.2408    6.9234   16.0991 C   0  0  0  0  0  0  0  0  0  0  0  0
   48.7934    8.2909   15.5846 C   0  0  0  0  0  0  0  0  0  0  0  0
   50.8904    6.3662   20.5953 C   0  0  0  0  0  0  0  0  0  0  0  0
   49.3755    8.6328   14.2095 C   0  0  0  0  0  0  0  0  0  0  0  0
   48.9671    7.6928   13.0690 C   0  0  0  0  0  0  0  0  0  0  0  0
   47.4570    7.5595   12.8312 C   0  0  0  0  0  0  0  0  0  0  0  0
   46.7765    8.8971   12.5269 C   0  0  0  0  0  0  0  0  0  0  0  0
   45.3036    8.7089   12.1590 C   0  0  0  0  0  0  0  0  0  0  0  0
   44.5481   10.0288   11.9882 C   0  0  0  0  0  0  0  0  0  0  0  0
   45.0486   10.8710   10.8252 C   0  0  0  0  0  0  0  0  0  0  0  0
   48.8062    5.5682   17.3850 C   0  0  0  0  0  0  0  0  0  0  0  0
   47.6000    8.5691   13.1024 C   0  0  0  0  0  0  0  0  0  0  0  0
   49.7053    5.8021   16.3901 O   0  0  0  0  0  0  0  0  0  0  0  0
   47.9719    6.3732   17.7727 O   0  0  0  0  0  0  0  0  0  0  0  0
   47.1110    7.6257   12.5006 O   0  0  0  0  0  0  0  0  0  0  0  0
   48.3375    8.4672   14.2439 O   0  0  0  0  0  0  0  0  0  0  0  0
   49.6393    7.1097   15.7834 C   0  0  2  0  0  0  0  0  0  0  0  0
   48.5609    7.1227   14.6901 C   0  0  0  0  0  0  0  0  0  0  0  0
   51.1426    8.7133   14.6501 O   0  0  0  0  0  0  0  0  0  0  0  0
   48.9706    4.1626   17.9155 C   0  0  0  0  0  0  0  0  0  0  0  0
   47.5111   10.0234   12.6971 C   0  0  0  0  0  0  0  0  0  0  0  0
   51.0371    7.4166   15.2218 C   0  0  0  0  0  0  0  0  0  0  0  0
   48.6559    4.0725   19.4092 C   0  0  0  0  0  0  0  0  0  0  0  0
   46.5949   10.2660   11.4985 C   0  0  0  0  0  0  0  0  0  0  0  0
   51.7422    4.9502   22.7462 C   0  0  0  0  0  0  0  0  0  0  0  0
   43.2224   11.9153    8.9019 C   0  0  0  0  0  0  0  0  0  0  0  0
   44.2780   11.7005    9.9874 C   0  0  0  0  0  0  0  0  0  0  0  0
   50.3208    5.5126   22.6456 C   0  0  0  0  0  0  0  0  0  0  0  0
   45.1116   10.1828   11.8684 C   0  0  0  0  0  0  0  0  0  0  0  0
   44.1751   10.3304   10.6621 C   0  0  0  0  0  0  0  0  0  0  0  0
   49.7362    4.7410   20.2660 C   0  0  0  0  0  0  0  0  0  0  0  0
   49.3741    4.7063   21.7485 C   0  0  0  0  0  0  0  0  0  0  0  0
   52.7186    5.5832   21.7613 C   0  0  0  0  0  0  0  0  0  0  0  0
   43.4164   11.0267    7.6836 C   0  0  0  0  0  0  0  0  0  0  0  0
   50.2843    7.1205   17.2061 O   0  0  0  0  0  0  0  0  0  0  0  0
   48.9445    5.3797   16.5454 O   0  0  0  0  0  0  0  0  0  0  0  0
   49.6852    7.6098   20.0269 O   0  0  0  0  0  0  0  0  0  0  0  0
   51.4809    5.7060   21.0707 O   0  0  0  0  0  0  0  0  0  0  0  0
   49.3516    6.5243   16.4113 C   0  0  0  0  0  0  0  0  0  0  0  0
   49.7772    6.2940   19.4574 C   0  0  1  0  0  0  0  0  0  0  0  0
   50.7759    6.3176   18.2932 C   0  0  0  0  0  0  0  0  0  0  0  0
   48.9089    7.5014   15.3460 C   0  0  0  0  0  0  0  0  0  0  0  0
   50.2105    5.3136   20.5510 C   0  0  0  0  0  0  0  0  0  0  0  0
   47.8434    6.9042   14.4280 C   0  0  0  0  0  0  0  0  0  0  0  0
   47.4384    7.8236   13.2704 C   0  0  0  0  0  0  0  0  0  0  0  0
   46.8202    9.1464   13.7358 C   0  0  0  0  0  0  0  0  0  0  0  0
   46.3132   10.0160   12.5816 C   0  0  0  0  0  0  0  0  0  0  0  0
   45.0408    9.4689   11.9363 C   0  0  0  0  0  0  0  0  0  0  0  0
   44.5395   10.3946   10.8379 C   0  0  0  0  0  0  0  0  0  0  0  0
   49.5480    5.6861   22.4105 H   0  0  0  0  0  0  0  0  0  0  0  0
   52.5196    5.3874   21.0276 H   0  0  0  0  0  0  0  0  0  0  0  0
   48.8880    7.0809   20.3710 H   0  0  0  0  0  0  0  0  0  0  0  0
   49.4422    4.1916   19.5020 H   0  0  0  0  0  0  0  0  0  0  0  0
   47.9169    5.0112   19.3148 H   0  0  0  0  0  0  0  0  0  0  0  0
   48.8390    6.1225   15.4704 H   0  0  0  0  0  0  0  0  0  0  0  0
   50.3349    6.8703   16.0907 H   0  0  0  0  0  0  0  0  0  0  0  0
   49.1101    9.0645   16.2938 H   0  0  0  0  0  0  0  0  0  0  0  0
   47.6987    8.3415   15.5585 H   0  0  0  0  0  0  0  0  0  0  0  0
   51.0902    7.1010   21.3835 H   0  0  0  0  0  0  0  0  0  0  0  0
   51.2967    6.7421   19.6524 H   0  0  0  0  0  0  0  0  0  0  0  0
   50.4706    8.6319   14.2794 H   0  0  0  0  0  0  0  0  0  0  0  0
   49.0923    9.6616   13.9564 H   0  0  0  0  0  0  0  0  0  0  0  0
   49.4405    8.0538   12.1462 H   0  0  0  0  0  0  0  0  0  0  0  0
   49.3799    6.6926   13.2510 H   0  0  0  0  0  0  0  0  0  0  0  0
   46.9768    7.0860   13.6964 H   0  0  0  0  0  0  0  0  0  0  0  0
   47.3066    6.8812   11.9798 H   0  0  0  0  0  0  0  0  0  0  0  0
   47.3046    9.3945   11.7049 H   0  0  0  0  0  0  0  0  0  0  0  0
   46.8408    9.5525   13.4003 H   0  0  0  0  0  0  0  0  0  0  0  0
   44.8057    8.1302   12.9465 H   0  0  0  0  0  0  0  0  0  0  0  0
   45.2250    8.1209   11.2386 H   0  0  0  0  0  0  0  0  0  0  0  0
   44.6151   10.6153   12.9100 H   0  0  0  0  0  0  0  0  0  0  0  0
   43.4850    9.8074   11.8283 H   0  0  0  0  0  0  0  0  0  0  0  0
   46.0784   11.2037   10.9807 H   0  0  0  0  0  0  0  0  0  0  0  0
   45.0102   10.3097    9.8871 H   0  0  0  0  0  0  0  0  0  0  0  0
   44.4277   11.7640   10.7081 H   0  0  0  0  0  0  0  0  0  0  0  0
   49.4161    7.8834   16.5323 H   0  0  0  0  0  0  0  0  0  0  0  0
   48.8785    6.4837   13.8557 H   0  0  0  0  0  0  0  0  0  0  0  0
   47.6190    6.7168   15.0837 H   0  0  0  0  0  0  0  0  0  0  0  0
   50.8485    9.3633   15.3116 H   0  0  0  0  0  0  0  0  0  0  0  0
   49.9948    3.8197   17.7326 H   0  0  0  0  0  0  0  0  0  0  0  0
   48.2911    3.5156   17.3474 H   0  0  0  0  0  0  0  0  0  0  0  0
   48.5275   10.3416   12.4379 H   0  0  0  0  0  0  0  0  0  0  0  0
   47.1715   10.6153   13.5555 H   0  0  0  0  0  0  0  0  0  0  0  0
   51.3156    6.6851   14.4552 H   0  0  0  0  0  0  0  0  0  0  0  0
   51.7923    7.3316   16.0122 H   0  0  0  0  0  0  0  0  0  0  0  0
   48.5848    3.0140   19.6898 H   0  0  0  0  0  0  0  0  0  0  0  0
   47.6779    4.5245   19.6180 H   0  0  0  0  0  0  0  0  0  0  0  0
   46.8229    9.5524   10.7008 H   0  0  0  0  0  0  0  0  0  0  0  0
   46.8186   11.2644   11.1058 H   0  0  0  0  0  0  0  0  0  0  0  0
   51.7345    3.8588   22.6269 H   0  0  0  0  0  0  0  0  0  0  0  0
   52.1175    5.1525   23.7574 H   0  0  0  0  0  0  0  0  0  0  0  0
   43.2604   12.9630    8.5819 H   0  0  0  0  0  0  0  0  0  0  0  0
   42.2208   11.7532    9.3173 H   0  0  0  0  0  0  0  0  0  0  0  0
   45.2725   11.8420    9.5508 H   0  0  0  0  0  0  0  0  0  0  0  0
   44.1517   12.4806   10.7464 H   0  0  0  0  0  0  0  0  0  0  0  0
   49.8826    5.5065   23.6529 H   0  0  0  0  0  0  0  0  0  0  0  0
   50.3375    6.5625   22.3259 H   0  0  0  0  0  0  0  0  0  0  0  0
   44.8782   10.9543   12.6102 H   0  0  0  0  0  0  0  0  0  0  0  0
   44.9031    9.2156   12.3424 H   0  0  0  0  0  0  0  0  0  0  0  0
   44.3927    9.5365    9.9393 H   0  0  0  0  0  0  0  0  0  0  0  0
   43.1462   10.1769   11.0100 H   0  0  0  0  0  0  0  0  0  0  0  0
   49.8778    5.7782   19.9493 H   0  0  0  0  0  0  0  0  0  0  0  0
   50.6826    4.2177   20.1013 H   0  0  0  0  0  0  0  0  0  0  0  0
   48.3655    5.1152   21.8735 H   0  0  0  0  0  0  0  0  0  0  0  0
   49.3316    3.6668   22.0948 H   0  0  0  0  0  0  0  0  0  0  0  0
   52.4345    5.3933   20.7205 H   0  0  0  0  0  0  0  0  0  0  0  0
   53.7189    5.1668   21.9227 H   0  0  0  0  0  0  0  0  0  0  0  0
   52.7743    6.6707   21.9156 H   0  0  0  0  0  0  0  0  0  0  0  0
   44.4100   11.1779    7.2445 H   0  0  0  0  0  0  0  0  0  0  0  0
   42.6680   11.2742    6.9229 H   0  0  0  0  0  0  0  0  0  0  0  0
   43.2982    9.9666    7.9349 H   0  0  0  0  0  0  0  0  0  0  0  0
   50.5019    7.7229   20.5489 H   0  0  0  0  0  0  0  0  0  0  0  0
   52.1195    5.0078   20.8319 H   0  0  0  0  0  0  0  0  0  0  0  0
   48.7731    6.0370   19.1105 H   0  0  0  0  0  0  0  0  0  0  0  0
   51.7195    6.7803   18.6040 H   0  0  0  0  0  0  0  0  0  0  0  0
   51.0059    5.3077   17.9338 H   0  0  0  0  0  0  0  0  0  0  0  0
   49.7897    7.7860   14.7603 H   0  0  0  0  0  0  0  0  0  0  0  0
   48.5149    8.3819   15.8573 H   0  0  0  0  0  0  0  0  0  0  0  0
   49.5077    5.3450   21.3885 H   0  0  0  0  0  0  0  0  0  0  0  0
   50.2639    4.2864   20.1767 H   0  0  0  0  0  0  0  0  0  0  0  0
   48.2207    5.9659   14.0019 H   0  0  0  0  0  0  0  0  0  0  0  0
   46.9521    6.6456   15.0158 H   0  0  0  0  0  0  0  0  0  0  0  0
   46.7201    7.2765   12.6506 H   0  0  0  0  0  0  0  0  0  0  0  0
   48.3143    8.0300   12.6417 H   0  0  0  0  0  0  0  0  0  0  0  0
   46.0006    8.9503   14.4366 H   0  0  0  0  0  0  0  0  0  0  0  0
   47.5735    9.7266   14.2806 H   0  0  0  0  0  0  0  0  0  0  0  0
   47.1013   10.1259   11.8267 H   0  0  0  0  0  0  0  0  0  0  0  0
   46.1057   11.0218   12.9741 H   0  0  0  0  0  0  0  0  0  0  0  0
   44.2595    9.3570   12.6985 H   0  0  0  0  0  0  0  0  0  0  0  0
   45.2160    8.4775   11.5045 H   0  0  0  0  0  0  0  0  0  0  0  0
   43.6055   10.0098   10.4168 H   0  0  0  0  0  0  0  0  0  0  0  0
   44.3468   11.3980   11.2275 H   0  0  0  0  0  0  0  0  0  0  0  0
   45.2717   10.4736   10.0296 H   0  0  0  0  0  0  0  0  0  0  0  0
  1  5  1  0
  1  7  1  0
  2  5  2  0
  3  6  1  0
  4 10  1  0
  5  8  1  0
  6  7  1  0
  6 10  1  0
  8  9  1  0
  9 11  1  0
 11 12  1  0
 12 13  1  0
 13 14  1  0
 14 15  1  0
 15 16  1  0
 16 17  1  0
 19 23  1  0
 20 18  1  0
 21 18  2  0
 22 19  2  0
 23 25  1  0
 24 20  1  0
 25 24  1  0
 26 29  1  0
 27 18  1  0
 28 19  1  0
 29 24  1  0
 30 27  1  0
 31 28  1  0
 32 35  1  0
 33 34  1  0
 34 37  1  0
 35 39  1  0
 36 31  1  0
 37 36  1  0
 38 30  1  0
 39 38  1  0
 40 32  1  0
 41 33  1  0
 42 46  1  0
 42 48  1  0
 43 46  2  0
 44 47  1  0
 45 50  1  0
 46 49  1  0
 47 48  1  0
 47 50  1  0
 49 51  1  0
 51 52  1  0
 52 53  1  0
 53 54  1  0
 54 55  1  0
 55 56  1  0
  3 57  1  0
  4 58  1  0
  6 59  1  1
  7 60  1  0
  7 61  1  0
  8 62  1  0
  8 63  1  0
  9 64  1  0
  9 65  1  0
 10 66  1  0
 10 67  1  0
 11 68  1  0
 11 69  1  0
 12 70  1  0
 12 71  1  0
 13 72  1  0
 13 73  1  0
 14 74  1  0
 14 75  1  0
 15 76  1  0
 15 77  1  0
 16 78  1  0
 16 79  1  0
 17 80  1  0
 17 81  1  0
 17 82  1  0
 24 83  1  1
 25 84  1  0
 25 85  1  0
 26 86  1  0
 27 87  1  0
 27 88  1  0
 28 89  1  0
 28 90  1  0
 29 91  1  0
 29 92  1  0
 30 93  1  0
 30 94  1  0
 31 95  1  0
 31 96  1  0
 32 97  1  0
 32 98  1  0
 33 99  1  0
 33100  1  0
 34101  1  0
 34102  1  0
 35103  1  0
 35104  1  0
 36105  1  0
 36106  1  0
 37107  1  0
 37108  1  0
 38109  1  0
 38110  1  0
 39111  1  0
 39112  1  0
 40113  1  0
 40114  1  0
 40115  1  0
 41116  1  0
 41117  1  0
 41118  1  0
 44119  1  0
 45120  1  0
 47121  1  6
 48122  1  0
 48123  1  0
 49124  1  0
 49125  1  0
 50126  1  0
 50127  1  0
 51128  1  0
 51129  1  0
 52130  1  0
 52131  1  0
 53132  1  0
 53133  1  0
 54134  1  0
 54135  1  0
 55136  1  0
 55137  1  0
 56138  1  0
 56139  1  0
 56140  1  0
M  END
> <Uni-Dock RESULT> 
ENERGY=   -6.983  LOWER_BOUND=    0.000  UPPER_BOUND=    0.000
INTER + INTRA:          -6.983
INTER:                  -6.983
INTRA:                   0.000
UNBOUND:                 0.000

$$$$

     RDKit          3D

140137  0  0  0  0  0  0  0  0999 V2000
   46.9445   15.7233   13.2249 O   0  0  0  0  0  0  0  0  0  0  0  0
   46.7225   13.4438   13.3959 O   0  0  0  0  0  0  0  0  0  0  0  0
   45.8033   15.2053    9.7343 O   0  0  0  0  0  0  0  0  0  0  0  0
   47.8042   17.1793   10.0145 O   0  0  0  0  0  0  0  0  0  0  0  0
   47.1308   14.5153   13.8271 C   0  0  0  0  0  0  0  0  0  0  0  0
   46.7491   15.1370   10.8098 C   0  0  2  0  0  0  0  0  0  0  0  0
   46.0951   15.7272   12.0646 C   0  0  0  0  0  0  0  0  0  0  0  0
   47.9001   14.7087   15.1127 C   0  0  0  0  0  0  0  0  0  0  0  0
   48.4701   13.3876   15.6271 C   0  0  0  0  0  0  0  0  0  0  0  0
   48.0594   15.8397   10.4283 C   0  0  0  0  0  0  0  0  0  0  0  0
   49.3691   13.5615   16.8552 C   0  0  0  0  0  0  0  0  0  0  0  0
   48.6820   14.1395   18.0982 C   0  0  0  0  0  0  0  0  0  0  0  0
   47.4700   13.3501   18.6105 C   0  0  0  0  0  0  0  0  0  0  0  0
   47.8042   11.8976   18.9621 C   0  0  0  0  0  0  0  0  0  0  0  0
   46.6106   11.1831   19.5984 C   0  0  0  0  0  0  0  0  0  0  0  0
   46.8525    9.6903   19.8332 C   0  0  0  0  0  0  0  0  0  0  0  0
   47.9539    9.4030   20.8415 C   0  0  0  0  0  0  0  0  0  0  0  0
   46.5180   15.4349   13.9986 C   0  0  0  0  0  0  0  0  0  0  0  0
   48.1448   12.6159   18.2656 C   0  0  0  0  0  0  0  0  0  0  0  0
   47.5314   15.8599   14.8018 O   0  0  0  0  0  0  0  0  0  0  0  0
   46.2896   14.2653   13.7259 O   0  0  0  0  0  0  0  0  0  0  0  0
   47.2991   13.1112   18.9940 O   0  0  0  0  0  0  0  0  0  0  0  0
   48.4568   13.0640   17.0169 O   0  0  0  0  0  0  0  0  0  0  0  0
   48.3775   14.8228   15.3413 C   0  0  2  0  0  0  0  0  0  0  0  0
   47.7386   14.2362   16.6086 C   0  0  0  0  0  0  0  0  0  0  0  0
   50.7134   14.5340   16.1002 O   0  0  0  0  0  0  0  0  0  0  0  0
   45.7023   16.6143   13.5213 C   0  0  0  0  0  0  0  0  0  0  0  0
   49.0267   11.4348   18.6038 C   0  0  0  0  0  0  0  0  0  0  0  0
   49.7468   15.4613   15.6253 C   0  0  0  0  0  0  0  0  0  0  0  0
   45.1427   16.3938   12.1154 C   0  0  0  0  0  0  0  0  0  0  0  0
   48.6712   10.7710   19.9333 C   0  0  0  0  0  0  0  0  0  0  0  0
   47.4886   17.3315    8.2362 C   0  0  0  0  0  0  0  0  0  0  0  0
   47.5034    7.6027   23.0048 C   0  0  0  0  0  0  0  0  0  0  0  0
   48.0037    8.3362   21.7598 C   0  0  0  0  0  0  0  0  0  0  0  0
   46.7426   16.0337    8.5615 C   0  0  0  0  0  0  0  0  0  0  0  0
   47.4042    9.9164   19.8413 C   0  0  0  0  0  0  0  0  0  0  0  0
   46.9768    9.3163   21.1871 C   0  0  0  0  0  0  0  0  0  0  0  0
   46.2368   16.4564   11.0444 C   0  0  0  0  0  0  0  0  0  0  0  0
   45.6759   16.1639    9.6552 C   0  0  0  0  0  0  0  0  0  0  0  0
   48.8019   17.4855    8.9948 C   0  0  0  0  0  0  0  0  0  0  0  0
   47.3288    8.5089   24.2131 C   0  0  0  0  0  0  0  0  0  0  0  0
   48.6367   15.1063   13.8271 O   0  0  0  0  0  0  0  0  0  0  0  0
   46.6578   15.7255   14.8083 O   0  0  0  0  0  0  0  0  0  0  0  0
   47.9753   14.1631   11.1386 O   0  0  0  0  0  0  0  0  0  0  0  0
   48.0355   16.6880    9.8895 O   0  0  0  0  0  0  0  0  0  0  0  0
   47.6901   15.0712   14.8069 C   0  0  0  0  0  0  0  0  0  0  0  0
   47.3497   15.3028   11.7502 C   0  0  1  0  0  0  0  0  0  0  0  0
   48.3428   15.9666   12.7127 C   0  0  0  0  0  0  0  0  0  0  0  0
   48.1236   14.1007   15.8820 C   0  0  0  0  0  0  0  0  0  0  0  0
   46.9020   16.2683   10.6492 C   0  0  0  0  0  0  0  0  0  0  0  0
   47.0949   13.9947   17.0067 C   0  0  0  0  0  0  0  0  0  0  0  0
   47.5388   13.0990   18.1686 C   0  0  0  0  0  0  0  0  0  0  0  0
   47.7780   11.6433   17.7536 C   0  0  0  0  0  0  0  0  0  0  0  0
   48.1120   10.7254   18.9332 C   0  0  0  0  0  0  0  0  0  0  0  0
   46.9053   10.4360   19.8247 C   0  0  0  0  0  0  0  0  0  0  0  0
   47.2680    9.4732   20.9456 C   0  0  0  0  0  0  0  0  0  0  0  0
   46.2885   15.4454    8.9225 H   0  0  0  0  0  0  0  0  0  0  0  0
   48.6569   17.5711    9.7616 H   0  0  0  0  0  0  0  0  0  0  0  0
   46.9760   14.0785   10.9718 H   0  0  0  0  0  0  0  0  0  0  0  0
   45.8093   16.7674   11.8766 H   0  0  0  0  0  0  0  0  0  0  0  0
   45.1534   15.2085   12.2922 H   0  0  0  0  0  0  0  0  0  0  0  0
   47.2130   15.1453   15.8444 H   0  0  0  0  0  0  0  0  0  0  0  0
   48.7193   15.4119   14.9268 H   0  0  0  0  0  0  0  0  0  0  0  0
   49.0606   12.9158   14.8331 H   0  0  0  0  0  0  0  0  0  0  0  0
   47.6551   12.6883   15.8472 H   0  0  0  0  0  0  0  0  0  0  0  0
   48.5218   15.3227    9.5797 H   0  0  0  0  0  0  0  0  0  0  0  0
   48.7670   15.8508   11.2618 H   0  0  0  0  0  0  0  0  0  0  0  0
   50.2070   14.2184   16.5895 H   0  0  0  0  0  0  0  0  0  0  0  0
   49.8160   12.5905   17.1011 H   0  0  0  0  0  0  0  0  0  0  0  0
   49.4292   14.2016   18.9005 H   0  0  0  0  0  0  0  0  0  0  0  0
   48.3655   15.1707   17.8973 H   0  0  0  0  0  0  0  0  0  0  0  0
   46.6595   13.3771   17.8718 H   0  0  0  0  0  0  0  0  0  0  0  0
   47.0913   13.8562   19.5093 H   0  0  0  0  0  0  0  0  0  0  0  0
   48.6589   11.8776   19.6485 H   0  0  0  0  0  0  0  0  0  0  0  0
   48.0984   11.3561   18.0583 H   0  0  0  0  0  0  0  0  0  0  0  0
   45.7362   11.2884   18.9447 H   0  0  0  0  0  0  0  0  0  0  0  0
   46.3543   11.6657   20.5474 H   0  0  0  0  0  0  0  0  0  0  0  0
   47.0987    9.2019   18.8850 H   0  0  0  0  0  0  0  0  0  0  0  0
   45.9207    9.2354   20.1931 H   0  0  0  0  0  0  0  0  0  0  0  0
   48.9280    9.7498   20.4859 H   0  0  0  0  0  0  0  0  0  0  0  0
   47.7481    9.8899   21.7992 H   0  0  0  0  0  0  0  0  0  0  0  0
   48.0327    8.3269   21.0216 H   0  0  0  0  0  0  0  0  0  0  0  0
   48.5417   14.0224   14.6054 H   0  0  0  0  0  0  0  0  0  0  0  0
   47.7441   14.9927   17.4045 H   0  0  0  0  0  0  0  0  0  0  0  0
   46.6927   13.9632   16.4128 H   0  0  0  0  0  0  0  0  0  0  0  0
   50.7630   13.7950   15.4693 H   0  0  0  0  0  0  0  0  0  0  0  0
   46.3221   17.5174   13.5345 H   0  0  0  0  0  0  0  0  0  0  0  0
   44.8821   16.7569   14.2355 H   0  0  0  0  0  0  0  0  0  0  0  0
   50.0540   11.8133   18.6588 H   0  0  0  0  0  0  0  0  0  0  0  0
   48.9715   10.7010   17.7908 H   0  0  0  0  0  0  0  0  0  0  0  0
   49.6542   16.2628   16.3664 H   0  0  0  0  0  0  0  0  0  0  0  0
   50.1440   15.9306   14.7174 H   0  0  0  0  0  0  0  0  0  0  0  0
   44.3978   17.1724   11.9079 H   0  0  0  0  0  0  0  0  0  0  0  0
   44.6202   15.4301   12.0628 H   0  0  0  0  0  0  0  0  0  0  0  0
   48.5556   11.5300   20.7132 H   0  0  0  0  0  0  0  0  0  0  0  0
   49.5177   10.1399   20.2267 H   0  0  0  0  0  0  0  0  0  0  0  0
   46.8428   18.2019    8.4118 H   0  0  0  0  0  0  0  0  0  0  0  0
   47.7260   17.3282    7.1648 H   0  0  0  0  0  0  0  0  0  0  0  0
   48.2228    6.8152   23.2576 H   0  0  0  0  0  0  0  0  0  0  0  0
   46.5548    7.0984   22.7856 H   0  0  0  0  0  0  0  0  0  0  0  0
   48.9380    8.8541   22.0023 H   0  0  0  0  0  0  0  0  0  0  0  0
   48.2454    7.5885   20.9962 H   0  0  0  0  0  0  0  0  0  0  0  0
   46.2228   15.7051    7.6512 H   0  0  0  0  0  0  0  0  0  0  0  0
   47.4468   15.2316    8.8176 H   0  0  0  0  0  0  0  0  0  0  0  0
   47.5605    9.1119   19.1144 H   0  0  0  0  0  0  0  0  0  0  0  0
   46.5742   10.5264   19.4638 H   0  0  0  0  0  0  0  0  0  0  0  0
   46.7914   10.1277   21.8995 H   0  0  0  0  0  0  0  0  0  0  0  0
   46.0241    8.7933   21.0386 H   0  0  0  0  0  0  0  0  0  0  0  0
   47.0298   15.7396   11.2759 H   0  0  0  0  0  0  0  0  0  0  0  0
   46.6839   17.4545   11.0632 H   0  0  0  0  0  0  0  0  0  0  0  0
   45.1182   15.2217    9.6926 H   0  0  0  0  0  0  0  0  0  0  0  0
   44.9533   16.9403    9.3770 H   0  0  0  0  0  0  0  0  0  0  0  0
   48.6479   17.5360   10.0783 H   0  0  0  0  0  0  0  0  0  0  0  0
   49.2986   18.4090    8.6780 H   0  0  0  0  0  0  0  0  0  0  0  0
   49.4765   16.6447    8.7764 H   0  0  0  0  0  0  0  0  0  0  0  0
   48.2686    9.0186   24.4577 H   0  0  0  0  0  0  0  0  0  0  0  0
   47.0301    7.9125   25.0821 H   0  0  0  0  0  0  0  0  0  0  0  0
   46.5515    9.2624   24.0428 H   0  0  0  0  0  0  0  0  0  0  0  0
   48.5870   14.5307   10.4730 H   0  0  0  0  0  0  0  0  0  0  0  0
   48.1505   17.6444   10.0456 H   0  0  0  0  0  0  0  0  0  0  0  0
   46.4748   14.9245   12.2852 H   0  0  0  0  0  0  0  0  0  0  0  0
   49.3015   16.1473   12.2135 H   0  0  0  0  0  0  0  0  0  0  0  0
   47.9729   16.9321   13.0772 H   0  0  0  0  0  0  0  0  0  0  0  0
   49.0822   14.4464   16.2839 H   0  0  0  0  0  0  0  0  0  0  0  0
   48.2613   13.1285   15.4046 H   0  0  0  0  0  0  0  0  0  0  0  0
   46.2290   15.7619    9.9514 H   0  0  0  0  0  0  0  0  0  0  0  0
   46.3871   17.1421   11.0609 H   0  0  0  0  0  0  0  0  0  0  0  0
   46.8943   14.9969   17.4063 H   0  0  0  0  0  0  0  0  0  0  0  0
   46.1435   13.6219   16.6032 H   0  0  0  0  0  0  0  0  0  0  0  0
   46.7580   13.1424   18.9353 H   0  0  0  0  0  0  0  0  0  0  0  0
   48.4537   13.5069   18.6177 H   0  0  0  0  0  0  0  0  0  0  0  0
   46.9005   11.2564   17.2231 H   0  0  0  0  0  0  0  0  0  0  0  0
   48.6192   11.5999   17.0526 H   0  0  0  0  0  0  0  0  0  0  0  0
   48.9224   11.1655   19.5272 H   0  0  0  0  0  0  0  0  0  0  0  0
   48.4912    9.7745   18.5325 H   0  0  0  0  0  0  0  0  0  0  0  0
   46.0978   10.0012   19.2225 H   0  0  0  0  0  0  0  0  0  0  0  0
   46.5167   11.3588   20.2691 H   0  0  0  0  0  0  0  0  0  0  0  0
   46.3832    9.2438   21.5474 H   0  0  0  0  0  0  0  0  0  0  0  0
   47.6577    8.5333   20.5451 H   0  0  0  0  0  0  0  0  0  0  0  0
   48.0255    9.9077   21.6036 H   0  0  0  0  0  0  0  0  0  0  0  0
  1  5  1  0
  1  7  1  0
  2  5  2  0
  3  6  1  0
  4 10  1  0
  5  8  1  0
  6  7  1  0
  6 10  1  0
  8  9  1  0
  9 11  1  0
 11 12  1  0
 12 13  1  0
 13 14  1  0
 14 15  1  0
 15 16  1  0
 16 17  1  0
 19 23  1  0
 20 18  1  0
 21 18  2  0
 22 19  2  0
 23 25  1  0
 24 20  1  0
 25 24  1  0
 26 29  1  0
 27 18  1  0
 28 19  1  0
 29 24  1  0
 30 27  1  0
 31 28  1  0
 32 35  1  0
 33 34  1  0
 34 37  1  0
 35 39  1  0
 36 31  1  0
 37 36  1  0
 38 30  1  0
 39 38  1  0
 40 32  1  0
 41 33  1  0
 42 46  1  0
 42 48  1  0
 43 46  2  0
 44 47  1  0
 45 50  1  0
 46 49  1  0
 47 48  1  0
 47 50  1  0
 49 51  1  0
 51 52  1  0
 52 53  1  0
 53 54  1  0
 54 55  1  0
 55 56  1  0
  3 57  1  0
  4 58  1  0
  6 59  1  1
  7 60  1  0
  7 61  1  0
  8 62  1  0
  8 63  1  0
  9 64  1  0
  9 65  1  0
 10 66  1  0
 10 67  1  0
 11 68  1  0
 11 69  1  0
 12 70  1  0
 12 71  1  0
 13 72  1  0
 13 73  1  0
 14 74  1  0
 14 75  1  0
 15 76  1  0
 15 77  1  0
 16 78  1  0
 16 79  1  0
 17 80  1  0
 17 81  1  0
 17 82  1  0
 24 83  1  1
 25 84  1  0
 25 85  1  0
 26 86  1  0
 27 87  1  0
 27 88  1  0
 28 89  1  0
 28 90  1  0
 29 91  1  0
 29 92  1  0
 30 93  1  0
 30 94  1  0
 31 95  1  0
 31 96  1  0
 32 97  1  0
 32 98  1  0
 33 99  1  0
 33100  1  0
 34101  1  0
 34102  1  0
 35103  1  0
 35104  1  0
 36105  1  0
 36106  1  0
 37107  1  0
 37108  1  0
 38109  1  0
 38110  1  0
 39111  1  0
 39112  1  0
 40113  1  0
 40114  1  0
 40115  1  0
 41116  1  0
 41117  1  0
 41118  1  0
 44119  1  0
 45120  1  0
 47121  1  6
 48122  1  0
 48123  1  0
 49124  1  0
 49125  1  0
 50126  1  0
 50127  1  0
 51128  1  0
 51129  1  0
 52130  1  0
 52131  1  0
 53132  1  0
 53133  1  0
 54134  1  0
 54135  1  0
 55136  1  0
 55137  1  0
 56138  1  0
 56139  1  0
 56140  1  0
M  END
> <Uni-Dock RESULT> 
ENERGY=   -6.560  LOWER_BOUND=    5.690  UPPER_BOUND=   11.238
INTER + INTRA:          -6.560
INTER:                  -6.560
INTRA:                   0.000
UNBOUND:                 0.000

$$$$

     RDKit          3D

140137  0  0  0  0  0  0  0  0999 V2000
   49.4003   10.7977   18.5755 O   0  0  0  0  0  0  0  0  0  0  0  0
   47.4878   11.0394   17.3271 O   0  0  0  0  0  0  0  0  0  0  0  0
   47.9635   13.5273   20.6346 O   0  0  0  0  0  0  0  0  0  0  0  0
   50.7634   13.6859   20.2976 O   0  0  0  0  0  0  0  0  0  0  0  0
   48.6210   10.5984   17.4757 C   0  0  0  0  0  0  0  0  0  0  0  0
   48.5892   12.9802   19.4662 C   0  0  2  0  0  0  0  0  0  0  0  0
   48.7746   11.4734   19.6799 C   0  0  0  0  0  0  0  0  0  0  0  0
   49.3651    9.7368   16.4828 C   0  0  0  0  0  0  0  0  0  0  0  0
   48.7224    9.7978   15.0978 C   0  0  0  0  0  0  0  0  0  0  0  0
   49.9046   13.7099   19.1606 C   0  0  0  0  0  0  0  0  0  0  0  0
   49.5247    9.0448   14.0320 C   0  0  0  0  0  0  0  0  0  0  0  0
   49.6793    7.5373   14.2665 C   0  0  0  0  0  0  0  0  0  0  0  0
   48.3680    6.7509   14.3958 C   0  0  0  0  0  0  0  0  0  0  0  0
   47.4626    6.8866   13.1683 C   0  0  0  0  0  0  0  0  0  0  0  0
   46.2334    5.9820   13.2722 C   0  0  0  0  0  0  0  0  0  0  0  0
   45.2288    6.1915   12.1369 C   0  0  0  0  0  0  0  0  0  0  0  0
   45.7707    5.8149   10.7669 C   0  0  0  0  0  0  0  0  0  0  0  0
   48.9872    9.9978   18.3450 C   0  0  0  0  0  0  0  0  0  0  0  0
   48.1689    7.4912   13.6708 C   0  0  0  0  0  0  0  0  0  0  0  0
   50.0163    9.6149   17.5405 O   0  0  0  0  0  0  0  0  0  0  0  0
   47.9017   10.3937   17.9458 O   0  0  0  0  0  0  0  0  0  0  0  0
   48.1125    6.3914   14.1986 O   0  0  0  0  0  0  0  0  0  0  0  0
   48.5924    8.6305   14.2874 O   0  0  0  0  0  0  0  0  0  0  0  0
   49.7678    9.7073   16.1220 C   0  0  2  0  0  0  0  0  0  0  0  0
   49.0378    8.4459   15.6380 C   0  0  0  0  0  0  0  0  0  0  0  0
   51.0375   10.0619   14.0297 O   0  0  0  0  0  0  0  0  0  0  0  0
   49.3722    9.8325   19.7972 C   0  0  0  0  0  0  0  0  0  0  0  0
   47.8097    7.8074   12.2362 C   0  0  0  0  0  0  0  0  0  0  0  0
   51.1323    9.8858   15.4367 C   0  0  0  0  0  0  0  0  0  0  0  0
   48.7231   10.8931   20.6872 C   0  0  0  0  0  0  0  0  0  0  0  0
   47.1977    6.6244   11.4874 C   0  0  0  0  0  0  0  0  0  0  0  0
   50.5209   15.0978   21.4080 C   0  0  0  0  0  0  0  0  0  0  0  0
   44.2861    4.0961    9.0446 C   0  0  0  0  0  0  0  0  0  0  0  0
   45.0495    5.2492    9.6975 C   0  0  0  0  0  0  0  0  0  0  0  0
   49.0759   14.7776   21.0126 C   0  0  0  0  0  0  0  0  0  0  0  0
   45.7439    6.3642   11.8910 C   0  0  0  0  0  0  0  0  0  0  0  0
   45.1396    5.1235   11.2204 C   0  0  0  0  0  0  0  0  0  0  0  0
   49.3372   12.2802   20.4705 C   0  0  0  0  0  0  0  0  0  0  0  0
   48.6324   13.3408   21.3122 C   0  0  0  0  0  0  0  0  0  0  0  0
   51.5153   14.9360   20.2640 C   0  0  0  0  0  0  0  0  0  0  0  0
   45.0081    2.7613    9.1383 C   0  0  0  0  0  0  0  0  0  0  0  0
   50.0043   11.0949   16.7996 O   0  0  0  0  0  0  0  0  0  0  0  0
   49.3784    9.2768   18.0506 O   0  0  0  0  0  0  0  0  0  0  0  0
   48.6021   13.4028   17.9231 O   0  0  0  0  0  0  0  0  0  0  0  0
   50.5059   13.9967   19.9133 O   0  0  0  0  0  0  0  0  0  0  0  0
   49.4930    9.8437   16.9739 C   0  0  0  0  0  0  0  0  0  0  0  0
   49.1757   12.3604   18.7284 C   0  0  1  0  0  0  0  0  0  0  0  0
   50.3955   11.7772   18.0036 C   0  0  0  0  0  0  0  0  0  0  0  0
   49.0965    9.2773   15.6295 C   0  0  0  0  0  0  0  0  0  0  0  0
   49.5571   12.9450   20.0914 C   0  0  0  0  0  0  0  0  0  0  0  0
   48.4932    7.8789   15.7523 C   0  0  0  0  0  0  0  0  0  0  0  0
   48.1702    7.2240   14.4047 C   0  0  0  0  0  0  0  0  0  0  0  0
   47.1311    7.9999   13.5882 C   0  0  0  0  0  0  0  0  0  0  0  0
   46.7253    7.2886   12.2940 C   0  0  0  0  0  0  0  0  0  0  0  0
   45.8469    6.0623   12.5370 C   0  0  0  0  0  0  0  0  0  0  0  0
   45.4176    5.4244   11.2242 C   0  0  0  0  0  0  0  0  0  0  0  0
   48.3706   14.3955   20.8148 H   0  0  0  0  0  0  0  0  0  0  0  0
   51.5675   14.1789   20.0629 H   0  0  0  0  0  0  0  0  0  0  0  0
   47.9102   13.1557   18.6258 H   0  0  0  0  0  0  0  0  0  0  0  0
   49.4008   11.3006   20.5615 H   0  0  0  0  0  0  0  0  0  0  0  0
   47.8140   10.9931   19.9129 H   0  0  0  0  0  0  0  0  0  0  0  0
   49.3595    8.7122   16.8677 H   0  0  0  0  0  0  0  0  0  0  0  0
   50.4001   10.0903   16.4207 H   0  0  0  0  0  0  0  0  0  0  0  0
   48.6354   10.8452   14.7862 H   0  0  0  0  0  0  0  0  0  0  0  0
   47.6962    9.4150   15.1438 H   0  0  0  0  0  0  0  0  0  0  0  0
   49.6987   14.7623   18.9343 H   0  0  0  0  0  0  0  0  0  0  0  0
   50.4245   13.2619   18.3095 H   0  0  0  0  0  0  0  0  0  0  0  0
   50.5271    9.4865   13.9668 H   0  0  0  0  0  0  0  0  0  0  0  0
   49.0568    9.2182   13.0554 H   0  0  0  0  0  0  0  0  0  0  0  0
   50.2604    7.1224   13.4322 H   0  0  0  0  0  0  0  0  0  0  0  0
   50.2784    7.3651   15.1694 H   0  0  0  0  0  0  0  0  0  0  0  0
   47.8245    7.0643   15.2955 H   0  0  0  0  0  0  0  0  0  0  0  0
   48.6211    5.6909   14.5365 H   0  0  0  0  0  0  0  0  0  0  0  0
   48.0336    6.6362   12.2664 H   0  0  0  0  0  0  0  0  0  0  0  0
   47.1296    7.9236   13.0665 H   0  0  0  0  0  0  0  0  0  0  0  0
   45.7205    6.1771   14.2219 H   0  0  0  0  0  0  0  0  0  0  0  0
   46.5474    4.9331   13.2936 H   0  0  0  0  0  0  0  0  0  0  0  0
   44.9041    7.2367   12.1186 H   0  0  0  0  0  0  0  0  0  0  0  0
   44.3371    5.5846   12.3398 H   0  0  0  0  0  0  0  0  0  0  0  0
   46.6036    6.4584   10.4707 H   0  0  0  0  0  0  0  0  0  0  0  0
   46.1198    4.7782   10.7527 H   0  0  0  0  0  0  0  0  0  0  0  0
   44.9893    5.9168   10.0082 H   0  0  0  0  0  0  0  0  0  0  0  0
   49.1679   10.5970   15.8819 H   0  0  0  0  0  0  0  0  0  0  0  0
   49.7123    7.5826   15.7106 H   0  0  0  0  0  0  0  0  0  0  0  0
   48.1665    8.2453   16.2762 H   0  0  0  0  0  0  0  0  0  0  0  0
   50.4261   10.7981   13.8548 H   0  0  0  0  0  0  0  0  0  0  0  0
   50.4619    9.8848   19.8952 H   0  0  0  0  0  0  0  0  0  0  0  0
   49.0524    8.8310   20.1097 H   0  0  0  0  0  0  0  0  0  0  0  0
   48.7392    8.1025   11.7357 H   0  0  0  0  0  0  0  0  0  0  0  0
   47.1210    8.6605   12.2180 H   0  0  0  0  0  0  0  0  0  0  0  0
   51.7772    9.0208   15.6267 H   0  0  0  0  0  0  0  0  0  0  0  0
   51.6570   10.7539   15.8528 H   0  0  0  0  0  0  0  0  0  0  0  0
   48.8617   10.6035   21.7365 H   0  0  0  0  0  0  0  0  0  0  0  0
   47.6412   10.9288   20.5061 H   0  0  0  0  0  0  0  0  0  0  0  0
   47.7988    5.7246   11.6507 H   0  0  0  0  0  0  0  0  0  0  0  0
   47.2453    6.8486   10.4157 H   0  0  0  0  0  0  0  0  0  0  0  0
   50.8287   14.4904   22.2692 H   0  0  0  0  0  0  0  0  0  0  0  0
   50.5607   16.1453   21.7328 H   0  0  0  0  0  0  0  0  0  0  0  0
   44.1294    4.3370    7.9869 H   0  0  0  0  0  0  0  0  0  0  0  0
   43.2901    4.0056    9.4938 H   0  0  0  0  0  0  0  0  0  0  0  0
   46.0498    5.3104    9.2553 H   0  0  0  0  0  0  0  0  0  0  0  0
   44.5356    6.1842    9.4480 H   0  0  0  0  0  0  0  0  0  0  0  0
   48.4135   15.4388   21.5878 H   0  0  0  0  0  0  0  0  0  0  0  0
   48.8988   15.0124   19.9551 H   0  0  0  0  0  0  0  0  0  0  0  0
   45.1368    7.2435   11.6497 H   0  0  0  0  0  0  0  0  0  0  0  0
   45.6816    6.2258   12.9775 H   0  0  0  0  0  0  0  0  0  0  0  0
   45.7330    4.2436   11.4919 H   0  0  0  0  0  0  0  0  0  0  0  0
   44.1330    4.9727   11.6292 H   0  0  0  0  0  0  0  0  0  0  0  0
   49.2790   12.5553   19.4136 H   0  0  0  0  0  0  0  0  0  0  0  0
   50.3970   12.2359   20.7379 H   0  0  0  0  0  0  0  0  0  0  0  0
   47.5546   13.2776   21.1264 H   0  0  0  0  0  0  0  0  0  0  0  0
   48.7760   13.1234   22.3773 H   0  0  0  0  0  0  0  0  0  0  0  0
   51.5646   13.9022   19.9047 H   0  0  0  0  0  0  0  0  0  0  0  0
   52.5146   15.2252   20.6072 H   0  0  0  0  0  0  0  0  0  0  0  0
   51.2443   15.5869   19.4199 H   0  0  0  0  0  0  0  0  0  0  0  0
   46.0056    2.8246    8.6868 H   0  0  0  0  0  0  0  0  0  0  0  0
   44.4397    1.9953    8.5996 H   0  0  0  0  0  0  0  0  0  0  0  0
   45.1106    2.4306   10.1781 H   0  0  0  0  0  0  0  0  0  0  0  0
   49.2007   14.1668   18.0250 H   0  0  0  0  0  0  0  0  0  0  0  0
   51.3435   13.7026   20.3187 H   0  0  0  0  0  0  0  0  0  0  0  0
   48.3957   11.6057   18.8577 H   0  0  0  0  0  0  0  0  0  0  0  0
   51.0746   12.5769   17.6870 H   0  0  0  0  0  0  0  0  0  0  0  0
   50.9644   11.0963   18.6475 H   0  0  0  0  0  0  0  0  0  0  0  0
   49.9914    9.2439   14.9987 H   0  0  0  0  0  0  0  0  0  0  0  0
   48.3700    9.9636   15.1901 H   0  0  0  0  0  0  0  0  0  0  0  0
   48.6817   13.3925   20.5704 H   0  0  0  0  0  0  0  0  0  0  0  0
   49.9699   12.1818   20.7587 H   0  0  0  0  0  0  0  0  0  0  0  0
   49.1976    7.2290   16.2870 H   0  0  0  0  0  0  0  0  0  0  0  0
   47.5812    7.9224   16.3633 H   0  0  0  0  0  0  0  0  0  0  0  0
   47.8014    6.2132   14.6093 H   0  0  0  0  0  0  0  0  0  0  0  0
   49.0919    7.1175   13.8180 H   0  0  0  0  0  0  0  0  0  0  0  0
   46.2409    8.1894   14.1988 H   0  0  0  0  0  0  0  0  0  0  0  0
   47.5430    8.9774   13.3129 H   0  0  0  0  0  0  0  0  0  0  0  0
   47.6224    7.0039   11.7307 H   0  0  0  0  0  0  0  0  0  0  0  0
   46.1701    8.0024   11.6688 H   0  0  0  0  0  0  0  0  0  0  0  0
   44.9548    6.3543   13.1051 H   0  0  0  0  0  0  0  0  0  0  0  0
   46.3784    5.3119   13.1325 H   0  0  0  0  0  0  0  0  0  0  0  0
   44.7551    4.5747   11.4160 H   0  0  0  0  0  0  0  0  0  0  0  0
   44.8775    6.1399   10.5981 H   0  0  0  0  0  0  0  0  0  0  0  0
   46.2843    5.0623   10.6643 H   0  0  0  0  0  0  0  0  0  0  0  0
  1  5  1  0
  1  7  1  0
  2  5  2  0
  3  6  1  0
  4 10  1  0
  5  8  1  0
  6  7  1  0
  6 10  1  0
  8  9  1  0
  9 11  1  0
 11 12  1  0
 12 13  1  0
 13 14  1  0
 14 15  1  0
 15 16  1  0
 16 17  1  0
 19 23  1  0
 20 18  1  0
 21 18  2  0
 22 19  2  0
 23 25  1  0
 24 20  1  0
 25 24  1  0
 26 29  1  0
 27 18  1  0
 28 19  1  0
 29 24  1  0
 30 27  1  0
 31 28  1  0
 32 35  1  0
 33 34  1  0
 34 37  1  0
 35 39  1  0
 36 31  1  0
 37 36  1  0
 38 30  1  0
 39 38  1  0
 40 32  1  0
 41 33  1  0
 42 46  1  0
 42 48  1  0
 43 46  2  0
 44 47  1  0
 45 50  1  0
 46 49  1  0
 47 48  1  0
 47 50  1  0
 49 51  1  0
 51 52  1  0
 52 53  1  0
 53 54  1  0
 54 55  1  0
 55 56  1  0
  3 57  1  0
  4 58  1  0
  6 59  1  1
  7 60  1  0
  7 61  1  0
  8 62  1  0
  8 63  1  0
  9 64  1  0
  9 65  1  0
 10 66  1  0
 10 67  1  0
 11 68  1  0
 11 69  1  0
 12 70  1  0
 12 71  1  0
 13 72  1  0
 13 73  1  0
 14 74  1  0
 14 75  1  0
 15 76  1  0
 15 77  1  0
 16 78  1  0
 16 79  1  0
 17 80  1  0
 17 81  1  0
 17 82  1  0
 24 83  1  1
 25 84  1  0
 25 85  1  0
 26 86  1  0
 27 87  1  0
 27 88  1  0
 28 89  1  0
 28 90  1  0
 29 91  1  0
 29 92  1  0
 30 93  1  0
 30 94  1  0
 31 95  1  0
 31 96  1  0
 32 97  1  0
 32 98  1  0
 33 99  1  0
 33100  1  0
 34101  1  0
 34102  1  0
 35103  1  0
 35104  1  0
 36105  1  0
 36106  1  0
 37107  1  0
 37108  1  0
 38109  1  0
 38110  1  0
 39111  1  0
 39112  1  0
 40113  1  0
 40114  1  0
 40115  1  0
 41116  1  0
 41117  1  0
 41118  1  0
 44119  1  0
 45120  1  0
 47121  1  6
 48122  1  0
 48123  1  0
 49124  1  0
 49125  1  0
 50126  1  0
 50127  1  0
 51128  1  0
 51129  1  0
 52130  1  0
 52131  1  0
 53132  1  0
 53133  1  0
 54134  1  0
 54135  1  0
 55136  1  0
 55137  1  0
 56138  1  0
 56139  1  0
 56140  1  0
M  END
> <Uni-Dock RESULT> 
ENERGY=   -6.390  LOWER_BOUND=    4.154  UPPER_BOUND=    5.301
INTER + INTRA:          -6.390
INTER:                  -6.390
INTRA:                   0.000
UNBOUND:                 0.000

$$$$

     RDKit          3D

140137  0  0  0  0  0  0  0  0999 V2000
   48.5770    6.4765   18.6958 O   0  0  0  0  0  0  0  0  0  0  0  0
   47.9956    8.6717   18.3527 O   0  0  0  0  0  0  0  0  0  0  0  0
   47.6731    7.1700   22.2252 O   0  0  0  0  0  0  0  0  0  0  0  0
   49.9206    5.4870   21.9177 O   0  0  0  0  0  0  0  0  0  0  0  0
   48.5243    7.6327   17.9766 C   0  0  0  0  0  0  0  0  0  0  0  0
   48.5018    7.2664   21.0590 C   0  0  2  0  0  0  0  0  0  0  0  0
   47.8407    6.4660   19.9309 C   0  0  0  0  0  0  0  0  0  0  0  0
   49.2013    7.4250   16.6422 C   0  0  0  0  0  0  0  0  0  0  0  0
   49.5166    8.7565   15.9621 C   0  0  0  0  0  0  0  0  0  0  0  0
   49.9318    6.8014   21.3671 C   0  0  0  0  0  0  0  0  0  0  0  0
   50.3232    8.5924   14.6702 C   0  0  0  0  0  0  0  0  0  0  0  0
   49.6286    7.8003   13.5559 C   0  0  0  0  0  0  0  0  0  0  0  0
   48.2709    8.3519   13.1009 C   0  0  0  0  0  0  0  0  0  0  0  0
   48.3480    9.7950   12.5945 C   0  0  0  0  0  0  0  0  0  0  0  0
   47.0092   10.2631   12.0211 C   0  0  0  0  0  0  0  0  0  0  0  0
   46.9993   11.7442   11.6362 C   0  0  0  0  0  0  0  0  0  0  0  0
   47.9535   12.0853   10.5024 C   0  0  0  0  0  0  0  0  0  0  0  0
   48.0468    6.6219   17.9465 C   0  0  0  0  0  0  0  0  0  0  0  0
   48.8527    9.2063   13.3126 C   0  0  0  0  0  0  0  0  0  0  0  0
   49.0407    6.2695   17.0858 O   0  0  0  0  0  0  0  0  0  0  0  0
   47.6666    7.7677   18.1392 O   0  0  0  0  0  0  0  0  0  0  0  0
   48.0333    8.5242   12.7172 O   0  0  0  0  0  0  0  0  0  0  0  0
   49.3351    8.9345   14.5579 O   0  0  0  0  0  0  0  0  0  0  0  0
   49.6692    7.3586   16.3778 C   0  0  2  0  0  0  0  0  0  0  0  0
   48.8420    7.7177   15.1347 C   0  0  0  0  0  0  0  0  0  0  0  0
   51.8599    7.9038   15.3683 O   0  0  0  0  0  0  0  0  0  0  0  0
   47.4647    5.3908   18.6020 C   0  0  0  0  0  0  0  0  0  0  0  0
   49.5116   10.4625   12.7883 C   0  0  0  0  0  0  0  0  0  0  0  0
   51.0905    6.8990   16.0148 C   0  0  0  0  0  0  0  0  0  0  0  0
   47.0004    5.6675   20.0324 C   0  0  0  0  0  0  0  0  0  0  0  0
   48.9464   10.9323   11.4487 C   0  0  0  0  0  0  0  0  0  0  0  0
   49.7853    5.4689   23.7251 C   0  0  0  0  0  0  0  0  0  0  0  0
   47.0497   13.5772    8.2481 C   0  0  0  0  0  0  0  0  0  0  0  0
   47.7609   13.0511    9.4956 C   0  0  0  0  0  0  0  0  0  0  0  0
   48.8248    6.6068   23.3654 C   0  0  0  0  0  0  0  0  0  0  0  0
   47.5763   11.6003   11.5926 C   0  0  0  0  0  0  0  0  0  0  0  0
   46.9486   11.9954   10.2495 C   0  0  0  0  0  0  0  0  0  0  0  0
   48.1788    5.8702   20.9907 C   0  0  0  0  0  0  0  0  0  0  0  0
   47.7008    6.2158   22.3986 C   0  0  0  0  0  0  0  0  0  0  0  0
   51.0370    5.4309   22.8556 C   0  0  0  0  0  0  0  0  0  0  0  0
   46.9128   12.5394    7.1455 C   0  0  0  0  0  0  0  0  0  0  0  0
   50.0973    7.2677   17.8774 O   0  0  0  0  0  0  0  0  0  0  0  0
   48.1595    6.2753   17.1548 O   0  0  0  0  0  0  0  0  0  0  0  0
   49.5321    8.3691   20.5275 O   0  0  0  0  0  0  0  0  0  0  0  0
   50.0840    6.0165   21.9764 O   0  0  0  0  0  0  0  0  0  0  0  0
   49.0761    7.0683   16.9973 C   0  0  0  0  0  0  0  0  0  0  0  0
   49.0380    7.0959   20.0813 C   0  0  1  0  0  0  0  0  0  0  0  0
   50.0347    6.4896   19.0852 C   0  0  0  0  0  0  0  0  0  0  0  0
   49.2626    7.9790   15.8052 C   0  0  0  0  0  0  0  0  0  0  0  0
   48.8388    6.1906   21.3001 C   0  0  0  0  0  0  0  0  0  0  0  0
   48.1373    7.8231   14.7835 C   0  0  0  0  0  0  0  0  0  0  0  0
   48.3381    8.6531   13.5106 C   0  0  0  0  0  0  0  0  0  0  0  0
   48.3868   10.1621   13.7732 C   0  0  0  0  0  0  0  0  0  0  0  0
   48.4745   10.9963   12.4919 C   0  0  0  0  0  0  0  0  0  0  0  0
   47.1659   11.0185   11.7033 C   0  0  0  0  0  0  0  0  0  0  0  0
   47.2799   11.9069   10.4735 C   0  0  0  0  0  0  0  0  0  0  0  0
   48.2569    7.0846   23.0023 H   0  0  0  0  0  0  0  0  0  0  0  0
   50.8416    5.2493   22.1172 H   0  0  0  0  0  0  0  0  0  0  0  0
   48.5496    8.3250   20.7851 H   0  0  0  0  0  0  0  0  0  0  0  0
   47.7342    5.4194   20.2350 H   0  0  0  0  0  0  0  0  0  0  0  0
   46.8147    6.8183   19.7544 H   0  0  0  0  0  0  0  0  0  0  0  0
   48.5289    6.8232   16.0226 H   0  0  0  0  0  0  0  0  0  0  0  0
   50.1311    6.8692   16.8053 H   0  0  0  0  0  0  0  0  0  0  0  0
   50.0939    9.3852   16.6500 H   0  0  0  0  0  0  0  0  0  0  0  0
   48.5886    9.3056   15.7651 H   0  0  0  0  0  0  0  0  0  0  0  0
   50.3807    7.4616   22.1180 H   0  0  0  0  0  0  0  0  0  0  0  0
   50.5589    6.8093   20.4715 H   0  0  0  0  0  0  0  0  0  0  0  0
   51.2712    8.0928   14.9066 H   0  0  0  0  0  0  0  0  0  0  0  0
   50.5939    9.5882   14.2986 H   0  0  0  0  0  0  0  0  0  0  0  0
   50.3051    7.7669   12.6916 H   0  0  0  0  0  0  0  0  0  0  0  0
   49.4917    6.7596   13.8751 H   0  0  0  0  0  0  0  0  0  0  0  0
   47.5403    8.2822   13.9161 H   0  0  0  0  0  0  0  0  0  0  0  0
   47.8984    7.7094   12.2910 H   0  0  0  0  0  0  0  0  0  0  0  0
   49.1276    9.8695   11.8273 H   0  0  0  0  0  0  0  0  0  0  0  0
   48.6323   10.4606   13.4147 H   0  0  0  0  0  0  0  0  0  0  0  0
   46.2203   10.0986   12.7652 H   0  0  0  0  0  0  0  0  0  0  0  0
   46.7493    9.6564   11.1473 H   0  0  0  0  0  0  0  0  0  0  0  0
   47.2482   12.3551   12.5098 H   0  0  0  0  0  0  0  0  0  0  0  0
   45.9816   12.0220   11.3330 H   0  0  0  0  0  0  0  0  0  0  0  0
   48.9959   11.9196   10.7877 H   0  0  0  0  0  0  0  0  0  0  0  0
   47.7432   11.4808    9.6152 H   0  0  0  0  0  0  0  0  0  0  0  0
   47.8513   13.1381   10.2237 H   0  0  0  0  0  0  0  0  0  0  0  0
   49.7715    8.2437   17.0223 H   0  0  0  0  0  0  0  0  0  0  0  0
   48.8949    6.8945   14.4102 H   0  0  0  0  0  0  0  0  0  0  0  0
   47.7873    7.8554   15.4095 H   0  0  0  0  0  0  0  0  0  0  0  0
   51.8499    8.7014   15.9253 H   0  0  0  0  0  0  0  0  0  0  0  0
   48.2118    4.5896   18.6047 H   0  0  0  0  0  0  0  0  0  0  0  0
   46.6178    5.0611   17.9879 H   0  0  0  0  0  0  0  0  0  0  0  0
   50.5761   10.2323   12.6640 H   0  0  0  0  0  0  0  0  0  0  0  0
   49.4147   11.2581   13.5367 H   0  0  0  0  0  0  0  0  0  0  0  0
   51.0583    6.0226   15.3582 H   0  0  0  0  0  0  0  0  0  0  0  0
   51.6310    6.5846   16.9156 H   0  0  0  0  0  0  0  0  0  0  0  0
   46.4037    4.8143   20.3791 H   0  0  0  0  0  0  0  0  0  0  0  0
   46.3433    6.5462   20.0539 H   0  0  0  0  0  0  0  0  0  0  0  0
   48.8817   10.0906   10.7522 H   0  0  0  0  0  0  0  0  0  0  0  0
   49.6583   11.6464   11.0194 H   0  0  0  0  0  0  0  0  0  0  0  0
   49.2675    4.5014   23.6900 H   0  0  0  0  0  0  0  0  0  0  0  0
   50.1103    5.6132   24.7633 H   0  0  0  0  0  0  0  0  0  0  0  0
   47.6161   14.4309    7.8584 H   0  0  0  0  0  0  0  0  0  0  0  0
   46.0576   13.9588    8.5166 H   0  0  0  0  0  0  0  0  0  0  0  0
   48.7391   12.6518    9.2066 H   0  0  0  0  0  0  0  0  0  0  0  0
   47.9500   13.8983   10.1643 H   0  0  0  0  0  0  0  0  0  0  0  0
   48.3407    6.9461   24.2914 H   0  0  0  0  0  0  0  0  0  0  0  0
   49.3737    7.4723   22.9726 H   0  0  0  0  0  0  0  0  0  0  0  0
   47.6695   12.4873   12.2286 H   0  0  0  0  0  0  0  0  0  0  0  0
   46.8845   10.9178   12.1018 H   0  0  0  0  0  0  0  0  0  0  0  0
   46.8290   11.0988    9.6315 H   0  0  0  0  0  0  0  0  0  0  0  0
   45.9434   12.3878   10.4467 H   0  0  0  0  0  0  0  0  0  0  0  0
   48.8303    6.6671   20.6208 H   0  0  0  0  0  0  0  0  0  0  0  0
   48.7699    4.9500   21.0132 H   0  0  0  0  0  0  0  0  0  0  0  0
   47.0047    7.0594   22.3361 H   0  0  0  0  0  0  0  0  0  0  0  0
   47.1318    5.3751   22.8129 H   0  0  0  0  0  0  0  0  0  0  0  0
   50.8003    5.2510   21.8012 H   0  0  0  0  0  0  0  0  0  0  0  0
   51.6942    4.6248   23.1995 H   0  0  0  0  0  0  0  0  0  0  0  0
   51.5914    6.3777   22.9328 H   0  0  0  0  0  0  0  0  0  0  0  0
   47.8950   12.1486    6.8532 H   0  0  0  0  0  0  0  0  0  0  0  0
   46.4533   12.9969    6.2626 H   0  0  0  0  0  0  0  0  0  0  0  0
   46.2772   11.7025    7.4563 H   0  0  0  0  0  0  0  0  0  0  0  0
   50.2475    8.1617   21.1580 H   0  0  0  0  0  0  0  0  0  0  0  0
   50.3300    5.0759   21.8923 H   0  0  0  0  0  0  0  0  0  0  0  0
   48.0730    7.2890   19.6055 H   0  0  0  0  0  0  0  0  0  0  0  0
   51.0489    6.4995   19.5003 H   0  0  0  0  0  0  0  0  0  0  0  0
   49.7868    5.4494   18.8436 H   0  0  0  0  0  0  0  0  0  0  0  0
   50.2247    7.7368   15.3410 H   0  0  0  0  0  0  0  0  0  0  0  0
   49.2906    9.0036   16.1813 H   0  0  0  0  0  0  0  0  0  0  0  0
   48.1587    6.6618   22.0154 H   0  0  0  0  0  0  0  0  0  0  0  0
   48.4301    5.2151   21.0182 H   0  0  0  0  0  0  0  0  0  0  0  0
   48.0587    6.7677   14.4933 H   0  0  0  0  0  0  0  0  0  0  0  0
   47.1782    8.0933   15.2461 H   0  0  0  0  0  0  0  0  0  0  0  0
   47.5103    8.4214   12.8319 H   0  0  0  0  0  0  0  0  0  0  0  0
   49.2627    8.3386   13.0093 H   0  0  0  0  0  0  0  0  0  0  0  0
   47.5092   10.4694   14.3533 H   0  0  0  0  0  0  0  0  0  0  0  0
   49.2684   10.3959   14.3808 H   0  0  0  0  0  0  0  0  0  0  0  0
   49.2887   10.6206   11.8602 H   0  0  0  0  0  0  0  0  0  0  0  0
   48.7368   12.0271   12.7698 H   0  0  0  0  0  0  0  0  0  0  0  0
   46.3559   11.3903   12.3433 H   0  0  0  0  0  0  0  0  0  0  0  0
   46.8862   10.0097   11.3807 H   0  0  0  0  0  0  0  0  0  0  0  0
   46.3223   11.9453    9.9452 H   0  0  0  0  0  0  0  0  0  0  0  0
   47.5543   12.9284   10.7511 H   0  0  0  0  0  0  0  0  0  0  0  0
   48.0358   11.5227    9.7831 H   0  0  0  0  0  0  0  0  0  0  0  0
  1  5  1  0
  1  7  1  0
  2  5  2  0
  3  6  1  0
  4 10  1  0
  5  8  1  0
  6  7  1  0
  6 10  1  0
  8  9  1  0
  9 11  1  0
 11 12  1  0
 12 13  1  0
 13 14  1  0
 14 15  1  0
 15 16  1  0
 16 17  1  0
 19 23  1  0
 20 18  1  0
 21 18  2  0
 22 19  2  0
 23 25  1  0
 24 20  1  0
 25 24  1  0
 26 29  1  0
 27 18  1  0
 28 19  1  0
 29 24  1  0
 30 27  1  0
 31 28  1  0
 32 35  1  0
 33 34  1  0
 34 37  1  0
 35 39  1  0
 36 31  1  0
 37 36  1  0
 38 30  1  0
 39 38  1  0
 40 32  1  0
 41 33  1  0
 42 46  1  0
 42 48  1  0
 43 46  2  0
 44 47  1  0
 45 50  1  0
 46 49  1  0
 47 48  1  0
 47 50  1  0
 49 51  1  0
 51 52  1  0
 52 53  1  0
 53 54  1  0
 54 55  1  0
 55 56  1  0
  3 57  1  0
  4 58  1  0
  6 59  1  1
  7 60  1  0
  7 61  1  0
  8 62  1  0
  8 63  1  0
  9 64  1  0
  9 65  1  0
 10 66  1  0
 10 67  1  0
 11 68  1  0
 11 69  1  0
 12 70  1  0
 12 71  1  0
 13 72  1  0
 13 73  1  0
 14 74  1  0
 14 75  1  0
 15 76  1  0
 15 77  1  0
 16 78  1  0
 16 79  1  0
 17 80  1  0
 17 81  1  0
 17 82  1  0
 24 83  1  1
 25 84  1  0
 25 85  1  0
 26 86  1  0
 27 87  1  0
 27 88  1  0
 28 89  1  0
 28 90  1  0
 29 91  1  0
 29 92  1  0
 30 93  1  0
 30 94  1  0
 31 95  1  0
 31 96  1  0
 32 97  1  0
 32 98  1  0
 33 99  1  0
 33100  1  0
 34101  1  0
 34102  1  0
 35103  1  0
 35104  1  0
 36105  1  0
 36106  1  0
 37107  1  0
 37108  1  0
 38109  1  0
 38110  1  0
 39111  1  0
 39112  1  0
 40113  1  0
 40114  1  0
 40115  1  0
 41116  1  0
 41117  1  0
 41118  1  0
 44119  1  0
 45120  1  0
 47121  1  6
 48122  1  0
 48123  1  0
 49124  1  0
 49125  1  0
 50126  1  0
 50127  1  0
 51128  1  0
 51129  1  0
 52130  1  0
 52131  1  0
 53132  1  0
 53133  1  0
 54134  1  0
 54135  1  0
 55136  1  0
 55137  1  0
 56138  1  0
 56139  1  0
 56140  1  0
M  END
> <Uni-Dock RESULT> 
ENERGY=   -5.891  LOWER_BOUND=    1.619  UPPER_BOUND=    1.970
INTER + INTRA:          -5.891
INTER:                  -5.891
INTRA:                   0.000
UNBOUND:                 0.000

$$$$

     RDKit          3D

140137  0  0  0  0  0  0  0  0999 V2000
   49.1990    7.9873   14.1825 O   0  0  0  0  0  0  0  0  0  0  0  0
   51.3578    8.1608   14.9468 O   0  0  0  0  0  0  0  0  0  0  0  0
   50.3569   10.2613   11.4912 O   0  0  0  0  0  0  0  0  0  0  0  0
   47.7293   10.7785   12.3895 O   0  0  0  0  0  0  0  0  0  0  0  0
   50.1874    7.8370   15.1083 C   0  0  0  0  0  0  0  0  0  0  0  0
   49.9681    9.9369   12.8327 C   0  0  2  0  0  0  0  0  0  0  0  0
   49.6131    8.4464   12.8842 C   0  0  0  0  0  0  0  0  0  0  0  0
   49.6175    7.1945   16.3511 C   0  0  0  0  0  0  0  0  0  0  0  0
   50.5598    7.3514   17.5437 C   0  0  0  0  0  0  0  0  0  0  0  0
   48.8221   10.8439   13.3020 C   0  0  0  0  0  0  0  0  0  0  0  0
   49.9590    6.8316   18.8535 C   0  0  0  0  0  0  0  0  0  0  0  0
   49.6292    5.3343   18.8785 C   0  0  0  0  0  0  0  0  0  0  0  0
   50.8064    4.3935   18.5886 C   0  0  0  0  0  0  0  0  0  0  0  0
   51.9741    4.5748   19.5625 C   0  0  0  0  0  0  0  0  0  0  0  0
   53.0674    3.5300   19.3317 C   0  0  0  0  0  0  0  0  0  0  0  0
   54.3168    3.7615   20.1847 C   0  0  0  0  0  0  0  0  0  0  0  0
   54.0693    3.6203   21.6784 C   0  0  0  0  0  0  0  0  0  0  0  0
   49.5848    7.1799   14.4334 C   0  0  0  0  0  0  0  0  0  0  0  0
   51.2258    5.1897   19.1395 C   0  0  0  0  0  0  0  0  0  0  0  0
   48.7360    7.0186   15.4852 O   0  0  0  0  0  0  0  0  0  0  0  0
   50.7618    7.4954   14.5307 O   0  0  0  0  0  0  0  0  0  0  0  0
   51.0687    4.0342   18.7770 O   0  0  0  0  0  0  0  0  0  0  0  0
   50.7711    6.2854   18.4685 O   0  0  0  0  0  0  0  0  0  0  0  0
   49.3059    7.2556   16.7896 C   0  0  2  0  0  0  0  0  0  0  0  0
   50.0178    5.9883   17.2850 C   0  0  0  0  0  0  0  0  0  0  0  0
   48.5770    8.0071   19.0301 O   0  0  0  0  0  0  0  0  0  0  0  0
   48.8687    6.8824   13.1361 C   0  0  0  0  0  0  0  0  0  0  0  0
   51.9256    5.6367   20.4034 C   0  0  0  0  0  0  0  0  0  0  0  0
   48.1519    7.6715   17.7163 C   0  0  0  0  0  0  0  0  0  0  0  0
   49.3864    7.7446   11.9841 C   0  0  0  0  0  0  0  0  0  0  0  0
   52.5895    4.4926   21.1683 C   0  0  0  0  0  0  0  0  0  0  0  0
   47.8322   12.0063   11.0602 C   0  0  0  0  0  0  0  0  0  0  0  0
   55.7552    1.9681   23.2760 C   0  0  0  0  0  0  0  0  0  0  0  0
   54.9636    3.1118   22.6403 C   0  0  0  0  0  0  0  0  0  0  0  0
   49.2970   11.5744   11.1813 C   0  0  0  0  0  0  0  0  0  0  0  0
   53.8871    4.0207   20.5068 C   0  0  0  0  0  0  0  0  0  0  0  0
   54.5210    2.8111   21.2062 C   0  0  0  0  0  0  0  0  0  0  0  0
   48.9560    9.2087   12.1229 C   0  0  0  0  0  0  0  0  0  0  0  0
   49.5388   10.0705   11.0058 C   0  0  0  0  0  0  0  0  0  0  0  0
   47.1124   12.1007   12.4007 C   0  0  0  0  0  0  0  0  0  0  0  0
   54.9211    0.7231   23.5327 C   0  0  0  0  0  0  0  0  0  0  0  0
   49.0397    8.5673   15.9840 O   0  0  0  0  0  0  0  0  0  0  0  0
   49.2112    6.5499   14.9057 O   0  0  0  0  0  0  0  0  0  0  0  0
   50.3403   10.5446   14.2653 O   0  0  0  0  0  0  0  0  0  0  0  0
   48.0923   11.1027   12.6610 O   0  0  0  0  0  0  0  0  0  0  0  0
   49.3912    7.2541   15.8882 C   0  0  0  0  0  0  0  0  0  0  0  0
   49.5138    9.4834   13.7603 C   0  0  1  0  0  0  0  0  0  0  0  0
   48.4451    9.1367   14.8048 C   0  0  0  0  0  0  0  0  0  0  0  0
   50.0326    6.8156   17.1851 C   0  0  0  0  0  0  0  0  0  0  0  0
   48.8843    9.9357   12.4397 C   0  0  0  0  0  0  0  0  0  0  0  0
   50.4727    5.3532   17.1408 C   0  0  0  0  0  0  0  0  0  0  0  0
   51.0360    4.8363   18.4693 C   0  0  0  0  0  0  0  0  0  0  0  0
   52.2944    5.5830   18.9247 C   0  0  0  0  0  0  0  0  0  0  0  0
   52.9213    4.9945   20.1921 C   0  0  0  0  0  0  0  0  0  0  0  0
   53.6156    3.6554   19.9482 C   0  0  0  0  0  0  0  0  0  0  0  0
   54.2756    3.1389   21.2180 C   0  0  0  0  0  0  0  0  0  0  0  0
   49.9941   11.1415   11.2778 H   0  0  0  0  0  0  0  0  0  0  0  0
   47.0437   11.3850   12.7159 H   0  0  0  0  0  0  0  0  0  0  0  0
   50.8319   10.1357   13.4748 H   0  0  0  0  0  0  0  0  0  0  0  0
   48.7915    8.2390   12.1907 H   0  0  0  0  0  0  0  0  0  0  0  0
   50.4522    7.8346   12.5244 H   0  0  0  0  0  0  0  0  0  0  0  0
   49.4497    6.1364   16.1266 H   0  0  0  0  0  0  0  0  0  0  0  0
   48.6569    7.6686   16.5799 H   0  0  0  0  0  0  0  0  0  0  0  0
   50.8028    8.4124   17.6744 H   0  0  0  0  0  0  0  0  0  0  0  0
   51.5130    6.8513   17.3365 H   0  0  0  0  0  0  0  0  0  0  0  0
   49.1616   11.8857   13.3242 H   0  0  0  0  0  0  0  0  0  0  0  0
   48.4725   10.5661   14.3001 H   0  0  0  0  0  0  0  0  0  0  0  0
   49.0382    7.3894   19.0657 H   0  0  0  0  0  0  0  0  0  0  0  0
   50.6487    7.0692   19.6725 H   0  0  0  0  0  0  0  0  0  0  0  0
   49.2192    5.0940   19.8685 H   0  0  0  0  0  0  0  0  0  0  0  0
   48.8291    5.1219   18.1585 H   0  0  0  0  0  0  0  0  0  0  0  0
   51.1566    4.5300   17.5581 H   0  0  0  0  0  0  0  0  0  0  0  0
   50.4397    3.3601   18.6603 H   0  0  0  0  0  0  0  0  0  0  0  0
   51.6031    4.5039   20.5917 H   0  0  0  0  0  0  0  0  0  0  0  0
   52.4075    5.5717   19.4395 H   0  0  0  0  0  0  0  0  0  0  0  0
   53.3666    3.5473   18.2767 H   0  0  0  0  0  0  0  0  0  0  0  0
   52.6697    2.5292   19.5299 H   0  0  0  0  0  0  0  0  0  0  0  0
   54.7240    4.7572   19.9817 H   0  0  0  0  0  0  0  0  0  0  0  0
   55.0853    3.0366   19.8869 H   0  0  0  0  0  0  0  0  0  0  0  0
   53.3822    4.3861   22.0484 H   0  0  0  0  0  0  0  0  0  0  0  0
   53.6466    2.6399   21.9167 H   0  0  0  0  0  0  0  0  0  0  0  0
   55.0078    3.7250   22.2304 H   0  0  0  0  0  0  0  0  0  0  0  0
   50.0172    8.0939   16.7650 H   0  0  0  0  0  0  0  0  0  0  0  0
   49.2742    5.2053   17.4835 H   0  0  0  0  0  0  0  0  0  0  0  0
   50.7020    5.6127   16.5120 H   0  0  0  0  0  0  0  0  0  0  0  0
   49.2719    8.6847   18.9622 H   0  0  0  0  0  0  0  0  0  0  0  0
   47.7934    7.0463   13.2656 H   0  0  0  0  0  0  0  0  0  0  0  0
   49.0241    5.8202   12.9113 H   0  0  0  0  0  0  0  0  0  0  0  0
   51.1617    6.0952   21.0420 H   0  0  0  0  0  0  0  0  0  0  0  0
   52.6698    6.4014   20.1507 H   0  0  0  0  0  0  0  0  0  0  0  0
   47.4103    6.8689   17.7953 H   0  0  0  0  0  0  0  0  0  0  0  0
   47.6214    8.5360   17.2998 H   0  0  0  0  0  0  0  0  0  0  0  0
   48.9901    7.3460   11.0416 H   0  0  0  0  0  0  0  0  0  0  0  0
   50.4802    7.6786   11.9237 H   0  0  0  0  0  0  0  0  0  0  0  0
   51.8936    3.6541   21.2689 H   0  0  0  0  0  0  0  0  0  0  0  0
   52.8047    4.8508   22.1815 H   0  0  0  0  0  0  0  0  0  0  0  0
   47.2875   11.3368   10.3816 H   0  0  0  0  0  0  0  0  0  0  0  0
   47.8081   13.0036   10.6029 H   0  0  0  0  0  0  0  0  0  0  0  0
   56.1668    2.3178   24.2298 H   0  0  0  0  0  0  0  0  0  0  0  0
   56.6125    1.7101   22.6432 H   0  0  0  0  0  0  0  0  0  0  0  0
   54.0981    3.3405   23.2715 H   0  0  0  0  0  0  0  0  0  0  0  0
   55.5974    4.0057   22.6364 H   0  0  0  0  0  0  0  0  0  0  0  0
   49.8652   12.0799   10.3886 H   0  0  0  0  0  0  0  0  0  0  0  0
   49.7279   11.9156   12.1314 H   0  0  0  0  0  0  0  0  0  0  0  0
   54.6048    4.8480   20.4832 H   0  0  0  0  0  0  0  0  0  0  0  0
   53.6901    3.7436   19.4637 H   0  0  0  0  0  0  0  0  0  0  0  0
   53.8097    1.9780   21.1976 H   0  0  0  0  0  0  0  0  0  0  0  0
   55.3926    2.4973   20.6188 H   0  0  0  0  0  0  0  0  0  0  0  0
   49.2749    9.6032   13.0919 H   0  0  0  0  0  0  0  0  0  0  0  0
   47.8634    9.2531   12.0964 H   0  0  0  0  0  0  0  0  0  0  0  0
   50.6214    9.9081   10.9652 H   0  0  0  0  0  0  0  0  0  0  0  0
   49.1401    9.7417   10.0387 H   0  0  0  0  0  0  0  0  0  0  0  0
   47.0590   11.1314   12.9083 H   0  0  0  0  0  0  0  0  0  0  0  0
   46.0894   12.4577   12.2397 H   0  0  0  0  0  0  0  0  0  0  0  0
   47.6212   12.8152   13.0643 H   0  0  0  0  0  0  0  0  0  0  0  0
   54.0607    0.9548   24.1720 H   0  0  0  0  0  0  0  0  0  0  0  0
   55.5302   -0.0307   24.0434 H   0  0  0  0  0  0  0  0  0  0  0  0
   54.5585    0.2811   22.5977 H   0  0  0  0  0  0  0  0  0  0  0  0
   49.8006   11.3535   14.1833 H   0  0  0  0  0  0  0  0  0  0  0  0
   47.1630   10.8585   12.4902 H   0  0  0  0  0  0  0  0  0  0  0  0
   50.1780    8.6346   13.5789 H   0  0  0  0  0  0  0  0  0  0  0  0
   47.9249   10.0415   15.1392 H   0  0  0  0  0  0  0  0  0  0  0  0
   47.6900    8.4512   14.4024 H   0  0  0  0  0  0  0  0  0  0  0  0
   49.3042    6.9623   17.9899 H   0  0  0  0  0  0  0  0  0  0  0  0
   50.8948    7.4634   17.3555 H   0  0  0  0  0  0  0  0  0  0  0  0
   49.6631   10.2183   11.7256 H   0  0  0  0  0  0  0  0  0  0  0  0
   48.2686    9.1485   11.9934 H   0  0  0  0  0  0  0  0  0  0  0  0
   49.6135    4.7272   16.8684 H   0  0  0  0  0  0  0  0  0  0  0  0
   51.2232    5.2169   16.3501 H   0  0  0  0  0  0  0  0  0  0  0  0
   51.2626    3.7726   18.3398 H   0  0  0  0  0  0  0  0  0  0  0  0
   50.2654    4.9085   19.2478 H   0  0  0  0  0  0  0  0  0  0  0  0
   53.0360    5.5933   18.1178 H   0  0  0  0  0  0  0  0  0  0  0  0
   52.0392    6.6275   19.1365 H   0  0  0  0  0  0  0  0  0  0  0  0
   52.1542    4.8853   20.9685 H   0  0  0  0  0  0  0  0  0  0  0  0
   53.6616    5.7116   20.5746 H   0  0  0  0  0  0  0  0  0  0  0  0
   54.3773    3.7718   19.1671 H   0  0  0  0  0  0  0  0  0  0  0  0
   52.9020    2.9032   19.5948 H   0  0  0  0  0  0  0  0  0  0  0  0
   54.8037    2.2021   21.0149 H   0  0  0  0  0  0  0  0  0  0  0  0
   55.0016    3.8597   21.6042 H   0  0  0  0  0  0  0  0  0  0  0  0
   53.5308    2.9496   21.9959 H   0  0  0  0  0  0  0  0  0  0  0  0
  1  5  1  0
  1  7  1  0
  2  5  2  0
  3  6  1  0
  4 10  1  0
  5  8  1  0
  6  7  1  0
  6 10  1  0
  8  9  1  0
  9 11  1  0
 11 12  1  0
 12 13  1  0
 13 14  1  0
 14 15  1  0
 15 16  1  0
 16 17  1  0
 19 23  1  0
 20 18  1  0
 21 18  2  0
 22 19  2  0
 23 25  1  0
 24 20  1  0
 25 24  1  0
 26 29  1  0
 27 18  1  0
 28 19  1  0
 29 24  1  0
 30 27  1  0
 31 28  1  0
 32 35  1  0
 33 34  1  0
 34 37  1  0
 35 39  1  0
 36 31  1  0
 37 36  1  0
 38 30  1  0
 39 38  1  0
 40 32  1  0
 41 33  1  0
 42 46  1  0
 42 48  1  0
 43 46  2  0
 44 47  1  0
 45 50  1  0
 46 49  1  0
 47 48  1  0
 47 50  1  0
 49 51  1  0
 51 52  1  0
 52 53  1  0
 53 54  1  0
 54 55  1  0
 55 56  1  0
  3 57  1  0
  4 58  1  0
  6 59  1  1
  7 60  1  0
  7 61  1  0
  8 62  1  0
  8 63  1  0
  9 64  1  0
  9 65  1  0
 10 66  1  0
 10 67  1  0
 11 68  1  0
 11 69  1  0
 12 70  1  0
 12 71  1  0
 13 72  1  0
 13 73  1  0
 14 74  1  0
 14 75  1  0
 15 76  1  0
 15 77  1  0
 16 78  1  0
 16 79  1  0
 17 80  1  0
 17 81  1  0
 17 82  1  0
 24 83  1  1
 25 84  1  0
 25 85  1  0
 26 86  1  0
 27 87  1  0
 27 88  1  0
 28 89  1  0
 28 90  1  0
 29 91  1  0
 29 92  1  0
 30 93  1  0
 30 94  1  0
 31 95  1  0
 31 96  1  0
 32 97  1  0
 32 98  1  0
 33 99  1  0
 33100  1  0
 34101  1  0
 34102  1  0
 35103  1  0
 35104  1  0
 36105  1  0
 36106  1  0
 37107  1  0
 37108  1  0
 38109  1  0
 38110  1  0
 39111  1  0
 39112  1  0
 40113  1  0
 40114  1  0
 40115  1  0
 41116  1  0
 41117  1  0
 41118  1  0
 44119  1  0
 45120  1  0
 47121  1  6
 48122  1  0
 48123  1  0
 49124  1  0
 49125  1  0
 50126  1  0
 50127  1  0
 51128  1  0
 51129  1  0
 52130  1  0
 52131  1  0
 53132  1  0
 53133  1  0
 54134  1  0
 54135  1  0
 55136  1  0
 55137  1  0
 56138  1  0
 56139  1  0
 56140  1  0
M  END
> <Uni-Dock RESULT> 
ENERGY=   -5.715  LOWER_BOUND=    2.267  UPPER_BOUND=    9.881
INTER + INTRA:          -5.715
INTER:                  -5.715
INTRA:                   0.000
UNBOUND:                 0.000

$$$$

     RDKit          3D

140137  0  0  0  0  0  0  0  0999 V2000
   47.8301   14.9812   14.8506 O   0  0  0  0  0  0  0  0  0  0  0  0
   48.5965   12.8185   14.7511 O   0  0  0  0  0  0  0  0  0  0  0  0
   48.5467   15.0156   11.2120 O   0  0  0  0  0  0  0  0  0  0  0  0
   49.1598   17.4359   12.5329 O   0  0  0  0  0  0  0  0  0  0  0  0
   48.2745   13.8120   15.3913 C   0  0  0  0  0  0  0  0  0  0  0  0
   48.9031   15.0180   12.6008 C   0  0  2  0  0  0  0  0  0  0  0  0
   47.6136   14.9786   13.4291 C   0  0  0  0  0  0  0  0  0  0  0  0
   48.2889   13.9290   16.8973 C   0  0  0  0  0  0  0  0  0  0  0  0
   49.1261   12.8217   17.5359 C   0  0  0  0  0  0  0  0  0  0  0  0
   49.7935   16.2235   12.9326 C   0  0  0  0  0  0  0  0  0  0  0  0
   49.2762   12.9836   19.0518 C   0  0  0  0  0  0  0  0  0  0  0  0
   47.9703   12.9243   19.8532 C   0  0  0  0  0  0  0  0  0  0  0  0
   47.1447   11.6428   19.6775 C   0  0  0  0  0  0  0  0  0  0  0  0
   47.9168   10.3747   20.0529 C   0  0  0  0  0  0  0  0  0  0  0  0
   47.0229    9.1344   19.9995 C   0  0  0  0  0  0  0  0  0  0  0  0
   47.7858    7.8273   20.2260 C   0  0  0  0  0  0  0  0  0  0  0  0
   48.3911    7.7083   21.6159 C   0  0  0  0  0  0  0  0  0  0  0  0
   47.3062   14.3654   15.3090 C   0  0  0  0  0  0  0  0  0  0  0  0
   48.1498   11.3230   19.6488 C   0  0  0  0  0  0  0  0  0  0  0  0
   47.6068   14.9046   16.5222 O   0  0  0  0  0  0  0  0  0  0  0  0
   47.7524   13.3084   14.8872 O   0  0  0  0  0  0  0  0  0  0  0  0
   46.9601   11.2667   19.9179 O   0  0  0  0  0  0  0  0  0  0  0  0
   48.7016   12.1640   18.7291 O   0  0  0  0  0  0  0  0  0  0  0  0
   48.5289   14.1452   17.3319 C   0  0  2  0  0  0  0  0  0  0  0  0
   47.7693   13.0565   18.1039 C   0  0  0  0  0  0  0  0  0  0  0  0
   50.2237   14.5405   19.0889 O   0  0  0  0  0  0  0  0  0  0  0  0
   46.3202   15.2468   14.5774 C   0  0  0  0  0  0  0  0  0  0  0  0
   49.2454   10.5007   20.2896 C   0  0  0  0  0  0  0  0  0  0  0  0
   49.2280   15.1408   18.2718 C   0  0  0  0  0  0  0  0  0  0  0  0
   46.5341   15.2135   13.0637 C   0  0  0  0  0  0  0  0  0  0  0  0
   48.7221    9.4300   21.2458 C   0  0  0  0  0  0  0  0  0  0  0  0
   49.5529   17.9221   10.8317 C   0  0  0  0  0  0  0  0  0  0  0  0
   47.9622    5.3691   23.1870 C   0  0  0  0  0  0  0  0  0  0  0  0
   48.5365    6.5329   22.3781 C   0  0  0  0  0  0  0  0  0  0  0  0
   49.4016   16.4052   10.6809 C   0  0  0  0  0  0  0  0  0  0  0  0
   48.1240    8.2283   20.5094 C   0  0  0  0  0  0  0  0  0  0  0  0
   47.5083    7.1840   21.4498 C   0  0  0  0  0  0  0  0  0  0  0  0
   47.8124   15.9488   12.6470 C   0  0  0  0  0  0  0  0  0  0  0  0
   48.0505   15.8464   11.1426 C   0  0  0  0  0  0  0  0  0  0  0  0
   50.2320   18.3402   12.1309 C   0  0  0  0  0  0  0  0  0  0  0  0
   46.9349    5.7991   24.2221 C   0  0  0  0  0  0  0  0  0  0  0  0
   49.2181   14.8894   16.1438 O   0  0  0  0  0  0  0  0  0  0  0  0
   46.9642   14.4642   16.1046 O   0  0  0  0  0  0  0  0  0  0  0  0
   50.1861   14.5088   13.4100 O   0  0  0  0  0  0  0  0  0  0  0  0
   49.6135   17.1138   12.5019 O   0  0  0  0  0  0  0  0  0  0  0  0
   48.0823   14.2564   16.5521 C   0  0  0  0  0  0  0  0  0  0  0  0
   48.9332   15.1391   13.7220 C   0  0  1  0  0  0  0  0  0  0  0  0
   49.0476   15.8425   15.0804 C   0  0  0  0  0  0  0  0  0  0  0  0
   48.4294   13.2659   17.6402 C   0  0  0  0  0  0  0  0  0  0  0  0
   48.5873   16.1267   12.6040 C   0  0  0  0  0  0  0  0  0  0  0  0
   47.2013   12.5017   18.1323 C   0  0  0  0  0  0  0  0  0  0  0  0
   47.4887   11.5592   19.3064 C   0  0  0  0  0  0  0  0  0  0  0  0
   48.4937   10.4542   18.9636 C   0  0  0  0  0  0  0  0  0  0  0  0
   48.6958    9.4471   20.0995 C   0  0  0  0  0  0  0  0  0  0  0  0
   47.5002    8.5151   20.2908 C   0  0  0  0  0  0  0  0  0  0  0  0
   47.7687    7.4937   21.3860 C   0  0  0  0  0  0  0  0  0  0  0  0
   49.1544   15.6194   10.7449 H   0  0  0  0  0  0  0  0  0  0  0  0
   49.7702   18.1631   12.7405 H   0  0  0  0  0  0  0  0  0  0  0  0
   49.4902   14.1124   12.7837 H   0  0  0  0  0  0  0  0  0  0  0  0
   46.9978   15.8531   13.1941 H   0  0  0  0  0  0  0  0  0  0  0  0
   46.9984   14.1121   13.1489 H   0  0  0  0  0  0  0  0  0  0  0  0
   47.2510   13.8771   17.2410 H   0  0  0  0  0  0  0  0  0  0  0  0
   48.7072   14.9048   17.1675 H   0  0  0  0  0  0  0  0  0  0  0  0
   50.1273   12.8232   17.0894 H   0  0  0  0  0  0  0  0  0  0  0  0
   48.6958   11.8420   17.2979 H   0  0  0  0  0  0  0  0  0  0  0  0
   50.7340   16.1522   12.3744 H   0  0  0  0  0  0  0  0  0  0  0  0
   50.0209   16.2734   14.0009 H   0  0  0  0  0  0  0  0  0  0  0  0
   49.7620   13.9457   19.2580 H   0  0  0  0  0  0  0  0  0  0  0  0
   49.9670   12.2146   19.4184 H   0  0  0  0  0  0  0  0  0  0  0  0
   48.2193   13.0423   20.9162 H   0  0  0  0  0  0  0  0  0  0  0  0
   47.3392   13.7829   19.5919 H   0  0  0  0  0  0  0  0  0  0  0  0
   46.7799   11.5647   18.6460 H   0  0  0  0  0  0  0  0  0  0  0  0
   46.2558   11.7218   20.3187 H   0  0  0  0  0  0  0  0  0  0  0  0
   48.3349   10.4889   21.0599 H   0  0  0  0  0  0  0  0  0  0  0  0
   48.7557   10.2346   19.3650 H   0  0  0  0  0  0  0  0  0  0  0  0
   46.5380    9.0807   19.0172 H   0  0  0  0  0  0  0  0  0  0  0  0
   46.2224    9.2239   20.7413 H   0  0  0  0  0  0  0  0  0  0  0  0
   48.5804    7.7287   19.4796 H   0  0  0  0  0  0  0  0  0  0  0  0
   47.0972    6.9867   20.0707 H   0  0  0  0  0  0  0  0  0  0  0  0
   49.1599    8.4665   21.7882 H   0  0  0  0  0  0  0  0  0  0  0  0
   47.6256    7.8177   22.3897 H   0  0  0  0  0  0  0  0  0  0  0  0
   48.8601    6.7283   21.7433 H   0  0  0  0  0  0  0  0  0  0  0  0
   49.3113   13.6824   16.7132 H   0  0  0  0  0  0  0  0  0  0  0  0
   47.1183   13.5262   18.8529 H   0  0  0  0  0  0  0  0  0  0  0  0
   47.1314   12.4823   17.4181 H   0  0  0  0  0  0  0  0  0  0  0  0
   50.8450   14.0632   18.5119 H   0  0  0  0  0  0  0  0  0  0  0  0
   46.4101   16.2764   14.9405 H   0  0  0  0  0  0  0  0  0  0  0  0
   45.3134   14.8883   14.8239 H   0  0  0  0  0  0  0  0  0  0  0  0
   49.8779   11.1992   20.8496 H   0  0  0  0  0  0  0  0  0  0  0  0
   49.8534   10.0375   19.5033 H   0  0  0  0  0  0  0  0  0  0  0  0
   48.5003   15.6293   18.9290 H   0  0  0  0  0  0  0  0  0  0  0  0
   49.7019   15.9426   17.6931 H   0  0  0  0  0  0  0  0  0  0  0  0
   45.6748   15.6920   12.5771 H   0  0  0  0  0  0  0  0  0  0  0  0
   46.5649   14.1756   12.7084 H   0  0  0  0  0  0  0  0  0  0  0  0
   47.9793    9.8620   21.9236 H   0  0  0  0  0  0  0  0  0  0  0  0
   49.5629    9.0979   21.8654 H   0  0  0  0  0  0  0  0  0  0  0  0
   48.5785   18.4185   10.7342 H   0  0  0  0  0  0  0  0  0  0  0  0
   50.1744   18.2861   10.0037 H   0  0  0  0  0  0  0  0  0  0  0  0
   48.7869    4.8617   23.7006 H   0  0  0  0  0  0  0  0  0  0  0  0
   47.5145    4.6300   22.5122 H   0  0  0  0  0  0  0  0  0  0  0  0
   48.9575    7.2729   23.0673 H   0  0  0  0  0  0  0  0  0  0  0  0
   49.3688    6.1526   21.7753 H   0  0  0  0  0  0  0  0  0  0  0  0
   49.4964   16.1602    9.6142 H   0  0  0  0  0  0  0  0  0  0  0  0
   50.2193   15.8783   11.1894 H   0  0  0  0  0  0  0  0  0  0  0  0
   48.8983    7.7567   19.8946 H   0  0  0  0  0  0  0  0  0  0  0  0
   47.3395    8.5695   19.8225 H   0  0  0  0  0  0  0  0  0  0  0  0
   46.7134    7.6551   22.0384 H   0  0  0  0  0  0  0  0  0  0  0  0
   47.0372    6.4081   20.8340 H   0  0  0  0  0  0  0  0  0  0  0  0
   48.6732   15.5369   13.1813 H   0  0  0  0  0  0  0  0  0  0  0  0
   47.7194   16.9988   12.9389 H   0  0  0  0  0  0  0  0  0  0  0  0
   48.0074   14.7913   10.8511 H   0  0  0  0  0  0  0  0  0  0  0  0
   47.2383   16.3495   10.6045 H   0  0  0  0  0  0  0  0  0  0  0  0
   49.6515   18.0456   13.0120 H   0  0  0  0  0  0  0  0  0  0  0  0
   50.3466   19.4295   12.1471 H   0  0  0  0  0  0  0  0  0  0  0  0
   51.2336   17.8919   12.2063 H   0  0  0  0  0  0  0  0  0  0  0  0
   47.3630    6.5333   24.9153 H   0  0  0  0  0  0  0  0  0  0  0  0
   46.6120    4.9298   24.8053 H   0  0  0  0  0  0  0  0  0  0  0  0
   46.0458    6.2335   23.7512 H   0  0  0  0  0  0  0  0  0  0  0  0
   50.7798   15.2345   13.1394 H   0  0  0  0  0  0  0  0  0  0  0  0
   49.2181   17.9696   12.7541 H   0  0  0  0  0  0  0  0  0  0  0  0
   48.1859   14.3420   13.7522 H   0  0  0  0  0  0  0  0  0  0  0  0
   49.9354   16.4843   15.1088 H   0  0  0  0  0  0  0  0  0  0  0  0
   48.1760   16.4750   15.2858 H   0  0  0  0  0  0  0  0  0  0  0  0
   48.8824   13.8192   18.4700 H   0  0  0  0  0  0  0  0  0  0  0  0
   49.1633   12.5723   17.2251 H   0  0  0  0  0  0  0  0  0  0  0  0
   48.5533   15.6113   11.6399 H   0  0  0  0  0  0  0  0  0  0  0  0
   47.6214   16.6120   12.7762 H   0  0  0  0  0  0  0  0  0  0  0  0
   46.4350   13.2196   18.4513 H   0  0  0  0  0  0  0  0  0  0  0  0
   46.7668   11.9272   17.3028 H   0  0  0  0  0  0  0  0  0  0  0  0
   46.5364   11.1125   19.6114 H   0  0  0  0  0  0  0  0  0  0  0  0
   47.8601   12.1397   20.1608 H   0  0  0  0  0  0  0  0  0  0  0  0
   48.1756    9.9273   18.0567 H   0  0  0  0  0  0  0  0  0  0  0  0
   49.4680   10.9056   18.7449 H   0  0  0  0  0  0  0  0  0  0  0  0
   48.9110    9.9804   21.0336 H   0  0  0  0  0  0  0  0  0  0  0  0
   49.5828    8.8404   19.8677 H   0  0  0  0  0  0  0  0  0  0  0  0
   47.2881    7.9896   19.3513 H   0  0  0  0  0  0  0  0  0  0  0  0
   46.6005    9.0817   20.5548 H   0  0  0  0  0  0  0  0  0  0  0  0
   46.9205    6.8085   21.4797 H   0  0  0  0  0  0  0  0  0  0  0  0
   48.6592    6.9007   21.1600 H   0  0  0  0  0  0  0  0  0  0  0  0
   47.9184    7.9860   22.3508 H   0  0  0  0  0  0  0  0  0  0  0  0
  1  5  1  0
  1  7  1  0
  2  5  2  0
  3  6  1  0
  4 10  1  0
  5  8  1  0
  6  7  1  0
  6 10  1  0
  8  9  1  0
  9 11  1  0
 11 12  1  0
 12 13  1  0
 13 14  1  0
 14 15  1  0
 15 16  1  0
 16 17  1  0
 19 23  1  0
 20 18  1  0
 21 18  2  0
 22 19  2  0
 23 25  1  0
 24 20  1  0
 25 24  1  0
 26 29  1  0
 27 18  1  0
 28 19  1  0
 29 24  1  0
 30 27  1  0
 31 28  1  0
 32 35  1  0
 33 34  1  0
 34 37  1  0
 35 39  1  0
 36 31  1  0
 37 36  1  0
 38 30  1  0
 39 38  1  0
 40 32  1  0
 41 33  1  0
 42 46  1  0
 42 48  1  0
 43 46  2  0
 44 47  1  0
 45 50  1  0
 46 49  1  0
 47 48  1  0
 47 50  1  0
 49 51  1  0
 51 52  1  0
 52 53  1  0
 53 54  1  0
 54 55  1  0
 55 56  1  0
  3 57  1  0
  4 58  1  0
  6 59  1  1
  7 60  1  0
  7 61  1  0
  8 62  1  0
  8 63  1  0
  9 64  1  0
  9 65  1  0
 10 66  1  0
 10 67  1  0
 11 68  1  0
 11 69  1  0
 12 70  1  0
 12 71  1  0
 13 72  1  0
 13 73  1  0
 14 74  1  0
 14 75  1  0
 15 76  1  0
 15 77  1  0
 16 78  1  0
 16 79  1  0
 17 80  1  0
 17 81  1  0
 17 82  1  0
 24 83  1  1
 25 84  1  0
 25 85  1  0
 26 86  1  0
 27 87  1  0
 27 88  1  0
 28 89  1  0
 28 90  1  0
 29 91  1  0
 29 92  1  0
 30 93  1  0
 30 94  1  0
 31 95  1  0
 31 96  1  0
 32 97  1  0
 32 98  1  0
 33 99  1  0
 33100  1  0
 34101  1  0
 34102  1  0
 35103  1  0
 35104  1  0
 36105  1  0
 36106  1  0
 37107  1  0
 37108  1  0
 38109  1  0
 38110  1  0
 39111  1  0
 39112  1  0
 40113  1  0
 40114  1  0
 40115  1  0
 41116  1  0
 41117  1  0
 41118  1  0
 44119  1  0
 45120  1  0
 47121  1  6
 48122  1  0
 48123  1  0
 49124  1  0
 49125  1  0
 50126  1  0
 50127  1  0
 51128  1  0
 51129  1  0
 52130  1  0
 52131  1  0
 53132  1  0
 53133  1  0
 54134  1  0
 54135  1  0
 55136  1  0
 55137  1  0
 56138  1  0
 56139  1  0
 56140  1  0
M  END
> <Uni-Dock RESULT> 
ENERGY=   -5.686  LOWER_BOUND=    5.524  UPPER_BOUND=   10.650
INTER + INTRA:          -5.686
INTER:                  -5.686
INTRA:                   0.000
UNBOUND:                 0.000

$$$$

     RDKit          3D

140137  0  0  0  0  0  0  0  0999 V2000
   49.9255   13.1045   16.7357 O   0  0  0  0  0  0  0  0  0  0  0  0
   48.5250   13.1954   14.9178 O   0  0  0  0  0  0  0  0  0  0  0  0
   49.4509   16.7817   16.8248 O   0  0  0  0  0  0  0  0  0  0  0  0
   52.0721   15.9397   17.4565 O   0  0  0  0  0  0  0  0  0  0  0  0
   49.3269   12.5949   15.6228 C   0  0  0  0  0  0  0  0  0  0  0  0
   49.9717   15.5570   16.2910 C   0  0  2  0  0  0  0  0  0  0  0  0
   49.4694   14.3998   17.1622 C   0  0  0  0  0  0  0  0  0  0  0  0
   49.7924   11.1738   15.4086 C   0  0  0  0  0  0  0  0  0  0  0  0
   49.4718   10.6876   13.9960 C   0  0  0  0  0  0  0  0  0  0  0  0
   51.5024   15.6135   16.1915 C   0  0  0  0  0  0  0  0  0  0  0  0
   50.0469    9.2998   13.6958 C   0  0  0  0  0  0  0  0  0  0  0  0
   49.5133    8.1616   14.5740 C   0  0  0  0  0  0  0  0  0  0  0  0
   47.9914    7.9667   14.5506 C   0  0  0  0  0  0  0  0  0  0  0  0
   47.4419    7.6969   13.1469 C   0  0  0  0  0  0  0  0  0  0  0  0
   45.9478    7.3703   13.1801 C   0  0  0  0  0  0  0  0  0  0  0  0
   45.3257    7.2360   11.7883 C   0  0  0  0  0  0  0  0  0  0  0  0
   45.8762    6.0681   10.9852 C   0  0  0  0  0  0  0  0  0  0  0  0
   49.2588   12.4571   16.7304 C   0  0  0  0  0  0  0  0  0  0  0  0
   48.2437    8.2445   13.5644 C   0  0  0  0  0  0  0  0  0  0  0  0
   50.1487   11.4389   16.5751 O   0  0  0  0  0  0  0  0  0  0  0  0
   48.5217   12.8778   15.8506 O   0  0  0  0  0  0  0  0  0  0  0  0
   47.6448    7.6472   14.4451 O   0  0  0  0  0  0  0  0  0  0  0  0
   48.9988    9.3628   13.7561 O   0  0  0  0  0  0  0  0  0  0  0  0
   50.1987   10.8486   15.2592 C   0  0  2  0  0  0  0  0  0  0  0  0
   49.0970    9.7877   15.1222 C   0  0  0  0  0  0  0  0  0  0  0  0
   51.8246    9.6892   13.8005 O   0  0  0  0  0  0  0  0  0  0  0  0
   49.2945   12.9674   18.1527 C   0  0  0  0  0  0  0  0  0  0  0  0
   48.2915    7.8578   12.1032 C   0  0  0  0  0  0  0  0  0  0  0  0
   51.6041   10.2497   15.0876 C   0  0  0  0  0  0  0  0  0  0  0  0
   49.0142   14.4686   18.2309 C   0  0  0  0  0  0  0  0  0  0  0  0
   47.3715    6.6892   11.7527 C   0  0  0  0  0  0  0  0  0  0  0  0
   52.2661   17.7230   17.7158 C   0  0  0  0  0  0  0  0  0  0  0  0
   44.1123    4.2105    9.7352 C   0  0  0  0  0  0  0  0  0  0  0  0
   45.1706    5.2623   10.0706 C   0  0  0  0  0  0  0  0  0  0  0  0
   50.9068   17.6702   17.0112 C   0  0  0  0  0  0  0  0  0  0  0  0
   45.8983    7.1015   11.6905 C   0  0  0  0  0  0  0  0  0  0  0  0
   44.9481    5.9248   11.4324 C   0  0  0  0  0  0  0  0  0  0  0  0
   50.1804   15.3006   17.6870 C   0  0  0  0  0  0  0  0  0  0  0  0
   49.8584   16.7926   17.7052 C   0  0  0  0  0  0  0  0  0  0  0  0
   53.2737   16.7169   17.1714 C   0  0  0  0  0  0  0  0  0  0  0  0
   44.1808    2.9775   10.6221 C   0  0  0  0  0  0  0  0  0  0  0  0
   50.8812   12.2519   15.3333 O   0  0  0  0  0  0  0  0  0  0  0  0
   49.3536   11.6119   16.9204 O   0  0  0  0  0  0  0  0  0  0  0  0
   50.4141   15.0941   14.8247 O   0  0  0  0  0  0  0  0  0  0  0  0
   52.0359   16.0642   16.9145 O   0  0  0  0  0  0  0  0  0  0  0  0
   49.8708   11.4783   15.8211 C   0  0  0  0  0  0  0  0  0  0  0  0
   50.3561   14.5080   16.1351 C   0  0  1  0  0  0  0  0  0  0  0  0
   51.3191   13.3154   16.1967 C   0  0  0  0  0  0  0  0  0  0  0  0
   49.4999   10.4371   14.7898 C   0  0  0  0  0  0  0  0  0  0  0  0
   50.7181   15.5777   17.1692 C   0  0  0  0  0  0  0  0  0  0  0  0
   48.3540    9.5443   15.2634 C   0  0  0  0  0  0  0  0  0  0  0  0
   48.0121    8.4091   14.2919 C   0  0  0  0  0  0  0  0  0  0  0  0
   47.5445    8.9067   12.9200 C   0  0  0  0  0  0  0  0  0  0  0  0
   47.0962    7.7774   11.9878 C   0  0  0  0  0  0  0  0  0  0  0  0
   45.7573    7.1637   12.3944 C   0  0  0  0  0  0  0  0  0  0  0  0
   45.3219    6.0905   11.4078 C   0  0  0  0  0  0  0  0  0  0  0  0
   50.1493   17.4598   16.7572 H   0  0  0  0  0  0  0  0  0  0  0  0
   53.0353   15.9873   17.3359 H   0  0  0  0  0  0  0  0  0  0  0  0
   49.5773   15.4557   15.2750 H   0  0  0  0  0  0  0  0  0  0  0  0
   49.8109   14.5396   18.1932 H   0  0  0  0  0  0  0  0  0  0  0  0
   48.3720   14.4060   17.2212 H   0  0  0  0  0  0  0  0  0  0  0  0
   49.2939   10.5485   16.1560 H   0  0  0  0  0  0  0  0  0  0  0  0
   50.8748   11.1328   15.5719 H   0  0  0  0  0  0  0  0  0  0  0  0
   49.8851   11.3955   13.2681 H   0  0  0  0  0  0  0  0  0  0  0  0
   48.3876   10.6941   13.8345 H   0  0  0  0  0  0  0  0  0  0  0  0
   51.7977   16.4035   15.4916 H   0  0  0  0  0  0  0  0  0  0  0  0
   51.9181   14.6632   15.8457 H   0  0  0  0  0  0  0  0  0  0  0  0
   51.1377    9.3375   13.8084 H   0  0  0  0  0  0  0  0  0  0  0  0
   49.8625    9.0662   12.6402 H   0  0  0  0  0  0  0  0  0  0  0  0
   49.9948    7.2293   14.2500 H   0  0  0  0  0  0  0  0  0  0  0  0
   49.8274    8.3206   15.6131 H   0  0  0  0  0  0  0  0  0  0  0  0
   47.4901    8.8404   14.9848 H   0  0  0  0  0  0  0  0  0  0  0  0
   47.7491    7.1128   15.1983 H   0  0  0  0  0  0  0  0  0  0  0  0
   47.9945    6.8652   12.6942 H   0  0  0  0  0  0  0  0  0  0  0  0
   47.5968    8.5751   12.5134 H   0  0  0  0  0  0  0  0  0  0  0  0
   45.4160    8.1658   13.7162 H   0  0  0  0  0  0  0  0  0  0  0  0
   45.7842    6.4463   13.7445 H   0  0  0  0  0  0  0  0  0  0  0  0
   45.4777    8.1618   11.2243 H   0  0  0  0  0  0  0  0  0  0  0  0
   44.2415    7.1050   11.8989 H   0  0  0  0  0  0  0  0  0  0  0  0
   46.9385    6.1970   10.7605 H   0  0  0  0  0  0  0  0  0  0  0  0
   45.7548    5.1254   11.5268 H   0  0  0  0  0  0  0  0  0  0  0  0
   45.3462    5.9789   10.0324 H   0  0  0  0  0  0  0  0  0  0  0  0
   50.0763   11.6121   14.4774 H   0  0  0  0  0  0  0  0  0  0  0  0
   49.3246    8.9374   15.7786 H   0  0  0  0  0  0  0  0  0  0  0  0
   48.1301   10.2042   15.4362 H   0  0  0  0  0  0  0  0  0  0  0  0
   51.6167   10.3661   13.1332 H   0  0  0  0  0  0  0  0  0  0  0  0
   50.2730   12.7509   18.5948 H   0  0  0  0  0  0  0  0  0  0  0  0
   48.5372   12.4124   18.7197 H   0  0  0  0  0  0  0  0  0  0  0  0
   49.3273    7.5723   11.8858 H   0  0  0  0  0  0  0  0  0  0  0  0
   48.0380    8.7321   11.4918 H   0  0  0  0  0  0  0  0  0  0  0  0
   51.7853    9.4674   15.8329 H   0  0  0  0  0  0  0  0  0  0  0  0
   52.3687   11.0167   15.2594 H   0  0  0  0  0  0  0  0  0  0  0  0
   48.8440   14.7397   19.2806 H   0  0  0  0  0  0  0  0  0  0  0  0
   48.0933   14.7108   17.6853 H   0  0  0  0  0  0  0  0  0  0  0  0
   47.5034    5.8774   12.4747 H   0  0  0  0  0  0  0  0  0  0  0  0
   47.6842    6.3009   10.7767 H   0  0  0  0  0  0  0  0  0  0  0  0
   52.1443   17.5922   18.7991 H   0  0  0  0  0  0  0  0  0  0  0  0
   52.6881   18.7250   17.5664 H   0  0  0  0  0  0  0  0  0  0  0  0
   44.2473    3.9010    8.6924 H   0  0  0  0  0  0  0  0  0  0  0  0
   43.1114    4.6533    9.8009 H   0  0  0  0  0  0  0  0  0  0  0  0
   46.1617    4.7982   10.0244 H   0  0  0  0  0  0  0  0  0  0  0  0
   45.1455    6.0330    9.2922 H   0  0  0  0  0  0  0  0  0  0  0  0
   50.4987   18.6898   16.9869 H   0  0  0  0  0  0  0  0  0  0  0  0
   51.0210   17.3616   15.9641 H   0  0  0  0  0  0  0  0  0  0  0  0
   45.7653    7.8581   10.9096 H   0  0  0  0  0  0  0  0  0  0  0  0
   45.6060    7.5709   12.6381 H   0  0  0  0  0  0  0  0  0  0  0  0
   45.0637    5.1874   12.2342 H   0  0  0  0  0  0  0  0  0  0  0  0
   43.9191    6.3010   11.4858 H   0  0  0  0  0  0  0  0  0  0  0  0
   50.4176   14.9911   16.6652 H   0  0  0  0  0  0  0  0  0  0  0  0
   51.0639   15.1025   18.3010 H   0  0  0  0  0  0  0  0  0  0  0  0
   48.9004   16.9515   17.1982 H   0  0  0  0  0  0  0  0  0  0  0  0
   49.7204   17.1287   18.7398 H   0  0  0  0  0  0  0  0  0  0  0  0
   52.9426   15.6829   17.3173 H   0  0  0  0  0  0  0  0  0  0  0  0
   54.2307   16.8444   17.6890 H   0  0  0  0  0  0  0  0  0  0  0  0
   53.4437   16.8813   16.0972 H   0  0  0  0  0  0  0  0  0  0  0  0
   45.1719    2.5111   10.5661 H   0  0  0  0  0  0  0  0  0  0  0  0
   43.4403    2.2418   10.2897 H   0  0  0  0  0  0  0  0  0  0  0  0
   43.9627    3.2207   11.6681 H   0  0  0  0  0  0  0  0  0  0  0  0
   51.2524   15.5932   14.8020 H   0  0  0  0  0  0  0  0  0  0  0  0
   52.5934   15.7993   17.6704 H   0  0  0  0  0  0  0  0  0  0  0  0
   49.3218   14.1878   16.2845 H   0  0  0  0  0  0  0  0  0  0  0  0
   52.3130   13.6034   15.8361 H   0  0  0  0  0  0  0  0  0  0  0  0
   51.4351   12.9384   17.2196 H   0  0  0  0  0  0  0  0  0  0  0  0
   50.3882    9.8290   14.5876 H   0  0  0  0  0  0  0  0  0  0  0  0
   49.2118   10.9693   13.8810 H   0  0  0  0  0  0  0  0  0  0  0  0
   50.0460   16.4358   17.0784 H   0  0  0  0  0  0  0  0  0  0  0  0
   50.6565   15.1910   18.1913 H   0  0  0  0  0  0  0  0  0  0  0  0
   48.6220    9.0972   16.2291 H   0  0  0  0  0  0  0  0  0  0  0  0
   47.4578   10.1552   15.4387 H   0  0  0  0  0  0  0  0  0  0  0  0
   47.2249    7.8047   14.7550 H   0  0  0  0  0  0  0  0  0  0  0  0
   48.8864    7.7573   14.1666 H   0  0  0  0  0  0  0  0  0  0  0  0
   46.7293    9.6290   13.0418 H   0  0  0  0  0  0  0  0  0  0  0  0
   48.3678    9.4355   12.4264 H   0  0  0  0  0  0  0  0  0  0  0  0
   47.8699    7.0008   11.9477 H   0  0  0  0  0  0  0  0  0  0  0  0
   47.0030    8.1866   10.9716 H   0  0  0  0  0  0  0  0  0  0  0  0
   44.9904    7.9472   12.4372 H   0  0  0  0  0  0  0  0  0  0  0  0
   45.8188    6.7163   13.3924 H   0  0  0  0  0  0  0  0  0  0  0  0
   44.3423    5.6928   11.6903 H   0  0  0  0  0  0  0  0  0  0  0  0
   45.2431    6.4965   10.3955 H   0  0  0  0  0  0  0  0  0  0  0  0
   46.0354    5.2620   11.3921 H   0  0  0  0  0  0  0  0  0  0  0  0
  1  5  1  0
  1  7  1  0
  2  5  2  0
  3  6  1  0
  4 10  1  0
  5  8  1  0
  6  7  1  0
  6 10  1  0
  8  9  1  0
  9 11  1  0
 11 12  1  0
 12 13  1  0
 13 14  1  0
 14 15  1  0
 15 16  1  0
 16 17  1  0
 19 23  1  0
 20 18  1  0
 21 18  2  0
 22 19  2  0
 23 25  1  0
 24 20  1  0
 25 24  1  0
 26 29  1  0
 27 18  1  0
 28 19  1  0
 29 24  1  0
 30 27  1  0
 31 28  1  0
 32 35  1  0
 33 34  1  0
 34 37  1  0
 35 39  1  0
 36 31  1  0
 37 36  1  0
 38 30  1  0
 39 38  1  0
 40 32  1  0
 41 33  1  0
 42 46  1  0
 42 48  1  0
 43 46  2  0
 44 47  1  0
 45 50  1  0
 46 49  1  0
 47 48  1  0
 47 50  1  0
 49 51  1  0
 51 52  1  0
 52 53  1  0
 53 54  1  0
 54 55  1  0
 55 56  1  0
  3 57  1  0
  4 58  1  0
  6 59  1  1
  7 60  1  0
  7 61  1  0
  8 62  1  0
  8 63  1  0
  9 64  1  0
  9 65  1  0
 10 66  1  0
 10 67  1  0
 11 68  1  0
 11 69  1  0
 12 70  1  0
 12 71  1  0
 13 72  1  0
 13 73  1  0
 14 74  1  0
 14 75  1  0
 15 76  1  0
 15 77  1  0
 16 78  1  0
 16 79  1  0
 17 80  1  0
 17 81  1  0
 17 82  1  0
 24 83  1  1
 25 84  1  0
 25 85  1  0
 26 86  1  0
 27 87  1  0
 27 88  1  0
 28 89  1  0
 28 90  1  0
 29 91  1  0
 29 92  1  0
 30 93  1  0
 30 94  1  0
 31 95  1  0
 31 96  1  0
 32 97  1  0
 32 98  1  0
 33 99  1  0
 33100  1  0
 34101  1  0
 34102  1  0
 35103  1  0
 35104  1  0
 36105  1  0
 36106  1  0
 37107  1  0
 37108  1  0
 38109  1  0
 38110  1  0
 39111  1  0
 39112  1  0
 40113  1  0
 40114  1  0
 40115  1  0
 41116  1  0
 41117  1  0
 41118  1  0
 44119  1  0
 45120  1  0
 47121  1  6
 48122  1  0
 48123  1  0
 49124  1  0
 49125  1  0
 50126  1  0
 50127  1  0
 51128  1  0
 51129  1  0
 52130  1  0
 52131  1  0
 53132  1  0
 53133  1  0
 54134  1  0
 54135  1  0
 55136  1  0
 55137  1  0
 56138  1  0
 56139  1  0
 56140  1  0
M  END
> <Uni-Dock RESULT> 
ENERGY=   -5.545  LOWER_BOUND=    4.855  UPPER_BOUND=    7.039
INTER + INTRA:          -5.545
INTER:                  -5.545
INTRA:                   0.000
UNBOUND:                 0.000

$$$$

     RDKit          3D

140137  0  0  0  0  0  0  0  0999 V2000
   52.2533   12.5680   14.4146 O   0  0  0  0  0  0  0  0  0  0  0  0
   51.0058   11.2338   15.8069 O   0  0  0  0  0  0  0  0  0  0  0  0
   53.9622   13.6033   17.5392 O   0  0  0  0  0  0  0  0  0  0  0  0
   53.5761   15.6988   15.6849 O   0  0  0  0  0  0  0  0  0  0  0  0
   51.1969   11.7629   14.7187 C   0  0  0  0  0  0  0  0  0  0  0  0
   52.8664   13.5663   16.6151 C   0  0  2  0  0  0  0  0  0  0  0  0
   53.2691   12.6871   15.4254 C   0  0  0  0  0  0  0  0  0  0  0  0
   50.3140   11.6124   13.5021 C   0  0  0  0  0  0  0  0  0  0  0  0
   48.9400   11.0569   13.8738 C   0  0  0  0  0  0  0  0  0  0  0  0
   52.4552   14.9859   16.2008 C   0  0  0  0  0  0  0  0  0  0  0  0
   47.9704   11.0159   12.6886 C   0  0  0  0  0  0  0  0  0  0  0  0
   48.3941   10.1159   11.5216 C   0  0  0  0  0  0  0  0  0  0  0  0
   48.6377    8.6433   11.8775 C   0  0  0  0  0  0  0  0  0  0  0  0
   47.4132    7.9647   12.4980 C   0  0  0  0  0  0  0  0  0  0  0  0
   47.6459    6.4677   12.7102 C   0  0  0  0  0  0  0  0  0  0  0  0
   46.5044    5.7773   13.4601 C   0  0  0  0  0  0  0  0  0  0  0  0
   45.1879    5.7772   12.6991 C   0  0  0  0  0  0  0  0  0  0  0  0
   52.1317   11.6991   14.1083 C   0  0  0  0  0  0  0  0  0  0  0  0
   47.8262    8.9374   12.4843 C   0  0  0  0  0  0  0  0  0  0  0  0
   51.3713   12.1007   13.0532 O   0  0  0  0  0  0  0  0  0  0  0  0
   51.6974   11.1492   15.1100 O   0  0  0  0  0  0  0  0  0  0  0  0
   48.4910    8.1934   11.7803 O   0  0  0  0  0  0  0  0  0  0  0  0
   48.2871   10.0840   13.0592 O   0  0  0  0  0  0  0  0  0  0  0  0
   49.9555   11.8478   13.1715 C   0  0  2  0  0  0  0  0  0  0  0  0
   49.6451   10.4092   12.7327 C   0  0  0  0  0  0  0  0  0  0  0  0
   47.8209   12.8043   12.3690 O   0  0  0  0  0  0  0  0  0  0  0  0
   53.5886   12.0038   13.8461 C   0  0  0  0  0  0  0  0  0  0  0  0
   46.3671    8.7566   12.8382 C   0  0  0  0  0  0  0  0  0  0  0  0
   49.2377   12.8879   12.2963 C   0  0  0  0  0  0  0  0  0  0  0  0
   54.3429   12.3493   15.1306 C   0  0  0  0  0  0  0  0  0  0  0  0
   45.7828    7.4313   12.3515 C   0  0  0  0  0  0  0  0  0  0  0  0
   54.4994   16.5998   16.9581 C   0  0  0  0  0  0  0  0  0  0  0  0
   43.7166    3.3609   12.3506 C   0  0  0  0  0  0  0  0  0  0  0  0
   44.2079    4.7656   12.7031 C   0  0  0  0  0  0  0  0  0  0  0  0
   54.1645   15.2998   17.6962 C   0  0  0  0  0  0  0  0  0  0  0  0
   46.2327    6.2433   13.2063 C   0  0  0  0  0  0  0  0  0  0  0  0
   45.7332    4.8917   12.6794 C   0  0  0  0  0  0  0  0  0  0  0  0
   53.9436   13.7227   15.6805 C   0  0  0  0  0  0  0  0  0  0  0  0
   54.6505   14.0233   16.9996 C   0  0  0  0  0  0  0  0  0  0  0  0
   53.3743   17.0953   16.0566 C   0  0  0  0  0  0  0  0  0  0  0  0
   43.9723    2.9751   10.9024 C   0  0  0  0  0  0  0  0  0  0  0  0
   50.4472   13.0357   14.0589 O   0  0  0  0  0  0  0  0  0  0  0  0
   51.9276   11.4581   13.2960 O   0  0  0  0  0  0  0  0  0  0  0  0
   51.2818   13.7162   16.7783 O   0  0  0  0  0  0  0  0  0  0  0  0
   53.1582   15.6891   16.0533 O   0  0  0  0  0  0  0  0  0  0  0  0
   50.7860   11.8256   13.5316 C   0  0  0  0  0  0  0  0  0  0  0  0
   52.2074   13.4928   15.7025 C   0  0  1  0  0  0  0  0  0  0  0  0
   51.5495   13.9023   14.3786 C   0  0  0  0  0  0  0  0  0  0  0  0
   49.5297   11.0210   13.2868 C   0  0  0  0  0  0  0  0  0  0  0  0
   53.4800   14.3006   15.9722 C   0  0  0  0  0  0  0  0  0  0  0  0
   49.8373    9.6386   12.7135 C   0  0  0  0  0  0  0  0  0  0  0  0
   48.5882    8.8261   12.3541 C   0  0  0  0  0  0  0  0  0  0  0  0
   47.6909    8.5300   13.5605 C   0  0  0  0  0  0  0  0  0  0  0  0
   46.5030    7.6243   13.2227 C   0  0  0  0  0  0  0  0  0  0  0  0
   46.9109    6.1730   12.9733 C   0  0  0  0  0  0  0  0  0  0  0  0
   45.6954    5.2989   12.7027 C   0  0  0  0  0  0  0  0  0  0  0  0
   54.0251   14.5099   17.8943 H   0  0  0  0  0  0  0  0  0  0  0  0
   53.2713   16.5941   15.4612 H   0  0  0  0  0  0  0  0  0  0  0  0
   52.0182   13.1157   17.1400 H   0  0  0  0  0  0  0  0  0  0  0  0
   54.1584   13.1053   14.9425 H   0  0  0  0  0  0  0  0  0  0  0  0
   53.5724   11.6874   15.7665 H   0  0  0  0  0  0  0  0  0  0  0  0
   50.8270   10.9428   12.8046 H   0  0  0  0  0  0  0  0  0  0  0  0
   50.1956   12.5954   13.0331 H   0  0  0  0  0  0  0  0  0  0  0  0
   48.4979   11.6824   14.6580 H   0  0  0  0  0  0  0  0  0  0  0  0
   49.0461   10.0587   14.3143 H   0  0  0  0  0  0  0  0  0  0  0  0
   52.0983   15.5375   17.0781 H   0  0  0  0  0  0  0  0  0  0  0  0
   51.6625   14.9712   15.4478 H   0  0  0  0  0  0  0  0  0  0  0  0
   47.8379   12.0354   12.3051 H   0  0  0  0  0  0  0  0  0  0  0  0
   46.9849   10.7030   13.0543 H   0  0  0  0  0  0  0  0  0  0  0  0
   47.6132   10.1697   10.7513 H   0  0  0  0  0  0  0  0  0  0  0  0
   49.3048   10.5172   11.0596 H   0  0  0  0  0  0  0  0  0  0  0  0
   49.4960    8.5534   12.5546 H   0  0  0  0  0  0  0  0  0  0  0  0
   48.9101    8.1123   10.9548 H   0  0  0  0  0  0  0  0  0  0  0  0
   46.5445    8.1175   11.8469 H   0  0  0  0  0  0  0  0  0  0  0  0
   47.1833    8.4261   13.4628 H   0  0  0  0  0  0  0  0  0  0  0  0
   48.5685    6.3236   13.2856 H   0  0  0  0  0  0  0  0  0  0  0  0
   47.7978    5.9768   11.7433 H   0  0  0  0  0  0  0  0  0  0  0  0
   46.3562    6.2583   14.4322 H   0  0  0  0  0  0  0  0  0  0  0  0
   46.7934    4.7374   13.6603 H   0  0  0  0  0  0  0  0  0  0  0  0
   44.8025    6.7906   12.5581 H   0  0  0  0  0  0  0  0  0  0  0  0
   45.3026    5.3164   11.7136 H   0  0  0  0  0  0  0  0  0  0  0  0
   44.4313    5.2102   13.2493 H   0  0  0  0  0  0  0  0  0  0  0  0
   49.6102   12.0022   14.2041 H   0  0  0  0  0  0  0  0  0  0  0  0
   49.8201   10.3105   11.6533 H   0  0  0  0  0  0  0  0  0  0  0  0
   50.3136    9.7049   13.2465 H   0  0  0  0  0  0  0  0  0  0  0  0
   47.5601   12.8515   13.3052 H   0  0  0  0  0  0  0  0  0  0  0  0
   53.6669   12.8351   13.1370 H   0  0  0  0  0  0  0  0  0  0  0  0
   54.0304   11.1164   13.3766 H   0  0  0  0  0  0  0  0  0  0  0  0
   45.8225    9.5809   12.3635 H   0  0  0  0  0  0  0  0  0  0  0  0
   46.2477    8.8433   13.9248 H   0  0  0  0  0  0  0  0  0  0  0  0
   49.5296   12.7781   11.2461 H   0  0  0  0  0  0  0  0  0  0  0  0
   49.5334   13.9022   12.5899 H   0  0  0  0  0  0  0  0  0  0  0  0
   55.4190   12.3520   14.9160 H   0  0  0  0  0  0  0  0  0  0  0  0
   54.1709   11.5761   15.8903 H   0  0  0  0  0  0  0  0  0  0  0  0
   46.0532    7.2634   11.3044 H   0  0  0  0  0  0  0  0  0  0  0  0
   44.6908    7.5158   12.3885 H   0  0  0  0  0  0  0  0  0  0  0  0
   55.4277   16.4884   16.3827 H   0  0  0  0  0  0  0  0  0  0  0  0
   54.6869   17.3785   17.7083 H   0  0  0  0  0  0  0  0  0  0  0  0
   42.6386    3.3109   12.5423 H   0  0  0  0  0  0  0  0  0  0  0  0
   44.1848    2.6240   13.0138 H   0  0  0  0  0  0  0  0  0  0  0  0
   43.7503    5.4862   12.0166 H   0  0  0  0  0  0  0  0  0  0  0  0
   43.8466    5.0123   13.7077 H   0  0  0  0  0  0  0  0  0  0  0  0
   54.6578   15.3313   18.6773 H   0  0  0  0  0  0  0  0  0  0  0  0
   53.0877   15.2309   17.8976 H   0  0  0  0  0  0  0  0  0  0  0  0
   45.8877    6.3854   14.2362 H   0  0  0  0  0  0  0  0  0  0  0  0
   47.3286    6.2085   13.2422 H   0  0  0  0  0  0  0  0  0  0  0  0
   46.1085    4.7423   11.6611 H   0  0  0  0  0  0  0  0  0  0  0  0
   46.1693    4.1018   13.3032 H   0  0  0  0  0  0  0  0  0  0  0  0
   52.8609   13.7672   15.8285 H   0  0  0  0  0  0  0  0  0  0  0  0
   54.2025   14.4825   14.9373 H   0  0  0  0  0  0  0  0  0  0  0  0
   54.4865   13.1848   17.6851 H   0  0  0  0  0  0  0  0  0  0  0  0
   55.7330   14.0808   16.8345 H   0  0  0  0  0  0  0  0  0  0  0  0
   53.1498   16.3870   15.2516 H   0  0  0  0  0  0  0  0  0  0  0  0
   53.6665   18.0476   15.6007 H   0  0  0  0  0  0  0  0  0  0  0  0
   52.4569   17.2647   16.6392 H   0  0  0  0  0  0  0  0  0  0  0  0
   43.5051    3.6941   10.2187 H   0  0  0  0  0  0  0  0  0  0  0  0
   43.5424    1.9876   10.7018 H   0  0  0  0  0  0  0  0  0  0  0  0
   45.0446    2.9227   10.6825 H   0  0  0  0  0  0  0  0  0  0  0  0
   51.2784   14.6819   16.9196 H   0  0  0  0  0  0  0  0  0  0  0  0
   53.5884   16.1306   15.2968 H   0  0  0  0  0  0  0  0  0  0  0  0
   52.4410   12.4251   15.7131 H   0  0  0  0  0  0  0  0  0  0  0  0
   51.1256   14.9100   14.4542 H   0  0  0  0  0  0  0  0  0  0  0  0
   52.2688   13.9077   13.5512 H   0  0  0  0  0  0  0  0  0  0  0  0
   48.8983   11.5825   12.5897 H   0  0  0  0  0  0  0  0  0  0  0  0
   49.0143   10.9254   14.2446 H   0  0  0  0  0  0  0  0  0  0  0  0
   53.9077   14.0226   16.9398 H   0  0  0  0  0  0  0  0  0  0  0  0
   54.2348   14.1394   15.1961 H   0  0  0  0  0  0  0  0  0  0  0  0
   50.4427    9.7525   11.8053 H   0  0  0  0  0  0  0  0  0  0  0  0
   50.4479    9.0698   13.4280 H   0  0  0  0  0  0  0  0  0  0  0  0
   48.9247    7.8865   11.9029 H   0  0  0  0  0  0  0  0  0  0  0  0
   48.0097    9.3610   11.5898 H   0  0  0  0  0  0  0  0  0  0  0  0
   48.2822    8.0771   14.3646 H   0  0  0  0  0  0  0  0  0  0  0  0
   47.2881    9.4709   13.9522 H   0  0  0  0  0  0  0  0  0  0  0  0
   45.9708    8.0214   12.3497 H   0  0  0  0  0  0  0  0  0  0  0  0
   45.7979    7.6529   14.0657 H   0  0  0  0  0  0  0  0  0  0  0  0
   47.4469    5.7849   13.8484 H   0  0  0  0  0  0  0  0  0  0  0  0
   47.5914    6.0992   12.1180 H   0  0  0  0  0  0  0  0  0  0  0  0
   46.0018    4.2568   12.5692 H   0  0  0  0  0  0  0  0  0  0  0  0
   44.9890    5.3397   13.5364 H   0  0  0  0  0  0  0  0  0  0  0  0
   45.1768    5.6214   11.7957 H   0  0  0  0  0  0  0  0  0  0  0  0
  1  5  1  0
  1  7  1  0
  2  5  2  0
  3  6  1  0
  4 10  1  0
  5  8  1  0
  6  7  1  0
  6 10  1  0
  8  9  1  0
  9 11  1  0
 11 12  1  0
 12 13  1  0
 13 14  1  0
 14 15  1  0
 15 16  1  0
 16 17  1  0
 19 23  1  0
 20 18  1  0
 21 18  2  0
 22 19  2  0
 23 25  1  0
 24 20  1  0
 25 24  1  0
 26 29  1  0
 27 18  1  0
 28 19  1  0
 29 24  1  0
 30 27  1  0
 31 28  1  0
 32 35  1  0
 33 34  1  0
 34 37  1  0
 35 39  1  0
 36 31  1  0
 37 36  1  0
 38 30  1  0
 39 38  1  0
 40 32  1  0
 41 33  1  0
 42 46  1  0
 42 48  1  0
 43 46  2  0
 44 47  1  0
 45 50  1  0
 46 49  1  0
 47 48  1  0
 47 50  1  0
 49 51  1  0
 51 52  1  0
 52 53  1  0
 53 54  1  0
 54 55  1  0
 55 56  1  0
  3 57  1  0
  4 58  1  0
  6 59  1  1
  7 60  1  0
  7 61  1  0
  8 62  1  0
  8 63  1  0
  9 64  1  0
  9 65  1  0
 10 66  1  0
 10 67  1  0
 11 68  1  0
 11 69  1  0
 12 70  1  0
 12 71  1  0
 13 72  1  0
 13 73  1  0
 14 74  1  0
 14 75  1  0
 15 76  1  0
 15 77  1  0
 16 78  1  0
 16 79  1  0
 17 80  1  0
 17 81  1  0
 17 82  1  0
 24 83  1  1
 25 84  1  0
 25 85  1  0
 26 86  1  0
 27 87  1  0
 27 88  1  0
 28 89  1  0
 28 90  1  0
 29 91  1  0
 29 92  1  0
 30 93  1  0
 30 94  1  0
 31 95  1  0
 31 96  1  0
 32 97  1  0
 32 98  1  0
 33 99  1  0
 33100  1  0
 34101  1  0
 34102  1  0
 35103  1  0
 35104  1  0
 36105  1  0
 36106  1  0
 37107  1  0
 37108  1  0
 38109  1  0
 38110  1  0
 39111  1  0
 39112  1  0
 40113  1  0
 40114  1  0
 40115  1  0
 41116  1  0
 41117  1  0
 41118  1  0
 44119  1  0
 45120  1  0
 47121  1  6
 48122  1  0
 48123  1  0
 49124  1  0
 49125  1  0
 50126  1  0
 50127  1  0
 51128  1  0
 51129  1  0
 52130  1  0
 52131  1  0
 53132  1  0
 53133  1  0
 54134  1  0
 54135  1  0
 55136  1  0
 55137  1  0
 56138  1  0
 56139  1  0
 56140  1  0
M  END
> <Uni-Dock RESULT> 
ENERGY=   -5.499  LOWER_BOUND=    5.184  UPPER_BOUND=    7.283
INTER + INTRA:          -5.499
INTER:                  -5.499
INTRA:                   0.000
UNBOUND:                 0.000

$$$$

     RDKit          3D

140137  0  0  0  0  0  0  0  0999 V2000
   46.8722   11.7299   12.0777 O   0  0  0  0  0  0  0  0  0  0  0  0
   48.3186   11.9619   10.3089 O   0  0  0  0  0  0  0  0  0  0  0  0
   45.0729   14.5662   10.5053 O   0  0  0  0  0  0  0  0  0  0  0  0
   45.1259   14.6543   13.3281 O   0  0  0  0  0  0  0  0  0  0  0  0
   48.0382   11.5039   11.4100 C   0  0  0  0  0  0  0  0  0  0  0  0
   46.1500   13.9615   11.2334 C   0  0  2  0  0  0  0  0  0  0  0  0
   45.8634   12.4607   11.3594 C   0  0  0  0  0  0  0  0  0  0  0  0
   48.9172   10.5893   12.2302 C   0  0  0  0  0  0  0  0  0  0  0  0
   50.3622   10.6095   11.7337 C   0  0  0  0  0  0  0  0  0  0  0  0
   46.3453   14.6516   12.5905 C   0  0  0  0  0  0  0  0  0  0  0  0
   51.3116    9.7994   12.6220 C   0  0  0  0  0  0  0  0  0  0  0  0
   51.0075    8.2993   12.7151 C   0  0  0  0  0  0  0  0  0  0  0  0
   50.9850    7.5455   11.3787 C   0  0  0  0  0  0  0  0  0  0  0  0
   52.3032    7.6519   10.6067 C   0  0  0  0  0  0  0  0  0  0  0  0
   52.2932    6.7773    9.3516 C   0  0  0  0  0  0  0  0  0  0  0  0
   53.5327    6.9631    8.4735 C   0  0  0  0  0  0  0  0  0  0  0  0
   54.8250    6.5225    9.1429 C   0  0  0  0  0  0  0  0  0  0  0  0
   47.1145   10.9302   11.6709 C   0  0  0  0  0  0  0  0  0  0  0  0
   51.7532    8.2610   11.2726 C   0  0  0  0  0  0  0  0  0  0  0  0
   47.7944   10.4952   12.7670 O   0  0  0  0  0  0  0  0  0  0  0  0
   47.6374   11.3324   10.6417 O   0  0  0  0  0  0  0  0  0  0  0  0
   51.1941    7.1840   11.1359 O   0  0  0  0  0  0  0  0  0  0  0  0
   51.1385    9.4145   11.6587 O   0  0  0  0  0  0  0  0  0  0  0  0
   49.2333   10.5375   12.6668 C   0  0  2  0  0  0  0  0  0  0  0  0
   49.7434    9.2735   11.9594 C   0  0  0  0  0  0  0  0  0  0  0  0
   51.1956   10.7844   14.1515 O   0  0  0  0  0  0  0  0  0  0  0  0
   45.6254   10.8137   11.9017 C   0  0  0  0  0  0  0  0  0  0  0  0
   53.2277    8.5284   11.0694 C   0  0  0  0  0  0  0  0  0  0  0  0
   49.7808   10.6612   14.0980 C   0  0  0  0  0  0  0  0  0  0  0  0
   44.8462   11.9211   11.1913 C   0  0  0  0  0  0  0  0  0  0  0  0
   53.9917    7.3300   10.5082 C   0  0  0  0  0  0  0  0  0  0  0  0
   44.0987   16.1130   13.0081 C   0  0  0  0  0  0  0  0  0  0  0  0
   56.6267    4.7688    7.8002 C   0  0  0  0  0  0  0  0  0  0  0  0
   55.9414    5.9305    8.5208 C   0  0  0  0  0  0  0  0  0  0  0  0
   44.6286   15.8073   11.6036 C   0  0  0  0  0  0  0  0  0  0  0  0
   53.7305    7.1155    9.0150 C   0  0  0  0  0  0  0  0  0  0  0  0
   54.4138    5.8624    8.4522 C   0  0  0  0  0  0  0  0  0  0  0  0
   45.0492   13.2859   11.8579 C   0  0  0  0  0  0  0  0  0  0  0  0
   44.3238   14.3926   11.0970 C   0  0  0  0  0  0  0  0  0  0  0  0
   45.1278   15.8864   14.1098 C   0  0  0  0  0  0  0  0  0  0  0  0
   56.4105    3.4242    8.4761 C   0  0  0  0  0  0  0  0  0  0  0  0
   48.5863   11.9453   12.8667 O   0  0  0  0  0  0  0  0  0  0  0  0
   47.3405   10.1904   12.0724 O   0  0  0  0  0  0  0  0  0  0  0  0
   47.6981   14.3234   11.4139 O   0  0  0  0  0  0  0  0  0  0  0  0
   45.5457   14.9551   13.1188 O   0  0  0  0  0  0  0  0  0  0  0  0
   48.4198   10.7125   12.3100 C   0  0  0  0  0  0  0  0  0  0  0  0
   46.8004   13.3016   11.8768 C   0  0  1  0  0  0  0  0  0  0  0  0
   47.3742   12.6658   13.1496 C   0  0  0  0  0  0  0  0  0  0  0  0
   49.7762   10.1025   12.0389 C   0  0  0  0  0  0  0  0  0  0  0  0
   45.4278   13.9307   12.1314 C   0  0  0  0  0  0  0  0  0  0  0  0
   49.6649    8.7226   11.3923 C   0  0  0  0  0  0  0  0  0  0  0  0
   51.0138    8.0225   11.1926 C   0  0  0  0  0  0  0  0  0  0  0  0
   51.9606    8.7872   10.2614 C   0  0  0  0  0  0  0  0  0  0  0  0
   53.2628    8.0347    9.9724 C   0  0  0  0  0  0  0  0  0  0  0  0
   53.0666    6.8369    9.0442 C   0  0  0  0  0  0  0  0  0  0  0  0
   54.3924    6.1574    8.7356 C   0  0  0  0  0  0  0  0  0  0  0  0
   44.8838   15.4323   10.9130 H   0  0  0  0  0  0  0  0  0  0  0  0
   45.2945   15.1212   14.1636 H   0  0  0  0  0  0  0  0  0  0  0  0
   47.0616   14.1180   10.6481 H   0  0  0  0  0  0  0  0  0  0  0  0
   44.9164   12.3094   11.8879 H   0  0  0  0  0  0  0  0  0  0  0  0
   45.7130   12.0096   10.3685 H   0  0  0  0  0  0  0  0  0  0  0  0
   48.4977    9.5807   12.1605 H   0  0  0  0  0  0  0  0  0  0  0  0
   48.8854   10.9188   13.2745 H   0  0  0  0  0  0  0  0  0  0  0  0
   50.7192   11.6455   11.7045 H   0  0  0  0  0  0  0  0  0  0  0  0
   50.4080   10.2499   10.6992 H   0  0  0  0  0  0  0  0  0  0  0  0
   46.6299   15.6984   12.4345 H   0  0  0  0  0  0  0  0  0  0  0  0
   47.1215   14.1603   13.1834 H   0  0  0  0  0  0  0  0  0  0  0  0
   51.2895   10.2176   13.6362 H   0  0  0  0  0  0  0  0  0  0  0  0
   52.3369    9.9443   12.2604 H   0  0  0  0  0  0  0  0  0  0  0  0
   51.7619    7.8404   13.3679 H   0  0  0  0  0  0  0  0  0  0  0  0
   50.0421    8.1501   13.2146 H   0  0  0  0  0  0  0  0  0  0  0  0
   50.1580    7.9048   10.7540 H   0  0  0  0  0  0  0  0  0  0  0  0
   50.7803    6.4868   11.5902 H   0  0  0  0  0  0  0  0  0  0  0  0
   53.1318    7.3549   11.2604 H   0  0  0  0  0  0  0  0  0  0  0  0
   52.4766    8.6907   10.3112 H   0  0  0  0  0  0  0  0  0  0  0  0
   51.4090    7.0198    8.7495 H   0  0  0  0  0  0  0  0  0  0  0  0
   52.2012    5.7239    9.6362 H   0  0  0  0  0  0  0  0  0  0  0  0
   53.6225    8.0133    8.1778 H   0  0  0  0  0  0  0  0  0  0  0  0
   53.4005    6.3830    7.5511 H   0  0  0  0  0  0  0  0  0  0  0  0
   55.0573    7.1368   10.0170 H   0  0  0  0  0  0  0  0  0  0  0  0
   54.7653    5.4791    9.4662 H   0  0  0  0  0  0  0  0  0  0  0  0
   55.6632    6.6109    8.4456 H   0  0  0  0  0  0  0  0  0  0  0  0
   49.5663   11.4293   12.1163 H   0  0  0  0  0  0  0  0  0  0  0  0
   49.5703    8.4000   12.6018 H   0  0  0  0  0  0  0  0  0  0  0  0
   49.1912    9.1157   11.0229 H   0  0  0  0  0  0  0  0  0  0  0  0
   51.4593   11.5257   13.5791 H   0  0  0  0  0  0  0  0  0  0  0  0
   45.4178   10.8474   12.9767 H   0  0  0  0  0  0  0  0  0  0  0  0
   45.3109    9.8318   11.5274 H   0  0  0  0  0  0  0  0  0  0  0  0
   53.6405    8.7848   12.0520 H   0  0  0  0  0  0  0  0  0  0  0  0
   53.3478    9.3941   10.4071 H   0  0  0  0  0  0  0  0  0  0  0  0
   49.4940    9.7913   14.6989 H   0  0  0  0  0  0  0  0  0  0  0  0
   49.3450   11.5340   14.5985 H   0  0  0  0  0  0  0  0  0  0  0  0
   43.7783   11.6698   11.2150 H   0  0  0  0  0  0  0  0  0  0  0  0
   45.1387   11.9719   10.1347 H   0  0  0  0  0  0  0  0  0  0  0  0
   53.7346    6.4251   11.0675 H   0  0  0  0  0  0  0  0  0  0  0  0
   55.0603    7.5113   10.6703 H   0  0  0  0  0  0  0  0  0  0  0  0
   43.1888   15.5334   13.2116 H   0  0  0  0  0  0  0  0  0  0  0  0
   43.8101   17.1713   13.0401 H   0  0  0  0  0  0  0  0  0  0  0  0
   57.7030    4.9715    7.7581 H   0  0  0  0  0  0  0  0  0  0  0  0
   56.2793    4.7162    6.7616 H   0  0  0  0  0  0  0  0  0  0  0  0
   56.2804    5.9540    9.5622 H   0  0  0  0  0  0  0  0  0  0  0  0
   56.2765    6.8655    8.0580 H   0  0  0  0  0  0  0  0  0  0  0  0
   44.1491   16.5038   10.9022 H   0  0  0  0  0  0  0  0  0  0  0  0
   45.7066   16.0044   11.5410 H   0  0  0  0  0  0  0  0  0  0  0  0
   54.0649    7.9970    8.4573 H   0  0  0  0  0  0  0  0  0  0  0  0
   52.6518    7.0208    8.8389 H   0  0  0  0  0  0  0  0  0  0  0  0
   54.0507    4.9817    8.9932 H   0  0  0  0  0  0  0  0  0  0  0  0
   54.1053    5.7482    7.4058 H   0  0  0  0  0  0  0  0  0  0  0  0
   46.1159   13.5208   11.9144 H   0  0  0  0  0  0  0  0  0  0  0  0
   44.6728   13.2303   12.8835 H   0  0  0  0  0  0  0  0  0  0  0  0
   44.6170   14.3444   10.0425 H   0  0  0  0  0  0  0  0  0  0  0  0
   43.2423   14.2139   11.1259 H   0  0  0  0  0  0  0  0  0  0  0  0
   45.4420   14.8387   14.1702 H   0  0  0  0  0  0  0  0  0  0  0  0
   44.6944   16.1683   15.0755 H   0  0  0  0  0  0  0  0  0  0  0  0
   46.0185   16.5095   13.9421 H   0  0  0  0  0  0  0  0  0  0  0  0
   56.7591    3.4494    9.5157 H   0  0  0  0  0  0  0  0  0  0  0  0
   56.9764    2.6496    7.9472 H   0  0  0  0  0  0  0  0  0  0  0  0
   55.3543    3.1321    8.4640 H   0  0  0  0  0  0  0  0  0  0  0  0
   47.5632   15.0783   12.0174 H   0  0  0  0  0  0  0  0  0  0  0  0
   45.0459   14.6599   13.9033 H   0  0  0  0  0  0  0  0  0  0  0  0
   46.7245   12.5686   11.0696 H   0  0  0  0  0  0  0  0  0  0  0  0
   47.6484   13.4385   13.8767 H   0  0  0  0  0  0  0  0  0  0  0  0
   46.6508   11.9989   13.6331 H   0  0  0  0  0  0  0  0  0  0  0  0
   50.3100   10.0263   12.9924 H   0  0  0  0  0  0  0  0  0  0  0  0
   50.3127   10.7860   11.3779 H   0  0  0  0  0  0  0  0  0  0  0  0
   45.0580   14.4144   11.2229 H   0  0  0  0  0  0  0  0  0  0  0  0
   44.6941   13.1858   12.4553 H   0  0  0  0  0  0  0  0  0  0  0  0
   49.0373    8.0798   12.0225 H   0  0  0  0  0  0  0  0  0  0  0  0
   49.1530    8.8085   10.4241 H   0  0  0  0  0  0  0  0  0  0  0  0
   50.8113    7.0283   10.7804 H   0  0  0  0  0  0  0  0  0  0  0  0
   51.4983    7.8745   12.1664 H   0  0  0  0  0  0  0  0  0  0  0  0
   51.4521    9.0186    9.3185 H   0  0  0  0  0  0  0  0  0  0  0  0
   52.2277    9.7447   10.7228 H   0  0  0  0  0  0  0  0  0  0  0  0
   53.7200    7.7099   10.9151 H   0  0  0  0  0  0  0  0  0  0  0  0
   53.9675    8.7347    9.5013 H   0  0  0  0  0  0  0  0  0  0  0  0
   52.6043    7.1690    8.1062 H   0  0  0  0  0  0  0  0  0  0  0  0
   52.3926    6.0996    9.4938 H   0  0  0  0  0  0  0  0  0  0  0  0
   54.2388    5.3295    8.0364 H   0  0  0  0  0  0  0  0  0  0  0  0
   55.0965    6.8589    8.2797 H   0  0  0  0  0  0  0  0  0  0  0  0
   54.8466    5.7561    9.6457 H   0  0  0  0  0  0  0  0  0  0  0  0
  1  5  1  0
  1  7  1  0
  2  5  2  0
  3  6  1  0
  4 10  1  0
  5  8  1  0
  6  7  1  0
  6 10  1  0
  8  9  1  0
  9 11  1  0
 11 12  1  0
 12 13  1  0
 13 14  1  0
 14 15  1  0
 15 16  1  0
 16 17  1  0
 19 23  1  0
 20 18  1  0
 21 18  2  0
 22 19  2  0
 23 25  1  0
 24 20  1  0
 25 24  1  0
 26 29  1  0
 27 18  1  0
 28 19  1  0
 29 24  1  0
 30 27  1  0
 31 28  1  0
 32 35  1  0
 33 34  1  0
 34 37  1  0
 35 39  1  0
 36 31  1  0
 37 36  1  0
 38 30  1  0
 39 38  1  0
 40 32  1  0
 41 33  1  0
 42 46  1  0
 42 48  1  0
 43 46  2  0
 44 47  1  0
 45 50  1  0
 46 49  1  0
 47 48  1  0
 47 50  1  0
 49 51  1  0
 51 52  1  0
 52 53  1  0
 53 54  1  0
 54 55  1  0
 55 56  1  0
  3 57  1  0
  4 58  1  0
  6 59  1  1
  7 60  1  0
  7 61  1  0
  8 62  1  0
  8 63  1  0
  9 64  1  0
  9 65  1  0
 10 66  1  0
 10 67  1  0
 11 68  1  0
 11 69  1  0
 12 70  1  0
 12 71  1  0
 13 72  1  0
 13 73  1  0
 14 74  1  0
 14 75  1  0
 15 76  1  0
 15 77  1  0
 16 78  1  0
 16 79  1  0
 17 80  1  0
 17 81  1  0
 17 82  1  0
 24 83  1  1
 25 84  1  0
 25 85  1  0
 26 86  1  0
 27 87  1  0
 27 88  1  0
 28 89  1  0
 28 90  1  0
 29 91  1  0
 29 92  1  0
 30 93  1  0
 30 94  1  0
 31 95  1  0
 31 96  1  0
 32 97  1  0
 32 98  1  0
 33 99  1  0
 33100  1  0
 34101  1  0
 34102  1  0
 35103  1  0
 35104  1  0
 36105  1  0
 36106  1  0
 37107  1  0
 37108  1  0
 38109  1  0
 38110  1  0
 39111  1  0
 39112  1  0
 40113  1  0
 40114  1  0
 40115  1  0
 41116  1  0
 41117  1  0
 41118  1  0
 44119  1  0
 45120  1  0
 47121  1  6
 48122  1  0
 48123  1  0
 49124  1  0
 49125  1  0
 50126  1  0
 50127  1  0
 51128  1  0
 51129  1  0
 52130  1  0
 52131  1  0
 53132  1  0
 53133  1  0
 54134  1  0
 54135  1  0
 55136  1  0
 55137  1  0
 56138  1  0
 56139  1  0
 56140  1  0
M  END
> <Uni-Dock RESULT> 
ENERGY=   -5.435  LOWER_BOUND=    5.508  UPPER_BOUND=    9.677
INTER + INTRA:          -5.435
INTER:                  -5.435
INTRA:                   0.000
UNBOUND:                 0.000

$$$$
