
     RDKit          3D

140137  0  0  0  0  0  0  0  0999 V2000
   48.2583   13.2522   15.0330 O   0  0  0  0  0  0  0  0  0  0  0  0
   47.3753   13.9839   17.0188 O   0  0  0  0  0  0  0  0  0  0  0  0
   49.8348   15.4039   14.0729 O   0  0  0  0  0  0  0  0  0  0  0  0
   46.5910   17.1330   14.1672 O   0  0  0  0  0  0  0  0  0  0  0  0
   47.9849   13.1530   16.3638 C   0  0  0  0  0  0  0  0  0  0  0  0
   48.4976   15.6415   14.5264 C   0  0  2  0  0  0  0  0  0  0  0  0
   47.6532   14.3722   14.3453 C   0  0  0  0  0  0  0  0  0  0  0  0
   48.5193   11.8394   16.8920 C   0  0  0  0  0  0  0  0  0  0  0  0
   48.7788   11.8933   18.3980 C   0  0  0  0  0  0  0  0  0  0  0  0
   47.9083   16.8159   13.7367 C   0  0  0  0  0  0  0  0  0  0  0  0
   49.3349   10.5779   18.9571 C   0  0  0  0  0  0  0  0  0  0  0  0
   48.3607    9.3931   18.9460 C   0  0  0  0  0  0  0  0  0  0  0  0
   47.0600    9.5969   19.7317 C   0  0  0  0  0  0  0  0  0  0  0  0
   47.2425    9.9035   21.2195 C   0  0  0  0  0  0  0  0  0  0  0  0
   47.7388    8.6945   22.0156 C   0  0  0  0  0  0  0  0  0  0  0  0
   47.9126    9.0065   23.5027 C   0  0  0  0  0  0  0  0  0  0  0  0
   49.1829    9.7892   23.7928 C   0  0  0  0  0  0  0  0  0  0  0  0
   48.8048   11.0729   20.8575 C   0  0  0  0  0  0  0  0  0  0  0  0
   49.7510   14.4111   16.8882 C   0  0  0  0  0  0  0  0  0  0  0  0
   49.5222   12.0070   20.1816 O   0  0  0  0  0  0  0  0  0  0  0  0
   47.9093   11.3135   21.6493 O   0  0  0  0  0  0  0  0  0  0  0  0
   50.6967   15.1845   16.9327 O   0  0  0  0  0  0  0  0  0  0  0  0
   49.1796   13.8113   17.9722 O   0  0  0  0  0  0  0  0  0  0  0  0
   49.1141   13.3855   20.3621 C   0  0  2  0  0  0  0  0  0  0  0  0
   49.7575   14.2009   19.2306 C   0  0  0  0  0  0  0  0  0  0  0  0
   49.1754   15.2632   21.9192 O   0  0  0  0  0  0  0  0  0  0  0  0
   49.3226    9.6923   20.5204 C   0  0  0  0  0  0  0  0  0  0  0  0
   49.0671   13.9425   15.6269 C   0  0  0  0  0  0  0  0  0  0  0  0
   49.5837   13.9153   21.7230 C   0  0  0  0  0  0  0  0  0  0  0  0
   48.2624    8.6176   20.7664 C   0  0  0  0  0  0  0  0  0  0  0  0
   49.2091   14.9246   14.4622 C   0  0  0  0  0  0  0  0  0  0  0  0
   47.9704    5.5519   22.9264 C   0  0  0  0  0  0  0  0  0  0  0  0
   45.6733   16.1825   12.8835 C   0  0  0  0  0  0  0  0  0  0  0  0
   46.1154   15.4822   14.1715 C   0  0  0  0  0  0  0  0  0  0  0  0
   47.0099    5.9472   21.8049 C   0  0  0  0  0  0  0  0  0  0  0  0
   48.5478   16.2942   14.6696 C   0  0  0  0  0  0  0  0  0  0  0  0
   47.0692   16.2824   15.0658 C   0  0  0  0  0  0  0  0  0  0  0  0
   48.7774    7.2273   20.3911 C   0  0  0  0  0  0  0  0  0  0  0  0
   47.6993    6.1397   20.4511 C   0  0  0  0  0  0  0  0  0  0  0  0
   47.2231    5.2732   24.2244 C   0  0  0  0  0  0  0  0  0  0  0  0
   46.6997   16.1571   11.7621 C   0  0  0  0  0  0  0  0  0  0  0  0
   49.2237   10.7905   21.4162 O   0  0  0  0  0  0  0  0  0  0  0  0
   47.1633   11.4883   20.6835 O   0  0  0  0  0  0  0  0  0  0  0  0
   49.5856    8.0811   22.6095 O   0  0  0  0  0  0  0  0  0  0  0  0
   47.3489    6.9333   21.4817 O   0  0  0  0  0  0  0  0  0  0  0  0
   48.3745   11.3876   20.5322 C   0  0  0  0  0  0  0  0  0  0  0  0
   48.3448    8.8066   22.5961 C   0  0  1  0  0  0  0  0  0  0  0  0
   48.6268   10.3109   22.6368 C   0  0  0  0  0  0  0  0  0  0  0  0
   49.1540   11.8803   19.3331 C   0  0  0  0  0  0  0  0  0  0  0  0
   47.5435    8.3471   21.3778 C   0  0  0  0  0  0  0  0  0  0  0  0
   48.2511   12.6438   18.3670 C   0  0  0  0  0  0  0  0  0  0  0  0
   49.0158   13.1403   17.1380 C   0  0  0  0  0  0  0  0  0  0  0  0
   48.0704   13.8242   16.1480 C   0  0  0  0  0  0  0  0  0  0  0  0
   48.8176   14.3229   14.9091 C   0  0  0  0  0  0  0  0  0  0  0  0
   47.9034   15.0354   13.9076 C   0  0  0  0  0  0  0  0  0  0  0  0
   46.8824   14.1147   13.2549 C   0  0  0  0  0  0  0  0  0  0  0  0
   50.1107   14.5516   14.4557 H   0  0  0  0  0  0  0  0  0  0  0  0
   46.6727   17.6124   15.0095 H   0  0  0  0  0  0  0  0  0  0  0  0
   48.5531   15.9035   15.5901 H   0  0  0  0  0  0  0  0  0  0  0  0
   46.6180   14.5059   14.6780 H   0  0  0  0  0  0  0  0  0  0  0  0
   47.6288   14.0883   13.2853 H   0  0  0  0  0  0  0  0  0  0  0  0
   49.4634   11.6152   16.3792 H   0  0  0  0  0  0  0  0  0  0  0  0
   47.7907   11.0611   16.6401 H   0  0  0  0  0  0  0  0  0  0  0  0
   47.8696   12.1836   18.9357 H   0  0  0  0  0  0  0  0  0  0  0  0
   49.5115   12.6880   18.5967 H   0  0  0  0  0  0  0  0  0  0  0  0
   48.5416   17.7049   13.8352 H   0  0  0  0  0  0  0  0  0  0  0  0
   47.8756   16.5742   12.6672 H   0  0  0  0  0  0  0  0  0  0  0  0
   49.6872   10.7507   19.9789 H   0  0  0  0  0  0  0  0  0  0  0  0
   50.2266   10.2971   18.3807 H   0  0  0  0  0  0  0  0  0  0  0  0
   48.8821    8.5119   19.3343 H   0  0  0  0  0  0  0  0  0  0  0  0
   48.1029    9.1472   17.9093 H   0  0  0  0  0  0  0  0  0  0  0  0
   46.4807   10.4055   19.2669 H   0  0  0  0  0  0  0  0  0  0  0  0
   46.4434    8.6945   19.6254 H   0  0  0  0  0  0  0  0  0  0  0  0
   47.9064   10.7608   21.3532 H   0  0  0  0  0  0  0  0  0  0  0  0
   46.2656   10.2026   21.6238 H   0  0  0  0  0  0  0  0  0  0  0  0
   46.9933    7.8934   21.9271 H   0  0  0  0  0  0  0  0  0  0  0  0
   48.6739    8.3088   21.6045 H   0  0  0  0  0  0  0  0  0  0  0  0
   47.0470    9.5627   23.8819 H   0  0  0  0  0  0  0  0  0  0  0  0
   47.9532    8.0627   24.0624 H   0  0  0  0  0  0  0  0  0  0  0  0
   49.3036    9.9299   24.8721 H   0  0  0  0  0  0  0  0  0  0  0  0
   50.0619    9.2444   23.4284 H   0  0  0  0  0  0  0  0  0  0  0  0
   49.1687   10.7759   23.3217 H   0  0  0  0  0  0  0  0  0  0  0  0
   48.0257   13.4583   20.2601 H   0  0  0  0  0  0  0  0  0  0  0  0
   50.8359   14.0037   19.2000 H   0  0  0  0  0  0  0  0  0  0  0  0
   49.5797   15.2719   19.3725 H   0  0  0  0  0  0  0  0  0  0  0  0
   49.9770   15.8146   21.9950 H   0  0  0  0  0  0  0  0  0  0  0  0
   49.6089    9.6785   19.4629 H   0  0  0  0  0  0  0  0  0  0  0  0
   50.2125    9.5081   21.1287 H   0  0  0  0  0  0  0  0  0  0  0  0
   49.5248   12.9879   15.3459 H   0  0  0  0  0  0  0  0  0  0  0  0
   48.0097   13.7541   15.8312 H   0  0  0  0  0  0  0  0  0  0  0  0
   49.1711   13.3226   22.5467 H   0  0  0  0  0  0  0  0  0  0  0  0
   50.6752   13.8476   21.8118 H   0  0  0  0  0  0  0  0  0  0  0  0
   47.3641    8.8518   20.1823 H   0  0  0  0  0  0  0  0  0  0  0  0
   47.9678    8.6336   21.8226 H   0  0  0  0  0  0  0  0  0  0  0  0
   50.2763   15.0947   14.2592 H   0  0  0  0  0  0  0  0  0  0  0  0
   48.8010   14.4607   13.5562 H   0  0  0  0  0  0  0  0  0  0  0  0
   48.5320    4.6550   22.6361 H   0  0  0  0  0  0  0  0  0  0  0  0
   48.6978    6.3534   23.1040 H   0  0  0  0  0  0  0  0  0  0  0  0
   44.7743   15.6679   12.5182 H   0  0  0  0  0  0  0  0  0  0  0  0
   45.3760   17.2178   13.0915 H   0  0  0  0  0  0  0  0  0  0  0  0
   45.2050   15.3080   14.7588 H   0  0  0  0  0  0  0  0  0  0  0  0
   46.5169   14.4874   13.9470 H   0  0  0  0  0  0  0  0  0  0  0  0
   46.4656    6.8574   22.0844 H   0  0  0  0  0  0  0  0  0  0  0  0
   46.2513    5.1614   21.6887 H   0  0  0  0  0  0  0  0  0  0  0  0
   48.6824   16.8910   13.7614 H   0  0  0  0  0  0  0  0  0  0  0  0
   49.0968   16.8382   15.4523 H   0  0  0  0  0  0  0  0  0  0  0  0
   46.9923   15.8777   16.0830 H   0  0  0  0  0  0  0  0  0  0  0  0
   46.7151   17.3197   15.1366 H   0  0  0  0  0  0  0  0  0  0  0  0
   49.6243    6.9566   21.0307 H   0  0  0  0  0  0  0  0  0  0  0  0
   49.1668    7.2543   19.3651 H   0  0  0  0  0  0  0  0  0  0  0  0
   48.1484    5.1882   20.1439 H   0  0  0  0  0  0  0  0  0  0  0  0
   46.9275    6.3718   19.7059 H   0  0  0  0  0  0  0  0  0  0  0  0
   46.6844    6.1636   24.5655 H   0  0  0  0  0  0  0  0  0  0  0  0
   47.9304    4.9826   25.0085 H   0  0  0  0  0  0  0  0  0  0  0  0
   46.5018    4.4601   24.0974 H   0  0  0  0  0  0  0  0  0  0  0  0
   47.5266   16.8446   11.9550 H   0  0  0  0  0  0  0  0  0  0  0  0
   46.2294   16.4729   10.8219 H   0  0  0  0  0  0  0  0  0  0  0  0
   47.1046   15.1484   11.6143 H   0  0  0  0  0  0  0  0  0  0  0  0
   49.3279    7.1475   22.4664 H   0  0  0  0  0  0  0  0  0  0  0  0
   47.0087    6.6312   20.6173 H   0  0  0  0  0  0  0  0  0  0  0  0
   47.8207    8.5173   23.5128 H   0  0  0  0  0  0  0  0  0  0  0  0
   49.3533   10.5276   23.4290 H   0  0  0  0  0  0  0  0  0  0  0  0
   47.7146   10.8654   22.8803 H   0  0  0  0  0  0  0  0  0  0  0  0
   49.9604   12.5315   19.6856 H   0  0  0  0  0  0  0  0  0  0  0  0
   49.5895   11.0073   18.8348 H   0  0  0  0  0  0  0  0  0  0  0  0
   46.5646    8.8333   21.3324 H   0  0  0  0  0  0  0  0  0  0  0  0
   48.0958    8.5281   20.4516 H   0  0  0  0  0  0  0  0  0  0  0  0
   47.4245   11.9952   18.0497 H   0  0  0  0  0  0  0  0  0  0  0  0
   47.7978   13.4969   18.8851 H   0  0  0  0  0  0  0  0  0  0  0  0
   49.5144   12.2956   16.6454 H   0  0  0  0  0  0  0  0  0  0  0  0
   49.7963   13.8444   17.4524 H   0  0  0  0  0  0  0  0  0  0  0  0
   47.2885   13.1142   15.8524 H   0  0  0  0  0  0  0  0  0  0  0  0
   47.5706   14.6700   16.6382 H   0  0  0  0  0  0  0  0  0  0  0  0
   49.6009   15.0248   15.2232 H   0  0  0  0  0  0  0  0  0  0  0  0
   49.3243   13.4836   14.4122 H   0  0  0  0  0  0  0  0  0  0  0  0
   47.3824   15.8638   14.4030 H   0  0  0  0  0  0  0  0  0  0  0  0
   48.5261   15.4779   13.1190 H   0  0  0  0  0  0  0  0  0  0  0  0
   46.3287   14.6572   12.4805 H   0  0  0  0  0  0  0  0  0  0  0  0
   47.3722   13.2548   12.7825 H   0  0  0  0  0  0  0  0  0  0  0  0
   46.1538   13.7421   13.9820 H   0  0  0  0  0  0  0  0  0  0  0  0
  1  5  1  0
  1  7  1  0
  2  5  2  0
  3  6  1  0
  4 10  1  0
  5  8  1  0
  6  7  1  0
  6 10  1  0
  8  9  1  0
  9 11  1  0
 11 12  1  0
 12 13  1  0
 13 14  1  0
 14 15  1  0
 15 16  1  0
 16 17  1  0
 19 23  1  0
 20 18  1  0
 21 18  2  0
 22 19  2  0
 23 25  1  0
 24 20  1  0
 25 24  1  0
 26 29  1  0
 27 18  1  0
 28 19  1  0
 29 24  1  0
 30 27  1  0
 31 28  1  0
 32 35  1  0
 33 34  1  0
 34 37  1  0
 35 39  1  0
 36 31  1  0
 37 36  1  0
 38 30  1  0
 39 38  1  0
 40 32  1  0
 41 33  1  0
 42 46  1  0
 42 48  1  0
 43 46  2  0
 44 47  1  0
 45 50  1  0
 46 49  1  0
 47 48  1  0
 47 50  1  0
 49 51  1  0
 51 52  1  0
 52 53  1  0
 53 54  1  0
 54 55  1  0
 55 56  1  0
  3 57  1  0
  4 58  1  0
  6 59  1  6
  7 60  1  0
  7 61  1  0
  8 62  1  0
  8 63  1  0
  9 64  1  0
  9 65  1  0
 10 66  1  0
 10 67  1  0
 11 68  1  0
 11 69  1  0
 12 70  1  0
 12 71  1  0
 13 72  1  0
 13 73  1  0
 14 74  1  0
 14 75  1  0
 15 76  1  0
 15 77  1  0
 16 78  1  0
 16 79  1  0
 17 80  1  0
 17 81  1  0
 17 82  1  0
 24 83  1  6
 25 84  1  0
 25 85  1  0
 26 86  1  0
 27 87  1  0
 27 88  1  0
 28 89  1  0
 28 90  1  0
 29 91  1  0
 29 92  1  0
 30 93  1  0
 30 94  1  0
 31 95  1  0
 31 96  1  0
 32 97  1  0
 32 98  1  0
 33 99  1  0
 33100  1  0
 34101  1  0
 34102  1  0
 35103  1  0
 35104  1  0
 36105  1  0
 36106  1  0
 37107  1  0
 37108  1  0
 38109  1  0
 38110  1  0
 39111  1  0
 39112  1  0
 40113  1  0
 40114  1  0
 40115  1  0
 41116  1  0
 41117  1  0
 41118  1  0
 44119  1  0
 45120  1  0
 47121  1  6
 48122  1  0
 48123  1  0
 49124  1  0
 49125  1  0
 50126  1  0
 50127  1  0
 51128  1  0
 51129  1  0
 52130  1  0
 52131  1  0
 53132  1  0
 53133  1  0
 54134  1  0
 54135  1  0
 55136  1  0
 55137  1  0
 56138  1  0
 56139  1  0
 56140  1  0
M  END
> <Uni-Dock RESULT> 
ENERGY=   -5.338  LOWER_BOUND=    0.000  UPPER_BOUND=    0.000
INTER + INTRA:          -5.338
INTER:                  -5.338
INTRA:                   0.000
UNBOUND:                 0.000

$$$$

     RDKit          3D

140137  0  0  0  0  0  0  0  0999 V2000
   46.5327    6.4794   11.1251 O   0  0  0  0  0  0  0  0  0  0  0  0
   47.5037    6.3768   13.1999 O   0  0  0  0  0  0  0  0  0  0  0  0
   43.8139    7.1280   11.5985 O   0  0  0  0  0  0  0  0  0  0  0  0
   43.9304    3.9637   13.4679 O   0  0  0  0  0  0  0  0  0  0  0  0
   47.4772    6.7971   12.0538 C   0  0  0  0  0  0  0  0  0  0  0  0
   44.4394    6.0752   12.3406 C   0  0  2  0  0  0  0  0  0  0  0  0
   45.5798    5.4629   11.5150 C   0  0  0  0  0  0  0  0  0  0  0  0
   48.5051    7.7184   11.4332 C   0  0  0  0  0  0  0  0  0  0  0  0
   49.2276    8.5589   12.4865 C   0  0  0  0  0  0  0  0  0  0  0  0
   43.3827    5.0217   12.6921 C   0  0  0  0  0  0  0  0  0  0  0  0
   50.2659    9.5124   11.8824 C   0  0  0  0  0  0  0  0  0  0  0  0
   51.4955    8.8390   11.2598 C   0  0  0  0  0  0  0  0  0  0  0  0
   52.3214    7.9610   12.2072 C   0  0  0  0  0  0  0  0  0  0  0  0
   52.8839    8.6817   13.4340 C   0  0  0  0  0  0  0  0  0  0  0  0
   54.0061    9.6605   13.0816 C   0  0  0  0  0  0  0  0  0  0  0  0
   54.5678   10.3722   14.3133 C   0  0  0  0  0  0  0  0  0  0  0  0
   53.6673   11.4944   14.8033 C   0  0  0  0  0  0  0  0  0  0  0  0
   51.2157    9.7316   13.6676 C   0  0  0  0  0  0  0  0  0  0  0  0
   46.1734    8.3779   12.9361 C   0  0  0  0  0  0  0  0  0  0  0  0
   49.8735    9.9365   13.6832 O   0  0  0  0  0  0  0  0  0  0  0  0
   51.8569    9.2127   14.5658 O   0  0  0  0  0  0  0  0  0  0  0  0
   45.2682    9.1102   13.3088 O   0  0  0  0  0  0  0  0  0  0  0  0
   47.4529    8.4135   13.4082 O   0  0  0  0  0  0  0  0  0  0  0  0
   49.1558    9.4078   14.8256 C   0  0  2  0  0  0  0  0  0  0  0  0
   47.6661    9.3801   14.4521 C   0  0  0  0  0  0  0  0  0  0  0  0
   48.6843    9.7782   17.1908 O   0  0  0  0  0  0  0  0  0  0  0  0
   51.8013   10.2946   12.3917 C   0  0  0  0  0  0  0  0  0  0  0  0
   46.0573    7.3287   11.8572 C   0  0  0  0  0  0  0  0  0  0  0  0
   49.3711   10.2954   16.0581 C   0  0  0  0  0  0  0  0  0  0  0  0
   53.1342    9.6306   12.0427 C   0  0  0  0  0  0  0  0  0  0  0  0
   44.6301    6.8095   11.6706 C   0  0  0  0  0  0  0  0  0  0  0  0
   56.6812   10.7817   11.5500 C   0  0  0  0  0  0  0  0  0  0  0  0
   44.2391    2.7788   12.0916 C   0  0  0  0  0  0  0  0  0  0  0  0
   45.3022    3.8233   12.4434 C   0  0  0  0  0  0  0  0  0  0  0  0
   56.1390    9.3936   11.2100 C   0  0  0  0  0  0  0  0  0  0  0  0
   44.0354    6.0667   12.8751 C   0  0  0  0  0  0  0  0  0  0  0  0
   44.8627    4.9067   13.4348 C   0  0  0  0  0  0  0  0  0  0  0  0
   53.7057   10.1771   10.7336 C   0  0  0  0  0  0  0  0  0  0  0  0
   54.9482    9.4231   10.2475 C   0  0  0  0  0  0  0  0  0  0  0  0
   57.9246   10.6924   12.4258 C   0  0  0  0  0  0  0  0  0  0  0  0
   43.2027    3.2429   11.0806 C   0  0  0  0  0  0  0  0  0  0  0  0
   51.5708   10.3844   13.7907 O   0  0  0  0  0  0  0  0  0  0  0  0
   51.4757    8.1185   14.1448 O   0  0  0  0  0  0  0  0  0  0  0  0
   54.0466   11.6637   12.7279 O   0  0  0  0  0  0  0  0  0  0  0  0
   55.1134    9.3952   11.5841 O   0  0  0  0  0  0  0  0  0  0  0  0
   50.9763    9.1587   13.7341 C   0  0  0  0  0  0  0  0  0  0  0  0
   54.0170   10.4220   13.4514 C   0  0  1  0  0  0  0  0  0  0  0  0
   52.8531   10.4326   14.4461 C   0  0  0  0  0  0  0  0  0  0  0  0
   49.6240    9.2806   13.0675 C   0  0  0  0  0  0  0  0  0  0  0  0
   53.9661    9.2839   12.4319 C   0  0  0  0  0  0  0  0  0  0  0  0
   48.8849    7.9444   13.0761 C   0  0  0  0  0  0  0  0  0  0  0  0
   47.5185    8.0402   12.3937 C   0  0  0  0  0  0  0  0  0  0  0  0
   46.8396    6.6699   12.3396 C   0  0  0  0  0  0  0  0  0  0  0  0
   45.4731    6.7455   11.6551 C   0  0  0  0  0  0  0  0  0  0  0  0
   44.7546    5.3935   11.6062 C   0  0  0  0  0  0  0  0  0  0  0  0
   45.4457    4.3697   10.7172 C   0  0  0  0  0  0  0  0  0  0  0  0
   44.5321    7.6786   11.2380 H   0  0  0  0  0  0  0  0  0  0  0  0
   44.0390    4.2998   14.3741 H   0  0  0  0  0  0  0  0  0  0  0  0
   44.8410    6.5160   13.2613 H   0  0  0  0  0  0  0  0  0  0  0  0
   46.0894    4.6490   12.0424 H   0  0  0  0  0  0  0  0  0  0  0  0
   45.1835    5.0553   10.5761 H   0  0  0  0  0  0  0  0  0  0  0  0
   47.9931    8.3923   10.7345 H   0  0  0  0  0  0  0  0  0  0  0  0
   49.2078    7.0963   10.8681 H   0  0  0  0  0  0  0  0  0  0  0  0
   49.6928    7.9150   13.2409 H   0  0  0  0  0  0  0  0  0  0  0  0
   48.4811    9.1600   13.0242 H   0  0  0  0  0  0  0  0  0  0  0  0
   42.5510    5.4764   13.2421 H   0  0  0  0  0  0  0  0  0  0  0  0
   42.9543    4.5955   11.7767 H   0  0  0  0  0  0  0  0  0  0  0  0
   50.5884   10.2171   12.6553 H   0  0  0  0  0  0  0  0  0  0  0  0
   49.7788   10.1232   11.1104 H   0  0  0  0  0  0  0  0  0  0  0  0
   52.1393    9.6167   10.8360 H   0  0  0  0  0  0  0  0  0  0  0  0
   51.1788    8.2254   10.4085 H   0  0  0  0  0  0  0  0  0  0  0  0
   51.7086    7.1125   12.5389 H   0  0  0  0  0  0  0  0  0  0  0  0
   53.1515    7.5203   11.6394 H   0  0  0  0  0  0  0  0  0  0  0  0
   52.0828    9.1837   13.9815 H   0  0  0  0  0  0  0  0  0  0  0  0
   53.2931    7.9209   14.1131 H   0  0  0  0  0  0  0  0  0  0  0  0
   54.8257    9.0942   12.6201 H   0  0  0  0  0  0  0  0  0  0  0  0
   53.6715   10.3959   12.3472 H   0  0  0  0  0  0  0  0  0  0  0  0
   54.7345    9.6566   15.1273 H   0  0  0  0  0  0  0  0  0  0  0  0
   55.5471   10.8003   14.0618 H   0  0  0  0  0  0  0  0  0  0  0  0
   54.1383   12.0209   15.6401 H   0  0  0  0  0  0  0  0  0  0  0  0
   53.4956   12.2261   14.0049 H   0  0  0  0  0  0  0  0  0  0  0  0
   52.6976   11.1189   15.1417 H   0  0  0  0  0  0  0  0  0  0  0  0
   49.4805    8.3786   15.0138 H   0  0  0  0  0  0  0  0  0  0  0  0
   47.3581   10.3674   14.0873 H   0  0  0  0  0  0  0  0  0  0  0  0
   47.0537    9.0948   15.3137 H   0  0  0  0  0  0  0  0  0  0  0  0
   48.0134   10.4325   17.4630 H   0  0  0  0  0  0  0  0  0  0  0  0
   51.0892   10.1199   11.5774 H   0  0  0  0  0  0  0  0  0  0  0  0
   51.9262   11.3728   12.5250 H   0  0  0  0  0  0  0  0  0  0  0  0
   46.3946    7.7876   10.9216 H   0  0  0  0  0  0  0  0  0  0  0  0
   46.7321    6.4977   12.0794 H   0  0  0  0  0  0  0  0  0  0  0  0
   50.4325   10.3654   16.3197 H   0  0  0  0  0  0  0  0  0  0  0  0
   49.0338   11.3210   15.8633 H   0  0  0  0  0  0  0  0  0  0  0  0
   52.9907    8.5462   11.9620 H   0  0  0  0  0  0  0  0  0  0  0  0
   53.8472    9.7969   12.8592 H   0  0  0  0  0  0  0  0  0  0  0  0
   43.9651    7.6530   11.4351 H   0  0  0  0  0  0  0  0  0  0  0  0
   44.6043    6.1523   10.7932 H   0  0  0  0  0  0  0  0  0  0  0  0
   56.9305   11.3200   10.6269 H   0  0  0  0  0  0  0  0  0  0  0  0
   55.9198   11.3683   12.0785 H   0  0  0  0  0  0  0  0  0  0  0  0
   44.7565    1.9123   11.6581 H   0  0  0  0  0  0  0  0  0  0  0  0
   43.7380    2.4198   12.9991 H   0  0  0  0  0  0  0  0  0  0  0  0
   46.1281    3.2785   12.9180 H   0  0  0  0  0  0  0  0  0  0  0  0
   45.7232    4.2620   11.5315 H   0  0  0  0  0  0  0  0  0  0  0  0
   55.8671    8.8641   12.1311 H   0  0  0  0  0  0  0  0  0  0  0  0
   56.9370    8.8016   10.7418 H   0  0  0  0  0  0  0  0  0  0  0  0
   43.0337    5.7123   12.6103 H   0  0  0  0  0  0  0  0  0  0  0  0
   43.8767    6.7858   13.6922 H   0  0  0  0  0  0  0  0  0  0  0  0
   45.7668    5.3245   13.8959 H   0  0  0  0  0  0  0  0  0  0  0  0
   44.3041    4.4402   14.2573 H   0  0  0  0  0  0  0  0  0  0  0  0
   53.9276   11.2445   10.8387 H   0  0  0  0  0  0  0  0  0  0  0  0
   52.9414   10.1006    9.9493 H   0  0  0  0  0  0  0  0  0  0  0  0
   55.2718    9.8630    9.2972 H   0  0  0  0  0  0  0  0  0  0  0  0
   54.6631    8.3863   10.0267 H   0  0  0  0  0  0  0  0  0  0  0  0
   57.7000   10.1966   13.3761 H   0  0  0  0  0  0  0  0  0  0  0  0
   58.2996   11.6974   12.6469 H   0  0  0  0  0  0  0  0  0  0  0  0
   58.7210   10.1341   11.9242 H   0  0  0  0  0  0  0  0  0  0  0  0
   42.4917    3.9444   11.5232 H   0  0  0  0  0  0  0  0  0  0  0  0
   42.6253    2.3818   10.7199 H   0  0  0  0  0  0  0  0  0  0  0  0
   43.6764    3.7184   10.2129 H   0  0  0  0  0  0  0  0  0  0  0  0
   54.7344   11.5347   12.0432 H   0  0  0  0  0  0  0  0  0  0  0  0
   54.9688    8.7881   10.8328 H   0  0  0  0  0  0  0  0  0  0  0  0
   54.9597   10.3781   14.0064 H   0  0  0  0  0  0  0  0  0  0  0  0
   52.8628   11.3709   15.0134 H   0  0  0  0  0  0  0  0  0  0  0  0
   52.9618    9.6200   15.1718 H   0  0  0  0  0  0  0  0  0  0  0  0
   49.0387   10.0354   13.6025 H   0  0  0  0  0  0  0  0  0  0  0  0
   49.7871    9.6165   12.0376 H   0  0  0  0  0  0  0  0  0  0  0  0
   53.9843    8.3048   12.9196 H   0  0  0  0  0  0  0  0  0  0  0  0
   53.0839    9.3677   11.7913 H   0  0  0  0  0  0  0  0  0  0  0  0
   49.4965    7.1855   12.5717 H   0  0  0  0  0  0  0  0  0  0  0  0
   48.7544    7.6042   14.1100 H   0  0  0  0  0  0  0  0  0  0  0  0
   47.6396    8.4301   11.3748 H   0  0  0  0  0  0  0  0  0  0  0  0
   46.8840    8.7471   12.9427 H   0  0  0  0  0  0  0  0  0  0  0  0
   47.4897    5.9704   11.8002 H   0  0  0  0  0  0  0  0  0  0  0  0
   46.7170    6.2777   13.3578 H   0  0  0  0  0  0  0  0  0  0  0  0
   44.8388    7.4553   12.2018 H   0  0  0  0  0  0  0  0  0  0  0  0
   45.5845    7.1400   10.6353 H   0  0  0  0  0  0  0  0  0  0  0  0
   44.6558    4.9875   12.6204 H   0  0  0  0  0  0  0  0  0  0  0  0
   43.7366    5.5519   11.2267 H   0  0  0  0  0  0  0  0  0  0  0  0
   44.8350    3.4630   10.6440 H   0  0  0  0  0  0  0  0  0  0  0  0
   45.5928    4.7627    9.7041 H   0  0  0  0  0  0  0  0  0  0  0  0
   46.4209    4.0792   11.1211 H   0  0  0  0  0  0  0  0  0  0  0  0
  1  5  1  0
  1  7  1  0
  2  5  2  0
  3  6  1  0
  4 10  1  0
  5  8  1  0
  6  7  1  0
  6 10  1  0
  8  9  1  0
  9 11  1  0
 11 12  1  0
 12 13  1  0
 13 14  1  0
 14 15  1  0
 15 16  1  0
 16 17  1  0
 19 23  1  0
 20 18  1  0
 21 18  2  0
 22 19  2  0
 23 25  1  0
 24 20  1  0
 25 24  1  0
 26 29  1  0
 27 18  1  0
 28 19  1  0
 29 24  1  0
 30 27  1  0
 31 28  1  0
 32 35  1  0
 33 34  1  0
 34 37  1  0
 35 39  1  0
 36 31  1  0
 37 36  1  0
 38 30  1  0
 39 38  1  0
 40 32  1  0
 41 33  1  0
 42 46  1  0
 42 48  1  0
 43 46  2  0
 44 47  1  0
 45 50  1  0
 46 49  1  0
 47 48  1  0
 47 50  1  0
 49 51  1  0
 51 52  1  0
 52 53  1  0
 53 54  1  0
 54 55  1  0
 55 56  1  0
  3 57  1  0
  4 58  1  0
  6 59  1  6
  7 60  1  0
  7 61  1  0
  8 62  1  0
  8 63  1  0
  9 64  1  0
  9 65  1  0
 10 66  1  0
 10 67  1  0
 11 68  1  0
 11 69  1  0
 12 70  1  0
 12 71  1  0
 13 72  1  0
 13 73  1  0
 14 74  1  0
 14 75  1  0
 15 76  1  0
 15 77  1  0
 16 78  1  0
 16 79  1  0
 17 80  1  0
 17 81  1  0
 17 82  1  0
 24 83  1  6
 25 84  1  0
 25 85  1  0
 26 86  1  0
 27 87  1  0
 27 88  1  0
 28 89  1  0
 28 90  1  0
 29 91  1  0
 29 92  1  0
 30 93  1  0
 30 94  1  0
 31 95  1  0
 31 96  1  0
 32 97  1  0
 32 98  1  0
 33 99  1  0
 33100  1  0
 34101  1  0
 34102  1  0
 35103  1  0
 35104  1  0
 36105  1  0
 36106  1  0
 37107  1  0
 37108  1  0
 38109  1  0
 38110  1  0
 39111  1  0
 39112  1  0
 40113  1  0
 40114  1  0
 40115  1  0
 41116  1  0
 41117  1  0
 41118  1  0
 44119  1  0
 45120  1  0
 47121  1  6
 48122  1  0
 48123  1  0
 49124  1  0
 49125  1  0
 50126  1  0
 50127  1  0
 51128  1  0
 51129  1  0
 52130  1  0
 52131  1  0
 53132  1  0
 53133  1  0
 54134  1  0
 54135  1  0
 55136  1  0
 55137  1  0
 56138  1  0
 56139  1  0
 56140  1  0
M  END
> <Uni-Dock RESULT> 
ENERGY=   -5.254  LOWER_BOUND=    7.091  UPPER_BOUND=   10.008
INTER + INTRA:          -5.254
INTER:                  -5.254
INTRA:                   0.000
UNBOUND:                 0.000

$$$$

     RDKit          3D

140137  0  0  0  0  0  0  0  0999 V2000
   49.8643    6.4223   16.5088 O   0  0  0  0  0  0  0  0  0  0  0  0
   48.3078    8.0867   16.2533 O   0  0  0  0  0  0  0  0  0  0  0  0
   48.3675    4.0436   16.8803 O   0  0  0  0  0  0  0  0  0  0  0  0
   47.1136    5.9108   19.7892 O   0  0  0  0  0  0  0  0  0  0  0  0
   49.3000    7.4860   15.8718 C   0  0  0  0  0  0  0  0  0  0  0  0
   48.0489    5.2166   17.6370 C   0  0  2  0  0  0  0  0  0  0  0  0
   49.3025    6.0878   17.7995 C   0  0  0  0  0  0  0  0  0  0  0  0
   50.1147    7.8287   14.6434 C   0  0  0  0  0  0  0  0  0  0  0  0
   49.2847    8.5748   13.5982 C   0  0  0  0  0  0  0  0  0  0  0  0
   47.4905    4.7903   18.9996 C   0  0  0  0  0  0  0  0  0  0  0  0
   50.0835    8.9220   12.3358 C   0  0  0  0  0  0  0  0  0  0  0  0
   51.1897    9.9680   12.5230 C   0  0  0  0  0  0  0  0  0  0  0  0
   50.7291   11.3341   13.0445 C   0  0  0  0  0  0  0  0  0  0  0  0
   49.6979   12.0484   12.1685 C   0  0  0  0  0  0  0  0  0  0  0  0
   50.2906   12.5558   10.8521 C   0  0  0  0  0  0  0  0  0  0  0  0
   49.2559   13.2742    9.9847 C   0  0  0  0  0  0  0  0  0  0  0  0
   48.3284   12.3120    9.2607 C   0  0  0  0  0  0  0  0  0  0  0  0
   48.7431   10.3504   11.7880 C   0  0  0  0  0  0  0  0  0  0  0  0
   47.8034    6.1736   14.8644 C   0  0  0  0  0  0  0  0  0  0  0  0
   48.2214    9.1310   12.0792 O   0  0  0  0  0  0  0  0  0  0  0  0
   48.2129   11.4190   12.0408 O   0  0  0  0  0  0  0  0  0  0  0  0
   47.0358    5.2922   14.5060 O   0  0  0  0  0  0  0  0  0  0  0  0
   47.8191    7.4453   14.3708 O   0  0  0  0  0  0  0  0  0  0  0  0
   46.9818    9.1246   12.8293 C   0  0  2  0  0  0  0  0  0  0  0  0
   46.7988    7.7068   13.3910 C   0  0  0  0  0  0  0  0  0  0  0  0
   44.5772    9.4991   12.6507 O   0  0  0  0  0  0  0  0  0  0  0  0
   50.0544   10.1803   11.0536 C   0  0  0  0  0  0  0  0  0  0  0  0
   48.9021    6.0099   15.8864 C   0  0  0  0  0  0  0  0  0  0  0  0
   45.7985    9.4863   11.9224 C   0  0  0  0  0  0  0  0  0  0  0  0
   50.9434   11.4169   11.1945 C   0  0  0  0  0  0  0  0  0  0  0  0
   48.6358    4.8807   16.8840 C   0  0  0  0  0  0  0  0  0  0  0  0
   52.5080   13.9039    8.8459 C   0  0  0  0  0  0  0  0  0  0  0  0
   48.6574    6.0448   20.7854 C   0  0  0  0  0  0  0  0  0  0  0  0
   48.5693    6.7486   19.4283 C   0  0  0  0  0  0  0  0  0  0  0  0
   52.8181   13.7680   10.3365 C   0  0  0  0  0  0  0  0  0  0  0  0
   47.4118    5.0754   17.7897 C   0  0  0  0  0  0  0  0  0  0  0  0
   47.3483    6.3884   18.5742 C   0  0  0  0  0  0  0  0  0  0  0  0
   52.2826   11.2275   10.4805 C   0  0  0  0  0  0  0  0  0  0  0  0
   53.2783   12.3637   10.7380 C   0  0  0  0  0  0  0  0  0  0  0  0
   52.1549   15.3404    8.4814 C   0  0  0  0  0  0  0  0  0  0  0  0
   49.1582    4.6105   20.7260 C   0  0  0  0  0  0  0  0  0  0  0  0
   48.6671   10.4865   11.0511 O   0  0  0  0  0  0  0  0  0  0  0  0
   48.6151   11.2933   13.1994 O   0  0  0  0  0  0  0  0  0  0  0  0
   50.3585   11.7895    8.9685 O   0  0  0  0  0  0  0  0  0  0  0  0
   52.1059   13.0262   10.7032 O   0  0  0  0  0  0  0  0  0  0  0  0
   48.6743   10.3599   12.4087 C   0  0  0  0  0  0  0  0  0  0  0  0
   49.8489   12.4534   10.1371 C   0  0  1  0  0  0  0  0  0  0  0  0
   48.5127   11.8266   10.5445 C   0  0  0  0  0  0  0  0  0  0  0  0
   48.7909    8.8986   12.7817 C   0  0  0  0  0  0  0  0  0  0  0  0
   50.9281   12.3982   11.2186 C   0  0  0  0  0  0  0  0  0  0  0  0
   48.7014    8.7090   14.2941 C   0  0  0  0  0  0  0  0  0  0  0  0
   48.8310    7.2382   14.6966 C   0  0  0  0  0  0  0  0  0  0  0  0
   48.8256    7.0879   16.2194 C   0  0  0  0  0  0  0  0  0  0  0  0
   48.9599    5.6229   16.6408 C   0  0  0  0  0  0  0  0  0  0  0  0
   48.9330    5.4343   18.1607 C   0  0  0  0  0  0  0  0  0  0  0  0
   50.1410    6.0308   18.8686 C   0  0  0  0  0  0  0  0  0  0  0  0
   48.8819    4.3419   16.1087 H   0  0  0  0  0  0  0  0  0  0  0  0
   46.2691    6.2390   19.4356 H   0  0  0  0  0  0  0  0  0  0  0  0
   47.2813    5.7682   17.0804 H   0  0  0  0  0  0  0  0  0  0  0  0
   49.1082    6.9994   18.3752 H   0  0  0  0  0  0  0  0  0  0  0  0
   50.0843    5.5228   18.3232 H   0  0  0  0  0  0  0  0  0  0  0  0
   50.4856    6.8961   14.1992 H   0  0  0  0  0  0  0  0  0  0  0  0
   50.9727    8.4253   14.9719 H   0  0  0  0  0  0  0  0  0  0  0  0
   48.8415    9.4783   14.0310 H   0  0  0  0  0  0  0  0  0  0  0  0
   48.4392    7.9368   13.3050 H   0  0  0  0  0  0  0  0  0  0  0  0
   46.6232    4.1322   18.8736 H   0  0  0  0  0  0  0  0  0  0  0  0
   48.2416    4.2126   19.5523 H   0  0  0  0  0  0  0  0  0  0  0  0
   49.3883    9.2611   11.5615 H   0  0  0  0  0  0  0  0  0  0  0  0
   50.5396    8.0038   11.9418 H   0  0  0  0  0  0  0  0  0  0  0  0
   51.7052   10.1025   11.5663 H   0  0  0  0  0  0  0  0  0  0  0  0
   51.9471    9.5736   13.2103 H   0  0  0  0  0  0  0  0  0  0  0  0
   50.3196   11.2148   14.0562 H   0  0  0  0  0  0  0  0  0  0  0  0
   51.6102   11.9793   13.1580 H   0  0  0  0  0  0  0  0  0  0  0  0
   48.8374   11.4001   11.9873 H   0  0  0  0  0  0  0  0  0  0  0  0
   49.3204   12.9138   12.7306 H   0  0  0  0  0  0  0  0  0  0  0  0
   51.0870   13.2743   11.0865 H   0  0  0  0  0  0  0  0  0  0  0  0
   50.7495   11.7421   10.2869 H   0  0  0  0  0  0  0  0  0  0  0  0
   48.6609   13.9670   10.5917 H   0  0  0  0  0  0  0  0  0  0  0  0
   49.7796   13.8801    9.2335 H   0  0  0  0  0  0  0  0  0  0  0  0
   47.6515   12.8630    8.5992 H   0  0  0  0  0  0  0  0  0  0  0  0
   48.9050   11.6155    8.6405 H   0  0  0  0  0  0  0  0  0  0  0  0
   47.7207   11.7302    9.9593 H   0  0  0  0  0  0  0  0  0  0  0  0
   47.0642    9.8188   13.6729 H   0  0  0  0  0  0  0  0  0  0  0  0
   46.8911    6.9735   12.5808 H   0  0  0  0  0  0  0  0  0  0  0  0
   45.8228    7.6030   13.8765 H   0  0  0  0  0  0  0  0  0  0  0  0
   43.9968    8.8072   12.2809 H   0  0  0  0  0  0  0  0  0  0  0  0
   50.5764    9.3133   11.4734 H   0  0  0  0  0  0  0  0  0  0  0  0
   49.8286    9.9805   10.0024 H   0  0  0  0  0  0  0  0  0  0  0  0
   49.8244    5.7905   15.3378 H   0  0  0  0  0  0  0  0  0  0  0  0
   49.0511    6.9530   16.4191 H   0  0  0  0  0  0  0  0  0  0  0  0
   45.9262   10.4782   11.4753 H   0  0  0  0  0  0  0  0  0  0  0  0
   45.7182    8.7800   11.0867 H   0  0  0  0  0  0  0  0  0  0  0  0
   51.1148   11.6229   12.2581 H   0  0  0  0  0  0  0  0  0  0  0  0
   50.4208   12.2884   10.7821 H   0  0  0  0  0  0  0  0  0  0  0  0
   48.5009    3.9370   16.3361 H   0  0  0  0  0  0  0  0  0  0  0  0
   49.5271    4.7416   17.5075 H   0  0  0  0  0  0  0  0  0  0  0  0
   53.3766   13.5870    8.2550 H   0  0  0  0  0  0  0  0  0  0  0  0
   51.6678   13.2545    8.5717 H   0  0  0  0  0  0  0  0  0  0  0  0
   49.3608    6.6133   21.4085 H   0  0  0  0  0  0  0  0  0  0  0  0
   47.6888    6.0791   21.2996 H   0  0  0  0  0  0  0  0  0  0  0  0
   48.4999    7.8232   19.6393 H   0  0  0  0  0  0  0  0  0  0  0  0
   49.5024    6.6171   18.8686 H   0  0  0  0  0  0  0  0  0  0  0  0
   51.9421   14.0618   10.9274 H   0  0  0  0  0  0  0  0  0  0  0  0
   53.6164   14.4739   10.6027 H   0  0  0  0  0  0  0  0  0  0  0  0
   47.3472    4.2285   18.4807 H   0  0  0  0  0  0  0  0  0  0  0  0
   46.5020    5.0119   17.1748 H   0  0  0  0  0  0  0  0  0  0  0  0
   47.1880    7.2052   17.8589 H   0  0  0  0  0  0  0  0  0  0  0  0
   46.4525    6.3763   19.2094 H   0  0  0  0  0  0  0  0  0  0  0  0
   52.1190   11.1041    9.4045 H   0  0  0  0  0  0  0  0  0  0  0  0
   52.7448   10.2942   10.8273 H   0  0  0  0  0  0  0  0  0  0  0  0
   54.2119   12.1331   10.2122 H   0  0  0  0  0  0  0  0  0  0  0  0
   53.5220   12.3782   11.8082 H   0  0  0  0  0  0  0  0  0  0  0  0
   51.2642   15.6749    9.0238 H   0  0  0  0  0  0  0  0  0  0  0  0
   51.9473   15.4141    7.4086 H   0  0  0  0  0  0  0  0  0  0  0  0
   52.9790   16.0209    8.7167 H   0  0  0  0  0  0  0  0  0  0  0  0
   48.3995    3.9334   20.3264 H   0  0  0  0  0  0  0  0  0  0  0  0
   49.4028    4.2611   21.7374 H   0  0  0  0  0  0  0  0  0  0  0  0
   50.0641    4.5291   20.1128 H   0  0  0  0  0  0  0  0  0  0  0  0
   51.2544   12.1636    8.8424 H   0  0  0  0  0  0  0  0  0  0  0  0
   52.8315   12.8163   11.3226 H   0  0  0  0  0  0  0  0  0  0  0  0
   49.6786   13.4929    9.8387 H   0  0  0  0  0  0  0  0  0  0  0  0
   47.8639   11.7398    9.6649 H   0  0  0  0  0  0  0  0  0  0  0  0
   47.9918   12.4678   11.2630 H   0  0  0  0  0  0  0  0  0  0  0  0
   47.9845    8.3475   12.2871 H   0  0  0  0  0  0  0  0  0  0  0  0
   49.7549    8.5339   12.4106 H   0  0  0  0  0  0  0  0  0  0  0  0
   50.6176   12.9258   12.1252 H   0  0  0  0  0  0  0  0  0  0  0  0
   51.1937   11.3648   11.4581 H   0  0  0  0  0  0  0  0  0  0  0  0
   49.4894    9.2958   14.7831 H   0  0  0  0  0  0  0  0  0  0  0  0
   47.7459    9.1048   14.6575 H   0  0  0  0  0  0  0  0  0  0  0  0
   49.7625    6.8235   14.2903 H   0  0  0  0  0  0  0  0  0  0  0  0
   48.0006    6.6660   14.2644 H   0  0  0  0  0  0  0  0  0  0  0  0
   49.6516    7.6748   16.6391 H   0  0  0  0  0  0  0  0  0  0  0  0
   47.8945    7.5017   16.6284 H   0  0  0  0  0  0  0  0  0  0  0  0
   48.1314    5.0490   16.2058 H   0  0  0  0  0  0  0  0  0  0  0  0
   49.8882    5.1980   16.2336 H   0  0  0  0  0  0  0  0  0  0  0  0
   48.0160    5.8718   18.5740 H   0  0  0  0  0  0  0  0  0  0  0  0
   48.8986    4.3589   18.3791 H   0  0  0  0  0  0  0  0  0  0  0  0
   50.1143    5.7778   19.9343 H   0  0  0  0  0  0  0  0  0  0  0  0
   51.0761    5.6396   18.4501 H   0  0  0  0  0  0  0  0  0  0  0  0
   50.1557    7.1225   18.7888 H   0  0  0  0  0  0  0  0  0  0  0  0
  1  5  1  0
  1  7  1  0
  2  5  2  0
  3  6  1  0
  4 10  1  0
  5  8  1  0
  6  7  1  0
  6 10  1  0
  8  9  1  0
  9 11  1  0
 11 12  1  0
 12 13  1  0
 13 14  1  0
 14 15  1  0
 15 16  1  0
 16 17  1  0
 19 23  1  0
 20 18  1  0
 21 18  2  0
 22 19  2  0
 23 25  1  0
 24 20  1  0
 25 24  1  0
 26 29  1  0
 27 18  1  0
 28 19  1  0
 29 24  1  0
 30 27  1  0
 31 28  1  0
 32 35  1  0
 33 34  1  0
 34 37  1  0
 35 39  1  0
 36 31  1  0
 37 36  1  0
 38 30  1  0
 39 38  1  0
 40 32  1  0
 41 33  1  0
 42 46  1  0
 42 48  1  0
 43 46  2  0
 44 47  1  0
 45 50  1  0
 46 49  1  0
 47 48  1  0
 47 50  1  0
 49 51  1  0
 51 52  1  0
 52 53  1  0
 53 54  1  0
 54 55  1  0
 55 56  1  0
  3 57  1  0
  4 58  1  0
  6 59  1  6
  7 60  1  0
  7 61  1  0
  8 62  1  0
  8 63  1  0
  9 64  1  0
  9 65  1  0
 10 66  1  0
 10 67  1  0
 11 68  1  0
 11 69  1  0
 12 70  1  0
 12 71  1  0
 13 72  1  0
 13 73  1  0
 14 74  1  0
 14 75  1  0
 15 76  1  0
 15 77  1  0
 16 78  1  0
 16 79  1  0
 17 80  1  0
 17 81  1  0
 17 82  1  0
 24 83  1  6
 25 84  1  0
 25 85  1  0
 26 86  1  0
 27 87  1  0
 27 88  1  0
 28 89  1  0
 28 90  1  0
 29 91  1  0
 29 92  1  0
 30 93  1  0
 30 94  1  0
 31 95  1  0
 31 96  1  0
 32 97  1  0
 32 98  1  0
 33 99  1  0
 33100  1  0
 34101  1  0
 34102  1  0
 35103  1  0
 35104  1  0
 36105  1  0
 36106  1  0
 37107  1  0
 37108  1  0
 38109  1  0
 38110  1  0
 39111  1  0
 39112  1  0
 40113  1  0
 40114  1  0
 40115  1  0
 41116  1  0
 41117  1  0
 41118  1  0
 44119  1  0
 45120  1  0
 47121  1  6
 48122  1  0
 48123  1  0
 49124  1  0
 49125  1  0
 50126  1  0
 50127  1  0
 51128  1  0
 51129  1  0
 52130  1  0
 52131  1  0
 53132  1  0
 53133  1  0
 54134  1  0
 54135  1  0
 55136  1  0
 55137  1  0
 56138  1  0
 56139  1  0
 56140  1  0
M  END
> <Uni-Dock RESULT> 
ENERGY=   -5.249  LOWER_BOUND=    4.672  UPPER_BOUND=   10.714
INTER + INTRA:          -5.249
INTER:                  -5.249
INTRA:                   0.000
UNBOUND:                 0.000

$$$$

     RDKit          3D

140137  0  0  0  0  0  0  0  0999 V2000
   47.3046    9.9632   18.8922 O   0  0  0  0  0  0  0  0  0  0  0  0
   49.3098   11.0090   19.2714 O   0  0  0  0  0  0  0  0  0  0  0  0
   46.0930    9.7128   21.4430 O   0  0  0  0  0  0  0  0  0  0  0  0
   49.1363    7.7616   22.1152 O   0  0  0  0  0  0  0  0  0  0  0  0
   48.2449   10.9256   18.6797 C   0  0  0  0  0  0  0  0  0  0  0  0
   47.4574    9.3209   21.2558 C   0  0  2  0  0  0  0  0  0  0  0  0
   47.6825    8.8991   19.7970 C   0  0  0  0  0  0  0  0  0  0  0  0
   47.7813   11.8483   17.5735 C   0  0  0  0  0  0  0  0  0  0  0  0
   48.4440   13.2234   17.6623 C   0  0  0  0  0  0  0  0  0  0  0  0
   47.7796    8.1734   22.2200 C   0  0  0  0  0  0  0  0  0  0  0  0
   47.9805   14.1837   16.5600 C   0  0  0  0  0  0  0  0  0  0  0  0
   48.4254   13.8187   15.1381 C   0  0  0  0  0  0  0  0  0  0  0  0
   49.9402   13.7256   14.9208 C   0  0  0  0  0  0  0  0  0  0  0  0
   50.7192   15.0061   15.2279 C   0  0  0  0  0  0  0  0  0  0  0  0
   50.4643   16.1133   14.2028 C   0  0  0  0  0  0  0  0  0  0  0  0
   51.2511   17.3877   14.5124 C   0  0  0  0  0  0  0  0  0  0  0  0
   50.6269   18.2043   15.6322 C   0  0  0  0  0  0  0  0  0  0  0  0
   49.5993   15.3871   16.8217 C   0  0  0  0  0  0  0  0  0  0  0  0
   47.4902   12.1355   20.3954 C   0  0  0  0  0  0  0  0  0  0  0  0
   48.9011   15.0829   17.9459 O   0  0  0  0  0  0  0  0  0  0  0  0
   50.8105   15.5150   16.7610 O   0  0  0  0  0  0  0  0  0  0  0  0
   46.9786   12.5737   21.4156 O   0  0  0  0  0  0  0  0  0  0  0  0
   48.3927   12.8061   19.6229 O   0  0  0  0  0  0  0  0  0  0  0  0
   49.6837   14.8037   19.1329 C   0  0  2  0  0  0  0  0  0  0  0  0
   48.7545   14.1012   20.1340 C   0  0  0  0  0  0  0  0  0  0  0  0
   51.0085   15.8415   20.8998 O   0  0  0  0  0  0  0  0  0  0  0  0
   48.6419   15.5974   15.6698 C   0  0  0  0  0  0  0  0  0  0  0  0
   47.1889   10.7918   19.7772 C   0  0  0  0  0  0  0  0  0  0  0  0
   50.2249   16.1033   19.7425 C   0  0  0  0  0  0  0  0  0  0  0  0
   49.3284   15.3809   14.3202 C   0  0  0  0  0  0  0  0  0  0  0  0
   46.6767    9.7633   20.7876 C   0  0  0  0  0  0  0  0  0  0  0  0
   49.9743   17.4579   11.2513 C   0  0  0  0  0  0  0  0  0  0  0  0
   48.8788    6.3434   20.9680 C   0  0  0  0  0  0  0  0  0  0  0  0
   49.0779    7.7508   20.3984 C   0  0  0  0  0  0  0  0  0  0  0  0
   50.1950   15.9500   11.3700 C   0  0  0  0  0  0  0  0  0  0  0  0
   47.6702    9.3693   21.8895 C   0  0  0  0  0  0  0  0  0  0  0  0
   49.0474    8.8900   21.4237 C   0  0  0  0  0  0  0  0  0  0  0  0
   48.3489   15.5596   13.1592 C   0  0  0  0  0  0  0  0  0  0  0  0
   48.9407   15.1820   11.7969 C   0  0  0  0  0  0  0  0  0  0  0  0
   51.2196   18.1612   10.7264 C   0  0  0  0  0  0  0  0  0  0  0  0
   47.4354    5.9835   21.2821 C   0  0  0  0  0  0  0  0  0  0  0  0
   49.5137   16.1185   16.6632 O   0  0  0  0  0  0  0  0  0  0  0  0
   50.8935   14.2853   16.7297 O   0  0  0  0  0  0  0  0  0  0  0  0
   49.1951   17.7028   14.1564 O   0  0  0  0  0  0  0  0  0  0  0  0
   50.0055   15.7221   12.4208 O   0  0  0  0  0  0  0  0  0  0  0  0
   49.8344   14.8371   17.0013 C   0  0  0  0  0  0  0  0  0  0  0  0
   50.3480   16.9061   14.4759 C   0  0  1  0  0  0  0  0  0  0  0  0
   50.5449   16.8700   15.9939 C   0  0  0  0  0  0  0  0  0  0  0  0
   48.6760   14.2012   17.7374 C   0  0  0  0  0  0  0  0  0  0  0  0
   50.1653   15.5325   13.8300 C   0  0  0  0  0  0  0  0  0  0  0  0
   49.0359   12.7980   18.2202 C   0  0  0  0  0  0  0  0  0  0  0  0
   47.8731   12.1288   18.9564 C   0  0  0  0  0  0  0  0  0  0  0  0
   48.2319   10.6946   19.3513 C   0  0  0  0  0  0  0  0  0  0  0  0
   47.0779   10.0072   20.0843 C   0  0  0  0  0  0  0  0  0  0  0  0
   47.4132    8.5764   20.5162 C   0  0  0  0  0  0  0  0  0  0  0  0
   47.6012    7.6176   19.3494 C   0  0  0  0  0  0  0  0  0  0  0  0
   45.8702   10.3058   20.7029 H   0  0  0  0  0  0  0  0  0  0  0  0
   49.6743    8.4292   22.5743 H   0  0  0  0  0  0  0  0  0  0  0  0
   48.0841   10.1891   21.4938 H   0  0  0  0  0  0  0  0  0  0  0  0
   48.7152    8.5881   19.6047 H   0  0  0  0  0  0  0  0  0  0  0  0
   47.0278    8.0543   19.5475 H   0  0  0  0  0  0  0  0  0  0  0  0
   46.6942   11.9746   17.6569 H   0  0  0  0  0  0  0  0  0  0  0  0
   48.0045   11.3585   16.6194 H   0  0  0  0  0  0  0  0  0  0  0  0
   49.5352   13.1269   17.6517 H   0  0  0  0  0  0  0  0  0  0  0  0
   48.1917   13.6692   18.6346 H   0  0  0  0  0  0  0  0  0  0  0  0
   47.5731    8.4682   23.2551 H   0  0  0  0  0  0  0  0  0  0  0  0
   47.1370    7.3099   22.0085 H   0  0  0  0  0  0  0  0  0  0  0  0
   48.3281   15.1927   16.8030 H   0  0  0  0  0  0  0  0  0  0  0  0
   46.8836   14.2374   16.5755 H   0  0  0  0  0  0  0  0  0  0  0  0
   48.0063   14.5546   14.4440 H   0  0  0  0  0  0  0  0  0  0  0  0
   47.9763   12.8599   14.8542 H   0  0  0  0  0  0  0  0  0  0  0  0
   50.3425   12.9058   15.5304 H   0  0  0  0  0  0  0  0  0  0  0  0
   50.1258   13.4354   13.8782 H   0  0  0  0  0  0  0  0  0  0  0  0
   50.5004   15.3515   16.2411 H   0  0  0  0  0  0  0  0  0  0  0  0
   51.7902   14.7613   15.2090 H   0  0  0  0  0  0  0  0  0  0  0  0
   50.7873   15.7523   13.2174 H   0  0  0  0  0  0  0  0  0  0  0  0
   49.3995   16.3425   14.1267 H   0  0  0  0  0  0  0  0  0  0  0  0
   52.2882   17.1447   14.7727 H   0  0  0  0  0  0  0  0  0  0  0  0
   51.2884   18.0116   13.6096 H   0  0  0  0  0  0  0  0  0  0  0  0
   51.1797   19.1390   15.7736 H   0  0  0  0  0  0  0  0  0  0  0  0
   49.5907   18.4650   15.3865 H   0  0  0  0  0  0  0  0  0  0  0  0
   50.6303   17.6614   16.5815 H   0  0  0  0  0  0  0  0  0  0  0  0
   50.4962   14.1143   18.8783 H   0  0  0  0  0  0  0  0  0  0  0  0
   47.8422   14.6943   20.2705 H   0  0  0  0  0  0  0  0  0  0  0  0
   49.2546   13.9617   21.0980 H   0  0  0  0  0  0  0  0  0  0  0  0
   50.5691   16.2599   21.6642 H   0  0  0  0  0  0  0  0  0  0  0  0
   47.8164   14.8841   15.7710 H   0  0  0  0  0  0  0  0  0  0  0  0
   48.2416   16.6123   15.7450 H   0  0  0  0  0  0  0  0  0  0  0  0
   46.4218   10.9522   19.0120 H   0  0  0  0  0  0  0  0  0  0  0  0
   48.0820   10.4107   19.2747 H   0  0  0  0  0  0  0  0  0  0  0  0
   50.8579   16.6451   19.0313 H   0  0  0  0  0  0  0  0  0  0  0  0
   49.4038   16.7827   20.0032 H   0  0  0  0  0  0  0  0  0  0  0  0
   49.7619   14.3739   14.2895 H   0  0  0  0  0  0  0  0  0  0  0  0
   50.1602   16.0883   14.2186 H   0  0  0  0  0  0  0  0  0  0  0  0
   45.7720   10.1535   21.2757 H   0  0  0  0  0  0  0  0  0  0  0  0
   46.3620    8.8625   20.2472 H   0  0  0  0  0  0  0  0  0  0  0  0
   49.1359   17.6588   10.5725 H   0  0  0  0  0  0  0  0  0  0  0  0
   49.7161   17.8825   12.2291 H   0  0  0  0  0  0  0  0  0  0  0  0
   49.2403    5.6279   20.2173 H   0  0  0  0  0  0  0  0  0  0  0  0
   49.5004    6.1986   21.8603 H   0  0  0  0  0  0  0  0  0  0  0  0
   50.0762    7.7636   19.9431 H   0  0  0  0  0  0  0  0  0  0  0  0
   48.3761    7.9330   19.5764 H   0  0  0  0  0  0  0  0  0  0  0  0
   51.0172   15.7478   12.0669 H   0  0  0  0  0  0  0  0  0  0  0  0
   50.5165   15.5568   10.3962 H   0  0  0  0  0  0  0  0  0  0  0  0
   47.2079    8.6054   22.5233 H   0  0  0  0  0  0  0  0  0  0  0  0
   47.8261   10.2335   22.5519 H   0  0  0  0  0  0  0  0  0  0  0  0
   49.5766    9.7467   20.9873 H   0  0  0  0  0  0  0  0  0  0  0  0
   49.6362    8.6007   22.3045 H   0  0  0  0  0  0  0  0  0  0  0  0
   47.9772   16.5897   13.1382 H   0  0  0  0  0  0  0  0  0  0  0  0
   47.4713   14.9225   13.3295 H   0  0  0  0  0  0  0  0  0  0  0  0
   48.1664   15.3156   11.0328 H   0  0  0  0  0  0  0  0  0  0  0  0
   49.1838   14.1116   11.8066 H   0  0  0  0  0  0  0  0  0  0  0  0
   52.0672   18.0157   11.4044 H   0  0  0  0  0  0  0  0  0  0  0  0
   51.0337   19.2371   10.6405 H   0  0  0  0  0  0  0  0  0  0  0  0
   51.4987   17.7835    9.7379 H   0  0  0  0  0  0  0  0  0  0  0  0
   47.0781    6.4919   22.1807 H   0  0  0  0  0  0  0  0  0  0  0  0
   47.3544    4.9046   21.4672 H   0  0  0  0  0  0  0  0  0  0  0  0
   46.7707    6.2329   20.4458 H   0  0  0  0  0  0  0  0  0  0  0  0
   49.0710   17.5830   13.1926 H   0  0  0  0  0  0  0  0  0  0  0  0
   49.7037   14.8687   12.0539 H   0  0  0  0  0  0  0  0  0  0  0  0
   51.2004   17.4185   14.0181 H   0  0  0  0  0  0  0  0  0  0  0  0
   50.4816   17.8876   16.3972 H   0  0  0  0  0  0  0  0  0  0  0  0
   51.5413   16.4900   16.2421 H   0  0  0  0  0  0  0  0  0  0  0  0
   48.4154   14.8353   18.5909 H   0  0  0  0  0  0  0  0  0  0  0  0
   47.8248   14.1581   17.0491 H   0  0  0  0  0  0  0  0  0  0  0  0
   51.0326   14.8881   14.0009 H   0  0  0  0  0  0  0  0  0  0  0  0
   49.2571   15.0438   14.1934 H   0  0  0  0  0  0  0  0  0  0  0  0
   49.3328   12.1814   17.3623 H   0  0  0  0  0  0  0  0  0  0  0  0
   49.9070   12.8507   18.8837 H   0  0  0  0  0  0  0  0  0  0  0  0
   46.9832   12.1206   18.3138 H   0  0  0  0  0  0  0  0  0  0  0  0
   47.6252   12.7096   19.8536 H   0  0  0  0  0  0  0  0  0  0  0  0
   48.4901   10.1294   18.4475 H   0  0  0  0  0  0  0  0  0  0  0  0
   49.1217   10.6999   19.9944 H   0  0  0  0  0  0  0  0  0  0  0  0
   46.8269   10.5897   20.9803 H   0  0  0  0  0  0  0  0  0  0  0  0
   46.1806    9.9992   19.4496 H   0  0  0  0  0  0  0  0  0  0  0  0
   48.3180    8.5770   21.1364 H   0  0  0  0  0  0  0  0  0  0  0  0
   46.5963    8.2006   21.1463 H   0  0  0  0  0  0  0  0  0  0  0  0
   47.7385    6.5961   19.7212 H   0  0  0  0  0  0  0  0  0  0  0  0
   46.7256    7.6236   18.6892 H   0  0  0  0  0  0  0  0  0  0  0  0
   48.4844    7.8744   18.7558 H   0  0  0  0  0  0  0  0  0  0  0  0
  1  5  1  0
  1  7  1  0
  2  5  2  0
  3  6  1  0
  4 10  1  0
  5  8  1  0
  6  7  1  0
  6 10  1  0
  8  9  1  0
  9 11  1  0
 11 12  1  0
 12 13  1  0
 13 14  1  0
 14 15  1  0
 15 16  1  0
 16 17  1  0
 19 23  1  0
 20 18  1  0
 21 18  2  0
 22 19  2  0
 23 25  1  0
 24 20  1  0
 25 24  1  0
 26 29  1  0
 27 18  1  0
 28 19  1  0
 29 24  1  0
 30 27  1  0
 31 28  1  0
 32 35  1  0
 33 34  1  0
 34 37  1  0
 35 39  1  0
 36 31  1  0
 37 36  1  0
 38 30  1  0
 39 38  1  0
 40 32  1  0
 41 33  1  0
 42 46  1  0
 42 48  1  0
 43 46  2  0
 44 47  1  0
 45 50  1  0
 46 49  1  0
 47 48  1  0
 47 50  1  0
 49 51  1  0
 51 52  1  0
 52 53  1  0
 53 54  1  0
 54 55  1  0
 55 56  1  0
  3 57  1  0
  4 58  1  0
  6 59  1  6
  7 60  1  0
  7 61  1  0
  8 62  1  0
  8 63  1  0
  9 64  1  0
  9 65  1  0
 10 66  1  0
 10 67  1  0
 11 68  1  0
 11 69  1  0
 12 70  1  0
 12 71  1  0
 13 72  1  0
 13 73  1  0
 14 74  1  0
 14 75  1  0
 15 76  1  0
 15 77  1  0
 16 78  1  0
 16 79  1  0
 17 80  1  0
 17 81  1  0
 17 82  1  0
 24 83  1  6
 25 84  1  0
 25 85  1  0
 26 86  1  0
 27 87  1  0
 27 88  1  0
 28 89  1  0
 28 90  1  0
 29 91  1  0
 29 92  1  0
 30 93  1  0
 30 94  1  0
 31 95  1  0
 31 96  1  0
 32 97  1  0
 32 98  1  0
 33 99  1  0
 33100  1  0
 34101  1  0
 34102  1  0
 35103  1  0
 35104  1  0
 36105  1  0
 36106  1  0
 37107  1  0
 37108  1  0
 38109  1  0
 38110  1  0
 39111  1  0
 39112  1  0
 40113  1  0
 40114  1  0
 40115  1  0
 41116  1  0
 41117  1  0
 41118  1  0
 44119  1  0
 45120  1  0
 47121  1  6
 48122  1  0
 48123  1  0
 49124  1  0
 49125  1  0
 50126  1  0
 50127  1  0
 51128  1  0
 51129  1  0
 52130  1  0
 52131  1  0
 53132  1  0
 53133  1  0
 54134  1  0
 54135  1  0
 55136  1  0
 55137  1  0
 56138  1  0
 56139  1  0
 56140  1  0
M  END
> <Uni-Dock RESULT> 
ENERGY=   -5.209  LOWER_BOUND=    1.638  UPPER_BOUND=    8.970
INTER + INTRA:          -5.209
INTER:                  -5.209
INTRA:                   0.000
UNBOUND:                 0.000

$$$$

     RDKit          3D

140137  0  0  0  0  0  0  0  0999 V2000
   52.9738    6.6584   19.7284 O   0  0  0  0  0  0  0  0  0  0  0  0
   50.6825    6.5725   19.6991 O   0  0  0  0  0  0  0  0  0  0  0  0
   53.8085    4.1328   20.7089 O   0  0  0  0  0  0  0  0  0  0  0  0
   51.8471    5.2056   23.6283 O   0  0  0  0  0  0  0  0  0  0  0  0
   51.7493    6.7887   19.1459 C   0  0  0  0  0  0  0  0  0  0  0  0
   52.7880    4.8666   21.3949 C   0  0  2  0  0  0  0  0  0  0  0  0
   52.9717    6.3703   21.1463 C   0  0  0  0  0  0  0  0  0  0  0  0
   51.9167    7.2782   17.7237 C   0  0  0  0  0  0  0  0  0  0  0  0
   50.7195    6.9071   16.8480 C   0  0  0  0  0  0  0  0  0  0  0  0
   52.8635    4.5393   22.8906 C   0  0  0  0  0  0  0  0  0  0  0  0
   50.8700    7.3795   15.3967 C   0  0  0  0  0  0  0  0  0  0  0  0
   50.8282    8.8989   15.1906 C   0  0  0  0  0  0  0  0  0  0  0  0
   49.5488    9.5974   15.6656 C   0  0  0  0  0  0  0  0  0  0  0  0
   48.2586    9.1056   15.0064 C   0  0  0  0  0  0  0  0  0  0  0  0
   48.1491    9.5221   13.5380 C   0  0  0  0  0  0  0  0  0  0  0  0
   46.8543    9.0327   12.8876 C   0  0  0  0  0  0  0  0  0  0  0  0
   46.9024    7.5578   12.5234 C   0  0  0  0  0  0  0  0  0  0  0  0
   48.8711    7.2183   15.0564 C   0  0  0  0  0  0  0  0  0  0  0  0
   51.6613    4.6070   18.6881 C   0  0  0  0  0  0  0  0  0  0  0  0
   49.4692    6.1244   15.5945 O   0  0  0  0  0  0  0  0  0  0  0  0
   47.7451    7.6040   15.3212 O   0  0  0  0  0  0  0  0  0  0  0  0
   51.7865    3.3925   18.6273 O   0  0  0  0  0  0  0  0  0  0  0  0
   50.6742    5.3230   18.0765 O   0  0  0  0  0  0  0  0  0  0  0  0
   48.7281    5.4296   16.6277 C   0  0  2  0  0  0  0  0  0  0  0  0
   49.7212    4.5164   17.3619 C   0  0  0  0  0  0  0  0  0  0  0  0
   46.8544    3.9163   17.0193 O   0  0  0  0  0  0  0  0  0  0  0  0
   49.7928    7.8528   14.0387 C   0  0  0  0  0  0  0  0  0  0  0  0
   52.5961    5.5442   19.4134 C   0  0  0  0  0  0  0  0  0  0  0  0
   47.5998    4.5911   16.0137 C   0  0  0  0  0  0  0  0  0  0  0  0
   49.4616    9.3303   13.8226 C   0  0  0  0  0  0  0  0  0  0  0  0
   53.3572    4.8720   20.5580 C   0  0  0  0  0  0  0  0  0  0  0  0
   48.4130   11.4685   10.9110 C   0  0  0  0  0  0  0  0  0  0  0  0
   52.8483    6.6477   24.1863 C   0  0  0  0  0  0  0  0  0  0  0  0
   52.1415    6.6974   22.8288 C   0  0  0  0  0  0  0  0  0  0  0  0
   48.8518   11.9823   12.2821 C   0  0  0  0  0  0  0  0  0  0  0  0
   52.4897    4.3597   21.7161 C   0  0  0  0  0  0  0  0  0  0  0  0
   51.5342    5.3737   22.3503 C   0  0  0  0  0  0  0  0  0  0  0  0
   50.4178    9.9772   12.8196 C   0  0  0  0  0  0  0  0  0  0  0  0
   50.2423   11.4949   12.6996 C   0  0  0  0  0  0  0  0  0  0  0  0
   47.0721   12.0627   10.4990 C   0  0  0  0  0  0  0  0  0  0  0  0
   54.2466    6.0516   24.1530 C   0  0  0  0  0  0  0  0  0  0  0  0
   48.6532    7.0644   14.3520 O   0  0  0  0  0  0  0  0  0  0  0  0
   48.2069    8.1051   16.3487 O   0  0  0  0  0  0  0  0  0  0  0  0
   48.5993    8.5871   11.7880 O   0  0  0  0  0  0  0  0  0  0  0  0
   48.9736   11.0842   12.8908 O   0  0  0  0  0  0  0  0  0  0  0  0
   48.8745    7.3345   15.6700 C   0  0  0  0  0  0  0  0  0  0  0  0
   47.8721    8.9575   12.9713 C   0  0  1  0  0  0  0  0  0  0  0  0
   47.5022    7.7006   13.7635 C   0  0  0  0  0  0  0  0  0  0  0  0
   50.0797    6.5579   16.1521 C   0  0  0  0  0  0  0  0  0  0  0  0
   48.7181    9.9670   13.7475 C   0  0  0  0  0  0  0  0  0  0  0  0
   50.2987    6.7577   17.6500 C   0  0  0  0  0  0  0  0  0  0  0  0
   51.5222    5.9917   18.1581 C   0  0  0  0  0  0  0  0  0  0  0  0
   51.7678    6.2796   19.6408 C   0  0  0  0  0  0  0  0  0  0  0  0
   52.9917    5.5257   20.1653 C   0  0  0  0  0  0  0  0  0  0  0  0
   53.2516    5.7726   21.6546 C   0  0  0  0  0  0  0  0  0  0  0  0
   53.6601    7.2041   21.9711 C   0  0  0  0  0  0  0  0  0  0  0  0
   53.8531    4.4965   19.8062 H   0  0  0  0  0  0  0  0  0  0  0  0
   51.0156    4.7282   23.4654 H   0  0  0  0  0  0  0  0  0  0  0  0
   51.8213    4.5379   20.9940 H   0  0  0  0  0  0  0  0  0  0  0  0
   52.2126    6.9754   21.6541 H   0  0  0  0  0  0  0  0  0  0  0  0
   53.9549    6.6919   21.5133 H   0  0  0  0  0  0  0  0  0  0  0  0
   52.8192    6.8189   17.3005 H   0  0  0  0  0  0  0  0  0  0  0  0
   52.0616    8.3634   17.7627 H   0  0  0  0  0  0  0  0  0  0  0  0
   49.7903    7.2930   17.2815 H   0  0  0  0  0  0  0  0  0  0  0  0
   50.6169    5.8129   16.8441 H   0  0  0  0  0  0  0  0  0  0  0  0
   52.7767    3.4593   23.0553 H   0  0  0  0  0  0  0  0  0  0  0  0
   53.8386    4.8382   23.2945 H   0  0  0  0  0  0  0  0  0  0  0  0
   50.0905    6.9077   14.7902 H   0  0  0  0  0  0  0  0  0  0  0  0
   51.8220    7.0031   14.9988 H   0  0  0  0  0  0  0  0  0  0  0  0
   50.9797    9.1088   14.1266 H   0  0  0  0  0  0  0  0  0  0  0  0
   51.6821    9.3565   15.7034 H   0  0  0  0  0  0  0  0  0  0  0  0
   49.4603    9.4870   16.7543 H   0  0  0  0  0  0  0  0  0  0  0  0
   49.6532   10.6758   15.4867 H   0  0  0  0  0  0  0  0  0  0  0  0
   48.1640    8.0226   15.1152 H   0  0  0  0  0  0  0  0  0  0  0  0
   47.4127    9.5464   15.5519 H   0  0  0  0  0  0  0  0  0  0  0  0
   48.1537   10.6190   13.4892 H   0  0  0  0  0  0  0  0  0  0  0  0
   49.0093    9.1722   12.9638 H   0  0  0  0  0  0  0  0  0  0  0  0
   45.9991    9.2173   13.5488 H   0  0  0  0  0  0  0  0  0  0  0  0
   46.6763    9.6093   11.9703 H   0  0  0  0  0  0  0  0  0  0  0  0
   45.9862    7.2664   11.9990 H   0  0  0  0  0  0  0  0  0  0  0  0
   47.7470    7.3542   11.8546 H   0  0  0  0  0  0  0  0  0  0  0  0
   47.0026    6.9237   13.4087 H   0  0  0  0  0  0  0  0  0  0  0  0
   48.3374    6.1581   17.3466 H   0  0  0  0  0  0  0  0  0  0  0  0
   50.2589    3.8952   16.6354 H   0  0  0  0  0  0  0  0  0  0  0  0
   49.2024    3.8779   18.0845 H   0  0  0  0  0  0  0  0  0  0  0  0
   46.9594    2.9560   16.8810 H   0  0  0  0  0  0  0  0  0  0  0  0
   50.8227    7.7653   14.4023 H   0  0  0  0  0  0  0  0  0  0  0  0
   49.7004    7.2921   13.1044 H   0  0  0  0  0  0  0  0  0  0  0  0
   53.3163    5.9171   18.6772 H   0  0  0  0  0  0  0  0  0  0  0  0
   52.0347    6.4032   19.7905 H   0  0  0  0  0  0  0  0  0  0  0  0
   46.9000    5.2158   15.4480 H   0  0  0  0  0  0  0  0  0  0  0  0
   48.0016    3.8581   15.3031 H   0  0  0  0  0  0  0  0  0  0  0  0
   49.5148    9.8594   14.7819 H   0  0  0  0  0  0  0  0  0  0  0  0
   48.4286    9.4221   13.4659 H   0  0  0  0  0  0  0  0  0  0  0  0
   53.9271    4.0187   20.1628 H   0  0  0  0  0  0  0  0  0  0  0  0
   54.1019    5.5755   20.9492 H   0  0  0  0  0  0  0  0  0  0  0  0
   49.1673   11.7285   10.1576 H   0  0  0  0  0  0  0  0  0  0  0  0
   48.3242   10.3754   10.9253 H   0  0  0  0  0  0  0  0  0  0  0  0
   52.9394    7.6799   24.5505 H   0  0  0  0  0  0  0  0  0  0  0  0
   52.2335    6.1121   24.9203 H   0  0  0  0  0  0  0  0  0  0  0  0
   51.3094    7.4044   22.9373 H   0  0  0  0  0  0  0  0  0  0  0  0
   52.8018    7.1325   22.0700 H   0  0  0  0  0  0  0  0  0  0  0  0
   48.1100   11.7018   13.0397 H   0  0  0  0  0  0  0  0  0  0  0  0
   48.8701   13.0804   12.2647 H   0  0  0  0  0  0  0  0  0  0  0  0
   53.1442    3.9371   22.4856 H   0  0  0  0  0  0  0  0  0  0  0  0
   51.8856    3.5127   21.3589 H   0  0  0  0  0  0  0  0  0  0  0  0
   50.7528    5.6102   21.6169 H   0  0  0  0  0  0  0  0  0  0  0  0
   51.0127    4.8906   23.1874 H   0  0  0  0  0  0  0  0  0  0  0  0
   50.3066    9.5044   11.8379 H   0  0  0  0  0  0  0  0  0  0  0  0
   51.4516    9.7852   13.1349 H   0  0  0  0  0  0  0  0  0  0  0  0
   50.9803   11.8743   11.9836 H   0  0  0  0  0  0  0  0  0  0  0  0
   50.4870   11.9521   13.6670 H   0  0  0  0  0  0  0  0  0  0  0  0
   46.2858   11.7859   11.2093 H   0  0  0  0  0  0  0  0  0  0  0  0
   46.7846   11.6881    9.5108 H   0  0  0  0  0  0  0  0  0  0  0  0
   47.1235   13.1546   10.4480 H   0  0  0  0  0  0  0  0  0  0  0  0
   54.2208    4.9664   24.0291 H   0  0  0  0  0  0  0  0  0  0  0  0
   54.7595    6.2565   25.1016 H   0  0  0  0  0  0  0  0  0  0  0  0
   54.8468    6.4865   23.3444 H   0  0  0  0  0  0  0  0  0  0  0  0
   48.8951    9.4373   11.4031 H   0  0  0  0  0  0  0  0  0  0  0  0
   49.6623   11.6223   13.3270 H   0  0  0  0  0  0  0  0  0  0  0  0
   46.9545    9.4393   12.6184 H   0  0  0  0  0  0  0  0  0  0  0  0
   47.0629    6.9565   13.0885 H   0  0  0  0  0  0  0  0  0  0  0  0
   46.7442    7.9329   14.5187 H   0  0  0  0  0  0  0  0  0  0  0  0
   49.9196    5.4967   15.9355 H   0  0  0  0  0  0  0  0  0  0  0  0
   50.9521    6.9110   15.5914 H   0  0  0  0  0  0  0  0  0  0  0  0
   48.2002   10.3230   14.6429 H   0  0  0  0  0  0  0  0  0  0  0  0
   49.6883    9.5420   14.0191 H   0  0  0  0  0  0  0  0  0  0  0  0
   50.4194    7.8277   17.8620 H   0  0  0  0  0  0  0  0  0  0  0  0
   49.4079    6.4291   18.1979 H   0  0  0  0  0  0  0  0  0  0  0  0
   52.4076    6.2799   17.5769 H   0  0  0  0  0  0  0  0  0  0  0  0
   51.3678    4.9157   18.0098 H   0  0  0  0  0  0  0  0  0  0  0  0
   51.9071    7.3590   19.7766 H   0  0  0  0  0  0  0  0  0  0  0  0
   50.8836    5.9919   20.2246 H   0  0  0  0  0  0  0  0  0  0  0  0
   52.8396    4.4491   20.0141 H   0  0  0  0  0  0  0  0  0  0  0  0
   53.8826    5.8047   19.5852 H   0  0  0  0  0  0  0  0  0  0  0  0
   52.3593    5.5114   22.2366 H   0  0  0  0  0  0  0  0  0  0  0  0
   54.0547    5.1011   21.9856 H   0  0  0  0  0  0  0  0  0  0  0  0
   53.9278    7.2927   23.0299 H   0  0  0  0  0  0  0  0  0  0  0  0
   54.5291    7.5070   21.3748 H   0  0  0  0  0  0  0  0  0  0  0  0
   52.8443    7.9077   21.7768 H   0  0  0  0  0  0  0  0  0  0  0  0
  1  5  1  0
  1  7  1  0
  2  5  2  0
  3  6  1  0
  4 10  1  0
  5  8  1  0
  6  7  1  0
  6 10  1  0
  8  9  1  0
  9 11  1  0
 11 12  1  0
 12 13  1  0
 13 14  1  0
 14 15  1  0
 15 16  1  0
 16 17  1  0
 19 23  1  0
 20 18  1  0
 21 18  2  0
 22 19  2  0
 23 25  1  0
 24 20  1  0
 25 24  1  0
 26 29  1  0
 27 18  1  0
 28 19  1  0
 29 24  1  0
 30 27  1  0
 31 28  1  0
 32 35  1  0
 33 34  1  0
 34 37  1  0
 35 39  1  0
 36 31  1  0
 37 36  1  0
 38 30  1  0
 39 38  1  0
 40 32  1  0
 41 33  1  0
 42 46  1  0
 42 48  1  0
 43 46  2  0
 44 47  1  0
 45 50  1  0
 46 49  1  0
 47 48  1  0
 47 50  1  0
 49 51  1  0
 51 52  1  0
 52 53  1  0
 53 54  1  0
 54 55  1  0
 55 56  1  0
  3 57  1  0
  4 58  1  0
  6 59  1  6
  7 60  1  0
  7 61  1  0
  8 62  1  0
  8 63  1  0
  9 64  1  0
  9 65  1  0
 10 66  1  0
 10 67  1  0
 11 68  1  0
 11 69  1  0
 12 70  1  0
 12 71  1  0
 13 72  1  0
 13 73  1  0
 14 74  1  0
 14 75  1  0
 15 76  1  0
 15 77  1  0
 16 78  1  0
 16 79  1  0
 17 80  1  0
 17 81  1  0
 17 82  1  0
 24 83  1  6
 25 84  1  0
 25 85  1  0
 26 86  1  0
 27 87  1  0
 27 88  1  0
 28 89  1  0
 28 90  1  0
 29 91  1  0
 29 92  1  0
 30 93  1  0
 30 94  1  0
 31 95  1  0
 31 96  1  0
 32 97  1  0
 32 98  1  0
 33 99  1  0
 33100  1  0
 34101  1  0
 34102  1  0
 35103  1  0
 35104  1  0
 36105  1  0
 36106  1  0
 37107  1  0
 37108  1  0
 38109  1  0
 38110  1  0
 39111  1  0
 39112  1  0
 40113  1  0
 40114  1  0
 40115  1  0
 41116  1  0
 41117  1  0
 41118  1  0
 44119  1  0
 45120  1  0
 47121  1  6
 48122  1  0
 48123  1  0
 49124  1  0
 49125  1  0
 50126  1  0
 50127  1  0
 51128  1  0
 51129  1  0
 52130  1  0
 52131  1  0
 53132  1  0
 53133  1  0
 54134  1  0
 54135  1  0
 55136  1  0
 55137  1  0
 56138  1  0
 56139  1  0
 56140  1  0
M  END
> <Uni-Dock RESULT> 
ENERGY=   -5.038  LOWER_BOUND=    4.790  UPPER_BOUND=   10.507
INTER + INTRA:          -5.038
INTER:                  -5.038
INTRA:                   0.000
UNBOUND:                 0.000

$$$$

     RDKit          3D

140137  0  0  0  0  0  0  0  0999 V2000
   46.8242   12.1609   19.2169 O   0  0  0  0  0  0  0  0  0  0  0  0
   48.8907   12.1208   18.2237 O   0  0  0  0  0  0  0  0  0  0  0  0
   47.3106   12.7821   21.9399 O   0  0  0  0  0  0  0  0  0  0  0  0
   49.2522    9.6647   21.7593 O   0  0  0  0  0  0  0  0  0  0  0  0
   47.7354   12.5136   18.2678 C   0  0  0  0  0  0  0  0  0  0  0  0
   48.0705   11.7560   21.2919 C   0  0  2  0  0  0  0  0  0  0  0  0
   47.2477   11.1405   20.1513 C   0  0  0  0  0  0  0  0  0  0  0  0
   47.0828   13.4343   17.2595 C   0  0  0  0  0  0  0  0  0  0  0  0
   48.1086   14.3095   16.5385 C   0  0  0  0  0  0  0  0  0  0  0  0
   48.4576   10.6963   22.3298 C   0  0  0  0  0  0  0  0  0  0  0  0
   47.4715   15.2630   15.5201 C   0  0  0  0  0  0  0  0  0  0  0  0
   46.8522   14.5925   14.2873 C   0  0  0  0  0  0  0  0  0  0  0  0
   47.8112   13.7487   13.4395 C   0  0  0  0  0  0  0  0  0  0  0  0
   49.0149   14.5060   12.8750 C   0  0  0  0  0  0  0  0  0  0  0  0
   48.6281   15.4919   11.7705 C   0  0  0  0  0  0  0  0  0  0  0  0
   49.8369   16.2403   11.2067 C   0  0  0  0  0  0  0  0  0  0  0  0
   50.3098   17.3609   12.1182 C   0  0  0  0  0  0  0  0  0  0  0  0
   49.2412   15.5375   14.5556 C   0  0  0  0  0  0  0  0  0  0  0  0
   48.5940   14.0962   19.5852 C   0  0  0  0  0  0  0  0  0  0  0  0
   49.2659   15.7239   15.9004 O   0  0  0  0  0  0  0  0  0  0  0  0
   50.1445   15.0490   13.8981 O   0  0  0  0  0  0  0  0  0  0  0  0
   48.9588   14.8243   20.4969 O   0  0  0  0  0  0  0  0  0  0  0  0
   49.0518   14.1609   18.3016 O   0  0  0  0  0  0  0  0  0  0  0  0
   50.4277   15.2122   16.5990 C   0  0  2  0  0  0  0  0  0  0  0  0
   50.0704   15.1547   18.0917 C   0  0  0  0  0  0  0  0  0  0  0  0
   52.7884   15.6316   17.0519 O   0  0  0  0  0  0  0  0  0  0  0  0
   47.9464   16.0785   13.9910 C   0  0  0  0  0  0  0  0  0  0  0  0
   47.5412   13.0203   19.6971 C   0  0  0  0  0  0  0  0  0  0  0  0
   51.6369   16.1315   16.3840 C   0  0  0  0  0  0  0  0  0  0  0  0
   47.5993   15.4252   12.6522 C   0  0  0  0  0  0  0  0  0  0  0  0
   47.3816   12.4769   21.1185 C   0  0  0  0  0  0  0  0  0  0  0  0
   47.0430   16.6142    9.1272 C   0  0  0  0  0  0  0  0  0  0  0  0
   47.9008    8.4521   21.4475 C   0  0  0  0  0  0  0  0  0  0  0  0
   48.2171    9.5194   20.3960 C   0  0  0  0  0  0  0  0  0  0  0  0
   46.7412   15.2110    9.6529 C   0  0  0  0  0  0  0  0  0  0  0  0
   48.6093   11.7544   21.6904 C   0  0  0  0  0  0  0  0  0  0  0  0
   49.1873   10.6196   20.8410 C   0  0  0  0  0  0  0  0  0  0  0  0
   46.2718   15.9487   12.1018 C   0  0  0  0  0  0  0  0  0  0  0  0
   45.7907   15.2010   10.8536 C   0  0  0  0  0  0  0  0  0  0  0  0
   47.9077   16.5630    7.8739 C   0  0  0  0  0  0  0  0  0  0  0  0
   46.8901    8.8776   22.5006 C   0  0  0  0  0  0  0  0  0  0  0  0
   49.3452   16.1980   14.2086 O   0  0  0  0  0  0  0  0  0  0  0  0
   49.7533   13.9399   14.2678 O   0  0  0  0  0  0  0  0  0  0  0  0
   48.2272   17.4866   11.7622 O   0  0  0  0  0  0  0  0  0  0  0  0
   47.1258   15.2070   10.6747 O   0  0  0  0  0  0  0  0  0  0  0  0
   49.3236   14.9630   14.7861 C   0  0  0  0  0  0  0  0  0  0  0  0
   48.9798   16.2620   11.7667 C   0  0  1  0  0  0  0  0  0  0  0  0
   49.9860   16.2797   12.9207 C   0  0  0  0  0  0  0  0  0  0  0  0
   48.6683   15.0502   16.1467 C   0  0  0  0  0  0  0  0  0  0  0  0
   47.9878   15.0995   11.8117 C   0  0  0  0  0  0  0  0  0  0  0  0
   48.7159   13.7044   16.8664 C   0  0  0  0  0  0  0  0  0  0  0  0
   48.0457   13.7648   18.2408 C   0  0  0  0  0  0  0  0  0  0  0  0
   48.0307   12.3842   18.9006 C   0  0  0  0  0  0  0  0  0  0  0  0
   47.3588   12.4244   20.2749 C   0  0  0  0  0  0  0  0  0  0  0  0
   47.3491   11.0617   20.9744 C   0  0  0  0  0  0  0  0  0  0  0  0
   46.4772   10.0270   20.2776 C   0  0  0  0  0  0  0  0  0  0  0  0
   46.9298   13.3341   21.2333 H   0  0  0  0  0  0  0  0  0  0  0  0
   50.1491   10.0235   21.6465 H   0  0  0  0  0  0  0  0  0  0  0  0
   48.9764   12.2240   20.8875 H   0  0  0  0  0  0  0  0  0  0  0  0
   47.7887   10.3465   19.6248 H   0  0  0  0  0  0  0  0  0  0  0  0
   46.3227   10.7054   20.5511 H   0  0  0  0  0  0  0  0  0  0  0  0
   46.3738   14.0843   17.7880 H   0  0  0  0  0  0  0  0  0  0  0  0
   46.5251   12.8090   16.5537 H   0  0  0  0  0  0  0  0  0  0  0  0
   48.8730   13.6902   16.0566 H   0  0  0  0  0  0  0  0  0  0  0  0
   48.6398   14.9126   17.2881 H   0  0  0  0  0  0  0  0  0  0  0  0
   49.0054   11.1521   23.1624 H   0  0  0  0  0  0  0  0  0  0  0  0
   47.5568   10.2427   22.7613 H   0  0  0  0  0  0  0  0  0  0  0  0
   48.2243   15.9902   15.1999 H   0  0  0  0  0  0  0  0  0  0  0  0
   46.6906   15.8485   16.0236 H   0  0  0  0  0  0  0  0  0  0  0  0
   46.4036   15.3689   13.6589 H   0  0  0  0  0  0  0  0  0  0  0  0
   46.0188   13.9546   14.6037 H   0  0  0  0  0  0  0  0  0  0  0  0
   48.1691   12.8997   14.0366 H   0  0  0  0  0  0  0  0  0  0  0  0
   47.2454   13.3065   12.6089 H   0  0  0  0  0  0  0  0  0  0  0  0
   49.5589   15.0095   13.6777 H   0  0  0  0  0  0  0  0  0  0  0  0
   49.7073   13.7672   12.4482 H   0  0  0  0  0  0  0  0  0  0  0  0
   48.1715   14.9264   10.9476 H   0  0  0  0  0  0  0  0  0  0  0  0
   47.8802   16.2050   12.1229 H   0  0  0  0  0  0  0  0  0  0  0  0
   50.6657   15.5465   11.0217 H   0  0  0  0  0  0  0  0  0  0  0  0
   49.5652   16.6760   10.2362 H   0  0  0  0  0  0  0  0  0  0  0  0
   51.1291   17.9135   11.6464 H   0  0  0  0  0  0  0  0  0  0  0  0
   49.4963   18.0711   12.3084 H   0  0  0  0  0  0  0  0  0  0  0  0
   50.6669   16.9799   13.0790 H   0  0  0  0  0  0  0  0  0  0  0  0
   50.6366   14.1924   16.2577 H   0  0  0  0  0  0  0  0  0  0  0  0
   49.6859   16.1287   18.4175 H   0  0  0  0  0  0  0  0  0  0  0  0
   50.9448   14.8813   18.6913 H   0  0  0  0  0  0  0  0  0  0  0  0
   53.0522   16.2826   17.7293 H   0  0  0  0  0  0  0  0  0  0  0  0
   47.1439   15.8746   14.7086 H   0  0  0  0  0  0  0  0  0  0  0  0
   48.0532   17.1612   13.8802 H   0  0  0  0  0  0  0  0  0  0  0  0
   46.5916   13.4618   19.3757 H   0  0  0  0  0  0  0  0  0  0  0  0
   47.7758   12.2044   19.0083 H   0  0  0  0  0  0  0  0  0  0  0  0
   51.8857   16.2225   15.3211 H   0  0  0  0  0  0  0  0  0  0  0  0
   51.4216   17.1474   16.7378 H   0  0  0  0  0  0  0  0  0  0  0  0
   47.5455   14.3373   12.7810 H   0  0  0  0  0  0  0  0  0  0  0  0
   48.4042   15.6208   11.9336 H   0  0  0  0  0  0  0  0  0  0  0  0
   47.1333   13.3052   21.7978 H   0  0  0  0  0  0  0  0  0  0  0  0
   46.5201   11.7989   21.1437 H   0  0  0  0  0  0  0  0  0  0  0  0
   46.1050   17.1340    8.8949 H   0  0  0  0  0  0  0  0  0  0  0  0
   47.5655   17.2023    9.8915 H   0  0  0  0  0  0  0  0  0  0  0  0
   47.4825    7.5831   20.9222 H   0  0  0  0  0  0  0  0  0  0  0  0
   48.8217    8.1076   21.9343 H   0  0  0  0  0  0  0  0  0  0  0  0
   48.6957    8.9977   19.5577 H   0  0  0  0  0  0  0  0  0  0  0  0
   47.2908    9.9424   19.9905 H   0  0  0  0  0  0  0  0  0  0  0  0
   47.6773   14.6996    9.9080 H   0  0  0  0  0  0  0  0  0  0  0  0
   46.2788   14.6194    8.8513 H   0  0  0  0  0  0  0  0  0  0  0  0
   48.3632   11.3798   22.6895 H   0  0  0  0  0  0  0  0  0  0  0  0
   49.4109   12.4902   21.8511 H   0  0  0  0  0  0  0  0  0  0  0  0
   49.6292   11.0608   19.9384 H   0  0  0  0  0  0  0  0  0  0  0  0
   50.0263   10.1649   21.3846 H   0  0  0  0  0  0  0  0  0  0  0  0
   46.3497   17.0214   11.8941 H   0  0  0  0  0  0  0  0  0  0  0  0
   45.4976   15.8431   12.8728 H   0  0  0  0  0  0  0  0  0  0  0  0
   44.8270   15.6229   10.5459 H   0  0  0  0  0  0  0  0  0  0  0  0
   45.5972   14.1554   11.1260 H   0  0  0  0  0  0  0  0  0  0  0  0
   48.8716   16.0867    8.0819 H   0  0  0  0  0  0  0  0  0  0  0  0
   48.1013   17.5781    7.5111 H   0  0  0  0  0  0  0  0  0  0  0  0
   47.4110   16.0043    7.0747 H   0  0  0  0  0  0  0  0  0  0  0  0
   47.3235    9.5793   23.2171 H   0  0  0  0  0  0  0  0  0  0  0  0
   46.5556    8.0003   23.0692 H   0  0  0  0  0  0  0  0  0  0  0  0
   46.0066    9.3393   22.0425 H   0  0  0  0  0  0  0  0  0  0  0  0
   47.5386   17.3512   11.0795 H   0  0  0  0  0  0  0  0  0  0  0  0
   46.3905   14.5803   10.8180 H   0  0  0  0  0  0  0  0  0  0  0  0
   49.5259   16.2444   10.8180 H   0  0  0  0  0  0  0  0  0  0  0  0
   50.5311   17.2311   12.9187 H   0  0  0  0  0  0  0  0  0  0  0  0
   50.7293   15.4860   12.7931 H   0  0  0  0  0  0  0  0  0  0  0  0
   49.1916   15.8091   16.7373 H   0  0  0  0  0  0  0  0  0  0  0  0
   47.6292   15.3640   15.9987 H   0  0  0  0  0  0  0  0  0  0  0  0
   48.4981   14.1325   11.7746 H   0  0  0  0  0  0  0  0  0  0  0  0
   47.3546   15.1559   12.7013 H   0  0  0  0  0  0  0  0  0  0  0  0
   48.2231   12.9424   16.2492 H   0  0  0  0  0  0  0  0  0  0  0  0
   49.7587   13.3867   16.9816 H   0  0  0  0  0  0  0  0  0  0  0  0
   47.0167   14.1322   18.1356 H   0  0  0  0  0  0  0  0  0  0  0  0
   48.5845   14.4755   18.8798 H   0  0  0  0  0  0  0  0  0  0  0  0
   47.5012   11.6814   18.2460 H   0  0  0  0  0  0  0  0  0  0  0  0
   49.0590   12.0144   19.0074 H   0  0  0  0  0  0  0  0  0  0  0  0
   47.8953   13.1379   20.9137 H   0  0  0  0  0  0  0  0  0  0  0  0
   46.3289   12.7963   20.1793 H   0  0  0  0  0  0  0  0  0  0  0  0
   48.3735   10.6783   21.0572 H   0  0  0  0  0  0  0  0  0  0  0  0
   46.9766   11.1968   21.9983 H   0  0  0  0  0  0  0  0  0  0  0  0
   46.4316    9.1103   20.8761 H   0  0  0  0  0  0  0  0  0  0  0  0
   45.4537   10.3980   20.1465 H   0  0  0  0  0  0  0  0  0  0  0  0
   46.8776    9.7598   19.2944 H   0  0  0  0  0  0  0  0  0  0  0  0
  1  5  1  0
  1  7  1  0
  2  5  2  0
  3  6  1  0
  4 10  1  0
  5  8  1  0
  6  7  1  0
  6 10  1  0
  8  9  1  0
  9 11  1  0
 11 12  1  0
 12 13  1  0
 13 14  1  0
 14 15  1  0
 15 16  1  0
 16 17  1  0
 19 23  1  0
 20 18  1  0
 21 18  2  0
 22 19  2  0
 23 25  1  0
 24 20  1  0
 25 24  1  0
 26 29  1  0
 27 18  1  0
 28 19  1  0
 29 24  1  0
 30 27  1  0
 31 28  1  0
 32 35  1  0
 33 34  1  0
 34 37  1  0
 35 39  1  0
 36 31  1  0
 37 36  1  0
 38 30  1  0
 39 38  1  0
 40 32  1  0
 41 33  1  0
 42 46  1  0
 42 48  1  0
 43 46  2  0
 44 47  1  0
 45 50  1  0
 46 49  1  0
 47 48  1  0
 47 50  1  0
 49 51  1  0
 51 52  1  0
 52 53  1  0
 53 54  1  0
 54 55  1  0
 55 56  1  0
  3 57  1  0
  4 58  1  0
  6 59  1  6
  7 60  1  0
  7 61  1  0
  8 62  1  0
  8 63  1  0
  9 64  1  0
  9 65  1  0
 10 66  1  0
 10 67  1  0
 11 68  1  0
 11 69  1  0
 12 70  1  0
 12 71  1  0
 13 72  1  0
 13 73  1  0
 14 74  1  0
 14 75  1  0
 15 76  1  0
 15 77  1  0
 16 78  1  0
 16 79  1  0
 17 80  1  0
 17 81  1  0
 17 82  1  0
 24 83  1  6
 25 84  1  0
 25 85  1  0
 26 86  1  0
 27 87  1  0
 27 88  1  0
 28 89  1  0
 28 90  1  0
 29 91  1  0
 29 92  1  0
 30 93  1  0
 30 94  1  0
 31 95  1  0
 31 96  1  0
 32 97  1  0
 32 98  1  0
 33 99  1  0
 33100  1  0
 34101  1  0
 34102  1  0
 35103  1  0
 35104  1  0
 36105  1  0
 36106  1  0
 37107  1  0
 37108  1  0
 38109  1  0
 38110  1  0
 39111  1  0
 39112  1  0
 40113  1  0
 40114  1  0
 40115  1  0
 41116  1  0
 41117  1  0
 41118  1  0
 44119  1  0
 45120  1  0
 47121  1  6
 48122  1  0
 48123  1  0
 49124  1  0
 49125  1  0
 50126  1  0
 50127  1  0
 51128  1  0
 51129  1  0
 52130  1  0
 52131  1  0
 53132  1  0
 53133  1  0
 54134  1  0
 54135  1  0
 55136  1  0
 55137  1  0
 56138  1  0
 56139  1  0
 56140  1  0
M  END
> <Uni-Dock RESULT> 
ENERGY=   -4.970  LOWER_BOUND=    1.681  UPPER_BOUND=    9.290
INTER + INTRA:          -4.970
INTER:                  -4.970
INTRA:                   0.000
UNBOUND:                 0.000

$$$$

     RDKit          3D

140137  0  0  0  0  0  0  0  0999 V2000
   49.8258   10.6835   13.6134 O   0  0  0  0  0  0  0  0  0  0  0  0
   48.2582   11.6944   14.9471 O   0  0  0  0  0  0  0  0  0  0  0  0
   51.3303   12.8034   12.4822 O   0  0  0  0  0  0  0  0  0  0  0  0
   48.0333   13.7283   11.1424 O   0  0  0  0  0  0  0  0  0  0  0  0
   49.1511   10.8784   14.7806 C   0  0  0  0  0  0  0  0  0  0  0  0
   49.8993   12.8472   12.4578 C   0  0  2  0  0  0  0  0  0  0  0  0
   49.3345   11.4198   12.4688 C   0  0  0  0  0  0  0  0  0  0  0  0
   49.6536    9.9028   15.8227 C   0  0  0  0  0  0  0  0  0  0  0  0
   49.4011   10.4062   17.2442 C   0  0  0  0  0  0  0  0  0  0  0  0
   49.4487   13.6114   11.2075 C   0  0  0  0  0  0  0  0  0  0  0  0
   49.9140    9.4418   18.3208 C   0  0  0  0  0  0  0  0  0  0  0  0
   49.1612    8.1094   18.4245 C   0  0  0  0  0  0  0  0  0  0  0  0
   47.6612    8.2167   18.7226 C   0  0  0  0  0  0  0  0  0  0  0  0
   47.3092    8.9355   20.0265 C   0  0  0  0  0  0  0  0  0  0  0  0
   47.6752    8.1199   21.2685 C   0  0  0  0  0  0  0  0  0  0  0  0
   47.3145    8.8416   22.5678 C   0  0  0  0  0  0  0  0  0  0  0  0
   48.3071    9.9357   22.9255 C   0  0  0  0  0  0  0  0  0  0  0  0
   48.7358   10.2868   19.7474 C   0  0  0  0  0  0  0  0  0  0  0  0
   50.4696   12.5909   15.3340 C   0  0  0  0  0  0  0  0  0  0  0  0
   49.5039   11.1465   19.0299 O   0  0  0  0  0  0  0  0  0  0  0  0
   47.6084   10.5207   20.1489 O   0  0  0  0  0  0  0  0  0  0  0  0
   51.2390   13.5396   15.3838 O   0  0  0  0  0  0  0  0  0  0  0  0
   49.6618   12.1847   16.3556 O   0  0  0  0  0  0  0  0  0  0  0  0
   48.8813   12.3971   18.6453 C   0  0  2  0  0  0  0  0  0  0  0  0
   49.7436   13.0094   17.5314 C   0  0  0  0  0  0  0  0  0  0  0  0
   48.1862   14.5821   19.4800 O   0  0  0  0  0  0  0  0  0  0  0  0
   49.5121    9.0176   20.0199 C   0  0  0  0  0  0  0  0  0  0  0  0
   50.2998   11.6677   14.1520 C   0  0  0  0  0  0  0  0  0  0  0  0
   48.8100   13.3562   19.8405 C   0  0  0  0  0  0  0  0  0  0  0  0
   48.5809    7.8367   20.2990 C   0  0  0  0  0  0  0  0  0  0  0  0
   50.6812   12.3159   12.8195 C   0  0  0  0  0  0  0  0  0  0  0  0
   48.0110    5.4598   23.1581 C   0  0  0  0  0  0  0  0  0  0  0  0
   47.7154   12.2946   10.0301 C   0  0  0  0  0  0  0  0  0  0  0  0
   47.8040   12.0735   11.5428 C   0  0  0  0  0  0  0  0  0  0  0  0
   47.4228    5.3226   21.7539 C   0  0  0  0  0  0  0  0  0  0  0  0
   49.8139   13.5088   12.3939 C   0  0  0  0  0  0  0  0  0  0  0  0
   48.3020   13.2720   12.3586 C   0  0  0  0  0  0  0  0  0  0  0  0
   49.3683    6.5478   20.5390 C   0  0  0  0  0  0  0  0  0  0  0  0
   48.4824    5.3020   20.6484 C   0  0  0  0  0  0  0  0  0  0  0  0
   46.9266    5.3720   24.2246 C   0  0  0  0  0  0  0  0  0  0  0  0
   49.0439   12.2055    9.2962 C   0  0  0  0  0  0  0  0  0  0  0  0
   48.9842   10.2616   20.4581 O   0  0  0  0  0  0  0  0  0  0  0  0
   47.1999   10.2653   19.0141 O   0  0  0  0  0  0  0  0  0  0  0  0
   49.2933    8.1115   22.5019 O   0  0  0  0  0  0  0  0  0  0  0  0
   47.7153    6.2393   21.2380 O   0  0  0  0  0  0  0  0  0  0  0  0
   48.3968   10.4010   19.2356 C   0  0  0  0  0  0  0  0  0  0  0  0
   48.0397    8.5124   21.9240 C   0  0  1  0  0  0  0  0  0  0  0  0
   48.0924    9.9984   21.5588 C   0  0  0  0  0  0  0  0  0  0  0  0
   49.4509   10.7229   18.1996 C   0  0  0  0  0  0  0  0  0  0  0  0
   47.7449    7.5829   20.7466 C   0  0  0  0  0  0  0  0  0  0  0  0
   48.8179   10.9850   16.8350 C   0  0  0  0  0  0  0  0  0  0  0  0
   49.8674   11.2994   15.7666 C   0  0  0  0  0  0  0  0  0  0  0  0
   49.2128   11.4711   14.3941 C   0  0  0  0  0  0  0  0  0  0  0  0
   50.2488   11.7809   13.3113 C   0  0  0  0  0  0  0  0  0  0  0  0
   49.6234   11.9834   11.9277 C   0  0  0  0  0  0  0  0  0  0  0  0
   49.0001   10.7202   11.3516 C   0  0  0  0  0  0  0  0  0  0  0  0
   51.5770   12.1651   13.1756 H   0  0  0  0  0  0  0  0  0  0  0  0
   47.7735   14.4175   11.7774 H   0  0  0  0  0  0  0  0  0  0  0  0
   49.5718   13.3846   13.3562 H   0  0  0  0  0  0  0  0  0  0  0  0
   48.2392   11.4017   12.4492 H   0  0  0  0  0  0  0  0  0  0  0  0
   49.6929   10.8698   11.5892 H   0  0  0  0  0  0  0  0  0  0  0  0
   50.7338    9.7683   15.6827 H   0  0  0  0  0  0  0  0  0  0  0  0
   49.1554    8.9435   15.6445 H   0  0  0  0  0  0  0  0  0  0  0  0
   48.3367   10.6171   17.3952 H   0  0  0  0  0  0  0  0  0  0  0  0
   49.9182   11.3678   17.3699 H   0  0  0  0  0  0  0  0  0  0  0  0
   49.8928   14.6131   11.1853 H   0  0  0  0  0  0  0  0  0  0  0  0
   49.7968   13.0967   10.3036 H   0  0  0  0  0  0  0  0  0  0  0  0
   49.8898    9.9506   19.2896 H   0  0  0  0  0  0  0  0  0  0  0  0
   50.9733    9.2259   18.1270 H   0  0  0  0  0  0  0  0  0  0  0  0
   49.6398    7.5001   19.1983 H   0  0  0  0  0  0  0  0  0  0  0  0
   49.2885    7.5491   17.4909 H   0  0  0  0  0  0  0  0  0  0  0  0
   47.1627    8.7249   17.8867 H   0  0  0  0  0  0  0  0  0  0  0  0
   47.2371    7.2042   18.7465 H   0  0  0  0  0  0  0  0  0  0  0  0
   47.7746    9.9235   20.0547 H   0  0  0  0  0  0  0  0  0  0  0  0
   46.2234    9.1046   20.0351 H   0  0  0  0  0  0  0  0  0  0  0  0
   47.1111    7.1783   21.2416 H   0  0  0  0  0  0  0  0  0  0  0  0
   48.7352    7.8584   21.2700 H   0  0  0  0  0  0  0  0  0  0  0  0
   46.3073    9.2703   22.5018 H   0  0  0  0  0  0  0  0  0  0  0  0
   47.2953    8.1113   23.3875 H   0  0  0  0  0  0  0  0  0  0  0  0
   48.0515   10.3778   23.8943 H   0  0  0  0  0  0  0  0  0  0  0  0
   49.3205    9.5246   23.0049 H   0  0  0  0  0  0  0  0  0  0  0  0
   48.3165   10.7354   22.1797 H   0  0  0  0  0  0  0  0  0  0  0  0
   47.8854   12.1960   18.2357 H   0  0  0  0  0  0  0  0  0  0  0  0
   50.7896   13.0566   17.8574 H   0  0  0  0  0  0  0  0  0  0  0  0
   49.3898   14.0125   17.2718 H   0  0  0  0  0  0  0  0  0  0  0  0
   48.8398   15.2984   19.5899 H   0  0  0  0  0  0  0  0  0  0  0  0
   50.1252    8.7911   19.1405 H   0  0  0  0  0  0  0  0  0  0  0  0
   50.1727    9.2026   20.8715 H   0  0  0  0  0  0  0  0  0  0  0  0
   50.9456   10.7997   14.3237 H   0  0  0  0  0  0  0  0  0  0  0  0
   49.2679   11.3087   14.1121 H   0  0  0  0  0  0  0  0  0  0  0  0
   48.2345   12.9237   20.6662 H   0  0  0  0  0  0  0  0  0  0  0  0
   49.8125   13.5593   20.2373 H   0  0  0  0  0  0  0  0  0  0  0  0
   47.8981    7.7032   19.4511 H   0  0  0  0  0  0  0  0  0  0  0  0
   47.9602    8.0631   21.1743 H   0  0  0  0  0  0  0  0  0  0  0  0
   51.7242   12.6603   12.8690 H   0  0  0  0  0  0  0  0  0  0  0  0
   50.6539   11.5518   12.0334 H   0  0  0  0  0  0  0  0  0  0  0  0
   48.7494    4.6668   23.3311 H   0  0  0  0  0  0  0  0  0  0  0  0
   48.5290    6.4211   23.2611 H   0  0  0  0  0  0  0  0  0  0  0  0
   47.0597   11.5152    9.6191 H   0  0  0  0  0  0  0  0  0  0  0  0
   47.2330   13.2550    9.8097 H   0  0  0  0  0  0  0  0  0  0  0  0
   46.7837   11.8610   11.8862 H   0  0  0  0  0  0  0  0  0  0  0  0
   48.3841   11.1702   11.7634 H   0  0  0  0  0  0  0  0  0  0  0  0
   46.7024    6.1292   21.5715 H   0  0  0  0  0  0  0  0  0  0  0  0
   46.8535    4.3853   21.6934 H   0  0  0  0  0  0  0  0  0  0  0  0
   50.1559   13.8609   11.4151 H   0  0  0  0  0  0  0  0  0  0  0  0
   50.0026   14.3472   13.0805 H   0  0  0  0  0  0  0  0  0  0  0  0
   47.9533   13.1417   13.3910 H   0  0  0  0  0  0  0  0  0  0  0  0
   47.8106   14.1855   11.9975 H   0  0  0  0  0  0  0  0  0  0  0  0
   49.9899    6.6502   21.4350 H   0  0  0  0  0  0  0  0  0  0  0  0
   50.0623    6.3909   19.7031 H   0  0  0  0  0  0  0  0  0  0  0  0
   49.1282    4.4283   20.7930 H   0  0  0  0  0  0  0  0  0  0  0  0
   47.9706    5.1525   19.6889 H   0  0  0  0  0  0  0  0  0  0  0  0
   46.1940    6.1774   24.1061 H   0  0  0  0  0  0  0  0  0  0  0  0
   47.3731    5.4625   25.2206 H   0  0  0  0  0  0  0  0  0  0  0  0
   46.3994    4.4144   24.1731 H   0  0  0  0  0  0  0  0  0  0  0  0
   49.6653   13.0859    9.4761 H   0  0  0  0  0  0  0  0  0  0  0  0
   48.8667   12.1505    8.2143 H   0  0  0  0  0  0  0  0  0  0  0  0
   49.6042   11.3099    9.5919 H   0  0  0  0  0  0  0  0  0  0  0  0
   49.2213    7.1399   22.5992 H   0  0  0  0  0  0  0  0  0  0  0  0
   47.7168    5.6532   20.4567 H   0  0  0  0  0  0  0  0  0  0  0  0
   47.2896    8.3645   22.7077 H   0  0  0  0  0  0  0  0  0  0  0  0
   48.4874   10.5715   22.4060 H   0  0  0  0  0  0  0  0  0  0  0  0
   47.0859   10.3794   21.3575 H   0  0  0  0  0  0  0  0  0  0  0  0
   50.0061   11.6065   18.5305 H   0  0  0  0  0  0  0  0  0  0  0  0
   50.1356    9.8697   18.1419 H   0  0  0  0  0  0  0  0  0  0  0  0
   46.7786    7.8092   20.2865 H   0  0  0  0  0  0  0  0  0  0  0  0
   48.5388    7.6331   19.9964 H   0  0  0  0  0  0  0  0  0  0  0  0
   48.2321   10.1086   16.5296 H   0  0  0  0  0  0  0  0  0  0  0  0
   48.1128   11.8208   16.9123 H   0  0  0  0  0  0  0  0  0  0  0  0
   50.6056   10.4883   15.7220 H   0  0  0  0  0  0  0  0  0  0  0  0
   50.4036   12.2170   16.0391 H   0  0  0  0  0  0  0  0  0  0  0  0
   48.6699   10.5526   14.1401 H   0  0  0  0  0  0  0  0  0  0  0  0
   48.4741   12.2823   14.4358 H   0  0  0  0  0  0  0  0  0  0  0  0
   50.7882   12.6969   13.5850 H   0  0  0  0  0  0  0  0  0  0  0  0
   50.9952   10.9756   13.2634 H   0  0  0  0  0  0  0  0  0  0  0  0
   48.8655   12.7750   11.9739 H   0  0  0  0  0  0  0  0  0  0  0  0
   50.4042   12.3309   11.2384 H   0  0  0  0  0  0  0  0  0  0  0  0
   48.6611   10.9030   10.3259 H   0  0  0  0  0  0  0  0  0  0  0  0
   49.7255    9.8981   11.3280 H   0  0  0  0  0  0  0  0  0  0  0  0
   48.1309   10.3986   11.9342 H   0  0  0  0  0  0  0  0  0  0  0  0
  1  5  1  0
  1  7  1  0
  2  5  2  0
  3  6  1  0
  4 10  1  0
  5  8  1  0
  6  7  1  0
  6 10  1  0
  8  9  1  0
  9 11  1  0
 11 12  1  0
 12 13  1  0
 13 14  1  0
 14 15  1  0
 15 16  1  0
 16 17  1  0
 19 23  1  0
 20 18  1  0
 21 18  2  0
 22 19  2  0
 23 25  1  0
 24 20  1  0
 25 24  1  0
 26 29  1  0
 27 18  1  0
 28 19  1  0
 29 24  1  0
 30 27  1  0
 31 28  1  0
 32 35  1  0
 33 34  1  0
 34 37  1  0
 35 39  1  0
 36 31  1  0
 37 36  1  0
 38 30  1  0
 39 38  1  0
 40 32  1  0
 41 33  1  0
 42 46  1  0
 42 48  1  0
 43 46  2  0
 44 47  1  0
 45 50  1  0
 46 49  1  0
 47 48  1  0
 47 50  1  0
 49 51  1  0
 51 52  1  0
 52 53  1  0
 53 54  1  0
 54 55  1  0
 55 56  1  0
  3 57  1  0
  4 58  1  0
  6 59  1  6
  7 60  1  0
  7 61  1  0
  8 62  1  0
  8 63  1  0
  9 64  1  0
  9 65  1  0
 10 66  1  0
 10 67  1  0
 11 68  1  0
 11 69  1  0
 12 70  1  0
 12 71  1  0
 13 72  1  0
 13 73  1  0
 14 74  1  0
 14 75  1  0
 15 76  1  0
 15 77  1  0
 16 78  1  0
 16 79  1  0
 17 80  1  0
 17 81  1  0
 17 82  1  0
 24 83  1  6
 25 84  1  0
 25 85  1  0
 26 86  1  0
 27 87  1  0
 27 88  1  0
 28 89  1  0
 28 90  1  0
 29 91  1  0
 29 92  1  0
 30 93  1  0
 30 94  1  0
 31 95  1  0
 31 96  1  0
 32 97  1  0
 32 98  1  0
 33 99  1  0
 33100  1  0
 34101  1  0
 34102  1  0
 35103  1  0
 35104  1  0
 36105  1  0
 36106  1  0
 37107  1  0
 37108  1  0
 38109  1  0
 38110  1  0
 39111  1  0
 39112  1  0
 40113  1  0
 40114  1  0
 40115  1  0
 41116  1  0
 41117  1  0
 41118  1  0
 44119  1  0
 45120  1  0
 47121  1  6
 48122  1  0
 48123  1  0
 49124  1  0
 49125  1  0
 50126  1  0
 50127  1  0
 51128  1  0
 51129  1  0
 52130  1  0
 52131  1  0
 53132  1  0
 53133  1  0
 54134  1  0
 54135  1  0
 55136  1  0
 55137  1  0
 56138  1  0
 56139  1  0
 56140  1  0
M  END
> <Uni-Dock RESULT> 
ENERGY=   -4.962  LOWER_BOUND=    2.183  UPPER_BOUND=    2.665
INTER + INTRA:          -4.962
INTER:                  -4.962
INTRA:                   0.000
UNBOUND:                 0.000

$$$$

     RDKit          3D

140137  0  0  0  0  0  0  0  0999 V2000
   48.7441   15.2887   17.0226 O   0  0  0  0  0  0  0  0  0  0  0  0
   50.2585   13.6128   16.6276 O   0  0  0  0  0  0  0  0  0  0  0  0
   48.0600   16.3022   14.4649 O   0  0  0  0  0  0  0  0  0  0  0  0
   51.6668   17.0103   14.3611 O   0  0  0  0  0  0  0  0  0  0  0  0
   49.2294   14.0216   17.1423 C   0  0  0  0  0  0  0  0  0  0  0  0
   49.4351   16.1161   14.8179 C   0  0  2  0  0  0  0  0  0  0  0  0
   49.6023   16.2324   16.3396 C   0  0  0  0  0  0  0  0  0  0  0  0
   48.3171   13.2146   18.0404 C   0  0  0  0  0  0  0  0  0  0  0  0
   48.4360   11.7137   17.7739 C   0  0  0  0  0  0  0  0  0  0  0  0
   50.2805   17.1649   14.0862 C   0  0  0  0  0  0  0  0  0  0  0  0
   47.5105   10.8729   18.6620 C   0  0  0  0  0  0  0  0  0  0  0  0
   47.8643   10.8579   20.1544 C   0  0  0  0  0  0  0  0  0  0  0  0
   49.2645   10.3370   20.4987 C   0  0  0  0  0  0  0  0  0  0  0  0
   49.5541    8.9057   20.0423 C   0  0  0  0  0  0  0  0  0  0  0  0
   48.7774    7.8604   20.8458 C   0  0  0  0  0  0  0  0  0  0  0  0
   49.0768    6.4320   20.3884 C   0  0  0  0  0  0  0  0  0  0  0  0
   48.3524    6.0640   19.1038 C   0  0  0  0  0  0  0  0  0  0  0  0
   48.5959    9.1855   18.3268 C   0  0  0  0  0  0  0  0  0  0  0  0
   48.3202   13.4184   15.1963 C   0  0  0  0  0  0  0  0  0  0  0  0
   48.2140    9.8724   17.2193 O   0  0  0  0  0  0  0  0  0  0  0  0
   49.6564    8.5980   18.4572 O   0  0  0  0  0  0  0  0  0  0  0  0
   47.8247   13.3412   14.0814 O   0  0  0  0  0  0  0  0  0  0  0  0
   48.8030   12.3623   15.9124 O   0  0  0  0  0  0  0  0  0  0  0  0
   49.1954    9.9784   16.1586 C   0  0  2  0  0  0  0  0  0  0  0  0
   48.7302   11.1028   15.2212 C   0  0  0  0  0  0  0  0  0  0  0  0
   50.2712    8.7447   14.3491 O   0  0  0  0  0  0  0  0  0  0  0  0
   47.4835    9.2137   19.3513 C   0  0  0  0  0  0  0  0  0  0  0  0
   48.4522   14.6857   16.0055 C   0  0  0  0  0  0  0  0  0  0  0  0
   49.2993    8.6587   15.3835 C   0  0  0  0  0  0  0  0  0  0  0  0
   48.0149    8.9796   20.7663 C   0  0  0  0  0  0  0  0  0  0  0  0
   48.4918   15.9504   15.1450 C   0  0  0  0  0  0  0  0  0  0  0  0
   47.4402    6.4448   23.4854 C   0  0  0  0  0  0  0  0  0  0  0  0
   51.7957   18.2625   15.7061 C   0  0  0  0  0  0  0  0  0  0  0  0
   51.3879   16.8262   16.0461 C   0  0  0  0  0  0  0  0  0  0  0  0
   48.2113    7.7559   23.6372 C   0  0  0  0  0  0  0  0  0  0  0  0
   49.6979   16.0702   14.2032 C   0  0  0  0  0  0  0  0  0  0  0  0
   51.0796   15.9241   14.8457 C   0  0  0  0  0  0  0  0  0  0  0  0
   46.8926    9.0441   21.8033 C   0  0  0  0  0  0  0  0  0  0  0  0
   47.3942    8.9921   23.2505 C   0  0  0  0  0  0  0  0  0  0  0  0
   48.2598    5.2590   23.9786 C   0  0  0  0  0  0  0  0  0  0  0  0
   50.6400   19.1831   15.3477 C   0  0  0  0  0  0  0  0  0  0  0  0
   48.2281    8.5287   18.3540 O   0  0  0  0  0  0  0  0  0  0  0  0
   50.1789    9.6881   18.6995 O   0  0  0  0  0  0  0  0  0  0  0  0
   47.0205    6.8842   20.5295 O   0  0  0  0  0  0  0  0  0  0  0  0
   48.2604    8.1693   22.6280 O   0  0  0  0  0  0  0  0  0  0  0  0
   49.0376    9.6218   18.2599 C   0  0  0  0  0  0  0  0  0  0  0  0
   48.4165    7.2133   20.4360 C   0  0  1  0  0  0  0  0  0  0  0  0
   48.8135    7.3624   18.9648 C   0  0  0  0  0  0  0  0  0  0  0  0
   48.3017   10.7394   17.5545 C   0  0  0  0  0  0  0  0  0  0  0  0
   48.6649    8.4593   21.2864 C   0  0  0  0  0  0  0  0  0  0  0  0
   49.2112   11.9472   17.3414 C   0  0  0  0  0  0  0  0  0  0  0  0
   48.4835   13.0970   16.6412 C   0  0  0  0  0  0  0  0  0  0  0  0
   49.3916   14.3226   16.5197 C   0  0  0  0  0  0  0  0  0  0  0  0
   48.6781   15.4852   15.8261 C   0  0  0  0  0  0  0  0  0  0  0  0
   49.5683   16.7214   15.6660 C   0  0  0  0  0  0  0  0  0  0  0  0
   49.9368   17.3804   16.9874 C   0  0  0  0  0  0  0  0  0  0  0  0
   47.5390   15.7512   15.0765 H   0  0  0  0  0  0  0  0  0  0  0  0
   51.9791   16.2513   13.8392 H   0  0  0  0  0  0  0  0  0  0  0  0
   49.7262   15.1117   14.4867 H   0  0  0  0  0  0  0  0  0  0  0  0
   50.6416   16.0983   16.6590 H   0  0  0  0  0  0  0  0  0  0  0  0
   49.2752   17.2246   16.6761 H   0  0  0  0  0  0  0  0  0  0  0  0
   47.2809   13.5249   17.8547 H   0  0  0  0  0  0  0  0  0  0  0  0
   48.5748   13.4576   19.0771 H   0  0  0  0  0  0  0  0  0  0  0  0
   49.4748   11.3837   17.8834 H   0  0  0  0  0  0  0  0  0  0  0  0
   48.1701   11.5244   16.7245 H   0  0  0  0  0  0  0  0  0  0  0  0
   50.1204   17.1043   13.0037 H   0  0  0  0  0  0  0  0  0  0  0  0
   49.9766   18.1743   14.3895 H   0  0  0  0  0  0  0  0  0  0  0  0
   47.4937    9.8469   18.2810 H   0  0  0  0  0  0  0  0  0  0  0  0
   46.4827   11.2447   18.5544 H   0  0  0  0  0  0  0  0  0  0  0  0
   47.1163   10.2569   20.6821 H   0  0  0  0  0  0  0  0  0  0  0  0
   47.7638   11.8715   20.5595 H   0  0  0  0  0  0  0  0  0  0  0  0
   50.0164   11.0105   20.0670 H   0  0  0  0  0  0  0  0  0  0  0  0
   49.4025   10.4004   21.5862 H   0  0  0  0  0  0  0  0  0  0  0  0
   49.3614    8.8007   18.9720 H   0  0  0  0  0  0  0  0  0  0  0  0
   50.6277    8.7182   20.1831 H   0  0  0  0  0  0  0  0  0  0  0  0
   49.0756    7.9433   21.8992 H   0  0  0  0  0  0  0  0  0  0  0  0
   47.7027    8.0478   20.8013 H   0  0  0  0  0  0  0  0  0  0  0  0
   50.1556    6.2909   20.2519 H   0  0  0  0  0  0  0  0  0  0  0  0
   48.7624    5.7328   21.1745 H   0  0  0  0  0  0  0  0  0  0  0  0
   48.5382    5.0148   18.8507 H   0  0  0  0  0  0  0  0  0  0  0  0
   47.2698    6.1902   19.2231 H   0  0  0  0  0  0  0  0  0  0  0  0
   48.6808    6.6792   18.2615 H   0  0  0  0  0  0  0  0  0  0  0  0
   50.1620   10.2671   16.5857 H   0  0  0  0  0  0  0  0  0  0  0  0
   47.6911   10.9256   14.9186 H   0  0  0  0  0  0  0  0  0  0  0  0
   49.3704   11.1608   14.3348 H   0  0  0  0  0  0  0  0  0  0  0  0
   49.8153    8.6259   13.4945 H   0  0  0  0  0  0  0  0  0  0  0  0
   46.9978   10.1950   19.3081 H   0  0  0  0  0  0  0  0  0  0  0  0
   46.7534    8.4471   19.0775 H   0  0  0  0  0  0  0  0  0  0  0  0
   47.5849   14.7357   16.6727 H   0  0  0  0  0  0  0  0  0  0  0  0
   49.3472   14.6301   16.6310 H   0  0  0  0  0  0  0  0  0  0  0  0
   49.5892    7.8313   16.0403 H   0  0  0  0  0  0  0  0  0  0  0  0
   48.3292    8.3833   14.9514 H   0  0  0  0  0  0  0  0  0  0  0  0
   48.7788    9.7320   20.9975 H   0  0  0  0  0  0  0  0  0  0  0  0
   48.5086    8.0014   20.8112 H   0  0  0  0  0  0  0  0  0  0  0  0
   47.5807   16.0003   14.5314 H   0  0  0  0  0  0  0  0  0  0  0  0
   48.4595   16.8272   15.8028 H   0  0  0  0  0  0  0  0  0  0  0  0
   46.5040    6.4958   24.0554 H   0  0  0  0  0  0  0  0  0  0  0  0
   47.1775    6.2780   22.4337 H   0  0  0  0  0  0  0  0  0  0  0  0
   52.2905   18.6849   16.5910 H   0  0  0  0  0  0  0  0  0  0  0  0
   52.5402   18.2700   14.9003 H   0  0  0  0  0  0  0  0  0  0  0  0
   52.2420   16.3757   16.5674 H   0  0  0  0  0  0  0  0  0  0  0  0
   50.5653   16.8241   16.7704 H   0  0  0  0  0  0  0  0  0  0  0  0
   49.1356    7.7147   23.0484 H   0  0  0  0  0  0  0  0  0  0  0  0
   48.5215    7.8704   24.6846 H   0  0  0  0  0  0  0  0  0  0  0  0
   49.6363   17.0261   13.6725 H   0  0  0  0  0  0  0  0  0  0  0  0
   49.6134   15.3030   13.4195 H   0  0  0  0  0  0  0  0  0  0  0  0
   51.1952   14.8826   15.1719 H   0  0  0  0  0  0  0  0  0  0  0  0
   51.8453   16.0749   14.0729 H   0  0  0  0  0  0  0  0  0  0  0  0
   46.1705    8.2404   21.6237 H   0  0  0  0  0  0  0  0  0  0  0  0
   46.3403    9.9841   21.6756 H   0  0  0  0  0  0  0  0  0  0  0  0
   46.5303    9.0694   23.9204 H   0  0  0  0  0  0  0  0  0  0  0  0
   48.0112    9.8804   23.4381 H   0  0  0  0  0  0  0  0  0  0  0  0
   49.1840    5.1537   23.4007 H   0  0  0  0  0  0  0  0  0  0  0  0
   47.6832    4.3342   23.8693 H   0  0  0  0  0  0  0  0  0  0  0  0
   48.5232    5.3737   25.0346 H   0  0  0  0  0  0  0  0  0  0  0  0
   50.2447   18.9674   14.3523 H   0  0  0  0  0  0  0  0  0  0  0  0
   50.9850   20.2251   15.3396 H   0  0  0  0  0  0  0  0  0  0  0  0
   49.8251   19.1035   16.0776 H   0  0  0  0  0  0  0  0  0  0  0  0
   46.8215    6.9200   21.4875 H   0  0  0  0  0  0  0  0  0  0  0  0
   48.2458    9.0197   23.1082 H   0  0  0  0  0  0  0  0  0  0  0  0
   48.9529    6.3609   20.8653 H   0  0  0  0  0  0  0  0  0  0  0  0
   48.4365    6.5058   18.3936 H   0  0  0  0  0  0  0  0  0  0  0  0
   49.9034    7.3608   18.8600 H   0  0  0  0  0  0  0  0  0  0  0  0
   47.9434   10.3659   16.5898 H   0  0  0  0  0  0  0  0  0  0  0  0
   47.4417   11.0173   18.1736 H   0  0  0  0  0  0  0  0  0  0  0  0
   49.7223    8.7394   21.2919 H   0  0  0  0  0  0  0  0  0  0  0  0
   48.0558    9.2995   20.9418 H   0  0  0  0  0  0  0  0  0  0  0  0
   49.5960   12.2902   18.3103 H   0  0  0  0  0  0  0  0  0  0  0  0
   50.0827   11.6497   16.7467 H   0  0  0  0  0  0  0  0  0  0  0  0
   47.5812   13.3635   17.2065 H   0  0  0  0  0  0  0  0  0  0  0  0
   48.1622   12.7730   15.6434 H   0  0  0  0  0  0  0  0  0  0  0  0
   49.7157   14.6275   17.5221 H   0  0  0  0  0  0  0  0  0  0  0  0
   50.2949   14.0587   15.9542 H   0  0  0  0  0  0  0  0  0  0  0  0
   48.3532   15.1607   14.8290 H   0  0  0  0  0  0  0  0  0  0  0  0
   47.7700   15.7554   16.3833 H   0  0  0  0  0  0  0  0  0  0  0  0
   50.4841   16.4532   15.1250 H   0  0  0  0  0  0  0  0  0  0  0  0
   49.0375   17.4569   15.0472 H   0  0  0  0  0  0  0  0  0  0  0  0
   50.4868   18.3098   16.8028 H   0  0  0  0  0  0  0  0  0  0  0  0
   49.0401   17.6263   17.5688 H   0  0  0  0  0  0  0  0  0  0  0  0
   50.5771   16.7330   17.5951 H   0  0  0  0  0  0  0  0  0  0  0  0
  1  5  1  0
  1  7  1  0
  2  5  2  0
  3  6  1  0
  4 10  1  0
  5  8  1  0
  6  7  1  0
  6 10  1  0
  8  9  1  0
  9 11  1  0
 11 12  1  0
 12 13  1  0
 13 14  1  0
 14 15  1  0
 15 16  1  0
 16 17  1  0
 19 23  1  0
 20 18  1  0
 21 18  2  0
 22 19  2  0
 23 25  1  0
 24 20  1  0
 25 24  1  0
 26 29  1  0
 27 18  1  0
 28 19  1  0
 29 24  1  0
 30 27  1  0
 31 28  1  0
 32 35  1  0
 33 34  1  0
 34 37  1  0
 35 39  1  0
 36 31  1  0
 37 36  1  0
 38 30  1  0
 39 38  1  0
 40 32  1  0
 41 33  1  0
 42 46  1  0
 42 48  1  0
 43 46  2  0
 44 47  1  0
 45 50  1  0
 46 49  1  0
 47 48  1  0
 47 50  1  0
 49 51  1  0
 51 52  1  0
 52 53  1  0
 53 54  1  0
 54 55  1  0
 55 56  1  0
  3 57  1  0
  4 58  1  0
  6 59  1  6
  7 60  1  0
  7 61  1  0
  8 62  1  0
  8 63  1  0
  9 64  1  0
  9 65  1  0
 10 66  1  0
 10 67  1  0
 11 68  1  0
 11 69  1  0
 12 70  1  0
 12 71  1  0
 13 72  1  0
 13 73  1  0
 14 74  1  0
 14 75  1  0
 15 76  1  0
 15 77  1  0
 16 78  1  0
 16 79  1  0
 17 80  1  0
 17 81  1  0
 17 82  1  0
 24 83  1  6
 25 84  1  0
 25 85  1  0
 26 86  1  0
 27 87  1  0
 27 88  1  0
 28 89  1  0
 28 90  1  0
 29 91  1  0
 29 92  1  0
 30 93  1  0
 30 94  1  0
 31 95  1  0
 31 96  1  0
 32 97  1  0
 32 98  1  0
 33 99  1  0
 33100  1  0
 34101  1  0
 34102  1  0
 35103  1  0
 35104  1  0
 36105  1  0
 36106  1  0
 37107  1  0
 37108  1  0
 38109  1  0
 38110  1  0
 39111  1  0
 39112  1  0
 40113  1  0
 40114  1  0
 40115  1  0
 41116  1  0
 41117  1  0
 41118  1  0
 44119  1  0
 45120  1  0
 47121  1  6
 48122  1  0
 48123  1  0
 49124  1  0
 49125  1  0
 50126  1  0
 50127  1  0
 51128  1  0
 51129  1  0
 52130  1  0
 52131  1  0
 53132  1  0
 53133  1  0
 54134  1  0
 54135  1  0
 55136  1  0
 55137  1  0
 56138  1  0
 56139  1  0
 56140  1  0
M  END
> <Uni-Dock RESULT> 
ENERGY=   -4.645  LOWER_BOUND=    1.921  UPPER_BOUND=    3.726
INTER + INTRA:          -4.645
INTER:                  -4.645
INTRA:                   0.000
UNBOUND:                 0.000

$$$$

     RDKit          3D

140137  0  0  0  0  0  0  0  0999 V2000
   47.7848    7.3854   17.6276 O   0  0  0  0  0  0  0  0  0  0  0  0
   49.7773    8.1787   18.4393 O   0  0  0  0  0  0  0  0  0  0  0  0
   46.7016    5.7990   19.7126 O   0  0  0  0  0  0  0  0  0  0  0  0
   49.8236    3.9259   19.1974 O   0  0  0  0  0  0  0  0  0  0  0  0
   48.6883    8.3624   17.9184 C   0  0  0  0  0  0  0  0  0  0  0  0
   48.0656    5.6242   19.3134 C   0  0  2  0  0  0  0  0  0  0  0  0
   48.2328    6.0263   17.8413 C   0  0  0  0  0  0  0  0  0  0  0  0
   48.1489    9.7006   17.4617 C   0  0  0  0  0  0  0  0  0  0  0  0
   48.7786   10.8622   18.2311 C   0  0  0  0  0  0  0  0  0  0  0  0
   48.4630    4.1604   19.5362 C   0  0  0  0  0  0  0  0  0  0  0  0
   48.2385   12.2305   17.7971 C   0  0  0  0  0  0  0  0  0  0  0  0
   48.6255   12.6723   16.3800 C   0  0  0  0  0  0  0  0  0  0  0  0
   50.1302   12.7758   16.1056 C   0  0  0  0  0  0  0  0  0  0  0  0
   50.8888   13.7495   17.0097 C   0  0  0  0  0  0  0  0  0  0  0  0
   50.5568   15.2133   16.7121 C   0  0  0  0  0  0  0  0  0  0  0  0
   51.3234   16.1808   17.6151 C   0  0  0  0  0  0  0  0  0  0  0  0
   50.7313   16.2726   19.0120 C   0  0  0  0  0  0  0  0  0  0  0  0
   49.8356   13.2010   18.6001 C   0  0  0  0  0  0  0  0  0  0  0  0
   47.9835    8.4773   20.0321 C   0  0  0  0  0  0  0  0  0  0  0  0
   49.1993   12.3282   19.4232 O   0  0  0  0  0  0  0  0  0  0  0  0
   51.0387   13.3985   18.5820 O   0  0  0  0  0  0  0  0  0  0  0  0
   47.5091    8.3021   21.1450 O   0  0  0  0  0  0  0  0  0  0  0  0
   48.8307    9.4918   19.6938 O   0  0  0  0  0  0  0  0  0  0  0  0
   50.0440   11.5140   20.2734 C   0  0  2  0  0  0  0  0  0  0  0  0
   49.1818   10.3531   20.7912 C   0  0  0  0  0  0  0  0  0  0  0  0
   51.4227   11.5528   22.2863 O   0  0  0  0  0  0  0  0  0  0  0  0
   48.8197   13.9300   17.7490 C   0  0  0  0  0  0  0  0  0  0  0  0
   47.6891    7.6325   18.8163 C   0  0  0  0  0  0  0  0  0  0  0  0
   50.5788   12.3368   21.4525 C   0  0  0  0  0  0  0  0  0  0  0  0
   49.4473   14.4730   16.4641 C   0  0  0  0  0  0  0  0  0  0  0  0
   47.2523    6.2075   19.1624 C   0  0  0  0  0  0  0  0  0  0  0  0
   49.8930   17.8628   14.8957 C   0  0  0  0  0  0  0  0  0  0  0  0
   49.5499    3.2922   17.4894 C   0  0  0  0  0  0  0  0  0  0  0  0
   49.6847    4.7993   17.7247 C   0  0  0  0  0  0  0  0  0  0  0  0
   50.1587   16.5219   14.2115 C   0  0  0  0  0  0  0  0  0  0  0  0
   48.3067    5.3489   19.8748 C   0  0  0  0  0  0  0  0  0  0  0  0
   49.6725    5.2437   19.1917 C   0  0  0  0  0  0  0  0  0  0  0  0
   48.4099   15.1786   15.5895 C   0  0  0  0  0  0  0  0  0  0  0  0
   48.9467   15.5858   14.2130 C   0  0  0  0  0  0  0  0  0  0  0  0
   51.0933   18.7935   14.7771 C   0  0  0  0  0  0  0  0  0  0  0  0
   48.1329    2.7546   17.6105 C   0  0  0  0  0  0  0  0  0  0  0  0
   49.7233   13.9044   18.8450 O   0  0  0  0  0  0  0  0  0  0  0  0
   51.1526   12.3666   17.9171 O   0  0  0  0  0  0  0  0  0  0  0  0
   49.2453   16.5376   17.5283 O   0  0  0  0  0  0  0  0  0  0  0  0
   50.0251   15.7761   14.9976 O   0  0  0  0  0  0  0  0  0  0  0  0
   50.0932   12.6489   18.4631 C   0  0  0  0  0  0  0  0  0  0  0  0
   50.4326   15.7453   17.3589 C   0  0  1  0  0  0  0  0  0  0  0  0
   50.7017   14.9408   18.6336 C   0  0  0  0  0  0  0  0  0  0  0  0
   48.9880   11.6709   18.7948 C   0  0  0  0  0  0  0  0  0  0  0  0
   50.2560   14.8947   16.1009 C   0  0  0  0  0  0  0  0  0  0  0  0
   49.4071   10.2384   18.4726 C   0  0  0  0  0  0  0  0  0  0  0  0
   48.2984    9.2317   18.7873 C   0  0  0  0  0  0  0  0  0  0  0  0
   48.7130    7.8179   18.3738 C   0  0  0  0  0  0  0  0  0  0  0  0
   47.6133    6.7977   18.6763 C   0  0  0  0  0  0  0  0  0  0  0  0
   48.0063    5.3666   18.2968 C   0  0  0  0  0  0  0  0  0  0  0  0
   48.1643    5.1570   16.7977 C   0  0  0  0  0  0  0  0  0  0  0  0
   46.4287    6.6775   19.3920 H   0  0  0  0  0  0  0  0  0  0  0  0
   50.3648    4.2855   19.9210 H   0  0  0  0  0  0  0  0  0  0  0  0
   48.6797    6.2737   19.9492 H   0  0  0  0  0  0  0  0  0  0  0  0
   49.2632    5.9078   17.4883 H   0  0  0  0  0  0  0  0  0  0  0  0
   47.5895    5.4015   17.2084 H   0  0  0  0  0  0  0  0  0  0  0  0
   47.0641    9.7145   17.6273 H   0  0  0  0  0  0  0  0  0  0  0  0
   48.3398    9.7840   16.3862 H   0  0  0  0  0  0  0  0  0  0  0  0
   49.8702   10.8364   18.1430 H   0  0  0  0  0  0  0  0  0  0  0  0
   48.5607   10.7304   19.3002 H   0  0  0  0  0  0  0  0  0  0  0  0
   48.2978    3.8692   20.5797 H   0  0  0  0  0  0  0  0  0  0  0  0
   47.8342    3.5007   18.9258 H   0  0  0  0  0  0  0  0  0  0  0  0
   48.5704   12.9846   18.5175 H   0  0  0  0  0  0  0  0  0  0  0  0
   47.1425   12.2170   17.8674 H   0  0  0  0  0  0  0  0  0  0  0  0
   48.1548   13.6402   16.1780 H   0  0  0  0  0  0  0  0  0  0  0  0
   48.1889   11.9775   15.6533 H   0  0  0  0  0  0  0  0  0  0  0  0
   50.5823   11.7790   16.1923 H   0  0  0  0  0  0  0  0  0  0  0  0
   50.2741   13.0740   15.0586 H   0  0  0  0  0  0  0  0  0  0  0  0
   50.7089   13.5122   18.0609 H   0  0  0  0  0  0  0  0  0  0  0  0
   51.9638   13.6000   16.8384 H   0  0  0  0  0  0  0  0  0  0  0  0
   50.8424   15.4278   15.6739 H   0  0  0  0  0  0  0  0  0  0  0  0
   49.4839   15.3987   16.7940 H   0  0  0  0  0  0  0  0  0  0  0  0
   52.3777   15.8874   17.6845 H   0  0  0  0  0  0  0  0  0  0  0  0
   51.3017   17.1819   17.1645 H   0  0  0  0  0  0  0  0  0  0  0  0
   51.2653   17.0253   19.6017 H   0  0  0  0  0  0  0  0  0  0  0  0
   49.6781   16.5738   18.9643 H   0  0  0  0  0  0  0  0  0  0  0  0
   50.7937   15.3189   19.5433 H   0  0  0  0  0  0  0  0  0  0  0  0
   50.8615   11.0936   19.6773 H   0  0  0  0  0  0  0  0  0  0  0  0
   48.2616   10.7472   21.2391 H   0  0  0  0  0  0  0  0  0  0  0  0
   49.7302    9.7601   21.5305 H   0  0  0  0  0  0  0  0  0  0  0  0
   51.0089   11.4959   23.1682 H   0  0  0  0  0  0  0  0  0  0  0  0
   48.0190   13.2288   17.4887 H   0  0  0  0  0  0  0  0  0  0  0  0
   48.3968   14.7406   18.3488 H   0  0  0  0  0  0  0  0  0  0  0  0
   46.8828    8.1283   18.2651 H   0  0  0  0  0  0  0  0  0  0  0  0
   48.5672    7.6075   18.1655 H   0  0  0  0  0  0  0  0  0  0  0  0
   51.1631   13.1967   21.1074 H   0  0  0  0  0  0  0  0  0  0  0  0
   49.7533   12.7450   22.0488 H   0  0  0  0  0  0  0  0  0  0  0  0
   49.9054   13.6476   15.9056 H   0  0  0  0  0  0  0  0  0  0  0  0
   50.2545   15.1695   16.7209 H   0  0  0  0  0  0  0  0  0  0  0  0
   46.3616    6.2472   19.8059 H   0  0  0  0  0  0  0  0  0  0  0  0
   46.9363    5.7009   18.2427 H   0  0  0  0  0  0  0  0  0  0  0  0
   49.0186   18.3453   14.4413 H   0  0  0  0  0  0  0  0  0  0  0  0
   49.6700   17.7096   15.9586 H   0  0  0  0  0  0  0  0  0  0  0  0
   49.8945    3.0841   16.4675 H   0  0  0  0  0  0  0  0  0  0  0  0
   50.2165    2.7373   18.1613 H   0  0  0  0  0  0  0  0  0  0  0  0
   50.6599    5.0918   17.3152 H   0  0  0  0  0  0  0  0  0  0  0  0
   48.9405    5.3461   17.1345 H   0  0  0  0  0  0  0  0  0  0  0  0
   51.0180   16.0280   14.6812 H   0  0  0  0  0  0  0  0  0  0  0  0
   50.4443   16.7028   13.1665 H   0  0  0  0  0  0  0  0  0  0  0  0
   47.8950    4.3468   20.0343 H   0  0  0  0  0  0  0  0  0  0  0  0
   48.4707    5.7538   20.8843 H   0  0  0  0  0  0  0  0  0  0  0  0
   50.1578    6.2265   19.2474 H   0  0  0  0  0  0  0  0  0  0  0  0
   50.3096    4.5696   19.7799 H   0  0  0  0  0  0  0  0  0  0  0  0
   48.0106   16.0533   16.1141 H   0  0  0  0  0  0  0  0  0  0  0  0
   47.5584   14.5046   15.4291 H   0  0  0  0  0  0  0  0  0  0  0  0
   48.1340   16.0578   13.6491 H   0  0  0  0  0  0  0  0  0  0  0  0
   49.2181   14.6765   13.6613 H   0  0  0  0  0  0  0  0  0  0  0  0
   51.9754   18.3592   15.2593 H   0  0  0  0  0  0  0  0  0  0  0  0
   50.8752   19.7495   15.2650 H   0  0  0  0  0  0  0  0  0  0  0  0
   51.3354   18.9932   13.7287 H   0  0  0  0  0  0  0  0  0  0  0  0
   47.8050    2.7093   18.6517 H   0  0  0  0  0  0  0  0  0  0  0  0
   48.0892    1.7323   17.2131 H   0  0  0  0  0  0  0  0  0  0  0  0
   47.4232    3.3680   17.0418 H   0  0  0  0  0  0  0  0  0  0  0  0
   49.0792   16.9262   16.6452 H   0  0  0  0  0  0  0  0  0  0  0  0
   49.7289   15.2211   14.2504 H   0  0  0  0  0  0  0  0  0  0  0  0
   51.2487   16.4597   17.2096 H   0  0  0  0  0  0  0  0  0  0  0  0
   50.6305   15.6004   19.5066 H   0  0  0  0  0  0  0  0  0  0  0  0
   51.7183   14.5345   18.6228 H   0  0  0  0  0  0  0  0  0  0  0  0
   48.7512   11.7610   19.8598 H   0  0  0  0  0  0  0  0  0  0  0  0
   48.1067   11.9491   18.2064 H   0  0  0  0  0  0  0  0  0  0  0  0
   51.1471   14.2960   15.8907 H   0  0  0  0  0  0  0  0  0  0  0  0
   49.3791   14.2466   16.1832 H   0  0  0  0  0  0  0  0  0  0  0  0
   49.6795   10.1673   17.4118 H   0  0  0  0  0  0  0  0  0  0  0  0
   50.3068    9.9822   19.0442 H   0  0  0  0  0  0  0  0  0  0  0  0
   47.3797    9.5143   18.2571 H   0  0  0  0  0  0  0  0  0  0  0  0
   48.0777    9.2542   19.8618 H   0  0  0  0  0  0  0  0  0  0  0  0
   48.9432    7.8126   17.3015 H   0  0  0  0  0  0  0  0  0  0  0  0
   49.6317    7.5325   18.9030 H   0  0  0  0  0  0  0  0  0  0  0  0
   47.3895    6.8221   19.7507 H   0  0  0  0  0  0  0  0  0  0  0  0
   46.6877    7.0761   18.1531 H   0  0  0  0  0  0  0  0  0  0  0  0
   48.9389    5.0898   18.8035 H   0  0  0  0  0  0  0  0  0  0  0  0
   47.2301    4.6820   18.6633 H   0  0  0  0  0  0  0  0  0  0  0  0
   48.3459    4.0978   16.5840 H   0  0  0  0  0  0  0  0  0  0  0  0
   47.2588    5.4615   16.2595 H   0  0  0  0  0  0  0  0  0  0  0  0
   49.0116    5.7242   16.3992 H   0  0  0  0  0  0  0  0  0  0  0  0
  1  5  1  0
  1  7  1  0
  2  5  2  0
  3  6  1  0
  4 10  1  0
  5  8  1  0
  6  7  1  0
  6 10  1  0
  8  9  1  0
  9 11  1  0
 11 12  1  0
 12 13  1  0
 13 14  1  0
 14 15  1  0
 15 16  1  0
 16 17  1  0
 19 23  1  0
 20 18  1  0
 21 18  2  0
 22 19  2  0
 23 25  1  0
 24 20  1  0
 25 24  1  0
 26 29  1  0
 27 18  1  0
 28 19  1  0
 29 24  1  0
 30 27  1  0
 31 28  1  0
 32 35  1  0
 33 34  1  0
 34 37  1  0
 35 39  1  0
 36 31  1  0
 37 36  1  0
 38 30  1  0
 39 38  1  0
 40 32  1  0
 41 33  1  0
 42 46  1  0
 42 48  1  0
 43 46  2  0
 44 47  1  0
 45 50  1  0
 46 49  1  0
 47 48  1  0
 47 50  1  0
 49 51  1  0
 51 52  1  0
 52 53  1  0
 53 54  1  0
 54 55  1  0
 55 56  1  0
  3 57  1  0
  4 58  1  0
  6 59  1  6
  7 60  1  0
  7 61  1  0
  8 62  1  0
  8 63  1  0
  9 64  1  0
  9 65  1  0
 10 66  1  0
 10 67  1  0
 11 68  1  0
 11 69  1  0
 12 70  1  0
 12 71  1  0
 13 72  1  0
 13 73  1  0
 14 74  1  0
 14 75  1  0
 15 76  1  0
 15 77  1  0
 16 78  1  0
 16 79  1  0
 17 80  1  0
 17 81  1  0
 17 82  1  0
 24 83  1  6
 25 84  1  0
 25 85  1  0
 26 86  1  0
 27 87  1  0
 27 88  1  0
 28 89  1  0
 28 90  1  0
 29 91  1  0
 29 92  1  0
 30 93  1  0
 30 94  1  0
 31 95  1  0
 31 96  1  0
 32 97  1  0
 32 98  1  0
 33 99  1  0
 33100  1  0
 34101  1  0
 34102  1  0
 35103  1  0
 35104  1  0
 36105  1  0
 36106  1  0
 37107  1  0
 37108  1  0
 38109  1  0
 38110  1  0
 39111  1  0
 39112  1  0
 40113  1  0
 40114  1  0
 40115  1  0
 41116  1  0
 41117  1  0
 41118  1  0
 44119  1  0
 45120  1  0
 47121  1  6
 48122  1  0
 48123  1  0
 49124  1  0
 49125  1  0
 50126  1  0
 50127  1  0
 51128  1  0
 51129  1  0
 52130  1  0
 52131  1  0
 53132  1  0
 53133  1  0
 54134  1  0
 54135  1  0
 55136  1  0
 55137  1  0
 56138  1  0
 56139  1  0
 56140  1  0
M  END
> <Uni-Dock RESULT> 
ENERGY=   -4.608  LOWER_BOUND=    2.138  UPPER_BOUND=    8.697
INTER + INTRA:          -4.608
INTER:                  -4.608
INTRA:                   0.000
UNBOUND:                 0.000

$$$$
