
     RDKit          3D

140137  0  0  0  0  0  0  0  0999 V2000
   52.1254   11.5449   12.6720 O   0  0  0  0  0  0  0  0  0  0  0  0
   52.6959    9.4697   11.8503 O   0  0  0  0  0  0  0  0  0  0  0  0
   54.5693   12.9962   12.1527 O   0  0  0  0  0  0  0  0  0  0  0  0
   52.7155   14.0535   15.1416 O   0  0  0  0  0  0  0  0  0  0  0  0
   51.9828   10.4647   11.8587 C   0  0  0  0  0  0  0  0  0  0  0  0
   54.0174   12.8618   13.4684 C   0  0  2  0  0  0  0  0  0  0  0  0
   53.2526   11.5337   13.5690 C   0  0  0  0  0  0  0  0  0  0  0  0
   50.8076   10.6573   10.9340 C   0  0  0  0  0  0  0  0  0  0  0  0
   49.4757   10.7718   11.6713 C   0  0  0  0  0  0  0  0  0  0  0  0
   53.1334   14.0745   13.7820 C   0  0  0  0  0  0  0  0  0  0  0  0
   49.1091    9.5693   12.5476 C   0  0  0  0  0  0  0  0  0  0  0  0
   48.9339    8.2705   11.7573 C   0  0  0  0  0  0  0  0  0  0  0  0
   48.5522    7.0729   12.6355 C   0  0  0  0  0  0  0  0  0  0  0  0
   47.2143    7.1850   13.3735 C   0  0  0  0  0  0  0  0  0  0  0  0
   45.9879    7.4289   12.4881 C   0  0  0  0  0  0  0  0  0  0  0  0
   45.7461    6.3824   11.3973 C   0  0  0  0  0  0  0  0  0  0  0  0
   45.5313    4.9777   11.9392 C   0  0  0  0  0  0  0  0  0  0  0  0
   47.7281    8.4709   13.6423 C   0  0  0  0  0  0  0  0  0  0  0  0
   50.5277   12.2564   12.6429 C   0  0  0  0  0  0  0  0  0  0  0  0
   49.0301    8.4041   13.2523 O   0  0  0  0  0  0  0  0  0  0  0  0
   47.3247    8.9741   14.6809 O   0  0  0  0  0  0  0  0  0  0  0  0
   50.2568   13.0884   13.4976 O   0  0  0  0  0  0  0  0  0  0  0  0
   50.4298   10.9077   12.7933 O   0  0  0  0  0  0  0  0  0  0  0  0
   49.9922    8.9545   14.1814 C   0  0  2  0  0  0  0  0  0  0  0  0
   50.0159   10.4895   14.1075 C   0  0  0  0  0  0  0  0  0  0  0  0
   52.3556    8.7631   14.7490 O   0  0  0  0  0  0  0  0  0  0  0  0
   46.8385    7.8134   12.6194 C   0  0  0  0  0  0  0  0  0  0  0  0
   51.0403   12.6000   11.2688 C   0  0  0  0  0  0  0  0  0  0  0  0
   51.3533    8.3404   13.8339 C   0  0  0  0  0  0  0  0  0  0  0  0
   46.8531    6.2994   12.7961 C   0  0  0  0  0  0  0  0  0  0  0  0
   52.5088   12.2248   11.0823 C   0  0  0  0  0  0  0  0  0  0  0  0
   43.8132    3.5617   10.7537 C   0  0  0  0  0  0  0  0  0  0  0  0
   55.9307   14.6526   12.8383 C   0  0  0  0  0  0  0  0  0  0  0  0
   54.4708   15.0954   12.9277 C   0  0  0  0  0  0  0  0  0  0  0  0
   43.6621    5.0810   10.8531 C   0  0  0  0  0  0  0  0  0  0  0  0
   53.4794   12.8956   12.0647 C   0  0  0  0  0  0  0  0  0  0  0  0
   53.5554   14.4157   11.9035 C   0  0  0  0  0  0  0  0  0  0  0  0
   46.0128    5.5561   11.7541 C   0  0  0  0  0  0  0  0  0  0  0  0
   44.5072    5.7684   11.9311 C   0  0  0  0  0  0  0  0  0  0  0  0
   43.4462    2.8296   12.0336 C   0  0  0  0  0  0  0  0  0  0  0  0
   56.8207   15.4746   13.7593 C   0  0  0  0  0  0  0  0  0  0  0  0
   51.5764   10.8666   12.5190 O   0  0  0  0  0  0  0  0  0  0  0  0
   53.2667    9.7401   13.5716 O   0  0  0  0  0  0  0  0  0  0  0  0
   51.6047   13.6424   13.2793 O   0  0  0  0  0  0  0  0  0  0  0  0
   53.4799   14.5550   11.4377 O   0  0  0  0  0  0  0  0  0  0  0  0
   52.0862    9.8518   13.2680 C   0  0  0  0  0  0  0  0  0  0  0  0
   52.8132   12.8879   13.0609 C   0  0  1  0  0  0  0  0  0  0  0  0
   52.5430   11.8091   12.0060 C   0  0  0  0  0  0  0  0  0  0  0  0
   51.0061    8.9176   13.7631 C   0  0  0  0  0  0  0  0  0  0  0  0
   53.8996   13.8632   12.6134 C   0  0  0  0  0  0  0  0  0  0  0  0
   49.8559    8.7352   12.7732 C   0  0  0  0  0  0  0  0  0  0  0  0
   48.8732    7.6631   13.2444 C   0  0  0  0  0  0  0  0  0  0  0  0
   47.7038    7.5226   12.2670 C   0  0  0  0  0  0  0  0  0  0  0  0
   46.7373    6.4229   12.7110 C   0  0  0  0  0  0  0  0  0  0  0  0
   45.5803    6.2072   11.7322 C   0  0  0  0  0  0  0  0  0  0  0  0
   44.6284    7.3916   11.6527 C   0  0  0  0  0  0  0  0  0  0  0  0
   55.2146   13.7233   12.1829 H   0  0  0  0  0  0  0  0  0  0  0  0
   52.1165   14.8106   15.2651 H   0  0  0  0  0  0  0  0  0  0  0  0
   54.8512   12.8212   14.1790 H   0  0  0  0  0  0  0  0  0  0  0  0
   53.9409   10.7102   13.3440 H   0  0  0  0  0  0  0  0  0  0  0  0
   52.8644   11.3885   14.5832 H   0  0  0  0  0  0  0  0  0  0  0  0
   50.7888    9.8270   10.2205 H   0  0  0  0  0  0  0  0  0  0  0  0
   50.9918   11.5628   10.3432 H   0  0  0  0  0  0  0  0  0  0  0  0
   49.4911   11.6646   12.3094 H   0  0  0  0  0  0  0  0  0  0  0  0
   48.6796   10.9332   10.9341 H   0  0  0  0  0  0  0  0  0  0  0  0
   53.6938   14.9999   13.6078 H   0  0  0  0  0  0  0  0  0  0  0  0
   52.2512   14.1056   13.1318 H   0  0  0  0  0  0  0  0  0  0  0  0
   48.1734    9.8123   13.0639 H   0  0  0  0  0  0  0  0  0  0  0  0
   49.8672    9.4266   13.3256 H   0  0  0  0  0  0  0  0  0  0  0  0
   48.1896    8.4108   10.9649 H   0  0  0  0  0  0  0  0  0  0  0  0
   49.8754    8.0195   11.2567 H   0  0  0  0  0  0  0  0  0  0  0  0
   48.5445    6.1716   12.0100 H   0  0  0  0  0  0  0  0  0  0  0  0
   49.3426    6.9147   13.3808 H   0  0  0  0  0  0  0  0  0  0  0  0
   47.0631    6.2678   13.9552 H   0  0  0  0  0  0  0  0  0  0  0  0
   47.2741    7.9905   14.1150 H   0  0  0  0  0  0  0  0  0  0  0  0
   46.0688    8.4150   12.0145 H   0  0  0  0  0  0  0  0  0  0  0  0
   45.1018    7.4769   13.1337 H   0  0  0  0  0  0  0  0  0  0  0  0
   46.5764    6.3735   10.6825 H   0  0  0  0  0  0  0  0  0  0  0  0
   44.8536    6.6746   10.8308 H   0  0  0  0  0  0  0  0  0  0  0  0
   44.7223    4.9598   12.6765 H   0  0  0  0  0  0  0  0  0  0  0  0
   45.2624    4.2966   11.1253 H   0  0  0  0  0  0  0  0  0  0  0  0
   46.4376    4.5869   12.4110 H   0  0  0  0  0  0  0  0  0  0  0  0
   49.7329    8.6527   15.2050 H   0  0  0  0  0  0  0  0  0  0  0  0
   49.0179   10.8970   14.2995 H   0  0  0  0  0  0  0  0  0  0  0  0
   50.7149   10.8895   14.8517 H   0  0  0  0  0  0  0  0  0  0  0  0
   53.1877    8.3400   14.4753 H   0  0  0  0  0  0  0  0  0  0  0  0
   47.1718    8.1048   11.6178 H   0  0  0  0  0  0  0  0  0  0  0  0
   45.8319    8.2251   12.7467 H   0  0  0  0  0  0  0  0  0  0  0  0
   50.8785   13.6686   11.0946 H   0  0  0  0  0  0  0  0  0  0  0  0
   50.4187   12.0782   10.5327 H   0  0  0  0  0  0  0  0  0  0  0  0
   51.2853    7.2467   13.8738 H   0  0  0  0  0  0  0  0  0  0  0  0
   51.6625    8.6031   12.8159 H   0  0  0  0  0  0  0  0  0  0  0  0
   46.5112    6.0384   13.8054 H   0  0  0  0  0  0  0  0  0  0  0  0
   47.8884    5.9405   12.7248 H   0  0  0  0  0  0  0  0  0  0  0  0
   52.8079   12.4696   10.0566 H   0  0  0  0  0  0  0  0  0  0  0  0
   52.6173   11.1378   11.1855 H   0  0  0  0  0  0  0  0  0  0  0  0
   44.8336    3.2966   10.4585 H   0  0  0  0  0  0  0  0  0  0  0  0
   43.1600    3.2038    9.9497 H   0  0  0  0  0  0  0  0  0  0  0  0
   56.2910   14.7541   11.8083 H   0  0  0  0  0  0  0  0  0  0  0  0
   56.0238   13.5967   13.1160 H   0  0  0  0  0  0  0  0  0  0  0  0
   54.0908   14.9092   13.9396 H   0  0  0  0  0  0  0  0  0  0  0  0
   54.4137   16.1790   12.7666 H   0  0  0  0  0  0  0  0  0  0  0  0
   42.6073    5.3174   11.0398 H   0  0  0  0  0  0  0  0  0  0  0  0
   43.9071    5.5179    9.8772 H   0  0  0  0  0  0  0  0  0  0  0  0
   54.4711   12.4626   11.8906 H   0  0  0  0  0  0  0  0  0  0  0  0
   53.2061   12.6421   13.0953 H   0  0  0  0  0  0  0  0  0  0  0  0
   52.5575   14.8521   12.0149 H   0  0  0  0  0  0  0  0  0  0  0  0
   53.8961   14.6604   10.8911 H   0  0  0  0  0  0  0  0  0  0  0  0
   46.3199    5.8627   10.7467 H   0  0  0  0  0  0  0  0  0  0  0  0
   46.2395    4.4885   11.8466 H   0  0  0  0  0  0  0  0  0  0  0  0
   44.2778    6.8391   11.8912 H   0  0  0  0  0  0  0  0  0  0  0  0
   44.1991    5.4256   12.9251 H   0  0  0  0  0  0  0  0  0  0  0  0
   44.1420    3.0640   12.8428 H   0  0  0  0  0  0  0  0  0  0  0  0
   42.4346    3.0902   12.3595 H   0  0  0  0  0  0  0  0  0  0  0  0
   43.4801    1.7476   11.8723 H   0  0  0  0  0  0  0  0  0  0  0  0
   57.8575   15.1314   13.6910 H   0  0  0  0  0  0  0  0  0  0  0  0
   56.4989   15.3812   14.8013 H   0  0  0  0  0  0  0  0  0  0  0  0
   56.7949   16.5341   13.4843 H   0  0  0  0  0  0  0  0  0  0  0  0
   50.8964   12.9873   13.4191 H   0  0  0  0  0  0  0  0  0  0  0  0
   52.6004   14.9212   11.6604 H   0  0  0  0  0  0  0  0  0  0  0  0
   53.0913   12.4360   14.0187 H   0  0  0  0  0  0  0  0  0  0  0  0
   53.4607   11.2950   11.6927 H   0  0  0  0  0  0  0  0  0  0  0  0
   52.0850   12.2490   11.1132 H   0  0  0  0  0  0  0  0  0  0  0  0
   51.4774    7.9450   13.9507 H   0  0  0  0  0  0  0  0  0  0  0  0
   50.6341    9.3086   14.7170 H   0  0  0  0  0  0  0  0  0  0  0  0
   54.0786   14.6204   13.3846 H   0  0  0  0  0  0  0  0  0  0  0  0
   54.8423   13.3501   12.3987 H   0  0  0  0  0  0  0  0  0  0  0  0
   50.2563    8.4636   11.7884 H   0  0  0  0  0  0  0  0  0  0  0  0
   49.3227    9.6860   12.6474 H   0  0  0  0  0  0  0  0  0  0  0  0
   49.3931    6.7022   13.3422 H   0  0  0  0  0  0  0  0  0  0  0  0
   48.4873    7.9280   14.2372 H   0  0  0  0  0  0  0  0  0  0  0  0
   47.1784    8.4824   12.2024 H   0  0  0  0  0  0  0  0  0  0  0  0
   48.0840    7.2919   11.2645 H   0  0  0  0  0  0  0  0  0  0  0  0
   46.3399    6.6566   13.7073 H   0  0  0  0  0  0  0  0  0  0  0  0
   47.2888    5.4779   12.8023 H   0  0  0  0  0  0  0  0  0  0  0  0
   45.9712    5.9833   10.7318 H   0  0  0  0  0  0  0  0  0  0  0  0
   45.0116    5.3269   12.0547 H   0  0  0  0  0  0  0  0  0  0  0  0
   45.1146    8.2691   11.2159 H   0  0  0  0  0  0  0  0  0  0  0  0
   43.7695    7.1416   11.0208 H   0  0  0  0  0  0  0  0  0  0  0  0
   44.2522    7.6617   12.6447 H   0  0  0  0  0  0  0  0  0  0  0  0
  1  5  1  0
  1  7  1  0
  2  5  2  0
  3  6  1  0
  4 10  1  0
  5  8  1  0
  6  7  1  0
  6 10  1  0
  8  9  1  0
  9 11  1  0
 11 12  1  0
 12 13  1  0
 13 14  1  0
 14 15  1  0
 15 16  1  0
 16 17  1  0
 19 23  1  0
 20 18  1  0
 21 18  2  0
 22 19  2  0
 23 25  1  0
 24 20  1  0
 25 24  1  0
 26 29  1  0
 27 18  1  0
 28 19  1  0
 29 24  1  0
 30 27  1  0
 31 28  1  0
 32 35  1  0
 33 34  1  0
 34 37  1  0
 35 39  1  0
 36 31  1  0
 37 36  1  0
 38 30  1  0
 39 38  1  0
 40 32  1  0
 41 33  1  0
 42 46  1  0
 42 48  1  0
 43 46  2  0
 44 47  1  0
 45 50  1  0
 46 49  1  0
 47 48  1  0
 47 50  1  0
 49 51  1  0
 51 52  1  0
 52 53  1  0
 53 54  1  0
 54 55  1  0
 55 56  1  0
  3 57  1  0
  4 58  1  0
  6 59  1  1
  7 60  1  0
  7 61  1  0
  8 62  1  0
  8 63  1  0
  9 64  1  0
  9 65  1  0
 10 66  1  0
 10 67  1  0
 11 68  1  0
 11 69  1  0
 12 70  1  0
 12 71  1  0
 13 72  1  0
 13 73  1  0
 14 74  1  0
 14 75  1  0
 15 76  1  0
 15 77  1  0
 16 78  1  0
 16 79  1  0
 17 80  1  0
 17 81  1  0
 17 82  1  0
 24 83  1  1
 25 84  1  0
 25 85  1  0
 26 86  1  0
 27 87  1  0
 27 88  1  0
 28 89  1  0
 28 90  1  0
 29 91  1  0
 29 92  1  0
 30 93  1  0
 30 94  1  0
 31 95  1  0
 31 96  1  0
 32 97  1  0
 32 98  1  0
 33 99  1  0
 33100  1  0
 34101  1  0
 34102  1  0
 35103  1  0
 35104  1  0
 36105  1  0
 36106  1  0
 37107  1  0
 37108  1  0
 38109  1  0
 38110  1  0
 39111  1  0
 39112  1  0
 40113  1  0
 40114  1  0
 40115  1  0
 41116  1  0
 41117  1  0
 41118  1  0
 44119  1  0
 45120  1  0
 47121  1  1
 48122  1  0
 48123  1  0
 49124  1  0
 49125  1  0
 50126  1  0
 50127  1  0
 51128  1  0
 51129  1  0
 52130  1  0
 52131  1  0
 53132  1  0
 53133  1  0
 54134  1  0
 54135  1  0
 55136  1  0
 55137  1  0
 56138  1  0
 56139  1  0
 56140  1  0
M  END
> <Uni-Dock RESULT> 
ENERGY=   -6.006  LOWER_BOUND=    0.000  UPPER_BOUND=    0.000
INTER + INTRA:          -6.006
INTER:                  -6.006
INTRA:                   0.000
UNBOUND:                 0.000

$$$$

     RDKit          3D

140137  0  0  0  0  0  0  0  0999 V2000
   50.9831    6.7247   18.6432 O   0  0  0  0  0  0  0  0  0  0  0  0
   50.2783    8.9162   18.7311 O   0  0  0  0  0  0  0  0  0  0  0  0
   52.1916    6.4653   21.2549 O   0  0  0  0  0  0  0  0  0  0  0  0
   53.7481    4.4680   18.5948 O   0  0  0  0  0  0  0  0  0  0  0  0
   50.0573    7.7194   18.5984 C   0  0  0  0  0  0  0  0  0  0  0  0
   52.9208    6.2387   20.0422 C   0  0  2  0  0  0  0  0  0  0  0  0
   52.3402    7.1176   18.9244 C   0  0  0  0  0  0  0  0  0  0  0  0
   48.6824    7.1449   18.3688 C   0  0  0  0  0  0  0  0  0  0  0  0
   48.5487    6.4239   17.0297 C   0  0  0  0  0  0  0  0  0  0  0  0
   52.8882    4.7462   19.6934 C   0  0  0  0  0  0  0  0  0  0  0  0
   48.8409    7.2821   15.7942 C   0  0  0  0  0  0  0  0  0  0  0  0
   47.8773    8.4594   15.6285 C   0  0  0  0  0  0  0  0  0  0  0  0
   48.1634    9.3068   14.3830 C   0  0  0  0  0  0  0  0  0  0  0  0
   48.0265    8.5855   13.0382 C   0  0  0  0  0  0  0  0  0  0  0  0
   46.6635    7.9397   12.7688 C   0  0  0  0  0  0  0  0  0  0  0  0
   45.4635    8.8885   12.8273 C   0  0  0  0  0  0  0  0  0  0  0  0
   45.5357   10.0232   11.8173 C   0  0  0  0  0  0  0  0  0  0  0  0
   48.7570    7.6074   13.7450 C   0  0  0  0  0  0  0  0  0  0  0  0
   50.1846    5.4234   17.7896 C   0  0  0  0  0  0  0  0  0  0  0  0
   49.1629    8.2409   14.8789 O   0  0  0  0  0  0  0  0  0  0  0  0
   49.4570    6.8896   13.0454 O   0  0  0  0  0  0  0  0  0  0  0  0
   50.8680    4.4792   17.4185 O   0  0  0  0  0  0  0  0  0  0  0  0
   50.0160    6.5915   17.1126 O   0  0  0  0  0  0  0  0  0  0  0  0
   50.5510    8.0537   15.2395 C   0  0  2  0  0  0  0  0  0  0  0  0
   50.7722    6.6792   15.8904 C   0  0  0  0  0  0  0  0  0  0  0  0
   52.3060    9.1502   16.5286 O   0  0  0  0  0  0  0  0  0  0  0  0
   47.3152    7.9301   13.4498 C   0  0  0  0  0  0  0  0  0  0  0  0
   49.4226    5.4495   19.0886 C   0  0  0  0  0  0  0  0  0  0  0  0
   50.9289    9.2037   16.1803 C   0  0  0  0  0  0  0  0  0  0  0  0
   47.2023    9.2921   12.7745 C   0  0  0  0  0  0  0  0  0  0  0  0
   50.0328    6.4125   20.1047 C   0  0  0  0  0  0  0  0  0  0  0  0
   43.3641   10.7065   10.7311 C   0  0  0  0  0  0  0  0  0  0  0  0
   53.8004    5.4629   22.4689 C   0  0  0  0  0  0  0  0  0  0  0  0
   53.1284    4.4510   21.5416 C   0  0  0  0  0  0  0  0  0  0  0  0
   43.6243    9.2581   11.1500 C   0  0  0  0  0  0  0  0  0  0  0  0
   51.4897    6.1148   20.4866 C   0  0  0  0  0  0  0  0  0  0  0  0
   51.6672    4.7834   21.2201 C   0  0  0  0  0  0  0  0  0  0  0  0
   45.7578    9.7146   12.4927 C   0  0  0  0  0  0  0  0  0  0  0  0
   45.0908    8.8848   11.3928 C   0  0  0  0  0  0  0  0  0  0  0  0
   44.0642   11.1012    9.4417 C   0  0  0  0  0  0  0  0  0  0  0  0
   55.1887    5.0006   22.8871 C   0  0  0  0  0  0  0  0  0  0  0  0
   50.4323    7.1269   18.0778 O   0  0  0  0  0  0  0  0  0  0  0  0
   52.0375    8.7487   18.2425 O   0  0  0  0  0  0  0  0  0  0  0  0
   51.5465    4.5531   18.7244 O   0  0  0  0  0  0  0  0  0  0  0  0
   51.2726    4.6687   21.4907 O   0  0  0  0  0  0  0  0  0  0  0  0
   51.1475    8.1882   17.6165 C   0  0  0  0  0  0  0  0  0  0  0  0
   51.9185    5.7556   19.4267 C   0  0  1  0  0  0  0  0  0  0  0  0
   50.7259    6.7187   19.4316 C   0  0  0  0  0  0  0  0  0  0  0  0
   50.7770    8.5439   16.1950 C   0  0  0  0  0  0  0  0  0  0  0  0
   52.3382    5.3609   20.8409 C   0  0  0  0  0  0  0  0  0  0  0  0
   49.2981    8.3255   15.8768 C   0  0  0  0  0  0  0  0  0  0  0  0
   48.9390    8.8484   14.4858 C   0  0  0  0  0  0  0  0  0  0  0  0
   47.4667    8.5830   14.1628 C   0  0  0  0  0  0  0  0  0  0  0  0
   47.0899    9.1402   12.7886 C   0  0  0  0  0  0  0  0  0  0  0  0
   45.6103    8.9481   12.4463 C   0  0  0  0  0  0  0  0  0  0  0  0
   45.2169    7.4893   12.2666 C   0  0  0  0  0  0  0  0  0  0  0  0
   52.7059    6.0698   21.9796 H   0  0  0  0  0  0  0  0  0  0  0  0
   53.6429    3.5233   18.3853 H   0  0  0  0  0  0  0  0  0  0  0  0
   53.9572    6.5542   20.2104 H   0  0  0  0  0  0  0  0  0  0  0  0
   52.4021    8.1685   19.2314 H   0  0  0  0  0  0  0  0  0  0  0  0
   52.9160    6.9959   18.0003 H   0  0  0  0  0  0  0  0  0  0  0  0
   47.9505    7.9551   18.4507 H   0  0  0  0  0  0  0  0  0  0  0  0
   48.4665    6.4545   19.1931 H   0  0  0  0  0  0  0  0  0  0  0  0
   49.2287    5.5626   17.0131 H   0  0  0  0  0  0  0  0  0  0  0  0
   47.5332    6.0168   16.9505 H   0  0  0  0  0  0  0  0  0  0  0  0
   53.2241    4.1546   20.5525 H   0  0  0  0  0  0  0  0  0  0  0  0
   51.8718    4.4136   19.4517 H   0  0  0  0  0  0  0  0  0  0  0  0
   48.7740    6.6284   14.9170 H   0  0  0  0  0  0  0  0  0  0  0  0
   49.8713    7.6529   15.8296 H   0  0  0  0  0  0  0  0  0  0  0  0
   46.8426    8.0980   15.6103 H   0  0  0  0  0  0  0  0  0  0  0  0
   47.9588    9.1213   16.4976 H   0  0  0  0  0  0  0  0  0  0  0  0
   47.4965   10.1778   14.3944 H   0  0  0  0  0  0  0  0  0  0  0  0
   49.1828    9.7078   14.4546 H   0  0  0  0  0  0  0  0  0  0  0  0
   48.2516    9.3010   12.2383 H   0  0  0  0  0  0  0  0  0  0  0  0
   48.7998    7.8121   12.9598 H   0  0  0  0  0  0  0  0  0  0  0  0
   46.4982    7.1228   13.4820 H   0  0  0  0  0  0  0  0  0  0  0  0
   46.6950    7.4715   11.7768 H   0  0  0  0  0  0  0  0  0  0  0  0
   45.3516    9.3047   13.8346 H   0  0  0  0  0  0  0  0  0  0  0  0
   44.5545    8.3074   12.6301 H   0  0  0  0  0  0  0  0  0  0  0  0
   45.6731    9.6381   10.8019 H   0  0  0  0  0  0  0  0  0  0  0  0
   44.6080   10.6042   11.8361 H   0  0  0  0  0  0  0  0  0  0  0  0
   46.3588   10.7080   12.0415 H   0  0  0  0  0  0  0  0  0  0  0  0
   51.1796    8.1264   14.3419 H   0  0  0  0  0  0  0  0  0  0  0  0
   50.4368    5.8805   15.2207 H   0  0  0  0  0  0  0  0  0  0  0  0
   51.8366    6.5368   16.1121 H   0  0  0  0  0  0  0  0  0  0  0  0
   52.4793    9.9021   17.1210 H   0  0  0  0  0  0  0  0  0  0  0  0
   46.7442    7.8954   14.3836 H   0  0  0  0  0  0  0  0  0  0  0  0
   46.9235    7.1301   12.8131 H   0  0  0  0  0  0  0  0  0  0  0  0
   49.3770    4.4303   19.4855 H   0  0  0  0  0  0  0  0  0  0  0  0
   48.3870    5.7335   18.8707 H   0  0  0  0  0  0  0  0  0  0  0  0
   50.7322   10.1633   15.6872 H   0  0  0  0  0  0  0  0  0  0  0  0
   50.3261    9.1866   17.0953 H   0  0  0  0  0  0  0  0  0  0  0  0
   47.7800    9.2950   11.8418 H   0  0  0  0  0  0  0  0  0  0  0  0
   47.6646   10.0510   13.4194 H   0  0  0  0  0  0  0  0  0  0  0  0
   49.4148    6.4082   21.0100 H   0  0  0  0  0  0  0  0  0  0  0  0
   49.9876    7.4329   19.7038 H   0  0  0  0  0  0  0  0  0  0  0  0
   43.6535   11.3948   11.5319 H   0  0  0  0  0  0  0  0  0  0  0  0
   42.2845   10.8351   10.5933 H   0  0  0  0  0  0  0  0  0  0  0  0
   53.1885    5.6140   23.3654 H   0  0  0  0  0  0  0  0  0  0  0  0
   53.8931    6.4328   21.9675 H   0  0  0  0  0  0  0  0  0  0  0  0
   53.6998    4.3702   20.6088 H   0  0  0  0  0  0  0  0  0  0  0  0
   53.1549    3.4602   22.0117 H   0  0  0  0  0  0  0  0  0  0  0  0
   43.2229    8.5915   10.3768 H   0  0  0  0  0  0  0  0  0  0  0  0
   43.0496    9.0528   12.0616 H   0  0  0  0  0  0  0  0  0  0  0  0
   51.8315    6.9324   21.1316 H   0  0  0  0  0  0  0  0  0  0  0  0
   52.1245    6.1373   19.5935 H   0  0  0  0  0  0  0  0  0  0  0  0
   51.2718    3.9659   20.6084 H   0  0  0  0  0  0  0  0  0  0  0  0
   51.0835    4.7950   22.1475 H   0  0  0  0  0  0  0  0  0  0  0  0
   45.1700    9.6559   13.4169 H   0  0  0  0  0  0  0  0  0  0  0  0
   45.7741   10.7672   12.1902 H   0  0  0  0  0  0  0  0  0  0  0  0
   45.1161    7.8235   11.6640 H   0  0  0  0  0  0  0  0  0  0  0  0
   45.6609    8.9772   10.4618 H   0  0  0  0  0  0  0  0  0  0  0  0
   45.1506   11.1015    9.5595 H   0  0  0  0  0  0  0  0  0  0  0  0
   43.8038   10.4177    8.6276 H   0  0  0  0  0  0  0  0  0  0  0  0
   43.7644   12.1106    9.1432 H   0  0  0  0  0  0  0  0  0  0  0  0
   55.6571    5.7457   23.5375 H   0  0  0  0  0  0  0  0  0  0  0  0
   55.8334    4.8569   22.0143 H   0  0  0  0  0  0  0  0  0  0  0  0
   55.1366    4.0549   23.4366 H   0  0  0  0  0  0  0  0  0  0  0  0
   51.1467    4.8419   17.8834 H   0  0  0  0  0  0  0  0  0  0  0  0
   51.0215    3.9535   20.8720 H   0  0  0  0  0  0  0  0  0  0  0  0
   52.7701    6.1920   18.8946 H   0  0  0  0  0  0  0  0  0  0  0  0
   50.8996    7.5919   20.0734 H   0  0  0  0  0  0  0  0  0  0  0  0
   49.8235    6.2129   19.7924 H   0  0  0  0  0  0  0  0  0  0  0  0
   51.0242    9.6026   16.0490 H   0  0  0  0  0  0  0  0  0  0  0  0
   51.4066    7.9486   15.5239 H   0  0  0  0  0  0  0  0  0  0  0  0
   53.1941    4.6778   20.8119 H   0  0  0  0  0  0  0  0  0  0  0  0
   52.6056    6.2346   21.4436 H   0  0  0  0  0  0  0  0  0  0  0  0
   48.6802    8.8272   16.6320 H   0  0  0  0  0  0  0  0  0  0  0  0
   49.0621    7.2553   15.9341 H   0  0  0  0  0  0  0  0  0  0  0  0
   49.1430    9.9248   14.4314 H   0  0  0  0  0  0  0  0  0  0  0  0
   49.5703    8.3581   13.7336 H   0  0  0  0  0  0  0  0  0  0  0  0
   47.2862    7.5023   14.1934 H   0  0  0  0  0  0  0  0  0  0  0  0
   46.8303    9.0410   14.9296 H   0  0  0  0  0  0  0  0  0  0  0  0
   47.7122    8.6730   12.0142 H   0  0  0  0  0  0  0  0  0  0  0  0
   47.3092   10.2158   12.7667 H   0  0  0  0  0  0  0  0  0  0  0  0
   44.9828    9.4041   13.2221 H   0  0  0  0  0  0  0  0  0  0  0  0
   45.3975    9.4817   11.5122 H   0  0  0  0  0  0  0  0  0  0  0  0
   45.2906    6.9347   13.2069 H   0  0  0  0  0  0  0  0  0  0  0  0
   44.1794    7.4195   11.9228 H   0  0  0  0  0  0  0  0  0  0  0  0
   45.8540    6.9983   11.5239 H   0  0  0  0  0  0  0  0  0  0  0  0
  1  5  1  0
  1  7  1  0
  2  5  2  0
  3  6  1  0
  4 10  1  0
  5  8  1  0
  6  7  1  0
  6 10  1  0
  8  9  1  0
  9 11  1  0
 11 12  1  0
 12 13  1  0
 13 14  1  0
 14 15  1  0
 15 16  1  0
 16 17  1  0
 19 23  1  0
 20 18  1  0
 21 18  2  0
 22 19  2  0
 23 25  1  0
 24 20  1  0
 25 24  1  0
 26 29  1  0
 27 18  1  0
 28 19  1  0
 29 24  1  0
 30 27  1  0
 31 28  1  0
 32 35  1  0
 33 34  1  0
 34 37  1  0
 35 39  1  0
 36 31  1  0
 37 36  1  0
 38 30  1  0
 39 38  1  0
 40 32  1  0
 41 33  1  0
 42 46  1  0
 42 48  1  0
 43 46  2  0
 44 47  1  0
 45 50  1  0
 46 49  1  0
 47 48  1  0
 47 50  1  0
 49 51  1  0
 51 52  1  0
 52 53  1  0
 53 54  1  0
 54 55  1  0
 55 56  1  0
  3 57  1  0
  4 58  1  0
  6 59  1  1
  7 60  1  0
  7 61  1  0
  8 62  1  0
  8 63  1  0
  9 64  1  0
  9 65  1  0
 10 66  1  0
 10 67  1  0
 11 68  1  0
 11 69  1  0
 12 70  1  0
 12 71  1  0
 13 72  1  0
 13 73  1  0
 14 74  1  0
 14 75  1  0
 15 76  1  0
 15 77  1  0
 16 78  1  0
 16 79  1  0
 17 80  1  0
 17 81  1  0
 17 82  1  0
 24 83  1  1
 25 84  1  0
 25 85  1  0
 26 86  1  0
 27 87  1  0
 27 88  1  0
 28 89  1  0
 28 90  1  0
 29 91  1  0
 29 92  1  0
 30 93  1  0
 30 94  1  0
 31 95  1  0
 31 96  1  0
 32 97  1  0
 32 98  1  0
 33 99  1  0
 33100  1  0
 34101  1  0
 34102  1  0
 35103  1  0
 35104  1  0
 36105  1  0
 36106  1  0
 37107  1  0
 37108  1  0
 38109  1  0
 38110  1  0
 39111  1  0
 39112  1  0
 40113  1  0
 40114  1  0
 40115  1  0
 41116  1  0
 41117  1  0
 41118  1  0
 44119  1  0
 45120  1  0
 47121  1  1
 48122  1  0
 48123  1  0
 49124  1  0
 49125  1  0
 50126  1  0
 50127  1  0
 51128  1  0
 51129  1  0
 52130  1  0
 52131  1  0
 53132  1  0
 53133  1  0
 54134  1  0
 54135  1  0
 55136  1  0
 55137  1  0
 56138  1  0
 56139  1  0
 56140  1  0
M  END
> <Uni-Dock RESULT> 
ENERGY=   -5.922  LOWER_BOUND=    4.674  UPPER_BOUND=    7.522
INTER + INTRA:          -5.922
INTER:                  -5.922
INTRA:                   0.000
UNBOUND:                 0.000

$$$$

     RDKit          3D

140137  0  0  0  0  0  0  0  0999 V2000
   50.9828    6.7247   18.6434 O   0  0  0  0  0  0  0  0  0  0  0  0
   50.2780    8.9163   18.7313 O   0  0  0  0  0  0  0  0  0  0  0  0
   52.1912    6.4652   21.2552 O   0  0  0  0  0  0  0  0  0  0  0  0
   53.7478    4.4680   18.5951 O   0  0  0  0  0  0  0  0  0  0  0  0
   50.0570    7.7195   18.5987 C   0  0  0  0  0  0  0  0  0  0  0  0
   52.9204    6.2387   20.0426 C   0  0  2  0  0  0  0  0  0  0  0  0
   52.3399    7.1176   18.9248 C   0  0  0  0  0  0  0  0  0  0  0  0
   48.6821    7.1450   18.3689 C   0  0  0  0  0  0  0  0  0  0  0  0
   48.5484    6.4241   17.0298 C   0  0  0  0  0  0  0  0  0  0  0  0
   52.8878    4.7462   19.6937 C   0  0  0  0  0  0  0  0  0  0  0  0
   48.8407    7.2823   15.7944 C   0  0  0  0  0  0  0  0  0  0  0  0
   47.8772    8.4597   15.6286 C   0  0  0  0  0  0  0  0  0  0  0  0
   48.1633    9.3071   14.3832 C   0  0  0  0  0  0  0  0  0  0  0  0
   48.0265    8.5858   13.0384 C   0  0  0  0  0  0  0  0  0  0  0  0
   46.6635    7.9401   12.7689 C   0  0  0  0  0  0  0  0  0  0  0  0
   45.4635    8.8888   12.8274 C   0  0  0  0  0  0  0  0  0  0  0  0
   45.5358   10.0236   11.8174 C   0  0  0  0  0  0  0  0  0  0  0  0
   48.7569    7.6076   13.7452 C   0  0  0  0  0  0  0  0  0  0  0  0
   50.1843    5.4235   17.7897 C   0  0  0  0  0  0  0  0  0  0  0  0
   49.1627    8.2411   14.8791 O   0  0  0  0  0  0  0  0  0  0  0  0
   49.4570    6.8899   13.0456 O   0  0  0  0  0  0  0  0  0  0  0  0
   50.8676    4.4793   17.4187 O   0  0  0  0  0  0  0  0  0  0  0  0
   50.0157    6.5916   17.1128 O   0  0  0  0  0  0  0  0  0  0  0  0
   50.5508    8.0539   15.2397 C   0  0  2  0  0  0  0  0  0  0  0  0
   50.7720    6.6793   15.8906 C   0  0  0  0  0  0  0  0  0  0  0  0
   52.3058    9.1503   16.5290 O   0  0  0  0  0  0  0  0  0  0  0  0
   47.3152    7.9304   13.4499 C   0  0  0  0  0  0  0  0  0  0  0  0
   49.4222    5.4496   19.0887 C   0  0  0  0  0  0  0  0  0  0  0  0
   50.9287    9.2038   16.1806 C   0  0  0  0  0  0  0  0  0  0  0  0
   47.2023    9.2925   12.7747 C   0  0  0  0  0  0  0  0  0  0  0  0
   50.0323    6.4125   20.1049 C   0  0  0  0  0  0  0  0  0  0  0  0
   43.3642   10.7070   10.7312 C   0  0  0  0  0  0  0  0  0  0  0  0
   53.7999    5.4628   22.4693 C   0  0  0  0  0  0  0  0  0  0  0  0
   53.1279    4.4509   21.5419 C   0  0  0  0  0  0  0  0  0  0  0  0
   43.6243    9.2586   11.1500 C   0  0  0  0  0  0  0  0  0  0  0  0
   51.4892    6.1148   20.4869 C   0  0  0  0  0  0  0  0  0  0  0  0
   51.6667    4.7834   21.2203 C   0  0  0  0  0  0  0  0  0  0  0  0
   45.7578    9.7150   12.4928 C   0  0  0  0  0  0  0  0  0  0  0  0
   45.0908    8.8853   11.3928 C   0  0  0  0  0  0  0  0  0  0  0  0
   44.0644   11.1017    9.4417 C   0  0  0  0  0  0  0  0  0  0  0  0
   55.1881    5.0004   22.8875 C   0  0  0  0  0  0  0  0  0  0  0  0
   50.4320    7.1270   18.0780 O   0  0  0  0  0  0  0  0  0  0  0  0
   52.0373    8.7487   18.2428 O   0  0  0  0  0  0  0  0  0  0  0  0
   51.5461    4.5532   18.7246 O   0  0  0  0  0  0  0  0  0  0  0  0
   51.2721    4.6687   21.4909 O   0  0  0  0  0  0  0  0  0  0  0  0
   51.1473    8.1883   17.6168 C   0  0  0  0  0  0  0  0  0  0  0  0
   51.9181    5.7556   19.4270 C   0  0  1  0  0  0  0  0  0  0  0  0
   50.7255    6.7187   19.4319 C   0  0  0  0  0  0  0  0  0  0  0  0
   50.7768    8.5441   16.1953 C   0  0  0  0  0  0  0  0  0  0  0  0
   52.3377    5.3609   20.8411 C   0  0  0  0  0  0  0  0  0  0  0  0
   49.2979    8.3257   15.8770 C   0  0  0  0  0  0  0  0  0  0  0  0
   48.9389    8.8486   14.4860 C   0  0  0  0  0  0  0  0  0  0  0  0
   47.4666    8.5833   14.1629 C   0  0  0  0  0  0  0  0  0  0  0  0
   47.0899    9.1405   12.7887 C   0  0  0  0  0  0  0  0  0  0  0  0
   45.6103    8.9485   12.4464 C   0  0  0  0  0  0  0  0  0  0  0  0
   45.2169    7.4897   12.2666 C   0  0  0  0  0  0  0  0  0  0  0  0
   52.7054    6.0697   21.9799 H   0  0  0  0  0  0  0  0  0  0  0  0
   53.6425    3.5234   18.3856 H   0  0  0  0  0  0  0  0  0  0  0  0
   53.9567    6.5542   20.2108 H   0  0  0  0  0  0  0  0  0  0  0  0
   52.4018    8.1685   19.2318 H   0  0  0  0  0  0  0  0  0  0  0  0
   52.9157    6.9960   18.0007 H   0  0  0  0  0  0  0  0  0  0  0  0
   47.9502    7.9553   18.4509 H   0  0  0  0  0  0  0  0  0  0  0  0
   48.4661    6.4546   19.1932 H   0  0  0  0  0  0  0  0  0  0  0  0
   49.2284    5.5628   17.0133 H   0  0  0  0  0  0  0  0  0  0  0  0
   47.5329    6.0171   16.9506 H   0  0  0  0  0  0  0  0  0  0  0  0
   53.2237    4.1546   20.5528 H   0  0  0  0  0  0  0  0  0  0  0  0
   51.8714    4.4136   19.4519 H   0  0  0  0  0  0  0  0  0  0  0  0
   48.7738    6.6287   14.9172 H   0  0  0  0  0  0  0  0  0  0  0  0
   49.8711    7.6530   15.8298 H   0  0  0  0  0  0  0  0  0  0  0  0
   46.8425    8.0982   15.6104 H   0  0  0  0  0  0  0  0  0  0  0  0
   47.9586    9.1215   16.4977 H   0  0  0  0  0  0  0  0  0  0  0  0
   47.4964   10.1781   14.3946 H   0  0  0  0  0  0  0  0  0  0  0  0
   49.1827    9.7081   14.4548 H   0  0  0  0  0  0  0  0  0  0  0  0
   48.2516    9.3013   12.2385 H   0  0  0  0  0  0  0  0  0  0  0  0
   48.7997    7.8124   12.9600 H   0  0  0  0  0  0  0  0  0  0  0  0
   46.4981    7.1231   13.4820 H   0  0  0  0  0  0  0  0  0  0  0  0
   46.6950    7.4718   11.7769 H   0  0  0  0  0  0  0  0  0  0  0  0
   45.3515    9.3050   13.8347 H   0  0  0  0  0  0  0  0  0  0  0  0
   44.5545    8.3078   12.6301 H   0  0  0  0  0  0  0  0  0  0  0  0
   45.6732    9.6385   10.8020 H   0  0  0  0  0  0  0  0  0  0  0  0
   44.6080   10.6046   11.8362 H   0  0  0  0  0  0  0  0  0  0  0  0
   46.3588   10.7084   12.0417 H   0  0  0  0  0  0  0  0  0  0  0  0
   51.1794    8.1265   14.3422 H   0  0  0  0  0  0  0  0  0  0  0  0
   50.4366    5.8807   15.2209 H   0  0  0  0  0  0  0  0  0  0  0  0
   51.8364    6.5369   16.1124 H   0  0  0  0  0  0  0  0  0  0  0  0
   52.4791    9.9021   17.1214 H   0  0  0  0  0  0  0  0  0  0  0  0
   46.7441    7.8957   14.3837 H   0  0  0  0  0  0  0  0  0  0  0  0
   46.9234    7.1304   12.8132 H   0  0  0  0  0  0  0  0  0  0  0  0
   49.3766    4.4304   19.4856 H   0  0  0  0  0  0  0  0  0  0  0  0
   48.3866    5.7336   18.8708 H   0  0  0  0  0  0  0  0  0  0  0  0
   50.7321   10.1634   15.6875 H   0  0  0  0  0  0  0  0  0  0  0  0
   50.3259    9.1867   17.0955 H   0  0  0  0  0  0  0  0  0  0  0  0
   47.7801    9.2954   11.8420 H   0  0  0  0  0  0  0  0  0  0  0  0
   47.6646   10.0513   13.4196 H   0  0  0  0  0  0  0  0  0  0  0  0
   49.4144    6.4083   21.0102 H   0  0  0  0  0  0  0  0  0  0  0  0
   49.9873    7.4330   19.7040 H   0  0  0  0  0  0  0  0  0  0  0  0
   43.6536   11.3953   11.5319 H   0  0  0  0  0  0  0  0  0  0  0  0
   42.2846   10.8356   10.5933 H   0  0  0  0  0  0  0  0  0  0  0  0
   53.1879    5.6139   23.3658 H   0  0  0  0  0  0  0  0  0  0  0  0
   53.8926    6.4327   21.9679 H   0  0  0  0  0  0  0  0  0  0  0  0
   53.6993    4.3702   20.6092 H   0  0  0  0  0  0  0  0  0  0  0  0
   53.1544    3.4601   22.0119 H   0  0  0  0  0  0  0  0  0  0  0  0
   43.2230    8.5920   10.3768 H   0  0  0  0  0  0  0  0  0  0  0  0
   43.0497    9.0532   12.0616 H   0  0  0  0  0  0  0  0  0  0  0  0
   51.8310    6.9324   21.1319 H   0  0  0  0  0  0  0  0  0  0  0  0
   52.1241    6.1373   19.5938 H   0  0  0  0  0  0  0  0  0  0  0  0
   51.2713    3.9659   20.6086 H   0  0  0  0  0  0  0  0  0  0  0  0
   51.0829    4.7950   22.1477 H   0  0  0  0  0  0  0  0  0  0  0  0
   45.1700    9.6563   13.4170 H   0  0  0  0  0  0  0  0  0  0  0  0
   45.7742   10.7676   12.1903 H   0  0  0  0  0  0  0  0  0  0  0  0
   45.1161    7.8239   11.6640 H   0  0  0  0  0  0  0  0  0  0  0  0
   45.6609    8.9777   10.4619 H   0  0  0  0  0  0  0  0  0  0  0  0
   45.1507   11.1020    9.5596 H   0  0  0  0  0  0  0  0  0  0  0  0
   43.8040   10.4182    8.6277 H   0  0  0  0  0  0  0  0  0  0  0  0
   43.7646   12.1111    9.1433 H   0  0  0  0  0  0  0  0  0  0  0  0
   55.6565    5.7455   23.5379 H   0  0  0  0  0  0  0  0  0  0  0  0
   55.8328    4.8567   22.0147 H   0  0  0  0  0  0  0  0  0  0  0  0
   55.1360    4.0548   23.4369 H   0  0  0  0  0  0  0  0  0  0  0  0
   51.1463    4.8420   17.8837 H   0  0  0  0  0  0  0  0  0  0  0  0
   51.0210    3.9536   20.8722 H   0  0  0  0  0  0  0  0  0  0  0  0
   52.7698    6.1920   18.8950 H   0  0  0  0  0  0  0  0  0  0  0  0
   50.8992    7.5919   20.0737 H   0  0  0  0  0  0  0  0  0  0  0  0
   49.8231    6.2129   19.7926 H   0  0  0  0  0  0  0  0  0  0  0  0
   51.0241    9.6027   16.0493 H   0  0  0  0  0  0  0  0  0  0  0  0
   51.4065    7.9487   15.5242 H   0  0  0  0  0  0  0  0  0  0  0  0
   53.1936    4.6777   20.8122 H   0  0  0  0  0  0  0  0  0  0  0  0
   52.6052    6.2346   21.4439 H   0  0  0  0  0  0  0  0  0  0  0  0
   48.6800    8.8274   16.6322 H   0  0  0  0  0  0  0  0  0  0  0  0
   49.0619    7.2555   15.9343 H   0  0  0  0  0  0  0  0  0  0  0  0
   49.1430    9.9251   14.4316 H   0  0  0  0  0  0  0  0  0  0  0  0
   49.5702    8.3583   13.7339 H   0  0  0  0  0  0  0  0  0  0  0  0
   47.2861    7.5026   14.1936 H   0  0  0  0  0  0  0  0  0  0  0  0
   46.8302    9.0412   14.9298 H   0  0  0  0  0  0  0  0  0  0  0  0
   47.7122    8.6734   12.0143 H   0  0  0  0  0  0  0  0  0  0  0  0
   47.3092   10.2161   12.7669 H   0  0  0  0  0  0  0  0  0  0  0  0
   44.9828    9.4045   13.2222 H   0  0  0  0  0  0  0  0  0  0  0  0
   45.3975    9.4821   11.5123 H   0  0  0  0  0  0  0  0  0  0  0  0
   45.2905    6.9351   13.2069 H   0  0  0  0  0  0  0  0  0  0  0  0
   44.1794    7.4199   11.9227 H   0  0  0  0  0  0  0  0  0  0  0  0
   45.8539    6.9987   11.5239 H   0  0  0  0  0  0  0  0  0  0  0  0
  1  5  1  0
  1  7  1  0
  2  5  2  0
  3  6  1  0
  4 10  1  0
  5  8  1  0
  6  7  1  0
  6 10  1  0
  8  9  1  0
  9 11  1  0
 11 12  1  0
 12 13  1  0
 13 14  1  0
 14 15  1  0
 15 16  1  0
 16 17  1  0
 19 23  1  0
 20 18  1  0
 21 18  2  0
 22 19  2  0
 23 25  1  0
 24 20  1  0
 25 24  1  0
 26 29  1  0
 27 18  1  0
 28 19  1  0
 29 24  1  0
 30 27  1  0
 31 28  1  0
 32 35  1  0
 33 34  1  0
 34 37  1  0
 35 39  1  0
 36 31  1  0
 37 36  1  0
 38 30  1  0
 39 38  1  0
 40 32  1  0
 41 33  1  0
 42 46  1  0
 42 48  1  0
 43 46  2  0
 44 47  1  0
 45 50  1  0
 46 49  1  0
 47 48  1  0
 47 50  1  0
 49 51  1  0
 51 52  1  0
 52 53  1  0
 53 54  1  0
 54 55  1  0
 55 56  1  0
  3 57  1  0
  4 58  1  0
  6 59  1  1
  7 60  1  0
  7 61  1  0
  8 62  1  0
  8 63  1  0
  9 64  1  0
  9 65  1  0
 10 66  1  0
 10 67  1  0
 11 68  1  0
 11 69  1  0
 12 70  1  0
 12 71  1  0
 13 72  1  0
 13 73  1  0
 14 74  1  0
 14 75  1  0
 15 76  1  0
 15 77  1  0
 16 78  1  0
 16 79  1  0
 17 80  1  0
 17 81  1  0
 17 82  1  0
 24 83  1  1
 25 84  1  0
 25 85  1  0
 26 86  1  0
 27 87  1  0
 27 88  1  0
 28 89  1  0
 28 90  1  0
 29 91  1  0
 29 92  1  0
 30 93  1  0
 30 94  1  0
 31 95  1  0
 31 96  1  0
 32 97  1  0
 32 98  1  0
 33 99  1  0
 33100  1  0
 34101  1  0
 34102  1  0
 35103  1  0
 35104  1  0
 36105  1  0
 36106  1  0
 37107  1  0
 37108  1  0
 38109  1  0
 38110  1  0
 39111  1  0
 39112  1  0
 40113  1  0
 40114  1  0
 40115  1  0
 41116  1  0
 41117  1  0
 41118  1  0
 44119  1  0
 45120  1  0
 47121  1  1
 48122  1  0
 48123  1  0
 49124  1  0
 49125  1  0
 50126  1  0
 50127  1  0
 51128  1  0
 51129  1  0
 52130  1  0
 52131  1  0
 53132  1  0
 53133  1  0
 54134  1  0
 54135  1  0
 55136  1  0
 55137  1  0
 56138  1  0
 56139  1  0
 56140  1  0
M  END
> <Uni-Dock RESULT> 
ENERGY=   -5.922  LOWER_BOUND=    4.674  UPPER_BOUND=    7.522
INTER + INTRA:          -5.922
INTER:                  -5.922
INTRA:                   0.000
UNBOUND:                 0.000

$$$$

     RDKit          3D

140137  0  0  0  0  0  0  0  0999 V2000
   50.4014   12.0359   16.1380 O   0  0  0  0  0  0  0  0  0  0  0  0
   48.3823   12.5843   15.1737 O   0  0  0  0  0  0  0  0  0  0  0  0
   50.9996   14.5008   17.5220 O   0  0  0  0  0  0  0  0  0  0  0  0
   53.9155   12.6450   16.2805 O   0  0  0  0  0  0  0  0  0  0  0  0
   49.0706   11.8839   15.9047 C   0  0  0  0  0  0  0  0  0  0  0  0
   51.8727   13.9404   16.5336 C   0  0  2  0  0  0  0  0  0  0  0  0
   51.0443   13.1582   15.5036 C   0  0  0  0  0  0  0  0  0  0  0  0
   48.5313   10.7161   16.6913 C   0  0  0  0  0  0  0  0  0  0  0  0
   49.1551    9.3819   16.2893 C   0  0  0  0  0  0  0  0  0  0  0  0
   52.9334   13.0702   17.2177 C   0  0  0  0  0  0  0  0  0  0  0  0
   48.9776    8.9955   14.8170 C   0  0  0  0  0  0  0  0  0  0  0  0
   47.5147    8.8079   14.4085 C   0  0  0  0  0  0  0  0  0  0  0  0
   47.3420    8.4065   12.9388 C   0  0  0  0  0  0  0  0  0  0  0  0
   47.9647    7.0663   12.5346 C   0  0  0  0  0  0  0  0  0  0  0  0
   47.4894    5.8477   13.3326 C   0  0  0  0  0  0  0  0  0  0  0  0
   45.9792    5.5983   13.3144 C   0  0  0  0  0  0  0  0  0  0  0  0
   45.4185    5.3628   11.9204 C   0  0  0  0  0  0  0  0  0  0  0  0
   49.0358    7.5949   13.2850 C   0  0  0  0  0  0  0  0  0  0  0  0
   50.8730   10.4476   16.6987 C   0  0  0  0  0  0  0  0  0  0  0  0
   48.6987    8.8980   13.4854 O   0  0  0  0  0  0  0  0  0  0  0  0
   50.1405    7.1926   12.9498 O   0  0  0  0  0  0  0  0  0  0  0  0
   52.0669   10.1829   16.7276 O   0  0  0  0  0  0  0  0  0  0  0  0
   50.0637   10.3318   15.6111 O   0  0  0  0  0  0  0  0  0  0  0  0
   49.7489    9.8622   13.2418 C   0  0  2  0  0  0  0  0  0  0  0  0
   50.7416    9.9057   14.4143 C   0  0  0  0  0  0  0  0  0  0  0  0
   50.0220   12.2200   12.6845 O   0  0  0  0  0  0  0  0  0  0  0  0
   47.8436    6.7024   13.5133 C   0  0  0  0  0  0  0  0  0  0  0  0
   50.1000   10.9717   17.8805 C   0  0  0  0  0  0  0  0  0  0  0  0
   49.0693   11.2171   13.0123 C   0  0  0  0  0  0  0  0  0  0  0  0
   46.9402    6.6969   12.2855 C   0  0  0  0  0  0  0  0  0  0  0  0
   49.7006   12.4363   17.7145 C   0  0  0  0  0  0  0  0  0  0  0  0
   43.5941    3.6331   11.7156 C   0  0  0  0  0  0  0  0  0  0  0  0
   52.6240   15.8795   18.2481 C   0  0  0  0  0  0  0  0  0  0  0  0
   52.9985   14.4249   18.5298 C   0  0  0  0  0  0  0  0  0  0  0  0
   44.7037    3.5008   12.7607 C   0  0  0  0  0  0  0  0  0  0  0  0
   50.8719   13.4102   17.5225 C   0  0  0  0  0  0  0  0  0  0  0  0
   51.7903   13.5063   18.7430 C   0  0  0  0  0  0  0  0  0  0  0  0
   45.6753    5.8526   12.4634 C   0  0  0  0  0  0  0  0  0  0  0  0
   45.9568    4.3489   12.5173 C   0  0  0  0  0  0  0  0  0  0  0  0
   44.0326    3.2502   10.3121 C   0  0  0  0  0  0  0  0  0  0  0  0
   53.8538   16.7751   18.2097 C   0  0  0  0  0  0  0  0  0  0  0  0
   49.8295   11.4791   15.7534 O   0  0  0  0  0  0  0  0  0  0  0  0
   49.8228   13.1495   14.1901 O   0  0  0  0  0  0  0  0  0  0  0  0
   52.2785   11.5388   17.2644 O   0  0  0  0  0  0  0  0  0  0  0  0
   51.5450   13.4350   19.1635 O   0  0  0  0  0  0  0  0  0  0  0  0
   49.6827   11.9722   14.4940 C   0  0  0  0  0  0  0  0  0  0  0  0
   51.5984   12.7387   16.8460 C   0  0  1  0  0  0  0  0  0  0  0  0
   50.0924   12.4604   16.7801 C   0  0  0  0  0  0  0  0  0  0  0  0
   49.4128   10.8777   13.4871 C   0  0  0  0  0  0  0  0  0  0  0  0
   51.9310   13.8397   17.8504 C   0  0  0  0  0  0  0  0  0  0  0  0
   48.5701    9.7305   14.0437 C   0  0  0  0  0  0  0  0  0  0  0  0
   48.1883    8.7317   12.9510 C   0  0  0  0  0  0  0  0  0  0  0  0
   47.3833    7.5658   13.5299 C   0  0  0  0  0  0  0  0  0  0  0  0
   46.9627    6.5831   12.4353 C   0  0  0  0  0  0  0  0  0  0  0  0
   46.1054    5.4286   12.9601 C   0  0  0  0  0  0  0  0  0  0  0  0
   46.8596    4.4922   13.8925 C   0  0  0  0  0  0  0  0  0  0  0  0
   51.5144   15.1552   18.0248 H   0  0  0  0  0  0  0  0  0  0  0  0
   54.5251   12.0550   16.7576 H   0  0  0  0  0  0  0  0  0  0  0  0
   52.3607   14.7698   16.0085 H   0  0  0  0  0  0  0  0  0  0  0  0
   50.3147   13.8371   15.0461 H   0  0  0  0  0  0  0  0  0  0  0  0
   51.6888   12.7629   14.7108 H   0  0  0  0  0  0  0  0  0  0  0  0
   47.4433   10.6904   16.5709 H   0  0  0  0  0  0  0  0  0  0  0  0
   48.7159   10.9149   17.7539 H   0  0  0  0  0  0  0  0  0  0  0  0
   50.2306    9.4053   16.5067 H   0  0  0  0  0  0  0  0  0  0  0  0
   48.7299    8.5918   16.9203 H   0  0  0  0  0  0  0  0  0  0  0  0
   53.4345   13.6432   18.0061 H   0  0  0  0  0  0  0  0  0  0  0  0
   52.4834   12.1919   17.6953 H   0  0  0  0  0  0  0  0  0  0  0  0
   49.5255    8.0602   14.6547 H   0  0  0  0  0  0  0  0  0  0  0  0
   49.4455    9.7476   14.1723 H   0  0  0  0  0  0  0  0  0  0  0  0
   47.0345    8.0696   15.0611 H   0  0  0  0  0  0  0  0  0  0  0  0
   46.9728    9.7488   14.5543 H   0  0  0  0  0  0  0  0  0  0  0  0
   46.2699    8.3906   12.7065 H   0  0  0  0  0  0  0  0  0  0  0  0
   47.7754    9.1909   12.3047 H   0  0  0  0  0  0  0  0  0  0  0  0
   47.7653    6.9004   11.4692 H   0  0  0  0  0  0  0  0  0  0  0  0
   49.0560    7.1324   12.6172 H   0  0  0  0  0  0  0  0  0  0  0  0
   47.8152    5.9436   14.3757 H   0  0  0  0  0  0  0  0  0  0  0  0
   47.9986    4.9590   12.9387 H   0  0  0  0  0  0  0  0  0  0  0  0
   45.4464    6.4321   13.7847 H   0  0  0  0  0  0  0  0  0  0  0  0
   45.7685    4.7125   13.9259 H   0  0  0  0  0  0  0  0  0  0  0  0
   45.9494    4.5499   11.4149 H   0  0  0  0  0  0  0  0  0  0  0  0
   44.3601    5.0896   11.9810 H   0  0  0  0  0  0  0  0  0  0  0  0
   45.4926    6.2616   11.3012 H   0  0  0  0  0  0  0  0  0  0  0  0
   50.2929    9.5937   12.3264 H   0  0  0  0  0  0  0  0  0  0  0  0
   51.1647    8.9120   14.5943 H   0  0  0  0  0  0  0  0  0  0  0  0
   51.5553   10.6059   14.1903 H   0  0  0  0  0  0  0  0  0  0  0  0
   49.5292   13.0480   12.5510 H   0  0  0  0  0  0  0  0  0  0  0  0
   47.3082    7.0446   14.4052 H   0  0  0  0  0  0  0  0  0  0  0  0
   48.2223    5.7004   13.7404 H   0  0  0  0  0  0  0  0  0  0  0  0
   50.7021   10.8244   18.7828 H   0  0  0  0  0  0  0  0  0  0  0  0
   49.2088   10.3474   18.0089 H   0  0  0  0  0  0  0  0  0  0  0  0
   48.3529   11.1350   12.1862 H   0  0  0  0  0  0  0  0  0  0  0  0
   48.5025   11.5350   13.8947 H   0  0  0  0  0  0  0  0  0  0  0  0
   47.5019    6.3464   11.4106 H   0  0  0  0  0  0  0  0  0  0  0  0
   46.6382    7.7278   12.0584 H   0  0  0  0  0  0  0  0  0  0  0  0
   49.1159   12.7438   18.5891 H   0  0  0  0  0  0  0  0  0  0  0  0
   49.0342   12.5304   16.8478 H   0  0  0  0  0  0  0  0  0  0  0  0
   43.1925    4.6516   11.7099 H   0  0  0  0  0  0  0  0  0  0  0  0
   42.7652    2.9797   12.0106 H   0  0  0  0  0  0  0  0  0  0  0  0
   51.9382   16.2464   19.0202 H   0  0  0  0  0  0  0  0  0  0  0  0
   52.1065   15.9577   17.2854 H   0  0  0  0  0  0  0  0  0  0  0  0
   53.6133   14.0373   17.7083 H   0  0  0  0  0  0  0  0  0  0  0  0
   53.6199   14.3824   19.4328 H   0  0  0  0  0  0  0  0  0  0  0  0
   45.0067    2.4482   12.8198 H   0  0  0  0  0  0  0  0  0  0  0  0
   44.2867    3.7564   13.7426 H   0  0  0  0  0  0  0  0  0  0  0  0
   50.4444   14.3971   17.3118 H   0  0  0  0  0  0  0  0  0  0  0  0
   51.4540   13.1283   16.6378 H   0  0  0  0  0  0  0  0  0  0  0  0
   52.1743   12.5135   18.9989 H   0  0  0  0  0  0  0  0  0  0  0  0
   51.2151   13.8554   19.6080 H   0  0  0  0  0  0  0  0  0  0  0  0
   45.1461    6.1689   13.3708 H   0  0  0  0  0  0  0  0  0  0  0  0
   45.0138    6.0653   11.6167 H   0  0  0  0  0  0  0  0  0  0  0  0
   46.6590    4.1334   13.3304 H   0  0  0  0  0  0  0  0  0  0  0  0
   46.4514    4.0314   11.5927 H   0  0  0  0  0  0  0  0  0  0  0  0
   44.7810    3.9447    9.9226 H   0  0  0  0  0  0  0  0  0  0  0  0
   44.4536    2.2402   10.2934 H   0  0  0  0  0  0  0  0  0  0  0  0
   43.1765    3.2712    9.6304 H   0  0  0  0  0  0  0  0  0  0  0  0
   53.5648   17.8078   17.9919 H   0  0  0  0  0  0  0  0  0  0  0  0
   54.5537   16.4466   17.4348 H   0  0  0  0  0  0  0  0  0  0  0  0
   54.3754   16.7641   19.1723 H   0  0  0  0  0  0  0  0  0  0  0  0
   51.9373   10.8215   16.6990 H   0  0  0  0  0  0  0  0  0  0  0  0
   51.9618   12.5591   19.2907 H   0  0  0  0  0  0  0  0  0  0  0  0
   51.9893   13.0060   15.8588 H   0  0  0  0  0  0  0  0  0  0  0  0
   49.5083   13.3731   16.6060 H   0  0  0  0  0  0  0  0  0  0  0  0
   49.7418   12.0127   17.7166 H   0  0  0  0  0  0  0  0  0  0  0  0
   48.8845   11.3356   12.6419 H   0  0  0  0  0  0  0  0  0  0  0  0
   50.3789   10.5057   13.1272 H   0  0  0  0  0  0  0  0  0  0  0  0
   53.0106   14.0243   17.8758 H   0  0  0  0  0  0  0  0  0  0  0  0
   51.4194   14.7769   17.6095 H   0  0  0  0  0  0  0  0  0  0  0  0
   47.6627   10.1325   14.5115 H   0  0  0  0  0  0  0  0  0  0  0  0
   49.1291    9.2101   14.8316 H   0  0  0  0  0  0  0  0  0  0  0  0
   47.6020    9.2389   12.1749 H   0  0  0  0  0  0  0  0  0  0  0  0
   49.0969    8.3440   12.4725 H   0  0  0  0  0  0  0  0  0  0  0  0
   47.9932    7.0530   14.2824 H   0  0  0  0  0  0  0  0  0  0  0  0
   46.4910    7.9483   14.0400 H   0  0  0  0  0  0  0  0  0  0  0  0
   47.8527    6.1835   11.9318 H   0  0  0  0  0  0  0  0  0  0  0  0
   46.3823    7.1220   11.6749 H   0  0  0  0  0  0  0  0  0  0  0  0
   45.2192    5.8218   13.4735 H   0  0  0  0  0  0  0  0  0  0  0  0
   45.7437    4.8470   12.1036 H   0  0  0  0  0  0  0  0  0  0  0  0
   47.1363    4.9918   14.8258 H   0  0  0  0  0  0  0  0  0  0  0  0
   46.2311    3.6335   14.1518 H   0  0  0  0  0  0  0  0  0  0  0  0
   47.7711    4.1143   13.4183 H   0  0  0  0  0  0  0  0  0  0  0  0
  1  5  1  0
  1  7  1  0
  2  5  2  0
  3  6  1  0
  4 10  1  0
  5  8  1  0
  6  7  1  0
  6 10  1  0
  8  9  1  0
  9 11  1  0
 11 12  1  0
 12 13  1  0
 13 14  1  0
 14 15  1  0
 15 16  1  0
 16 17  1  0
 19 23  1  0
 20 18  1  0
 21 18  2  0
 22 19  2  0
 23 25  1  0
 24 20  1  0
 25 24  1  0
 26 29  1  0
 27 18  1  0
 28 19  1  0
 29 24  1  0
 30 27  1  0
 31 28  1  0
 32 35  1  0
 33 34  1  0
 34 37  1  0
 35 39  1  0
 36 31  1  0
 37 36  1  0
 38 30  1  0
 39 38  1  0
 40 32  1  0
 41 33  1  0
 42 46  1  0
 42 48  1  0
 43 46  2  0
 44 47  1  0
 45 50  1  0
 46 49  1  0
 47 48  1  0
 47 50  1  0
 49 51  1  0
 51 52  1  0
 52 53  1  0
 53 54  1  0
 54 55  1  0
 55 56  1  0
  3 57  1  0
  4 58  1  0
  6 59  1  1
  7 60  1  0
  7 61  1  0
  8 62  1  0
  8 63  1  0
  9 64  1  0
  9 65  1  0
 10 66  1  0
 10 67  1  0
 11 68  1  0
 11 69  1  0
 12 70  1  0
 12 71  1  0
 13 72  1  0
 13 73  1  0
 14 74  1  0
 14 75  1  0
 15 76  1  0
 15 77  1  0
 16 78  1  0
 16 79  1  0
 17 80  1  0
 17 81  1  0
 17 82  1  0
 24 83  1  1
 25 84  1  0
 25 85  1  0
 26 86  1  0
 27 87  1  0
 27 88  1  0
 28 89  1  0
 28 90  1  0
 29 91  1  0
 29 92  1  0
 30 93  1  0
 30 94  1  0
 31 95  1  0
 31 96  1  0
 32 97  1  0
 32 98  1  0
 33 99  1  0
 33100  1  0
 34101  1  0
 34102  1  0
 35103  1  0
 35104  1  0
 36105  1  0
 36106  1  0
 37107  1  0
 37108  1  0
 38109  1  0
 38110  1  0
 39111  1  0
 39112  1  0
 40113  1  0
 40114  1  0
 40115  1  0
 41116  1  0
 41117  1  0
 41118  1  0
 44119  1  0
 45120  1  0
 47121  1  1
 48122  1  0
 48123  1  0
 49124  1  0
 49125  1  0
 50126  1  0
 50127  1  0
 51128  1  0
 51129  1  0
 52130  1  0
 52131  1  0
 53132  1  0
 53133  1  0
 54134  1  0
 54135  1  0
 55136  1  0
 55137  1  0
 56138  1  0
 56139  1  0
 56140  1  0
M  END
> <Uni-Dock RESULT> 
ENERGY=   -5.734  LOWER_BOUND=    2.554  UPPER_BOUND=    4.066
INTER + INTRA:          -5.734
INTER:                  -5.734
INTRA:                   0.000
UNBOUND:                 0.000

$$$$

     RDKit          3D

140137  0  0  0  0  0  0  0  0999 V2000
   50.1347   11.6540   17.3236 O   0  0  0  0  0  0  0  0  0  0  0  0
   48.5053   12.5406   15.9574 O   0  0  0  0  0  0  0  0  0  0  0  0
   50.6487   13.9142   19.0488 O   0  0  0  0  0  0  0  0  0  0  0  0
   53.5443   11.7582   18.3743 O   0  0  0  0  0  0  0  0  0  0  0  0
   48.8982   11.7042   16.7604 C   0  0  0  0  0  0  0  0  0  0  0  0
   51.6715   13.3050   18.2512 C   0  0  2  0  0  0  0  0  0  0  0  0
   51.0451   12.7159   16.9786 C   0  0  0  0  0  0  0  0  0  0  0  0
   48.0433   10.5729   17.2728 C   0  0  0  0  0  0  0  0  0  0  0  0
   48.5868    9.1947   16.9040 C   0  0  0  0  0  0  0  0  0  0  0  0
   52.4139   12.2523   19.0826 C   0  0  0  0  0  0  0  0  0  0  0  0
   48.7441    8.9356   15.4018 C   0  0  0  0  0  0  0  0  0  0  0  0
   47.4211    8.9808   14.6340 C   0  0  0  0  0  0  0  0  0  0  0  0
   47.5806    8.7060   13.1339 C   0  0  0  0  0  0  0  0  0  0  0  0
   48.1229    7.3222   12.7621 C   0  0  0  0  0  0  0  0  0  0  0  0
   47.3206    6.1311   13.2960 C   0  0  0  0  0  0  0  0  0  0  0  0
   45.8458    6.0956   12.8872 C   0  0  0  0  0  0  0  0  0  0  0  0
   45.6332    6.0337   11.3825 C   0  0  0  0  0  0  0  0  0  0  0  0
   49.0233    7.6458   13.7986 C   0  0  0  0  0  0  0  0  0  0  0  0
   50.2581    9.9818   17.8216 C   0  0  0  0  0  0  0  0  0  0  0  0
   48.8025    8.9668   14.0394 O   0  0  0  0  0  0  0  0  0  0  0  0
   50.1215    7.1171   13.7033 O   0  0  0  0  0  0  0  0  0  0  0  0
   51.3658    9.5525   18.1130 O   0  0  0  0  0  0  0  0  0  0  0  0
   49.7431   10.0523   16.5642 O   0  0  0  0  0  0  0  0  0  0  0  0
   49.9863    9.7898   14.1548 C   0  0  2  0  0  0  0  0  0  0  0  0
   50.6472    9.6168   15.5315 C   0  0  0  0  0  0  0  0  0  0  0  0
   50.6677   12.1186   13.9170 O   0  0  0  0  0  0  0  0  0  0  0  0
   47.7156    6.9144   13.6410 C   0  0  0  0  0  0  0  0  0  0  0  0
   49.2781   10.5283   18.8264 C   0  0  0  0  0  0  0  0  0  0  0  0
   49.5517   11.2382   13.9028 C   0  0  0  0  0  0  0  0  0  0  0  0
   47.1588    7.1162   12.2364 C   0  0  0  0  0  0  0  0  0  0  0  0
   49.1093   12.0420   18.7146 C   0  0  0  0  0  0  0  0  0  0  0  0
   43.7295    4.5917   10.5706 C   0  0  0  0  0  0  0  0  0  0  0  0
   52.1867   15.0025   20.2804 C   0  0  0  0  0  0  0  0  0  0  0  0
   52.3034   13.4944   20.4988 C   0  0  0  0  0  0  0  0  0  0  0  0
   44.5143    4.2373   11.8353 C   0  0  0  0  0  0  0  0  0  0  0  0
   50.3974   12.8543   18.9101 C   0  0  0  0  0  0  0  0  0  0  0  0
   50.9810   12.7404   20.3203 C   0  0  0  0  0  0  0  0  0  0  0  0
   45.7997    6.4458   12.0175 C   0  0  0  0  0  0  0  0  0  0  0  0
   45.8791    4.9174   11.9886 C   0  0  0  0  0  0  0  0  0  0  0  0
   44.4612    4.2460    9.2846 C   0  0  0  0  0  0  0  0  0  0  0  0
   53.4829   15.7190   20.6306 C   0  0  0  0  0  0  0  0  0  0  0  0
   49.6175   11.2090   16.7585 O   0  0  0  0  0  0  0  0  0  0  0  0
   50.2043   12.9644   15.4138 O   0  0  0  0  0  0  0  0  0  0  0  0
   51.5927   10.8270   18.8167 O   0  0  0  0  0  0  0  0  0  0  0  0
   50.6306   12.6761   20.6595 O   0  0  0  0  0  0  0  0  0  0  0  0
   49.8540   11.8004   15.5564 C   0  0  0  0  0  0  0  0  0  0  0  0
   51.1873   12.1350   18.3670 C   0  0  1  0  0  0  0  0  0  0  0  0
   49.7252   12.0736   17.9103 C   0  0  0  0  0  0  0  0  0  0  0  0
   49.7211   10.8235   14.4106 C   0  0  0  0  0  0  0  0  0  0  0  0
   51.3818   13.1098   19.5262 C   0  0  0  0  0  0  0  0  0  0  0  0
   48.6357    9.7700   14.6295 C   0  0  0  0  0  0  0  0  0  0  0  0
   48.4284    8.9090   13.3833 C   0  0  0  0  0  0  0  0  0  0  0  0
   47.3713    7.8303   13.6310 C   0  0  0  0  0  0  0  0  0  0  0  0
   47.1291    6.9906   12.3752 C   0  0  0  0  0  0  0  0  0  0  0  0
   46.0368    5.9340   12.5590 C   0  0  0  0  0  0  0  0  0  0  0  0
   46.4141    4.8419   13.5490 C   0  0  0  0  0  0  0  0  0  0  0  0
   51.0926   14.4557   19.7238 H   0  0  0  0  0  0  0  0  0  0  0  0
   53.9390   11.0588   18.9241 H   0  0  0  0  0  0  0  0  0  0  0  0
   52.3710   14.0918   17.9452 H   0  0  0  0  0  0  0  0  0  0  0  0
   50.5407   13.5185   16.4274 H   0  0  0  0  0  0  0  0  0  0  0  0
   51.8183   12.2885   16.3307 H   0  0  0  0  0  0  0  0  0  0  0  0
   47.0262   10.7067   16.8901 H   0  0  0  0  0  0  0  0  0  0  0  0
   47.9746   10.6729   18.3628 H   0  0  0  0  0  0  0  0  0  0  0  0
   49.5671    9.0540   17.3771 H   0  0  0  0  0  0  0  0  0  0  0  0
   47.9255    8.4311   17.3314 H   0  0  0  0  0  0  0  0  0  0  0  0
   52.7626   12.6964   20.0217 H   0  0  0  0  0  0  0  0  0  0  0  0
   51.7572   11.4152   19.3471 H   0  0  0  0  0  0  0  0  0  0  0  0
   49.2010    7.9463   15.2853 H   0  0  0  0  0  0  0  0  0  0  0  0
   49.4455    9.6567   14.9678 H   0  0  0  0  0  0  0  0  0  0  0  0
   46.7075    8.2745   15.0739 H   0  0  0  0  0  0  0  0  0  0  0  0
   46.9748    9.9759   14.7364 H   0  0  0  0  0  0  0  0  0  0  0  0
   46.6083    8.8547   12.6480 H   0  0  0  0  0  0  0  0  0  0  0  0
   48.2499    9.4631   12.7049 H   0  0  0  0  0  0  0  0  0  0  0  0
   48.1820    7.2570   11.6690 H   0  0  0  0  0  0  0  0  0  0  0  0
   49.1576    7.2305   13.1131 H   0  0  0  0  0  0  0  0  0  0  0  0
   47.3803    6.1110   14.3911 H   0  0  0  0  0  0  0  0  0  0  0  0
   47.8046    5.2084   12.9513 H   0  0  0  0  0  0  0  0  0  0  0  0
   45.3133    6.9622   13.2944 H   0  0  0  0  0  0  0  0  0  0  0  0
   45.3840    5.2090   13.3383 H   0  0  0  0  0  0  0  0  0  0  0  0
   46.1752    5.1904   10.9429 H   0  0  0  0  0  0  0  0  0  0  0  0
   44.5694    5.9068   11.1570 H   0  0  0  0  0  0  0  0  0  0  0  0
   45.9673    6.9527   10.8921 H   0  0  0  0  0  0  0  0  0  0  0  0
   50.7090    9.5099   13.3768 H   0  0  0  0  0  0  0  0  0  0  0  0
   50.8907    8.5642   15.7093 H   0  0  0  0  0  0  0  0  0  0  0  0
   51.5678   10.2105   15.5822 H   0  0  0  0  0  0  0  0  0  0  0  0
   50.3261   13.0141   13.7508 H   0  0  0  0  0  0  0  0  0  0  0  0
   47.0158    7.2674   14.4058 H   0  0  0  0  0  0  0  0  0  0  0  0
   47.9035    5.8566   13.8528 H   0  0  0  0  0  0  0  0  0  0  0  0
   49.6100   10.2391   19.8287 H   0  0  0  0  0  0  0  0  0  0  0  0
   48.3162   10.0267   18.6722 H   0  0  0  0  0  0  0  0  0  0  0  0
   49.0637   11.3117   12.9235 H   0  0  0  0  0  0  0  0  0  0  0  0
   48.8213   11.5723   14.6483 H   0  0  0  0  0  0  0  0  0  0  0  0
   47.8787    6.7501   11.4937 H   0  0  0  0  0  0  0  0  0  0  0  0
   47.0481    8.1919   12.0462 H   0  0  0  0  0  0  0  0  0  0  0  0
   48.3625   12.3688   19.4473 H   0  0  0  0  0  0  0  0  0  0  0  0
   48.7003   12.2852   17.7258 H   0  0  0  0  0  0  0  0  0  0  0  0
   43.4654    5.6543   10.5687 H   0  0  0  0  0  0  0  0  0  0  0  0
   42.7818    4.0416   10.5894 H   0  0  0  0  0  0  0  0  0  0  0  0
   51.3758   15.4088   20.8954 H   0  0  0  0  0  0  0  0  0  0  0  0
   51.9432   15.2158   19.2336 H   0  0  0  0  0  0  0  0  0  0  0  0
   53.0563   13.0807   19.8169 H   0  0  0  0  0  0  0  0  0  0  0  0
   52.6661   13.3060   21.5168 H   0  0  0  0  0  0  0  0  0  0  0  0
   44.6661    3.1512   11.8615 H   0  0  0  0  0  0  0  0  0  0  0  0
   43.8952    4.4823   12.7071 H   0  0  0  0  0  0  0  0  0  0  0  0
   50.1567   13.9029   18.7009 H   0  0  0  0  0  0  0  0  0  0  0  0
   51.1474   12.5539   18.1696 H   0  0  0  0  0  0  0  0  0  0  0  0
   51.1678   11.6890   20.5620 H   0  0  0  0  0  0  0  0  0  0  0  0
   50.2507   13.1077   21.0502 H   0  0  0  0  0  0  0  0  0  0  0  0
   45.0990    6.7714   12.7960 H   0  0  0  0  0  0  0  0  0  0  0  0
   45.4044    6.8042   11.0609 H   0  0  0  0  0  0  0  0  0  0  0  0
   46.3217    4.5528   12.9223 H   0  0  0  0  0  0  0  0  0  0  0  0
   46.5510    4.5965   11.1849 H   0  0  0  0  0  0  0  0  0  0  0  0
   45.3604    4.8541    9.1593 H   0  0  0  0  0  0  0  0  0  0  0  0
   44.7511    3.1908    9.2686 H   0  0  0  0  0  0  0  0  0  0  0  0
   43.8146    4.4310    8.4212 H   0  0  0  0  0  0  0  0  0  0  0  0
   53.3823   16.7941   20.4527 H   0  0  0  0  0  0  0  0  0  0  0  0
   54.3126   15.3489   20.0201 H   0  0  0  0  0  0  0  0  0  0  0  0
   53.7383   15.5716   21.6850 H   0  0  0  0  0  0  0  0  0  0  0  0
   51.3239   10.2034   18.1173 H   0  0  0  0  0  0  0  0  0  0  0  0
   50.8952   11.7442   20.7966 H   0  0  0  0  0  0  0  0  0  0  0  0
   51.8444   12.4106   17.5357 H   0  0  0  0  0  0  0  0  0  0  0  0
   49.3162   13.0682   17.6911 H   0  0  0  0  0  0  0  0  0  0  0  0
   49.0984   11.6176   18.6846 H   0  0  0  0  0  0  0  0  0  0  0  0
   49.4821   11.4057   13.5122 H   0  0  0  0  0  0  0  0  0  0  0  0
   50.6961   10.3457   14.2609 H   0  0  0  0  0  0  0  0  0  0  0  0
   52.4336   13.1405   19.8310 H   0  0  0  0  0  0  0  0  0  0  0  0
   51.0622   14.1229   19.2625 H   0  0  0  0  0  0  0  0  0  0  0  0
   47.6932   10.2621   14.9006 H   0  0  0  0  0  0  0  0  0  0  0  0
   48.9112    9.1257   15.4739 H   0  0  0  0  0  0  0  0  0  0  0  0
   48.1220    9.5432   12.5424 H   0  0  0  0  0  0  0  0  0  0  0  0
   49.3763    8.4316   13.1036 H   0  0  0  0  0  0  0  0  0  0  0  0
   47.7056    7.1887   14.4544 H   0  0  0  0  0  0  0  0  0  0  0  0
   46.4303    8.2982   13.9446 H   0  0  0  0  0  0  0  0  0  0  0  0
   48.0641    6.5057   12.0656 H   0  0  0  0  0  0  0  0  0  0  0  0
   46.8282    7.6543   11.5540 H   0  0  0  0  0  0  0  0  0  0  0  0
   45.1021    6.4114   12.8784 H   0  0  0  0  0  0  0  0  0  0  0  0
   45.8381    5.4667   11.5871 H   0  0  0  0  0  0  0  0  0  0  0  0
   46.5021    5.2350   14.5664 H   0  0  0  0  0  0  0  0  0  0  0  0
   45.6438    4.0635   13.5616 H   0  0  0  0  0  0  0  0  0  0  0  0
   47.3650    4.3735   13.2751 H   0  0  0  0  0  0  0  0  0  0  0  0
  1  5  1  0
  1  7  1  0
  2  5  2  0
  3  6  1  0
  4 10  1  0
  5  8  1  0
  6  7  1  0
  6 10  1  0
  8  9  1  0
  9 11  1  0
 11 12  1  0
 12 13  1  0
 13 14  1  0
 14 15  1  0
 15 16  1  0
 16 17  1  0
 19 23  1  0
 20 18  1  0
 21 18  2  0
 22 19  2  0
 23 25  1  0
 24 20  1  0
 25 24  1  0
 26 29  1  0
 27 18  1  0
 28 19  1  0
 29 24  1  0
 30 27  1  0
 31 28  1  0
 32 35  1  0
 33 34  1  0
 34 37  1  0
 35 39  1  0
 36 31  1  0
 37 36  1  0
 38 30  1  0
 39 38  1  0
 40 32  1  0
 41 33  1  0
 42 46  1  0
 42 48  1  0
 43 46  2  0
 44 47  1  0
 45 50  1  0
 46 49  1  0
 47 48  1  0
 47 50  1  0
 49 51  1  0
 51 52  1  0
 52 53  1  0
 53 54  1  0
 54 55  1  0
 55 56  1  0
  3 57  1  0
  4 58  1  0
  6 59  1  1
  7 60  1  0
  7 61  1  0
  8 62  1  0
  8 63  1  0
  9 64  1  0
  9 65  1  0
 10 66  1  0
 10 67  1  0
 11 68  1  0
 11 69  1  0
 12 70  1  0
 12 71  1  0
 13 72  1  0
 13 73  1  0
 14 74  1  0
 14 75  1  0
 15 76  1  0
 15 77  1  0
 16 78  1  0
 16 79  1  0
 17 80  1  0
 17 81  1  0
 17 82  1  0
 24 83  1  1
 25 84  1  0
 25 85  1  0
 26 86  1  0
 27 87  1  0
 27 88  1  0
 28 89  1  0
 28 90  1  0
 29 91  1  0
 29 92  1  0
 30 93  1  0
 30 94  1  0
 31 95  1  0
 31 96  1  0
 32 97  1  0
 32 98  1  0
 33 99  1  0
 33100  1  0
 34101  1  0
 34102  1  0
 35103  1  0
 35104  1  0
 36105  1  0
 36106  1  0
 37107  1  0
 37108  1  0
 38109  1  0
 38110  1  0
 39111  1  0
 39112  1  0
 40113  1  0
 40114  1  0
 40115  1  0
 41116  1  0
 41117  1  0
 41118  1  0
 44119  1  0
 45120  1  0
 47121  1  1
 48122  1  0
 48123  1  0
 49124  1  0
 49125  1  0
 50126  1  0
 50127  1  0
 51128  1  0
 51129  1  0
 52130  1  0
 52131  1  0
 53132  1  0
 53133  1  0
 54134  1  0
 54135  1  0
 55136  1  0
 55137  1  0
 56138  1  0
 56139  1  0
 56140  1  0
M  END
> <Uni-Dock RESULT> 
ENERGY=   -5.664  LOWER_BOUND=    3.405  UPPER_BOUND=    4.894
INTER + INTRA:          -5.664
INTER:                  -5.664
INTRA:                   0.000
UNBOUND:                 0.000

$$$$

     RDKit          3D

140137  0  0  0  0  0  0  0  0999 V2000
   52.6075   12.0185   13.8524 O   0  0  0  0  0  0  0  0  0  0  0  0
   50.5218   12.9242   13.4825 O   0  0  0  0  0  0  0  0  0  0  0  0
   54.0538   14.3762   14.6884 O   0  0  0  0  0  0  0  0  0  0  0  0
   56.0326   11.8825   12.8569 O   0  0  0  0  0  0  0  0  0  0  0  0
   51.2676   12.1368   14.0504 C   0  0  0  0  0  0  0  0  0  0  0  0
   54.4488   13.5904   13.5570 C   0  0  2  0  0  0  0  0  0  0  0  0
   53.2075   12.9434   12.9250 C   0  0  0  0  0  0  0  0  0  0  0  0
   50.8043   11.1542   15.0960 C   0  0  0  0  0  0  0  0  0  0  0  0
   51.0135    9.6984   14.6867 C   0  0  0  0  0  0  0  0  0  0  0  0
   55.4952   12.5564   13.9886 C   0  0  0  0  0  0  0  0  0  0  0  0
   50.3087    9.2761   13.3931 C   0  0  0  0  0  0  0  0  0  0  0  0
   48.7835    9.3776   13.4693 C   0  0  0  0  0  0  0  0  0  0  0  0
   48.0812    8.9399   12.1785 C   0  0  0  0  0  0  0  0  0  0  0  0
   48.2877    7.4782   11.7682 C   0  0  0  0  0  0  0  0  0  0  0  0
   47.8783    6.4334   12.8113 C   0  0  0  0  0  0  0  0  0  0  0  0
   46.4223    6.5063   13.2784 C   0  0  0  0  0  0  0  0  0  0  0  0
   45.4134    6.3163   12.1563 C   0  0  0  0  0  0  0  0  0  0  0  0
   49.6194    7.8111   12.0928 C   0  0  0  0  0  0  0  0  0  0  0  0
   52.9360   10.4005   14.4300 C   0  0  0  0  0  0  0  0  0  0  0  0
   49.6070    9.1651   12.2287 O   0  0  0  0  0  0  0  0  0  0  0  0
   50.4669    7.1675   11.4910 O   0  0  0  0  0  0  0  0  0  0  0  0
   54.0075    9.8929   14.1295 O   0  0  0  0  0  0  0  0  0  0  0  0
   51.8153   10.3967   13.6584 O   0  0  0  0  0  0  0  0  0  0  0  0
   50.6816    9.8719   11.5674 C   0  0  2  0  0  0  0  0  0  0  0  0
   51.9868    9.7714   12.3727 C   0  0  0  0  0  0  0  0  0  0  0  0
   51.1870   12.0847   10.6771 O   0  0  0  0  0  0  0  0  0  0  0  0
   48.4208    7.2033   12.7739 C   0  0  0  0  0  0  0  0  0  0  0  0
   52.6891   11.1406   15.7184 C   0  0  0  0  0  0  0  0  0  0  0  0
   50.2229   11.3244   11.3935 C   0  0  0  0  0  0  0  0  0  0  0  0
   47.1880    7.3191   11.8848 C   0  0  0  0  0  0  0  0  0  0  0  0
   52.5312   12.6448   15.5073 C   0  0  0  0  0  0  0  0  0  0  0  0
   43.3363    4.9998   12.7177 C   0  0  0  0  0  0  0  0  0  0  0  0
   56.0472   15.4212   14.7222 C   0  0  0  0  0  0  0  0  0  0  0  0
   56.2206   13.9384   15.0491 C   0  0  0  0  0  0  0  0  0  0  0  0
   44.6776    4.6961   13.3882 C   0  0  0  0  0  0  0  0  0  0  0  0
   53.7367   13.3385   14.8571 C   0  0  0  0  0  0  0  0  0  0  0  0
   54.9976   13.3077   15.7240 C   0  0  0  0  0  0  0  0  0  0  0  0
   45.9145    6.7708   12.5345 C   0  0  0  0  0  0  0  0  0  0  0  0
   45.9199    5.2469   12.6797 C   0  0  0  0  0  0  0  0  0  0  0  0
   43.2270    4.4554   11.3033 C   0  0  0  0  0  0  0  0  0  0  0  0
   57.3419   16.0347   14.2090 C   0  0  0  0  0  0  0  0  0  0  0  0
   51.8517   11.5737   13.7270 O   0  0  0  0  0  0  0  0  0  0  0  0
   51.6509   13.1181   12.0510 O   0  0  0  0  0  0  0  0  0  0  0  0
   54.6222   11.2018   14.4122 O   0  0  0  0  0  0  0  0  0  0  0  0
   54.8906   13.3131   16.2041 O   0  0  0  0  0  0  0  0  0  0  0  0
   51.4033   12.0153   12.5209 C   0  0  0  0  0  0  0  0  0  0  0  0
   54.0746   12.4926   14.0782 C   0  0  1  0  0  0  0  0  0  0  0  0
   52.6021   12.5337   14.5024 C   0  0  0  0  0  0  0  0  0  0  0  0
   50.6320   10.9475   11.7797 C   0  0  0  0  0  0  0  0  0  0  0  0
   54.9046   13.5536   14.7974 C   0  0  0  0  0  0  0  0  0  0  0  0
   49.8168   10.0359   12.6965 C   0  0  0  0  0  0  0  0  0  0  0  0
   48.9315    9.0801   11.8966 C   0  0  0  0  0  0  0  0  0  0  0  0
   48.1551    8.1437   12.8254 C   0  0  0  0  0  0  0  0  0  0  0  0
   47.2361    7.2116   12.0334 C   0  0  0  0  0  0  0  0  0  0  0  0
   46.3958    6.2943   12.9254 C   0  0  0  0  0  0  0  0  0  0  0  0
   47.2243    5.2740   13.6921 C   0  0  0  0  0  0  0  0  0  0  0  0
   54.8120   14.9348   14.9312 H   0  0  0  0  0  0  0  0  0  0  0  0
   56.6443   11.2053   13.1950 H   0  0  0  0  0  0  0  0  0  0  0  0
   54.8863   14.2680   12.8145 H   0  0  0  0  0  0  0  0  0  0  0  0
   52.5065   13.7338   12.6309 H   0  0  0  0  0  0  0  0  0  0  0  0
   53.4823   12.3777   12.0279 H   0  0  0  0  0  0  0  0  0  0  0  0
   49.7492   11.3511   15.3126 H   0  0  0  0  0  0  0  0  0  0  0  0
   51.3509   11.3689   16.0221 H   0  0  0  0  0  0  0  0  0  0  0  0
   52.0875    9.5074   14.5658 H   0  0  0  0  0  0  0  0  0  0  0  0
   50.6754    9.0519   15.5058 H   0  0  0  0  0  0  0  0  0  0  0  0
   56.3169   13.0545   14.5155 H   0  0  0  0  0  0  0  0  0  0  0  0
   55.0691   11.8204   14.6805 H   0  0  0  0  0  0  0  0  0  0  0  0
   50.5963    8.2391   13.1859 H   0  0  0  0  0  0  0  0  0  0  0  0
   50.6752    9.8759   12.5527 H   0  0  0  0  0  0  0  0  0  0  0  0
   48.4105    8.7944   14.3192 H   0  0  0  0  0  0  0  0  0  0  0  0
   48.4972   10.4180   13.6583 H   0  0  0  0  0  0  0  0  0  0  0  0
   47.0070    9.1366   12.2833 H   0  0  0  0  0  0  0  0  0  0  0  0
   48.4249    9.5789   11.3547 H   0  0  0  0  0  0  0  0  0  0  0  0
   47.7322    7.2986   10.8399 H   0  0  0  0  0  0  0  0  0  0  0  0
   49.3412    7.3181   11.5099 H   0  0  0  0  0  0  0  0  0  0  0  0
   48.5313    6.5168   13.6888 H   0  0  0  0  0  0  0  0  0  0  0  0
   48.0646    5.4369   12.3912 H   0  0  0  0  0  0  0  0  0  0  0  0
   46.2284    7.4585   13.7846 H   0  0  0  0  0  0  0  0  0  0  0  0
   46.2601    5.7202   14.0259 H   0  0  0  0  0  0  0  0  0  0  0  0
   45.5981    5.3829   11.6150 H   0  0  0  0  0  0  0  0  0  0  0  0
   44.3985    6.2754   12.5648 H   0  0  0  0  0  0  0  0  0  0  0  0
   45.4485    7.1433   11.4411 H   0  0  0  0  0  0  0  0  0  0  0  0
   50.8469    9.4443   10.5695 H   0  0  0  0  0  0  0  0  0  0  0  0
   52.2569    8.7226   12.5339 H   0  0  0  0  0  0  0  0  0  0  0  0
   52.7996   10.2712   11.8324 H   0  0  0  0  0  0  0  0  0  0  0  0
   50.8368   12.9890   10.6006 H   0  0  0  0  0  0  0  0  0  0  0  0
   48.2695    7.6998   13.7382 H   0  0  0  0  0  0  0  0  0  0  0  0
   48.6632    6.1584   12.9941 H   0  0  0  0  0  0  0  0  0  0  0  0
   53.5101   10.9208   16.4085 H   0  0  0  0  0  0  0  0  0  0  0  0
   51.7874   10.7257   16.1826 H   0  0  0  0  0  0  0  0  0  0  0  0
   49.2782   11.3486   10.8372 H   0  0  0  0  0  0  0  0  0  0  0  0
   50.0349   11.8031   12.3611 H   0  0  0  0  0  0  0  0  0  0  0  0
   47.3678    6.8100   10.9297 H   0  0  0  0  0  0  0  0  0  0  0  0
   47.0224    8.3761   11.6382 H   0  0  0  0  0  0  0  0  0  0  0  0
   52.3222   13.1168   16.4742 H   0  0  0  0  0  0  0  0  0  0  0  0
   51.6521   12.8282   14.8767 H   0  0  0  0  0  0  0  0  0  0  0  0
   43.1463    6.0781   12.7120 H   0  0  0  0  0  0  0  0  0  0  0  0
   42.5405    4.5528   13.3241 H   0  0  0  0  0  0  0  0  0  0  0  0
   55.7222   15.9666   15.6155 H   0  0  0  0  0  0  0  0  0  0  0  0
   55.2731   15.5524   13.9578 H   0  0  0  0  0  0  0  0  0  0  0  0
   56.4601   13.3849   14.1330 H   0  0  0  0  0  0  0  0  0  0  0  0
   57.0788   13.8169   15.7215 H   0  0  0  0  0  0  0  0  0  0  0  0
   44.7867    3.6083   13.4783 H   0  0  0  0  0  0  0  0  0  0  0  0
   44.6494    5.0881   14.4123 H   0  0  0  0  0  0  0  0  0  0  0  0
   53.4515   14.3799   14.6690 H   0  0  0  0  0  0  0  0  0  0  0  0
   53.9448   12.8915   13.8783 H   0  0  0  0  0  0  0  0  0  0  0  0
   55.2557   12.2722   15.9687 H   0  0  0  0  0  0  0  0  0  0  0  0
   54.8020   13.8177   16.6740 H   0  0  0  0  0  0  0  0  0  0  0  0
   45.7692    7.2414   13.5146 H   0  0  0  0  0  0  0  0  0  0  0  0
   45.0680    7.0700   11.9072 H   0  0  0  0  0  0  0  0  0  0  0  0
   46.7931    4.9345   13.2633 H   0  0  0  0  0  0  0  0  0  0  0  0
   46.0274    4.7813   11.6938 H   0  0  0  0  0  0  0  0  0  0  0  0
   43.9253    4.9542   10.6269 H   0  0  0  0  0  0  0  0  0  0  0  0
   43.4289    3.3801   11.2791 H   0  0  0  0  0  0  0  0  0  0  0  0
   42.2172    4.6177   10.9136 H   0  0  0  0  0  0  0  0  0  0  0  0
   57.1915   17.0913   13.9670 H   0  0  0  0  0  0  0  0  0  0  0  0
   57.6861   15.5237   13.3043 H   0  0  0  0  0  0  0  0  0  0  0  0
   58.1320   15.9683   14.9641 H   0  0  0  0  0  0  0  0  0  0  0  0
   53.9941   10.5418   14.0654 H   0  0  0  0  0  0  0  0  0  0  0  0
   55.1595   12.3777   16.3033 H   0  0  0  0  0  0  0  0  0  0  0  0
   54.1721   12.6161   12.9947 H   0  0  0  0  0  0  0  0  0  0  0  0
   52.1694   13.5376   14.4048 H   0  0  0  0  0  0  0  0  0  0  0  0
   52.4931   12.2228   15.5473 H   0  0  0  0  0  0  0  0  0  0  0  0
   49.9544   11.4581   11.0846 H   0  0  0  0  0  0  0  0  0  0  0  0
   51.3482   10.3612   11.1926 H   0  0  0  0  0  0  0  0  0  0  0  0
   55.9504   13.5083   14.4745 H   0  0  0  0  0  0  0  0  0  0  0  0
   54.5225   14.5624   14.6119 H   0  0  0  0  0  0  0  0  0  0  0  0
   49.1951   10.6452   13.3645 H   0  0  0  0  0  0  0  0  0  0  0  0
   50.4933    9.4546   13.3357 H   0  0  0  0  0  0  0  0  0  0  0  0
   48.2310    9.6550   11.2784 H   0  0  0  0  0  0  0  0  0  0  0  0
   49.5535    8.4840   11.2165 H   0  0  0  0  0  0  0  0  0  0  0  0
   48.8691    7.5571   13.4149 H   0  0  0  0  0  0  0  0  0  0  0  0
   47.5574    8.7331   13.5311 H   0  0  0  0  0  0  0  0  0  0  0  0
   47.8306    6.6064   11.3367 H   0  0  0  0  0  0  0  0  0  0  0  0
   46.5518    7.8171   11.4245 H   0  0  0  0  0  0  0  0  0  0  0  0
   45.8067    6.8930   13.6311 H   0  0  0  0  0  0  0  0  0  0  0  0
   45.6804    5.7547   12.2932 H   0  0  0  0  0  0  0  0  0  0  0  0
   47.8702    5.7557   14.4323 H   0  0  0  0  0  0  0  0  0  0  0  0
   46.5661    4.5824   14.2288 H   0  0  0  0  0  0  0  0  0  0  0  0
   47.8522    4.6870   13.0140 H   0  0  0  0  0  0  0  0  0  0  0  0
  1  5  1  0
  1  7  1  0
  2  5  2  0
  3  6  1  0
  4 10  1  0
  5  8  1  0
  6  7  1  0
  6 10  1  0
  8  9  1  0
  9 11  1  0
 11 12  1  0
 12 13  1  0
 13 14  1  0
 14 15  1  0
 15 16  1  0
 16 17  1  0
 19 23  1  0
 20 18  1  0
 21 18  2  0
 22 19  2  0
 23 25  1  0
 24 20  1  0
 25 24  1  0
 26 29  1  0
 27 18  1  0
 28 19  1  0
 29 24  1  0
 30 27  1  0
 31 28  1  0
 32 35  1  0
 33 34  1  0
 34 37  1  0
 35 39  1  0
 36 31  1  0
 37 36  1  0
 38 30  1  0
 39 38  1  0
 40 32  1  0
 41 33  1  0
 42 46  1  0
 42 48  1  0
 43 46  2  0
 44 47  1  0
 45 50  1  0
 46 49  1  0
 47 48  1  0
 47 50  1  0
 49 51  1  0
 51 52  1  0
 52 53  1  0
 53 54  1  0
 54 55  1  0
 55 56  1  0
  3 57  1  0
  4 58  1  0
  6 59  1  1
  7 60  1  0
  7 61  1  0
  8 62  1  0
  8 63  1  0
  9 64  1  0
  9 65  1  0
 10 66  1  0
 10 67  1  0
 11 68  1  0
 11 69  1  0
 12 70  1  0
 12 71  1  0
 13 72  1  0
 13 73  1  0
 14 74  1  0
 14 75  1  0
 15 76  1  0
 15 77  1  0
 16 78  1  0
 16 79  1  0
 17 80  1  0
 17 81  1  0
 17 82  1  0
 24 83  1  1
 25 84  1  0
 25 85  1  0
 26 86  1  0
 27 87  1  0
 27 88  1  0
 28 89  1  0
 28 90  1  0
 29 91  1  0
 29 92  1  0
 30 93  1  0
 30 94  1  0
 31 95  1  0
 31 96  1  0
 32 97  1  0
 32 98  1  0
 33 99  1  0
 33100  1  0
 34101  1  0
 34102  1  0
 35103  1  0
 35104  1  0
 36105  1  0
 36106  1  0
 37107  1  0
 37108  1  0
 38109  1  0
 38110  1  0
 39111  1  0
 39112  1  0
 40113  1  0
 40114  1  0
 40115  1  0
 41116  1  0
 41117  1  0
 41118  1  0
 44119  1  0
 45120  1  0
 47121  1  1
 48122  1  0
 48123  1  0
 49124  1  0
 49125  1  0
 50126  1  0
 50127  1  0
 51128  1  0
 51129  1  0
 52130  1  0
 52131  1  0
 53132  1  0
 53133  1  0
 54134  1  0
 54135  1  0
 55136  1  0
 55137  1  0
 56138  1  0
 56139  1  0
 56140  1  0
M  END
> <Uni-Dock RESULT> 
ENERGY=   -5.388  LOWER_BOUND=    1.365  UPPER_BOUND=    2.939
INTER + INTRA:          -5.388
INTER:                  -5.388
INTRA:                   0.000
UNBOUND:                 0.000

$$$$

     RDKit          3D

140137  0  0  0  0  0  0  0  0999 V2000
   43.6100   16.0601   13.1317 O   0  0  0  0  0  0  0  0  0  0  0  0
   45.7678   16.8501   12.9671 O   0  0  0  0  0  0  0  0  0  0  0  0
   42.5066   17.9580   15.0104 O   0  0  0  0  0  0  0  0  0  0  0  0
   41.1190   14.5631   15.2041 O   0  0  0  0  0  0  0  0  0  0  0  0
   44.6887   16.5560   12.4692 C   0  0  0  0  0  0  0  0  0  0  0  0
   42.5246   16.5471   15.2608 C   0  0  2  0  0  0  0  0  0  0  0  0
   43.7379   15.9185   14.5596 C   0  0  0  0  0  0  0  0  0  0  0  0
   44.3757   16.7127   11.0026 C   0  0  0  0  0  0  0  0  0  0  0  0
   44.0646   15.3882   10.3100 C   0  0  0  0  0  0  0  0  0  0  0  0
   41.1976   15.9272   14.8079 C   0  0  0  0  0  0  0  0  0  0  0  0
   45.1797   14.3391   10.3766 C   0  0  0  0  0  0  0  0  0  0  0  0
   46.4701   14.7765    9.6797 C   0  0  0  0  0  0  0  0  0  0  0  0
   47.5782   13.7182    9.7353 C   0  0  0  0  0  0  0  0  0  0  0  0
   47.2688   12.3896    9.0378 C   0  0  0  0  0  0  0  0  0  0  0  0
   46.8969   12.4909    7.5549 C   0  0  0  0  0  0  0  0  0  0  0  0
   47.9386   13.1683    6.6608 C   0  0  0  0  0  0  0  0  0  0  0  0
   49.2848   12.4606    6.6519 C   0  0  0  0  0  0  0  0  0  0  0  0
   46.0524   12.5696    9.7290 C   0  0  0  0  0  0  0  0  0  0  0  0
   42.6981   15.2915   11.8521 C   0  0  0  0  0  0  0  0  0  0  0  0
   46.3007   13.5924   10.5916 O   0  0  0  0  0  0  0  0  0  0  0  0
   45.4669   11.5335   10.0088 O   0  0  0  0  0  0  0  0  0  0  0  0
   41.8102   14.5130   12.1711 O   0  0  0  0  0  0  0  0  0  0  0  0
   44.0170   14.9796   11.7308 O   0  0  0  0  0  0  0  0  0  0  0  0
   45.8497   13.3903   11.9508 C   0  0  2  0  0  0  0  0  0  0  0  0
   44.3341   13.6164   12.0693 C   0  0  0  0  0  0  0  0  0  0  0  0
   46.3278   14.1742   14.2094 O   0  0  0  0  0  0  0  0  0  0  0  0
   46.6221   12.8788    8.3690 C   0  0  0  0  0  0  0  0  0  0  0  0
   42.4697   16.7505   11.5560 C   0  0  0  0  0  0  0  0  0  0  0  0
   46.6467   14.3555   12.8360 C   0  0  0  0  0  0  0  0  0  0  0  0
   48.1185   12.5894    8.3406 C   0  0  0  0  0  0  0  0  0  0  0  0
   43.0386   17.6629   12.6405 C   0  0  0  0  0  0  0  0  0  0  0  0
   50.5038   12.3831    4.4450 C   0  0  0  0  0  0  0  0  0  0  0  0
   41.0196   18.2843   16.6685 C   0  0  0  0  0  0  0  0  0  0  0  0
   40.3880   17.4645   15.5440 C   0  0  0  0  0  0  0  0  0  0  0  0
   48.9753   12.3685    4.5118 C   0  0  0  0  0  0  0  0  0  0  0  0
   42.4675   17.4327   14.0469 C   0  0  0  0  0  0  0  0  0  0  0  0
   40.9764   17.7586   14.1597 C   0  0  0  0  0  0  0  0  0  0  0  0
   48.7803   12.9327    7.0031 C   0  0  0  0  0  0  0  0  0  0  0  0
   48.3683   11.9921    5.8678 C   0  0  0  0  0  0  0  0  0  0  0  0
   51.1393   11.0430    4.7752 C   0  0  0  0  0  0  0  0  0  0  0  0
   40.2902   18.0769   17.9879 C   0  0  0  0  0  0  0  0  0  0  0  0
   44.2158   15.8243   12.5298 O   0  0  0  0  0  0  0  0  0  0  0  0
   45.5171   15.7468   14.4099 O   0  0  0  0  0  0  0  0  0  0  0  0
   41.4436   15.4785   13.2221 O   0  0  0  0  0  0  0  0  0  0  0  0
   40.8440   18.1208   13.8542 O   0  0  0  0  0  0  0  0  0  0  0  0
   45.2629   15.3737   13.2723 C   0  0  0  0  0  0  0  0  0  0  0  0
   42.3557   16.2395   14.0386 C   0  0  1  0  0  0  0  0  0  0  0  0
   43.4245   16.8685   13.1377 C   0  0  0  0  0  0  0  0  0  0  0  0
   46.0319   14.2841   12.5610 C   0  0  0  0  0  0  0  0  0  0  0  0
   41.5452   17.2968   14.7850 C   0  0  0  0  0  0  0  0  0  0  0  0
   46.0958   14.4718   11.0455 C   0  0  0  0  0  0  0  0  0  0  0  0
   47.0149   13.4411   10.3895 C   0  0  0  0  0  0  0  0  0  0  0  0
   47.0345   13.6121    8.8687 C   0  0  0  0  0  0  0  0  0  0  0  0
   47.9839   12.6102    8.2089 C   0  0  0  0  0  0  0  0  0  0  0  0
   48.0796   12.7816    6.6907 C   0  0  0  0  0  0  0  0  0  0  0  0
   46.7848   12.4507    5.9633 C   0  0  0  0  0  0  0  0  0  0  0  0
   41.8690   18.3533   15.6295 H   0  0  0  0  0  0  0  0  0  0  0  0
   40.2868   14.2110   14.8425 H   0  0  0  0  0  0  0  0  0  0  0  0
   42.6497   16.3998   16.3399 H   0  0  0  0  0  0  0  0  0  0  0  0
   44.6509   16.3972   14.9337 H   0  0  0  0  0  0  0  0  0  0  0  0
   43.7978   14.8470   14.7798 H   0  0  0  0  0  0  0  0  0  0  0  0
   45.2197   17.2167   10.5204 H   0  0  0  0  0  0  0  0  0  0  0  0
   43.5219   17.3954   10.9140 H   0  0  0  0  0  0  0  0  0  0  0  0
   43.1608   14.9515   10.7537 H   0  0  0  0  0  0  0  0  0  0  0  0
   43.8256   15.5900    9.2587 H   0  0  0  0  0  0  0  0  0  0  0  0
   40.3591   16.4669   15.2623 H   0  0  0  0  0  0  0  0  0  0  0  0
   41.0735   15.9968   13.7208 H   0  0  0  0  0  0  0  0  0  0  0  0
   44.8001   13.4261    9.9038 H   0  0  0  0  0  0  0  0  0  0  0  0
   45.3939   14.0845   11.4204 H   0  0  0  0  0  0  0  0  0  0  0  0
   46.2605   15.0503    8.6392 H   0  0  0  0  0  0  0  0  0  0  0  0
   46.8578   15.6788   10.1652 H   0  0  0  0  0  0  0  0  0  0  0  0
   48.4910   14.1477    9.3041 H   0  0  0  0  0  0  0  0  0  0  0  0
   47.8130   13.5068   10.7866 H   0  0  0  0  0  0  0  0  0  0  0  0
   48.1388   11.7312    9.1478 H   0  0  0  0  0  0  0  0  0  0  0  0
   46.4538   11.8819    9.5672 H   0  0  0  0  0  0  0  0  0  0  0  0
   45.9459   13.0277    7.4520 H   0  0  0  0  0  0  0  0  0  0  0  0
   46.7128   11.4773    7.1767 H   0  0  0  0  0  0  0  0  0  0  0  0
   48.0790   14.2134    6.9584 H   0  0  0  0  0  0  0  0  0  0  0  0
   47.5517   13.1883    5.6348 H   0  0  0  0  0  0  0  0  0  0  0  0
   49.1730   11.4057    6.3820 H   0  0  0  0  0  0  0  0  0  0  0  0
   49.9516   12.9283    5.9203 H   0  0  0  0  0  0  0  0  0  0  0  0
   49.7743   12.5175    7.6286 H   0  0  0  0  0  0  0  0  0  0  0  0
   46.0812   12.3651   12.2691 H   0  0  0  0  0  0  0  0  0  0  0  0
   43.7942   12.9571   11.3819 H   0  0  0  0  0  0  0  0  0  0  0  0
   44.0040   13.4118   13.0948 H   0  0  0  0  0  0  0  0  0  0  0  0
   46.8643   14.8107   14.7127 H   0  0  0  0  0  0  0  0  0  0  0  0
   46.4098   13.9246    8.1233 H   0  0  0  0  0  0  0  0  0  0  0  0
   46.0791   12.2691    7.6393 H   0  0  0  0  0  0  0  0  0  0  0  0
   41.3955   16.9143   11.4230 H   0  0  0  0  0  0  0  0  0  0  0  0
   42.9304   16.9783   10.5883 H   0  0  0  0  0  0  0  0  0  0  0  0
   47.7204   14.1773   12.7021 H   0  0  0  0  0  0  0  0  0  0  0  0
   46.4602   15.3992   12.5588 H   0  0  0  0  0  0  0  0  0  0  0  0
   48.2994   11.5355    8.5861 H   0  0  0  0  0  0  0  0  0  0  0  0
   48.6111   13.1730    9.1295 H   0  0  0  0  0  0  0  0  0  0  0  0
   42.8689   18.7058   12.3490 H   0  0  0  0  0  0  0  0  0  0  0  0
   44.1265   17.5279   12.6886 H   0  0  0  0  0  0  0  0  0  0  0  0
   50.9089   13.1550    5.1074 H   0  0  0  0  0  0  0  0  0  0  0  0
   50.8001   12.6666    3.4287 H   0  0  0  0  0  0  0  0  0  0  0  0
   40.9999   19.3497   16.4124 H   0  0  0  0  0  0  0  0  0  0  0  0
   42.0689   17.9983   16.8023 H   0  0  0  0  0  0  0  0  0  0  0  0
   40.4897   16.3952   15.7660 H   0  0  0  0  0  0  0  0  0  0  0  0
   39.3121   17.6754   15.5065 H   0  0  0  0  0  0  0  0  0  0  0  0
   48.5977   11.6658    3.7588 H   0  0  0  0  0  0  0  0  0  0  0  0
   48.6065   13.3595    4.2200 H   0  0  0  0  0  0  0  0  0  0  0  0
   43.0314   18.0712   14.7366 H   0  0  0  0  0  0  0  0  0  0  0  0
   42.6491   16.3988   14.3618 H   0  0  0  0  0  0  0  0  0  0  0  0
   40.4106   17.1694   13.4308 H   0  0  0  0  0  0  0  0  0  0  0  0
   40.8117   18.8129   13.9101 H   0  0  0  0  0  0  0  0  0  0  0  0
   48.5497   13.9707    6.7339 H   0  0  0  0  0  0  0  0  0  0  0  0
   49.8646   12.8724    7.1455 H   0  0  0  0  0  0  0  0  0  0  0  0
   47.2788   12.0073    5.7525 H   0  0  0  0  0  0  0  0  0  0  0  0
   48.6351   10.9613    6.1256 H   0  0  0  0  0  0  0  0  0  0  0  0
   50.9706   10.7658    5.8187 H   0  0  0  0  0  0  0  0  0  0  0  0
   50.7387   10.2497    4.1366 H   0  0  0  0  0  0  0  0  0  0  0  0
   52.2212   11.0892    4.6168 H   0  0  0  0  0  0  0  0  0  0  0  0
   40.7674   18.6603   18.7813 H   0  0  0  0  0  0  0  0  0  0  0  0
   40.3065   17.0230   18.2832 H   0  0  0  0  0  0  0  0  0  0  0  0
   39.2460   18.3974   17.9118 H   0  0  0  0  0  0  0  0  0  0  0  0
   41.9962   14.9143   12.6505 H   0  0  0  0  0  0  0  0  0  0  0  0
   40.3594   17.4957   13.2783 H   0  0  0  0  0  0  0  0  0  0  0  0
   42.8079   15.5448   14.7539 H   0  0  0  0  0  0  0  0  0  0  0  0
   44.0635   17.5753   13.6822 H   0  0  0  0  0  0  0  0  0  0  0  0
   42.9585   17.4105   12.3074 H   0  0  0  0  0  0  0  0  0  0  0  0
   47.0508   14.2859   12.9674 H   0  0  0  0  0  0  0  0  0  0  0  0
   45.5646   13.3245   12.8102 H   0  0  0  0  0  0  0  0  0  0  0  0
   40.7926   16.8239   15.4253 H   0  0  0  0  0  0  0  0  0  0  0  0
   42.1833   17.9349   15.4043 H   0  0  0  0  0  0  0  0  0  0  0  0
   46.4497   15.4842   10.8137 H   0  0  0  0  0  0  0  0  0  0  0  0
   45.0885   14.3827   10.6195 H   0  0  0  0  0  0  0  0  0  0  0  0
   48.0315   13.5454   10.7882 H   0  0  0  0  0  0  0  0  0  0  0  0
   46.6694   12.4291   10.6371 H   0  0  0  0  0  0  0  0  0  0  0  0
   46.0172   13.4769    8.4836 H   0  0  0  0  0  0  0  0  0  0  0  0
   47.3457   14.6325    8.6142 H   0  0  0  0  0  0  0  0  0  0  0  0
   47.6677   11.5860    8.4460 H   0  0  0  0  0  0  0  0  0  0  0  0
   48.9890   12.7385    8.6316 H   0  0  0  0  0  0  0  0  0  0  0  0
   48.3854   13.8066    6.4468 H   0  0  0  0  0  0  0  0  0  0  0  0
   48.8673   12.1178    6.3149 H   0  0  0  0  0  0  0  0  0  0  0  0
   45.9929   13.1650    6.2077 H   0  0  0  0  0  0  0  0  0  0  0  0
   46.9417   12.4899    4.8800 H   0  0  0  0  0  0  0  0  0  0  0  0
   46.4354   11.4451    6.2189 H   0  0  0  0  0  0  0  0  0  0  0  0
  1  5  1  0
  1  7  1  0
  2  5  2  0
  3  6  1  0
  4 10  1  0
  5  8  1  0
  6  7  1  0
  6 10  1  0
  8  9  1  0
  9 11  1  0
 11 12  1  0
 12 13  1  0
 13 14  1  0
 14 15  1  0
 15 16  1  0
 16 17  1  0
 19 23  1  0
 20 18  1  0
 21 18  2  0
 22 19  2  0
 23 25  1  0
 24 20  1  0
 25 24  1  0
 26 29  1  0
 27 18  1  0
 28 19  1  0
 29 24  1  0
 30 27  1  0
 31 28  1  0
 32 35  1  0
 33 34  1  0
 34 37  1  0
 35 39  1  0
 36 31  1  0
 37 36  1  0
 38 30  1  0
 39 38  1  0
 40 32  1  0
 41 33  1  0
 42 46  1  0
 42 48  1  0
 43 46  2  0
 44 47  1  0
 45 50  1  0
 46 49  1  0
 47 48  1  0
 47 50  1  0
 49 51  1  0
 51 52  1  0
 52 53  1  0
 53 54  1  0
 54 55  1  0
 55 56  1  0
  3 57  1  0
  4 58  1  0
  6 59  1  1
  7 60  1  0
  7 61  1  0
  8 62  1  0
  8 63  1  0
  9 64  1  0
  9 65  1  0
 10 66  1  0
 10 67  1  0
 11 68  1  0
 11 69  1  0
 12 70  1  0
 12 71  1  0
 13 72  1  0
 13 73  1  0
 14 74  1  0
 14 75  1  0
 15 76  1  0
 15 77  1  0
 16 78  1  0
 16 79  1  0
 17 80  1  0
 17 81  1  0
 17 82  1  0
 24 83  1  1
 25 84  1  0
 25 85  1  0
 26 86  1  0
 27 87  1  0
 27 88  1  0
 28 89  1  0
 28 90  1  0
 29 91  1  0
 29 92  1  0
 30 93  1  0
 30 94  1  0
 31 95  1  0
 31 96  1  0
 32 97  1  0
 32 98  1  0
 33 99  1  0
 33100  1  0
 34101  1  0
 34102  1  0
 35103  1  0
 35104  1  0
 36105  1  0
 36106  1  0
 37107  1  0
 37108  1  0
 38109  1  0
 38110  1  0
 39111  1  0
 39112  1  0
 40113  1  0
 40114  1  0
 40115  1  0
 41116  1  0
 41117  1  0
 41118  1  0
 44119  1  0
 45120  1  0
 47121  1  1
 48122  1  0
 48123  1  0
 49124  1  0
 49125  1  0
 50126  1  0
 50127  1  0
 51128  1  0
 51129  1  0
 52130  1  0
 52131  1  0
 53132  1  0
 53133  1  0
 54134  1  0
 54135  1  0
 55136  1  0
 55137  1  0
 56138  1  0
 56139  1  0
 56140  1  0
M  END
> <Uni-Dock RESULT> 
ENERGY=   -5.249  LOWER_BOUND=    7.299  UPPER_BOUND=    9.866
INTER + INTRA:          -5.249
INTER:                  -5.249
INTRA:                   0.000
UNBOUND:                 0.000

$$$$

     RDKit          3D

140137  0  0  0  0  0  0  0  0999 V2000
   49.9386    7.8207   18.5693 O   0  0  0  0  0  0  0  0  0  0  0  0
   51.4515    9.2742   17.6177 O   0  0  0  0  0  0  0  0  0  0  0  0
   51.1381    7.4573   21.1728 O   0  0  0  0  0  0  0  0  0  0  0  0
   49.3320    4.5452   19.8515 O   0  0  0  0  0  0  0  0  0  0  0  0
   50.3190    8.9869   17.9831 C   0  0  0  0  0  0  0  0  0  0  0  0
   50.8881    6.3646   20.2800 C   0  0  2  0  0  0  0  0  0  0  0  0
   50.9791    6.8587   18.8286 C   0  0  0  0  0  0  0  0  0  0  0  0
   49.1374    9.9133   17.8454 C   0  0  0  0  0  0  0  0  0  0  0  0
   48.0412    9.3580   16.9394 C   0  0  0  0  0  0  0  0  0  0  0  0
   49.5271    5.7371   20.6031 C   0  0  0  0  0  0  0  0  0  0  0  0
   48.4777    9.0420   15.5049 C   0  0  0  0  0  0  0  0  0  0  0  0
   48.9517   10.2720   14.7274 C   0  0  0  0  0  0  0  0  0  0  0  0
   49.3732    9.9543   13.2877 C   0  0  0  0  0  0  0  0  0  0  0  0
   48.2734    9.4000   12.3764 C   0  0  0  0  0  0  0  0  0  0  0  0
   47.0254   10.2775   12.2352 C   0  0  0  0  0  0  0  0  0  0  0  0
   47.2757   11.6991   11.7255 C   0  0  0  0  0  0  0  0  0  0  0  0
   47.9133   11.7469   10.3455 C   0  0  0  0  0  0  0  0  0  0  0  0
   48.0343    8.6127   13.5222 C   0  0  0  0  0  0  0  0  0  0  0  0
   48.2174    7.7831   18.2598 C   0  0  0  0  0  0  0  0  0  0  0  0
   49.1161    8.8342   14.3175 O   0  0  0  0  0  0  0  0  0  0  0  0
   47.5342    7.5205   13.2949 O   0  0  0  0  0  0  0  0  0  0  0  0
   47.6307    6.7221   18.4211 O   0  0  0  0  0  0  0  0  0  0  0  0
   48.8813    8.1560   17.1322 O   0  0  0  0  0  0  0  0  0  0  0  0
   49.7183    7.6554   14.9002 C   0  0  2  0  0  0  0  0  0  0  0  0
   48.8998    7.1524   16.0998 C   0  0  0  0  0  0  0  0  0  0  0  0
   51.8533    6.9095   15.8110 O   0  0  0  0  0  0  0  0  0  0  0  0
   47.5408    9.9085   12.9329 C   0  0  0  0  0  0  0  0  0  0  0  0
   48.3154    8.8571   19.3114 C   0  0  0  0  0  0  0  0  0  0  0  0
   51.1499    8.0332   15.2979 C   0  0  0  0  0  0  0  0  0  0  0  0
   48.3908   10.3043   11.7310 C   0  0  0  0  0  0  0  0  0  0  0  0
   49.7242    8.9848   19.8867 C   0  0  0  0  0  0  0  0  0  0  0  0
   47.1218   13.5763    8.7998 C   0  0  0  0  0  0  0  0  0  0  0  0
   51.4496    6.0436   22.8965 C   0  0  0  0  0  0  0  0  0  0  0  0
   50.0011    5.9792   22.4135 C   0  0  0  0  0  0  0  0  0  0  0  0
   46.1841   12.9413    9.8286 C   0  0  0  0  0  0  0  0  0  0  0  0
   50.2739    7.7113   20.5448 C   0  0  0  0  0  0  0  0  0  0  0  0
   49.4979    7.2877   21.7941 C   0  0  0  0  0  0  0  0  0  0  0  0
   47.9827   11.6433   11.1105 C   0  0  0  0  0  0  0  0  0  0  0  0
   46.6301   11.5892   10.3958 C   0  0  0  0  0  0  0  0  0  0  0  0
   47.3458   12.7147    7.5685 C   0  0  0  0  0  0  0  0  0  0  0  0
   51.8438    4.7807   23.6487 C   0  0  0  0  0  0  0  0  0  0  0  0
   49.8315    8.2809   17.8199 O   0  0  0  0  0  0  0  0  0  0  0  0
   51.9616    7.5184   17.4808 O   0  0  0  0  0  0  0  0  0  0  0  0
   48.4327    6.5502   19.6452 O   0  0  0  0  0  0  0  0  0  0  0  0
   49.3108    7.6743   22.0339 O   0  0  0  0  0  0  0  0  0  0  0  0
   50.8844    7.9035   17.0456 C   0  0  0  0  0  0  0  0  0  0  0  0
   49.8265    6.8800   19.8065 C   0  0  1  0  0  0  0  0  0  0  0  0
   50.0744    8.2841   19.2436 C   0  0  0  0  0  0  0  0  0  0  0  0
   50.5406    7.9280   15.5740 C   0  0  0  0  0  0  0  0  0  0  0  0
   50.1584    6.7957   21.2946 C   0  0  0  0  0  0  0  0  0  0  0  0
   49.5759    9.0500   15.1912 C   0  0  0  0  0  0  0  0  0  0  0  0
   49.3853    9.1353   13.6767 C   0  0  0  0  0  0  0  0  0  0  0  0
   48.3833   10.2328   13.3104 C   0  0  0  0  0  0  0  0  0  0  0  0
   48.2184   10.3513   11.7941 C   0  0  0  0  0  0  0  0  0  0  0  0
   47.2673   11.4763   11.3783 C   0  0  0  0  0  0  0  0  0  0  0  0
   45.8238   11.2297   11.7914 C   0  0  0  0  0  0  0  0  0  0  0  0
   51.2863    7.0801   22.0569 H   0  0  0  0  0  0  0  0  0  0  0  0
   48.4354    4.2259   20.0551 H   0  0  0  0  0  0  0  0  0  0  0  0
   51.6801    5.6215   20.4297 H   0  0  0  0  0  0  0  0  0  0  0  0
   51.9754    7.2849   18.6610 H   0  0  0  0  0  0  0  0  0  0  0  0
   50.8399    6.0271   18.1291 H   0  0  0  0  0  0  0  0  0  0  0  0
   49.4963   10.8798   17.4767 H   0  0  0  0  0  0  0  0  0  0  0  0
   48.7393   10.0991   18.8503 H   0  0  0  0  0  0  0  0  0  0  0  0
   47.6377    8.4382   17.3818 H   0  0  0  0  0  0  0  0  0  0  0  0
   47.2125   10.0761   16.9112 H   0  0  0  0  0  0  0  0  0  0  0  0
   49.4757    5.4852   21.6684 H   0  0  0  0  0  0  0  0  0  0  0  0
   48.7060    6.4340   20.3976 H   0  0  0  0  0  0  0  0  0  0  0  0
   47.6195    8.5933   14.9918 H   0  0  0  0  0  0  0  0  0  0  0  0
   49.2690    8.2842   15.5114 H   0  0  0  0  0  0  0  0  0  0  0  0
   48.1717   11.0423   14.7317 H   0  0  0  0  0  0  0  0  0  0  0  0
   49.8207   10.7085   15.2316 H   0  0  0  0  0  0  0  0  0  0  0  0
   49.7889   10.8647   12.8383 H   0  0  0  0  0  0  0  0  0  0  0  0
   50.1962    9.2283   13.3123 H   0  0  0  0  0  0  0  0  0  0  0  0
   48.7044    9.2228   11.3838 H   0  0  0  0  0  0  0  0  0  0  0  0
   47.9650    8.4118   12.7379 H   0  0  0  0  0  0  0  0  0  0  0  0
   46.5097   10.3385   13.2015 H   0  0  0  0  0  0  0  0  0  0  0  0
   46.3277    9.7757   11.5528 H   0  0  0  0  0  0  0  0  0  0  0  0
   47.8985   12.2571   12.4334 H   0  0  0  0  0  0  0  0  0  0  0  0
   46.3136   12.2237   11.6801 H   0  0  0  0  0  0  0  0  0  0  0  0
   47.3252   11.1755    9.6203 H   0  0  0  0  0  0  0  0  0  0  0  0
   47.9723   12.7817    9.9931 H   0  0  0  0  0  0  0  0  0  0  0  0
   48.9304   11.3443   10.3595 H   0  0  0  0  0  0  0  0  0  0  0  0
   49.7724    6.8571   14.1480 H   0  0  0  0  0  0  0  0  0  0  0  0
   47.8666    6.9492   15.7995 H   0  0  0  0  0  0  0  0  0  0  0  0
   49.3445    6.2322   16.4971 H   0  0  0  0  0  0  0  0  0  0  0  0
   52.7480    7.2144   16.0412 H   0  0  0  0  0  0  0  0  0  0  0  0
   47.5564   10.6812   13.7087 H   0  0  0  0  0  0  0  0  0  0  0  0
   46.4914    9.7642   12.6554 H   0  0  0  0  0  0  0  0  0  0  0  0
   47.5839    8.6422   20.0970 H   0  0  0  0  0  0  0  0  0  0  0  0
   48.0020    9.8053   18.8605 H   0  0  0  0  0  0  0  0  0  0  0  0
   51.6892    8.4096   14.4205 H   0  0  0  0  0  0  0  0  0  0  0  0
   51.1593    8.8346   16.0453 H   0  0  0  0  0  0  0  0  0  0  0  0
   48.3524    9.5143   10.9706 H   0  0  0  0  0  0  0  0  0  0  0  0
   49.4413   10.3739   12.0426 H   0  0  0  0  0  0  0  0  0  0  0  0
   49.7340    9.8013   20.6179 H   0  0  0  0  0  0  0  0  0  0  0  0
   50.4137    9.2786   19.0852 H   0  0  0  0  0  0  0  0  0  0  0  0
   48.0859   13.8191    9.2586 H   0  0  0  0  0  0  0  0  0  0  0  0
   46.6864   14.5302    8.4814 H   0  0  0  0  0  0  0  0  0  0  0  0
   51.5874    6.9094   23.5541 H   0  0  0  0  0  0  0  0  0  0  0  0
   52.1277    6.1672   22.0447 H   0  0  0  0  0  0  0  0  0  0  0  0
   49.8908    5.1639   21.6882 H   0  0  0  0  0  0  0  0  0  0  0  0
   49.3503    5.7337   23.2617 H   0  0  0  0  0  0  0  0  0  0  0  0
   45.1956   12.8132    9.3706 H   0  0  0  0  0  0  0  0  0  0  0  0
   46.0499   13.6476   10.6571 H   0  0  0  0  0  0  0  0  0  0  0  0
   51.3175    7.9084   20.8156 H   0  0  0  0  0  0  0  0  0  0  0  0
   50.2909    6.8903   19.8189 H   0  0  0  0  0  0  0  0  0  0  0  0
   48.4408    7.1478   21.5459 H   0  0  0  0  0  0  0  0  0  0  0  0
   49.5438    8.0867   22.5427 H   0  0  0  0  0  0  0  0  0  0  0  0
   47.9676   12.4190   11.8859 H   0  0  0  0  0  0  0  0  0  0  0  0
   48.7593   11.9250   10.3913 H   0  0  0  0  0  0  0  0  0  0  0  0
   45.8552   11.2582   11.0963 H   0  0  0  0  0  0  0  0  0  0  0  0
   46.6626   10.8394    9.5977 H   0  0  0  0  0  0  0  0  0  0  0  0
   47.8842   11.7962    7.8147 H   0  0  0  0  0  0  0  0  0  0  0  0
   46.3947   12.4441    7.0995 H   0  0  0  0  0  0  0  0  0  0  0  0
   47.9427   13.2593    6.8303 H   0  0  0  0  0  0  0  0  0  0  0  0
   52.8875    4.8415   23.9718 H   0  0  0  0  0  0  0  0  0  0  0  0
   51.7349    3.8961   23.0133 H   0  0  0  0  0  0  0  0  0  0  0  0
   51.2201    4.6450   24.5383 H   0  0  0  0  0  0  0  0  0  0  0  0
   48.2108    6.7522   18.7177 H   0  0  0  0  0  0  0  0  0  0  0  0
   48.4021    7.4433   21.7545 H   0  0  0  0  0  0  0  0  0  0  0  0
   50.4033    6.1309   19.2542 H   0  0  0  0  0  0  0  0  0  0  0  0
   51.0855    8.6484   19.4660 H   0  0  0  0  0  0  0  0  0  0  0  0
   49.3607    9.0002   19.6658 H   0  0  0  0  0  0  0  0  0  0  0  0
   51.4797    8.0565   15.0221 H   0  0  0  0  0  0  0  0  0  0  0  0
   50.1184    6.9514   15.3106 H   0  0  0  0  0  0  0  0  0  0  0  0
   49.9787    5.7832   21.6723 H   0  0  0  0  0  0  0  0  0  0  0  0
   51.2002    7.0659   21.4940 H   0  0  0  0  0  0  0  0  0  0  0  0
   49.9539   10.0073   15.5714 H   0  0  0  0  0  0  0  0  0  0  0  0
   48.6033    8.8803   15.6702 H   0  0  0  0  0  0  0  0  0  0  0  0
   50.3494    9.3362   13.1934 H   0  0  0  0  0  0  0  0  0  0  0  0
   49.0239    8.1714   13.2960 H   0  0  0  0  0  0  0  0  0  0  0  0
   47.4188   10.0024   13.7774 H   0  0  0  0  0  0  0  0  0  0  0  0
   48.7205   11.1937   13.7175 H   0  0  0  0  0  0  0  0  0  0  0  0
   47.8646    9.3971   11.3824 H   0  0  0  0  0  0  0  0  0  0  0  0
   49.1994   10.5483   11.3422 H   0  0  0  0  0  0  0  0  0  0  0  0
   47.6099   12.4315   11.7953 H   0  0  0  0  0  0  0  0  0  0  0  0
   47.3028   11.5760   10.2868 H   0  0  0  0  0  0  0  0  0  0  0  0
   45.7089   11.2465   12.8794 H   0  0  0  0  0  0  0  0  0  0  0  0
   45.1762   12.0110   11.3792 H   0  0  0  0  0  0  0  0  0  0  0  0
   45.4675   10.2634   11.4202 H   0  0  0  0  0  0  0  0  0  0  0  0
  1  5  1  0
  1  7  1  0
  2  5  2  0
  3  6  1  0
  4 10  1  0
  5  8  1  0
  6  7  1  0
  6 10  1  0
  8  9  1  0
  9 11  1  0
 11 12  1  0
 12 13  1  0
 13 14  1  0
 14 15  1  0
 15 16  1  0
 16 17  1  0
 19 23  1  0
 20 18  1  0
 21 18  2  0
 22 19  2  0
 23 25  1  0
 24 20  1  0
 25 24  1  0
 26 29  1  0
 27 18  1  0
 28 19  1  0
 29 24  1  0
 30 27  1  0
 31 28  1  0
 32 35  1  0
 33 34  1  0
 34 37  1  0
 35 39  1  0
 36 31  1  0
 37 36  1  0
 38 30  1  0
 39 38  1  0
 40 32  1  0
 41 33  1  0
 42 46  1  0
 42 48  1  0
 43 46  2  0
 44 47  1  0
 45 50  1  0
 46 49  1  0
 47 48  1  0
 47 50  1  0
 49 51  1  0
 51 52  1  0
 52 53  1  0
 53 54  1  0
 54 55  1  0
 55 56  1  0
  3 57  1  0
  4 58  1  0
  6 59  1  1
  7 60  1  0
  7 61  1  0
  8 62  1  0
  8 63  1  0
  9 64  1  0
  9 65  1  0
 10 66  1  0
 10 67  1  0
 11 68  1  0
 11 69  1  0
 12 70  1  0
 12 71  1  0
 13 72  1  0
 13 73  1  0
 14 74  1  0
 14 75  1  0
 15 76  1  0
 15 77  1  0
 16 78  1  0
 16 79  1  0
 17 80  1  0
 17 81  1  0
 17 82  1  0
 24 83  1  1
 25 84  1  0
 25 85  1  0
 26 86  1  0
 27 87  1  0
 27 88  1  0
 28 89  1  0
 28 90  1  0
 29 91  1  0
 29 92  1  0
 30 93  1  0
 30 94  1  0
 31 95  1  0
 31 96  1  0
 32 97  1  0
 32 98  1  0
 33 99  1  0
 33100  1  0
 34101  1  0
 34102  1  0
 35103  1  0
 35104  1  0
 36105  1  0
 36106  1  0
 37107  1  0
 37108  1  0
 38109  1  0
 38110  1  0
 39111  1  0
 39112  1  0
 40113  1  0
 40114  1  0
 40115  1  0
 41116  1  0
 41117  1  0
 41118  1  0
 44119  1  0
 45120  1  0
 47121  1  1
 48122  1  0
 48123  1  0
 49124  1  0
 49125  1  0
 50126  1  0
 50127  1  0
 51128  1  0
 51129  1  0
 52130  1  0
 52131  1  0
 53132  1  0
 53133  1  0
 54134  1  0
 54135  1  0
 55136  1  0
 55137  1  0
 56138  1  0
 56139  1  0
 56140  1  0
M  END
> <Uni-Dock RESULT> 
ENERGY=   -5.036  LOWER_BOUND=    4.584  UPPER_BOUND=    7.694
INTER + INTRA:          -5.036
INTER:                  -5.036
INTRA:                   0.000
UNBOUND:                 0.000

$$$$

     RDKit          3D

140137  0  0  0  0  0  0  0  0999 V2000
   46.9367   13.7300    8.9405 O   0  0  0  0  0  0  0  0  0  0  0  0
   45.0367   12.5591    9.5118 O   0  0  0  0  0  0  0  0  0  0  0  0
   47.7323   12.2953    6.5619 O   0  0  0  0  0  0  0  0  0  0  0  0
   50.4855   13.6781    8.5610 O   0  0  0  0  0  0  0  0  0  0  0  0
   45.6098   13.5965    9.2051 C   0  0  0  0  0  0  0  0  0  0  0  0
   48.5853   12.4235    7.7063 C   0  0  2  0  0  0  0  0  0  0  0  0
   47.7266   12.5257    8.9755 C   0  0  0  0  0  0  0  0  0  0  0  0
   44.9107   14.9243    9.0585 C   0  0  0  0  0  0  0  0  0  0  0  0
   45.4045   15.9757   10.0492 C   0  0  0  0  0  0  0  0  0  0  0  0
   49.5121   13.6312    7.5247 C   0  0  0  0  0  0  0  0  0  0  0  0
   45.2559   15.6005   11.5275 C   0  0  0  0  0  0  0  0  0  0  0  0
   43.8023   15.4001   11.9620 C   0  0  0  0  0  0  0  0  0  0  0  0
   43.6567   15.0398   13.4453 C   0  0  0  0  0  0  0  0  0  0  0  0
   44.1489   16.0953   14.4408 C   0  0  0  0  0  0  0  0  0  0  0  0
   43.5073   17.4804   14.3087 C   0  0  0  0  0  0  0  0  0  0  0  0
   41.9815   17.5121   14.4281 C   0  0  0  0  0  0  0  0  0  0  0  0
   41.4651   16.9965   15.7624 C   0  0  0  0  0  0  0  0  0  0  0  0
   45.2343   16.1119   13.5400 C   0  0  0  0  0  0  0  0  0  0  0  0
   47.2066   15.4384    9.2014 C   0  0  0  0  0  0  0  0  0  0  0  0
   45.0313   15.0266   12.7444 O   0  0  0  0  0  0  0  0  0  0  0  0
   46.3035   16.4363   14.0362 O   0  0  0  0  0  0  0  0  0  0  0  0
   48.3620   15.8241    9.3125 O   0  0  0  0  0  0  0  0  0  0  0  0
   46.4417   14.9329   10.2068 O   0  0  0  0  0  0  0  0  0  0  0  0
   46.1901   14.1925   12.5136 C   0  0  2  0  0  0  0  0  0  0  0  0
   47.1252   14.8227   11.4693 C   0  0  0  0  0  0  0  0  0  0  0  0
   46.7429   11.9003   11.8934 O   0  0  0  0  0  0  0  0  0  0  0  0
   43.9430   16.8594   13.7490 C   0  0  0  0  0  0  0  0  0  0  0  0
   46.4399   15.4447    7.9049 C   0  0  0  0  0  0  0  0  0  0  0  0
   45.6728   12.8195   12.0691 C   0  0  0  0  0  0  0  0  0  0  0  0
   43.1033   16.1805   14.8250 C   0  0  0  0  0  0  0  0  0  0  0  0
   46.2098   14.0386    7.3553 C   0  0  0  0  0  0  0  0  0  0  0  0
   39.4757   18.1983   16.7426 C   0  0  0  0  0  0  0  0  0  0  0  0
   49.4604   11.6221    5.2863 C   0  0  0  0  0  0  0  0  0  0  0  0
   49.6615   13.0710    5.7290 C   0  0  0  0  0  0  0  0  0  0  0  0
   40.5139   18.9361   15.8948 C   0  0  0  0  0  0  0  0  0  0  0  0
   47.4874   13.2344    7.0756 C   0  0  0  0  0  0  0  0  0  0  0  0
   48.3522   13.8324    5.9634 C   0  0  0  0  0  0  0  0  0  0  0  0
   41.7474   16.8537   15.0549 C   0  0  0  0  0  0  0  0  0  0  0  0
   41.8616   18.2274   15.7207 C   0  0  0  0  0  0  0  0  0  0  0  0
   39.9359   17.9248   18.1646 C   0  0  0  0  0  0  0  0  0  0  0  0
   50.7805   10.9656    4.9088 C   0  0  0  0  0  0  0  0  0  0  0  0
   46.3267   13.9688    9.5370 O   0  0  0  0  0  0  0  0  0  0  0  0
   46.5748   11.7719   10.1254 O   0  0  0  0  0  0  0  0  0  0  0  0
   48.6937   14.9155    8.2009 O   0  0  0  0  0  0  0  0  0  0  0  0
   48.0811   14.0636    5.6242 O   0  0  0  0  0  0  0  0  0  0  0  0
   46.2938   12.9280   10.4125 C   0  0  0  0  0  0  0  0  0  0  0  0
   48.1680   13.5891    7.9961 C   0  0  1  0  0  0  0  0  0  0  0  0
   46.6455   13.6243    8.1711 C   0  0  0  0  0  0  0  0  0  0  0  0
   45.9548   13.3800   11.8144 C   0  0  0  0  0  0  0  0  0  0  0  0
   48.5702   13.1376    6.5938 C   0  0  0  0  0  0  0  0  0  0  0  0
   44.9674   14.5459   11.8579 C   0  0  0  0  0  0  0  0  0  0  0  0
   44.5317   14.8607   13.2890 C   0  0  0  0  0  0  0  0  0  0  0  0
   43.5787   16.0579   13.3220 C   0  0  0  0  0  0  0  0  0  0  0  0
   43.1063   16.3532   14.7469 C   0  0  0  0  0  0  0  0  0  0  0  0
   42.1052   17.5088   14.8217 C   0  0  0  0  0  0  0  0  0  0  0  0
   42.7087   18.8551   14.4497 C   0  0  0  0  0  0  0  0  0  0  0  0
   48.2907   12.0200    5.8146 H   0  0  0  0  0  0  0  0  0  0  0  0
   51.0044   14.4902    8.4252 H   0  0  0  0  0  0  0  0  0  0  0  0
   49.1846   11.5086    7.7818 H   0  0  0  0  0  0  0  0  0  0  0  0
   47.0973   11.6309    9.0509 H   0  0  0  0  0  0  0  0  0  0  0  0
   48.3612   12.5746    9.8672 H   0  0  0  0  0  0  0  0  0  0  0  0
   43.8332   14.7620    9.1662 H   0  0  0  0  0  0  0  0  0  0  0  0
   45.0653   15.2719    8.0299 H   0  0  0  0  0  0  0  0  0  0  0  0
   46.4648   16.1841    9.8569 H   0  0  0  0  0  0  0  0  0  0  0  0
   44.8670   16.9134    9.8623 H   0  0  0  0  0  0  0  0  0  0  0  0
   50.0345   13.5597    6.5640 H   0  0  0  0  0  0  0  0  0  0  0  0
   48.9475   14.5710    7.5145 H   0  0  0  0  0  0  0  0  0  0  0  0
   45.7063   16.4066   12.1178 H   0  0  0  0  0  0  0  0  0  0  0  0
   45.8325   14.6945   11.7448 H   0  0  0  0  0  0  0  0  0  0  0  0
   43.2146   16.2962   11.7312 H   0  0  0  0  0  0  0  0  0  0  0  0
   43.3592   14.5819   11.3838 H   0  0  0  0  0  0  0  0  0  0  0  0
   42.6013   14.8182   13.6472 H   0  0  0  0  0  0  0  0  0  0  0  0
   44.2019   14.1066   13.6377 H   0  0  0  0  0  0  0  0  0  0  0  0
   43.9832   15.7159   15.4562 H   0  0  0  0  0  0  0  0  0  0  0  0
   45.2359   16.2048   14.3473 H   0  0  0  0  0  0  0  0  0  0  0  0
   43.7920   17.9254   13.3473 H   0  0  0  0  0  0  0  0  0  0  0  0
   43.9353   18.1325   15.0807 H   0  0  0  0  0  0  0  0  0  0  0  0
   41.5205   16.9412   13.6144 H   0  0  0  0  0  0  0  0  0  0  0  0
   41.6475   18.5496   14.3056 H   0  0  0  0  0  0  0  0  0  0  0  0
   41.9280   17.5324   16.5971 H   0  0  0  0  0  0  0  0  0  0  0  0
   40.3816   17.1393   15.8279 H   0  0  0  0  0  0  0  0  0  0  0  0
   41.6652   15.9279   15.8841 H   0  0  0  0  0  0  0  0  0  0  0  0
   46.7444   14.0609   13.4525 H   0  0  0  0  0  0  0  0  0  0  0  0
   47.4292   15.8262   11.7844 H   0  0  0  0  0  0  0  0  0  0  0  0
   48.0196   14.2008   11.3438 H   0  0  0  0  0  0  0  0  0  0  0  0
   46.3496   11.0553   11.6150 H   0  0  0  0  0  0  0  0  0  0  0  0
   43.4064   16.9165   12.7962 H   0  0  0  0  0  0  0  0  0  0  0  0
   44.1999   17.8873   14.0260 H   0  0  0  0  0  0  0  0  0  0  0  0
   46.9793   16.0687    7.1851 H   0  0  0  0  0  0  0  0  0  0  0  0
   45.4813   15.9462    8.0780 H   0  0  0  0  0  0  0  0  0  0  0  0
   44.9916   12.4184   12.8291 H   0  0  0  0  0  0  0  0  0  0  0  0
   45.1028   12.8896   11.1358 H   0  0  0  0  0  0  0  0  0  0  0  0
   43.6645   16.1418   15.7669 H   0  0  0  0  0  0  0  0  0  0  0  0
   42.9259   15.1365   14.5351 H   0  0  0  0  0  0  0  0  0  0  0  0
   45.6212   14.1120    6.4335 H   0  0  0  0  0  0  0  0  0  0  0  0
   45.5991   13.4703    8.0681 H   0  0  0  0  0  0  0  0  0  0  0  0
   39.1875   17.2575   16.2624 H   0  0  0  0  0  0  0  0  0  0  0  0
   38.5679   18.8109   16.7833 H   0  0  0  0  0  0  0  0  0  0  0  0
   48.7827   11.5835    4.4259 H   0  0  0  0  0  0  0  0  0  0  0  0
   49.0005   11.0401    6.0927 H   0  0  0  0  0  0  0  0  0  0  0  0
   50.2688   13.0961    6.6420 H   0  0  0  0  0  0  0  0  0  0  0  0
   50.2313   13.6059    4.9593 H   0  0  0  0  0  0  0  0  0  0  0  0
   40.6979   19.9203   16.3430 H   0  0  0  0  0  0  0  0  0  0  0  0
   40.0812   19.1252   14.9046 H   0  0  0  0  0  0  0  0  0  0  0  0
   47.1797   12.2218    6.7908 H   0  0  0  0  0  0  0  0  0  0  0  0
   48.0767   13.1335    7.9941 H   0  0  0  0  0  0  0  0  0  0  0  0
   48.6138   14.8664    6.2107 H   0  0  0  0  0  0  0  0  0  0  0  0
   47.7781   13.8661    5.0306 H   0  0  0  0  0  0  0  0  0  0  0  0
   41.2134   16.9415   14.1007 H   0  0  0  0  0  0  0  0  0  0  0  0
   41.1535   16.1917   15.6942 H   0  0  0  0  0  0  0  0  0  0  0  0
   42.4971   18.8809   15.1127 H   0  0  0  0  0  0  0  0  0  0  0  0
   42.3620   18.1286   16.6903 H   0  0  0  0  0  0  0  0  0  0  0  0
   40.7727   17.2224   18.1869 H   0  0  0  0  0  0  0  0  0  0  0  0
   40.2455   18.8490   18.6624 H   0  0  0  0  0  0  0  0  0  0  0  0
   39.1203   17.4852   18.7472 H   0  0  0  0  0  0  0  0  0  0  0  0
   50.6156    9.9259    4.6100 H   0  0  0  0  0  0  0  0  0  0  0  0
   51.4765   10.9709    5.7536 H   0  0  0  0  0  0  0  0  0  0  0  0
   51.2518   11.4893    4.0707 H   0  0  0  0  0  0  0  0  0  0  0  0
   48.3039   15.2368    9.0347 H   0  0  0  0  0  0  0  0  0  0  0  0
   48.3941   14.9387    5.9300 H   0  0  0  0  0  0  0  0  0  0  0  0
   48.6317   12.9372    8.7435 H   0  0  0  0  0  0  0  0  0  0  0  0
   46.1726   12.6753    7.8876 H   0  0  0  0  0  0  0  0  0  0  0  0
   46.2047   14.4149    7.5540 H   0  0  0  0  0  0  0  0  0  0  0  0
   45.5196   12.5199   12.3378 H   0  0  0  0  0  0  0  0  0  0  0  0
   46.8908   13.6500   12.3167 H   0  0  0  0  0  0  0  0  0  0  0  0
   49.6609   13.1153    6.4947 H   0  0  0  0  0  0  0  0  0  0  0  0
   48.1751   12.1444    6.3584 H   0  0  0  0  0  0  0  0  0  0  0  0
   44.0878   14.3075   11.2469 H   0  0  0  0  0  0  0  0  0  0  0  0
   45.4290   15.4374   11.4148 H   0  0  0  0  0  0  0  0  0  0  0  0
   44.0410   13.9831   13.7277 H   0  0  0  0  0  0  0  0  0  0  0  0
   45.4145   15.0818   13.9027 H   0  0  0  0  0  0  0  0  0  0  0  0
   44.0933   16.9322   12.9070 H   0  0  0  0  0  0  0  0  0  0  0  0
   42.7100   15.8582   12.6832 H   0  0  0  0  0  0  0  0  0  0  0  0
   43.9705   16.5707   15.3880 H   0  0  0  0  0  0  0  0  0  0  0  0
   42.6242   15.4560   15.1568 H   0  0  0  0  0  0  0  0  0  0  0  0
   41.2435   17.3020   14.1749 H   0  0  0  0  0  0  0  0  0  0  0  0
   41.7234   17.5721   15.8477 H   0  0  0  0  0  0  0  0  0  0  0  0
   42.9935   18.8895   13.3938 H   0  0  0  0  0  0  0  0  0  0  0  0
   41.9794   19.6540   14.6209 H   0  0  0  0  0  0  0  0  0  0  0  0
   43.5952   19.0700   15.0549 H   0  0  0  0  0  0  0  0  0  0  0  0
  1  5  1  0
  1  7  1  0
  2  5  2  0
  3  6  1  0
  4 10  1  0
  5  8  1  0
  6  7  1  0
  6 10  1  0
  8  9  1  0
  9 11  1  0
 11 12  1  0
 12 13  1  0
 13 14  1  0
 14 15  1  0
 15 16  1  0
 16 17  1  0
 19 23  1  0
 20 18  1  0
 21 18  2  0
 22 19  2  0
 23 25  1  0
 24 20  1  0
 25 24  1  0
 26 29  1  0
 27 18  1  0
 28 19  1  0
 29 24  1  0
 30 27  1  0
 31 28  1  0
 32 35  1  0
 33 34  1  0
 34 37  1  0
 35 39  1  0
 36 31  1  0
 37 36  1  0
 38 30  1  0
 39 38  1  0
 40 32  1  0
 41 33  1  0
 42 46  1  0
 42 48  1  0
 43 46  2  0
 44 47  1  0
 45 50  1  0
 46 49  1  0
 47 48  1  0
 47 50  1  0
 49 51  1  0
 51 52  1  0
 52 53  1  0
 53 54  1  0
 54 55  1  0
 55 56  1  0
  3 57  1  0
  4 58  1  0
  6 59  1  1
  7 60  1  0
  7 61  1  0
  8 62  1  0
  8 63  1  0
  9 64  1  0
  9 65  1  0
 10 66  1  0
 10 67  1  0
 11 68  1  0
 11 69  1  0
 12 70  1  0
 12 71  1  0
 13 72  1  0
 13 73  1  0
 14 74  1  0
 14 75  1  0
 15 76  1  0
 15 77  1  0
 16 78  1  0
 16 79  1  0
 17 80  1  0
 17 81  1  0
 17 82  1  0
 24 83  1  1
 25 84  1  0
 25 85  1  0
 26 86  1  0
 27 87  1  0
 27 88  1  0
 28 89  1  0
 28 90  1  0
 29 91  1  0
 29 92  1  0
 30 93  1  0
 30 94  1  0
 31 95  1  0
 31 96  1  0
 32 97  1  0
 32 98  1  0
 33 99  1  0
 33100  1  0
 34101  1  0
 34102  1  0
 35103  1  0
 35104  1  0
 36105  1  0
 36106  1  0
 37107  1  0
 37108  1  0
 38109  1  0
 38110  1  0
 39111  1  0
 39112  1  0
 40113  1  0
 40114  1  0
 40115  1  0
 41116  1  0
 41117  1  0
 41118  1  0
 44119  1  0
 45120  1  0
 47121  1  1
 48122  1  0
 48123  1  0
 49124  1  0
 49125  1  0
 50126  1  0
 50127  1  0
 51128  1  0
 51129  1  0
 52130  1  0
 52131  1  0
 53132  1  0
 53133  1  0
 54134  1  0
 54135  1  0
 55136  1  0
 55137  1  0
 56138  1  0
 56139  1  0
 56140  1  0
M  END
> <Uni-Dock RESULT> 
ENERGY=   -5.022  LOWER_BOUND=    7.173  UPPER_BOUND=    9.200
INTER + INTRA:          -5.022
INTER:                  -5.022
INTRA:                   0.000
UNBOUND:                 0.000

$$$$
