
     RDKit          3D

 95100  0  0  0  0  0  0  0  0999 V2000
   -0.0001    0.3976    0.0000 O   0  0  0  0  0  0  0  0  0  0  0  0
   -5.2874   -0.8994   -0.2699 N   0  0  0  0  0  0  0  0  0  0  0  0
   -4.2114   -0.1710   -0.6743 C   0  0  0  0  0  0  0  0  0  0  0  0
   -2.8656   -0.3617   -0.4085 C   0  0  0  0  0  0  0  0  0  0  0  0
   -2.5429   -1.4765    0.3991 N   0  0  0  0  0  0  0  0  0  0  0  0
   -3.6061   -2.2446    0.8485 C   0  0  0  0  0  0  0  0  0  0  0  0
   -4.9714   -1.9217    0.4849 C   0  0  0  0  0  0  0  0  0  0  0  0
   -2.1433    0.6657   -1.0382 C   0  0  0  0  0  0  0  0  0  0  0  0
   -3.0709    1.4594   -1.6884 C   0  0  0  0  0  0  0  0  0  0  0  0
   -4.3227    0.9397   -1.4615 N   0  0  0  0  0  0  0  0  0  0  0  0
   -3.2275   -3.2424    1.6125 N   0  0  0  0  0  0  0  0  0  0  0  0
   -1.8679   -3.1287    1.6599 C   0  0  0  0  0  0  0  0  0  0  0  0
   -1.3949   -2.0529    0.9155 C   0  0  0  0  0  0  0  0  0  0  0  0
    0.0385   -1.6689    0.7453 C   0  0  2  0  0  0  0  0  0  0  0  0
    0.5933   -0.5503    1.6580 C   0  0  1  0  0  0  0  0  0  0  0  0
    1.8443   -0.1060    0.8873 C   0  0  0  0  0  0  0  0  0  0  0  0
    1.5241   -0.3255   -0.5163 N   0  0  0  0  0  0  0  0  0  0  0  0
    0.5394   -1.3837   -0.6668 C   0  0  0  0  0  0  0  0  0  0  0  0
   -0.3414    0.6293    1.9728 C   0  0  0  0  0  0  0  0  0  0  0  0
    0.2010    1.5257    3.0823 C   0  0  0  0  0  0  0  0  0  0  0  0
    2.2743    0.0492   -1.6038 C   0  0  0  0  0  0  0  0  0  0  0  0
    3.2725    0.9458   -1.3338 N   0  0  0  0  0  0  0  0  0  0  0  0
    2.0821   -0.3932   -2.7318 O   0  0  0  0  0  0  0  0  0  0  0  0
    4.0988    1.4489   -2.4348 C   0  0  0  0  0  0  0  0  0  0  0  0
    5.3130    2.2578   -1.9932 C   0  0  0  0  0  0  0  0  0  0  0  0
    5.9593    2.7891   -3.0535 F   0  0  0  0  0  0  0  0  0  0  0  0
    4.9383    3.2804   -1.1886 F   0  0  0  0  0  0  0  0  0  0  0  0
    6.1970    1.5004   -1.3075 F   0  0  0  0  0  0  0  0  0  0  0  0
   -4.8043    2.2478    1.2407 N   0  0  0  0  0  0  0  0  0  0  0  0
   -4.7056    1.1943    0.3829 C   0  0  0  0  0  0  0  0  0  0  0  0
   -3.5777    0.6141   -0.1653 C   0  0  0  0  0  0  0  0  0  0  0  0
   -2.3466    1.1850    0.2087 N   0  0  0  0  0  0  0  0  0  0  0  0
   -2.3803    2.2527    1.0826 C   0  0  0  0  0  0  0  0  0  0  0  0
   -3.6452    2.7612    1.5782 C   0  0  0  0  0  0  0  0  0  0  0  0
   -3.9648   -0.4532   -0.9901 C   0  0  0  0  0  0  0  0  0  0  0  0
   -5.3466   -0.4985   -0.9314 C   0  0  0  0  0  0  0  0  0  0  0  0
   -5.7846    0.5066   -0.0971 N   0  0  0  0  0  0  0  0  0  0  0  0
   -1.1792    2.6989    1.3719 N   0  0  0  0  0  0  0  0  0  0  0  0
   -0.3354    1.8944    0.6474 C   0  0  0  0  0  0  0  0  0  0  0  0
   -1.0231    0.9335   -0.0838 C   0  0  0  0  0  0  0  0  0  0  0  0
   -0.5282   -0.1477   -1.0025 C   0  0  2  0  0  0  0  0  0  0  0  0
   -0.0454   -1.4263   -0.2769 C   0  0  1  0  0  0  0  0  0  0  0  0
    1.4085   -1.1037    0.0855 C   0  0  0  0  0  0  0  0  0  0  0  0
    1.8528   -0.1796   -0.9469 N   0  0  0  0  0  0  0  0  0  0  0  0
    0.7395    0.2636   -1.7734 C   0  0  0  0  0  0  0  0  0  0  0  0
   -0.8915   -1.9075    0.9049 C   0  0  0  0  0  0  0  0  0  0  0  0
   -0.3820   -3.2175    1.4913 C   0  0  0  0  0  0  0  0  0  0  0  0
    3.1402    0.1447   -1.2847 C   0  0  0  0  0  0  0  0  0  0  0  0
    4.0956   -0.3442   -0.4350 N   0  0  0  0  0  0  0  0  0  0  0  0
    3.4236    0.8004   -2.2818 O   0  0  0  0  0  0  0  0  0  0  0  0
    5.4981    0.0224   -0.6378 C   0  0  0  0  0  0  0  0  0  0  0  0
    5.8916    1.4100   -0.1244 C   0  0  0  0  0  0  0  0  0  0  0  0
    5.5761    1.5286    1.1895 F   0  0  0  0  0  0  0  0  0  0  0  0
    7.2297    1.5905   -0.2294 F   0  0  0  0  0  0  0  0  0  0  0  0
    5.2876    2.4160   -0.7836 F   0  0  0  0  0  0  0  0  0  0  0  0
   -0.7637   -0.1990    0.0000 H   0  0  0  0  0  0  0  0  0  0  0  0
    0.7637   -0.1986    0.0000 H   0  0  0  0  0  0  0  0  0  0  0  0
   -5.7744   -2.5727    0.8659 H   0  0  0  0  0  0  0  0  0  0  0  0
   -1.0801    0.8540   -1.0504 H   0  0  0  0  0  0  0  0  0  0  0  0
   -2.9481    2.3478   -2.2940 H   0  0  0  0  0  0  0  0  0  0  0  0
   -5.1981    1.3066   -1.8095 H   0  0  0  0  0  0  0  0  0  0  0  0
   -1.2748   -3.8359    2.2284 H   0  0  0  0  0  0  0  0  0  0  0  0
    0.6051   -2.5676    1.0468 H   0  0  0  0  0  0  0  0  0  0  0  0
    0.8949   -0.9909    2.6178 H   0  0  0  0  0  0  0  0  0  0  0  0
    2.6994   -0.7494    1.1297 H   0  0  0  0  0  0  0  0  0  0  0  0
    2.1339    0.9305    1.0724 H   0  0  0  0  0  0  0  0  0  0  0  0
    1.0404   -2.2687   -1.0810 H   0  0  0  0  0  0  0  0  0  0  0  0
   -0.2182   -1.0957   -1.3954 H   0  0  0  0  0  0  0  0  0  0  0  0
   -1.3181    0.2635    2.3049 H   0  0  0  0  0  0  0  0  0  0  0  0
   -0.4982    1.2473    1.0859 H   0  0  0  0  0  0  0  0  0  0  0  0
    0.3580    0.9573    4.0047 H   0  0  0  0  0  0  0  0  0  0  0  0
    1.1489    1.9928    2.8017 H   0  0  0  0  0  0  0  0  0  0  0  0
   -0.5141    2.3266    3.2979 H   0  0  0  0  0  0  0  0  0  0  0  0
    3.0448    1.6201   -0.6170 H   0  0  0  0  0  0  0  0  0  0  0  0
    3.4514    2.0730   -3.0624 H   0  0  0  0  0  0  0  0  0  0  0  0
    4.4248    0.5965   -3.0415 H   0  0  0  0  0  0  0  0  0  0  0  0
   -3.6232    3.6184    2.2702 H   0  0  0  0  0  0  0  0  0  0  0  0
   -3.3506   -1.1299   -1.5666 H   0  0  0  0  0  0  0  0  0  0  0  0
   -6.0591   -1.1582   -1.4088 H   0  0  0  0  0  0  0  0  0  0  0  0
   -6.7449    0.7174    0.1369 H   0  0  0  0  0  0  0  0  0  0  0  0
    0.7372    2.0489    0.6856 H   0  0  0  0  0  0  0  0  0  0  0  0
   -1.3030   -0.3845   -1.7358 H   0  0  0  0  0  0  0  0  0  0  0  0
   -0.0266   -2.2285   -1.0305 H   0  0  0  0  0  0  0  0  0  0  0  0
    1.4942   -0.5970    1.0527 H   0  0  0  0  0  0  0  0  0  0  0  0
    2.0401   -1.9975    0.0953 H   0  0  0  0  0  0  0  0  0  0  0  0
    0.8068   -0.2821   -2.7226 H   0  0  0  0  0  0  0  0  0  0  0  0
    0.8151    1.3350   -1.9872 H   0  0  0  0  0  0  0  0  0  0  0  0
   -1.9252   -2.0562    0.5740 H   0  0  0  0  0  0  0  0  0  0  0  0
   -0.9105   -1.1573    1.7037 H   0  0  0  0  0  0  0  0  0  0  0  0
   -1.0491   -3.5549    2.2909 H   0  0  0  0  0  0  0  0  0  0  0  0
    0.6193   -3.1005    1.9172 H   0  0  0  0  0  0  0  0  0  0  0  0
   -0.3432   -4.0017    0.7285 H   0  0  0  0  0  0  0  0  0  0  0  0
    3.7985   -0.4687    0.5215 H   0  0  0  0  0  0  0  0  0  0  0  0
    6.0874   -0.7344   -0.1097 H   0  0  0  0  0  0  0  0  0  0  0  0
    5.7340   -0.0550   -1.7046 H   0  0  0  0  0  0  0  0  0  0  0  0
  2  3  1  0
  4  5  1  0
  6  7  1  0
  7  2  2  0
  3 10  1  0
  3  4  2  0
  4  8  1  0
  8  9  2  0
  9 10  1  0
  5 13  1  0
  5  6  1  0
  6 11  2  0
 11 12  1  0
 12 13  2  0
 14 13  1  0
 14 15  1  0
 14 18  1  0
 15 16  1  0
 16 17  1  0
 17 18  1  0
 15 19  1  0
 19 20  1  0
 17 21  1  0
 21 22  1  0
 21 23  2  0
 22 24  1  0
 24 25  1  0
 25 26  1  0
 25 27  1  0
 25 28  1  0
 29 30  1  0
 31 32  1  0
 33 34  1  0
 34 29  2  0
 30 37  1  0
 30 31  2  0
 31 35  1  0
 35 36  2  0
 36 37  1  0
 32 40  1  0
 32 33  1  0
 33 38  2  0
 38 39  1  0
 39 40  2  0
 41 40  1  0
 41 42  1  0
 41 45  1  0
 42 43  1  0
 43 44  1  0
 44 45  1  0
 42 46  1  0
 46 47  1  0
 44 48  1  0
 48 49  1  0
 48 50  2  0
 49 51  1  0
 51 52  1  0
 52 53  1  0
 52 54  1  0
 52 55  1  0
  1 56  1  0
  1 57  1  0
  7 58  1  0
  8 59  1  0
  9 60  1  0
 10 61  1  0
 12 62  1  0
 14 63  1  1
 15 64  1  1
 16 65  1  0
 16 66  1  0
 18 67  1  0
 18 68  1  0
 19 69  1  0
 19 70  1  0
 20 71  1  0
 20 72  1  0
 20 73  1  0
 22 74  1  0
 24 75  1  0
 24 76  1  0
 34 77  1  0
 35 78  1  0
 36 79  1  0
 37 80  1  0
 39 81  1  0
 41 82  1  6
 42 83  1  6
 43 84  1  0
 43 85  1  0
 45 86  1  0
 45 87  1  0
 46 88  1  0
 46 89  1  0
 47 90  1  0
 47 91  1  0
 47 92  1  0
 49 93  1  0
 51 94  1  0
 51 95  1  0
M  END
$$$$
