
     RDKit          3D

 95100  0  0  0  0  0  0  0  0999 V2000
   -0.0013    0.3978    0.0000 O   0  0  0  0  0  0  0  0  0  0  0  0
   -5.7467    0.2736   -0.5507 N   0  0  0  0  0  0  0  0  0  0  0  0
   -4.8836   -0.6434   -0.0314 C   0  0  0  0  0  0  0  0  0  0  0  0
   -3.5036   -0.6739   -0.0852 C   0  0  0  0  0  0  0  0  0  0  0  0
   -2.8900    0.3898   -0.7705 N   0  0  0  0  0  0  0  0  0  0  0  0
   -3.7106    1.3520   -1.3206 C   0  0  0  0  0  0  0  0  0  0  0  0
   -5.1516    1.2552   -1.1868 C   0  0  0  0  0  0  0  0  0  0  0  0
   -3.0400   -1.8131    0.5888 C   0  0  0  0  0  0  0  0  0  0  0  0
   -4.1690   -2.4660    1.0507 C   0  0  0  0  0  0  0  0  0  0  0  0
   -5.2812   -1.7478    0.6684 N   0  0  0  0  0  0  0  0  0  0  0  0
   -3.0301    2.2946   -1.9322 N   0  0  0  0  0  0  0  0  0  0  0  0
   -1.7170    1.9263   -1.7691 C   0  0  0  0  0  0  0  0  0  0  0  0
   -1.5883    0.7479   -1.0453 C   0  0  0  0  0  0  0  0  0  0  0  0
   -0.3885   -0.0290   -0.6285 C   0  0  2  0  0  0  0  0  0  0  0  0
    0.1060    0.1883    0.8231 C   0  0  1  0  0  0  0  0  0  0  0  0
    1.5012   -0.4630    0.7500 C   0  0  0  0  0  0  0  0  0  0  0  0
    1.9601   -0.2347   -0.6119 N   0  0  0  0  0  0  0  0  0  0  0  0
    0.8754    0.2320   -1.4580 C   0  0  0  0  0  0  0  0  0  0  0  0
    0.2304    1.6562    1.2893 C   0  0  0  0  0  0  0  0  0  0  0  0
   -1.0392    2.1930    1.9387 C   0  0  0  0  0  0  0  0  0  0  0  0
    3.2428   -0.2884   -1.0891 C   0  0  0  0  0  0  0  0  0  0  0  0
    4.1656   -0.7577   -0.1947 N   0  0  0  0  0  0  0  0  0  0  0  0
    3.5485    0.0637   -2.2236 O   0  0  0  0  0  0  0  0  0  0  0  0
    5.5570   -0.9246   -0.6204 C   0  0  0  0  0  0  0  0  0  0  0  0
    6.5254   -1.2598    0.5076 C   0  0  0  0  0  0  0  0  0  0  0  0
    6.6115   -0.2580    1.4097 F   0  0  0  0  0  0  0  0  0  0  0  0
    6.1204   -2.3713    1.1684 F   0  0  0  0  0  0  0  0  0  0  0  0
    7.7675   -1.4968    0.0326 F   0  0  0  0  0  0  0  0  0  0  0  0
   -4.9343    1.8948    0.9429 N   0  0  0  0  0  0  0  0  0  0  0  0
   -4.7009    0.7391    0.2611 C   0  0  0  0  0  0  0  0  0  0  0  0
   -3.4977    0.1589   -0.0928 C   0  0  0  0  0  0  0  0  0  0  0  0
   -2.3388    0.8540    0.3002 N   0  0  0  0  0  0  0  0  0  0  0  0
   -2.5099    2.0282    1.0046 C   0  0  0  0  0  0  0  0  0  0  0  0
   -3.8402    2.5205    1.3071 C   0  0  0  0  0  0  0  0  0  0  0  0
   -3.7499   -1.0397   -0.7774 C   0  0  0  0  0  0  0  0  0  0  0  0
   -5.1268   -1.1634   -0.8344 C   0  0  0  0  0  0  0  0  0  0  0  0
   -5.6930   -0.0783   -0.2024 N   0  0  0  0  0  0  0  0  0  0  0  0
   -1.3660    2.5827    1.3352 N   0  0  0  0  0  0  0  0  0  0  0  0
   -0.4169    1.7335    0.8244 C   0  0  0  0  0  0  0  0  0  0  0  0
   -0.9823    0.6530    0.1583 C   0  0  0  0  0  0  0  0  0  0  0  0
   -0.3468   -0.4979   -0.5691 C   0  0  2  0  0  0  0  0  0  0  0  0
    0.1797   -1.6223    0.3504 C   0  0  1  0  0  0  0  0  0  0  0  0
    1.5769   -1.1339    0.7463 C   0  0  0  0  0  0  0  0  0  0  0  0
    2.0220   -0.3213   -0.3750 N   0  0  0  0  0  0  0  0  0  0  0  0
    0.9343   -0.0808   -1.3158 C   0  0  0  0  0  0  0  0  0  0  0  0
   -0.7088   -2.0075    1.5359 C   0  0  0  0  0  0  0  0  0  0  0  0
   -0.1574   -3.1936    2.3157 C   0  0  0  0  0  0  0  0  0  0  0  0
    3.3480   -0.0061   -0.5139 C   0  0  0  0  0  0  0  0  0  0  0  0
    3.6611    0.7051   -1.6411 N   0  0  0  0  0  0  0  0  0  0  0  0
    4.2045   -0.3564    0.2912 O   0  0  0  0  0  0  0  0  0  0  0  0
    5.0309    1.1898   -1.8257 C   0  0  0  0  0  0  0  0  0  0  0  0
    5.3799    2.4606   -1.0462 C   0  0  0  0  0  0  0  0  0  0  0  0
    5.3421    2.2976    0.2893 F   0  0  0  0  0  0  0  0  0  0  0  0
    4.5140    3.4551   -1.3652 F   0  0  0  0  0  0  0  0  0  0  0  0
    6.6199    2.8925   -1.3756 F   0  0  0  0  0  0  0  0  0  0  0  0
    0.7641   -0.1963    0.0000 H   0  0  0  0  0  0  0  0  0  0  0  0
   -0.7628   -0.2015    0.0000 H   0  0  0  0  0  0  0  0  0  0  0  0
   -5.7678    2.0469   -1.6423 H   0  0  0  0  0  0  0  0  0  0  0  0
   -2.0250   -2.1517    0.7384 H   0  0  0  0  0  0  0  0  0  0  0  0
   -4.2813   -3.3811    1.6172 H   0  0  0  0  0  0  0  0  0  0  0  0
   -6.2447   -1.9835    0.8629 H   0  0  0  0  0  0  0  0  0  0  0  0
   -0.9242    2.5388   -2.1826 H   0  0  0  0  0  0  0  0  0  0  0  0
   -0.6133   -1.0980   -0.7511 H   0  0  0  0  0  0  0  0  0  0  0  0
   -0.5116   -0.3589    1.5443 H   0  0  0  0  0  0  0  0  0  0  0  0
    2.2158   -0.0728    1.4808 H   0  0  0  0  0  0  0  0  0  0  0  0
    1.4252   -1.5483    0.8858 H   0  0  0  0  0  0  0  0  0  0  0  0
    1.0496    1.2933   -1.6669 H   0  0  0  0  0  0  0  0  0  0  0  0
    0.8732   -0.3101   -2.4099 H   0  0  0  0  0  0  0  0  0  0  0  0
    1.0226    1.7307    2.0447 H   0  0  0  0  0  0  0  0  0  0  0  0
    0.5279    2.3137    0.4653 H   0  0  0  0  0  0  0  0  0  0  0  0
   -0.8607    3.2013    2.3268 H   0  0  0  0  0  0  0  0  0  0  0  0
   -1.3460    1.5616    2.7788 H   0  0  0  0  0  0  0  0  0  0  0  0
   -1.8719    2.2560    1.2370 H   0  0  0  0  0  0  0  0  0  0  0  0
    3.8105   -1.4507    0.4487 H   0  0  0  0  0  0  0  0  0  0  0  0
    5.8788   -0.0046   -1.1210 H   0  0  0  0  0  0  0  0  0  0  0  0
    5.5706   -1.7277   -1.3659 H   0  0  0  0  0  0  0  0  0  0  0  0
   -3.9270    3.4649    1.8681 H   0  0  0  0  0  0  0  0  0  0  0  0
   -3.0508   -1.7557   -1.1850 H   0  0  0  0  0  0  0  0  0  0  0  0
   -5.7558   -1.9311   -1.2657 H   0  0  0  0  0  0  0  0  0  0  0  0
   -6.6809    0.0998   -0.0838 H   0  0  0  0  0  0  0  0  0  0  0  0
    0.6381    1.9466    0.9573 H   0  0  0  0  0  0  0  0  0  0  0  0
   -1.0483   -0.8941   -1.3071 H   0  0  0  0  0  0  0  0  0  0  0  0
    0.3098   -2.5137   -0.2819 H   0  0  0  0  0  0  0  0  0  0  0  0
    1.5626   -0.4984    1.6387 H   0  0  0  0  0  0  0  0  0  0  0  0
    2.2708   -1.9632    0.9191 H   0  0  0  0  0  0  0  0  0  0  0  0
    0.9262    0.9585   -1.6575 H   0  0  0  0  0  0  0  0  0  0  0  0
    1.1099   -0.7311   -2.1810 H   0  0  0  0  0  0  0  0  0  0  0  0
   -0.8263   -1.1650    2.2267 H   0  0  0  0  0  0  0  0  0  0  0  0
   -1.7081   -2.2686    1.1705 H   0  0  0  0  0  0  0  0  0  0  0  0
   -0.8486   -3.4699    3.1183 H   0  0  0  0  0  0  0  0  0  0  0  0
    0.8081   -2.9567    2.7728 H   0  0  0  0  0  0  0  0  0  0  0  0
   -0.0280   -4.0649    1.6660 H   0  0  0  0  0  0  0  0  0  0  0  0
    2.9318    1.3015   -2.0001 H   0  0  0  0  0  0  0  0  0  0  0  0
    5.1417    1.3860   -2.8972 H   0  0  0  0  0  0  0  0  0  0  0  0
    5.7309    0.3908   -1.5584 H   0  0  0  0  0  0  0  0  0  0  0  0
  2  3  1  0
  4  5  1  0
  6  7  1  0
  7  2  2  0
  3 10  1  0
  3  4  2  0
  4  8  1  0
  8  9  2  0
  9 10  1  0
  5 13  1  0
  5  6  1  0
  6 11  2  0
 11 12  1  0
 12 13  2  0
 14 13  1  0
 14 15  1  0
 14 18  1  0
 15 16  1  0
 16 17  1  0
 17 18  1  0
 15 19  1  0
 19 20  1  0
 17 21  1  0
 21 22  1  0
 21 23  2  0
 22 24  1  0
 24 25  1  0
 25 26  1  0
 25 27  1  0
 25 28  1  0
 29 30  1  0
 31 32  1  0
 33 34  1  0
 34 29  2  0
 30 37  1  0
 30 31  2  0
 31 35  1  0
 35 36  2  0
 36 37  1  0
 32 40  1  0
 32 33  1  0
 33 38  2  0
 38 39  1  0
 39 40  2  0
 41 40  1  0
 41 42  1  0
 41 45  1  0
 42 43  1  0
 43 44  1  0
 44 45  1  0
 42 46  1  0
 46 47  1  0
 44 48  1  0
 48 49  1  0
 48 50  2  0
 49 51  1  0
 51 52  1  0
 52 53  1  0
 52 54  1  0
 52 55  1  0
  1 56  1  0
  1 57  1  0
  7 58  1  0
  8 59  1  0
  9 60  1  0
 10 61  1  0
 12 62  1  0
 14 63  1  1
 15 64  1  1
 16 65  1  0
 16 66  1  0
 18 67  1  0
 18 68  1  0
 19 69  1  0
 19 70  1  0
 20 71  1  0
 20 72  1  0
 20 73  1  0
 22 74  1  0
 24 75  1  0
 24 76  1  0
 34 77  1  0
 35 78  1  0
 36 79  1  0
 37 80  1  0
 39 81  1  0
 41 82  1  6
 42 83  1  6
 43 84  1  0
 43 85  1  0
 45 86  1  0
 45 87  1  0
 46 88  1  0
 46 89  1  0
 47 90  1  0
 47 91  1  0
 47 92  1  0
 49 93  1  0
 51 94  1  0
 51 95  1  0
M  END
$$$$
