
     RDKit          3D

 95100  0  0  0  0  0  0  0  0999 V2000
    0.0002    0.3977    0.0000 O   0  0  0  0  0  0  0  0  0  0  0  0
   -4.7736   -0.1136   -2.1245 N   0  0  0  0  0  0  0  0  0  0  0  0
   -4.4338   -0.7950   -0.9957 C   0  0  0  0  0  0  0  0  0  0  0  0
   -3.2410   -0.7959   -0.2961 C   0  0  0  0  0  0  0  0  0  0  0  0
   -2.2193    0.0250   -0.8158 N   0  0  0  0  0  0  0  0  0  0  0  0
   -2.5041    0.7347   -1.9661 C   0  0  0  0  0  0  0  0  0  0  0  0
   -3.8084    0.6403   -2.5929 C   0  0  0  0  0  0  0  0  0  0  0  0
   -3.3631   -1.6569    0.8064 C   0  0  0  0  0  0  0  0  0  0  0  0
   -4.6474   -2.1690    0.7546 C   0  0  0  0  0  0  0  0  0  0  0  0
   -5.2877   -1.6383   -0.3428 N   0  0  0  0  0  0  0  0  0  0  0  0
   -1.4824    1.4467   -2.3818 N   0  0  0  0  0  0  0  0  0  0  0  0
   -0.4967    1.1917   -1.4637 C   0  0  0  0  0  0  0  0  0  0  0  0
   -0.9181    0.3235   -0.4627 C   0  0  0  0  0  0  0  0  0  0  0  0
   -0.1803   -0.2305    0.7235 C   0  0  2  0  0  0  0  0  0  0  0  0
    0.3254    0.8179    1.7401 C   0  0  1  0  0  0  0  0  0  0  0  0
    1.6817    1.2527    1.1774 C   0  0  0  0  0  0  0  0  0  0  0  0
    2.1605    0.1093    0.4182 N   0  0  0  0  0  0  0  0  0  0  0  0
    1.1314   -0.9173    0.2998 C   0  0  0  0  0  0  0  0  0  0  0  0
   -0.5840    2.0020    2.0747 C   0  0  0  0  0  0  0  0  0  0  0  0
   -1.8722    1.5828    2.7651 C   0  0  0  0  0  0  0  0  0  0  0  0
    3.4815    0.0259    0.0613 C   0  0  0  0  0  0  0  0  0  0  0  0
    3.8336   -1.1216   -0.5968 N   0  0  0  0  0  0  0  0  0  0  0  0
    4.3014    0.8968    0.3332 O   0  0  0  0  0  0  0  0  0  0  0  0
    5.1955   -1.2599   -1.1169 C   0  0  0  0  0  0  0  0  0  0  0  0
    5.4694   -0.5208   -2.4293 C   0  0  0  0  0  0  0  0  0  0  0  0
    5.3965    0.8190   -2.3157 F   0  0  0  0  0  0  0  0  0  0  0  0
    6.7024   -0.8286   -2.8961 F   0  0  0  0  0  0  0  0  0  0  0  0
    4.5776   -0.9050   -3.3766 F   0  0  0  0  0  0  0  0  0  0  0  0
   -4.9684   -2.0085    0.2192 N   0  0  0  0  0  0  0  0  0  0  0  0
   -4.6373   -0.7951    0.7417 C   0  0  0  0  0  0  0  0  0  0  0  0
   -3.4023   -0.1794    0.8122 C   0  0  0  0  0  0  0  0  0  0  0  0
   -2.3222   -0.9009    0.2707 N   0  0  0  0  0  0  0  0  0  0  0  0
   -2.5955   -2.1349   -0.2829 C   0  0  0  0  0  0  0  0  0  0  0  0
   -3.9480   -2.6591   -0.2869 C   0  0  0  0  0  0  0  0  0  0  0  0
   -3.5489    1.0743    1.4253 C   0  0  0  0  0  0  0  0  0  0  0  0
   -4.8946    1.1969    1.7253 C   0  0  0  0  0  0  0  0  0  0  0  0
   -5.5442    0.0559    1.3078 N   0  0  0  0  0  0  0  0  0  0  0  0
   -1.5214   -2.7112   -0.7718 N   0  0  0  0  0  0  0  0  0  0  0  0
   -0.5130   -1.8135   -0.5262 C   0  0  0  0  0  0  0  0  0  0  0  0
   -0.9680   -0.6804    0.1369 C   0  0  0  0  0  0  0  0  0  0  0  0
   -0.2351    0.5365    0.6262 C   0  0  2  0  0  0  0  0  0  0  0  0
    0.0687    1.5819   -0.4702 C   0  0  1  0  0  0  0  0  0  0  0  0
    1.3739    1.0749   -1.0926 C   0  0  0  0  0  0  0  0  0  0  0  0
    2.0537    0.3692   -0.0174 N   0  0  0  0  0  0  0  0  0  0  0  0
    1.1793    0.2023    1.1376 C   0  0  0  0  0  0  0  0  0  0  0  0
   -1.0448    1.8530   -1.4847 C   0  0  0  0  0  0  0  0  0  0  0  0
   -0.6926    2.9788   -2.4472 C   0  0  0  0  0  0  0  0  0  0  0  0
    3.3904    0.0849   -0.1166 C   0  0  0  0  0  0  0  0  0  0  0  0
    3.9394   -0.5177    0.9835 N   0  0  0  0  0  0  0  0  0  0  0  0
    4.0621    0.3717   -1.1020 O   0  0  0  0  0  0  0  0  0  0  0  0
    5.3342   -0.9634    0.9361 C   0  0  0  0  0  0  0  0  0  0  0  0
    5.5671   -2.2887    0.2056 C   0  0  0  0  0  0  0  0  0  0  0  0
    5.2975   -2.2294   -1.1116 F   0  0  0  0  0  0  0  0  0  0  0  0
    6.8538   -2.6860    0.3468 F   0  0  0  0  0  0  0  0  0  0  0  0
    4.7884   -3.2609    0.7434 F   0  0  0  0  0  0  0  0  0  0  0  0
   -0.7637   -0.1986    0.0000 H   0  0  0  0  0  0  0  0  0  0  0  0
    0.7635   -0.1990    0.0000 H   0  0  0  0  0  0  0  0  0  0  0  0
   -3.9872    1.2304   -3.5061 H   0  0  0  0  0  0  0  0  0  0  0  0
   -2.6422   -1.9016    1.5724 H   0  0  0  0  0  0  0  0  0  0  0  0
   -5.1641   -2.8638    1.4040 H   0  0  0  0  0  0  0  0  0  0  0  0
   -6.2367   -1.8283   -0.6350 H   0  0  0  0  0  0  0  0  0  0  0  0
    0.4805    1.6487   -1.5721 H   0  0  0  0  0  0  0  0  0  0  0  0
   -0.7990   -0.9644    1.2387 H   0  0  0  0  0  0  0  0  0  0  0  0
    0.5302    0.2786    2.6782 H   0  0  0  0  0  0  0  0  0  0  0  0
    1.6051    2.1069    0.4962 H   0  0  0  0  0  0  0  0  0  0  0  0
    2.3886    1.5109    1.9736 H   0  0  0  0  0  0  0  0  0  0  0  0
    1.3951   -1.7187    1.0003 H   0  0  0  0  0  0  0  0  0  0  0  0
    1.1016   -1.3334   -0.7122 H   0  0  0  0  0  0  0  0  0  0  0  0
   -0.8235    2.5838    1.1779 H   0  0  0  0  0  0  0  0  0  0  0  0
   -0.0430    2.6830    2.7441 H   0  0  0  0  0  0  0  0  0  0  0  0
   -2.5006    0.9774    2.1091 H   0  0  0  0  0  0  0  0  0  0  0  0
   -2.4492    2.4672    3.0542 H   0  0  0  0  0  0  0  0  0  0  0  0
   -1.6628    1.0056    3.6713 H   0  0  0  0  0  0  0  0  0  0  0  0
    3.1062   -1.5408   -1.1558 H   0  0  0  0  0  0  0  0  0  0  0  0
    5.9038   -0.9253   -0.3511 H   0  0  0  0  0  0  0  0  0  0  0  0
    5.3524   -2.3322   -1.2723 H   0  0  0  0  0  0  0  0  0  0  0  0
   -4.1172   -3.6514   -0.7354 H   0  0  0  0  0  0  0  0  0  0  0  0
   -2.8022    1.8273    1.6322 H   0  0  0  0  0  0  0  0  0  0  0  0
   -5.4501    1.9975    2.1960 H   0  0  0  0  0  0  0  0  0  0  0  0
   -6.5329   -0.1366    1.3914 H   0  0  0  0  0  0  0  0  0  0  0  0
    0.5026   -2.0317   -0.8371 H   0  0  0  0  0  0  0  0  0  0  0  0
   -0.7903    0.9870    1.4524 H   0  0  0  0  0  0  0  0  0  0  0  0
    0.2960    2.5263    0.0470 H   0  0  0  0  0  0  0  0  0  0  0  0
    1.2019    0.3633   -1.9077 H   0  0  0  0  0  0  0  0  0  0  0  0
    1.9963    1.8932   -1.4701 H   0  0  0  0  0  0  0  0  0  0  0  0
    1.5027    0.9302    1.8909 H   0  0  0  0  0  0  0  0  0  0  0  0
    1.2683   -0.8021    1.5619 H   0  0  0  0  0  0  0  0  0  0  0  0
   -1.9620    2.1282   -0.9528 H   0  0  0  0  0  0  0  0  0  0  0  0
   -1.2672    0.9542   -2.0705 H   0  0  0  0  0  0  0  0  0  0  0  0
   -1.5322    3.1732   -3.1219 H   0  0  0  0  0  0  0  0  0  0  0  0
    0.1764    2.7231   -3.0606 H   0  0  0  0  0  0  0  0  0  0  0  0
   -0.4734    3.9041   -1.9055 H   0  0  0  0  0  0  0  0  0  0  0  0
    3.3134   -1.0914    1.5265 H   0  0  0  0  0  0  0  0  0  0  0  0
    5.6540   -1.0681    1.9781 H   0  0  0  0  0  0  0  0  0  0  0  0
    5.9439   -0.1773    0.4772 H   0  0  0  0  0  0  0  0  0  0  0  0
  2  3  1  0
  4  5  1  0
  6  7  1  0
  7  2  2  0
  3 10  1  0
  3  4  2  0
  4  8  1  0
  8  9  2  0
  9 10  1  0
  5 13  1  0
  5  6  1  0
  6 11  2  0
 11 12  1  0
 12 13  2  0
 14 13  1  0
 14 15  1  0
 14 18  1  0
 15 16  1  0
 16 17  1  0
 17 18  1  0
 15 19  1  0
 19 20  1  0
 17 21  1  0
 21 22  1  0
 21 23  2  0
 22 24  1  0
 24 25  1  0
 25 26  1  0
 25 27  1  0
 25 28  1  0
 29 30  1  0
 31 32  1  0
 33 34  1  0
 34 29  2  0
 30 37  1  0
 30 31  2  0
 31 35  1  0
 35 36  2  0
 36 37  1  0
 32 40  1  0
 32 33  1  0
 33 38  2  0
 38 39  1  0
 39 40  2  0
 41 40  1  0
 41 42  1  0
 41 45  1  0
 42 43  1  0
 43 44  1  0
 44 45  1  0
 42 46  1  0
 46 47  1  0
 44 48  1  0
 48 49  1  0
 48 50  2  0
 49 51  1  0
 51 52  1  0
 52 53  1  0
 52 54  1  0
 52 55  1  0
  1 56  1  0
  1 57  1  0
  7 58  1  0
  8 59  1  0
  9 60  1  0
 10 61  1  0
 12 62  1  0
 14 63  1  1
 15 64  1  1
 16 65  1  0
 16 66  1  0
 18 67  1  0
 18 68  1  0
 19 69  1  0
 19 70  1  0
 20 71  1  0
 20 72  1  0
 20 73  1  0
 22 74  1  0
 24 75  1  0
 24 76  1  0
 34 77  1  0
 35 78  1  0
 36 79  1  0
 37 80  1  0
 39 81  1  0
 41 82  1  1
 42 83  1  1
 43 84  1  0
 43 85  1  0
 45 86  1  0
 45 87  1  0
 46 88  1  0
 46 89  1  0
 47 90  1  0
 47 91  1  0
 47 92  1  0
 49 93  1  0
 51 94  1  0
 51 95  1  0
M  END
$$$$
