
     RDKit          3D

 95100  0  0  0  0  0  0  0  0999 V2000
    0.0007    0.3979    0.0000 O   0  0  0  0  0  0  0  0  0  0  0  0
   -5.3753    0.7839    0.8777 N   0  0  0  0  0  0  0  0  0  0  0  0
   -4.7365    1.1110   -0.2793 C   0  0  0  0  0  0  0  0  0  0  0  0
   -3.3992    0.9876   -0.6096 C   0  0  0  0  0  0  0  0  0  0  0  0
   -2.5637    0.4447    0.3879 N   0  0  0  0  0  0  0  0  0  0  0  0
   -3.1549    0.1036    1.5892 C   0  0  0  0  0  0  0  0  0  0  0  0
   -4.5784    0.2894    1.7943 C   0  0  0  0  0  0  0  0  0  0  0  0
   -3.2095    1.4606   -1.9180 C   0  0  0  0  0  0  0  0  0  0  0  0
   -4.4548    1.8689   -2.3629 C   0  0  0  0  0  0  0  0  0  0  0  0
   -5.3726    1.6509   -1.3611 N   0  0  0  0  0  0  0  0  0  0  0  0
   -2.2907   -0.3692    2.4579 N   0  0  0  0  0  0  0  0  0  0  0  0
   -1.0908   -0.3243    1.7971 C   0  0  0  0  0  0  0  0  0  0  0  0
   -1.2193    0.1477    0.4959 C   0  0  0  0  0  0  0  0  0  0  0  0
   -0.1824    0.3524   -0.5737 C   0  0  2  0  0  0  0  0  0  0  0  0
    0.5318   -0.9337   -1.0547 C   0  0  1  0  0  0  0  0  0  0  0  0
    1.6692   -1.1243   -0.0450 C   0  0  0  0  0  0  0  0  0  0  0  0
    1.9673    0.2153    0.4392 N   0  0  0  0  0  0  0  0  0  0  0  0
    1.0044    1.1870   -0.0603 C   0  0  0  0  0  0  0  0  0  0  0  0
   -0.3056   -2.2004   -1.2484 C   0  0  0  0  0  0  0  0  0  0  0  0
   -1.3314   -2.0645   -2.3627 C   0  0  0  0  0  0  0  0  0  0  0  0
    3.0592    0.6287    1.1552 C   0  0  0  0  0  0  0  0  0  0  0  0
    3.8906   -0.3729    1.5719 N   0  0  0  0  0  0  0  0  0  0  0  0
    3.2851    1.8072    1.4068 O   0  0  0  0  0  0  0  0  0  0  0  0
    5.0822   -0.0610    2.3585 C   0  0  0  0  0  0  0  0  0  0  0  0
    6.2955    0.4252    1.5590 C   0  0  0  0  0  0  0  0  0  0  0  0
    6.0707    1.5599    0.8699 F   0  0  0  0  0  0  0  0  0  0  0  0
    6.7018   -0.5225    0.6808 F   0  0  0  0  0  0  0  0  0  0  0  0
    7.3358    0.6572    2.3953 F   0  0  0  0  0  0  0  0  0  0  0  0
   -5.3946    1.0983    0.1143 N   0  0  0  0  0  0  0  0  0  0  0  0
   -4.6871    0.7640   -1.0003 C   0  0  0  0  0  0  0  0  0  0  0  0
   -3.3337    0.5219   -1.1381 C   0  0  0  0  0  0  0  0  0  0  0  0
   -2.5640    0.6355    0.0345 N   0  0  0  0  0  0  0  0  0  0  0  0
   -3.2258    0.9611    1.2005 C   0  0  0  0  0  0  0  0  0  0  0  0
   -4.6581    1.1890    1.1965 C   0  0  0  0  0  0  0  0  0  0  0  0
   -3.0596    0.1973   -2.4753 C   0  0  0  0  0  0  0  0  0  0  0  0
   -4.2722    0.2566   -3.1383 C   0  0  0  0  0  0  0  0  0  0  0  0
   -5.2523    0.6022   -2.2340 N   0  0  0  0  0  0  0  0  0  0  0  0
   -2.4162    1.0244    2.2329 N   0  0  0  0  0  0  0  0  0  0  0  0
   -1.1809    0.7291    1.7130 C   0  0  0  0  0  0  0  0  0  0  0  0
   -1.2284    0.4955    0.3441 C   0  0  0  0  0  0  0  0  0  0  0  0
   -0.1396    0.1740   -0.6392 C   0  0  2  0  0  0  0  0  0  0  0  0
    0.3112   -1.3048   -0.6372 C   0  0  1  0  0  0  0  0  0  0  0  0
    1.3509   -1.3553    0.4858 C   0  0  0  0  0  0  0  0  0  0  0  0
    1.9401   -0.0269    0.5084 N   0  0  0  0  0  0  0  0  0  0  0  0
    1.1758    0.9055   -0.3103 C   0  0  0  0  0  0  0  0  0  0  0  0
   -0.7946   -2.3559   -0.5130 C   0  0  0  0  0  0  0  0  0  0  0  0
   -0.2634   -3.7785   -0.6267 C   0  0  0  0  0  0  0  0  0  0  0  0
    3.0431    0.2279    1.2794 C   0  0  0  0  0  0  0  0  0  0  0  0
    3.5079    1.5130    1.2175 N   0  0  0  0  0  0  0  0  0  0  0  0
    3.5714   -0.6206    1.9907 O   0  0  0  0  0  0  0  0  0  0  0  0
    4.7697    1.8559    1.8789 C   0  0  0  0  0  0  0  0  0  0  0  0
    6.0283    1.4846    1.0892 C   0  0  0  0  0  0  0  0  0  0  0  0
    6.1732    0.1584    0.9030 F   0  0  0  0  0  0  0  0  0  0  0  0
    7.1374    1.9370    1.7205 F   0  0  0  0  0  0  0  0  0  0  0  0
    6.0000    2.0699   -0.1357 F   0  0  0  0  0  0  0  0  0  0  0  0
   -0.7636   -0.1976    0.0000 H   0  0  0  0  0  0  0  0  0  0  0  0
    0.7629   -0.2003    0.0000 H   0  0  0  0  0  0  0  0  0  0  0  0
   -5.0010   -0.0032    2.7691 H   0  0  0  0  0  0  0  0  0  0  0  0
   -2.3045    1.5159   -2.5050 H   0  0  0  0  0  0  0  0  0  0  0  0
   -4.7694    2.2970   -3.3054 H   0  0  0  0  0  0  0  0  0  0  0  0
   -6.3624    1.8520   -1.3984 H   0  0  0  0  0  0  0  0  0  0  0  0
   -0.1814   -0.6380    2.2955 H   0  0  0  0  0  0  0  0  0  0  0  0
   -0.6207    0.8680   -1.4273 H   0  0  0  0  0  0  0  0  0  0  0  0
    1.0035   -0.6930   -2.0206 H   0  0  0  0  0  0  0  0  0  0  0  0
    1.3758   -1.7414    0.8104 H   0  0  0  0  0  0  0  0  0  0  0  0
    2.5565   -1.5699   -0.5057 H   0  0  0  0  0  0  0  0  0  0  0  0
    0.7436    1.9139    0.7165 H   0  0  0  0  0  0  0  0  0  0  0  0
    1.4865    1.7224   -0.8875 H   0  0  0  0  0  0  0  0  0  0  0  0
   -0.8098   -2.4890   -0.3193 H   0  0  0  0  0  0  0  0  0  0  0  0
    0.3672   -3.0292   -1.5027 H   0  0  0  0  0  0  0  0  0  0  0  0
   -0.8567   -1.7651   -3.3029 H   0  0  0  0  0  0  0  0  0  0  0  0
   -2.0983   -1.3286   -2.1153 H   0  0  0  0  0  0  0  0  0  0  0  0
   -1.8326   -3.0232   -2.5304 H   0  0  0  0  0  0  0  0  0  0  0  0
    3.5034   -1.3007    1.6408 H   0  0  0  0  0  0  0  0  0  0  0  0
    5.3540   -0.9819    2.8856 H   0  0  0  0  0  0  0  0  0  0  0  0
    4.8179    0.6856    3.1156 H   0  0  0  0  0  0  0  0  0  0  0  0
   -5.1427    1.4501    2.1511 H   0  0  0  0  0  0  0  0  0  0  0  0
   -2.1184   -0.0621   -2.9372 H   0  0  0  0  0  0  0  0  0  0  0  0
   -4.5271    0.0797   -4.1752 H   0  0  0  0  0  0  0  0  0  0  0  0
   -6.2370    0.7157   -2.4314 H   0  0  0  0  0  0  0  0  0  0  0  0
   -0.3061    0.7062    2.3532 H   0  0  0  0  0  0  0  0  0  0  0  0
   -0.4511    0.4826   -1.6401 H   0  0  0  0  0  0  0  0  0  0  0  0
    0.8423   -1.4772   -1.5856 H   0  0  0  0  0  0  0  0  0  0  0  0
    0.9021   -1.5483    1.4669 H   0  0  0  0  0  0  0  0  0  0  0  0
    2.1266   -2.1058    0.3059 H   0  0  0  0  0  0  0  0  0  0  0  0
    1.0412    1.8636    0.2011 H   0  0  0  0  0  0  0  0  0  0  0  0
    1.7587    1.0764   -1.2232 H   0  0  0  0  0  0  0  0  0  0  0  0
   -1.3195   -2.2596    0.4438 H   0  0  0  0  0  0  0  0  0  0  0  0
   -1.5337   -2.1989   -1.3057 H   0  0  0  0  0  0  0  0  0  0  0  0
    0.2723   -3.9237   -1.5708 H   0  0  0  0  0  0  0  0  0  0  0  0
    0.4167   -4.0172    0.1966 H   0  0  0  0  0  0  0  0  0  0  0  0
   -1.0923   -4.4936   -0.5926 H   0  0  0  0  0  0  0  0  0  0  0  0
    3.2800    2.0347    0.3844 H   0  0  0  0  0  0  0  0  0  0  0  0
    4.8000    1.3781    2.8648 H   0  0  0  0  0  0  0  0  0  0  0  0
    4.7497    2.9401    2.0329 H   0  0  0  0  0  0  0  0  0  0  0  0
  2  3  1  0
  4  5  1  0
  6  7  1  0
  7  2  2  0
  3 10  1  0
  3  4  2  0
  4  8  1  0
  8  9  2  0
  9 10  1  0
  5 13  1  0
  5  6  1  0
  6 11  2  0
 11 12  1  0
 12 13  2  0
 14 13  1  0
 14 15  1  0
 14 18  1  0
 15 16  1  0
 16 17  1  0
 17 18  1  0
 15 19  1  0
 19 20  1  0
 17 21  1  0
 21 22  1  0
 21 23  2  0
 22 24  1  0
 24 25  1  0
 25 26  1  0
 25 27  1  0
 25 28  1  0
 29 30  1  0
 31 32  1  0
 33 34  1  0
 34 29  2  0
 30 37  1  0
 30 31  2  0
 31 35  1  0
 35 36  2  0
 36 37  1  0
 32 40  1  0
 32 33  1  0
 33 38  2  0
 38 39  1  0
 39 40  2  0
 41 40  1  0
 41 42  1  0
 41 45  1  0
 42 43  1  0
 43 44  1  0
 44 45  1  0
 42 46  1  0
 46 47  1  0
 44 48  1  0
 48 49  1  0
 48 50  2  0
 49 51  1  0
 51 52  1  0
 52 53  1  0
 52 54  1  0
 52 55  1  0
  1 56  1  0
  1 57  1  0
  7 58  1  0
  8 59  1  0
  9 60  1  0
 10 61  1  0
 12 62  1  0
 14 63  1  6
 15 64  1  6
 16 65  1  0
 16 66  1  0
 18 67  1  0
 18 68  1  0
 19 69  1  0
 19 70  1  0
 20 71  1  0
 20 72  1  0
 20 73  1  0
 22 74  1  0
 24 75  1  0
 24 76  1  0
 34 77  1  0
 35 78  1  0
 36 79  1  0
 37 80  1  0
 39 81  1  0
 41 82  1  6
 42 83  1  6
 43 84  1  0
 43 85  1  0
 45 86  1  0
 45 87  1  0
 46 88  1  0
 46 89  1  0
 47 90  1  0
 47 91  1  0
 47 92  1  0
 49 93  1  0
 51 94  1  0
 51 95  1  0
M  END
$$$$
