
     RDKit          3D

 95100  0  0  0  0  0  0  0  0999 V2000
    0.0113    0.3980    0.0000 O   0  0  0  0  0  0  0  0  0  0  0  0
   -5.0469   -1.3395   -0.0365 N   0  0  0  0  0  0  0  0  0  0  0  0
   -3.8405   -1.9439    0.1468 C   0  0  0  0  0  0  0  0  0  0  0  0
   -2.6476   -1.4153    0.6137 C   0  0  0  0  0  0  0  0  0  0  0  0
   -2.6591   -0.0342    0.9247 N   0  0  0  0  0  0  0  0  0  0  0  0
   -3.8928    0.6008    0.8447 C   0  0  0  0  0  0  0  0  0  0  0  0
   -5.0618   -0.0865    0.3360 C   0  0  0  0  0  0  0  0  0  0  0  0
   -1.7211   -2.4681    0.7211 C   0  0  0  0  0  0  0  0  0  0  0  0
   -2.3485   -3.6032    0.2401 C   0  0  0  0  0  0  0  0  0  0  0  0
   -3.6347   -3.2692   -0.1088 N   0  0  0  0  0  0  0  0  0  0  0  0
   -3.8650    1.8253    1.3104 N   0  0  0  0  0  0  0  0  0  0  0  0
   -2.5559    2.0232    1.6384 C   0  0  0  0  0  0  0  0  0  0  0  0
   -1.7482    0.9344    1.3157 C   0  0  0  0  0  0  0  0  0  0  0  0
   -0.2488    0.9057    1.3929 C   0  0  2  0  0  0  0  0  0  0  0  0
    0.4264    2.2134    0.8621 C   0  0  1  0  0  0  0  0  0  0  0  0
    1.9004    1.7924    0.8407 C   0  0  0  0  0  0  0  0  0  0  0  0
    1.8599    0.4032    0.4285 N   0  0  0  0  0  0  0  0  0  0  0  0
    0.5376   -0.1693    0.6506 C   0  0  0  0  0  0  0  0  0  0  0  0
   -0.0415    2.6544   -0.5478 C   0  0  0  0  0  0  0  0  0  0  0  0
    0.5043    4.0241   -0.9405 C   0  0  0  0  0  0  0  0  0  0  0  0
    3.0125   -0.2646    0.1068 C   0  0  0  0  0  0  0  0  0  0  0  0
    2.8345   -1.5792   -0.2256 N   0  0  0  0  0  0  0  0  0  0  0  0
    4.1208    0.2581    0.1434 O   0  0  0  0  0  0  0  0  0  0  0  0
    3.9872   -2.3684   -0.6665 C   0  0  0  0  0  0  0  0  0  0  0  0
    4.3969   -2.1648   -2.1279 C   0  0  0  0  0  0  0  0  0  0  0  0
    3.3525   -2.4426   -2.9493 F   0  0  0  0  0  0  0  0  0  0  0  0
    5.3957   -3.0180   -2.4603 F   0  0  0  0  0  0  0  0  0  0  0  0
    4.8126   -0.9122   -2.3999 F   0  0  0  0  0  0  0  0  0  0  0  0
   -5.3566    1.6352    1.1183 N   0  0  0  0  0  0  0  0  0  0  0  0
   -4.7617    1.2719   -0.0519 C   0  0  0  0  0  0  0  0  0  0  0  0
   -3.4366    0.9684   -0.3023 C   0  0  0  0  0  0  0  0  0  0  0  0
   -2.5714    1.0301    0.8040 N   0  0  0  0  0  0  0  0  0  0  0  0
   -3.1149    1.3982    2.0175 C   0  0  0  0  0  0  0  0  0  0  0  0
   -4.5300    1.6949    2.1346 C   0  0  0  0  0  0  0  0  0  0  0  0
   -3.2819    0.6666   -1.6628 C   0  0  0  0  0  0  0  0  0  0  0  0
   -4.5434    0.7805   -2.2223 C   0  0  0  0  0  0  0  0  0  0  0  0
   -5.4325    1.1505   -1.2366 N   0  0  0  0  0  0  0  0  0  0  0  0
   -2.2150    1.4343    2.9733 N   0  0  0  0  0  0  0  0  0  0  0  0
   -1.0470    1.0617    2.3573 C   0  0  0  0  0  0  0  0  0  0  0  0
   -1.2290    0.7957    1.0064 C   0  0  0  0  0  0  0  0  0  0  0  0
   -0.2790    0.3516   -0.0542 C   0  0  2  0  0  0  0  0  0  0  0  0
   -0.3191   -1.1570   -0.3973 C   0  0  1  0  0  0  0  0  0  0  0  0
    0.9796   -1.3050   -1.2048 C   0  0  0  0  0  0  0  0  0  0  0  0
    1.9050   -0.3590   -0.6031 N   0  0  0  0  0  0  0  0  0  0  0  0
    1.2045    0.5881    0.2548 C   0  0  0  0  0  0  0  0  0  0  0  0
   -0.3529   -2.0847    0.8366 C   0  0  0  0  0  0  0  0  0  0  0  0
   -0.4431   -3.5612    0.4699 C   0  0  0  0  0  0  0  0  0  0  0  0
    3.2555   -0.5058   -0.7771 C   0  0  0  0  0  0  0  0  0  0  0  0
    4.0303    0.3825   -0.0819 N   0  0  0  0  0  0  0  0  0  0  0  0
    3.7477   -1.3854   -1.4768 O   0  0  0  0  0  0  0  0  0  0  0  0
    5.4801    0.3868   -0.2897 C   0  0  0  0  0  0  0  0  0  0  0  0
    5.9461    1.1456   -1.5347 C   0  0  0  0  0  0  0  0  0  0  0  0
    5.5252    0.5879   -2.6850 F   0  0  0  0  0  0  0  0  0  0  0  0
    7.2975    1.2052   -1.5787 F   0  0  0  0  0  0  0  0  0  0  0  0
    5.4896    2.4252   -1.5020 F   0  0  0  0  0  0  0  0  0  0  0  0
   -0.7686   -0.1773    0.0000 H   0  0  0  0  0  0  0  0  0  0  0  0
    0.7573   -0.2207    0.0000 H   0  0  0  0  0  0  0  0  0  0  0  0
   -6.0010    0.4841    0.2594 H   0  0  0  0  0  0  0  0  0  0  0  0
   -0.7215   -2.4776    1.1222 H   0  0  0  0  0  0  0  0  0  0  0  0
   -2.0035   -4.6268    0.1423 H   0  0  0  0  0  0  0  0  0  0  0  0
   -4.3428   -3.8944   -0.4666 H   0  0  0  0  0  0  0  0  0  0  0  0
   -2.2316    2.9758    2.0407 H   0  0  0  0  0  0  0  0  0  0  0  0
    0.0055    0.8249    2.4603 H   0  0  0  0  0  0  0  0  0  0  0  0
    0.2780    3.0429    1.5667 H   0  0  0  0  0  0  0  0  0  0  0  0
    2.5379    2.3750    0.1717 H   0  0  0  0  0  0  0  0  0  0  0  0
    2.3320    1.8270    1.8503 H   0  0  0  0  0  0  0  0  0  0  0  0
    0.6680   -1.0582    1.2679 H   0  0  0  0  0  0  0  0  0  0  0  0
    0.1094   -0.4303   -0.3215 H   0  0  0  0  0  0  0  0  0  0  0  0
    0.2579    1.9236   -1.3077 H   0  0  0  0  0  0  0  0  0  0  0  0
   -1.1326    2.7161   -0.5928 H   0  0  0  0  0  0  0  0  0  0  0  0
    1.5953    4.0211   -0.9943 H   0  0  0  0  0  0  0  0  0  0  0  0
    0.1937    4.7891   -0.2216 H   0  0  0  0  0  0  0  0  0  0  0  0
    0.1216    4.3100   -1.9262 H   0  0  0  0  0  0  0  0  0  0  0  0
    1.9539   -1.7908   -0.6703 H   0  0  0  0  0  0  0  0  0  0  0  0
    3.7115   -3.4183   -0.5141 H   0  0  0  0  0  0  0  0  0  0  0  0
    4.8391   -2.1490   -0.0132 H   0  0  0  0  0  0  0  0  0  0  0  0
   -4.9173    1.9862    3.1261 H   0  0  0  0  0  0  0  0  0  0  0  0
   -2.3851    0.3996   -2.2050 H   0  0  0  0  0  0  0  0  0  0  0  0
   -4.8853    0.6386   -3.2381 H   0  0  0  0  0  0  0  0  0  0  0  0
   -6.4219    1.3155   -1.3526 H   0  0  0  0  0  0  0  0  0  0  0  0
   -0.1280    0.9962    2.9280 H   0  0  0  0  0  0  0  0  0  0  0  0
   -0.4934    0.9188   -0.9702 H   0  0  0  0  0  0  0  0  0  0  0  0
   -1.1833   -1.3945   -1.0269 H   0  0  0  0  0  0  0  0  0  0  0  0
    0.8281   -0.9859   -2.2419 H   0  0  0  0  0  0  0  0  0  0  0  0
    1.3984   -2.3130   -1.2169 H   0  0  0  0  0  0  0  0  0  0  0  0
    1.5108    1.6143    0.0244 H   0  0  0  0  0  0  0  0  0  0  0  0
    1.4821    0.3629    1.2903 H   0  0  0  0  0  0  0  0  0  0  0  0
   -1.2341   -1.8538    1.4482 H   0  0  0  0  0  0  0  0  0  0  0  0
    0.5306   -1.9299    1.4683 H   0  0  0  0  0  0  0  0  0  0  0  0
   -0.5706   -4.1632    1.3766 H   0  0  0  0  0  0  0  0  0  0  0  0
    0.4644   -3.9156   -0.0307 H   0  0  0  0  0  0  0  0  0  0  0  0
   -1.2990   -3.7572   -0.1862 H   0  0  0  0  0  0  0  0  0  0  0  0
    3.6068    1.2736    0.1209 H   0  0  0  0  0  0  0  0  0  0  0  0
    5.8367   -0.6485   -0.3314 H   0  0  0  0  0  0  0  0  0  0  0  0
    5.9131    0.8534    0.6001 H   0  0  0  0  0  0  0  0  0  0  0  0
  2  3  1  0
  4  5  1  0
  6  7  1  0
  7  2  2  0
  3 10  1  0
  3  4  2  0
  4  8  1  0
  8  9  2  0
  9 10  1  0
  5 13  1  0
  5  6  1  0
  6 11  2  0
 11 12  1  0
 12 13  2  0
 14 13  1  0
 14 15  1  0
 14 18  1  0
 15 16  1  0
 16 17  1  0
 17 18  1  0
 15 19  1  0
 19 20  1  0
 17 21  1  0
 21 22  1  0
 21 23  2  0
 22 24  1  0
 24 25  1  0
 25 26  1  0
 25 27  1  0
 25 28  1  0
 29 30  1  0
 31 32  1  0
 33 34  1  0
 34 29  2  0
 30 37  1  0
 30 31  2  0
 31 35  1  0
 35 36  2  0
 36 37  1  0
 32 40  1  0
 32 33  1  0
 33 38  2  0
 38 39  1  0
 39 40  2  0
 41 40  1  0
 41 42  1  0
 41 45  1  0
 42 43  1  0
 43 44  1  0
 44 45  1  0
 42 46  1  0
 46 47  1  0
 44 48  1  0
 48 49  1  0
 48 50  2  0
 49 51  1  0
 51 52  1  0
 52 53  1  0
 52 54  1  0
 52 55  1  0
  1 56  1  0
  1 57  1  0
  7 58  1  0
  8 59  1  0
  9 60  1  0
 10 61  1  0
 12 62  1  0
 14 63  1  1
 15 64  1  1
 16 65  1  0
 16 66  1  0
 18 67  1  0
 18 68  1  0
 19 69  1  0
 19 70  1  0
 20 71  1  0
 20 72  1  0
 20 73  1  0
 22 74  1  0
 24 75  1  0
 24 76  1  0
 34 77  1  0
 35 78  1  0
 36 79  1  0
 37 80  1  0
 39 81  1  0
 41 82  1  6
 42 83  1  6
 43 84  1  0
 43 85  1  0
 45 86  1  0
 45 87  1  0
 46 88  1  0
 46 89  1  0
 47 90  1  0
 47 91  1  0
 47 92  1  0
 49 93  1  0
 51 94  1  0
 51 95  1  0
M  END
$$$$
