
     RDKit          3D

 55 60  0  0  0  0  0  0  0  0999 V2000
    0.0000    0.0000    0.0000 O   0  0  0  0  0  0  0  0  0  0  0  0
   -3.8125    2.5586    0.7839 N   0  0  0  0  0  0  0  0  0  0  0  0
   -3.7206    2.0829   -0.4752 C   0  0  0  0  0  0  0  0  0  0  0  0
   -2.9211    0.9798   -0.7027 C   0  0  0  0  0  0  0  0  0  0  0  0
   -2.2486    0.3958    0.3223 N   0  0  0  0  0  0  0  0  0  0  0  0
   -2.3694    0.9058    1.5703 C   0  0  0  0  0  0  0  0  0  0  0  0
   -3.1649    2.0128    1.8296 C   0  0  0  0  0  0  0  0  0  0  0  0
   -2.9669    0.6600   -2.0433 C   0  0  0  0  0  0  0  0  0  0  0  0
   -3.8073    1.5859   -2.6304 C   0  0  0  0  0  0  0  0  0  0  0  0
   -4.2447    2.4309   -1.6527 N   0  0  0  0  0  0  0  0  0  0  0  0
   -1.6180    0.1607    2.3880 N   0  0  0  0  0  0  0  0  0  0  0  0
   -1.0224   -0.8146    1.6759 C   0  0  0  0  0  0  0  0  0  0  0  0
   -1.4238   -0.6605    0.3772 C   0  0  0  0  0  0  0  0  0  0  0  0
   -1.0507   -1.4818   -0.8123 C   0  0  2  0  0  0  0  0  0  0  0  0
   -0.3214   -2.7211   -0.4448 C   0  0  1  0  0  0  0  0  0  0  0  0
    1.1159   -2.5308   -0.7868 C   0  0  0  0  0  0  0  0  0  0  0  0
    1.2705   -1.1285   -1.1209 N   0  0  0  0  0  0  0  0  0  0  0  0
   -0.0337   -0.7225   -1.6380 C   0  0  0  0  0  0  0  0  0  0  0  0
   -0.5959   -3.2606    0.9173 C   0  0  0  0  0  0  0  0  0  0  0  0
    0.2009   -4.5201    1.1776 C   0  0  0  0  0  0  0  0  0  0  0  0
    2.4472   -0.3051   -0.9787 C   0  0  0  0  0  0  0  0  0  0  0  0
    3.5910   -0.9149   -0.4561 N   0  0  0  0  0  0  0  0  0  0  0  0
    2.3469    0.8909   -1.3361 O   0  0  0  0  0  0  0  0  0  0  0  0
    4.8472   -0.2753   -0.2380 C   0  0  0  0  0  0  0  0  0  0  0  0
    4.8288    0.8831    0.7094 C   0  0  0  0  0  0  0  0  0  0  0  0
    6.1466    1.3580    0.7806 F   0  0  0  0  0  0  0  0  0  0  0  0
    4.4840    0.4914    2.0062 F   0  0  0  0  0  0  0  0  0  0  0  0
    4.0430    1.9392    0.2959 F   0  0  0  0  0  0  0  0  0  0  0  0
   -5.4296   -0.0730    0.7073 N   0  0  0  0  0  0  0  0  0  0  0  0
   -4.6564   -1.1642    0.6284 C   0  0  0  0  0  0  0  0  0  0  0  0
   -3.3969   -1.0099    0.0990 C   0  0  0  0  0  0  0  0  0  0  0  0
   -2.9508    0.2004   -0.3282 N   0  0  0  0  0  0  0  0  0  0  0  0
   -3.7602    1.2758   -0.2316 C   0  0  0  0  0  0  0  0  0  0  0  0
   -5.0335    1.1420    0.2989 C   0  0  0  0  0  0  0  0  0  0  0  0
   -2.8338   -2.2680    0.1375 C   0  0  0  0  0  0  0  0  0  0  0  0
   -3.7409   -3.1376    0.6761 C   0  0  0  0  0  0  0  0  0  0  0  0
   -4.8422   -2.4411    0.9665 N   0  0  0  0  0  0  0  0  0  0  0  0
   -3.0802    2.3393   -0.7207 N   0  0  0  0  0  0  0  0  0  0  0  0
   -1.8481    1.9205   -1.1204 C   0  0  0  0  0  0  0  0  0  0  0  0
   -1.7813    0.5866   -0.8701 C   0  0  0  0  0  0  0  0  0  0  0  0
   -0.6619   -0.3503   -1.1178 C   0  0  2  0  0  0  0  0  0  0  0  0
   -0.2465   -0.9436    0.2105 C   0  0  1  0  0  0  0  0  0  0  0  0
    1.1558   -1.3917   -0.1486 C   0  0  0  0  0  0  0  0  0  0  0  0
    1.6715   -0.1284   -0.6972 N   0  0  0  0  0  0  0  0  0  0  0  0
    0.5990    0.3584   -1.5426 C   0  0  0  0  0  0  0  0  0  0  0  0
   -0.2958    0.0817    1.2976 C   0  0  0  0  0  0  0  0  0  0  0  0
    0.6079    1.2674    1.0641 C   0  0  0  0  0  0  0  0  0  0  0  0
    2.9415    0.4743   -0.4471 C   0  0  0  0  0  0  0  0  0  0  0  0
    3.8190   -0.2008    0.4224 N   0  0  0  0  0  0  0  0  0  0  0  0
    3.1737    1.5587   -1.0232 O   0  0  0  0  0  0  0  0  0  0  0  0
    5.1129    0.2103    0.8039 C   0  0  0  0  0  0  0  0  0  0  0  0
    6.1286    0.3647   -0.2813 C   0  0  0  0  0  0  0  0  0  0  0  0
    7.3509    0.7700    0.2597 F   0  0  0  0  0  0  0  0  0  0  0  0
    5.7155    1.3725   -1.1253 F   0  0  0  0  0  0  0  0  0  0  0  0
    6.2819   -0.8140   -1.0203 F   0  0  0  0  0  0  0  0  0  0  0  0
  2  3  1  0
  4  5  1  0
  6  7  1  0
  7  2  2  0
  3 10  1  0
  3  4  2  0
  4  8  1  0
  8  9  2  0
  9 10  1  0
  5 13  1  0
  5  6  1  0
  6 11  2  0
 11 12  1  0
 12 13  2  0
 14 13  1  1
 14 15  1  0
 14 18  1  0
 15 16  1  0
 16 17  1  0
 17 18  1  0
 15 19  1  1
 19 20  1  0
 17 21  1  0
 21 22  1  0
 21 23  2  0
 22 24  1  0
 24 25  1  0
 25 26  1  0
 25 27  1  0
 25 28  1  0
 29 30  1  0
 31 32  1  0
 33 34  1  0
 34 29  2  0
 30 37  1  0
 30 31  2  0
 31 35  1  0
 35 36  2  0
 36 37  1  0
 32 40  1  0
 32 33  1  0
 33 38  2  0
 38 39  1  0
 39 40  2  0
 41 40  1  1
 41 42  1  0
 41 45  1  0
 42 43  1  0
 43 44  1  0
 44 45  1  0
 42 46  1  1
 46 47  1  0
 44 48  1  0
 48 49  1  0
 48 50  2  0
 49 51  1  0
 51 52  1  0
 52 53  1  0
 52 54  1  0
 52 55  1  0
M  END
