
     RDKit          3D

 95100  0  0  0  0  0  0  0  0999 V2000
   -0.0010    0.3981    0.0000 O   0  0  0  0  0  0  0  0  0  0  0  0
   -5.0711    1.0741    1.7163 N   0  0  0  0  0  0  0  0  0  0  0  0
   -4.7393    0.7609    0.4335 C   0  0  0  0  0  0  0  0  0  0  0  0
   -3.5136    0.3938   -0.0909 C   0  0  0  0  0  0  0  0  0  0  0  0
   -2.4450    0.3297    0.8253 N   0  0  0  0  0  0  0  0  0  0  0  0
   -2.7152    0.6634    2.1369 C   0  0  0  0  0  0  0  0  0  0  0  0
   -4.0577    1.0263    2.5475 C   0  0  0  0  0  0  0  0  0  0  0  0
   -3.6512    0.1908   -1.4727 C   0  0  0  0  0  0  0  0  0  0  0  0
   -4.9821    0.4326   -1.7646 C   0  0  0  0  0  0  0  0  0  0  0  0
   -5.6323    0.7756   -0.6004 N   0  0  0  0  0  0  0  0  0  0  0  0
   -1.6427    0.6243    2.8934 N   0  0  0  0  0  0  0  0  0  0  0  0
   -0.6395    0.2480    2.0370 C   0  0  0  0  0  0  0  0  0  0  0  0
   -1.1054    0.0044    0.7510 C   0  0  0  0  0  0  0  0  0  0  0  0
   -0.3989   -0.4535   -0.4936 C   0  0  2  0  0  0  0  0  0  0  0  0
    0.5862   -1.6315   -0.3221 C   0  0  1  0  0  0  0  0  0  0  0  0
    1.9018   -0.9623    0.0836 C   0  0  0  0  0  0  0  0  0  0  0  0
    1.8336    0.3743   -0.4886 N   0  0  0  0  0  0  0  0  0  0  0  0
    0.5176    0.6455   -1.0528 C   0  0  0  0  0  0  0  0  0  0  0  0
    0.1822   -2.7862    0.5966 C   0  0  0  0  0  0  0  0  0  0  0  0
   -1.1008   -3.4740    0.1529 C   0  0  0  0  0  0  0  0  0  0  0  0
    2.7945    1.3497   -0.4785 C   0  0  0  0  0  0  0  0  0  0  0  0
    3.9725    0.9972    0.1244 N   0  0  0  0  0  0  0  0  0  0  0  0
    2.6151    2.4685   -0.9479 O   0  0  0  0  0  0  0  0  0  0  0  0
    5.1078    1.9206    0.0735 C   0  0  0  0  0  0  0  0  0  0  0  0
    5.8885    1.9091   -1.2437 C   0  0  0  0  0  0  0  0  0  0  0  0
    6.9873    2.6930   -1.1506 F   0  0  0  0  0  0  0  0  0  0  0  0
    5.1684    2.3375   -2.2977 F   0  0  0  0  0  0  0  0  0  0  0  0
    6.3164    0.6515   -1.5209 F   0  0  0  0  0  0  0  0  0  0  0  0
   -5.4208   -0.4208    1.4855 N   0  0  0  0  0  0  0  0  0  0  0  0
   -4.8541    0.1349    0.3783 C   0  0  0  0  0  0  0  0  0  0  0  0
   -3.5176    0.2925    0.0666 C   0  0  0  0  0  0  0  0  0  0  0  0
   -2.6014   -0.1865    1.0195 N   0  0  0  0  0  0  0  0  0  0  0  0
   -3.1132   -0.7615    2.1637 C   0  0  0  0  0  0  0  0  0  0  0  0
   -4.5468   -0.8597    2.3604 C   0  0  0  0  0  0  0  0  0  0  0  0
   -3.4054    0.9192   -1.1830 C   0  0  0  0  0  0  0  0  0  0  0  0
   -4.7017    1.1337   -1.6170 C   0  0  0  0  0  0  0  0  0  0  0  0
   -5.5717    0.6557   -0.6615 N   0  0  0  0  0  0  0  0  0  0  0  0
   -2.1680   -1.1731    2.9781 N   0  0  0  0  0  0  0  0  0  0  0  0
   -0.9997   -0.8569    2.3301 C   0  0  0  0  0  0  0  0  0  0  0  0
   -1.2270   -0.2398    1.1073 C   0  0  0  0  0  0  0  0  0  0  0  0
   -0.2912    0.2852    0.0742 C   0  0  2  0  0  0  0  0  0  0  0  0
   -0.0117   -0.6346   -1.1386 C   0  0  1  0  0  0  0  0  0  0  0  0
    1.2161    0.0682   -1.7463 C   0  0  0  0  0  0  0  0  0  0  0  0
    1.9465    0.6071   -0.6129 N   0  0  0  0  0  0  0  0  0  0  0  0
    1.1187    0.6204    0.5837 C   0  0  0  0  0  0  0  0  0  0  0  0
    0.3214   -2.1072   -0.8163 C   0  0  0  0  0  0  0  0  0  0  0  0
   -0.9074   -3.0071   -0.7678 C   0  0  0  0  0  0  0  0  0  0  0  0
    3.1828    1.1717   -0.7840 C   0  0  0  0  0  0  0  0  0  0  0  0
    3.7577    1.6485    0.3636 N   0  0  0  0  0  0  0  0  0  0  0  0
    3.7281    1.2692   -1.8773 O   0  0  0  0  0  0  0  0  0  0  0  0
    5.1226    2.1767    0.3173 C   0  0  0  0  0  0  0  0  0  0  0  0
    6.2307    1.1196    0.3120 C   0  0  0  0  0  0  0  0  0  0  0  0
    6.2315    0.3473   -0.7912 F   0  0  0  0  0  0  0  0  0  0  0  0
    7.4467    1.7086    0.4057 F   0  0  0  0  0  0  0  0  0  0  0  0
    6.1004    0.3022    1.3873 F   0  0  0  0  0  0  0  0  0  0  0  0
    0.7636   -0.1970    0.0000 H   0  0  0  0  0  0  0  0  0  0  0  0
   -0.7626   -0.2011    0.0000 H   0  0  0  0  0  0  0  0  0  0  0  0
   -4.2247    1.2725    3.6082 H   0  0  0  0  0  0  0  0  0  0  0  0
   -2.9059   -0.0838   -2.2053 H   0  0  0  0  0  0  0  0  0  0  0  0
   -5.5237    0.3989   -2.7007 H   0  0  0  0  0  0  0  0  0  0  0  0
   -6.6095    1.0151   -0.5073 H   0  0  0  0  0  0  0  0  0  0  0  0
    0.3764    0.1581    2.4008 H   0  0  0  0  0  0  0  0  0  0  0  0
   -1.1333   -0.7382   -1.2485 H   0  0  0  0  0  0  0  0  0  0  0  0
    0.7467   -2.0536   -1.3269 H   0  0  0  0  0  0  0  0  0  0  0  0
    2.0244   -0.8734    1.1676 H   0  0  0  0  0  0  0  0  0  0  0  0
    2.7655   -1.5005   -0.3205 H   0  0  0  0  0  0  0  0  0  0  0  0
    0.1877    1.6638   -0.8199 H   0  0  0  0  0  0  0  0  0  0  0  0
    0.6141    0.5524   -2.1416 H   0  0  0  0  0  0  0  0  0  0  0  0
    0.9893   -3.5293    0.6018 H   0  0  0  0  0  0  0  0  0  0  0  0
    0.0737   -2.4504    1.6330 H   0  0  0  0  0  0  0  0  0  0  0  0
   -1.9593   -2.7994    0.2069 H   0  0  0  0  0  0  0  0  0  0  0  0
   -1.3111   -4.3320    0.7998 H   0  0  0  0  0  0  0  0  0  0  0  0
   -1.0153   -3.8393   -0.8752 H   0  0  0  0  0  0  0  0  0  0  0  0
    4.1983    0.0150    0.1105 H   0  0  0  0  0  0  0  0  0  0  0  0
    5.7771    1.6247    0.8884 H   0  0  0  0  0  0  0  0  0  0  0  0
    4.7526    2.9358    0.2819 H   0  0  0  0  0  0  0  0  0  0  0  0
   -4.9110   -1.3264    3.2892 H   0  0  0  0  0  0  0  0  0  0  0  0
   -2.5164    1.1989   -1.7306 H   0  0  0  0  0  0  0  0  0  0  0  0
   -5.0827    1.5861   -2.5235 H   0  0  0  0  0  0  0  0  0  0  0  0
   -6.5818    0.6755   -0.7060 H   0  0  0  0  0  0  0  0  0  0  0  0
   -0.0460   -1.0974    2.7840 H   0  0  0  0  0  0  0  0  0  0  0  0
   -0.7015    1.2296   -0.3098 H   0  0  0  0  0  0  0  0  0  0  0  0
   -0.8359   -0.6093   -1.8599 H   0  0  0  0  0  0  0  0  0  0  0  0
    1.8583   -0.5818   -2.3487 H   0  0  0  0  0  0  0  0  0  0  0  0
    0.9057    0.9151   -2.3708 H   0  0  0  0  0  0  0  0  0  0  0  0
    1.5243   -0.1304    1.2696 H   0  0  0  0  0  0  0  0  0  0  0  0
    1.1586    1.5984    1.0740 H   0  0  0  0  0  0  0  0  0  0  0  0
    0.8794   -2.1937    0.1225 H   0  0  0  0  0  0  0  0  0  0  0  0
    0.9734   -2.5108   -1.6010 H   0  0  0  0  0  0  0  0  0  0  0  0
   -0.5991   -4.0494   -0.6359 H   0  0  0  0  0  0  0  0  0  0  0  0
   -1.5742   -2.7564    0.0585 H   0  0  0  0  0  0  0  0  0  0  0  0
   -1.4769   -2.9443   -1.7001 H   0  0  0  0  0  0  0  0  0  0  0  0
    3.5007    1.1564    1.2064 H   0  0  0  0  0  0  0  0  0  0  0  0
    5.2344    2.8055    1.2070 H   0  0  0  0  0  0  0  0  0  0  0  0
    5.2252    2.8211   -0.5625 H   0  0  0  0  0  0  0  0  0  0  0  0
  2  3  1  0
  4  5  1  0
  6  7  1  0
  7  2  2  0
  3 10  1  0
  3  4  2  0
  4  8  1  0
  8  9  2  0
  9 10  1  0
  5 13  1  0
  5  6  1  0
  6 11  2  0
 11 12  1  0
 12 13  2  0
 14 13  1  0
 14 15  1  0
 14 18  1  0
 15 16  1  0
 16 17  1  0
 17 18  1  0
 15 19  1  0
 19 20  1  0
 17 21  1  0
 21 22  1  0
 21 23  2  0
 22 24  1  0
 24 25  1  0
 25 26  1  0
 25 27  1  0
 25 28  1  0
 29 30  1  0
 31 32  1  0
 33 34  1  0
 34 29  2  0
 30 37  1  0
 30 31  2  0
 31 35  1  0
 35 36  2  0
 36 37  1  0
 32 40  1  0
 32 33  1  0
 33 38  2  0
 38 39  1  0
 39 40  2  0
 41 40  1  0
 41 42  1  0
 41 45  1  0
 42 43  1  0
 43 44  1  0
 44 45  1  0
 42 46  1  0
 46 47  1  0
 44 48  1  0
 48 49  1  0
 48 50  2  0
 49 51  1  0
 51 52  1  0
 52 53  1  0
 52 54  1  0
 52 55  1  0
  1 56  1  0
  1 57  1  0
  7 58  1  0
  8 59  1  0
  9 60  1  0
 10 61  1  0
 12 62  1  0
 14 63  1  6
 15 64  1  6
 16 65  1  0
 16 66  1  0
 18 67  1  0
 18 68  1  0
 19 69  1  0
 19 70  1  0
 20 71  1  0
 20 72  1  0
 20 73  1  0
 22 74  1  0
 24 75  1  0
 24 76  1  0
 34 77  1  0
 35 78  1  0
 36 79  1  0
 37 80  1  0
 39 81  1  0
 41 82  1  6
 42 83  1  6
 43 84  1  0
 43 85  1  0
 45 86  1  0
 45 87  1  0
 46 88  1  0
 46 89  1  0
 47 90  1  0
 47 91  1  0
 47 92  1  0
 49 93  1  0
 51 94  1  0
 51 95  1  0
M  END
$$$$
