
     RDKit          3D

 95100  0  0  0  0  0  0  0  0999 V2000
    0.2918    0.2712    0.0000 O   0  0  0  0  0  0  0  0  0  0  0  0
   -5.1217   -1.6354    2.3151 N   0  0  0  0  0  0  0  0  0  0  0  0
   -3.8400   -2.0951    2.3077 C   0  0  0  0  0  0  0  0  0  0  0  0
   -2.6826   -1.4531    1.9048 C   0  0  0  0  0  0  0  0  0  0  0  0
   -2.8378   -0.1338    1.4320 N   0  0  0  0  0  0  0  0  0  0  0  0
   -4.1099    0.4003    1.4586 C   0  0  0  0  0  0  0  0  0  0  0  0
   -5.2376   -0.3974    1.8950 C   0  0  0  0  0  0  0  0  0  0  0  0
   -1.5885   -2.3053    2.1179 C   0  0  0  0  0  0  0  0  0  0  0  0
   -2.1131   -3.4799    2.6276 C   0  0  0  0  0  0  0  0  0  0  0  0
   -3.4767   -3.3398    2.7370 N   0  0  0  0  0  0  0  0  0  0  0  0
   -4.1211    1.6652    1.1072 N   0  0  0  0  0  0  0  0  0  0  0  0
   -2.8077    1.9492    0.8183 C   0  0  0  0  0  0  0  0  0  0  0  0
   -1.9868    0.8341    0.9246 C   0  0  0  0  0  0  0  0  0  0  0  0
   -0.5317    0.6100    0.6690 C   0  0  2  0  0  0  0  0  0  0  0  0
    0.3781    1.8141    0.2914 C   0  0  1  0  0  0  0  0  0  0  0  0
    1.6816    1.0488   -0.0323 C   0  0  0  0  0  0  0  0  0  0  0  0
    1.2280   -0.1838   -0.6695 N   0  0  0  0  0  0  0  0  0  0  0  0
   -0.1988   -0.3757   -0.4573 C   0  0  0  0  0  0  0  0  0  0  0  0
   -0.0418    2.6498   -0.9459 C   0  0  0  0  0  0  0  0  0  0  0  0
    0.8357    3.8815   -1.1481 C   0  0  0  0  0  0  0  0  0  0  0  0
    1.9306   -1.0191   -1.4983 C   0  0  0  0  0  0  0  0  0  0  0  0
    3.2571   -0.7095   -1.6310 N   0  0  0  0  0  0  0  0  0  0  0  0
    1.4163   -1.9651   -2.0879 O   0  0  0  0  0  0  0  0  0  0  0  0
    4.1385   -1.5622   -2.4290 C   0  0  0  0  0  0  0  0  0  0  0  0
    5.5109   -0.9567   -2.7022 C   0  0  0  0  0  0  0  0  0  0  0  0
    5.4273    0.1688   -3.4428 F   0  0  0  0  0  0  0  0  0  0  0  0
    6.1271   -0.6363   -1.5378 F   0  0  0  0  0  0  0  0  0  0  0  0
    6.3039   -1.8322   -3.3598 F   0  0  0  0  0  0  0  0  0  0  0  0
   -4.7583    2.4001   -0.7359 N   0  0  0  0  0  0  0  0  0  0  0  0
   -4.4849    1.1711   -1.2571 C   0  0  0  0  0  0  0  0  0  0  0  0
   -3.3340    0.4090   -1.1479 C   0  0  0  0  0  0  0  0  0  0  0  0
   -2.2890    0.9741   -0.3887 N   0  0  0  0  0  0  0  0  0  0  0  0
   -2.5072    2.2247    0.1541 C   0  0  0  0  0  0  0  0  0  0  0  0
   -3.7665    2.9111   -0.0446 C   0  0  0  0  0  0  0  0  0  0  0  0
   -3.5131   -0.7858   -1.8666 C   0  0  0  0  0  0  0  0  0  0  0  0
   -4.7846   -0.7197   -2.4120 C   0  0  0  0  0  0  0  0  0  0  0  0
   -5.3639    0.4704   -2.0333 N   0  0  0  0  0  0  0  0  0  0  0  0
   -1.4641    2.6742    0.8141 N   0  0  0  0  0  0  0  0  0  0  0  0
   -0.5265    1.6859    0.6765 C   0  0  0  0  0  0  0  0  0  0  0  0
   -1.0110    0.5942   -0.0362 C   0  0  0  0  0  0  0  0  0  0  0  0
   -0.3412   -0.6958   -0.4209 C   0  0  2  0  0  0  0  0  0  0  0  0
    0.1922   -1.5500    0.7559 C   0  0  1  0  0  0  0  0  0  0  0  0
    1.5793   -0.9627    1.0402 C   0  0  0  0  0  0  0  0  0  0  0  0
    2.0069   -0.3794   -0.2265 N   0  0  0  0  0  0  0  0  0  0  0  0
    0.9461   -0.4335   -1.2205 C   0  0  0  0  0  0  0  0  0  0  0  0
   -0.6900   -1.6444    2.0013 C   0  0  0  0  0  0  0  0  0  0  0  0
   -1.9984   -2.3724    1.7386 C   0  0  0  0  0  0  0  0  0  0  0  0
    3.1132    0.4004   -0.4361 C   0  0  0  0  0  0  0  0  0  0  0  0
    4.0313    0.3851    0.5858 N   0  0  0  0  0  0  0  0  0  0  0  0
    3.2730    1.0854   -1.4423 O   0  0  0  0  0  0  0  0  0  0  0  0
    5.2551    1.1695    0.4063 C   0  0  0  0  0  0  0  0  0  0  0  0
    6.3075    0.5681   -0.5373 C   0  0  0  0  0  0  0  0  0  0  0  0
    7.0273    1.5394   -1.1517 F   0  0  0  0  0  0  0  0  0  0  0  0
    7.1837   -0.1999    0.1658 F   0  0  0  0  0  0  0  0  0  0  0  0
    5.7757   -0.2202   -1.4899 F   0  0  0  0  0  0  0  0  0  0  0  0
   -0.6648    0.4231    0.0000 H   0  0  0  0  0  0  0  0  0  0  0  0
    0.3730   -0.6943    0.0000 H   0  0  0  0  0  0  0  0  0  0  0  0
   -6.2334    0.0687    1.8807 H   0  0  0  0  0  0  0  0  0  0  0  0
   -0.5343   -2.1247    1.9540 H   0  0  0  0  0  0  0  0  0  0  0  0
   -1.6320   -4.4041    2.9210 H   0  0  0  0  0  0  0  0  0  0  0  0
   -4.1247   -4.0334    3.0832 H   0  0  0  0  0  0  0  0  0  0  0  0
   -2.5349    2.9612    0.5476 H   0  0  0  0  0  0  0  0  0  0  0  0
   -0.1124    0.2174    1.6110 H   0  0  0  0  0  0  0  0  0  0  0  0
    0.5216    2.4801    1.1530 H   0  0  0  0  0  0  0  0  0  0  0  0
    2.3789    1.5898   -0.6782 H   0  0  0  0  0  0  0  0  0  0  0  0
    2.2100    0.7661    0.8864 H   0  0  0  0  0  0  0  0  0  0  0  0
   -0.7297   -0.1414   -1.3872 H   0  0  0  0  0  0  0  0  0  0  0  0
   -0.4031   -1.4193   -0.2152 H   0  0  0  0  0  0  0  0  0  0  0  0
   -0.0062    2.0485   -1.8583 H   0  0  0  0  0  0  0  0  0  0  0  0
   -1.0637    3.0021   -0.8571 H   0  0  0  0  0  0  0  0  0  0  0  0
    1.8756    3.6218   -1.3491 H   0  0  0  0  0  0  0  0  0  0  0  0
    0.4756    4.4598   -2.0080 H   0  0  0  0  0  0  0  0  0  0  0  0
    0.8075    4.5325   -0.2703 H   0  0  0  0  0  0  0  0  0  0  0  0
    3.6692   -0.2730   -0.8189 H   0  0  0  0  0  0  0  0  0  0  0  0
    3.6431   -1.7868   -3.3800 H   0  0  0  0  0  0  0  0  0  0  0  0
    4.2538   -2.5067   -1.8789 H   0  0  0  0  0  0  0  0  0  0  0  0
   -3.8805    3.9095    0.3999 H   0  0  0  0  0  0  0  0  0  0  0  0
   -2.8406   -1.6195   -2.0061 H   0  0  0  0  0  0  0  0  0  0  0  0
   -5.3331   -1.4137   -3.0394 H   0  0  0  0  0  0  0  0  0  0  0  0
   -6.2885    0.7923   -2.2847 H   0  0  0  0  0  0  0  0  0  0  0  0
    0.4614    1.8115    1.1030 H   0  0  0  0  0  0  0  0  0  0  0  0
   -1.0123   -1.3040   -1.0267 H   0  0  0  0  0  0  0  0  0  0  0  0
    0.3500   -2.5696    0.3646 H   0  0  0  0  0  0  0  0  0  0  0  0
    2.2953   -1.7399    1.3500 H   0  0  0  0  0  0  0  0  0  0  0  0
    1.5661   -0.1789    1.8098 H   0  0  0  0  0  0  0  0  0  0  0  0
    0.9078    0.4719   -1.8384 H   0  0  0  0  0  0  0  0  0  0  0  0
    1.1717   -1.2889   -1.8704 H   0  0  0  0  0  0  0  0  0  0  0  0
   -0.9041   -0.6515    2.4072 H   0  0  0  0  0  0  0  0  0  0  0  0
   -0.1471   -2.1847    2.7849 H   0  0  0  0  0  0  0  0  0  0  0  0
   -2.5791   -1.8985    0.9458 H   0  0  0  0  0  0  0  0  0  0  0  0
   -2.6121   -2.3703    2.6447 H   0  0  0  0  0  0  0  0  0  0  0  0
   -1.8178   -3.4141    1.4567 H   0  0  0  0  0  0  0  0  0  0  0  0
    4.1427   -0.5279    1.0068 H   0  0  0  0  0  0  0  0  0  0  0  0
    4.9709    2.1703    0.0413 H   0  0  0  0  0  0  0  0  0  0  0  0
    5.6910    1.3072    1.4065 H   0  0  0  0  0  0  0  0  0  0  0  0
  2  3  1  0
  4  5  1  0
  6  7  1  0
  7  2  2  0
  3 10  1  0
  3  4  2  0
  4  8  1  0
  8  9  2  0
  9 10  1  0
  5 13  1  0
  5  6  1  0
  6 11  2  0
 11 12  1  0
 12 13  2  0
 14 13  1  0
 14 15  1  0
 14 18  1  0
 15 16  1  0
 16 17  1  0
 17 18  1  0
 15 19  1  0
 19 20  1  0
 17 21  1  0
 21 22  1  0
 21 23  2  0
 22 24  1  0
 24 25  1  0
 25 26  1  0
 25 27  1  0
 25 28  1  0
 29 30  1  0
 31 32  1  0
 33 34  1  0
 34 29  2  0
 30 37  1  0
 30 31  2  0
 31 35  1  0
 35 36  2  0
 36 37  1  0
 32 40  1  0
 32 33  1  0
 33 38  2  0
 38 39  1  0
 39 40  2  0
 41 40  1  0
 41 42  1  0
 41 45  1  0
 42 43  1  0
 43 44  1  0
 44 45  1  0
 42 46  1  0
 46 47  1  0
 44 48  1  0
 48 49  1  0
 48 50  2  0
 49 51  1  0
 51 52  1  0
 52 53  1  0
 52 54  1  0
 52 55  1  0
  1 56  1  0
  1 57  1  0
  7 58  1  0
  8 59  1  0
  9 60  1  0
 10 61  1  0
 12 62  1  0
 14 63  1  1
 15 64  1  1
 16 65  1  0
 16 66  1  0
 18 67  1  0
 18 68  1  0
 19 69  1  0
 19 70  1  0
 20 71  1  0
 20 72  1  0
 20 73  1  0
 22 74  1  0
 24 75  1  0
 24 76  1  0
 34 77  1  0
 35 78  1  0
 36 79  1  0
 37 80  1  0
 39 81  1  0
 41 82  1  6
 42 83  1  6
 43 84  1  0
 43 85  1  0
 45 86  1  0
 45 87  1  0
 46 88  1  0
 46 89  1  0
 47 90  1  0
 47 91  1  0
 47 92  1  0
 49 93  1  0
 51 94  1  0
 51 95  1  0
M  END
$$$$
