
     RDKit          3D

 95100  0  0  0  0  0  0  0  0999 V2000
   -0.0055    0.3978    0.0000 O   0  0  0  0  0  0  0  0  0  0  0  0
   -5.2397    1.2755    1.3519 N   0  0  0  0  0  0  0  0  0  0  0  0
   -4.9045    0.5750    0.2330 C   0  0  0  0  0  0  0  0  0  0  0  0
   -3.6553    0.3276   -0.3037 C   0  0  0  0  0  0  0  0  0  0  0  0
   -2.5637    0.8749    0.3966 N   0  0  0  0  0  0  0  0  0  0  0  0
   -2.8390    1.5926    1.5427 C   0  0  0  0  0  0  0  0  0  0  0  0
   -4.2069    1.7735    1.9896 C   0  0  0  0  0  0  0  0  0  0  0  0
   -3.7996   -0.4492   -1.4634 C   0  0  0  0  0  0  0  0  0  0  0  0
   -5.1590   -0.6584   -1.6150 C   0  0  0  0  0  0  0  0  0  0  0  0
   -5.8192   -0.0310   -0.5815 N   0  0  0  0  0  0  0  0  0  0  0  0
   -1.7505    2.0464    2.1213 N   0  0  0  0  0  0  0  0  0  0  0  0
   -0.7308    1.6149    1.3101 C   0  0  0  0  0  0  0  0  0  0  0  0
   -1.1956    0.8752    0.2294 C   0  0  0  0  0  0  0  0  0  0  0  0
   -0.4586    0.2094   -0.8986 C   0  0  2  0  0  0  0  0  0  0  0  0
    0.1347   -1.1728   -0.5376 C   0  0  1  0  0  0  0  0  0  0  0  0
    1.4760   -0.8243    0.1168 C   0  0  0  0  0  0  0  0  0  0  0  0
    1.8819    0.4254   -0.5094 N   0  0  0  0  0  0  0  0  0  0  0  0
    0.8047    0.9850   -1.3150 C   0  0  0  0  0  0  0  0  0  0  0  0
   -0.7463   -2.1004    0.3030 C   0  0  0  0  0  0  0  0  0  0  0  0
   -0.1140   -3.4694    0.5158 C   0  0  0  0  0  0  0  0  0  0  0  0
    3.0519    1.1168   -0.3399 C   0  0  0  0  0  0  0  0  0  0  0  0
    3.9588    0.5260    0.4977 N   0  0  0  0  0  0  0  0  0  0  0  0
    3.2675    2.2023   -0.8686 O   0  0  0  0  0  0  0  0  0  0  0  0
    5.2886    1.1189    0.6534 C   0  0  0  0  0  0  0  0  0  0  0  0
    6.2750    0.8003   -0.4730 C   0  0  0  0  0  0  0  0  0  0  0  0
    7.5044    1.2844   -0.1782 F   0  0  0  0  0  0  0  0  0  0  0  0
    5.9093    1.3066   -1.6657 F   0  0  0  0  0  0  0  0  0  0  0  0
    6.4010   -0.5431   -0.6173 F   0  0  0  0  0  0  0  0  0  0  0  0
   -4.9591    1.6672    1.1794 N   0  0  0  0  0  0  0  0  0  0  0  0
   -4.5941    1.2595   -0.0677 C   0  0  0  0  0  0  0  0  0  0  0  0
   -3.3551    0.8586   -0.5304 C   0  0  0  0  0  0  0  0  0  0  0  0
   -2.3109    0.8710    0.4135 N   0  0  0  0  0  0  0  0  0  0  0  0
   -2.6210    1.2642    1.6993 C   0  0  0  0  0  0  0  0  0  0  0  0
   -3.9725    1.6613    2.0443 C   0  0  0  0  0  0  0  0  0  0  0  0
   -3.4610    0.5141   -1.8864 C   0  0  0  0  0  0  0  0  0  0  0  0
   -4.7849    0.7233   -2.2303 C   0  0  0  0  0  0  0  0  0  0  0  0
   -5.4622    1.1761   -1.1196 N   0  0  0  0  0  0  0  0  0  0  0  0
   -1.5799    1.2206    2.4992 N   0  0  0  0  0  0  0  0  0  0  0  0
   -0.5550    0.7827    1.6987 C   0  0  0  0  0  0  0  0  0  0  0  0
   -0.9660    0.5689    0.3885 C   0  0  0  0  0  0  0  0  0  0  0  0
   -0.1994    0.1200   -0.8233 C   0  0  2  0  0  0  0  0  0  0  0  0
    0.0570   -1.4024   -0.8880 C   0  0  1  0  0  0  0  0  0  0  0  0
    1.3231   -1.5860   -0.0447 C   0  0  0  0  0  0  0  0  0  0  0  0
    2.0523   -0.3352   -0.1867 N   0  0  0  0  0  0  0  0  0  0  0  0
    1.2365    0.6780   -0.8458 C   0  0  0  0  0  0  0  0  0  0  0  0
   -1.1066   -2.3096   -0.4809 C   0  0  0  0  0  0  0  0  0  0  0  0
   -0.7897   -3.7859   -0.6774 C   0  0  0  0  0  0  0  0  0  0  0  0
    3.3788   -0.2685    0.1491 C   0  0  0  0  0  0  0  0  0  0  0  0
    3.9805    0.9365   -0.0962 N   0  0  0  0  0  0  0  0  0  0  0  0
    3.9993   -1.2222    0.6072 O   0  0  0  0  0  0  0  0  0  0  0  0
    5.3653    1.1470    0.3316 C   0  0  0  0  0  0  0  0  0  0  0  0
    5.5406    1.4849    1.8146 C   0  0  0  0  0  0  0  0  0  0  0  0
    4.8239    2.5936    2.1267 F   0  0  0  0  0  0  0  0  0  0  0  0
    6.8378    1.7592    2.0878 F   0  0  0  0  0  0  0  0  0  0  0  0
    5.1456    0.4974    2.6394 F   0  0  0  0  0  0  0  0  0  0  0  0
    0.7661   -0.1884    0.0000 H   0  0  0  0  0  0  0  0  0  0  0  0
   -0.7606   -0.2094    0.0000 H   0  0  0  0  0  0  0  0  0  0  0  0
   -4.3779    2.3571    2.9085 H   0  0  0  0  0  0  0  0  0  0  0  0
   -3.0400   -0.8325   -2.1294 H   0  0  0  0  0  0  0  0  0  0  0  0
   -5.7170   -1.1990   -2.3683 H   0  0  0  0  0  0  0  0  0  0  0  0
   -6.8186   -0.0117   -0.4307 H   0  0  0  0  0  0  0  0  0  0  0  0
    0.2992    1.8600    1.5450 H   0  0  0  0  0  0  0  0  0  0  0  0
   -1.1129    0.1397   -1.7710 H   0  0  0  0  0  0  0  0  0  0  0  0
    0.3539   -1.6815   -1.4886 H   0  0  0  0  0  0  0  0  0  0  0  0
    1.3906   -0.6561    1.1961 H   0  0  0  0  0  0  0  0  0  0  0  0
    2.2290   -1.5981   -0.0633 H   0  0  0  0  0  0  0  0  0  0  0  0
    0.7293    2.0699   -1.1867 H   0  0  0  0  0  0  0  0  0  0  0  0
    1.0551    0.7785   -2.3625 H   0  0  0  0  0  0  0  0  0  0  0  0
   -1.7092   -2.2406   -0.1996 H   0  0  0  0  0  0  0  0  0  0  0  0
   -0.9537   -1.6600    1.2850 H   0  0  0  0  0  0  0  0  0  0  0  0
    0.1051   -3.9538   -0.4410 H   0  0  0  0  0  0  0  0  0  0  0  0
    0.8166   -3.3952    1.0867 H   0  0  0  0  0  0  0  0  0  0  0  0
   -0.7977   -4.1170    1.0742 H   0  0  0  0  0  0  0  0  0  0  0  0
    3.9060   -0.4778    0.5737 H   0  0  0  0  0  0  0  0  0  0  0  0
    5.6856    0.7313    1.5972 H   0  0  0  0  0  0  0  0  0  0  0  0
    5.1854    2.2045    0.7546 H   0  0  0  0  0  0  0  0  0  0  0  0
   -4.1710    1.9722    3.0825 H   0  0  0  0  0  0  0  0  0  0  0  0
   -2.7010    0.1480   -2.5615 H   0  0  0  0  0  0  0  0  0  0  0  0
   -5.3080    0.5857   -3.1676 H   0  0  0  0  0  0  0  0  0  0  0  0
   -6.4445    1.4090   -1.0684 H   0  0  0  0  0  0  0  0  0  0  0  0
    0.4401    0.6459    2.1076 H   0  0  0  0  0  0  0  0  0  0  0  0
   -0.7072    0.4691   -1.7256 H   0  0  0  0  0  0  0  0  0  0  0  0
    0.3205   -1.6349   -1.9310 H   0  0  0  0  0  0  0  0  0  0  0  0
    1.1027   -1.7288    1.0189 H   0  0  0  0  0  0  0  0  0  0  0  0
    1.9323   -2.4275   -0.3913 H   0  0  0  0  0  0  0  0  0  0  0  0
    1.3388    1.6510   -0.3561 H   0  0  0  0  0  0  0  0  0  0  0  0
    1.6038    0.7651   -1.8753 H   0  0  0  0  0  0  0  0  0  0  0  0
   -1.9875   -2.0618   -1.0831 H   0  0  0  0  0  0  0  0  0  0  0  0
   -1.3772   -2.1519    0.5692 H   0  0  0  0  0  0  0  0  0  0  0  0
   -1.6664   -4.3946   -0.4346 H   0  0  0  0  0  0  0  0  0  0  0  0
    0.0302   -4.1072   -0.0283 H   0  0  0  0  0  0  0  0  0  0  0  0
   -0.5101   -3.9932   -1.7149 H   0  0  0  0  0  0  0  0  0  0  0  0
    3.3794    1.7449   -0.0553 H   0  0  0  0  0  0  0  0  0  0  0  0
    5.9549    0.2573    0.0847 H   0  0  0  0  0  0  0  0  0  0  0  0
    5.7469    1.9771   -0.2719 H   0  0  0  0  0  0  0  0  0  0  0  0
  2  3  1  0
  4  5  1  0
  6  7  1  0
  7  2  2  0
  3 10  1  0
  3  4  2  0
  4  8  1  0
  8  9  2  0
  9 10  1  0
  5 13  1  0
  5  6  1  0
  6 11  2  0
 11 12  1  0
 12 13  2  0
 14 13  1  0
 14 15  1  0
 14 18  1  0
 15 16  1  0
 16 17  1  0
 17 18  1  0
 15 19  1  0
 19 20  1  0
 17 21  1  0
 21 22  1  0
 21 23  2  0
 22 24  1  0
 24 25  1  0
 25 26  1  0
 25 27  1  0
 25 28  1  0
 29 30  1  0
 31 32  1  0
 33 34  1  0
 34 29  2  0
 30 37  1  0
 30 31  2  0
 31 35  1  0
 35 36  2  0
 36 37  1  0
 32 40  1  0
 32 33  1  0
 33 38  2  0
 38 39  1  0
 39 40  2  0
 41 40  1  0
 41 42  1  0
 41 45  1  0
 42 43  1  0
 43 44  1  0
 44 45  1  0
 42 46  1  0
 46 47  1  0
 44 48  1  0
 48 49  1  0
 48 50  2  0
 49 51  1  0
 51 52  1  0
 52 53  1  0
 52 54  1  0
 52 55  1  0
  1 56  1  0
  1 57  1  0
  7 58  1  0
  8 59  1  0
  9 60  1  0
 10 61  1  0
 12 62  1  0
 14 63  1  6
 15 64  1  6
 16 65  1  0
 16 66  1  0
 18 67  1  0
 18 68  1  0
 19 69  1  0
 19 70  1  0
 20 71  1  0
 20 72  1  0
 20 73  1  0
 22 74  1  0
 24 75  1  0
 24 76  1  0
 34 77  1  0
 35 78  1  0
 36 79  1  0
 37 80  1  0
 39 81  1  0
 41 82  1  6
 42 83  1  6
 43 84  1  0
 43 85  1  0
 45 86  1  0
 45 87  1  0
 46 88  1  0
 46 89  1  0
 47 90  1  0
 47 91  1  0
 47 92  1  0
 49 93  1  0
 51 94  1  0
 51 95  1  0
M  END
$$$$
