
     RDKit          3D

 25 26  0  0  0  0  0  0  0  0999 V2000
   -0.2246    0.4054    0.0064 N   0  0  0  0  0  0  0  0  0  0  0  0
   -0.7612    1.7029   -0.1656 C   0  0  0  0  0  0  0  0  0  0  0  0
   -1.0714   -0.7064   -0.0508 C   0  0  0  0  0  0  0  0  0  0  0  0
   -2.2280    1.7839   -0.4202 C   0  0  0  0  0  0  0  0  0  0  0  0
   -2.3925   -0.6142   -0.2688 C   0  0  0  0  0  0  0  0  0  0  0  0
   -2.9860    0.6848   -0.4568 C   0  0  0  0  0  0  0  0  0  0  0  0
    1.1943    0.2387    0.2530 C   0  0  0  0  0  0  0  0  0  0  0  0
   -0.1613    2.7750   -0.0955 O   0  0  0  0  0  0  0  0  0  0  0  0
   -3.2967   -1.8064   -0.3493 C   0  0  0  0  0  0  0  0  0  0  0  0
    2.1444    1.1497   -0.2348 C   0  0  0  0  0  0  0  0  0  0  0  0
    1.6772   -0.8638    0.9828 C   0  0  0  0  0  0  0  0  0  0  0  0
    3.0461   -1.0447    1.2147 C   0  0  0  0  0  0  0  0  0  0  0  0
    3.5141    0.9701   -0.0057 C   0  0  0  0  0  0  0  0  0  0  0  0
    3.9650   -0.1274    0.7187 C   0  0  0  0  0  0  0  0  0  0  0  0
   -0.6146   -1.6850    0.0479 H   0  0  0  0  0  0  0  0  0  0  0  0
   -2.6360    2.7773   -0.5570 H   0  0  0  0  0  0  0  0  0  0  0  0
   -4.0541    0.7597   -0.6353 H   0  0  0  0  0  0  0  0  0  0  0  0
   -3.7822   -1.8565   -1.3299 H   0  0  0  0  0  0  0  0  0  0  0  0
   -4.0738   -1.7523    0.4207 H   0  0  0  0  0  0  0  0  0  0  0  0
   -2.7498   -2.7440   -0.2022 H   0  0  0  0  0  0  0  0  0  0  0  0
    1.8500    2.0066   -0.8345 H   0  0  0  0  0  0  0  0  0  0  0  0
    0.9995   -1.5843    1.4307 H   0  0  0  0  0  0  0  0  0  0  0  0
    3.3896   -1.8983    1.7934 H   0  0  0  0  0  0  0  0  0  0  0  0
    4.2241    1.6927   -0.4002 H   0  0  0  0  0  0  0  0  0  0  0  0
    5.0278   -0.2635    0.8990 H   0  0  0  0  0  0  0  0  0  0  0  0
  2  1  1  0
  3  1  1  0
  4  2  1  0
  5  3  2  0
  6  5  1  0
  7  1  1  0
  8  2  2  0
  9  5  1  0
 10  7  2  0
 11  7  1  0
 12 11  2  0
 13 10  1  0
 14 12  1  0
  4  6  2  0
 13 14  2  0
  3 15  1  0
  4 16  1  0
  6 17  1  0
  9 18  1  0
  9 19  1  0
  9 20  1  0
 10 21  1  0
 11 22  1  0
 12 23  1  0
 13 24  1  0
 14 25  1  0
M  END
$$$$
