
     RDKit          3D

 25 26  0  0  0  0  0  0  0  0999 V2000
    0.1658   -0.4279    0.0584 N   0  0  0  0  0  0  0  0  0  0  0  0
    0.5142   -1.7721   -0.2115 C   0  0  0  0  0  0  0  0  0  0  0  0
    1.1653    0.5494    0.1061 C   0  0  0  0  0  0  0  0  0  0  0  0
    1.9648   -2.0523   -0.4115 C   0  0  0  0  0  0  0  0  0  0  0  0
    2.4659    0.2813   -0.0887 C   0  0  0  0  0  0  0  0  0  0  0  0
    2.8724   -1.0737   -0.3602 C   0  0  0  0  0  0  0  0  0  0  0  0
   -1.2235   -0.0717    0.2703 C   0  0  0  0  0  0  0  0  0  0  0  0
   -0.2469   -2.7312   -0.3337 O   0  0  0  0  0  0  0  0  0  0  0  0
    3.5389    1.3249   -0.0185 C   0  0  0  0  0  0  0  0  0  0  0  0
   -1.6947    1.2184   -0.0378 C   0  0  0  0  0  0  0  0  0  0  0  0
   -2.1498   -0.9814    0.8040 C   0  0  0  0  0  0  0  0  0  0  0  0
   -3.4856   -0.6217    1.0209 C   0  0  0  0  0  0  0  0  0  0  0  0
   -3.0303    1.5799    0.1766 C   0  0  0  0  0  0  0  0  0  0  0  0
   -3.9257    0.6591    0.7077 C   0  0  0  0  0  0  0  0  0  0  0  0
    0.8608    1.5604    0.3535 H   0  0  0  0  0  0  0  0  0  0  0  0
    2.2302   -3.0824   -0.6125 H   0  0  0  0  0  0  0  0  0  0  0  0
    3.9244   -1.2913   -0.5157 H   0  0  0  0  0  0  0  0  0  0  0  0
    4.2609    1.0830    0.7689 H   0  0  0  0  0  0  0  0  0  0  0  0
    3.1296    2.3170    0.2008 H   0  0  0  0  0  0  0  0  0  0  0  0
    4.0739    1.3911   -0.9720 H   0  0  0  0  0  0  0  0  0  0  0  0
   -1.0483    1.9604   -0.4968 H   0  0  0  0  0  0  0  0  0  0  0  0
   -1.8523   -1.9846    1.0970 H   0  0  0  0  0  0  0  0  0  0  0  0
   -4.1768   -1.3494    1.4388 H   0  0  0  0  0  0  0  0  0  0  0  0
   -3.3697    2.5793   -0.0834 H   0  0  0  0  0  0  0  0  0  0  0  0
   -4.9634    0.9357    0.8730 H   0  0  0  0  0  0  0  0  0  0  0  0
  2  1  1  0
  3  1  1  0
  4  2  1  0
  5  3  2  0
  6  5  1  0
  7  1  1  0
  8  2  2  0
  9  5  1  0
 10  7  2  0
 11  7  1  0
 12 11  2  0
 13 10  1  0
 14 12  1  0
  4  6  2  0
 13 14  2  0
  3 15  1  0
  4 16  1  0
  6 17  1  0
  9 18  1  0
  9 19  1  0
  9 20  1  0
 10 21  1  0
 11 22  1  0
 12 23  1  0
 13 24  1  0
 14 25  1  0
M  END
$$$$
