
     RDKit          3D

 25 26  0  0  0  0  0  0  0  0999 V2000
   -0.2057   -0.3943   -0.1452 N   0  0  0  0  0  0  0  0  0  0  0  0
   -0.6792   -1.6463   -0.6027 C   0  0  0  0  0  0  0  0  0  0  0  0
   -1.1185    0.6193    0.1642 C   0  0  0  0  0  0  0  0  0  0  0  0
   -2.1590   -1.7971   -0.7044 C   0  0  0  0  0  0  0  0  0  0  0  0
   -2.4479    0.4702    0.0551 C   0  0  0  0  0  0  0  0  0  0  0  0
   -2.9801   -0.7885   -0.4002 C   0  0  0  0  0  0  0  0  0  0  0  0
    1.2201   -0.1671   -0.0130 C   0  0  0  0  0  0  0  0  0  0  0  0
   -0.0082   -2.6143   -0.9587 O   0  0  0  0  0  0  0  0  0  0  0  0
   -3.4267    1.5496    0.4049 C   0  0  0  0  0  0  0  0  0  0  0  0
    2.1152   -1.2116    0.2663 C   0  0  0  0  0  0  0  0  0  0  0  0
    1.7619    1.1254   -0.1436 C   0  0  0  0  0  0  0  0  0  0  0  0
    3.1350    1.3607   -0.0029 C   0  0  0  0  0  0  0  0  0  0  0  0
    3.4886   -0.9787    0.4092 C   0  0  0  0  0  0  0  0  0  0  0  0
    3.9984    0.3076    0.2751 C   0  0  0  0  0  0  0  0  0  0  0  0
   -0.7164    1.5506    0.5477 H   0  0  0  0  0  0  0  0  0  0  0  0
   -2.5198   -2.7577   -1.0494 H   0  0  0  0  0  0  0  0  0  0  0  0
   -4.0553   -0.9102   -0.4866 H   0  0  0  0  0  0  0  0  0  0  0  0
   -4.0346    1.8147   -0.4668 H   0  0  0  0  0  0  0  0  0  0  0  0
   -4.0952    1.2185    1.2069 H   0  0  0  0  0  0  0  0  0  0  0  0
   -2.9243    2.4607    0.7474 H   0  0  0  0  0  0  0  0  0  0  0  0
    1.7670   -2.2304    0.4135 H   0  0  0  0  0  0  0  0  0  0  0  0
    1.1381    1.9748   -0.4054 H   0  0  0  0  0  0  0  0  0  0  0  0
    3.5274    2.3673   -0.1225 H   0  0  0  0  0  0  0  0  0  0  0  0
    4.1545   -1.8095    0.6287 H   0  0  0  0  0  0  0  0  0  0  0  0
    5.0648    0.4864    0.3824 H   0  0  0  0  0  0  0  0  0  0  0  0
  2  1  1  0
  3  1  1  0
  4  2  1  0
  5  3  2  0
  6  5  1  0
  7  1  1  0
  8  2  2  0
  9  5  1  0
 10  7  2  0
 11  7  1  0
 12 11  2  0
 13 10  1  0
 14 12  1  0
  4  6  2  0
 13 14  2  0
  3 15  1  0
  4 16  1  0
  6 17  1  0
  9 18  1  0
  9 19  1  0
  9 20  1  0
 10 21  1  0
 11 22  1  0
 12 23  1  0
 13 24  1  0
 14 25  1  0
M  END
$$$$
