
     RDKit          3D

 25 26  0  0  0  0  0  0  0  0999 V2000
   -0.1948   -0.1902   -0.3804 N   0  0  0  0  0  0  0  0  0  0  0  0
   -0.6340   -0.7941   -1.5819 C   0  0  0  0  0  0  0  0  0  0  0  0
   -1.1348    0.3204    0.5208 C   0  0  0  0  0  0  0  0  0  0  0  0
   -2.1090   -0.8569   -1.7902 C   0  0  0  0  0  0  0  0  0  0  0  0
   -2.4594    0.2662    0.3114 C   0  0  0  0  0  0  0  0  0  0  0  0
   -2.9571   -0.3450   -0.8943 C   0  0  0  0  0  0  0  0  0  0  0  0
    1.2240   -0.0936   -0.0986 C   0  0  0  0  0  0  0  0  0  0  0  0
    0.0632   -1.2432   -2.4909 O   0  0  0  0  0  0  0  0  0  0  0  0
   -3.4671    0.7958    1.2858 C   0  0  0  0  0  0  0  0  0  0  0  0
    1.7331    0.9443    0.7044 C   0  0  0  0  0  0  0  0  0  0  0  0
    2.1444   -1.0310   -0.5932 C   0  0  0  0  0  0  0  0  0  0  0  0
    3.5106   -0.9384   -0.3007 C   0  0  0  0  0  0  0  0  0  0  0  0
    3.0990    1.0401    0.9969 C   0  0  0  0  0  0  0  0  0  0  0  0
    3.9879    0.0969    0.4947 C   0  0  0  0  0  0  0  0  0  0  0  0
   -0.7584    0.7406    1.4470 H   0  0  0  0  0  0  0  0  0  0  0  0
   -2.4434   -1.3243   -2.7077 H   0  0  0  0  0  0  0  0  0  0  0  0
   -4.0284   -0.3909   -1.0632 H   0  0  0  0  0  0  0  0  0  0  0  0
   -4.1306   -0.0057    1.6280 H   0  0  0  0  0  0  0  0  0  0  0  0
   -4.0777    1.5774    0.8209 H   0  0  0  0  0  0  0  0  0  0  0  0
   -2.9899    1.2311    2.1704 H   0  0  0  0  0  0  0  0  0  0  0  0
    1.0890    1.7319    1.0836 H   0  0  0  0  0  0  0  0  0  0  0  0
    1.8217   -1.8782   -1.1923 H   0  0  0  0  0  0  0  0  0  0  0  0
    4.1966   -1.6828   -0.6970 H   0  0  0  0  0  0  0  0  0  0  0  0
    3.4661    1.8602    1.6087 H   0  0  0  0  0  0  0  0  0  0  0  0
    5.0488    0.1698    0.7178 H   0  0  0  0  0  0  0  0  0  0  0  0
  2  1  1  0
  3  1  1  0
  4  2  1  0
  5  3  2  0
  6  5  1  0
  7  1  1  0
  8  2  2  0
  9  5  1  0
 10  7  2  0
 11  7  1  0
 12 11  2  0
 13 10  1  0
 14 12  1  0
  4  6  2  0
 13 14  2  0
  3 15  1  0
  4 16  1  0
  6 17  1  0
  9 18  1  0
  9 19  1  0
  9 20  1  0
 10 21  1  0
 11 22  1  0
 12 23  1  0
 13 24  1  0
 14 25  1  0
M  END
$$$$
