
     RDKit          3D

 25 26  0  0  0  0  0  0  0  0999 V2000
   -0.1344   -0.2523    0.3240 N   0  0  0  0  0  0  0  0  0  0  0  0
   -0.3846   -1.2197    1.3254 C   0  0  0  0  0  0  0  0  0  0  0  0
   -1.2085    0.3888   -0.3020 C   0  0  0  0  0  0  0  0  0  0  0  0
   -1.8158   -1.4736    1.6573 C   0  0  0  0  0  0  0  0  0  0  0  0
   -2.4919    0.1389    0.0008 C   0  0  0  0  0  0  0  0  0  0  0  0
   -2.7987   -0.8331    1.0187 C   0  0  0  0  0  0  0  0  0  0  0  0
    1.2303    0.0575   -0.0543 C   0  0  0  0  0  0  0  0  0  0  0  0
    0.4429   -1.9002    1.9303 O   0  0  0  0  0  0  0  0  0  0  0  0
   -3.6421    0.8396   -0.6561 C   0  0  0  0  0  0  0  0  0  0  0  0
    2.2969   -0.0637    0.8501 C   0  0  0  0  0  0  0  0  0  0  0  0
    1.5361    0.5130   -1.3506 C   0  0  0  0  0  0  0  0  0  0  0  0
    2.8477    0.8304   -1.7241 C   0  0  0  0  0  0  0  0  0  0  0  0
    3.6092    0.2547    0.4795 C   0  0  0  0  0  0  0  0  0  0  0  0
    3.8845    0.7022   -0.8075 C   0  0  0  0  0  0  0  0  0  0  0  0
   -0.9729    1.1509   -1.0367 H   0  0  0  0  0  0  0  0  0  0  0  0
   -2.0052   -2.2101    2.4277 H   0  0  0  0  0  0  0  0  0  0  0  0
   -3.8365   -1.0341    1.2654 H   0  0  0  0  0  0  0  0  0  0  0  0
   -4.2938    0.1186   -1.1612 H   0  0  0  0  0  0  0  0  0  0  0  0
   -3.3046    1.5628   -1.4064 H   0  0  0  0  0  0  0  0  0  0  0  0
   -4.2359    1.3845    0.0856 H   0  0  0  0  0  0  0  0  0  0  0  0
    2.1339   -0.3772    1.8777 H   0  0  0  0  0  0  0  0  0  0  0  0
    0.7710    0.5871   -2.1176 H   0  0  0  0  0  0  0  0  0  0  0  0
    3.0566    1.1669   -2.7364 H   0  0  0  0  0  0  0  0  0  0  0  0
    4.4122    0.1528    1.2053 H   0  0  0  0  0  0  0  0  0  0  0  0
    4.9038    0.9453   -1.0948 H   0  0  0  0  0  0  0  0  0  0  0  0
  2  1  1  0
  3  1  1  0
  4  2  1  0
  5  3  2  0
  6  5  1  0
  7  1  1  0
  8  2  2  0
  9  5  1  0
 10  7  2  0
 11  7  1  0
 12 11  2  0
 13 10  1  0
 14 12  1  0
  4  6  2  0
 13 14  2  0
  3 15  1  0
  4 16  1  0
  6 17  1  0
  9 18  1  0
  9 19  1  0
  9 20  1  0
 10 21  1  0
 11 22  1  0
 12 23  1  0
 13 24  1  0
 14 25  1  0
M  END
$$$$
