
     RDKit          3D

 14 15  0  0  0  0  0  0  0  0999 V2000
    0.4228   -0.0673    0.0062 N   0  0  0  0  0  0  0  0  0  0  0  0
    0.8808   -1.2301   -0.4807 C   0  0  0  0  0  0  0  0  0  0  0  0
    1.2763    0.8305    0.5414 C   0  0  0  0  0  0  0  0  0  0  0  0
    2.2328   -1.5414   -0.4487 C   0  0  0  0  0  0  0  0  0  0  0  0
    2.6258    0.5738    0.5988 C   0  0  0  0  0  0  0  0  0  0  0  0
    3.0786   -0.6194    0.0970 C   0  0  0  0  0  0  0  0  0  0  0  0
   -0.9875    0.2105   -0.0493 C   0  0  0  0  0  0  0  0  0  0  0  0
    0.0928   -2.0671   -0.9787 O   0  0  0  0  0  0  0  0  0  0  0  0
    3.4986    1.6078    1.2007 C   0  0  0  0  0  0  0  0  0  0  0  0
   -1.8661   -0.8155    0.1869 C   0  0  0  0  0  0  0  0  0  0  0  0
   -1.4839    1.4566   -0.3281 C   0  0  0  0  0  0  0  0  0  0  0  0
   -2.8508    1.6791   -0.3713 C   0  0  0  0  0  0  0  0  0  0  0  0
   -3.2174   -0.6390    0.1540 C   0  0  0  0  0  0  0  0  0  0  0  0
   -3.7028    0.6215   -0.1281 C   0  0  0  0  0  0  0  0  0  0  0  0
  2  1  1  0
  3  1  1  0
  4  2  1  0
  5  3  2  0
  6  5  1  0
  7  1  1  0
  8  2  2  0
  9  5  1  0
 10  7  2  0
 11  7  1  0
 12 11  2  0
 13 10  1  0
 14 12  1  0
  4  6  2  0
 13 14  2  0
M  END
