
     RDKit          3D

 25 26  0  0  0  0  0  0  0  0999 V2000
   -0.1632   -0.3842   -0.2112 N   0  0  0  0  0  0  0  0  0  0  0  0
   -0.5033   -1.5924   -0.8637 C   0  0  0  0  0  0  0  0  0  0  0  0
   -1.1763    0.4846    0.2075 C   0  0  0  0  0  0  0  0  0  0  0  0
   -1.9575   -1.8430   -1.0762 C   0  0  0  0  0  0  0  0  0  0  0  0
   -2.4819    0.2371    0.0187 C   0  0  0  0  0  0  0  0  0  0  0  0
   -2.8793   -0.9769   -0.6470 C   0  0  0  0  0  0  0  0  0  0  0  0
    1.2296   -0.0621    0.0297 C   0  0  0  0  0  0  0  0  0  0  0  0
    0.2625   -2.4765   -1.2458 O   0  0  0  0  0  0  0  0  0  0  0  0
   -3.5665    1.1768    0.4500 C   0  0  0  0  0  0  0  0  0  0  0  0
    2.2540   -0.5210   -0.8131 C   0  0  0  0  0  0  0  0  0  0  0  0
    1.6075    0.7460    1.1186 C   0  0  0  0  0  0  0  0  0  0  0  0
    2.9474    1.0773    1.3535 C   0  0  0  0  0  0  0  0  0  0  0  0
    3.5947   -0.1897   -0.5813 C   0  0  0  0  0  0  0  0  0  0  0  0
    3.9413    0.6099    0.5017 C   0  0  0  0  0  0  0  0  0  0  0  0
   -0.8720    1.4175    0.6692 H   0  0  0  0  0  0  0  0  0  0  0  0
   -2.2156   -2.7655   -1.5806 H   0  0  0  0  0  0  0  0  0  0  0  0
   -3.9350   -1.1765   -0.8017 H   0  0  0  0  0  0  0  0  0  0  0  0
   -4.1559    1.5069   -0.4123 H   0  0  0  0  0  0  0  0  0  0  0  0
   -3.1622    2.0710    0.9366 H   0  0  0  0  0  0  0  0  0  0  0  0
   -4.2384    0.6872    1.1631 H   0  0  0  0  0  0  0  0  0  0  0  0
    2.0363   -1.1214   -1.6923 H   0  0  0  0  0  0  0  0  0  0  0  0
    0.8762    1.0990    1.8395 H   0  0  0  0  0  0  0  0  0  0  0  0
    3.2116    1.6919    2.2102 H   0  0  0  0  0  0  0  0  0  0  0  0
    4.3636   -0.5590   -1.2553 H   0  0  0  0  0  0  0  0  0  0  0  0
    4.9823    0.8631    0.6826 H   0  0  0  0  0  0  0  0  0  0  0  0
  2  1  1  0
  3  1  1  0
  4  2  1  0
  5  3  2  0
  6  5  1  0
  7  1  1  0
  8  2  2  0
  9  5  1  0
 10  7  2  0
 11  7  1  0
 12 11  2  0
 13 10  1  0
 14 12  1  0
  4  6  2  0
 13 14  2  0
  3 15  1  0
  4 16  1  0
  6 17  1  0
  9 18  1  0
  9 19  1  0
  9 20  1  0
 10 21  1  0
 11 22  1  0
 12 23  1  0
 13 24  1  0
 14 25  1  0
M  END
$$$$
