
     RDKit          3D

 64 61  0  0  0  0  0  0  0  0999 V2000
   44.9741    5.4583   11.1986 O   0  0  0  0  0  0  0  0  0  0  0  0
   45.5694    8.5061   12.6906 C   0  0  0  0  0  0  0  0  0  0  0  0
   46.7322    8.0331   13.2743 C   0  0  0  0  0  0  0  0  0  0  0  0
   47.1045    6.7370   13.2592 N   0  0  0  0  0  0  0  0  0  0  0  0
   46.2748    5.8740   12.6250 C   0  0  0  0  0  0  0  0  0  0  0  0
   45.0830    6.2408   12.0034 C   0  0  0  0  0  0  0  0  0  0  0  0
   44.7340    7.5949   12.0499 C   0  0  0  0  0  0  0  0  0  0  0  0
   44.1816    5.2290   11.3417 C   0  0  1  0  0  0  0  0  0  0  0  0
   44.9084    4.2098   10.5616 N   0  0  0  0  0  0  0  0  0  0  0  0
   44.0354    3.0369   10.5242 C   0  0  0  0  0  0  0  0  0  0  0  0
   43.5512    2.9604   11.9584 C   0  0  0  0  0  0  0  0  0  0  0  0
   43.3745    4.4170   12.3688 C   0  0  0  0  0  0  0  0  0  0  0  0
   45.2703    4.6668    9.2257 C   0  0  0  0  0  0  0  0  0  0  0  0
   44.7331    6.8000   13.2749 O   0  0  0  0  0  0  0  0  0  0  0  0
   44.7492    4.6811   13.9818 O   0  0  0  0  0  0  0  0  0  0  0  0
   46.1032    3.7943   11.7058 O   0  0  0  0  0  0  0  0  0  0  0  0
   46.1031    5.6082    9.5049 O   0  0  0  0  0  0  0  0  0  0  0  0
   43.6709    4.2728    9.3443 O   0  0  0  0  0  0  0  0  0  0  0  0
   42.9034    5.2519   11.1898 O   0  0  0  0  0  0  0  0  0  0  0  0
   45.0424    5.5001   13.1225 C   0  0  0  0  0  0  0  0  0  0  0  0
   45.8471    5.1971   11.8653 C   0  0  2  0  0  0  0  0  0  0  0  0
   45.1853    5.7458   10.6025 C   0  0  2  0  0  0  0  0  0  0  0  0
   43.8841    5.0078   10.2966 C   0  0  0  0  0  0  0  0  0  0  0  0
   46.3317    7.7174   11.2942 O   0  0  0  0  0  0  0  0  0  0  0  0
   47.2262    6.1251   12.5856 O   0  0  0  0  0  0  0  0  0  0  0  0
   44.3066    6.3152   10.4453 O   0  0  0  0  0  0  0  0  0  0  0  0
   43.6191    5.3546   12.8311 O   0  0  0  0  0  0  0  0  0  0  0  0
   44.9930    2.5231   11.0227 O   0  0  0  0  0  0  0  0  0  0  0  0
   42.9102    3.2318   11.4008 O   0  0  0  0  0  0  0  0  0  0  0  0
   46.3801    6.4493   11.7702 C   0  0  0  0  0  0  0  0  0  0  0  0
   45.3284    5.5592   11.1157 C   0  0  1  0  0  0  0  0  0  0  0  0
   44.6854    4.6628   12.1752 C   0  0  2  0  0  0  0  0  0  0  0  0
   44.2495    3.3715   11.4919 C   0  0  0  0  0  0  0  0  0  0  0  0
   44.9652    5.4412   11.1873 O   0  0  0  0  0  0  0  0  0  0  0  0
   45.2050    5.7160   12.1037 H   0  0  0  0  0  0  0  0  0  0  0  0
   44.5995    4.5701   11.2965 H   0  0  0  0  0  0  0  0  0  0  0  0
   45.3186    9.5597   12.7354 H   0  0  0  0  0  0  0  0  0  0  0  0
   47.4153    8.7044   13.7861 H   0  0  0  0  0  0  0  0  0  0  0  0
   46.6070    4.8384   12.6301 H   0  0  0  0  0  0  0  0  0  0  0  0
   43.8138    7.9458   11.5903 H   0  0  0  0  0  0  0  0  0  0  0  0
   43.4662    5.7496   10.6886 H   0  0  0  0  0  0  0  0  0  0  0  0
   44.5744    2.1302   10.2324 H   0  0  0  0  0  0  0  0  0  0  0  0
   43.1859    3.1806    9.8444 H   0  0  0  0  0  0  0  0  0  0  0  0
   42.6242    2.3878   12.0574 H   0  0  0  0  0  0  0  0  0  0  0  0
   44.3114    2.4870   12.5922 H   0  0  0  0  0  0  0  0  0  0  0  0
   43.6941    4.5620   13.4068 H   0  0  0  0  0  0  0  0  0  0  0  0
   42.3150    4.6941   12.3085 H   0  0  0  0  0  0  0  0  0  0  0  0
   45.8102    3.8793    8.6885 H   0  0  0  0  0  0  0  0  0  0  0  0
   45.9420    5.5302    9.2783 H   0  0  0  0  0  0  0  0  0  0  0  0
   44.3950    4.9485    8.6295 H   0  0  0  0  0  0  0  0  0  0  0  0
   44.2294    6.8386   14.1167 H   0  0  0  0  0  0  0  0  0  0  0  0
   46.2126    3.4277   12.6055 H   0  0  0  0  0  0  0  0  0  0  0  0
   46.2190    4.6438    9.3835 H   0  0  0  0  0  0  0  0  0  0  0  0
   42.1473    4.7247   10.8506 H   0  0  0  0  0  0  0  0  0  0  0  0
   46.8314    5.6618   11.9971 H   0  0  0  0  0  0  0  0  0  0  0  0
   44.9576    6.8138   10.6848 H   0  0  0  0  0  0  0  0  0  0  0  0
   47.0437    8.1809   11.7875 H   0  0  0  0  0  0  0  0  0  0  0  0
   44.7184    7.1787   10.2339 H   0  0  0  0  0  0  0  0  0  0  0  0
   42.9945    5.5853   12.1129 H   0  0  0  0  0  0  0  0  0  0  0  0
   42.7810    2.3696   10.9537 H   0  0  0  0  0  0  0  0  0  0  0  0
   45.8585    4.9824   10.3492 H   0  0  0  0  0  0  0  0  0  0  0  0
   45.3925    4.3625   12.9564 H   0  0  0  0  0  0  0  0  0  0  0  0
   45.2141    5.7463   12.0726 H   0  0  0  0  0  0  0  0  0  0  0  0
   44.5992    4.5568   11.3388 H   0  0  0  0  0  0  0  0  0  0  0  0
  7  2  2  0
  2  3  1  0
  8  6  1  0
  8  9  1  0
  4  5  1  0
  5  6  2  0
  3  4  2  0
  9 10  1  0
 10 11  1  0
 11 12  1  0
  8 12  1  0
  6  7  1  0
  9 13  1  0
 20 15  2  0
 21 16  1  0
 22 17  1  0
 20 14  1  0
 22 23  1  0
 21 22  1  0
 23 19  1  0
 20 21  1  0
 23 18  2  0
 30 25  2  0
 31 26  1  0
 32 27  1  0
 30 24  1  0
 32 33  1  0
 31 32  1  0
 33 29  1  0
 30 31  1  0
 33 28  2  0
  1 35  1  0
  1 36  1  0
  2 37  1  0
  3 38  1  0
  5 39  1  0
  7 40  1  0
  8 41  1  1
 10 42  1  0
 10 43  1  0
 11 44  1  0
 11 45  1  0
 12 46  1  0
 12 47  1  0
 13 48  1  0
 13 49  1  0
 13 50  1  0
 14 51  1  0
 16 52  1  0
 17 53  1  0
 19 54  1  0
 21 55  1  6
 22 56  1  1
 24 57  1  0
 26 58  1  0
 27 59  1  0
 29 60  1  0
 31 61  1  6
 32 62  1  6
 34 63  1  0
 34 64  1  0
M  END
> <Uni-Dock RESULT> 
ENERGY=   -6.200  LOWER_BOUND=    0.000  UPPER_BOUND=    0.000
INTER + INTRA:          -6.200
INTER:                  -6.200
INTRA:                   0.000
UNBOUND:                 0.000

$$$$

     RDKit          3D

 64 61  0  0  0  0  0  0  0  0999 V2000
   48.9249    5.1009   19.5500 O   0  0  0  0  0  0  0  0  0  0  0  0
   47.2687    3.3972   17.0551 C   0  0  0  0  0  0  0  0  0  0  0  0
   47.6021    4.3658   16.1238 C   0  0  0  0  0  0  0  0  0  0  0  0
   48.1786    5.5431   16.4408 N   0  0  0  0  0  0  0  0  0  0  0  0
   48.4379    5.7585   17.7528 C   0  0  0  0  0  0  0  0  0  0  0  0
   48.1468    4.8541   18.7718 C   0  0  0  0  0  0  0  0  0  0  0  0
   47.5432    3.6488   18.3968 C   0  0  0  0  0  0  0  0  0  0  0  0
   48.4276    5.1638   20.2207 C   0  0  1  0  0  0  0  0  0  0  0  0
   49.7242    5.8311   20.4426 N   0  0  0  0  0  0  0  0  0  0  0  0
   49.5795    6.5820   21.6894 C   0  0  0  0  0  0  0  0  0  0  0  0
   48.2107    7.2105   21.5200 C   0  0  0  0  0  0  0  0  0  0  0  0
   47.3937    6.1361   20.8134 C   0  0  0  0  0  0  0  0  0  0  0  0
   50.8432    4.8985   20.4908 C   0  0  0  0  0  0  0  0  0  0  0  0
   46.8069    4.9034   18.2675 O   0  0  0  0  0  0  0  0  0  0  0  0
   46.8450    7.0292   18.9525 O   0  0  0  0  0  0  0  0  0  0  0  0
   49.6239    7.0271   19.2306 O   0  0  0  0  0  0  0  0  0  0  0  0
   50.8403    4.4481   19.2847 O   0  0  0  0  0  0  0  0  0  0  0  0
   49.9534    4.8862   21.8819 O   0  0  0  0  0  0  0  0  0  0  0  0
   47.8160    4.7517   21.2760 O   0  0  0  0  0  0  0  0  0  0  0  0
   47.4556    6.0024   18.6918 C   0  0  0  0  0  0  0  0  0  0  0  0
   48.9718    5.8582   18.7138 C   0  0  2  0  0  0  0  0  0  0  0  0
   49.4295    4.6268   19.4936 C   0  0  2  0  0  0  0  0  0  0  0  0
   49.1325    4.7760   20.9838 C   0  0  0  0  0  0  0  0  0  0  0  0
   49.0018    3.5848   17.3932 O   0  0  0  0  0  0  0  0  0  0  0  0
   48.9386    5.7667   16.9048 O   0  0  0  0  0  0  0  0  0  0  0  0
   48.8989    3.8522   19.9828 O   0  0  0  0  0  0  0  0  0  0  0  0
   46.9164    5.6290   19.9963 O   0  0  0  0  0  0  0  0  0  0  0  0
   49.8741    7.4927   20.9729 O   0  0  0  0  0  0  0  0  0  0  0  0
   48.2076    6.5550   22.1246 O   0  0  0  0  0  0  0  0  0  0  0  0
   49.0053    4.8921   17.7512 C   0  0  0  0  0  0  0  0  0  0  0  0
   49.1623    5.0651   19.2586 C   0  0  1  0  0  0  0  0  0  0  0  0
   48.2191    6.1651   19.7484 C   0  0  2  0  0  0  0  0  0  0  0  0
   48.8566    6.8164   20.9705 C   0  0  0  0  0  0  0  0  0  0  0  0
   48.9333    5.1077   19.5695 O   0  0  0  0  0  0  0  0  0  0  0  0
   48.2811    5.3744   18.8794 H   0  0  0  0  0  0  0  0  0  0  0  0
   48.8793    5.8016   20.2177 H   0  0  0  0  0  0  0  0  0  0  0  0
   46.8042    2.4688   16.7435 H   0  0  0  0  0  0  0  0  0  0  0  0
   47.4072    4.2164   15.0660 H   0  0  0  0  0  0  0  0  0  0  0  0
   48.9049    6.7161   17.9718 H   0  0  0  0  0  0  0  0  0  0  0  0
   47.2839    2.9032   19.1438 H   0  0  0  0  0  0  0  0  0  0  0  0
   48.3885    4.2341   20.8068 H   0  0  0  0  0  0  0  0  0  0  0  0
   50.3591    7.3408   21.8071 H   0  0  0  0  0  0  0  0  0  0  0  0
   49.5882    5.9232   22.5671 H   0  0  0  0  0  0  0  0  0  0  0  0
   47.7655    7.5076   22.4742 H   0  0  0  0  0  0  0  0  0  0  0  0
   48.2774    8.1025   20.8846 H   0  0  0  0  0  0  0  0  0  0  0  0
   46.7275    6.5902   20.0713 H   0  0  0  0  0  0  0  0  0  0  0  0
   46.7651    5.6086   21.5412 H   0  0  0  0  0  0  0  0  0  0  0  0
   51.7818    5.4400   20.6525 H   0  0  0  0  0  0  0  0  0  0  0  0
   50.9467    4.3651   19.5399 H   0  0  0  0  0  0  0  0  0  0  0  0
   50.7346    4.1571   21.2905 H   0  0  0  0  0  0  0  0  0  0  0  0
   45.8565    5.1470   18.3017 H   0  0  0  0  0  0  0  0  0  0  0  0
   49.0861    7.7932   18.9481 H   0  0  0  0  0  0  0  0  0  0  0  0
   51.2638    5.2310   19.6920 H   0  0  0  0  0  0  0  0  0  0  0  0
   47.7960    4.8439   22.2536 H   0  0  0  0  0  0  0  0  0  0  0  0
   49.2993    5.7766   17.6706 H   0  0  0  0  0  0  0  0  0  0  0  0
   48.9449    3.7100   19.1417 H   0  0  0  0  0  0  0  0  0  0  0  0
   48.8945    3.6088   16.4171 H   0  0  0  0  0  0  0  0  0  0  0  0
   49.0606    3.1274   19.3437 H   0  0  0  0  0  0  0  0  0  0  0  0
   47.0585    4.9350   20.6725 H   0  0  0  0  0  0  0  0  0  0  0  0
   48.7177    7.0347   22.8099 H   0  0  0  0  0  0  0  0  0  0  0  0
   50.2161    5.3172   19.4235 H   0  0  0  0  0  0  0  0  0  0  0  0
   48.0937    6.9684   19.0140 H   0  0  0  0  0  0  0  0  0  0  0  0
   48.3022    5.3364   18.8708 H   0  0  0  0  0  0  0  0  0  0  0  0
   48.8498    5.8330   20.2067 H   0  0  0  0  0  0  0  0  0  0  0  0
  7  2  2  0
  2  3  1  0
  8  6  1  0
  8  9  1  0
  4  5  1  0
  5  6  2  0
  3  4  2  0
  9 10  1  0
 10 11  1  0
 11 12  1  0
  8 12  1  0
  6  7  1  0
  9 13  1  0
 20 15  2  0
 21 16  1  0
 22 17  1  0
 20 14  1  0
 22 23  1  0
 21 22  1  0
 23 19  1  0
 20 21  1  0
 23 18  2  0
 30 25  2  0
 31 26  1  0
 32 27  1  0
 30 24  1  0
 32 33  1  0
 31 32  1  0
 33 29  1  0
 30 31  1  0
 33 28  2  0
  1 35  1  0
  1 36  1  0
  2 37  1  0
  3 38  1  0
  5 39  1  0
  7 40  1  0
  8 41  1  1
 10 42  1  0
 10 43  1  0
 11 44  1  0
 11 45  1  0
 12 46  1  0
 12 47  1  0
 13 48  1  0
 13 49  1  0
 13 50  1  0
 14 51  1  0
 16 52  1  0
 17 53  1  0
 19 54  1  0
 21 55  1  6
 22 56  1  1
 24 57  1  0
 26 58  1  0
 27 59  1  0
 29 60  1  0
 31 61  1  6
 32 62  1  6
 34 63  1  0
 34 64  1  0
M  END
> <Uni-Dock RESULT> 
ENERGY=   -4.526  LOWER_BOUND=    7.080  UPPER_BOUND=    9.370
INTER + INTRA:          -4.526
INTER:                  -4.526
INTRA:                   0.000
UNBOUND:                 0.000

$$$$

     RDKit          3D

 64 61  0  0  0  0  0  0  0  0999 V2000
   49.5037    5.0577   18.4207 O   0  0  0  0  0  0  0  0  0  0  0  0
   52.7296    4.8535   19.6130 C   0  0  0  0  0  0  0  0  0  0  0  0
   53.2475    5.1542   18.3649 C   0  0  0  0  0  0  0  0  0  0  0  0
   52.5041    5.2222   17.2417 N   0  0  0  0  0  0  0  0  0  0  0  0
   51.1776    4.9821   17.3760 C   0  0  0  0  0  0  0  0  0  0  0  0
   50.5515    4.6729   18.5816 C   0  0  0  0  0  0  0  0  0  0  0  0
   51.3633    4.6070   19.7193 C   0  0  0  0  0  0  0  0  0  0  0  0
   49.0743    4.3813   18.6640 C   0  0  1  0  0  0  0  0  0  0  0  0
   48.2466    5.2809   17.8388 N   0  0  0  0  0  0  0  0  0  0  0  0
   47.0240    4.5365   17.5384 C   0  0  0  0  0  0  0  0  0  0  0  0
   47.5693    3.1669   17.1861 C   0  0  0  0  0  0  0  0  0  0  0  0
   48.7349    2.9728   18.1478 C   0  0  0  0  0  0  0  0  0  0  0  0
   47.9671    6.5544   18.4904 C   0  0  0  0  0  0  0  0  0  0  0  0
   51.5055    3.6075   18.6641 O   0  0  0  0  0  0  0  0  0  0  0  0
   50.4421    2.7908   16.8775 O   0  0  0  0  0  0  0  0  0  0  0  0
   49.1364    5.2101   16.3854 O   0  0  0  0  0  0  0  0  0  0  0  0
   49.1482    7.0630   18.5534 O   0  0  0  0  0  0  0  0  0  0  0  0
   47.0517    5.3219   19.0988 O   0  0  0  0  0  0  0  0  0  0  0  0
   48.4374    3.6243   19.4880 O   0  0  0  0  0  0  0  0  0  0  0  0
   50.6536    3.7305   17.6307 C   0  0  0  0  0  0  0  0  0  0  0  0
   50.0873    5.1338   17.4571 C   0  0  2  0  0  0  0  0  0  0  0  0
   49.4590    5.6724   18.7413 C   0  0  2  0  0  0  0  0  0  0  0  0
   48.1964    4.8950   19.1056 C   0  0  0  0  0  0  0  0  0  0  0  0
   51.7284    6.2543   19.1789 O   0  0  0  0  0  0  0  0  0  0  0  0
   51.7514    5.6955   17.0131 O   0  0  0  0  0  0  0  0  0  0  0  0
   49.3758    5.2736   19.7186 O   0  0  0  0  0  0  0  0  0  0  0  0
   49.7564    2.9494   18.4773 O   0  0  0  0  0  0  0  0  0  0  0  0
   47.3744    4.7526   16.4159 O   0  0  0  0  0  0  0  0  0  0  0  0
   47.1574    3.1719   17.9772 O   0  0  0  0  0  0  0  0  0  0  0  0
   51.1391    5.7539   18.0656 C   0  0  0  0  0  0  0  0  0  0  0  0
   49.6838    5.3733   18.3185 C   0  0  1  0  0  0  0  0  0  0  0  0
   49.3770    4.0405   17.6338 C   0  0  2  0  0  0  0  0  0  0  0  0
   47.8999    4.0387   17.2567 C   0  0  0  0  0  0  0  0  0  0  0  0
   49.4815    5.0571   18.4185 O   0  0  0  0  0  0  0  0  0  0  0  0
   50.2980    4.6045   18.1005 H   0  0  0  0  0  0  0  0  0  0  0  0
   48.7764    4.5982   17.9749 H   0  0  0  0  0  0  0  0  0  0  0  0
   53.3753    4.8103   20.4825 H   0  0  0  0  0  0  0  0  0  0  0  0
   54.3066    5.3533   18.2310 H   0  0  0  0  0  0  0  0  0  0  0  0
   50.6087    5.0478   16.4513 H   0  0  0  0  0  0  0  0  0  0  0  0
   50.9385    4.3638   20.6896 H   0  0  0  0  0  0  0  0  0  0  0  0
   48.7484    4.4419   19.7126 H   0  0  0  0  0  0  0  0  0  0  0  0
   46.4680    4.9752   16.7041 H   0  0  0  0  0  0  0  0  0  0  0  0
   46.3618    4.4680   18.4109 H   0  0  0  0  0  0  0  0  0  0  0  0
   46.8168    2.3787   17.2844 H   0  0  0  0  0  0  0  0  0  0  0  0
   47.9368    3.1577   16.1525 H   0  0  0  0  0  0  0  0  0  0  0  0
   49.5657    2.4675   17.6427 H   0  0  0  0  0  0  0  0  0  0  0  0
   48.4234    2.3372   18.9857 H   0  0  0  0  0  0  0  0  0  0  0  0
   47.3551    7.1878   17.8388 H   0  0  0  0  0  0  0  0  0  0  0  0
   48.8942    7.1042   18.6843 H   0  0  0  0  0  0  0  0  0  0  0  0
   47.4366    6.4293   19.4411 H   0  0  0  0  0  0  0  0  0  0  0  0
   51.7861    2.6669   18.6442 H   0  0  0  0  0  0  0  0  0  0  0  0
   49.4404    4.5837   15.6990 H   0  0  0  0  0  0  0  0  0  0  0  0
   48.4611    7.0830   17.8564 H   0  0  0  0  0  0  0  0  0  0  0  0
   47.5438    3.2736   19.6959 H   0  0  0  0  0  0  0  0  0  0  0  0
   50.9211    5.7790   17.1561 H   0  0  0  0  0  0  0  0  0  0  0  0
   50.1463    5.6201   19.5923 H   0  0  0  0  0  0  0  0  0  0  0  0
   52.6455    6.4549   18.8894 H   0  0  0  0  0  0  0  0  0  0  0  0
   50.0380    5.8360   20.1713 H   0  0  0  0  0  0  0  0  0  0  0  0
   49.2326    3.0746   19.2953 H   0  0  0  0  0  0  0  0  0  0  0  0
   46.2480    3.2742   17.6272 H   0  0  0  0  0  0  0  0  0  0  0  0
   49.0838    6.1964   17.9138 H   0  0  0  0  0  0  0  0  0  0  0  0
   49.9248    3.9156   16.6933 H   0  0  0  0  0  0  0  0  0  0  0  0
   50.3055    4.6376   18.1291 H   0  0  0  0  0  0  0  0  0  0  0  0
   48.7911    4.5657   17.9485 H   0  0  0  0  0  0  0  0  0  0  0  0
  7  2  2  0
  2  3  1  0
  8  6  1  0
  8  9  1  0
  4  5  1  0
  5  6  2  0
  3  4  2  0
  9 10  1  0
 10 11  1  0
 11 12  1  0
  8 12  1  0
  6  7  1  0
  9 13  1  0
 20 15  2  0
 21 16  1  0
 22 17  1  0
 20 14  1  0
 22 23  1  0
 21 22  1  0
 23 19  1  0
 20 21  1  0
 23 18  2  0
 30 25  2  0
 31 26  1  0
 32 27  1  0
 30 24  1  0
 32 33  1  0
 31 32  1  0
 33 29  1  0
 30 31  1  0
 33 28  2  0
  1 35  1  0
  1 36  1  0
  2 37  1  0
  3 38  1  0
  5 39  1  0
  7 40  1  0
  8 41  1  1
 10 42  1  0
 10 43  1  0
 11 44  1  0
 11 45  1  0
 12 46  1  0
 12 47  1  0
 13 48  1  0
 13 49  1  0
 13 50  1  0
 14 51  1  0
 16 52  1  0
 17 53  1  0
 19 54  1  0
 21 55  1  6
 22 56  1  1
 24 57  1  0
 26 58  1  0
 27 59  1  0
 29 60  1  0
 31 61  1  6
 32 62  1  6
 34 63  1  0
 34 64  1  0
M  END
> <Uni-Dock RESULT> 
ENERGY=   -4.331  LOWER_BOUND=    6.588  UPPER_BOUND=    8.457
INTER + INTRA:          -4.331
INTER:                  -4.331
INTRA:                   0.000
UNBOUND:                 0.000

$$$$

     RDKit          3D

 64 61  0  0  0  0  0  0  0  0999 V2000
   40.7165   11.2941   11.0318 O   0  0  0  0  0  0  0  0  0  0  0  0
   43.6201   10.9625    9.2073 C   0  0  0  0  0  0  0  0  0  0  0  0
   44.3702   10.8149   10.3615 C   0  0  0  0  0  0  0  0  0  0  0  0
   43.8806   11.0080   11.6031 N   0  0  0  0  0  0  0  0  0  0  0  0
   42.5758   11.3613   11.6933 C   0  0  0  0  0  0  0  0  0  0  0  0
   41.7300   11.5355   10.6000 C   0  0  0  0  0  0  0  0  0  0  0  0
   42.2830   11.3308    9.3312 C   0  0  0  0  0  0  0  0  0  0  0  0
   40.2929   11.9635   10.7606 C   0  0  1  0  0  0  0  0  0  0  0  0
   39.6000   11.3013   11.8817 N   0  0  0  0  0  0  0  0  0  0  0  0
   38.5242   12.2088   12.2792 C   0  0  0  0  0  0  0  0  0  0  0  0
   39.2255   13.5524   12.2640 C   0  0  0  0  0  0  0  0  0  0  0  0
   40.1698   13.4648   11.0716 C   0  0  0  0  0  0  0  0  0  0  0  0
   39.1005    9.9757   11.5386 C   0  0  0  0  0  0  0  0  0  0  0  0
   42.7158   12.4673   10.1397 O   0  0  0  0  0  0  0  0  0  0  0  0
   42.1171   13.6694   11.9247 O   0  0  0  0  0  0  0  0  0  0  0  0
   40.7821   11.5124   13.0931 O   0  0  0  0  0  0  0  0  0  0  0  0
   40.2029    9.3423   11.3355 O   0  0  0  0  0  0  0  0  0  0  0  0
   38.1640   11.1829   10.9117 O   0  0  0  0  0  0  0  0  0  0  0  0
   39.5490   12.6400    9.9566 O   0  0  0  0  0  0  0  0  0  0  0  0
   42.0975   12.6033   11.3263 C   0  0  0  0  0  0  0  0  0  0  0  0
   41.4855   11.3140   11.8583 C   0  0  2  0  0  0  0  0  0  0  0  0
   40.5620   10.6438   10.8425 C   0  0  2  0  0  0  0  0  0  0  0  0
   39.3077   11.4803   10.6016 C   0  0  0  0  0  0  0  0  0  0  0  0
   42.6400    9.7635   10.0762 O   0  0  0  0  0  0  0  0  0  0  0  0
   43.1630   10.6597   12.0577 O   0  0  0  0  0  0  0  0  0  0  0  0
   40.3001   10.8857    9.8455 O   0  0  0  0  0  0  0  0  0  0  0  0
   41.0967   13.3271   10.5476 O   0  0  0  0  0  0  0  0  0  0  0  0
   39.0901   12.1416   13.3303 O   0  0  0  0  0  0  0  0  0  0  0  0
   38.6551   13.4628   11.5843 O   0  0  0  0  0  0  0  0  0  0  0  0
   42.3378   10.4965   11.1755 C   0  0  0  0  0  0  0  0  0  0  0  0
   40.8920   10.9820   11.1515 C   0  0  1  0  0  0  0  0  0  0  0  0
   40.8312   12.4328   11.6319 C   0  0  2  0  0  0  0  0  0  0  0  0
   39.4723   12.6508   12.2875 C   0  0  0  0  0  0  0  0  0  0  0  0
   40.6954   11.2973   11.0383 O   0  0  0  0  0  0  0  0  0  0  0  0
   41.5903   11.7071   11.1014 H   0  0  0  0  0  0  0  0  0  0  0  0
   40.1346   11.8935   11.5227 H   0  0  0  0  0  0  0  0  0  0  0  0
   44.0670   10.7964    8.2339 H   0  0  0  0  0  0  0  0  0  0  0  0
   45.4171   10.5299   10.3166 H   0  0  0  0  0  0  0  0  0  0  0  0
   42.2141   11.5063   12.7087 H   0  0  0  0  0  0  0  0  0  0  0  0
   41.6789   11.4570    8.4367 H   0  0  0  0  0  0  0  0  0  0  0  0
   39.7475   11.7687    9.8258 H   0  0  0  0  0  0  0  0  0  0  0  0
   38.1299   11.9718   13.2722 H   0  0  0  0  0  0  0  0  0  0  0  0
   37.6975   12.2045   11.5574 H   0  0  0  0  0  0  0  0  0  0  0  0
   38.5258   14.3889   12.1765 H   0  0  0  0  0  0  0  0  0  0  0  0
   39.8048   13.6899   13.1855 H   0  0  0  0  0  0  0  0  0  0  0  0
   41.1222   13.9549   11.3028 H   0  0  0  0  0  0  0  0  0  0  0  0
   39.7316   13.9856   10.2115 H   0  0  0  0  0  0  0  0  0  0  0  0
   38.5993    9.5239   12.4016 H   0  0  0  0  0  0  0  0  0  0  0  0
   39.9246    9.3074   11.2670 H   0  0  0  0  0  0  0  0  0  0  0  0
   38.3895   10.0004   10.7050 H   0  0  0  0  0  0  0  0  0  0  0  0
   43.0587   13.3639    9.9339 H   0  0  0  0  0  0  0  0  0  0  0  0
   41.2681   12.2061   13.5814 H   0  0  0  0  0  0  0  0  0  0  0  0
   39.6806    9.5076   12.1467 H   0  0  0  0  0  0  0  0  0  0  0  0
   38.6581   13.0444    9.8701 H   0  0  0  0  0  0  0  0  0  0  0  0
   42.3176   10.6419   12.0994 H   0  0  0  0  0  0  0  0  0  0  0  0
   41.0540   10.4852    9.8770 H   0  0  0  0  0  0  0  0  0  0  0  0
   43.5816    9.5171   10.2095 H   0  0  0  0  0  0  0  0  0  0  0  0
   40.8100   10.1910    9.3794 H   0  0  0  0  0  0  0  0  0  0  0  0
   40.4031   13.1269    9.8858 H   0  0  0  0  0  0  0  0  0  0  0  0
   37.8364   13.5146   12.1201 H   0  0  0  0  0  0  0  0  0  0  0  0
   40.3366   10.3029   11.8085 H   0  0  0  0  0  0  0  0  0  0  0  0
   41.5744   12.6498   12.4071 H   0  0  0  0  0  0  0  0  0  0  0  0
   41.5892   11.6692   11.0784 H   0  0  0  0  0  0  0  0  0  0  0  0
   40.1568   11.9281   11.5393 H   0  0  0  0  0  0  0  0  0  0  0  0
  7  2  2  0
  2  3  1  0
  8  6  1  0
  8  9  1  0
  4  5  1  0
  5  6  2  0
  3  4  2  0
  9 10  1  0
 10 11  1  0
 11 12  1  0
  8 12  1  0
  6  7  1  0
  9 13  1  0
 20 15  2  0
 21 16  1  0
 22 17  1  0
 20 14  1  0
 22 23  1  0
 21 22  1  0
 23 19  1  0
 20 21  1  0
 23 18  2  0
 30 25  2  0
 31 26  1  0
 32 27  1  0
 30 24  1  0
 32 33  1  0
 31 32  1  0
 33 29  1  0
 30 31  1  0
 33 28  2  0
  1 35  1  0
  1 36  1  0
  2 37  1  0
  3 38  1  0
  5 39  1  0
  7 40  1  0
  8 41  1  1
 10 42  1  0
 10 43  1  0
 11 44  1  0
 11 45  1  0
 12 46  1  0
 12 47  1  0
 13 48  1  0
 13 49  1  0
 13 50  1  0
 14 51  1  0
 16 52  1  0
 17 53  1  0
 19 54  1  0
 21 55  1  6
 22 56  1  1
 24 57  1  0
 26 58  1  0
 27 59  1  0
 29 60  1  0
 31 61  1  6
 32 62  1  6
 34 63  1  0
 34 64  1  0
M  END
> <Uni-Dock RESULT> 
ENERGY=   -4.273  LOWER_BOUND=    6.333  UPPER_BOUND=    8.035
INTER + INTRA:          -4.273
INTER:                  -4.273
INTRA:                   0.000
UNBOUND:                 0.000

$$$$

     RDKit          3D

 64 61  0  0  0  0  0  0  0  0999 V2000
   48.0556   12.3721   19.4638 O   0  0  0  0  0  0  0  0  0  0  0  0
   49.8110   14.1558   17.0959 C   0  0  0  0  0  0  0  0  0  0  0  0
   48.6535   14.4154   16.3822 C   0  0  0  0  0  0  0  0  0  0  0  0
   47.4623   13.8439   16.6528 N   0  0  0  0  0  0  0  0  0  0  0  0
   47.4278   12.9744   17.6911 C   0  0  0  0  0  0  0  0  0  0  0  0
   48.5294   12.6419   18.4765 C   0  0  0  0  0  0  0  0  0  0  0  0
   49.7457   13.2542   18.1549 C   0  0  0  0  0  0  0  0  0  0  0  0
   48.4379   11.6396   19.5995 C   0  0  1  0  0  0  0  0  0  0  0  0
   47.2135   11.7707   20.4114 N   0  0  0  0  0  0  0  0  0  0  0  0
   46.9754   10.4498   20.9925 C   0  0  0  0  0  0  0  0  0  0  0  0
   47.2314    9.5363   19.8105 C   0  0  0  0  0  0  0  0  0  0  0  0
   48.3954   10.1929   19.0791 C   0  0  0  0  0  0  0  0  0  0  0  0
   47.3146   12.8080   21.4302 C   0  0  0  0  0  0  0  0  0  0  0  0
   49.1527   12.2854   17.2370 O   0  0  0  0  0  0  0  0  0  0  0  0
   47.6038   10.6780   17.1557 O   0  0  0  0  0  0  0  0  0  0  0  0
   46.0655   11.8776   19.1543 O   0  0  0  0  0  0  0  0  0  0  0  0
   47.4097   13.8631   20.6986 O   0  0  0  0  0  0  0  0  0  0  0  0
   48.1385   11.4376   21.8432 O   0  0  0  0  0  0  0  0  0  0  0  0
   49.3439   10.8528   20.0660 O   0  0  0  0  0  0  0  0  0  0  0  0
   48.0049   11.7208   17.6523 C   0  0  0  0  0  0  0  0  0  0  0  0
   47.2503   12.5410   18.6906 C   0  0  2  0  0  0  0  0  0  0  0  0
   48.1265   12.9216   19.8827 C   0  0  2  0  0  0  0  0  0  0  0  0
   48.5032   11.6917   20.7052 C   0  0  0  0  0  0  0  0  0  0  0  0
   48.7385   14.6898   18.4065 O   0  0  0  0  0  0  0  0  0  0  0  0
   46.9491   13.7886   17.4121 O   0  0  0  0  0  0  0  0  0  0  0  0
   49.1488   12.7540   20.1013 O   0  0  0  0  0  0  0  0  0  0  0  0
   48.8927   10.7816   18.3316 O   0  0  0  0  0  0  0  0  0  0  0  0
   45.9325   10.5776   20.4221 O   0  0  0  0  0  0  0  0  0  0  0  0
   47.8811    9.4887   20.4196 O   0  0  0  0  0  0  0  0  0  0  0  0
   47.7837   13.7339   18.2988 C   0  0  0  0  0  0  0  0  0  0  0  0
   47.8839   12.7056   19.4210 C   0  0  1  0  0  0  0  0  0  0  0  0
   47.6662   11.3031   18.8509 C   0  0  2  0  0  0  0  0  0  0  0  0
   47.0509   10.4432   19.9492 C   0  0  0  0  0  0  0  0  0  0  0  0
   48.0497   12.3594   19.4812 O   0  0  0  0  0  0  0  0  0  0  0  0
   48.0652   12.3511   18.4951 H   0  0  0  0  0  0  0  0  0  0  0  0
   47.6744   11.5167   19.7125 H   0  0  0  0  0  0  0  0  0  0  0  0
   50.7427   14.6430   16.8323 H   0  0  0  0  0  0  0  0  0  0  0  0
   48.6540   15.1101   15.5476 H   0  0  0  0  0  0  0  0  0  0  0  0
   46.4516   12.5347   17.8825 H   0  0  0  0  0  0  0  0  0  0  0  0
   50.6448   13.0329   18.7240 H   0  0  0  0  0  0  0  0  0  0  0  0
   49.3204   11.7370   20.2484 H   0  0  0  0  0  0  0  0  0  0  0  0
   45.9538   10.3430   21.3701 H   0  0  0  0  0  0  0  0  0  0  0  0
   47.6801   10.2267   21.8038 H   0  0  0  0  0  0  0  0  0  0  0  0
   47.4606    8.5110   20.1158 H   0  0  0  0  0  0  0  0  0  0  0  0
   46.3521    9.5063   19.1551 H   0  0  0  0  0  0  0  0  0  0  0  0
   48.2601   10.1096   17.9949 H   0  0  0  0  0  0  0  0  0  0  0  0
   49.3311    9.6807   19.3345 H   0  0  0  0  0  0  0  0  0  0  0  0
   46.3824   12.8701   22.0024 H   0  0  0  0  0  0  0  0  0  0  0  0
   47.4692   13.7905   20.9716 H   0  0  0  0  0  0  0  0  0  0  0  0
   48.1351   12.6241   22.1331 H   0  0  0  0  0  0  0  0  0  0  0  0
   49.5154   11.6550   16.5775 H   0  0  0  0  0  0  0  0  0  0  0  0
   45.7100   11.3787   18.3924 H   0  0  0  0  0  0  0  0  0  0  0  0
   46.6371   13.3712   21.0440 H   0  0  0  0  0  0  0  0  0  0  0  0
   49.4949   10.1361   20.7204 H   0  0  0  0  0  0  0  0  0  0  0  0
   46.8997   13.4491   18.1861 H   0  0  0  0  0  0  0  0  0  0  0  0
   49.0519   13.4194   19.5744 H   0  0  0  0  0  0  0  0  0  0  0  0
   48.5696   15.2783   17.6383 H   0  0  0  0  0  0  0  0  0  0  0  0
   49.4884   13.6613   19.9547 H   0  0  0  0  0  0  0  0  0  0  0  0
   49.5047   10.7795   19.0962 H   0  0  0  0  0  0  0  0  0  0  0  0
   47.3579    9.0198   21.1024 H   0  0  0  0  0  0  0  0  0  0  0  0
   47.1142   12.9818   20.1507 H   0  0  0  0  0  0  0  0  0  0  0  0
   46.9459   11.2925   18.0255 H   0  0  0  0  0  0  0  0  0  0  0  0
   48.0812   12.3883   18.5132 H   0  0  0  0  0  0  0  0  0  0  0  0
   47.6643   11.4922   19.6770 H   0  0  0  0  0  0  0  0  0  0  0  0
  7  2  2  0
  2  3  1  0
  8  6  1  0
  8  9  1  0
  4  5  1  0
  5  6  2  0
  3  4  2  0
  9 10  1  0
 10 11  1  0
 11 12  1  0
  8 12  1  0
  6  7  1  0
  9 13  1  0
 20 15  2  0
 21 16  1  0
 22 17  1  0
 20 14  1  0
 22 23  1  0
 21 22  1  0
 23 19  1  0
 20 21  1  0
 23 18  2  0
 30 25  2  0
 31 26  1  0
 32 27  1  0
 30 24  1  0
 32 33  1  0
 31 32  1  0
 33 29  1  0
 30 31  1  0
 33 28  2  0
  1 35  1  0
  1 36  1  0
  2 37  1  0
  3 38  1  0
  5 39  1  0
  7 40  1  0
  8 41  1  1
 10 42  1  0
 10 43  1  0
 11 44  1  0
 11 45  1  0
 12 46  1  0
 12 47  1  0
 13 48  1  0
 13 49  1  0
 13 50  1  0
 14 51  1  0
 16 52  1  0
 17 53  1  0
 19 54  1  0
 21 55  1  6
 22 56  1  1
 24 57  1  0
 26 58  1  0
 27 59  1  0
 29 60  1  0
 31 61  1  6
 32 62  1  6
 34 63  1  0
 34 64  1  0
M  END
> <Uni-Dock RESULT> 
ENERGY=   -4.243  LOWER_BOUND=    9.085  UPPER_BOUND=   10.974
INTER + INTRA:          -4.243
INTER:                  -4.243
INTRA:                   0.000
UNBOUND:                 0.000

$$$$

     RDKit          3D

 64 61  0  0  0  0  0  0  0  0999 V2000
   54.8581    6.4608    9.3330 O   0  0  0  0  0  0  0  0  0  0  0  0
   54.1359    8.1455    6.4158 C   0  0  0  0  0  0  0  0  0  0  0  0
   52.8023    7.7823    6.4946 C   0  0  0  0  0  0  0  0  0  0  0  0
   52.3191    6.8947    7.3875 N   0  0  0  0  0  0  0  0  0  0  0  0
   53.2136    6.3482    8.2457 C   0  0  0  0  0  0  0  0  0  0  0  0
   54.5754    6.6424    8.2564 C   0  0  0  0  0  0  0  0  0  0  0  0
   55.0327    7.5638    7.3080 C   0  0  0  0  0  0  0  0  0  0  0  0
   55.5302    5.9758    9.2145 C   0  0  1  0  0  0  0  0  0  0  0  0
   54.9953    5.8362   10.5819 N   0  0  0  0  0  0  0  0  0  0  0  0
   55.7012    4.7002   11.1737 C   0  0  0  0  0  0  0  0  0  0  0  0
   55.6764    3.6917   10.0426 C   0  0  0  0  0  0  0  0  0  0  0  0
   55.8634    4.5360    8.7883 C   0  0  0  0  0  0  0  0  0  0  0  0
   55.1433    7.0486   11.3773 C   0  0  0  0  0  0  0  0  0  0  0  0
   54.5461    6.2560    6.8773 O   0  0  0  0  0  0  0  0  0  0  0  0
   54.0719    4.2217    7.6689 O   0  0  0  0  0  0  0  0  0  0  0  0
   53.4538    5.2098   10.2069 O   0  0  0  0  0  0  0  0  0  0  0  0
   54.3709    7.8573   10.7394 O   0  0  0  0  0  0  0  0  0  0  0  0
   56.5631    6.2191   11.2242 O   0  0  0  0  0  0  0  0  0  0  0  0
   56.7822    5.7136    9.0678 O   0  0  0  0  0  0  0  0  0  0  0  0
   54.1667    5.4250    7.8643 C   0  0  0  0  0  0  0  0  0  0  0  0
   53.7919    6.1316    9.1606 C   0  0  2  0  0  0  0  0  0  0  0  0
   54.8865    7.0807    9.6453 C   0  0  2  0  0  0  0  0  0  0  0  0
   56.1290    6.3104   10.0858 C   0  0  0  0  0  0  0  0  0  0  0  0
   53.7946    8.5430    8.1125 O   0  0  0  0  0  0  0  0  0  0  0  0
   52.3606    6.8370    8.3029 O   0  0  0  0  0  0  0  0  0  0  0  0
   55.8237    7.3587    9.2386 O   0  0  0  0  0  0  0  0  0  0  0  0
   55.5824    5.0699    7.9002 O   0  0  0  0  0  0  0  0  0  0  0  0
   54.5838    4.2949   11.3027 O   0  0  0  0  0  0  0  0  0  0  0  0
   56.4901    4.0335   10.1710 O   0  0  0  0  0  0  0  0  0  0  0  0
   53.4571    7.3067    8.5537 C   0  0  0  0  0  0  0  0  0  0  0  0
   54.5637    6.6871    9.4012 C   0  0  1  0  0  0  0  0  0  0  0  0
   54.7231    5.2107    9.0350 C   0  0  2  0  0  0  0  0  0  0  0  0
   55.2183    4.4733   10.2740 C   0  0  0  0  0  0  0  0  0  0  0  0
   54.8684    6.4514    9.3505 O   0  0  0  0  0  0  0  0  0  0  0  0
   54.3718    6.2146    8.5319 H   0  0  0  0  0  0  0  0  0  0  0  0
   55.0824    5.6111    9.7411 H   0  0  0  0  0  0  0  0  0  0  0  0
   54.4694    8.8636    5.6754 H   0  0  0  0  0  0  0  0  0  0  0  0
   52.0651    8.2078    5.8203 H   0  0  0  0  0  0  0  0  0  0  0  0
   52.7892    5.6392    8.9529 H   0  0  0  0  0  0  0  0  0  0  0  0
   56.0848    7.8318    7.2585 H   0  0  0  0  0  0  0  0  0  0  0  0
   56.4719    6.5431    9.2451 H   0  0  0  0  0  0  0  0  0  0  0  0
   55.1942    4.3180   12.0650 H   0  0  0  0  0  0  0  0  0  0  0  0
   56.7371    4.9526   11.4340 H   0  0  0  0  0  0  0  0  0  0  0  0
   56.4526    2.9275   10.1459 H   0  0  0  0  0  0  0  0  0  0  0  0
   54.7042    3.1846   10.0058 H   0  0  0  0  0  0  0  0  0  0  0  0
   55.2382    4.1528    7.9741 H   0  0  0  0  0  0  0  0  0  0  0  0
   56.9072    4.4813    8.4557 H   0  0  0  0  0  0  0  0  0  0  0  0
   54.7287    6.8976   12.3801 H   0  0  0  0  0  0  0  0  0  0  0  0
   54.5881    7.8790   10.9283 H   0  0  0  0  0  0  0  0  0  0  0  0
   56.1907    7.3531   11.4832 H   0  0  0  0  0  0  0  0  0  0  0  0
   54.7465    5.6658    6.1188 H   0  0  0  0  0  0  0  0  0  0  0  0
   53.0163    4.4489    9.7762 H   0  0  0  0  0  0  0  0  0  0  0  0
   54.1988    7.2131   11.4559 H   0  0  0  0  0  0  0  0  0  0  0  0
   57.5467    5.2813    9.5073 H   0  0  0  0  0  0  0  0  0  0  0  0
   52.8747    6.6983    8.9610 H   0  0  0  0  0  0  0  0  0  0  0  0
   55.1875    7.7953    8.8720 H   0  0  0  0  0  0  0  0  0  0  0  0
   53.0141    8.8264    7.5876 H   0  0  0  0  0  0  0  0  0  0  0  0
   55.5991    8.2640    8.9390 H   0  0  0  0  0  0  0  0  0  0  0  0
   56.4292    5.4758    8.1787 H   0  0  0  0  0  0  0  0  0  0  0  0
   56.6659    3.5822   11.0227 H   0  0  0  0  0  0  0  0  0  0  0  0
   54.2562    6.8259   10.4440 H   0  0  0  0  0  0  0  0  0  0  0  0
   53.7709    4.7391    8.7682 H   0  0  0  0  0  0  0  0  0  0  0  0
   54.3767    6.2582    8.5382 H   0  0  0  0  0  0  0  0  0  0  0  0
   55.0673    5.5769    9.7173 H   0  0  0  0  0  0  0  0  0  0  0  0
  7  2  2  0
  2  3  1  0
  8  6  1  0
  8  9  1  0
  4  5  1  0
  5  6  2  0
  3  4  2  0
  9 10  1  0
 10 11  1  0
 11 12  1  0
  8 12  1  0
  6  7  1  0
  9 13  1  0
 20 15  2  0
 21 16  1  0
 22 17  1  0
 20 14  1  0
 22 23  1  0
 21 22  1  0
 23 19  1  0
 20 21  1  0
 23 18  2  0
 30 25  2  0
 31 26  1  0
 32 27  1  0
 30 24  1  0
 32 33  1  0
 31 32  1  0
 33 29  1  0
 30 31  1  0
 33 28  2  0
  1 35  1  0
  1 36  1  0
  2 37  1  0
  3 38  1  0
  5 39  1  0
  7 40  1  0
  8 41  1  1
 10 42  1  0
 10 43  1  0
 11 44  1  0
 11 45  1  0
 12 46  1  0
 12 47  1  0
 13 48  1  0
 13 49  1  0
 13 50  1  0
 14 51  1  0
 16 52  1  0
 17 53  1  0
 19 54  1  0
 21 55  1  6
 22 56  1  1
 24 57  1  0
 26 58  1  0
 27 59  1  0
 29 60  1  0
 31 61  1  6
 32 62  1  6
 34 63  1  0
 34 64  1  0
M  END
> <Uni-Dock RESULT> 
ENERGY=   -4.169  LOWER_BOUND=    8.906  UPPER_BOUND=   10.638
INTER + INTRA:          -4.169
INTER:                  -4.169
INTRA:                   0.000
UNBOUND:                 0.000

$$$$

     RDKit          3D

 64 61  0  0  0  0  0  0  0  0999 V2000
   49.0350    5.5603   18.7416 O   0  0  0  0  0  0  0  0  0  0  0  0
   48.2287    8.8399   19.4229 C   0  0  0  0  0  0  0  0  0  0  0  0
   47.7417    8.4975   20.6728 C   0  0  0  0  0  0  0  0  0  0  0  0
   47.5722    7.2257   21.0882 N   0  0  0  0  0  0  0  0  0  0  0  0
   47.9113    6.2501   20.2116 C   0  0  0  0  0  0  0  0  0  0  0  0
   48.4116    6.4806   18.9318 C   0  0  0  0  0  0  0  0  0  0  0  0
   48.5645    7.8155   18.5416 C   0  0  0  0  0  0  0  0  0  0  0  0
   48.7398    5.3528   17.9861 C   0  0  1  0  0  0  0  0  0  0  0  0
   49.4160    4.2141   18.6352 N   0  0  0  0  0  0  0  0  0  0  0  0
   49.1116    3.0451   17.8106 C   0  0  0  0  0  0  0  0  0  0  0  0
   47.6332    3.2326   17.5341 C   0  0  0  0  0  0  0  0  0  0  0  0
   47.4759    4.7381   17.3612 C   0  0  0  0  0  0  0  0  0  0  0  0
   50.8510    4.4174   18.7899 C   0  0  0  0  0  0  0  0  0  0  0  0
   47.2273    7.2637   18.7415 O   0  0  0  0  0  0  0  0  0  0  0  0
   46.1536    5.3146   18.9362 O   0  0  0  0  0  0  0  0  0  0  0  0
   48.3991    4.0334   19.9926 O   0  0  0  0  0  0  0  0  0  0  0  0
   50.8720    5.4037   19.6172 O   0  0  0  0  0  0  0  0  0  0  0  0
   50.4332    4.0344   17.2388 O   0  0  0  0  0  0  0  0  0  0  0  0
   48.7078    5.3325   16.6992 O   0  0  0  0  0  0  0  0  0  0  0  0
   47.1816    5.9618   19.0756 C   0  0  0  0  0  0  0  0  0  0  0  0
   48.4644    5.4382   19.7083 C   0  0  2  0  0  0  0  0  0  0  0  0
   49.6978    5.7337   18.8566 C   0  0  2  0  0  0  0  0  0  0  0  0
   49.6727    4.9369   17.5545 C   0  0  0  0  0  0  0  0  0  0  0  0
   49.5517    7.8127   20.0127 O   0  0  0  0  0  0  0  0  0  0  0  0
   48.1326    6.5001   21.1380 O   0  0  0  0  0  0  0  0  0  0  0  0
   49.8286    6.2538   17.9437 O   0  0  0  0  0  0  0  0  0  0  0  0
   47.2334    5.7483   17.6321 O   0  0  0  0  0  0  0  0  0  0  0  0
   48.6705    2.6445   18.8471 O   0  0  0  0  0  0  0  0  0  0  0  0
   48.1330    3.3877   16.8119 O   0  0  0  0  0  0  0  0  0  0  0  0
   48.8632    6.6566   20.1749 C   0  0  0  0  0  0  0  0  0  0  0  0
   49.1851    5.6479   19.0768 C   0  0  1  0  0  0  0  0  0  0  0  0
   47.8979    4.9582   18.6222 C   0  0  2  0  0  0  0  0  0  0  0  0
   48.2628    3.5571   18.1446 C   0  0  0  0  0  0  0  0  0  0  0  0
   49.0416    5.5413   18.7319 O   0  0  0  0  0  0  0  0  0  0  0  0
   48.2354    5.9852   19.0864 H   0  0  0  0  0  0  0  0  0  0  0  0
   48.7230    4.7019   18.4182 H   0  0  0  0  0  0  0  0  0  0  0  0
   48.3424    9.8803   19.1411 H   0  0  0  0  0  0  0  0  0  0  0  0
   47.4654    9.2603   21.3946 H   0  0  0  0  0  0  0  0  0  0  0  0
   47.7642    5.2375   20.5803 H   0  0  0  0  0  0  0  0  0  0  0  0
   48.9434    8.0639   17.5537 H   0  0  0  0  0  0  0  0  0  0  0  0
   49.3674    5.7341   17.1675 H   0  0  0  0  0  0  0  0  0  0  0  0
   49.3067    2.1060   18.3376 H   0  0  0  0  0  0  0  0  0  0  0  0
   49.6768    3.0496   16.8698 H   0  0  0  0  0  0  0  0  0  0  0  0
   47.2986    2.6781   16.6523 H   0  0  0  0  0  0  0  0  0  0  0  0
   47.0395    2.8946   18.3925 H   0  0  0  0  0  0  0  0  0  0  0  0
   46.5390    5.0782   17.8165 H   0  0  0  0  0  0  0  0  0  0  0  0
   47.4328    4.9871   16.2939 H   0  0  0  0  0  0  0  0  0  0  0  0
   51.3067    3.5495   19.2792 H   0  0  0  0  0  0  0  0  0  0  0  0
   51.0548    5.2830   19.4292 H   0  0  0  0  0  0  0  0  0  0  0  0
   51.3565    4.5727   17.8301 H   0  0  0  0  0  0  0  0  0  0  0  0
   46.3433    7.4533   18.3588 H   0  0  0  0  0  0  0  0  0  0  0  0
   47.4726    3.8427   20.2401 H   0  0  0  0  0  0  0  0  0  0  0  0
   50.8299    4.4351   19.7515 H   0  0  0  0  0  0  0  0  0  0  0  0
   48.8322    4.7427   15.9237 H   0  0  0  0  0  0  0  0  0  0  0  0
   48.5631    5.9306   20.6830 H   0  0  0  0  0  0  0  0  0  0  0  0
   49.7809    6.7956   18.6023 H   0  0  0  0  0  0  0  0  0  0  0  0
   49.2595    8.3683   20.7684 H   0  0  0  0  0  0  0  0  0  0  0  0
   50.2519    7.0671   18.2891 H   0  0  0  0  0  0  0  0  0  0  0  0
   47.8843    5.8336   16.9053 H   0  0  0  0  0  0  0  0  0  0  0  0
   48.3911    2.4557   16.6544 H   0  0  0  0  0  0  0  0  0  0  0  0
   49.9010    4.9440   19.5165 H   0  0  0  0  0  0  0  0  0  0  0  0
   47.1849    4.8173   19.4420 H   0  0  0  0  0  0  0  0  0  0  0  0
   48.2724    6.0093   19.0899 H   0  0  0  0  0  0  0  0  0  0  0  0
   48.6794    4.6968   18.4244 H   0  0  0  0  0  0  0  0  0  0  0  0
  7  2  2  0
  2  3  1  0
  8  6  1  0
  8  9  1  0
  4  5  1  0
  5  6  2  0
  3  4  2  0
  9 10  1  0
 10 11  1  0
 11 12  1  0
  8 12  1  0
  6  7  1  0
  9 13  1  0
 20 15  2  0
 21 16  1  0
 22 17  1  0
 20 14  1  0
 22 23  1  0
 21 22  1  0
 23 19  1  0
 20 21  1  0
 23 18  2  0
 30 25  2  0
 31 26  1  0
 32 27  1  0
 30 24  1  0
 32 33  1  0
 31 32  1  0
 33 29  1  0
 30 31  1  0
 33 28  2  0
  1 35  1  0
  1 36  1  0
  2 37  1  0
  3 38  1  0
  5 39  1  0
  7 40  1  0
  8 41  1  1
 10 42  1  0
 10 43  1  0
 11 44  1  0
 11 45  1  0
 12 46  1  0
 12 47  1  0
 13 48  1  0
 13 49  1  0
 13 50  1  0
 14 51  1  0
 16 52  1  0
 17 53  1  0
 19 54  1  0
 21 55  1  6
 22 56  1  1
 24 57  1  0
 26 58  1  0
 27 59  1  0
 29 60  1  0
 31 61  1  6
 32 62  1  6
 34 63  1  0
 34 64  1  0
M  END
> <Uni-Dock RESULT> 
ENERGY=   -4.158  LOWER_BOUND=    6.688  UPPER_BOUND=    8.288
INTER + INTRA:          -4.158
INTER:                  -4.158
INTRA:                   0.000
UNBOUND:                 0.000

$$$$

     RDKit          3D

 64 61  0  0  0  0  0  0  0  0999 V2000
   48.3456    5.4433   19.2623 O   0  0  0  0  0  0  0  0  0  0  0  0
   47.5929    3.0939   16.8574 C   0  0  0  0  0  0  0  0  0  0  0  0
   48.9124    2.6789   16.7994 C   0  0  0  0  0  0  0  0  0  0  0  0
   49.9265    3.3172   17.4183 N   0  0  0  0  0  0  0  0  0  0  0  0
   49.6028    4.4213   18.1333 C   0  0  0  0  0  0  0  0  0  0  0  0
   48.3104    4.9259   18.2608 C   0  0  0  0  0  0  0  0  0  0  0  0
   47.2913    4.2348   17.5963 C   0  0  0  0  0  0  0  0  0  0  0  0
   48.0151    6.1807   19.0433 C   0  0  1  0  0  0  0  0  0  0  0  0
   48.7618    6.2767   20.3116 N   0  0  0  0  0  0  0  0  0  0  0  0
   48.8588    7.7048   20.6117 C   0  0  0  0  0  0  0  0  0  0  0  0
   49.2173    8.2861   19.2586 C   0  0  0  0  0  0  0  0  0  0  0  0
   48.4143    7.4493   18.2706 C   0  0  0  0  0  0  0  0  0  0  0  0
   48.1385    5.5293   21.3967 C   0  0  0  0  0  0  0  0  0  0  0  0
   48.3081    4.9484   16.8285 O   0  0  0  0  0  0  0  0  0  0  0  0
   49.8942    6.5050   17.0542 O   0  0  0  0  0  0  0  0  0  0  0  0
   50.3174    5.8718   19.7412 O   0  0  0  0  0  0  0  0  0  0  0  0
   48.2599    4.3223   20.9656 O   0  0  0  0  0  0  0  0  0  0  0  0
   47.3549    6.9477   21.0781 O   0  0  0  0  0  0  0  0  0  0  0  0
   47.0781    7.0469   18.8720 O   0  0  0  0  0  0  0  0  0  0  0  0
   49.2213    5.6160   17.5560 C   0  0  0  0  0  0  0  0  0  0  0  0
   49.3819    5.0959   18.9786 C   0  0  2  0  0  0  0  0  0  0  0  0
   48.0510    5.0165   19.7245 C   0  0  2  0  0  0  0  0  0  0  0  0
   47.4832    6.4089   19.9891 C   0  0  0  0  0  0  0  0  0  0  0  0
   47.9524    2.9240   18.5880 O   0  0  0  0  0  0  0  0  0  0  0  0
   50.0729    3.5700   18.2887 O   0  0  0  0  0  0  0  0  0  0  0  0
   47.0540    5.2193   19.4318 O   0  0  0  0  0  0  0  0  0  0  0  0
   48.2254    6.6837   17.5421 O   0  0  0  0  0  0  0  0  0  0  0  0
   50.0272    7.4519   20.5980 O   0  0  0  0  0  0  0  0  0  0  0  0
   48.3789    8.4768   19.4955 O   0  0  0  0  0  0  0  0  0  0  0  0
   48.9511    3.8352   18.6851 C   0  0  0  0  0  0  0  0  0  0  0  0
   48.4860    5.1123   19.3776 C   0  0  1  0  0  0  0  0  0  0  0  0
   49.0598    6.3281   18.6481 C   0  0  2  0  0  0  0  0  0  0  0  0
   49.2329    7.4464   19.6697 C   0  0  0  0  0  0  0  0  0  0  0  0
   48.3448    5.4600   19.2770 O   0  0  0  0  0  0  0  0  0  0  0  0
   48.7490    5.2185   18.4104 H   0  0  0  0  0  0  0  0  0  0  0  0
   48.6670    6.3391   19.4442 H   0  0  0  0  0  0  0  0  0  0  0  0
   46.8178    2.5427   16.3376 H   0  0  0  0  0  0  0  0  0  0  0  0
   49.1976    1.7957   16.2355 H   0  0  0  0  0  0  0  0  0  0  0  0
   50.4439    4.9091   18.6207 H   0  0  0  0  0  0  0  0  0  0  0  0
   46.2621    4.5799   17.6495 H   0  0  0  0  0  0  0  0  0  0  0  0
   46.9361    6.2379   19.2475 H   0  0  0  0  0  0  0  0  0  0  0  0
   49.6297    7.9183   21.3586 H   0  0  0  0  0  0  0  0  0  0  0  0
   47.9024    8.1158   20.9596 H   0  0  0  0  0  0  0  0  0  0  0  0
   48.9814    9.3519   19.1851 H   0  0  0  0  0  0  0  0  0  0  0  0
   50.2897    8.1619   19.0630 H   0  0  0  0  0  0  0  0  0  0  0  0
   49.0032    7.2577   17.3666 H   0  0  0  0  0  0  0  0  0  0  0  0
   47.5132    7.9960   17.9670 H   0  0  0  0  0  0  0  0  0  0  0  0
   48.7301    5.6272   22.3137 H   0  0  0  0  0  0  0  0  0  0  0  0
   48.0978    4.4607   21.1603 H   0  0  0  0  0  0  0  0  0  0  0  0
   47.1199    5.8732   21.6092 H   0  0  0  0  0  0  0  0  0  0  0  0
   48.3219    5.3863   15.9499 H   0  0  0  0  0  0  0  0  0  0  0  0
   51.0087    6.1669   19.1159 H   0  0  0  0  0  0  0  0  0  0  0  0
   48.8575    4.8965   21.4864 H   0  0  0  0  0  0  0  0  0  0  0  0
   46.7349    7.9035   19.2082 H   0  0  0  0  0  0  0  0  0  0  0  0
   49.8228    4.0948   18.9041 H   0  0  0  0  0  0  0  0  0  0  0  0
   47.2994    4.4438   19.1710 H   0  0  0  0  0  0  0  0  0  0  0  0
   48.3725    2.1629   18.1304 H   0  0  0  0  0  0  0  0  0  0  0  0
   46.7218    4.2998   19.3691 H   0  0  0  0  0  0  0  0  0  0  0  0
   47.3508    6.8703   17.9413 H   0  0  0  0  0  0  0  0  0  0  0  0
   48.6069    9.1105   20.2070 H   0  0  0  0  0  0  0  0  0  0  0  0
   48.8437    5.0405   20.4111 H   0  0  0  0  0  0  0  0  0  0  0  0
   50.0590    6.1399   18.2401 H   0  0  0  0  0  0  0  0  0  0  0  0
   48.7233    5.1869   18.4279 H   0  0  0  0  0  0  0  0  0  0  0  0
   48.6935    6.3540   19.4119 H   0  0  0  0  0  0  0  0  0  0  0  0
  7  2  2  0
  2  3  1  0
  8  6  1  0
  8  9  1  0
  4  5  1  0
  5  6  2  0
  3  4  2  0
  9 10  1  0
 10 11  1  0
 11 12  1  0
  8 12  1  0
  6  7  1  0
  9 13  1  0
 20 15  2  0
 21 16  1  0
 22 17  1  0
 20 14  1  0
 22 23  1  0
 21 22  1  0
 23 19  1  0
 20 21  1  0
 23 18  2  0
 30 25  2  0
 31 26  1  0
 32 27  1  0
 30 24  1  0
 32 33  1  0
 31 32  1  0
 33 29  1  0
 30 31  1  0
 33 28  2  0
  1 35  1  0
  1 36  1  0
  2 37  1  0
  3 38  1  0
  5 39  1  0
  7 40  1  0
  8 41  1  1
 10 42  1  0
 10 43  1  0
 11 44  1  0
 11 45  1  0
 12 46  1  0
 12 47  1  0
 13 48  1  0
 13 49  1  0
 13 50  1  0
 14 51  1  0
 16 52  1  0
 17 53  1  0
 19 54  1  0
 21 55  1  6
 22 56  1  1
 24 57  1  0
 26 58  1  0
 27 59  1  0
 29 60  1  0
 31 61  1  6
 32 62  1  6
 34 63  1  0
 34 64  1  0
M  END
> <Uni-Dock RESULT> 
ENERGY=   -4.146  LOWER_BOUND=    6.652  UPPER_BOUND=    9.034
INTER + INTRA:          -4.146
INTER:                  -4.146
INTRA:                   0.000
UNBOUND:                 0.000

$$$$

     RDKit          3D

 64 61  0  0  0  0  0  0  0  0999 V2000
   49.1914    5.3047   19.1698 O   0  0  0  0  0  0  0  0  0  0  0  0
   48.3921    8.0643   21.0712 C   0  0  0  0  0  0  0  0  0  0  0  0
   47.7259    7.2783   21.9958 C   0  0  0  0  0  0  0  0  0  0  0  0
   47.4638    5.9678   21.8147 N   0  0  0  0  0  0  0  0  0  0  0  0
   47.8938    5.4172   20.6540 C   0  0  0  0  0  0  0  0  0  0  0  0
   48.5741    6.1131   19.6570 C   0  0  0  0  0  0  0  0  0  0  0  0
   48.8181    7.4717   19.8854 C   0  0  0  0  0  0  0  0  0  0  0  0
   48.9986    5.4539   18.3688 C   0  0  1  0  0  0  0  0  0  0  0  0
   49.5449    4.0960   18.5509 N   0  0  0  0  0  0  0  0  0  0  0  0
   49.3252    3.4029   17.2819 C   0  0  0  0  0  0  0  0  0  0  0  0
   47.9058    3.8121   16.9426 C   0  0  0  0  0  0  0  0  0  0  0  0
   47.8173    5.2617   17.4028 C   0  0  0  0  0  0  0  0  0  0  0  0
   50.9495    4.0952   18.9403 C   0  0  0  0  0  0  0  0  0  0  0  0
   47.4508    7.0017   19.6796 O   0  0  0  0  0  0  0  0  0  0  0  0
   46.3051    5.2449   18.9111 O   0  0  0  0  0  0  0  0  0  0  0  0
   48.3438    3.4569   19.5796 O   0  0  0  0  0  0  0  0  0  0  0  0
   50.8830    4.6456   20.1023 O   0  0  0  0  0  0  0  0  0  0  0  0
   50.7414    4.4246   17.3354 O   0  0  0  0  0  0  0  0  0  0  0  0
   49.1459    5.9703   17.1986 O   0  0  0  0  0  0  0  0  0  0  0  0
   47.3218    5.6871   19.4268 C   0  0  0  0  0  0  0  0  0  0  0  0
   48.4883    4.8425   19.9228 C   0  0  2  0  0  0  0  0  0  0  0  0
   49.8364    5.3584   19.4223 C   0  0  2  0  0  0  0  0  0  0  0  0
   49.9703    5.1765   17.9123 C   0  0  0  0  0  0  0  0  0  0  0  0
   49.5899    6.7775   21.3211 O   0  0  0  0  0  0  0  0  0  0  0  0
   47.9908    5.2421   21.6182 O   0  0  0  0  0  0  0  0  0  0  0  0
   50.1081    6.1962   18.8348 O   0  0  0  0  0  0  0  0  0  0  0  0
   47.5683    6.0860   18.0441 O   0  0  0  0  0  0  0  0  0  0  0  0
   48.7325    2.6484   17.9952 O   0  0  0  0  0  0  0  0  0  0  0  0
   48.5057    4.2090   16.4154 O   0  0  0  0  0  0  0  0  0  0  0  0
   48.8528    5.7204   20.9013 C   0  0  0  0  0  0  0  0  0  0  0  0
   49.2957    5.2329   19.5255 C   0  0  1  0  0  0  0  0  0  0  0  0
   48.0653    4.9042   18.6784 C   0  0  2  0  0  0  0  0  0  0  0  0
   48.4530    3.8007   17.7007 C   0  0  0  0  0  0  0  0  0  0  0  0
   49.1987    5.2909   19.1538 O   0  0  0  0  0  0  0  0  0  0  0  0
   48.3639    5.6149   19.5672 H   0  0  0  0  0  0  0  0  0  0  0  0
   48.9031    4.6865   18.4816 H   0  0  0  0  0  0  0  0  0  0  0  0
   48.5736    9.1145   21.2687 H   0  0  0  0  0  0  0  0  0  0  0  0
   47.3735    7.6947   22.9347 H   0  0  0  0  0  0  0  0  0  0  0  0
   47.6679    4.3591   20.5426 H   0  0  0  0  0  0  0  0  0  0  0  0
   49.3380    8.0734   19.1446 H   0  0  0  0  0  0  0  0  0  0  0  0
   49.7449    6.0850   17.8647 H   0  0  0  0  0  0  0  0  0  0  0  0
   49.4179    2.3172   17.3831 H   0  0  0  0  0  0  0  0  0  0  0  0
   50.0160    3.7482   16.5021 H   0  0  0  0  0  0  0  0  0  0  0  0
   47.6818    3.7023   15.8773 H   0  0  0  0  0  0  0  0  0  0  0  0
   47.1887    3.2009   17.5046 H   0  0  0  0  0  0  0  0  0  0  0  0
   46.8361    5.4609   17.8483 H   0  0  0  0  0  0  0  0  0  0  0  0
   47.9306    5.9324   16.5424 H   0  0  0  0  0  0  0  0  0  0  0  0
   51.3074    3.0676   19.0673 H   0  0  0  0  0  0  0  0  0  0  0  0
   51.0868    4.5983   19.9033 H   0  0  0  0  0  0  0  0  0  0  0  0
   51.5881    4.5902   18.1999 H   0  0  0  0  0  0  0  0  0  0  0  0
   46.6346    7.4065   19.3138 H   0  0  0  0  0  0  0  0  0  0  0  0
   47.3868    3.2599   19.6158 H   0  0  0  0  0  0  0  0  0  0  0  0
   50.7949    3.7154   19.8105 H   0  0  0  0  0  0  0  0  0  0  0  0
   49.3603    5.7457   16.2669 H   0  0  0  0  0  0  0  0  0  0  0  0
   48.4640    4.8775   21.0184 H   0  0  0  0  0  0  0  0  0  0  0  0
   49.9845    6.4192   19.6501 H   0  0  0  0  0  0  0  0  0  0  0  0
   49.2111    6.9934   22.2014 H   0  0  0  0  0  0  0  0  0  0  0  0
   50.5021    6.7550   19.5365 H   0  0  0  0  0  0  0  0  0  0  0  0
   48.3164    6.4089   17.5007 H   0  0  0  0  0  0  0  0  0  0  0  0
   48.7564    3.4074   15.9108 H   0  0  0  0  0  0  0  0  0  0  0  0
   49.9228    4.3525   19.7068 H   0  0  0  0  0  0  0  0  0  0  0  0
   47.2412    4.4978   19.2750 H   0  0  0  0  0  0  0  0  0  0  0  0
   48.4008    5.6321   19.5848 H   0  0  0  0  0  0  0  0  0  0  0  0
   48.8589    4.6830   18.4800 H   0  0  0  0  0  0  0  0  0  0  0  0
  7  2  2  0
  2  3  1  0
  8  6  1  0
  8  9  1  0
  4  5  1  0
  5  6  2  0
  3  4  2  0
  9 10  1  0
 10 11  1  0
 11 12  1  0
  8 12  1  0
  6  7  1  0
  9 13  1  0
 20 15  2  0
 21 16  1  0
 22 17  1  0
 20 14  1  0
 22 23  1  0
 21 22  1  0
 23 19  1  0
 20 21  1  0
 23 18  2  0
 30 25  2  0
 31 26  1  0
 32 27  1  0
 30 24  1  0
 32 33  1  0
 31 32  1  0
 33 29  1  0
 30 31  1  0
 33 28  2  0
  1 35  1  0
  1 36  1  0
  2 37  1  0
  3 38  1  0
  5 39  1  0
  7 40  1  0
  8 41  1  1
 10 42  1  0
 10 43  1  0
 11 44  1  0
 11 45  1  0
 12 46  1  0
 12 47  1  0
 13 48  1  0
 13 49  1  0
 13 50  1  0
 14 51  1  0
 16 52  1  0
 17 53  1  0
 19 54  1  0
 21 55  1  6
 22 56  1  1
 24 57  1  0
 26 58  1  0
 27 59  1  0
 29 60  1  0
 31 61  1  6
 32 62  1  6
 34 63  1  0
 34 64  1  0
M  END
> <Uni-Dock RESULT> 
ENERGY=   -4.077  LOWER_BOUND=    6.915  UPPER_BOUND=    8.723
INTER + INTRA:          -4.077
INTER:                  -4.077
INTRA:                   0.000
UNBOUND:                 0.000

$$$$
