
     RDKit          3D

 64 61  0  0  0  0  0  0  0  0999 V2000
   44.1147    4.5216   10.7508 O   0  0  0  0  0  0  0  0  0  0  0  0
   45.3557    2.8493    8.0387 C   0  0  0  0  0  0  0  0  0  0  0  0
   46.0305    3.9483    7.5379 C   0  0  0  0  0  0  0  0  0  0  0  0
   46.2658    5.0666    8.2515 N   0  0  0  0  0  0  0  0  0  0  0  0
   45.7954    5.0858    9.5214 C   0  0  0  0  0  0  0  0  0  0  0  0
   45.0941    4.0414   10.1269 C   0  0  0  0  0  0  0  0  0  0  0  0
   44.8899    2.8959    9.3517 C   0  0  0  0  0  0  0  0  0  0  0  0
   44.6554    4.1791   11.5652 C   0  0  1  0  0  0  0  0  0  0  0  0
   43.8406    5.3789   11.8850 N   0  0  0  0  0  0  0  0  0  0  0  0
   43.4160    5.1487   13.2766 C   0  0  0  0  0  0  0  0  0  0  0  0
   43.2163    3.6446   13.4270 C   0  0  0  0  0  0  0  0  0  0  0  0
   43.8687    3.0260   12.1963 C   0  0  0  0  0  0  0  0  0  0  0  0
   42.6687    5.5458   11.0180 C   0  0  0  0  0  0  0  0  0  0  0  0
   44.0052    2.2302    8.9121 O   0  0  0  0  0  0  0  0  0  0  0  0
   46.0263    2.3050    9.8597 O   0  0  0  0  0  0  0  0  0  0  0  0
   44.7673    2.8240   12.2694 O   0  0  0  0  0  0  0  0  0  0  0  0
   43.8313    5.2423    9.6255 O   0  0  0  0  0  0  0  0  0  0  0  0
   43.8814    5.5221   13.2201 O   0  0  0  0  0  0  0  0  0  0  0  0
   42.6123    6.3274   11.5754 O   0  0  0  0  0  0  0  0  0  0  0  0
   44.8357    2.5845    9.9043 C   0  0  0  0  0  0  0  0  0  0  0  0
   44.1577    3.2968   11.0591 C   0  0  2  0  0  0  0  0  0  0  0  0
   44.3363    4.8049   10.8959 C   0  0  2  0  0  0  0  0  0  0  0  0
   43.6191    5.5416   12.0322 C   0  0  0  0  0  0  0  0  0  0  0  0
   43.8293    3.5821    8.3517 O   0  0  0  0  0  0  0  0  0  0  0  0
   44.9244    5.2744    9.3213 O   0  0  0  0  0  0  0  0  0  0  0  0
   43.5280    2.1904   10.5369 O   0  0  0  0  0  0  0  0  0  0  0  0
   45.8571    4.3148   12.2951 O   0  0  0  0  0  0  0  0  0  0  0  0
   42.4949    5.1668   11.3566 O   0  0  0  0  0  0  0  0  0  0  0  0
   43.9682    6.0520   12.7872 O   0  0  0  0  0  0  0  0  0  0  0  0
   44.4725    4.1454    9.4049 C   0  0  0  0  0  0  0  0  0  0  0  0
   44.5704    3.1766   10.5858 C   0  0  1  0  0  0  0  0  0  0  0  0
   44.5337    3.8916   11.9377 C   0  0  2  0  0  0  0  0  0  0  0  0
   43.5537    5.0656   11.9521 C   0  0  0  0  0  0  0  0  0  0  0  0
   44.0994    4.5271   10.7749 O   0  0  0  0  0  0  0  0  0  0  0  0
   43.8772    4.1654   11.6201 H   0  0  0  0  0  0  0  0  0  0  0  0
   44.6900    3.8412   10.3696 H   0  0  0  0  0  0  0  0  0  0  0  0
   45.1996    1.9711    7.4230 H   0  0  0  0  0  0  0  0  0  0  0  0
   46.4120    3.9579    6.5213 H   0  0  0  0  0  0  0  0  0  0  0  0
   46.0026    6.0049   10.0667 H   0  0  0  0  0  0  0  0  0  0  0  0
   44.3746    2.0275    9.7499 H   0  0  0  0  0  0  0  0  0  0  0  0
   45.5911    4.2691   12.1393 H   0  0  0  0  0  0  0  0  0  0  0  0
   44.2230    5.4762   13.9443 H   0  0  0  0  0  0  0  0  0  0  0  0
   42.5257    5.7191   13.5651 H   0  0  0  0  0  0  0  0  0  0  0  0
   43.6822    3.2800   14.3489 H   0  0  0  0  0  0  0  0  0  0  0  0
   42.1524    3.3848   13.4616 H   0  0  0  0  0  0  0  0  0  0  0  0
   43.0849    2.6439   11.5306 H   0  0  0  0  0  0  0  0  0  0  0  0
   44.5157    2.1826   12.4614 H   0  0  0  0  0  0  0  0  0  0  0  0
   42.9634    5.7594    9.9852 H   0  0  0  0  0  0  0  0  0  0  0  0
   42.0012    4.6775   11.0118 H   0  0  0  0  0  0  0  0  0  0  0  0
   42.0847    6.4137   11.3459 H   0  0  0  0  0  0  0  0  0  0  0  0
   44.5789    1.7897    8.2543 H   0  0  0  0  0  0  0  0  0  0  0  0
   45.7314    2.7937   12.1146 H   0  0  0  0  0  0  0  0  0  0  0  0
   43.2123    5.9788    9.8093 H   0  0  0  0  0  0  0  0  0  0  0  0
   42.2557    6.7344   12.3946 H   0  0  0  0  0  0  0  0  0  0  0  0
   43.1015    3.0112   11.0884 H   0  0  0  0  0  0  0  0  0  0  0  0
   45.3893    5.1010   10.9484 H   0  0  0  0  0  0  0  0  0  0  0  0
   43.8154    4.2961    7.6765 H   0  0  0  0  0  0  0  0  0  0  0  0
   43.3526    2.0418    9.5859 H   0  0  0  0  0  0  0  0  0  0  0  0
   45.7350    5.0339   12.9480 H   0  0  0  0  0  0  0  0  0  0  0  0
   43.2803    6.7451   12.6861 H   0  0  0  0  0  0  0  0  0  0  0  0
   45.5183    2.6380   10.4672 H   0  0  0  0  0  0  0  0  0  0  0  0
   44.2029    3.2025   12.7233 H   0  0  0  0  0  0  0  0  0  0  0  0
   43.9018    4.1136   11.6292 H   0  0  0  0  0  0  0  0  0  0  0  0
   44.6807    3.8874   10.3363 H   0  0  0  0  0  0  0  0  0  0  0  0
  7  2  2  0
  2  3  1  0
  8  6  1  0
  8  9  1  0
  4  5  1  0
  5  6  2  0
  3  4  2  0
  9 10  1  0
 10 11  1  0
 11 12  1  0
  8 12  1  0
  6  7  1  0
  9 13  1  0
 20 15  2  0
 21 16  1  0
 22 17  1  0
 20 14  1  0
 22 23  1  0
 21 22  1  0
 23 19  1  0
 20 21  1  0
 23 18  2  0
 30 25  2  0
 31 26  1  0
 32 27  1  0
 30 24  1  0
 32 33  1  0
 31 32  1  0
 33 29  1  0
 30 31  1  0
 33 28  2  0
  1 35  1  0
  1 36  1  0
  2 37  1  0
  3 38  1  0
  5 39  1  0
  7 40  1  0
  8 41  1  1
 10 42  1  0
 10 43  1  0
 11 44  1  0
 11 45  1  0
 12 46  1  0
 12 47  1  0
 13 48  1  0
 13 49  1  0
 13 50  1  0
 14 51  1  0
 16 52  1  0
 17 53  1  0
 19 54  1  0
 21 55  1  6
 22 56  1  1
 24 57  1  0
 26 58  1  0
 27 59  1  0
 29 60  1  0
 31 61  1  1
 32 62  1  6
 34 63  1  0
 34 64  1  0
M  END
> <Uni-Dock RESULT> 
ENERGY=   -6.792  LOWER_BOUND=    0.000  UPPER_BOUND=    0.000
INTER + INTRA:          -6.792
INTER:                  -6.792
INTRA:                   0.000
UNBOUND:                 0.000

$$$$

     RDKit          3D

 64 61  0  0  0  0  0  0  0  0999 V2000
   45.0208    5.6556   11.5975 O   0  0  0  0  0  0  0  0  0  0  0  0
   47.4690    7.7229   12.7910 C   0  0  0  0  0  0  0  0  0  0  0  0
   46.8470    8.8812   12.3604 C   0  0  0  0  0  0  0  0  0  0  0  0
   45.5592    8.9333   11.9679 N   0  0  0  0  0  0  0  0  0  0  0  0
   44.8675    7.7694   12.0011 C   0  0  0  0  0  0  0  0  0  0  0  0
   45.3937    6.5415   12.4069 C   0  0  0  0  0  0  0  0  0  0  0  0
   46.7290    6.5419   12.8212 C   0  0  0  0  0  0  0  0  0  0  0  0
   44.5010    5.3238   12.4298 C   0  0  1  0  0  0  0  0  0  0  0  0
   43.8056    5.0027   11.1573 N   0  0  0  0  0  0  0  0  0  0  0  0
   43.1774    3.6977   11.4254 C   0  0  0  0  0  0  0  0  0  0  0  0
   44.1238    2.9416   12.3515 C   0  0  0  0  0  0  0  0  0  0  0  0
   45.1115    3.9858   12.8586 C   0  0  0  0  0  0  0  0  0  0  0  0
   44.7037    4.9056   10.0011 C   0  0  0  0  0  0  0  0  0  0  0  0
   47.7761    6.0449   12.5461 O   0  0  0  0  0  0  0  0  0  0  0  0
   46.3589    6.7141   14.1372 O   0  0  0  0  0  0  0  0  0  0  0  0
   44.8669    4.4397   13.6253 O   0  0  0  0  0  0  0  0  0  0  0  0
   45.4100    6.4968   10.5941 O   0  0  0  0  0  0  0  0  0  0  0  0
   42.8042    4.1643   11.4717 O   0  0  0  0  0  0  0  0  0  0  0  0
   43.8445    4.7607    9.5940 O   0  0  0  0  0  0  0  0  0  0  0  0
   46.5805    6.0199   13.1541 C   0  0  0  0  0  0  0  0  0  0  0  0
   45.5923    5.0442   12.5444 C   0  0  2  0  0  0  0  0  0  0  0  0
   44.6594    5.7968   11.5976 C   0  0  2  0  0  0  0  0  0  0  0  0
   43.6821    4.8171   10.9394 C   0  0  0  0  0  0  0  0  0  0  0  0
   47.3392    6.7884   11.3506 O   0  0  0  0  0  0  0  0  0  0  0  0
   45.1957    7.4154   11.2258 O   0  0  0  0  0  0  0  0  0  0  0  0
   46.8876    4.6128   12.7165 O   0  0  0  0  0  0  0  0  0  0  0  0
   43.4878    5.6395   13.3620 O   0  0  0  0  0  0  0  0  0  0  0  0
   44.7857    4.4302   10.2372 O   0  0  0  0  0  0  0  0  0  0  0  0
   42.7191    4.7014   11.0475 O   0  0  0  0  0  0  0  0  0  0  0  0
   46.0354    6.6749   11.7079 C   0  0  0  0  0  0  0  0  0  0  0  0
   45.8370    5.5903   12.7694 C   0  0  1  0  0  0  0  0  0  0  0  0
   44.4820    4.8905   12.6490 C   0  0  2  0  0  0  0  0  0  0  0  0
   44.0679    4.6639   11.1943 C   0  0  0  0  0  0  0  0  0  0  0  0
   45.0065    5.6312   11.5903 O   0  0  0  0  0  0  0  0  0  0  0  0
   44.7558    4.7838   11.9275 H   0  0  0  0  0  0  0  0  0  0  0  0
   45.5077    6.0469   12.3383 H   0  0  0  0  0  0  0  0  0  0  0  0
   48.5069    7.7381   13.1029 H   0  0  0  0  0  0  0  0  0  0  0  0
   47.3827    9.8248   12.3202 H   0  0  0  0  0  0  0  0  0  0  0  0
   43.8316    7.8492   11.6761 H   0  0  0  0  0  0  0  0  0  0  0  0
   47.2123    5.6364   13.1743 H   0  0  0  0  0  0  0  0  0  0  0  0
   43.7183    5.5602   13.1679 H   0  0  0  0  0  0  0  0  0  0  0  0
   42.2249    3.8705   11.9424 H   0  0  0  0  0  0  0  0  0  0  0  0
   42.9381    3.1300   10.5189 H   0  0  0  0  0  0  0  0  0  0  0  0
   43.5736    2.4807   13.1789 H   0  0  0  0  0  0  0  0  0  0  0  0
   44.6556    2.1469   11.8164 H   0  0  0  0  0  0  0  0  0  0  0  0
   46.0895    3.8073   12.3948 H   0  0  0  0  0  0  0  0  0  0  0  0
   45.2453    3.9233   13.9442 H   0  0  0  0  0  0  0  0  0  0  0  0
   45.1496    5.8761    9.7594 H   0  0  0  0  0  0  0  0  0  0  0  0
   45.5130    4.1798   10.1348 H   0  0  0  0  0  0  0  0  0  0  0  0
   44.1340    4.6107    9.1121 H   0  0  0  0  0  0  0  0  0  0  0  0
   48.2934    6.7085   13.0439 H   0  0  0  0  0  0  0  0  0  0  0  0
   44.6399    5.1516   14.2546 H   0  0  0  0  0  0  0  0  0  0  0  0
   45.0348    6.2324    9.7290 H   0  0  0  0  0  0  0  0  0  0  0  0
   43.1620    4.1136    9.3123 H   0  0  0  0  0  0  0  0  0  0  0  0
   46.1415    4.2490   12.0304 H   0  0  0  0  0  0  0  0  0  0  0  0
   44.0499    6.5374   12.1257 H   0  0  0  0  0  0  0  0  0  0  0  0
   47.3337    7.4914   10.6638 H   0  0  0  0  0  0  0  0  0  0  0  0
   47.6842    5.1003   12.4249 H   0  0  0  0  0  0  0  0  0  0  0  0
   42.6291    5.3654   12.9801 H   0  0  0  0  0  0  0  0  0  0  0  0
   42.5876    4.5728   10.0832 H   0  0  0  0  0  0  0  0  0  0  0  0
   45.9210    6.0894   13.7422 H   0  0  0  0  0  0  0  0  0  0  0  0
   44.5229    3.9002   13.1171 H   0  0  0  0  0  0  0  0  0  0  0  0
   44.7743    4.7753   11.9818 H   0  0  0  0  0  0  0  0  0  0  0  0
   45.5034    6.0799   12.2912 H   0  0  0  0  0  0  0  0  0  0  0  0
  7  2  2  0
  2  3  1  0
  8  6  1  0
  8  9  1  0
  4  5  1  0
  5  6  2  0
  3  4  2  0
  9 10  1  0
 10 11  1  0
 11 12  1  0
  8 12  1  0
  6  7  1  0
  9 13  1  0
 20 15  2  0
 21 16  1  0
 22 17  1  0
 20 14  1  0
 22 23  1  0
 21 22  1  0
 23 19  1  0
 20 21  1  0
 23 18  2  0
 30 25  2  0
 31 26  1  0
 32 27  1  0
 30 24  1  0
 32 33  1  0
 31 32  1  0
 33 29  1  0
 30 31  1  0
 33 28  2  0
  1 35  1  0
  1 36  1  0
  2 37  1  0
  3 38  1  0
  5 39  1  0
  7 40  1  0
  8 41  1  1
 10 42  1  0
 10 43  1  0
 11 44  1  0
 11 45  1  0
 12 46  1  0
 12 47  1  0
 13 48  1  0
 13 49  1  0
 13 50  1  0
 14 51  1  0
 16 52  1  0
 17 53  1  0
 19 54  1  0
 21 55  1  6
 22 56  1  1
 24 57  1  0
 26 58  1  0
 27 59  1  0
 29 60  1  0
 31 61  1  1
 32 62  1  6
 34 63  1  0
 34 64  1  0
M  END
> <Uni-Dock RESULT> 
ENERGY=   -6.372  LOWER_BOUND=    2.147  UPPER_BOUND=    3.676
INTER + INTRA:          -6.372
INTER:                  -6.372
INTRA:                   0.000
UNBOUND:                 0.000

$$$$

     RDKit          3D

 64 61  0  0  0  0  0  0  0  0999 V2000
   46.0869    5.6101   12.8421 O   0  0  0  0  0  0  0  0  0  0  0  0
   43.4931    5.3901   10.6249 C   0  0  0  0  0  0  0  0  0  0  0  0
   42.5458    5.1261   11.5980 C   0  0  0  0  0  0  0  0  0  0  0  0
   42.7586    5.3139   12.9151 N   0  0  0  0  0  0  0  0  0  0  0  0
   43.9794    5.7792   13.2718 C   0  0  0  0  0  0  0  0  0  0  0  0
   45.0129    6.0701   12.3793 C   0  0  0  0  0  0  0  0  0  0  0  0
   44.7380    5.8753   11.0224 C   0  0  0  0  0  0  0  0  0  0  0  0
   46.3168    6.6180   12.9084 C   0  0  1  0  0  0  0  0  0  0  0  0
   46.9821    5.8104   13.9624 N   0  0  0  0  0  0  0  0  0  0  0  0
   48.2837    6.4768   14.1398 C   0  0  0  0  0  0  0  0  0  0  0  0
   48.6955    6.9986   12.7675 C   0  0  0  0  0  0  0  0  0  0  0  0
   47.4403    6.9072   11.9079 C   0  0  0  0  0  0  0  0  0  0  0  0
   47.1783    4.4038   13.5937 C   0  0  0  0  0  0  0  0  0  0  0  0
   45.1243    5.2449   10.0883 O   0  0  0  0  0  0  0  0  0  0  0  0
   44.3613    7.1922   10.8721 O   0  0  0  0  0  0  0  0  0  0  0  0
   46.8823    7.6434   11.9217 O   0  0  0  0  0  0  0  0  0  0  0  0
   45.4161    4.4420   13.0687 O   0  0  0  0  0  0  0  0  0  0  0  0
   47.8758    6.6197   14.5549 O   0  0  0  0  0  0  0  0  0  0  0  0
   47.5235    4.4207   14.4912 O   0  0  0  0  0  0  0  0  0  0  0  0
   45.1987    6.3007   10.9126 C   0  0  0  0  0  0  0  0  0  0  0  0
   46.4082    6.2920   11.8277 C   0  0  2  0  0  0  0  0  0  0  0  0
   46.0019    5.7463   13.1952 C   0  0  2  0  0  0  0  0  0  0  0  0
   47.2233    5.6899   14.1189 C   0  0  0  0  0  0  0  0  0  0  0  0
   44.7053    4.2668   11.1083 O   0  0  0  0  0  0  0  0  0  0  0  0
   44.4303    4.9875   13.2079 O   0  0  0  0  0  0  0  0  0  0  0  0
   46.6059    5.9497   10.5097 O   0  0  0  0  0  0  0  0  0  0  0  0
   45.9700    7.8457   13.5148 O   0  0  0  0  0  0  0  0  0  0  0  0
   47.5801    4.6389   13.3259 O   0  0  0  0  0  0  0  0  0  0  0  0
   47.4522    6.2095   14.9127 O   0  0  0  0  0  0  0  0  0  0  0  0
   44.9311    5.1543   12.1091 C   0  0  0  0  0  0  0  0  0  0  0  0
   45.7988    6.3234   11.6370 C   0  0  1  0  0  0  0  0  0  0  0  0
   46.6957    6.8756   12.7464 C   0  0  2  0  0  0  0  0  0  0  0  0
   47.2655    5.7737   13.6409 C   0  0  0  0  0  0  0  0  0  0  0  0
   46.1140    5.6127   12.8524 O   0  0  0  0  0  0  0  0  0  0  0  0
   46.9039    6.1251   12.7629 H   0  0  0  0  0  0  0  0  0  0  0  0
   45.4896    6.0205   12.1987 H   0  0  0  0  0  0  0  0  0  0  0  0
   43.2669    5.2278    9.5775 H   0  0  0  0  0  0  0  0  0  0  0  0
   41.5622    4.7476   11.3364 H   0  0  0  0  0  0  0  0  0  0  0  0
   44.1157    5.9172   14.3429 H   0  0  0  0  0  0  0  0  0  0  0  0
   45.4757    6.0977   10.2578 H   0  0  0  0  0  0  0  0  0  0  0  0
   46.0526    7.5834   13.3681 H   0  0  0  0  0  0  0  0  0  0  0  0
   48.1496    7.3236   14.8248 H   0  0  0  0  0  0  0  0  0  0  0  0
   49.0494    5.8342   14.5892 H   0  0  0  0  0  0  0  0  0  0  0  0
   49.0560    8.0308   12.8353 H   0  0  0  0  0  0  0  0  0  0  0  0
   49.4964    6.3900   12.3329 H   0  0  0  0  0  0  0  0  0  0  0  0
   47.5656    6.0980   11.1779 H   0  0  0  0  0  0  0  0  0  0  0  0
   47.2647    7.8321   11.3475 H   0  0  0  0  0  0  0  0  0  0  0  0
   46.2219    3.8792   13.4975 H   0  0  0  0  0  0  0  0  0  0  0  0
   47.7388    4.2691   12.6625 H   0  0  0  0  0  0  0  0  0  0  0  0
   47.7236    3.8838   14.3900 H   0  0  0  0  0  0  0  0  0  0  0  0
   44.3074    5.3912    9.5716 H   0  0  0  0  0  0  0  0  0  0  0  0
   46.0992    8.2175   12.0291 H   0  0  0  0  0  0  0  0  0  0  0  0
   45.8991    3.8572   13.6882 H   0  0  0  0  0  0  0  0  0  0  0  0
   48.3049    4.5365   15.0741 H   0  0  0  0  0  0  0  0  0  0  0  0
   47.2027    5.6949   11.3692 H   0  0  0  0  0  0  0  0  0  0  0  0
   45.2660    6.3883   13.6906 H   0  0  0  0  0  0  0  0  0  0  0  0
   44.1619    3.5670   11.5338 H   0  0  0  0  0  0  0  0  0  0  0  0
   46.0773    5.2906   10.0163 H   0  0  0  0  0  0  0  0  0  0  0  0
   46.4354    7.9007   14.3743 H   0  0  0  0  0  0  0  0  0  0  0  0
   47.7884    5.4157   15.3823 H   0  0  0  0  0  0  0  0  0  0  0  0
   45.1085    7.0997   11.2857 H   0  0  0  0  0  0  0  0  0  0  0  0
   47.5562    7.3992   12.3141 H   0  0  0  0  0  0  0  0  0  0  0  0
   46.8987    6.1671   12.7231 H   0  0  0  0  0  0  0  0  0  0  0  0
   45.4676    5.9760   12.2281 H   0  0  0  0  0  0  0  0  0  0  0  0
  7  2  2  0
  2  3  1  0
  8  6  1  0
  8  9  1  0
  4  5  1  0
  5  6  2  0
  3  4  2  0
  9 10  1  0
 10 11  1  0
 11 12  1  0
  8 12  1  0
  6  7  1  0
  9 13  1  0
 20 15  2  0
 21 16  1  0
 22 17  1  0
 20 14  1  0
 22 23  1  0
 21 22  1  0
 23 19  1  0
 20 21  1  0
 23 18  2  0
 30 25  2  0
 31 26  1  0
 32 27  1  0
 30 24  1  0
 32 33  1  0
 31 32  1  0
 33 29  1  0
 30 31  1  0
 33 28  2  0
  1 35  1  0
  1 36  1  0
  2 37  1  0
  3 38  1  0
  5 39  1  0
  7 40  1  0
  8 41  1  1
 10 42  1  0
 10 43  1  0
 11 44  1  0
 11 45  1  0
 12 46  1  0
 12 47  1  0
 13 48  1  0
 13 49  1  0
 13 50  1  0
 14 51  1  0
 16 52  1  0
 17 53  1  0
 19 54  1  0
 21 55  1  6
 22 56  1  1
 24 57  1  0
 26 58  1  0
 27 59  1  0
 29 60  1  0
 31 61  1  1
 32 62  1  6
 34 63  1  0
 34 64  1  0
M  END
> <Uni-Dock RESULT> 
ENERGY=   -5.698  LOWER_BOUND=    2.654  UPPER_BOUND=    4.344
INTER + INTRA:          -5.698
INTER:                  -5.698
INTRA:                   0.000
UNBOUND:                 0.000

$$$$

     RDKit          3D

 64 61  0  0  0  0  0  0  0  0999 V2000
   45.8056    7.0287   12.5110 O   0  0  0  0  0  0  0  0  0  0  0  0
   43.9527    4.1549   12.4924 C   0  0  0  0  0  0  0  0  0  0  0  0
   43.2391    4.4979   11.3580 C   0  0  0  0  0  0  0  0  0  0  0  0
   43.5976    5.4948   10.5255 N   0  0  0  0  0  0  0  0  0  0  0  0
   44.7175    6.1833   10.8509 C   0  0  0  0  0  0  0  0  0  0  0  0
   45.5089    5.9323   11.9734 C   0  0  0  0  0  0  0  0  0  0  0  0
   45.1054    4.8772   12.7972 C   0  0  0  0  0  0  0  0  0  0  0  0
   46.7550    6.7544   12.2005 C   0  0  1  0  0  0  0  0  0  0  0  0
   46.5669    8.2274   12.2278 N   0  0  0  0  0  0  0  0  0  0  0  0
   47.8850    8.7375   12.6427 C   0  0  0  0  0  0  0  0  0  0  0  0
   48.4631    7.7114   13.6111 C   0  0  0  0  0  0  0  0  0  0  0  0
   47.5917    6.4711   13.4521 C   0  0  0  0  0  0  0  0  0  0  0  0
   45.5315    8.6738   13.1668 C   0  0  0  0  0  0  0  0  0  0  0  0
   44.7708    4.6654   13.9207 O   0  0  0  0  0  0  0  0  0  0  0  0
   45.9294    3.9950   12.1329 O   0  0  0  0  0  0  0  0  0  0  0  0
   47.8524    5.8706   12.8001 O   0  0  0  0  0  0  0  0  0  0  0  0
   44.4841    7.3613   12.4166 O   0  0  0  0  0  0  0  0  0  0  0  0
   47.7833    8.7699   12.0529 O   0  0  0  0  0  0  0  0  0  0  0  0
   45.8055    9.5050   12.7681 O   0  0  0  0  0  0  0  0  0  0  0  0
   45.7134    4.8477   12.9837 C   0  0  0  0  0  0  0  0  0  0  0  0
   46.4807    6.1491   13.1175 C   0  0  2  0  0  0  0  0  0  0  0  0
   45.8863    7.1851   12.1654 C   0  0  2  0  0  0  0  0  0  0  0  0
   46.6230    8.5198   12.3200 C   0  0  0  0  0  0  0  0  0  0  0  0
   43.8003    5.6285   13.3701 O   0  0  0  0  0  0  0  0  0  0  0  0
   44.3456    6.7160   11.4930 O   0  0  0  0  0  0  0  0  0  0  0  0
   46.2416    5.4312   14.2667 O   0  0  0  0  0  0  0  0  0  0  0  0
   47.5721    6.4837   11.0806 O   0  0  0  0  0  0  0  0  0  0  0  0
   45.9421    8.5810   13.5004 O   0  0  0  0  0  0  0  0  0  0  0  0
   47.2250    8.9944   11.7160 O   0  0  0  0  0  0  0  0  0  0  0  0
   44.7086    6.0927   12.4757 C   0  0  0  0  0  0  0  0  0  0  0  0
   46.1325    5.6806   12.8569 C   0  0  1  0  0  0  0  0  0  0  0  0
   47.1765    6.7178   12.4396 C   0  0  2  0  0  0  0  0  0  0  0  0
   46.6856    8.1531   12.6344 C   0  0  0  0  0  0  0  0  0  0  0  0
   45.8244    7.0491   12.5198 O   0  0  0  0  0  0  0  0  0  0  0  0
   46.6988    7.1663   12.8608 H   0  0  0  0  0  0  0  0  0  0  0  0
   45.7408    6.0671   12.4098 H   0  0  0  0  0  0  0  0  0  0  0  0
   43.6234    3.3385   13.1246 H   0  0  0  0  0  0  0  0  0  0  0  0
   42.3355    3.9638   11.0799 H   0  0  0  0  0  0  0  0  0  0  0  0
   44.9755    6.9815   10.1571 H   0  0  0  0  0  0  0  0  0  0  0  0
   45.6742    4.5977   13.6784 H   0  0  0  0  0  0  0  0  0  0  0  0
   47.4015    6.5333   11.3367 H   0  0  0  0  0  0  0  0  0  0  0  0
   48.5275    8.8013   11.7553 H   0  0  0  0  0  0  0  0  0  0  0  0
   47.8514    9.7450   13.0728 H   0  0  0  0  0  0  0  0  0  0  0  0
   49.5096    7.4949   13.3703 H   0  0  0  0  0  0  0  0  0  0  0  0
   48.4229    8.0716   14.6451 H   0  0  0  0  0  0  0  0  0  0  0  0
   46.9714    6.3531   14.3492 H   0  0  0  0  0  0  0  0  0  0  0  0
   48.1952    5.5627   13.3471 H   0  0  0  0  0  0  0  0  0  0  0  0
   44.5371    8.3393   12.8531 H   0  0  0  0  0  0  0  0  0  0  0  0
   45.6983    8.3367   14.1954 H   0  0  0  0  0  0  0  0  0  0  0  0
   45.4870    9.7691   13.1773 H   0  0  0  0  0  0  0  0  0  0  0  0
   44.3715    3.7995   13.7052 H   0  0  0  0  0  0  0  0  0  0  0  0
   47.8551    5.2940   12.0116 H   0  0  0  0  0  0  0  0  0  0  0  0
   44.3397    8.3228   12.5340 H   0  0  0  0  0  0  0  0  0  0  0  0
   46.3982   10.2865   12.8111 H   0  0  0  0  0  0  0  0  0  0  0  0
   46.4445    6.4833   14.1591 H   0  0  0  0  0  0  0  0  0  0  0  0
   45.9956    6.8885   11.1169 H   0  0  0  0  0  0  0  0  0  0  0  0
   42.9427    5.9679   13.0307 H   0  0  0  0  0  0  0  0  0  0  0  0
   45.3684    5.0841   14.5395 H   0  0  0  0  0  0  0  0  0  0  0  0
   47.9456    7.3322   10.7664 H   0  0  0  0  0  0  0  0  0  0  0  0
   46.8164    9.8614   11.9283 H   0  0  0  0  0  0  0  0  0  0  0  0
   46.3242    4.7255   12.3531 H   0  0  0  0  0  0  0  0  0  0  0  0
   48.0806    6.6142   13.0507 H   0  0  0  0  0  0  0  0  0  0  0  0
   46.7269    7.1159   12.8675 H   0  0  0  0  0  0  0  0  0  0  0  0
   45.6938    6.0969   12.3943 H   0  0  0  0  0  0  0  0  0  0  0  0
  7  2  2  0
  2  3  1  0
  8  6  1  0
  8  9  1  0
  4  5  1  0
  5  6  2  0
  3  4  2  0
  9 10  1  0
 10 11  1  0
 11 12  1  0
  8 12  1  0
  6  7  1  0
  9 13  1  0
 20 15  2  0
 21 16  1  0
 22 17  1  0
 20 14  1  0
 22 23  1  0
 21 22  1  0
 23 19  1  0
 20 21  1  0
 23 18  2  0
 30 25  2  0
 31 26  1  0
 32 27  1  0
 30 24  1  0
 32 33  1  0
 31 32  1  0
 33 29  1  0
 30 31  1  0
 33 28  2  0
  1 35  1  0
  1 36  1  0
  2 37  1  0
  3 38  1  0
  5 39  1  0
  7 40  1  0
  8 41  1  1
 10 42  1  0
 10 43  1  0
 11 44  1  0
 11 45  1  0
 12 46  1  0
 12 47  1  0
 13 48  1  0
 13 49  1  0
 13 50  1  0
 14 51  1  0
 16 52  1  0
 17 53  1  0
 19 54  1  0
 21 55  1  6
 22 56  1  1
 24 57  1  0
 26 58  1  0
 27 59  1  0
 29 60  1  0
 31 61  1  1
 32 62  1  6
 34 63  1  0
 34 64  1  0
M  END
> <Uni-Dock RESULT> 
ENERGY=   -5.450  LOWER_BOUND=    3.019  UPPER_BOUND=    4.318
INTER + INTRA:          -5.450
INTER:                  -5.450
INTRA:                   0.000
UNBOUND:                 0.000

$$$$

     RDKit          3D

 64 61  0  0  0  0  0  0  0  0999 V2000
   46.9598    6.3349   13.1564 O   0  0  0  0  0  0  0  0  0  0  0  0
   48.6544    9.3041   13.2237 C   0  0  0  0  0  0  0  0  0  0  0  0
   49.8795    8.7320   12.9306 C   0  0  0  0  0  0  0  0  0  0  0  0
   50.0222    7.4779   12.4596 N   0  0  0  0  0  0  0  0  0  0  0  0
   48.8854    6.7633   12.2828 C   0  0  0  0  0  0  0  0  0  0  0  0
   47.5990    7.2335   12.5538 C   0  0  0  0  0  0  0  0  0  0  0  0
   47.5014    8.5463   13.0245 C   0  0  0  0  0  0  0  0  0  0  0  0
   46.4111    6.3430   12.2778 C   0  0  1  0  0  0  0  0  0  0  0  0
   46.4372    5.0050   12.9221 N   0  0  0  0  0  0  0  0  0  0  0  0
   45.1018    4.4549   12.6326 C   0  0  0  0  0  0  0  0  0  0  0  0
   44.1341    5.6332   12.6449 C   0  0  0  0  0  0  0  0  0  0  0  0
   45.0133    6.8775   12.6054 C   0  0  0  0  0  0  0  0  0  0  0  0
   46.6638    5.0510   14.3710 C   0  0  0  0  0  0  0  0  0  0  0  0
   47.1074    9.1566   13.9686 O   0  0  0  0  0  0  0  0  0  0  0  0
   47.3094    9.0286   11.7480 O   0  0  0  0  0  0  0  0  0  0  0  0
   45.2417    7.1888   11.7660 O   0  0  0  0  0  0  0  0  0  0  0  0
   48.0439    6.2010   13.9766 O   0  0  0  0  0  0  0  0  0  0  0  0
   45.5350    4.2516   12.2717 O   0  0  0  0  0  0  0  0  0  0  0  0
   46.6251    4.1038   14.2091 O   0  0  0  0  0  0  0  0  0  0  0  0
   46.9077    8.5384   12.7949 C   0  0  0  0  0  0  0  0  0  0  0  0
   46.1220    7.2451   12.8982 C   0  0  2  0  0  0  0  0  0  0  0  0
   47.0921    6.0654   12.9107 C   0  0  2  0  0  0  0  0  0  0  0  0
   46.3158    4.7526   13.0589 C   0  0  0  0  0  0  0  0  0  0  0  0
   48.1407    8.2324   14.4697 O   0  0  0  0  0  0  0  0  0  0  0  0
   48.7564    6.5297   13.1563 O   0  0  0  0  0  0  0  0  0  0  0  0
   45.6733    8.3215   13.6286 O   0  0  0  0  0  0  0  0  0  0  0  0
   46.4541    6.1091   10.8855 O   0  0  0  0  0  0  0  0  0  0  0  0
   46.1433    5.1803   14.3426 O   0  0  0  0  0  0  0  0  0  0  0  0
   46.1655    4.0214   12.4302 O   0  0  0  0  0  0  0  0  0  0  0  0
   47.9221    7.3699   13.4456 C   0  0  0  0  0  0  0  0  0  0  0  0
   46.5899    7.6540   12.7476 C   0  0  1  0  0  0  0  0  0  0  0  0
   45.9346    6.3877   12.1934 C   0  0  2  0  0  0  0  0  0  0  0  0
   46.1036    5.1861   13.1243 C   0  0  0  0  0  0  0  0  0  0  0  0
   46.9381    6.3157   13.1589 O   0  0  0  0  0  0  0  0  0  0  0  0
   46.0288    6.1785   12.9378 H   0  0  0  0  0  0  0  0  0  0  0  0
   47.1423    7.2110   12.7845 H   0  0  0  0  0  0  0  0  0  0  0  0
   48.5957   10.3210   13.5941 H   0  0  0  0  0  0  0  0  0  0  0  0
   50.8045    9.2835   13.0693 H   0  0  0  0  0  0  0  0  0  0  0  0
   49.0393    5.7550   11.9027 H   0  0  0  0  0  0  0  0  0  0  0  0
   46.5392    9.0006   13.2390 H   0  0  0  0  0  0  0  0  0  0  0  0
   46.4323    6.1715   11.1900 H   0  0  0  0  0  0  0  0  0  0  0  0
   45.1196    4.0103   11.6294 H   0  0  0  0  0  0  0  0  0  0  0  0
   44.7966    3.6566   13.3188 H   0  0  0  0  0  0  0  0  0  0  0  0
   43.4621    5.5943   11.7808 H   0  0  0  0  0  0  0  0  0  0  0  0
   43.5181    5.6342   13.5511 H   0  0  0  0  0  0  0  0  0  0  0  0
   44.9760    7.3723   13.5838 H   0  0  0  0  0  0  0  0  0  0  0  0
   44.6624    7.5980   11.8583 H   0  0  0  0  0  0  0  0  0  0  0  0
   47.6680    5.4188   14.6065 H   0  0  0  0  0  0  0  0  0  0  0  0
   45.9371    5.6694   14.9087 H   0  0  0  0  0  0  0  0  0  0  0  0
   46.6132    4.0381   14.7872 H   0  0  0  0  0  0  0  0  0  0  0  0
   47.6178    9.9591   13.7422 H   0  0  0  0  0  0  0  0  0  0  0  0
   45.7557    7.4745   10.9859 H   0  0  0  0  0  0  0  0  0  0  0  0
   48.0182    5.3629   14.4827 H   0  0  0  0  0  0  0  0  0  0  0  0
   46.0708    3.2946   14.1666 H   0  0  0  0  0  0  0  0  0  0  0  0
   45.5001    7.2723   13.7985 H   0  0  0  0  0  0  0  0  0  0  0  0
   47.6572    5.9895   11.9758 H   0  0  0  0  0  0  0  0  0  0  0  0
   49.0024    7.9410   14.8416 H   0  0  0  0  0  0  0  0  0  0  0  0
   46.2293    8.8700   14.2181 H   0  0  0  0  0  0  0  0  0  0  0  0
   46.2841    5.1571   10.7332 H   0  0  0  0  0  0  0  0  0  0  0  0
   46.2998    3.3434   13.1273 H   0  0  0  0  0  0  0  0  0  0  0  0
   46.8097    8.3548   11.9333 H   0  0  0  0  0  0  0  0  0  0  0  0
   44.8553    6.5386   12.0755 H   0  0  0  0  0  0  0  0  0  0  0  0
   46.0061    6.2233   12.9087 H   0  0  0  0  0  0  0  0  0  0  0  0
   47.1867    7.1855   12.8111 H   0  0  0  0  0  0  0  0  0  0  0  0
  7  2  2  0
  2  3  1  0
  8  6  1  0
  8  9  1  0
  4  5  1  0
  5  6  2  0
  3  4  2  0
  9 10  1  0
 10 11  1  0
 11 12  1  0
  8 12  1  0
  6  7  1  0
  9 13  1  0
 20 15  2  0
 21 16  1  0
 22 17  1  0
 20 14  1  0
 22 23  1  0
 21 22  1  0
 23 19  1  0
 20 21  1  0
 23 18  2  0
 30 25  2  0
 31 26  1  0
 32 27  1  0
 30 24  1  0
 32 33  1  0
 31 32  1  0
 33 29  1  0
 30 31  1  0
 33 28  2  0
  1 35  1  0
  1 36  1  0
  2 37  1  0
  3 38  1  0
  5 39  1  0
  7 40  1  0
  8 41  1  1
 10 42  1  0
 10 43  1  0
 11 44  1  0
 11 45  1  0
 12 46  1  0
 12 47  1  0
 13 48  1  0
 13 49  1  0
 13 50  1  0
 14 51  1  0
 16 52  1  0
 17 53  1  0
 19 54  1  0
 21 55  1  6
 22 56  1  1
 24 57  1  0
 26 58  1  0
 27 59  1  0
 29 60  1  0
 31 61  1  1
 32 62  1  6
 34 63  1  0
 34 64  1  0
M  END
> <Uni-Dock RESULT> 
ENERGY=   -5.426  LOWER_BOUND=    3.609  UPPER_BOUND=    5.367
INTER + INTRA:          -5.426
INTER:                  -5.426
INTRA:                   0.000
UNBOUND:                 0.000

$$$$

     RDKit          3D

 64 61  0  0  0  0  0  0  0  0999 V2000
   48.1070    4.8445   17.6698 O   0  0  0  0  0  0  0  0  0  0  0  0
   48.9558    5.2334   20.9592 C   0  0  0  0  0  0  0  0  0  0  0  0
   47.9660    6.1661   21.2131 C   0  0  0  0  0  0  0  0  0  0  0  0
   46.9267    6.3930   20.3863 N   0  0  0  0  0  0  0  0  0  0  0  0
   46.8836    5.6571   19.2502 C   0  0  0  0  0  0  0  0  0  0  0  0
   47.8301    4.6973   18.8867 C   0  0  0  0  0  0  0  0  0  0  0  0
   48.8803    4.4859   19.7851 C   0  0  0  0  0  0  0  0  0  0  0  0
   47.6433    3.9205   17.6053 C   0  0  1  0  0  0  0  0  0  0  0  0
   47.4754    4.7305   16.3718 N   0  0  0  0  0  0  0  0  0  0  0  0
   47.5034    3.7284   15.2926 C   0  0  0  0  0  0  0  0  0  0  0  0
   48.4724    2.6381   15.7368 C   0  0  0  0  0  0  0  0  0  0  0  0
   48.7092    2.8893   17.2213 C   0  0  0  0  0  0  0  0  0  0  0  0
   48.5352    5.7248   16.1687 C   0  0  0  0  0  0  0  0  0  0  0  0
   50.0689    4.5441   19.8386 O   0  0  0  0  0  0  0  0  0  0  0  0
   48.2009    3.4525   20.3928 O   0  0  0  0  0  0  0  0  0  0  0  0
   48.1204    2.4789   17.8032 O   0  0  0  0  0  0  0  0  0  0  0  0
   48.2533    6.1778   17.9288 O   0  0  0  0  0  0  0  0  0  0  0  0
   46.9530    3.9098   15.4455 O   0  0  0  0  0  0  0  0  0  0  0  0
   47.9584    5.8978   15.4188 O   0  0  0  0  0  0  0  0  0  0  0  0
   48.9308    3.9080   19.5226 C   0  0  0  0  0  0  0  0  0  0  0  0
   48.6828    3.7795   18.0318 C   0  0  2  0  0  0  0  0  0  0  0  0
   47.7315    4.8864   17.5816 C   0  0  2  0  0  0  0  0  0  0  0  0
   47.5050    4.7969   16.0687 C   0  0  0  0  0  0  0  0  0  0  0  0
   49.5982    5.9013   19.5080 O   0  0  0  0  0  0  0  0  0  0  0  0
   47.4981    6.1379   18.7753 O   0  0  0  0  0  0  0  0  0  0  0  0
   49.9562    3.5274   18.4884 O   0  0  0  0  0  0  0  0  0  0  0  0
   46.4293    3.2209   17.7839 O   0  0  0  0  0  0  0  0  0  0  0  0
   48.7809    5.2756   16.0063 O   0  0  0  0  0  0  0  0  0  0  0  0
   46.7156    4.5486   15.5515 O   0  0  0  0  0  0  0  0  0  0  0  0
   48.4637    5.4138   18.9463 C   0  0  0  0  0  0  0  0  0  0  0  0
   48.5835    3.9174   18.6481 C   0  0  1  0  0  0  0  0  0  0  0  0
   47.7866    3.4985   17.4113 C   0  0  2  0  0  0  0  0  0  0  0  0
   47.8525    4.5394   16.2928 C   0  0  0  0  0  0  0  0  0  0  0  0
   48.1080    4.8357   17.6421 O   0  0  0  0  0  0  0  0  0  0  0  0
   48.2253    4.0653   17.1061 H   0  0  0  0  0  0  0  0  0  0  0  0
   48.1775    4.4934   18.5703 H   0  0  0  0  0  0  0  0  0  0  0  0
   49.7671    5.0857   21.6625 H   0  0  0  0  0  0  0  0  0  0  0  0
   47.9824    6.7713   22.1145 H   0  0  0  0  0  0  0  0  0  0  0  0
   46.0316    5.8683   18.6064 H   0  0  0  0  0  0  0  0  0  0  0  0
   49.6480    3.7428   19.5936 H   0  0  0  0  0  0  0  0  0  0  0  0
   46.7053    3.3611   17.7474 H   0  0  0  0  0  0  0  0  0  0  0  0
   46.4980    3.3006   15.1900 H   0  0  0  0  0  0  0  0  0  0  0  0
   47.7636    4.1444   14.3126 H   0  0  0  0  0  0  0  0  0  0  0  0
   48.0453    1.6440   15.5655 H   0  0  0  0  0  0  0  0  0  0  0  0
   49.4187    2.6974   15.1877 H   0  0  0  0  0  0  0  0  0  0  0  0
   49.7277    3.2724   17.3606 H   0  0  0  0  0  0  0  0  0  0  0  0
   48.6208    1.9679   17.8073 H   0  0  0  0  0  0  0  0  0  0  0  0
   48.5053    6.5030   16.9385 H   0  0  0  0  0  0  0  0  0  0  0  0
   49.5424    5.2947   16.1544 H   0  0  0  0  0  0  0  0  0  0  0  0
   48.3799    6.2435   15.2156 H   0  0  0  0  0  0  0  0  0  0  0  0
   50.0877    4.5473   20.8160 H   0  0  0  0  0  0  0  0  0  0  0  0
   47.4532    2.3261   18.5001 H   0  0  0  0  0  0  0  0  0  0  0  0
   48.2443    6.7127   17.1085 H   0  0  0  0  0  0  0  0  0  0  0  0
   47.7445    5.7081   14.4796 H   0  0  0  0  0  0  0  0  0  0  0  0
   49.6398    3.8227   17.5023 H   0  0  0  0  0  0  0  0  0  0  0  0
   46.7459    4.7955   18.0501 H   0  0  0  0  0  0  0  0  0  0  0  0
   49.4059    6.8570   19.6331 H   0  0  0  0  0  0  0  0  0  0  0  0
   50.4661    4.1160   19.0808 H   0  0  0  0  0  0  0  0  0  0  0  0
   45.9091    3.3021   16.9585 H   0  0  0  0  0  0  0  0  0  0  0  0
   46.8710    5.2646   14.8982 H   0  0  0  0  0  0  0  0  0  0  0  0
   48.2093    3.3934   19.5358 H   0  0  0  0  0  0  0  0  0  0  0  0
   48.1926    2.5697   16.9942 H   0  0  0  0  0  0  0  0  0  0  0  0
   48.2335    4.0173   17.1378 H   0  0  0  0  0  0  0  0  0  0  0  0
   48.1682    4.5503   18.5664 H   0  0  0  0  0  0  0  0  0  0  0  0
  7  2  2  0
  2  3  1  0
  8  6  1  0
  8  9  1  0
  4  5  1  0
  5  6  2  0
  3  4  2  0
  9 10  1  0
 10 11  1  0
 11 12  1  0
  8 12  1  0
  6  7  1  0
  9 13  1  0
 20 15  2  0
 21 16  1  0
 22 17  1  0
 20 14  1  0
 22 23  1  0
 21 22  1  0
 23 19  1  0
 20 21  1  0
 23 18  2  0
 30 25  2  0
 31 26  1  0
 32 27  1  0
 30 24  1  0
 32 33  1  0
 31 32  1  0
 33 29  1  0
 30 31  1  0
 33 28  2  0
  1 35  1  0
  1 36  1  0
  2 37  1  0
  3 38  1  0
  5 39  1  0
  7 40  1  0
  8 41  1  1
 10 42  1  0
 10 43  1  0
 11 44  1  0
 11 45  1  0
 12 46  1  0
 12 47  1  0
 13 48  1  0
 13 49  1  0
 13 50  1  0
 14 51  1  0
 16 52  1  0
 17 53  1  0
 19 54  1  0
 21 55  1  6
 22 56  1  1
 24 57  1  0
 26 58  1  0
 27 59  1  0
 29 60  1  0
 31 61  1  1
 32 62  1  6
 34 63  1  0
 34 64  1  0
M  END
> <Uni-Dock RESULT> 
ENERGY=   -5.354  LOWER_BOUND=    6.755  UPPER_BOUND=    8.904
INTER + INTRA:          -5.354
INTER:                  -5.354
INTRA:                   0.000
UNBOUND:                 0.000

$$$$

     RDKit          3D

 64 61  0  0  0  0  0  0  0  0999 V2000
   44.8924    5.2560   12.5010 O   0  0  0  0  0  0  0  0  0  0  0  0
   47.2046    7.7664   12.7101 C   0  0  0  0  0  0  0  0  0  0  0  0
   47.7538    7.3045   13.8929 C   0  0  0  0  0  0  0  0  0  0  0  0
   47.5276    6.0719   14.3877 N   0  0  0  0  0  0  0  0  0  0  0  0
   46.7071    5.2705   13.6677 C   0  0  0  0  0  0  0  0  0  0  0  0
   46.0906    5.6331   12.4686 C   0  0  0  0  0  0  0  0  0  0  0  0
   46.3697    6.9157   11.9872 C   0  0  0  0  0  0  0  0  0  0  0  0
   45.2247    4.6283   11.7470 C   0  0  1  0  0  0  0  0  0  0  0  0
   44.1206    4.0315   12.5412 N   0  0  0  0  0  0  0  0  0  0  0  0
   43.3583    3.2565   11.5472 C   0  0  0  0  0  0  0  0  0  0  0  0
   43.4404    4.0309   10.2362 C   0  0  0  0  0  0  0  0  0  0  0  0
   44.5436    5.0615   10.4450 C   0  0  0  0  0  0  0  0  0  0  0  0
   43.2525    5.0237   13.1853 C   0  0  0  0  0  0  0  0  0  0  0  0
   45.8151    7.9312   11.7042 O   0  0  0  0  0  0  0  0  0  0  0  0
   47.3999    6.4384   11.2066 O   0  0  0  0  0  0  0  0  0  0  0  0
   45.4010    4.7891   10.2345 O   0  0  0  0  0  0  0  0  0  0  0  0
   44.8136    5.8205   13.7424 O   0  0  0  0  0  0  0  0  0  0  0  0
   43.7310    2.9277   11.8821 O   0  0  0  0  0  0  0  0  0  0  0  0
   42.8712    4.1980   13.4979 O   0  0  0  0  0  0  0  0  0  0  0  0
   46.2193    6.6857   11.4130 C   0  0  0  0  0  0  0  0  0  0  0  0
   45.0954    5.6711   11.3247 C   0  0  2  0  0  0  0  0  0  0  0  0
   44.9966    4.9118   12.6464 C   0  0  2  0  0  0  0  0  0  0  0  0
   43.8365    3.9123   12.5890 C   0  0  0  0  0  0  0  0  0  0  0  0
   45.5368    7.6866   13.1309 O   0  0  0  0  0  0  0  0  0  0  0  0
   45.9160    5.6363   13.9408 O   0  0  0  0  0  0  0  0  0  0  0  0
   44.8945    6.8955   10.7299 O   0  0  0  0  0  0  0  0  0  0  0  0
   46.0985    3.5651   11.4287 O   0  0  0  0  0  0  0  0  0  0  0  0
   43.0685    5.0359   12.6807 O   0  0  0  0  0  0  0  0  0  0  0  0
   43.8306    2.9367   12.5645 O   0  0  0  0  0  0  0  0  0  0  0  0
   45.7050    6.3495   12.9751 C   0  0  0  0  0  0  0  0  0  0  0  0
   45.6459    5.9447   11.5002 C   0  0  1  0  0  0  0  0  0  0  0  0
   45.0601    4.5462   11.2971 C   0  0  2  0  0  0  0  0  0  0  0  0
   43.8985    4.2549   12.2483 C   0  0  0  0  0  0  0  0  0  0  0  0
   44.8697    5.2403   12.4915 O   0  0  0  0  0  0  0  0  0  0  0  0
   44.4862    4.8769   11.7071 H   0  0  0  0  0  0  0  0  0  0  0  0
   45.6834    5.7047   12.1663 H   0  0  0  0  0  0  0  0  0  0  0  0
   47.4254    8.7657   12.3534 H   0  0  0  0  0  0  0  0  0  0  0  0
   48.4101    7.9307   14.4897 H   0  0  0  0  0  0  0  0  0  0  0  0
   46.5464    4.2837   14.0982 H   0  0  0  0  0  0  0  0  0  0  0  0
   45.9517    7.2723   11.0511 H   0  0  0  0  0  0  0  0  0  0  0  0
   45.9065    3.8046   11.4831 H   0  0  0  0  0  0  0  0  0  0  0  0
   43.8430    2.2798   11.4227 H   0  0  0  0  0  0  0  0  0  0  0  0
   42.3242    3.0522   11.8474 H   0  0  0  0  0  0  0  0  0  0  0  0
   43.6756    3.3609    9.4021 H   0  0  0  0  0  0  0  0  0  0  0  0
   42.4929    4.5322   10.0088 H   0  0  0  0  0  0  0  0  0  0  0  0
   44.0913    6.0578   10.5237 H   0  0  0  0  0  0  0  0  0  0  0  0
   45.2429    5.0829    9.6018 H   0  0  0  0  0  0  0  0  0  0  0  0
   43.7903    5.5831   13.9578 H   0  0  0  0  0  0  0  0  0  0  0  0
   42.8131    5.7419   12.4847 H   0  0  0  0  0  0  0  0  0  0  0  0
   42.4301    4.5169   13.7036 H   0  0  0  0  0  0  0  0  0  0  0  0
   46.6371    8.4599   11.7255 H   0  0  0  0  0  0  0  0  0  0  0  0
   46.3516    4.5724   10.2959 H   0  0  0  0  0  0  0  0  0  0  0  0
   44.0290    5.5069   14.2376 H   0  0  0  0  0  0  0  0  0  0  0  0
   42.2102    3.4863   13.3548 H   0  0  0  0  0  0  0  0  0  0  0  0
   44.1621    6.1876   11.0795 H   0  0  0  0  0  0  0  0  0  0  0  0
   45.9003    4.3288   12.8528 H   0  0  0  0  0  0  0  0  0  0  0  0
   45.5765    7.8159   14.1043 H   0  0  0  0  0  0  0  0  0  0  0  0
   45.0454    7.7602   11.1621 H   0  0  0  0  0  0  0  0  0  0  0  0
   45.6405    2.7249   11.6354 H   0  0  0  0  0  0  0  0  0  0  0  0
   43.0757    2.8874   13.1901 H   0  0  0  0  0  0  0  0  0  0  0  0
   46.6764    5.9822   11.1268 H   0  0  0  0  0  0  0  0  0  0  0  0
   44.6612    4.4451   10.2812 H   0  0  0  0  0  0  0  0  0  0  0  0
   44.5172    4.8892   11.6596 H   0  0  0  0  0  0  0  0  0  0  0  0
   45.6751    5.7082   12.2233 H   0  0  0  0  0  0  0  0  0  0  0  0
  7  2  2  0
  2  3  1  0
  8  6  1  0
  8  9  1  0
  4  5  1  0
  5  6  2  0
  3  4  2  0
  9 10  1  0
 10 11  1  0
 11 12  1  0
  8 12  1  0
  6  7  1  0
  9 13  1  0
 20 15  2  0
 21 16  1  0
 22 17  1  0
 20 14  1  0
 22 23  1  0
 21 22  1  0
 23 19  1  0
 20 21  1  0
 23 18  2  0
 30 25  2  0
 31 26  1  0
 32 27  1  0
 30 24  1  0
 32 33  1  0
 31 32  1  0
 33 29  1  0
 30 31  1  0
 33 28  2  0
  1 35  1  0
  1 36  1  0
  2 37  1  0
  3 38  1  0
  5 39  1  0
  7 40  1  0
  8 41  1  1
 10 42  1  0
 10 43  1  0
 11 44  1  0
 11 45  1  0
 12 46  1  0
 12 47  1  0
 13 48  1  0
 13 49  1  0
 13 50  1  0
 14 51  1  0
 16 52  1  0
 17 53  1  0
 19 54  1  0
 21 55  1  6
 22 56  1  1
 24 57  1  0
 26 58  1  0
 27 59  1  0
 29 60  1  0
 31 61  1  1
 32 62  1  6
 34 63  1  0
 34 64  1  0
M  END
> <Uni-Dock RESULT> 
ENERGY=   -5.275  LOWER_BOUND=    2.146  UPPER_BOUND=    3.884
INTER + INTRA:          -5.275
INTER:                  -5.275
INTRA:                   0.000
UNBOUND:                 0.000

$$$$

     RDKit          3D

 64 61  0  0  0  0  0  0  0  0999 V2000
   47.3495    7.5971   12.5228 O   0  0  0  0  0  0  0  0  0  0  0  0
   45.0453    5.0768   12.3476 C   0  0  0  0  0  0  0  0  0  0  0  0
   45.7952    4.1964   13.1068 C   0  0  0  0  0  0  0  0  0  0  0  0
   46.8551    4.5698   13.8501 N   0  0  0  0  0  0  0  0  0  0  0  0
   47.1818    5.8839   13.8233 C   0  0  0  0  0  0  0  0  0  0  0  0
   46.5045    6.8582   13.0876 C   0  0  0  0  0  0  0  0  0  0  0  0
   45.4015    6.4245   12.3459 C   0  0  0  0  0  0  0  0  0  0  0  0
   46.9526    8.2975   13.1747 C   0  0  1  0  0  0  0  0  0  0  0  0
   48.3817    8.5541   12.8622 N   0  0  0  0  0  0  0  0  0  0  0  0
   48.4745   10.0241   12.8467 C   0  0  0  0  0  0  0  0  0  0  0  0
   47.1474   10.5378   12.2992 C   0  0  0  0  0  0  0  0  0  0  0  0
   46.2043    9.3411   12.3394 C   0  0  0  0  0  0  0  0  0  0  0  0
   48.8125    8.0048   11.5716 C   0  0  0  0  0  0  0  0  0  0  0  0
   45.0106    6.3809   11.2215 O   0  0  0  0  0  0  0  0  0  0  0  0
   44.5405    6.7351   13.3760 O   0  0  0  0  0  0  0  0  0  0  0  0
   45.7319    9.2206   13.1243 O   0  0  0  0  0  0  0  0  0  0  0  0
   47.9794    6.4568   12.1119 O   0  0  0  0  0  0  0  0  0  0  0  0
   48.6666    9.7710   13.3548 O   0  0  0  0  0  0  0  0  0  0  0  0
   49.6322    8.3783   11.9086 O   0  0  0  0  0  0  0  0  0  0  0  0
   45.1948    7.0255   12.3835 C   0  0  0  0  0  0  0  0  0  0  0  0
   46.2248    8.1373   12.3221 C   0  0  2  0  0  0  0  0  0  0  0  0
   47.5610    7.6162   12.8475 C   0  0  2  0  0  0  0  0  0  0  0  0
   48.6243    8.7155   12.7513 C   0  0  0  0  0  0  0  0  0  0  0  0
   46.2667    5.6105   11.2576 O   0  0  0  0  0  0  0  0  0  0  0  0
   47.6170    5.8805   13.0203 O   0  0  0  0  0  0  0  0  0  0  0  0
   45.3277    8.0438   11.2829 O   0  0  0  0  0  0  0  0  0  0  0  0
   46.7791    8.6455   14.5326 O   0  0  0  0  0  0  0  0  0  0  0  0
   48.5551    8.4496   11.4151 O   0  0  0  0  0  0  0  0  0  0  0  0
   49.0822    9.2279   13.4442 O   0  0  0  0  0  0  0  0  0  0  0  0
   46.7153    6.3166   12.3256 C   0  0  0  0  0  0  0  0  0  0  0  0
   45.9199    7.6102   12.5171 C   0  0  1  0  0  0  0  0  0  0  0  0
   46.7683    8.7412   13.1013 C   0  0  2  0  0  0  0  0  0  0  0  0
   48.1893    8.7583   12.5362 C   0  0  0  0  0  0  0  0  0  0  0  0
   47.3626    7.6227   12.5180 O   0  0  0  0  0  0  0  0  0  0  0  0
   47.1993    8.5535   12.4801 H   0  0  0  0  0  0  0  0  0  0  0  0
   46.4778    7.2340   12.7407 H   0  0  0  0  0  0  0  0  0  0  0  0
   44.1968    4.7241   11.7728 H   0  0  0  0  0  0  0  0  0  0  0  0
   45.5556    3.1378   13.1396 H   0  0  0  0  0  0  0  0  0  0  0  0
   48.0433    6.1484   14.4339 H   0  0  0  0  0  0  0  0  0  0  0  0
   44.8033    7.1179   11.7631 H   0  0  0  0  0  0  0  0  0  0  0  0
   46.8036    8.5772   14.2295 H   0  0  0  0  0  0  0  0  0  0  0  0
   48.6015   10.3748   13.8788 H   0  0  0  0  0  0  0  0  0  0  0  0
   49.3340   10.4048   12.2832 H   0  0  0  0  0  0  0  0  0  0  0  0
   46.7673   11.3635   12.9105 H   0  0  0  0  0  0  0  0  0  0  0  0
   47.2536   10.9009   11.2709 H   0  0  0  0  0  0  0  0  0  0  0  0
   46.0189    8.9980   11.3141 H   0  0  0  0  0  0  0  0  0  0  0  0
   45.2357    9.6032   12.7793 H   0  0  0  0  0  0  0  0  0  0  0  0
   48.7903    6.9100   11.5763 H   0  0  0  0  0  0  0  0  0  0  0  0
   48.2142    8.3566   10.7243 H   0  0  0  0  0  0  0  0  0  0  0  0
   49.8563    8.2801   11.3807 H   0  0  0  0  0  0  0  0  0  0  0  0
   44.3305    5.7065   11.4175 H   0  0  0  0  0  0  0  0  0  0  0  0
   45.3713    8.8318   13.9447 H   0  0  0  0  0  0  0  0  0  0  0  0
   48.8936    6.6332   11.8082 H   0  0  0  0  0  0  0  0  0  0  0  0
   50.2302    9.1557   11.9512 H   0  0  0  0  0  0  0  0  0  0  0  0
   46.3037    8.4989   11.2920 H   0  0  0  0  0  0  0  0  0  0  0  0
   47.5031    7.3303   13.9029 H   0  0  0  0  0  0  0  0  0  0  0  0
   46.8580    4.8259   11.2303 H   0  0  0  0  0  0  0  0  0  0  0  0
   45.1286    7.2247   10.7862 H   0  0  0  0  0  0  0  0  0  0  0  0
   47.5733    9.1391   14.8224 H   0  0  0  0  0  0  0  0  0  0  0  0
   49.9432    9.1631   12.9771 H   0  0  0  0  0  0  0  0  0  0  0  0
   45.0924    7.3679   13.1946 H   0  0  0  0  0  0  0  0  0  0  0  0
   46.3259    9.7136   12.8562 H   0  0  0  0  0  0  0  0  0  0  0  0
   47.1439    8.5667   12.4911 H   0  0  0  0  0  0  0  0  0  0  0  0
   46.5201    7.1952   12.7346 H   0  0  0  0  0  0  0  0  0  0  0  0
  7  2  2  0
  2  3  1  0
  8  6  1  0
  8  9  1  0
  4  5  1  0
  5  6  2  0
  3  4  2  0
  9 10  1  0
 10 11  1  0
 11 12  1  0
  8 12  1  0
  6  7  1  0
  9 13  1  0
 20 15  2  0
 21 16  1  0
 22 17  1  0
 20 14  1  0
 22 23  1  0
 21 22  1  0
 23 19  1  0
 20 21  1  0
 23 18  2  0
 30 25  2  0
 31 26  1  0
 32 27  1  0
 30 24  1  0
 32 33  1  0
 31 32  1  0
 33 29  1  0
 30 31  1  0
 33 28  2  0
  1 35  1  0
  1 36  1  0
  2 37  1  0
  3 38  1  0
  5 39  1  0
  7 40  1  0
  8 41  1  1
 10 42  1  0
 10 43  1  0
 11 44  1  0
 11 45  1  0
 12 46  1  0
 12 47  1  0
 13 48  1  0
 13 49  1  0
 13 50  1  0
 14 51  1  0
 16 52  1  0
 17 53  1  0
 19 54  1  0
 21 55  1  6
 22 56  1  1
 24 57  1  0
 26 58  1  0
 27 59  1  0
 29 60  1  0
 31 61  1  1
 32 62  1  6
 34 63  1  0
 34 64  1  0
M  END
> <Uni-Dock RESULT> 
ENERGY=   -5.036  LOWER_BOUND=    4.124  UPPER_BOUND=    5.642
INTER + INTRA:          -5.036
INTER:                  -5.036
INTRA:                   0.000
UNBOUND:                 0.000

$$$$

     RDKit          3D

 64 61  0  0  0  0  0  0  0  0999 V2000
   47.8635   10.8969   20.6949 O   0  0  0  0  0  0  0  0  0  0  0  0
   48.2080    7.5542   20.0626 C   0  0  0  0  0  0  0  0  0  0  0  0
   47.7120    7.1632   21.2935 C   0  0  0  0  0  0  0  0  0  0  0  0
   47.0459    7.9886   22.1243 N   0  0  0  0  0  0  0  0  0  0  0  0
   46.8775    9.2651   21.7046 C   0  0  0  0  0  0  0  0  0  0  0  0
   47.3424    9.7720   20.4896 C   0  0  0  0  0  0  0  0  0  0  0  0
   48.0126    8.8728   19.6547 C   0  0  0  0  0  0  0  0  0  0  0  0
   47.0551   11.2096   20.1277 C   0  0  1  0  0  0  0  0  0  0  0  0
   47.4850   12.2286   21.1190 N   0  0  0  0  0  0  0  0  0  0  0  0
   47.2500   13.5070   20.4260 C   0  0  0  0  0  0  0  0  0  0  0  0
   47.5355   13.2595   18.9488 C   0  0  0  0  0  0  0  0  0  0  0  0
   47.5965   11.7441   18.7981 C   0  0  0  0  0  0  0  0  0  0  0  0
   48.8946   12.1149   21.5102 C   0  0  0  0  0  0  0  0  0  0  0  0
   49.0722    8.7195   19.1324 O   0  0  0  0  0  0  0  0  0  0  0  0
   46.8487    8.5752   18.9799 O   0  0  0  0  0  0  0  0  0  0  0  0
   46.7950   11.3193   18.6227 O   0  0  0  0  0  0  0  0  0  0  0  0
   48.5425   10.3235   21.7322 O   0  0  0  0  0  0  0  0  0  0  0  0
   46.8215   13.3570   20.8172 O   0  0  0  0  0  0  0  0  0  0  0  0
   48.5967   12.8441   22.0620 O   0  0  0  0  0  0  0  0  0  0  0  0
   47.8445    9.2585   19.1770 C   0  0  0  0  0  0  0  0  0  0  0  0
   47.8297   10.7522   19.4399 C   0  0  2  0  0  0  0  0  0  0  0  0
   47.5682   11.0003   20.9242 C   0  0  2  0  0  0  0  0  0  0  0  0
   47.5936   12.5048   21.2145 C   0  0  0  0  0  0  0  0  0  0  0  0
   49.3234    8.7577   20.5844 O   0  0  0  0  0  0  0  0  0  0  0  0
   47.7143    9.5678   21.9102 O   0  0  0  0  0  0  0  0  0  0  0  0
   48.7546   10.2744   18.5401 O   0  0  0  0  0  0  0  0  0  0  0  0
   45.6461   11.2895   20.0684 O   0  0  0  0  0  0  0  0  0  0  0  0
   48.9378   12.3592   21.0337 O   0  0  0  0  0  0  0  0  0  0  0  0
   46.8801   13.1225   21.4632 O   0  0  0  0  0  0  0  0  0  0  0  0
   48.2081    9.4999   20.7978 C   0  0  0  0  0  0  0  0  0  0  0  0
   47.6966   10.1298   19.5001 C   0  0  1  0  0  0  0  0  0  0  0  0
   47.0260   11.4856   19.7288 C   0  0  2  0  0  0  0  0  0  0  0  0
   47.7443   12.3220   20.7889 C   0  0  0  0  0  0  0  0  0  0  0  0
   47.8653   10.9258   20.6915 O   0  0  0  0  0  0  0  0  0  0  0  0
   47.7175   11.6167   20.0628 H   0  0  0  0  0  0  0  0  0  0  0  0
   47.6114   10.1007   20.2034 H   0  0  0  0  0  0  0  0  0  0  0  0
   48.7311    6.8469   19.4295 H   0  0  0  0  0  0  0  0  0  0  0  0
   47.8395    6.1467   21.6533 H   0  0  0  0  0  0  0  0  0  0  0  0
   46.3366    9.9029   22.4016 H   0  0  0  0  0  0  0  0  0  0  0  0
   48.3875    9.1754   18.6821 H   0  0  0  0  0  0  0  0  0  0  0  0
   45.9572   11.2718   20.0649 H   0  0  0  0  0  0  0  0  0  0  0  0
   46.1946   13.7807   20.5508 H   0  0  0  0  0  0  0  0  0  0  0  0
   47.8353   14.3407   20.8304 H   0  0  0  0  0  0  0  0  0  0  0  0
   46.7465   13.6893   18.3222 H   0  0  0  0  0  0  0  0  0  0  0  0
   48.4882   13.7081   18.6458 H   0  0  0  0  0  0  0  0  0  0  0  0
   48.6370   11.4443   18.6221 H   0  0  0  0  0  0  0  0  0  0  0  0
   47.0049   11.3978   17.9435 H   0  0  0  0  0  0  0  0  0  0  0  0
   49.0818   11.1890   22.0639 H   0  0  0  0  0  0  0  0  0  0  0  0
   49.5886   12.1549   20.6638 H   0  0  0  0  0  0  0  0  0  0  0  0
   49.1565   12.9293   22.1957 H   0  0  0  0  0  0  0  0  0  0  0  0
   48.9195    7.7697   18.9581 H   0  0  0  0  0  0  0  0  0  0  0  0
   46.0196   10.7286   18.6871 H   0  0  0  0  0  0  0  0  0  0  0  0
   48.9168   10.9945   22.3396 H   0  0  0  0  0  0  0  0  0  0  0  0
   48.4882   13.8148   22.1611 H   0  0  0  0  0  0  0  0  0  0  0  0
   48.7811   11.1848   19.1147 H   0  0  0  0  0  0  0  0  0  0  0  0
   46.5811   10.6402   21.2323 H   0  0  0  0  0  0  0  0  0  0  0  0
   49.5599    8.4273   21.4793 H   0  0  0  0  0  0  0  0  0  0  0  0
   49.3617    9.5249   18.7048 H   0  0  0  0  0  0  0  0  0  0  0  0
   45.3699   12.1092   20.5270 H   0  0  0  0  0  0  0  0  0  0  0  0
   47.4506   13.5771   22.1202 H   0  0  0  0  0  0  0  0  0  0  0  0
   46.9792    9.4192   19.0723 H   0  0  0  0  0  0  0  0  0  0  0  0
   47.0400   12.0770   18.8061 H   0  0  0  0  0  0  0  0  0  0  0  0
   47.6978   11.5966   20.0120 H   0  0  0  0  0  0  0  0  0  0  0  0
   47.6293   10.0918   20.2575 H   0  0  0  0  0  0  0  0  0  0  0  0
  7  2  2  0
  2  3  1  0
  8  6  1  0
  8  9  1  0
  4  5  1  0
  5  6  2  0
  3  4  2  0
  9 10  1  0
 10 11  1  0
 11 12  1  0
  8 12  1  0
  6  7  1  0
  9 13  1  0
 20 15  2  0
 21 16  1  0
 22 17  1  0
 20 14  1  0
 22 23  1  0
 21 22  1  0
 23 19  1  0
 20 21  1  0
 23 18  2  0
 30 25  2  0
 31 26  1  0
 32 27  1  0
 30 24  1  0
 32 33  1  0
 31 32  1  0
 33 29  1  0
 30 31  1  0
 33 28  2  0
  1 35  1  0
  1 36  1  0
  2 37  1  0
  3 38  1  0
  5 39  1  0
  7 40  1  0
  8 41  1  1
 10 42  1  0
 10 43  1  0
 11 44  1  0
 11 45  1  0
 12 46  1  0
 12 47  1  0
 13 48  1  0
 13 49  1  0
 13 50  1  0
 14 51  1  0
 16 52  1  0
 17 53  1  0
 19 54  1  0
 21 55  1  6
 22 56  1  1
 24 57  1  0
 26 58  1  0
 27 59  1  0
 29 60  1  0
 31 61  1  1
 32 62  1  6
 34 63  1  0
 34 64  1  0
M  END
> <Uni-Dock RESULT> 
ENERGY=   -5.004  LOWER_BOUND=   10.471  UPPER_BOUND=   12.470
INTER + INTRA:          -5.004
INTER:                  -5.004
INTRA:                   0.000
UNBOUND:                 0.000

$$$$
