
     RDKit          3D

 64 61  0  0  0  0  0  0  0  0999 V2000
   44.8685    5.2021   11.6719 O   0  0  0  0  0  0  0  0  0  0  0  0
   46.2829    8.3025   11.9848 C   0  0  0  0  0  0  0  0  0  0  0  0
   46.8196    8.3407   13.2597 C   0  0  0  0  0  0  0  0  0  0  0  0
   46.8562    7.2770   14.0862 N   0  0  0  0  0  0  0  0  0  0  0  0
   46.3246    6.1244   13.6136 C   0  0  0  0  0  0  0  0  0  0  0  0
   45.7483    5.9720   12.3511 C   0  0  0  0  0  0  0  0  0  0  0  0
   45.7464    7.1008   11.5256 C   0  0  0  0  0  0  0  0  0  0  0  0
   45.2241    4.6194   11.9339 C   0  0  1  0  0  0  0  0  0  0  0  0
   44.2436    3.9906   12.8560 N   0  0  0  0  0  0  0  0  0  0  0  0
   43.7827    2.8040   12.1141 C   0  0  0  0  0  0  0  0  0  0  0  0
   43.7715    3.1912   10.6394 C   0  0  0  0  0  0  0  0  0  0  0  0
   44.5663    4.4894   10.5566 C   0  0  0  0  0  0  0  0  0  0  0  0
   43.1053    4.8561   13.1870 C   0  0  0  0  0  0  0  0  0  0  0  0
   47.0578    6.1354   10.9729 O   0  0  0  0  0  0  0  0  0  0  0  0
   44.9598    6.4015   10.2584 O   0  0  0  0  0  0  0  0  0  0  0  0
   46.4380    4.8474   13.1409 O   0  0  0  0  0  0  0  0  0  0  0  0
   44.1416    6.3153   13.5332 O   0  0  0  0  0  0  0  0  0  0  0  0
   42.8825    4.1043   10.9002 O   0  0  0  0  0  0  0  0  0  0  0  0
   41.9457    5.8439   11.9366 O   0  0  0  0  0  0  0  0  0  0  0  0
   45.7287    5.8680   11.0374 C   0  0  0  0  0  0  0  0  0  0  0  0
   45.4219    4.8295   12.1184 C   0  0  2  0  0  0  0  0  0  0  0  0
   44.0757    5.0951   12.7947 C   0  0  2  0  0  0  0  0  0  0  0  0
   42.9451    4.9563   11.7756 C   0  0  0  0  0  0  0  0  0  0  0  0
   45.7114    3.4653   11.6562 O   0  0  0  0  0  0  0  0  0  0  0  0
   43.5987    2.7445   11.6839 O   0  0  0  0  0  0  0  0  0  0  0  0
   42.6051    5.2266   12.3404 O   0  0  0  0  0  0  0  0  0  0  0  0
   43.8127    7.2285   11.3539 O   0  0  0  0  0  0  0  0  0  0  0  0
   46.4368    6.1943   13.3283 O   0  0  0  0  0  0  0  0  0  0  0  0
   46.6455    7.5560   11.5772 O   0  0  0  0  0  0  0  0  0  0  0  0
   44.3970    3.6527   11.8664 C   0  0  0  0  0  0  0  0  0  0  0  0
   44.0365    5.0325   12.3985 C   0  0  1  0  0  0  0  0  0  0  0  0
   44.7156    6.1304   11.5627 C   0  0  2  0  0  0  0  0  0  0  0  0
   45.9861    6.6000   12.2679 C   0  0  0  0  0  0  0  0  0  0  0  0
   44.8754    5.2079   11.6716 O   0  0  0  0  0  0  0  0  0  0  0  0
   44.0702    4.9963   12.1812 H   0  0  0  0  0  0  0  0  0  0  0  0
   45.2389    5.9772   12.1202 H   0  0  0  0  0  0  0  0  0  0  0  0
   46.2855    9.1879   11.3591 H   0  0  0  0  0  0  0  0  0  0  0  0
   47.2498    9.2538   13.6602 H   0  0  0  0  0  0  0  0  0  0  0  0
   46.3707    5.2873   14.3078 H   0  0  0  0  0  0  0  0  0  0  0  0
   45.3372    7.0667   10.5204 H   0  0  0  0  0  0  0  0  0  0  0  0
   46.1102    3.9653   11.9209 H   0  0  0  0  0  0  0  0  0  0  0  0
   42.8126    2.4239   12.4538 H   0  0  0  0  0  0  0  0  0  0  0  0
   44.5060    1.9940   12.2717 H   0  0  0  0  0  0  0  0  0  0  0  0
   44.2290    2.4067   10.0275 H   0  0  0  0  0  0  0  0  0  0  0  0
   42.7501    3.3505   10.2772 H   0  0  0  0  0  0  0  0  0  0  0  0
   45.3059    4.4591    9.7494 H   0  0  0  0  0  0  0  0  0  0  0  0
   43.8784    5.3164   10.3446 H   0  0  0  0  0  0  0  0  0  0  0  0
   42.5516    5.2048   12.3084 H   0  0  0  0  0  0  0  0  0  0  0  0
   43.4250    5.7312   13.7619 H   0  0  0  0  0  0  0  0  0  0  0  0
   42.4028    4.3154   13.8321 H   0  0  0  0  0  0  0  0  0  0  0  0
   47.1219    6.8043   10.2558 H   0  0  0  0  0  0  0  0  0  0  0  0
   47.2792    5.0017   12.6630 H   0  0  0  0  0  0  0  0  0  0  0  0
   44.9470    6.2438   14.0815 H   0  0  0  0  0  0  0  0  0  0  0  0
   41.3281    5.6646   11.1992 H   0  0  0  0  0  0  0  0  0  0  0  0
   45.4469    3.8432   11.6440 H   0  0  0  0  0  0  0  0  0  0  0  0
   43.8939    4.3160   13.5456 H   0  0  0  0  0  0  0  0  0  0  0  0
   45.7909    2.5293   11.3680 H   0  0  0  0  0  0  0  0  0  0  0  0
   42.2036    4.3526   12.5241 H   0  0  0  0  0  0  0  0  0  0  0  0
   42.9619    6.9472   11.7530 H   0  0  0  0  0  0  0  0  0  0  0  0
   47.4072    7.7933   12.1445 H   0  0  0  0  0  0  0  0  0  0  0  0
   44.3031    5.0619   13.4592 H   0  0  0  0  0  0  0  0  0  0  0  0
   45.0017    5.7553   10.5734 H   0  0  0  0  0  0  0  0  0  0  0  0
   44.0731    4.9853   12.1675 H   0  0  0  0  0  0  0  0  0  0  0  0
   45.2291    5.9824   12.1343 H   0  0  0  0  0  0  0  0  0  0  0  0
  7  2  2  0
  2  3  1  0
  8  6  1  0
  8  9  1  0
  4  5  1  0
  5  6  2  0
  3  4  2  0
  9 10  1  0
 10 11  1  0
 11 12  1  0
  8 12  1  0
  6  7  1  0
  9 13  1  0
 20 15  2  0
 21 16  1  0
 22 17  1  0
 20 14  1  0
 22 23  1  0
 21 22  1  0
 23 19  1  0
 20 21  1  0
 23 18  2  0
 30 25  2  0
 31 26  1  0
 32 27  1  0
 30 24  1  0
 32 33  1  0
 31 32  1  0
 33 29  1  0
 30 31  1  0
 33 28  2  0
  1 35  1  0
  1 36  1  0
  2 37  1  0
  3 38  1  0
  5 39  1  0
  7 40  1  0
  8 41  1  6
 10 42  1  0
 10 43  1  0
 11 44  1  0
 11 45  1  0
 12 46  1  0
 12 47  1  0
 13 48  1  0
 13 49  1  0
 13 50  1  0
 14 51  1  0
 16 52  1  0
 17 53  1  0
 19 54  1  0
 21 55  1  6
 22 56  1  6
 24 57  1  0
 26 58  1  0
 27 59  1  0
 29 60  1  0
 31 61  1  6
 32 62  1  1
 34 63  1  0
 34 64  1  0
M  END
> <Uni-Dock RESULT> 
ENERGY=   -5.260  LOWER_BOUND=    0.000  UPPER_BOUND=    0.000
INTER + INTRA:          -5.260
INTER:                  -5.260
INTRA:                   0.000
UNBOUND:                 0.000

$$$$

     RDKit          3D

 64 61  0  0  0  0  0  0  0  0999 V2000
   44.4083    4.9890   11.7933 O   0  0  0  0  0  0  0  0  0  0  0  0
   45.1381    8.3172   11.4759 C   0  0  0  0  0  0  0  0  0  0  0  0
   43.9580    8.9217   11.0800 C   0  0  0  0  0  0  0  0  0  0  0  0
   42.7783    8.2752   11.0007 N   0  0  0  0  0  0  0  0  0  0  0  0
   42.7848    6.9611   11.3280 C   0  0  0  0  0  0  0  0  0  0  0  0
   43.9146    6.2461   11.7302 C   0  0  0  0  0  0  0  0  0  0  0  0
   45.1119    6.9642   11.8097 C   0  0  0  0  0  0  0  0  0  0  0  0
   43.7765    4.7899   12.1029 C   0  0  1  0  0  0  0  0  0  0  0  0
   43.1413    3.9162   11.0831 N   0  0  0  0  0  0  0  0  0  0  0  0
   43.3113    2.5606   11.6346 C   0  0  0  0  0  0  0  0  0  0  0  0
   44.6479    2.5549   12.3684 C   0  0  0  0  0  0  0  0  0  0  0  0
   45.0385    4.0217   12.5078 C   0  0  0  0  0  0  0  0  0  0  0  0
   43.7647    4.0068    9.7573 C   0  0  0  0  0  0  0  0  0  0  0  0
   44.5421    6.8496   13.4282 O   0  0  0  0  0  0  0  0  0  0  0  0
   46.0583    5.6953   12.2656 O   0  0  0  0  0  0  0  0  0  0  0  0
   42.4742    5.9227   12.1601 O   0  0  0  0  0  0  0  0  0  0  0  0
   43.8072    5.8292    9.7526 O   0  0  0  0  0  0  0  0  0  0  0  0
   45.2501    2.8129   11.2447 O   0  0  0  0  0  0  0  0  0  0  0  0
   45.6800    3.8549    9.3191 O   0  0  0  0  0  0  0  0  0  0  0  0
   44.8871    5.8816   12.5416 C   0  0  0  0  0  0  0  0  0  0  0  0
   43.6593    5.1083   12.0561 C   0  0  2  0  0  0  0  0  0  0  0  0
   43.8013    4.6768   10.5954 C   0  0  2  0  0  0  0  0  0  0  0  0
   44.9694    3.7015   10.4523 C   0  0  0  0  0  0  0  0  0  0  0  0
   43.2275    4.1056   13.0393 O   0  0  0  0  0  0  0  0  0  0  0  0
   43.6877    2.3182   11.7832 O   0  0  0  0  0  0  0  0  0  0  0  0
   44.8010    3.8340    9.7729 O   0  0  0  0  0  0  0  0  0  0  0  0
   46.0748    5.9083   10.4896 O   0  0  0  0  0  0  0  0  0  0  0  0
   42.9956    7.0223   11.5532 O   0  0  0  0  0  0  0  0  0  0  0  0
   44.9405    7.8550   12.2519 O   0  0  0  0  0  0  0  0  0  0  0  0
   43.6789    3.5345   11.9091 C   0  0  0  0  0  0  0  0  0  0  0  0
   44.0924    4.5229   10.8279 C   0  0  1  0  0  0  0  0  0  0  0  0
   45.0123    5.6094   11.4096 C   0  0  2  0  0  0  0  0  0  0  0  0
   44.1951    6.8618   11.7191 C   0  0  0  0  0  0  0  0  0  0  0  0
   44.4087    4.9975   11.7962 O   0  0  0  0  0  0  0  0  0  0  0  0
   44.2292    4.4690   10.9954 H   0  0  0  0  0  0  0  0  0  0  0  0
   44.2978    5.9072   11.5041 H   0  0  0  0  0  0  0  0  0  0  0  0
   46.0587    8.8875   11.5282 H   0  0  0  0  0  0  0  0  0  0  0  0
   43.9290    9.9736   10.8114 H   0  0  0  0  0  0  0  0  0  0  0  0
   41.8158    6.4713   11.2517 H   0  0  0  0  0  0  0  0  0  0  0  0
   46.0349    6.4926   12.1333 H   0  0  0  0  0  0  0  0  0  0  0  0
   43.1118    4.7855   12.9812 H   0  0  0  0  0  0  0  0  0  0  0  0
   43.2454    1.7687   10.8799 H   0  0  0  0  0  0  0  0  0  0  0  0
   42.5021    2.3741   12.3519 H   0  0  0  0  0  0  0  0  0  0  0  0
   44.5518    2.0754   13.3482 H   0  0  0  0  0  0  0  0  0  0  0  0
   45.4119    2.0134   11.8001 H   0  0  0  0  0  0  0  0  0  0  0  0
   45.3546    4.2600   13.5290 H   0  0  0  0  0  0  0  0  0  0  0  0
   45.8842    4.2309   11.8421 H   0  0  0  0  0  0  0  0  0  0  0  0
   44.8362    3.7792    9.7619 H   0  0  0  0  0  0  0  0  0  0  0  0
   43.6257    5.0006    9.3196 H   0  0  0  0  0  0  0  0  0  0  0  0
   43.2769    3.3065    9.0690 H   0  0  0  0  0  0  0  0  0  0  0  0
   45.4020    7.2658   13.6583 H   0  0  0  0  0  0  0  0  0  0  0  0
   42.5865    6.4333   12.9886 H   0  0  0  0  0  0  0  0  0  0  0  0
   43.0284    6.3530   10.0234 H   0  0  0  0  0  0  0  0  0  0  0  0
   46.4067    3.2032    9.3872 H   0  0  0  0  0  0  0  0  0  0  0  0
   43.5287    4.2475   12.7198 H   0  0  0  0  0  0  0  0  0  0  0  0
   42.9075    4.1124   10.3017 H   0  0  0  0  0  0  0  0  0  0  0  0
   42.9561    3.3544   13.6117 H   0  0  0  0  0  0  0  0  0  0  0  0
   44.3860    2.9503    9.6974 H   0  0  0  0  0  0  0  0  0  0  0  0
   45.9645    5.2757    9.7480 H   0  0  0  0  0  0  0  0  0  0  0  0
   44.3170    8.6007   12.3671 H   0  0  0  0  0  0  0  0  0  0  0  0
   43.1808    4.9196   10.3713 H   0  0  0  0  0  0  0  0  0  0  0  0
   45.4786    5.2754   12.3435 H   0  0  0  0  0  0  0  0  0  0  0  0
   44.2332    4.4592   11.0097 H   0  0  0  0  0  0  0  0  0  0  0  0
   44.2934    5.9085   11.4868 H   0  0  0  0  0  0  0  0  0  0  0  0
  7  2  2  0
  2  3  1  0
  8  6  1  0
  8  9  1  0
  4  5  1  0
  5  6  2  0
  3  4  2  0
  9 10  1  0
 10 11  1  0
 11 12  1  0
  8 12  1  0
  6  7  1  0
  9 13  1  0
 20 15  2  0
 21 16  1  0
 22 17  1  0
 20 14  1  0
 22 23  1  0
 21 22  1  0
 23 19  1  0
 20 21  1  0
 23 18  2  0
 30 25  2  0
 31 26  1  0
 32 27  1  0
 30 24  1  0
 32 33  1  0
 31 32  1  0
 33 29  1  0
 30 31  1  0
 33 28  2  0
  1 35  1  0
  1 36  1  0
  2 37  1  0
  3 38  1  0
  5 39  1  0
  7 40  1  0
  8 41  1  6
 10 42  1  0
 10 43  1  0
 11 44  1  0
 11 45  1  0
 12 46  1  0
 12 47  1  0
 13 48  1  0
 13 49  1  0
 13 50  1  0
 14 51  1  0
 16 52  1  0
 17 53  1  0
 19 54  1  0
 21 55  1  6
 22 56  1  6
 24 57  1  0
 26 58  1  0
 27 59  1  0
 29 60  1  0
 31 61  1  6
 32 62  1  1
 34 63  1  0
 34 64  1  0
M  END
> <Uni-Dock RESULT> 
ENERGY=   -4.645  LOWER_BOUND=    1.462  UPPER_BOUND=    2.720
INTER + INTRA:          -4.645
INTER:                  -4.645
INTRA:                   0.000
UNBOUND:                 0.000

$$$$

     RDKit          3D

 64 61  0  0  0  0  0  0  0  0999 V2000
   42.9027   11.6961   10.0031 O   0  0  0  0  0  0  0  0  0  0  0  0
   45.5738   12.8971    8.2330 C   0  0  0  0  0  0  0  0  0  0  0  0
   45.6710   12.0916    7.1121 C   0  0  0  0  0  0  0  0  0  0  0  0
   44.7676   11.1439    6.7934 N   0  0  0  0  0  0  0  0  0  0  0  0
   43.7224   10.9942    7.6416 C   0  0  0  0  0  0  0  0  0  0  0  0
   43.5273   11.7414    8.8048 C   0  0  0  0  0  0  0  0  0  0  0  0
   44.4847   12.7213    9.0850 C   0  0  0  0  0  0  0  0  0  0  0  0
   42.2970   11.4977    9.6447 C   0  0  1  0  0  0  0  0  0  0  0  0
   42.0732   10.0939   10.0763 N   0  0  0  0  0  0  0  0  0  0  0  0
   40.9376   10.1958   11.0094 C   0  0  0  0  0  0  0  0  0  0  0  0
   41.0893   11.5286   11.7341 C   0  0  0  0  0  0  0  0  0  0  0  0
   42.1260   12.3082   10.9333 C   0  0  0  0  0  0  0  0  0  0  0  0
   43.2304    9.4914   10.7488 C   0  0  0  0  0  0  0  0  0  0  0  0
   43.1562   13.5677    8.3951 O   0  0  0  0  0  0  0  0  0  0  0  0
   43.8165   13.2329   10.5010 O   0  0  0  0  0  0  0  0  0  0  0  0
   42.4002   11.1213    7.9624 O   0  0  0  0  0  0  0  0  0  0  0  0
   44.4268   10.0666    9.4995 O   0  0  0  0  0  0  0  0  0  0  0  0
   42.2205   11.1164   12.2264 O   0  0  0  0  0  0  0  0  0  0  0  0
   44.2719   10.2392   12.2453 O   0  0  0  0  0  0  0  0  0  0  0  0
   43.2347   12.8100    9.5184 C   0  0  0  0  0  0  0  0  0  0  0  0
   42.4777   11.4906    9.3538 C   0  0  2  0  0  0  0  0  0  0  0  0
   43.1630   10.3458   10.1022 C   0  0  2  0  0  0  0  0  0  0  0  0
   43.1531   10.6268   11.6045 C   0  0  0  0  0  0  0  0  0  0  0  0
   41.0306   11.6710    9.5322 O   0  0  0  0  0  0  0  0  0  0  0  0
   40.8608   10.4544   11.3964 O   0  0  0  0  0  0  0  0  0  0  0  0
   43.5801   10.0582   11.5615 O   0  0  0  0  0  0  0  0  0  0  0  0
   45.0540   11.9736   10.7885 O   0  0  0  0  0  0  0  0  0  0  0  0
   43.7190   11.3055    7.6860 O   0  0  0  0  0  0  0  0  0  0  0  0
   44.7087   13.2235    8.2388 O   0  0  0  0  0  0  0  0  0  0  0  0
   41.5630   10.9134   10.5067 C   0  0  0  0  0  0  0  0  0  0  0  0
   43.0529   10.6443   10.3497 C   0  0  1  0  0  0  0  0  0  0  0  0
   43.8128   11.9507   10.0649 C   0  0  2  0  0  0  0  0  0  0  0  0
   44.0582   12.0846    8.5636 C   0  0  0  0  0  0  0  0  0  0  0  0
   42.9065   11.7011    9.9967 O   0  0  0  0  0  0  0  0  0  0  0  0
   42.9773   10.8340   10.4391 H   0  0  0  0  0  0  0  0  0  0  0  0
   43.6221   11.6933    9.3539 H   0  0  0  0  0  0  0  0  0  0  0  0
   46.3271   13.6495    8.4379 H   0  0  0  0  0  0  0  0  0  0  0  0
   46.5008   12.1927    6.4189 H   0  0  0  0  0  0  0  0  0  0  0  0
   43.0138   10.2199    7.3535 H   0  0  0  0  0  0  0  0  0  0  0  0
   44.4009   13.3621    9.9575 H   0  0  0  0  0  0  0  0  0  0  0  0
   41.4518   11.7661    8.9913 H   0  0  0  0  0  0  0  0  0  0  0  0
   40.8617    9.3497   11.7019 H   0  0  0  0  0  0  0  0  0  0  0  0
   40.0085   10.2033   10.4255 H   0  0  0  0  0  0  0  0  0  0  0  0
   40.1338   12.0624   11.7712 H   0  0  0  0  0  0  0  0  0  0  0  0
   41.4370   11.3853   12.7629 H   0  0  0  0  0  0  0  0  0  0  0  0
   41.7947   13.3327   10.7333 H   0  0  0  0  0  0  0  0  0  0  0  0
   43.0544   12.3677   11.5134 H   0  0  0  0  0  0  0  0  0  0  0  0
   43.5675   10.0539   11.6262 H   0  0  0  0  0  0  0  0  0  0  0  0
   44.0769    9.3832   10.0631 H   0  0  0  0  0  0  0  0  0  0  0  0
   42.9812    8.4757   11.0780 H   0  0  0  0  0  0  0  0  0  0  0  0
   43.6733   14.3711    8.6247 H   0  0  0  0  0  0  0  0  0  0  0  0
   42.2705   11.9645    7.4807 H   0  0  0  0  0  0  0  0  0  0  0  0
   44.2440    9.9725    8.5445 H   0  0  0  0  0  0  0  0  0  0  0  0
   44.1401   10.5183   13.1738 H   0  0  0  0  0  0  0  0  0  0  0  0
   41.4554   11.6508    9.7112 H   0  0  0  0  0  0  0  0  0  0  0  0
   42.5742    9.4297    9.9691 H   0  0  0  0  0  0  0  0  0  0  0  0
   40.0711   11.7133    9.7400 H   0  0  0  0  0  0  0  0  0  0  0  0
   42.8687    9.4896   11.9214 H   0  0  0  0  0  0  0  0  0  0  0  0
   45.0527   11.1598   11.3362 H   0  0  0  0  0  0  0  0  0  0  0  0
   44.8352   13.1711    7.2696 H   0  0  0  0  0  0  0  0  0  0  0  0
   43.1756    9.8875    9.5692 H   0  0  0  0  0  0  0  0  0  0  0  0
   43.2347   12.8239   10.3882 H   0  0  0  0  0  0  0  0  0  0  0  0
   42.9640   10.8440   10.4453 H   0  0  0  0  0  0  0  0  0  0  0  0
   43.6316   11.6781    9.3542 H   0  0  0  0  0  0  0  0  0  0  0  0
  7  2  2  0
  2  3  1  0
  8  6  1  0
  8  9  1  0
  4  5  1  0
  5  6  2  0
  3  4  2  0
  9 10  1  0
 10 11  1  0
 11 12  1  0
  8 12  1  0
  6  7  1  0
  9 13  1  0
 20 15  2  0
 21 16  1  0
 22 17  1  0
 20 14  1  0
 22 23  1  0
 21 22  1  0
 23 19  1  0
 20 21  1  0
 23 18  2  0
 30 25  2  0
 31 26  1  0
 32 27  1  0
 30 24  1  0
 32 33  1  0
 31 32  1  0
 33 29  1  0
 30 31  1  0
 33 28  2  0
  1 35  1  0
  1 36  1  0
  2 37  1  0
  3 38  1  0
  5 39  1  0
  7 40  1  0
  8 41  1  6
 10 42  1  0
 10 43  1  0
 11 44  1  0
 11 45  1  0
 12 46  1  0
 12 47  1  0
 13 48  1  0
 13 49  1  0
 13 50  1  0
 14 51  1  0
 16 52  1  0
 17 53  1  0
 19 54  1  0
 21 55  1  6
 22 56  1  6
 24 57  1  0
 26 58  1  0
 27 59  1  0
 29 60  1  0
 31 61  1  6
 32 62  1  1
 34 63  1  0
 34 64  1  0
M  END
> <Uni-Dock RESULT> 
ENERGY=   -4.329  LOWER_BOUND=    5.411  UPPER_BOUND=    7.211
INTER + INTRA:          -4.329
INTER:                  -4.329
INTRA:                   0.000
UNBOUND:                 0.000

$$$$

     RDKit          3D

 64 61  0  0  0  0  0  0  0  0999 V2000
   48.3771    4.9343   18.6268 O   0  0  0  0  0  0  0  0  0  0  0  0
   49.1444    6.9177   21.3077 C   0  0  0  0  0  0  0  0  0  0  0  0
   48.4638    8.1046   21.1005 C   0  0  0  0  0  0  0  0  0  0  0  0
   47.5879    8.2969   20.0946 N   0  0  0  0  0  0  0  0  0  0  0  0
   47.3909    7.2523   19.2554 C   0  0  0  0  0  0  0  0  0  0  0  0
   48.0281    6.0145   19.3611 C   0  0  0  0  0  0  0  0  0  0  0  0
   48.9177    5.8598   20.4290 C   0  0  0  0  0  0  0  0  0  0  0  0
   47.6895    4.9201   18.3782 C   0  0  1  0  0  0  0  0  0  0  0  0
   47.8242    5.2733   16.9416 N   0  0  0  0  0  0  0  0  0  0  0  0
   47.6164    3.9897   16.2488 C   0  0  0  0  0  0  0  0  0  0  0  0
   48.2098    2.9103   17.1474 C   0  0  0  0  0  0  0  0  0  0  0  0
   48.4289    3.5838   18.4972 C   0  0  0  0  0  0  0  0  0  0  0  0
   49.1354    5.8326   16.5915 C   0  0  0  0  0  0  0  0  0  0  0  0
   47.4670    5.0837   20.9294 O   0  0  0  0  0  0  0  0  0  0  0  0
   49.3781    4.3208   20.0642 O   0  0  0  0  0  0  0  0  0  0  0  0
   46.6317    6.2322   18.7553 O   0  0  0  0  0  0  0  0  0  0  0  0
   49.1706    6.9866   18.0023 O   0  0  0  0  0  0  0  0  0  0  0  0
   49.3789    3.4658   17.0191 O   0  0  0  0  0  0  0  0  0  0  0  0
   50.9098    5.0890   17.0185 O   0  0  0  0  0  0  0  0  0  0  0  0
   48.2880    4.8307   19.8787 C   0  0  0  0  0  0  0  0  0  0  0  0
   47.6264    5.2085   18.5518 C   0  0  2  0  0  0  0  0  0  0  0  0
   48.6440    5.7420   17.5418 C   0  0  2  0  0  0  0  0  0  0  0  0
   49.6496    4.6465   17.1885 C   0  0  0  0  0  0  0  0  0  0  0  0
   46.6786    4.1780   18.1068 O   0  0  0  0  0  0  0  0  0  0  0  0
   47.8195    3.5658   16.2881 O   0  0  0  0  0  0  0  0  0  0  0  0
   49.9388    5.2202   16.8805 O   0  0  0  0  0  0  0  0  0  0  0  0
   50.4923    5.5177   19.3389 O   0  0  0  0  0  0  0  0  0  0  0  0
   47.4166    7.0562   19.4999 O   0  0  0  0  0  0  0  0  0  0  0  0
   48.5084    6.2479   21.2658 O   0  0  0  0  0  0  0  0  0  0  0  0
   47.7339    4.2761   17.2799 C   0  0  0  0  0  0  0  0  0  0  0  0
   48.7282    5.3651   17.6572 C   0  0  1  0  0  0  0  0  0  0  0  0
   49.0884    5.2769   19.1497 C   0  0  2  0  0  0  0  0  0  0  0  0
   48.2547    6.2837   19.9391 C   0  0  0  0  0  0  0  0  0  0  0  0
   48.3755    4.9377   18.6349 O   0  0  0  0  0  0  0  0  0  0  0  0
   48.7317    5.1648   17.7549 H   0  0  0  0  0  0  0  0  0  0  0  0
   48.4692    5.7507   19.1404 H   0  0  0  0  0  0  0  0  0  0  0  0
   49.8339    6.8157   22.1382 H   0  0  0  0  0  0  0  0  0  0  0  0
   48.6070    8.9559   21.7594 H   0  0  0  0  0  0  0  0  0  0  0  0
   46.6783    7.4435   18.4552 H   0  0  0  0  0  0  0  0  0  0  0  0
   49.4413    4.9239   20.5990 H   0  0  0  0  0  0  0  0  0  0  0  0
   46.6234    4.7049   18.5523 H   0  0  0  0  0  0  0  0  0  0  0  0
   48.0331    3.9657   15.2355 H   0  0  0  0  0  0  0  0  0  0  0  0
   46.5368    3.8228   16.1445 H   0  0  0  0  0  0  0  0  0  0  0  0
   47.5270    2.0586   17.2356 H   0  0  0  0  0  0  0  0  0  0  0  0
   49.1619    2.5411   16.7510 H   0  0  0  0  0  0  0  0  0  0  0  0
   48.0434    2.9729   19.3205 H   0  0  0  0  0  0  0  0  0  0  0  0
   49.5050    3.7169   18.6594 H   0  0  0  0  0  0  0  0  0  0  0  0
   49.9732    5.1748   16.8470 H   0  0  0  0  0  0  0  0  0  0  0  0
   49.2973    6.8005   17.0769 H   0  0  0  0  0  0  0  0  0  0  0  0
   49.1800    6.0279   15.5137 H   0  0  0  0  0  0  0  0  0  0  0  0
   47.9986    4.8046   21.7073 H   0  0  0  0  0  0  0  0  0  0  0  0
   46.2057    6.0090   19.6088 H   0  0  0  0  0  0  0  0  0  0  0  0
   48.3914    7.5302   18.2293 H   0  0  0  0  0  0  0  0  0  0  0  0
   51.4379    4.2841   16.8435 H   0  0  0  0  0  0  0  0  0  0  0  0
   47.1129    4.3183   18.1747 H   0  0  0  0  0  0  0  0  0  0  0  0
   48.1253    5.9802   16.6048 H   0  0  0  0  0  0  0  0  0  0  0  0
   46.1111    3.4799   17.7115 H   0  0  0  0  0  0  0  0  0  0  0  0
   49.6606    4.8946   15.9999 H   0  0  0  0  0  0  0  0  0  0  0  0
   50.8661    5.6093   18.4366 H   0  0  0  0  0  0  0  0  0  0  0  0
   47.9474    6.9540   21.6464 H   0  0  0  0  0  0  0  0  0  0  0  0
   48.2960    6.3274   17.3673 H   0  0  0  0  0  0  0  0  0  0  0  0
   48.8753    4.2793   19.5505 H   0  0  0  0  0  0  0  0  0  0  0  0
   48.7260    5.1480   17.7562 H   0  0  0  0  0  0  0  0  0  0  0  0
   48.4765    5.7641   19.1309 H   0  0  0  0  0  0  0  0  0  0  0  0
  7  2  2  0
  2  3  1  0
  8  6  1  0
  8  9  1  0
  4  5  1  0
  5  6  2  0
  3  4  2  0
  9 10  1  0
 10 11  1  0
 11 12  1  0
  8 12  1  0
  6  7  1  0
  9 13  1  0
 20 15  2  0
 21 16  1  0
 22 17  1  0
 20 14  1  0
 22 23  1  0
 21 22  1  0
 23 19  1  0
 20 21  1  0
 23 18  2  0
 30 25  2  0
 31 26  1  0
 32 27  1  0
 30 24  1  0
 32 33  1  0
 31 32  1  0
 33 29  1  0
 30 31  1  0
 33 28  2  0
  1 35  1  0
  1 36  1  0
  2 37  1  0
  3 38  1  0
  5 39  1  0
  7 40  1  0
  8 41  1  6
 10 42  1  0
 10 43  1  0
 11 44  1  0
 11 45  1  0
 12 46  1  0
 12 47  1  0
 13 48  1  0
 13 49  1  0
 13 50  1  0
 14 51  1  0
 16 52  1  0
 17 53  1  0
 19 54  1  0
 21 55  1  6
 22 56  1  6
 24 57  1  0
 26 58  1  0
 27 59  1  0
 29 60  1  0
 31 61  1  6
 32 62  1  1
 34 63  1  0
 34 64  1  0
M  END
> <Uni-Dock RESULT> 
ENERGY=   -4.210  LOWER_BOUND=    5.928  UPPER_BOUND=    8.004
INTER + INTRA:          -4.210
INTER:                  -4.210
INTRA:                   0.000
UNBOUND:                 0.000

$$$$

     RDKit          3D

 64 61  0  0  0  0  0  0  0  0999 V2000
   44.6746    5.5499   11.3902 O   0  0  0  0  0  0  0  0  0  0  0  0
   45.1453    8.5557   12.9567 C   0  0  0  0  0  0  0  0  0  0  0  0
   46.5021    8.6318   13.2178 C   0  0  0  0  0  0  0  0  0  0  0  0
   47.3983    7.7259   12.7797 N   0  0  0  0  0  0  0  0  0  0  0  0
   46.9096    6.6937   12.0517 C   0  0  0  0  0  0  0  0  0  0  0  0
   45.5621    6.5094   11.7359 C   0  0  0  0  0  0  0  0  0  0  0  0
   44.6732    7.4833   12.2017 C   0  0  0  0  0  0  0  0  0  0  0  0
   45.1548    5.3322   10.8835 C   0  0  1  0  0  0  0  0  0  0  0  0
   45.5979    3.9983   11.3643 N   0  0  0  0  0  0  0  0  0  0  0  0
   44.9118    3.0591   10.4599 C   0  0  0  0  0  0  0  0  0  0  0  0
   43.5615    3.6844   10.1276 C   0  0  0  0  0  0  0  0  0  0  0  0
   43.6659    5.1360   10.5812 C   0  0  0  0  0  0  0  0  0  0  0  0
   45.2303    3.7211   12.7580 C   0  0  0  0  0  0  0  0  0  0  0  0
   44.9423    7.8673   10.5472 O   0  0  0  0  0  0  0  0  0  0  0  0
   43.3050    6.7832   11.6089 O   0  0  0  0  0  0  0  0  0  0  0  0
   46.7385    6.0208   10.8748 O   0  0  0  0  0  0  0  0  0  0  0  0
   45.7977    5.3411   13.3718 O   0  0  0  0  0  0  0  0  0  0  0  0
   43.2414    3.6287   11.3871 O   0  0  0  0  0  0  0  0  0  0  0  0
   43.4539    3.9086   13.5904 O   0  0  0  0  0  0  0  0  0  0  0  0
   44.4213    6.7542   11.1232 C   0  0  0  0  0  0  0  0  0  0  0  0
   45.3765    5.5653   11.0011 C   0  0  2  0  0  0  0  0  0  0  0  0
   45.3029    4.6500   12.2246 C   0  0  2  0  0  0  0  0  0  0  0  0
   43.9087    4.0326   12.3293 C   0  0  0  0  0  0  0  0  0  0  0  0
   45.3093    4.9517    9.6679 O   0  0  0  0  0  0  0  0  0  0  0  0
   44.4595    2.9997   10.3400 O   0  0  0  0  0  0  0  0  0  0  0  0
   44.2040    3.8411   12.9487 O   0  0  0  0  0  0  0  0  0  0  0  0
   43.6067    6.2822   13.2994 O   0  0  0  0  0  0  0  0  0  0  0  0
   46.7021    6.8900   11.9201 O   0  0  0  0  0  0  0  0  0  0  0  0
   45.0682    8.3992   12.0486 O   0  0  0  0  0  0  0  0  0  0  0  0
   44.8549    4.1217   10.6228 C   0  0  0  0  0  0  0  0  0  0  0  0
   44.9480    4.6797   12.0359 C   0  0  1  0  0  0  0  0  0  0  0  0
   44.3708    6.1039   12.0957 C   0  0  2  0  0  0  0  0  0  0  0  0
   45.5068    7.1215   12.0191 C   0  0  0  0  0  0  0  0  0  0  0  0
   44.6766    5.5586   11.3904 O   0  0  0  0  0  0  0  0  0  0  0  0
   44.7792    4.7327   11.9003 H   0  0  0  0  0  0  0  0  0  0  0  0
   45.1232    6.2202   11.9271 H   0  0  0  0  0  0  0  0  0  0  0  0
   44.4690    9.3170   13.3288 H   0  0  0  0  0  0  0  0  0  0  0  0
   46.9163    9.4493   13.8004 H   0  0  0  0  0  0  0  0  0  0  0  0
   47.6611    5.9817   11.7157 H   0  0  0  0  0  0  0  0  0  0  0  0
   43.6105    7.4303   11.9853 H   0  0  0  0  0  0  0  0  0  0  0  0
   45.6516    5.5002    9.9149 H   0  0  0  0  0  0  0  0  0  0  0  0
   44.8144    2.0475   10.8699 H   0  0  0  0  0  0  0  0  0  0  0  0
   45.5051    2.9661    9.5415 H   0  0  0  0  0  0  0  0  0  0  0  0
   43.3558    3.6185    9.0540 H   0  0  0  0  0  0  0  0  0  0  0  0
   42.7474    3.1805   10.6598 H   0  0  0  0  0  0  0  0  0  0  0  0
   43.3088    5.8267    9.8098 H   0  0  0  0  0  0  0  0  0  0  0  0
   43.0389    5.2786   11.4693 H   0  0  0  0  0  0  0  0  0  0  0  0
   44.1545    3.7974   12.9496 H   0  0  0  0  0  0  0  0  0  0  0  0
   45.7513    4.3929   13.4479 H   0  0  0  0  0  0  0  0  0  0  0  0
   45.5477    2.7079   13.0313 H   0  0  0  0  0  0  0  0  0  0  0  0
   44.2468    8.5463   10.6916 H   0  0  0  0  0  0  0  0  0  0  0  0
   46.6889    6.8245   10.3169 H   0  0  0  0  0  0  0  0  0  0  0  0
   46.6609    5.7095   13.1008 H   0  0  0  0  0  0  0  0  0  0  0  0
   42.5498    3.5461   13.4978 H   0  0  0  0  0  0  0  0  0  0  0  0
   45.1200    5.0299   10.0813 H   0  0  0  0  0  0  0  0  0  0  0  0
   45.9896    3.8065   12.0809 H   0  0  0  0  0  0  0  0  0  0  0  0
   45.2333    4.4413    8.8316 H   0  0  0  0  0  0  0  0  0  0  0  0
   44.3075    2.9237   12.6223 H   0  0  0  0  0  0  0  0  0  0  0  0
   43.6019    5.4052   13.7387 H   0  0  0  0  0  0  0  0  0  0  0  0
   45.8820    8.9430   12.0315 H   0  0  0  0  0  0  0  0  0  0  0  0
   45.9936    4.6175   12.3517 H   0  0  0  0  0  0  0  0  0  0  0  0
   43.6952    6.2933   11.2537 H   0  0  0  0  0  0  0  0  0  0  0  0
   44.7702    4.7306   11.8852 H   0  0  0  0  0  0  0  0  0  0  0  0
   45.1302    6.2135   11.9422 H   0  0  0  0  0  0  0  0  0  0  0  0
  7  2  2  0
  2  3  1  0
  8  6  1  0
  8  9  1  0
  4  5  1  0
  5  6  2  0
  3  4  2  0
  9 10  1  0
 10 11  1  0
 11 12  1  0
  8 12  1  0
  6  7  1  0
  9 13  1  0
 20 15  2  0
 21 16  1  0
 22 17  1  0
 20 14  1  0
 22 23  1  0
 21 22  1  0
 23 19  1  0
 20 21  1  0
 23 18  2  0
 30 25  2  0
 31 26  1  0
 32 27  1  0
 30 24  1  0
 32 33  1  0
 31 32  1  0
 33 29  1  0
 30 31  1  0
 33 28  2  0
  1 35  1  0
  1 36  1  0
  2 37  1  0
  3 38  1  0
  5 39  1  0
  7 40  1  0
  8 41  1  6
 10 42  1  0
 10 43  1  0
 11 44  1  0
 11 45  1  0
 12 46  1  0
 12 47  1  0
 13 48  1  0
 13 49  1  0
 13 50  1  0
 14 51  1  0
 16 52  1  0
 17 53  1  0
 19 54  1  0
 21 55  1  6
 22 56  1  6
 24 57  1  0
 26 58  1  0
 27 59  1  0
 29 60  1  0
 31 61  1  6
 32 62  1  1
 34 63  1  0
 34 64  1  0
M  END
> <Uni-Dock RESULT> 
ENERGY=   -4.184  LOWER_BOUND=    1.098  UPPER_BOUND=    1.691
INTER + INTRA:          -4.184
INTER:                  -4.184
INTRA:                   0.000
UNBOUND:                 0.000

$$$$

     RDKit          3D

 64 61  0  0  0  0  0  0  0  0999 V2000
   54.2250    6.4076    8.7410 O   0  0  0  0  0  0  0  0  0  0  0  0
   52.7262    8.5679    6.5507 C   0  0  0  0  0  0  0  0  0  0  0  0
   53.6094    8.6997    5.4936 C   0  0  0  0  0  0  0  0  0  0  0  0
   54.7393    7.9758    5.3704 N   0  0  0  0  0  0  0  0  0  0  0  0
   54.9971    7.0834    6.3560 C   0  0  0  0  0  0  0  0  0  0  0  0
   54.1852    6.8727    7.4721 C   0  0  0  0  0  0  0  0  0  0  0  0
   53.0175    7.6385    7.5478 C   0  0  0  0  0  0  0  0  0  0  0  0
   54.5708    5.8182    8.4809 C   0  0  1  0  0  0  0  0  0  0  0  0
   55.9395    5.9311    9.0471 N   0  0  0  0  0  0  0  0  0  0  0  0
   55.9602    4.9096   10.1086 C   0  0  0  0  0  0  0  0  0  0  0  0
   54.5555    4.8696   10.7002 C   0  0  0  0  0  0  0  0  0  0  0  0
   53.6795    5.6322    9.7128 C   0  0  0  0  0  0  0  0  0  0  0  0
   56.2386    7.2536    9.6094 C   0  0  0  0  0  0  0  0  0  0  0  0
   52.5148    6.0983    6.9712 O   0  0  0  0  0  0  0  0  0  0  0  0
   52.4995    7.0430    8.9936 O   0  0  0  0  0  0  0  0  0  0  0  0
   55.0916    5.8069    6.8343 O   0  0  0  0  0  0  0  0  0  0  0  0
   55.5778    8.1628    8.1743 O   0  0  0  0  0  0  0  0  0  0  0  0
   54.6922    6.1083   11.0727 O   0  0  0  0  0  0  0  0  0  0  0  0
   55.1564    8.2834   10.8948 O   0  0  0  0  0  0  0  0  0  0  0  0
   53.1241    6.4525    8.1311 C   0  0  0  0  0  0  0  0  0  0  0  0
   54.5732    5.9630    8.1705 C   0  0  2  0  0  0  0  0  0  0  0  0
   55.4836    6.9439    8.9117 C   0  0  2  0  0  0  0  0  0  0  0  0
   55.0567    7.0452   10.3758 C   0  0  0  0  0  0  0  0  0  0  0  0
   54.6541    4.5384    8.5201 O   0  0  0  0  0  0  0  0  0  0  0  0
   55.6825    4.8259   10.4806 O   0  0  0  0  0  0  0  0  0  0  0  0
   55.5351    7.5704   10.3228 O   0  0  0  0  0  0  0  0  0  0  0  0
   53.4641    8.5329    9.2167 O   0  0  0  0  0  0  0  0  0  0  0  0
   54.6893    7.0224    6.3758 O   0  0  0  0  0  0  0  0  0  0  0  0
   52.5715    7.6609    6.6428 O   0  0  0  0  0  0  0  0  0  0  0  0
   55.1922    5.3177    9.4741 C   0  0  0  0  0  0  0  0  0  0  0  0
   55.1877    6.8043    9.1471 C   0  0  1  0  0  0  0  0  0  0  0  0
   53.7969    7.2489    8.6641 C   0  0  2  0  0  0  0  0  0  0  0  0
   53.7739    7.2934    7.1378 C   0  0  0  0  0  0  0  0  0  0  0  0
   54.2200    6.4096    8.7338 O   0  0  0  0  0  0  0  0  0  0  0  0
   55.0077    6.7025    9.2303 H   0  0  0  0  0  0  0  0  0  0  0  0
   54.1577    7.0359    8.0064 H   0  0  0  0  0  0  0  0  0  0  0  0
   51.8273    9.1724    6.5963 H   0  0  0  0  0  0  0  0  0  0  0  0
   53.4242    9.4096    4.6930 H   0  0  0  0  0  0  0  0  0  0  0  0
   55.9175    6.5176    6.2241 H   0  0  0  0  0  0  0  0  0  0  0  0
   52.3181    7.5251    8.3705 H   0  0  0  0  0  0  0  0  0  0  0  0
   54.5366    4.8688    7.9233 H   0  0  0  0  0  0  0  0  0  0  0  0
   56.7294    5.0833   10.8695 H   0  0  0  0  0  0  0  0  0  0  0  0
   56.1896    3.9388    9.6512 H   0  0  0  0  0  0  0  0  0  0  0  0
   54.2123    3.8364   10.8185 H   0  0  0  0  0  0  0  0  0  0  0  0
   54.5235    5.3516   11.6833 H   0  0  0  0  0  0  0  0  0  0  0  0
   52.7628    5.0812    9.4773 H   0  0  0  0  0  0  0  0  0  0  0  0
   53.3851    6.5885   10.1613 H   0  0  0  0  0  0  0  0  0  0  0  0
   55.5350    7.5662   10.3887 H   0  0  0  0  0  0  0  0  0  0  0  0
   56.2536    8.0228    8.8305 H   0  0  0  0  0  0  0  0  0  0  0  0
   57.2437    7.2523   10.0472 H   0  0  0  0  0  0  0  0  0  0  0  0
   51.6083    6.4653    7.0678 H   0  0  0  0  0  0  0  0  0  0  0  0
   54.3426    5.4572    6.3086 H   0  0  0  0  0  0  0  0  0  0  0  0
   55.8026    7.8974    7.2614 H   0  0  0  0  0  0  0  0  0  0  0  0
   54.8135    8.2024   11.8076 H   0  0  0  0  0  0  0  0  0  0  0  0
   54.5746    4.9758    8.6436 H   0  0  0  0  0  0  0  0  0  0  0  0
   56.5038    6.5405    8.9287 H   0  0  0  0  0  0  0  0  0  0  0  0
   54.7739    3.6193    8.8465 H   0  0  0  0  0  0  0  0  0  0  0  0
   56.1885    7.0327   10.8155 H   0  0  0  0  0  0  0  0  0  0  0  0
   54.2025    8.7565    9.8224 H   0  0  0  0  0  0  0  0  0  0  0  0
   52.6983    7.6866    5.6725 H   0  0  0  0  0  0  0  0  0  0  0  0
   55.9835    6.9890    8.4194 H   0  0  0  0  0  0  0  0  0  0  0  0
   53.0211    6.5466    8.9897 H   0  0  0  0  0  0  0  0  0  0  0  0
   54.9998    6.6882    9.2373 H   0  0  0  0  0  0  0  0  0  0  0  0
   54.1707    7.0483    8.0066 H   0  0  0  0  0  0  0  0  0  0  0  0
  7  2  2  0
  2  3  1  0
  8  6  1  0
  8  9  1  0
  4  5  1  0
  5  6  2  0
  3  4  2  0
  9 10  1  0
 10 11  1  0
 11 12  1  0
  8 12  1  0
  6  7  1  0
  9 13  1  0
 20 15  2  0
 21 16  1  0
 22 17  1  0
 20 14  1  0
 22 23  1  0
 21 22  1  0
 23 19  1  0
 20 21  1  0
 23 18  2  0
 30 25  2  0
 31 26  1  0
 32 27  1  0
 30 24  1  0
 32 33  1  0
 31 32  1  0
 33 29  1  0
 30 31  1  0
 33 28  2  0
  1 35  1  0
  1 36  1  0
  2 37  1  0
  3 38  1  0
  5 39  1  0
  7 40  1  0
  8 41  1  6
 10 42  1  0
 10 43  1  0
 11 44  1  0
 11 45  1  0
 12 46  1  0
 12 47  1  0
 13 48  1  0
 13 49  1  0
 13 50  1  0
 14 51  1  0
 16 52  1  0
 17 53  1  0
 19 54  1  0
 21 55  1  6
 22 56  1  6
 24 57  1  0
 26 58  1  0
 27 59  1  0
 29 60  1  0
 31 61  1  6
 32 62  1  1
 34 63  1  0
 34 64  1  0
M  END
> <Uni-Dock RESULT> 
ENERGY=   -4.053  LOWER_BOUND=    9.197  UPPER_BOUND=   10.744
INTER + INTRA:          -4.053
INTER:                  -4.053
INTRA:                   0.000
UNBOUND:                 0.000

$$$$

     RDKit          3D

 64 61  0  0  0  0  0  0  0  0999 V2000
   49.0427    5.0578   19.4366 O   0  0  0  0  0  0  0  0  0  0  0  0
   50.3194    6.6370   22.1909 C   0  0  0  0  0  0  0  0  0  0  0  0
   49.3940    6.4344   23.1995 C   0  0  0  0  0  0  0  0  0  0  0  0
   48.3111    5.6428   23.0708 N   0  0  0  0  0  0  0  0  0  0  0  0
   48.1467    5.0317   21.8733 C   0  0  0  0  0  0  0  0  0  0  0  0
   49.0084    5.1703   20.7835 C   0  0  0  0  0  0  0  0  0  0  0  0
   50.1246    5.9915   20.9710 C   0  0  0  0  0  0  0  0  0  0  0  0
   48.7281    4.4023   19.5146 C   0  0  1  0  0  0  0  0  0  0  0  0
   47.3749    4.5863   18.9298 N   0  0  0  0  0  0  0  0  0  0  0  0
   47.4582    3.8841   17.6373 C   0  0  0  0  0  0  0  0  0  0  0  0
   48.8818    4.0801   17.1276 C   0  0  0  0  0  0  0  0  0  0  0  0
   49.6711    4.5998   18.3237 C   0  0  0  0  0  0  0  0  0  0  0  0
   47.0081    5.9921   18.7211 C   0  0  0  0  0  0  0  0  0  0  0  0
   50.7085    4.3835   21.1464 O   0  0  0  0  0  0  0  0  0  0  0  0
   50.7298    5.8312   19.4473 O   0  0  0  0  0  0  0  0  0  0  0  0
   48.1535    3.9251   21.0717 O   0  0  0  0  0  0  0  0  0  0  0  0
   47.5579    6.5220   20.3764 O   0  0  0  0  0  0  0  0  0  0  0  0
   48.6760    5.3638   17.0878 O   0  0  0  0  0  0  0  0  0  0  0  0
   48.0627    7.3844   17.8084 O   0  0  0  0  0  0  0  0  0  0  0  0
   50.1168    4.9993   20.0914 C   0  0  0  0  0  0  0  0  0  0  0  0
   48.7055    4.4591   19.8516 C   0  0  2  0  0  0  0  0  0  0  0  0
   47.7578    5.5501   19.3499 C   0  0  2  0  0  0  0  0  0  0  0  0
   48.2266    6.0602   17.9875 C   0  0  0  0  0  0  0  0  0  0  0  0
   48.7313    3.1763   19.1358 O   0  0  0  0  0  0  0  0  0  0  0  0
   47.7533    3.9177   17.2708 O   0  0  0  0  0  0  0  0  0  0  0  0
   47.7129    6.5253   18.1528 O   0  0  0  0  0  0  0  0  0  0  0  0
   49.6767    7.2715   19.5760 O   0  0  0  0  0  0  0  0  0  0  0  0
   48.4584    4.9952   21.8537 O   0  0  0  0  0  0  0  0  0  0  0  0
   50.5370    5.7971   21.8713 O   0  0  0  0  0  0  0  0  0  0  0  0
   48.1754    4.1504   18.3947 C   0  0  0  0  0  0  0  0  0  0  0  0
   48.0702    5.4945   19.1013 C   0  0  1  0  0  0  0  0  0  0  0  0
   49.4111    5.8706   19.7537 C   0  0  2  0  0  0  0  0  0  0  0  0
   49.3792    5.5089   21.2370 C   0  0  0  0  0  0  0  0  0  0  0  0
   49.0473    5.0580   19.4443 O   0  0  0  0  0  0  0  0  0  0  0  0
   48.2592    5.4286   19.0033 H   0  0  0  0  0  0  0  0  0  0  0  0
   49.0431    5.4709   20.3131 H   0  0  0  0  0  0  0  0  0  0  0  0
   51.1773    7.2803   22.3514 H   0  0  0  0  0  0  0  0  0  0  0  0
   49.5044    6.9149   24.1671 H   0  0  0  0  0  0  0  0  0  0  0  0
   47.2620    4.4014   21.8051 H   0  0  0  0  0  0  0  0  0  0  0  0
   50.8575    6.1396   20.1837 H   0  0  0  0  0  0  0  0  0  0  0  0
   48.8062    3.3423   19.8036 H   0  0  0  0  0  0  0  0  0  0  0  0
   46.7055    4.2113   16.9111 H   0  0  0  0  0  0  0  0  0  0  0  0
   47.2783    2.8156   17.8109 H   0  0  0  0  0  0  0  0  0  0  0  0
   49.2967    3.1361   16.7589 H   0  0  0  0  0  0  0  0  0  0  0  0
   48.9152    4.8071   16.3089 H   0  0  0  0  0  0  0  0  0  0  0  0
   50.6139    4.0573   18.4518 H   0  0  0  0  0  0  0  0  0  0  0  0
   49.9165    5.6555   18.1582 H   0  0  0  0  0  0  0  0  0  0  0  0
   47.7155    6.5388   18.0881 H   0  0  0  0  0  0  0  0  0  0  0  0
   46.9156    6.5245   19.6733 H   0  0  0  0  0  0  0  0  0  0  0  0
   46.0208    6.0520   18.2484 H   0  0  0  0  0  0  0  0  0  0  0  0
   51.5913    4.8123   21.1956 H   0  0  0  0  0  0  0  0  0  0  0  0
   48.9058    3.4899   21.5239 H   0  0  0  0  0  0  0  0  0  0  0  0
   47.3203    6.0115   21.1747 H   0  0  0  0  0  0  0  0  0  0  0  0
   48.4410    7.5680   16.9250 H   0  0  0  0  0  0  0  0  0  0  0  0
   48.7858    3.6346   19.1359 H   0  0  0  0  0  0  0  0  0  0  0  0
   46.7678    5.1103   19.1759 H   0  0  0  0  0  0  0  0  0  0  0  0
   48.6839    2.3720   18.5733 H   0  0  0  0  0  0  0  0  0  0  0  0
   47.1137    6.1029   17.5036 H   0  0  0  0  0  0  0  0  0  0  0  0
   48.9460    7.6071   19.0141 H   0  0  0  0  0  0  0  0  0  0  0  0
   50.3758    5.5569   22.8064 H   0  0  0  0  0  0  0  0  0  0  0  0
   47.2396    5.4351   19.8108 H   0  0  0  0  0  0  0  0  0  0  0  0
   50.2424    5.3238   19.2942 H   0  0  0  0  0  0  0  0  0  0  0  0
   48.2683    5.4171   18.9932 H   0  0  0  0  0  0  0  0  0  0  0  0
   49.0294    5.4821   20.3155 H   0  0  0  0  0  0  0  0  0  0  0  0
  7  2  2  0
  2  3  1  0
  8  6  1  0
  8  9  1  0
  4  5  1  0
  5  6  2  0
  3  4  2  0
  9 10  1  0
 10 11  1  0
 11 12  1  0
  8 12  1  0
  6  7  1  0
  9 13  1  0
 20 15  2  0
 21 16  1  0
 22 17  1  0
 20 14  1  0
 22 23  1  0
 21 22  1  0
 23 19  1  0
 20 21  1  0
 23 18  2  0
 30 25  2  0
 31 26  1  0
 32 27  1  0
 30 24  1  0
 32 33  1  0
 31 32  1  0
 33 29  1  0
 30 31  1  0
 33 28  2  0
  1 35  1  0
  1 36  1  0
  2 37  1  0
  3 38  1  0
  5 39  1  0
  7 40  1  0
  8 41  1  6
 10 42  1  0
 10 43  1  0
 11 44  1  0
 11 45  1  0
 12 46  1  0
 12 47  1  0
 13 48  1  0
 13 49  1  0
 13 50  1  0
 14 51  1  0
 16 52  1  0
 17 53  1  0
 19 54  1  0
 21 55  1  6
 22 56  1  6
 24 57  1  0
 26 58  1  0
 27 59  1  0
 29 60  1  0
 31 61  1  6
 32 62  1  1
 34 63  1  0
 34 64  1  0
M  END
> <Uni-Dock RESULT> 
ENERGY=   -4.027  LOWER_BOUND=    7.072  UPPER_BOUND=    8.899
INTER + INTRA:          -4.027
INTER:                  -4.027
INTRA:                   0.000
UNBOUND:                 0.000

$$$$

     RDKit          3D

 64 61  0  0  0  0  0  0  0  0999 V2000
   48.6994    5.8533   19.4255 O   0  0  0  0  0  0  0  0  0  0  0  0
   49.6633    3.5541   17.0814 C   0  0  0  0  0  0  0  0  0  0  0  0
   48.5717    2.7223   16.9038 C   0  0  0  0  0  0  0  0  0  0  0  0
   47.3694    2.9369   17.4734 N   0  0  0  0  0  0  0  0  0  0  0  0
   47.2598    4.0328   18.2616 C   0  0  0  0  0  0  0  0  0  0  0  0
   48.2939    4.9346   18.5203 C   0  0  0  0  0  0  0  0  0  0  0  0
   49.5181    4.6760   17.8956 C   0  0  0  0  0  0  0  0  0  0  0  0
   48.0271    6.1388   19.3903 C   0  0  1  0  0  0  0  0  0  0  0  0
   47.4513    5.8567   20.7304 N   0  0  0  0  0  0  0  0  0  0  0  0
   47.4775    7.1682   21.4012 C   0  0  0  0  0  0  0  0  0  0  0  0
   48.7253    7.8872   20.9006 C   0  0  0  0  0  0  0  0  0  0  0  0
   49.1888    7.0928   19.6849 C   0  0  0  0  0  0  0  0  0  0  0  0
   48.2167    4.8740   21.5069 C   0  0  0  0  0  0  0  0  0  0  0  0
   48.7731    5.9015   16.9466 O   0  0  0  0  0  0  0  0  0  0  0  0
   50.3302    5.9535   18.5452 O   0  0  0  0  0  0  0  0  0  0  0  0
   46.7987    5.2929   18.5197 O   0  0  0  0  0  0  0  0  0  0  0  0
   48.3722    3.6992   20.1216 O   0  0  0  0  0  0  0  0  0  0  0  0
   49.4586    6.9462   21.4190 O   0  0  0  0  0  0  0  0  0  0  0  0
   50.1548    4.8737   21.8641 O   0  0  0  0  0  0  0  0  0  0  0  0
   49.1500    5.8995   18.2505 C   0  0  0  0  0  0  0  0  0  0  0  0
   47.9355    5.8838   19.1809 C   0  0  2  0  0  0  0  0  0  0  0  0
   48.2053    5.0780   20.4529 C   0  0  2  0  0  0  0  0  0  0  0  0
   49.3194    5.7411   21.2623 C   0  0  0  0  0  0  0  0  0  0  0  0
   47.3403    7.2201   19.3166 O   0  0  0  0  0  0  0  0  0  0  0  0
   47.8201    7.4824   21.4811 O   0  0  0  0  0  0  0  0  0  0  0  0
   49.2328    5.1228   21.6054 O   0  0  0  0  0  0  0  0  0  0  0  0
   50.5489    4.4787   19.5337 O   0  0  0  0  0  0  0  0  0  0  0  0
   47.4488    4.1886   18.0644 O   0  0  0  0  0  0  0  0  0  0  0  0
   49.3559    4.4138   16.9347 O   0  0  0  0  0  0  0  0  0  0  0  0
   47.8732    6.7911   20.4738 C   0  0  0  0  0  0  0  0  0  0  0  0
   48.4598    5.3879   20.4129 C   0  0  1  0  0  0  0  0  0  0  0  0
   49.3780    5.2367   19.1885 C   0  0  2  0  0  0  0  0  0  0  0  0
   48.6116    4.5628   18.0526 C   0  0  0  0  0  0  0  0  0  0  0  0
   48.7000    5.8501   19.4171 O   0  0  0  0  0  0  0  0  0  0  0  0
   48.5745    5.5655   20.3423 H   0  0  0  0  0  0  0  0  0  0  0  0
   48.6773    5.0292   18.9163 H   0  0  0  0  0  0  0  0  0  0  0  0
   50.6066    3.3370   16.5930 H   0  0  0  0  0  0  0  0  0  0  0  0
   48.6366    1.8374   16.2777 H   0  0  0  0  0  0  0  0  0  0  0  0
   46.2760    4.1740   18.7053 H   0  0  0  0  0  0  0  0  0  0  0  0
   50.3704    5.3363   18.0245 H   0  0  0  0  0  0  0  0  0  0  0  0
   47.2736    6.7234   18.8392 H   0  0  0  0  0  0  0  0  0  0  0  0
   47.4434    7.1023   22.4946 H   0  0  0  0  0  0  0  0  0  0  0  0
   46.5865    7.7315   21.0962 H   0  0  0  0  0  0  0  0  0  0  0  0
   48.4960    8.9240   20.6327 H   0  0  0  0  0  0  0  0  0  0  0  0
   49.5106    7.9007   21.6642 H   0  0  0  0  0  0  0  0  0  0  0  0
   49.4085    7.7474   18.8347 H   0  0  0  0  0  0  0  0  0  0  0  0
   50.1119    6.5582   19.9383 H   0  0  0  0  0  0  0  0  0  0  0  0
   49.2655    5.1542   21.6535 H   0  0  0  0  0  0  0  0  0  0  0  0
   48.1869    3.8856   21.0371 H   0  0  0  0  0  0  0  0  0  0  0  0
   47.7627    4.7478   22.4968 H   0  0  0  0  0  0  0  0  0  0  0  0
   49.6277    5.9105   16.4616 H   0  0  0  0  0  0  0  0  0  0  0  0
   46.8535    5.6017   17.5916 H   0  0  0  0  0  0  0  0  0  0  0  0
   47.6028    3.4710   19.5646 H   0  0  0  0  0  0  0  0  0  0  0  0
   50.8283    5.4337   22.3001 H   0  0  0  0  0  0  0  0  0  0  0  0
   47.6819    6.9240   19.4090 H   0  0  0  0  0  0  0  0  0  0  0  0
   47.3146    5.1125   21.0926 H   0  0  0  0  0  0  0  0  0  0  0  0
   46.9635    8.1037   19.5236 H   0  0  0  0  0  0  0  0  0  0  0  0
   48.7744    5.5860   22.3363 H   0  0  0  0  0  0  0  0  0  0  0  0
   50.4793    4.3144   20.4983 H   0  0  0  0  0  0  0  0  0  0  0  0
   48.7710    3.9437   16.3061 H   0  0  0  0  0  0  0  0  0  0  0  0
   47.6283    4.6770   20.4269 H   0  0  0  0  0  0  0  0  0  0  0  0
   49.7207    6.2131   18.8272 H   0  0  0  0  0  0  0  0  0  0  0  0
   48.5763    5.5831   20.3405 H   0  0  0  0  0  0  0  0  0  0  0  0
   48.6749    5.0148   18.9266 H   0  0  0  0  0  0  0  0  0  0  0  0
  7  2  2  0
  2  3  1  0
  8  6  1  0
  8  9  1  0
  4  5  1  0
  5  6  2  0
  3  4  2  0
  9 10  1  0
 10 11  1  0
 11 12  1  0
  8 12  1  0
  6  7  1  0
  9 13  1  0
 20 15  2  0
 21 16  1  0
 22 17  1  0
 20 14  1  0
 22 23  1  0
 21 22  1  0
 23 19  1  0
 20 21  1  0
 23 18  2  0
 30 25  2  0
 31 26  1  0
 32 27  1  0
 30 24  1  0
 32 33  1  0
 31 32  1  0
 33 29  1  0
 30 31  1  0
 33 28  2  0
  1 35  1  0
  1 36  1  0
  2 37  1  0
  3 38  1  0
  5 39  1  0
  7 40  1  0
  8 41  1  6
 10 42  1  0
 10 43  1  0
 11 44  1  0
 11 45  1  0
 12 46  1  0
 12 47  1  0
 13 48  1  0
 13 49  1  0
 13 50  1  0
 14 51  1  0
 16 52  1  0
 17 53  1  0
 19 54  1  0
 21 55  1  6
 22 56  1  6
 24 57  1  0
 26 58  1  0
 27 59  1  0
 29 60  1  0
 31 61  1  6
 32 62  1  1
 34 63  1  0
 34 64  1  0
M  END
> <Uni-Dock RESULT> 
ENERGY=   -3.989  LOWER_BOUND=    6.756  UPPER_BOUND=    9.029
INTER + INTRA:          -3.989
INTER:                  -3.989
INTRA:                   0.000
UNBOUND:                 0.000

$$$$

     RDKit          3D

 64 61  0  0  0  0  0  0  0  0999 V2000
   48.3051    5.8956   20.8565 O   0  0  0  0  0  0  0  0  0  0  0  0
   48.3492    5.6445   17.4440 C   0  0  0  0  0  0  0  0  0  0  0  0
   48.7925    4.3626   17.1700 C   0  0  0  0  0  0  0  0  0  0  0  0
   49.0022    3.4271   18.1170 N   0  0  0  0  0  0  0  0  0  0  0  0
   48.7616    3.7971   19.3974 C   0  0  0  0  0  0  0  0  0  0  0  0
   48.3230    5.0627   19.7917 C   0  0  0  0  0  0  0  0  0  0  0  0
   48.1071    5.9942   18.7714 C   0  0  0  0  0  0  0  0  0  0  0  0
   48.0574    5.3332   21.2528 C   0  0  1  0  0  0  0  0  0  0  0  0
   49.1769    5.0339   22.1824 N   0  0  0  0  0  0  0  0  0  0  0  0
   48.7037    5.5602   23.4745 C   0  0  0  0  0  0  0  0  0  0  0  0
   47.8734    6.7999   23.1607 C   0  0  0  0  0  0  0  0  0  0  0  0
   47.6098    6.7403   21.6605 C   0  0  0  0  0  0  0  0  0  0  0  0
   50.4434    5.6738   21.8067 C   0  0  0  0  0  0  0  0  0  0  0  0
   46.5470    5.3968   19.1793 O   0  0  0  0  0  0  0  0  0  0  0  0
   47.6650    7.2423   19.7513 O   0  0  0  0  0  0  0  0  0  0  0  0
   48.0246    3.7572   20.5474 O   0  0  0  0  0  0  0  0  0  0  0  0
   50.3261    5.1861   20.0541 O   0  0  0  0  0  0  0  0  0  0  0  0
   48.9295    7.3603   22.6481 O   0  0  0  0  0  0  0  0  0  0  0  0
   50.7452    7.5714   21.3688 O   0  0  0  0  0  0  0  0  0  0  0  0
   47.4663    6.0544   19.9307 C   0  0  0  0  0  0  0  0  0  0  0  0
   48.0921    5.1313   20.9783 C   0  0  2  0  0  0  0  0  0  0  0  0
   49.5630    5.4699   21.2270 C   0  0  2  0  0  0  0  0  0  0  0  0
   49.6811    6.8766   21.8131 C   0  0  0  0  0  0  0  0  0  0  0  0
   47.2116    4.9573   22.1414 O   0  0  0  0  0  0  0  0  0  0  0  0
   48.5433    5.9822   23.6112 O   0  0  0  0  0  0  0  0  0  0  0  0
   50.3612    6.7133   21.6775 O   0  0  0  0  0  0  0  0  0  0  0  0
   49.4171    7.2908   19.3940 O   0  0  0  0  0  0  0  0  0  0  0  0
   48.5177    3.9688   19.2978 O   0  0  0  0  0  0  0  0  0  0  0  0
   47.6220    5.5485   18.0069 O   0  0  0  0  0  0  0  0  0  0  0  0
   48.3394    5.6144   22.4630 C   0  0  0  0  0  0  0  0  0  0  0  0
   49.3198    5.7803   21.3105 C   0  0  1  0  0  0  0  0  0  0  0  0
   48.6010    6.3132   20.0597 C   0  0  2  0  0  0  0  0  0  0  0  0
   48.2729    5.1527   19.1230 C   0  0  0  0  0  0  0  0  0  0  0  0
   48.3016    5.8934   20.8486 O   0  0  0  0  0  0  0  0  0  0  0  0
   49.1463    5.9178   21.3370 H   0  0  0  0  0  0  0  0  0  0  0  0
   48.5413    5.5391   19.9870 H   0  0  0  0  0  0  0  0  0  0  0  0
   48.1908    6.3561   16.6414 H   0  0  0  0  0  0  0  0  0  0  0  0
   48.9933    4.0442   16.1514 H   0  0  0  0  0  0  0  0  0  0  0  0
   48.9423    3.0173   20.1349 H   0  0  0  0  0  0  0  0  0  0  0  0
   47.7464    6.9957   18.9857 H   0  0  0  0  0  0  0  0  0  0  0  0
   47.2338    4.6526   21.5203 H   0  0  0  0  0  0  0  0  0  0  0  0
   49.5111    5.7670   24.1861 H   0  0  0  0  0  0  0  0  0  0  0  0
   48.0629    4.8029   23.9437 H   0  0  0  0  0  0  0  0  0  0  0  0
   46.9369    6.7951   23.7282 H   0  0  0  0  0  0  0  0  0  0  0  0
   48.4167    7.7173   23.4120 H   0  0  0  0  0  0  0  0  0  0  0  0
   46.5543    6.9189   21.4286 H   0  0  0  0  0  0  0  0  0  0  0  0
   48.1949    7.5231   21.1636 H   0  0  0  0  0  0  0  0  0  0  0  0
   50.3731    6.7635   21.7189 H   0  0  0  0  0  0  0  0  0  0  0  0
   50.8246    5.2761   20.8607 H   0  0  0  0  0  0  0  0  0  0  0  0
   51.2105    5.4475   22.5565 H   0  0  0  0  0  0  0  0  0  0  0  0
   46.2262    6.0855   18.5561 H   0  0  0  0  0  0  0  0  0  0  0  0
   47.1586    3.6723   20.0974 H   0  0  0  0  0  0  0  0  0  0  0  0
   50.0811    4.2756   19.7989 H   0  0  0  0  0  0  0  0  0  0  0  0
   50.6653    8.4512   21.7895 H   0  0  0  0  0  0  0  0  0  0  0  0
   47.4976    5.2209   21.8932 H   0  0  0  0  0  0  0  0  0  0  0  0
   49.9592    4.7952   21.9961 H   0  0  0  0  0  0  0  0  0  0  0  0
   46.7114    4.8853   22.9842 H   0  0  0  0  0  0  0  0  0  0  0  0
   50.5251    6.5772   22.6332 H   0  0  0  0  0  0  0  0  0  0  0  0
   50.2045    7.4083   19.9671 H   0  0  0  0  0  0  0  0  0  0  0  0
   47.5057    4.7303   17.4823 H   0  0  0  0  0  0  0  0  0  0  0  0
   49.8168    4.8185   21.1532 H   0  0  0  0  0  0  0  0  0  0  0  0
   47.6584    6.8060   20.3241 H   0  0  0  0  0  0  0  0  0  0  0  0
   49.1325    5.9237   21.3464 H   0  0  0  0  0  0  0  0  0  0  0  0
   48.5588    5.5355   19.9856 H   0  0  0  0  0  0  0  0  0  0  0  0
  7  2  2  0
  2  3  1  0
  8  6  1  0
  8  9  1  0
  4  5  1  0
  5  6  2  0
  3  4  2  0
  9 10  1  0
 10 11  1  0
 11 12  1  0
  8 12  1  0
  6  7  1  0
  9 13  1  0
 20 15  2  0
 21 16  1  0
 22 17  1  0
 20 14  1  0
 22 23  1  0
 21 22  1  0
 23 19  1  0
 20 21  1  0
 23 18  2  0
 30 25  2  0
 31 26  1  0
 32 27  1  0
 30 24  1  0
 32 33  1  0
 31 32  1  0
 33 29  1  0
 30 31  1  0
 33 28  2  0
  1 35  1  0
  1 36  1  0
  2 37  1  0
  3 38  1  0
  5 39  1  0
  7 40  1  0
  8 41  1  6
 10 42  1  0
 10 43  1  0
 11 44  1  0
 11 45  1  0
 12 46  1  0
 12 47  1  0
 13 48  1  0
 13 49  1  0
 13 50  1  0
 14 51  1  0
 16 52  1  0
 17 53  1  0
 19 54  1  0
 21 55  1  6
 22 56  1  6
 24 57  1  0
 26 58  1  0
 27 59  1  0
 29 60  1  0
 31 61  1  6
 32 62  1  1
 34 63  1  0
 34 64  1  0
M  END
> <Uni-Dock RESULT> 
ENERGY=   -3.926  LOWER_BOUND=    7.762  UPPER_BOUND=    9.976
INTER + INTRA:          -3.926
INTER:                  -3.926
INTRA:                   0.000
UNBOUND:                 0.000

$$$$
