
     RDKit          3D

 64 61  0  0  0  0  0  0  0  0999 V2000
   45.0625    5.7566   11.8340 O   0  0  0  0  0  0  0  0  0  0  0  0
   44.9871    9.2187   11.8315 C   0  0  0  0  0  0  0  0  0  0  0  0
   46.3047    9.4069   12.2099 C   0  0  0  0  0  0  0  0  0  0  0  0
   47.2004    8.4062   12.3185 N   0  0  0  0  0  0  0  0  0  0  0  0
   46.7504    7.1596   12.0389 C   0  0  0  0  0  0  0  0  0  0  0  0
   45.4514    6.8526   11.6291 C   0  0  0  0  0  0  0  0  0  0  0  0
   44.5577    7.9249   11.5397 C   0  0  0  0  0  0  0  0  0  0  0  0
   45.1025    5.4045   11.3353 C   0  0  1  0  0  0  0  0  0  0  0  0
   44.9017    4.6560   12.5954 N   0  0  0  0  0  0  0  0  0  0  0  0
   43.4743    4.7998   12.9141 C   0  0  0  0  0  0  0  0  0  0  0  0
   42.7369    4.9006   11.5860 C   0  0  0  0  0  0  0  0  0  0  0  0
   43.8150    5.1579   10.5410 C   0  0  0  0  0  0  0  0  0  0  0  0
   45.2749    3.2481   12.4561 C   0  0  0  0  0  0  0  0  0  0  0  0
   44.6748    3.9449   11.4829 O   0  0  0  0  0  0  0  0  0  0  0  0
   42.6690    4.2826   12.3854 O   0  0  0  0  0  0  0  0  0  0  0  0
   42.5826    6.9146   11.4972 O   0  0  0  0  0  0  0  0  0  0  0  0
   44.5996    6.8793   13.5070 O   0  0  0  0  0  0  0  0  0  0  0  0
   47.1079    5.9872   12.6673 O   0  0  0  0  0  0  0  0  0  0  0  0
   46.6012    6.2629   10.5094 O   0  0  0  0  0  0  0  0  0  0  0  0
   43.6353    4.7441   11.7978 C   0  0  0  0  0  0  0  0  0  0  0  0
   43.8090    6.1853   11.3253 C   0  0  2  0  0  0  0  0  0  0  0  0
   44.9141    6.8936   12.1072 C   0  0  2  0  0  0  0  0  0  0  0  0
   46.2928    6.3153   11.8177 C   0  0  0  0  0  0  0  0  0  0  0  0
   46.6963    6.5755   13.1741 O   0  0  0  0  0  0  0  0  0  0  0  0
   45.3476    8.3516   13.2616 O   0  0  0  0  0  0  0  0  0  0  0  0
   43.9912    7.5722   10.9556 O   0  0  0  0  0  0  0  0  0  0  0  0
   42.9198    5.6671   12.4391 O   0  0  0  0  0  0  0  0  0  0  0  0
   43.2394    4.0166   10.2066 O   0  0  0  0  0  0  0  0  0  0  0  0
   45.4498    3.9218   10.4948 O   0  0  0  0  0  0  0  0  0  0  0  0
   45.6476    7.2944   12.7285 C   0  0  0  0  0  0  0  0  0  0  0  0
   44.9425    6.6675   11.5347 C   0  0  1  0  0  0  0  0  0  0  0  0
   44.2456    5.3795   11.9751 C   0  0  2  0  0  0  0  0  0  0  0  0
   44.2290    4.3943   10.8150 C   0  0  0  0  0  0  0  0  0  0  0  0
   45.0691    5.7681   11.8341 O   0  0  0  0  0  0  0  0  0  0  0  0
   44.9443    6.7170   11.8873 H   0  0  0  0  0  0  0  0  0  0  0  0
   44.1599    5.4070   11.8787 H   0  0  0  0  0  0  0  0  0  0  0  0
   44.3063   10.0599   11.7681 H   0  0  0  0  0  0  0  0  0  0  0  0
   46.6842   10.3965   12.4462 H   0  0  0  0  0  0  0  0  0  0  0  0
   47.4948    6.3760   12.1599 H   0  0  0  0  0  0  0  0  0  0  0  0
   43.5215    7.7755   11.2540 H   0  0  0  0  0  0  0  0  0  0  0  0
   45.9453    5.0007   10.7567 H   0  0  0  0  0  0  0  0  0  0  0  0
   43.0848    3.9917   13.5438 H   0  0  0  0  0  0  0  0  0  0  0  0
   43.3316    5.7271   13.4825 H   0  0  0  0  0  0  0  0  0  0  0  0
   42.2042    3.9711   11.3566 H   0  0  0  0  0  0  0  0  0  0  0  0
   42.0019    5.7119   11.6079 H   0  0  0  0  0  0  0  0  0  0  0  0
   43.5448    5.9646    9.8529 H   0  0  0  0  0  0  0  0  0  0  0  0
   43.9283    4.2520    9.9309 H   0  0  0  0  0  0  0  0  0  0  0  0
   44.6981    2.7222   11.6875 H   0  0  0  0  0  0  0  0  0  0  0  0
   46.3387    3.1596   12.2090 H   0  0  0  0  0  0  0  0  0  0  0  0
   45.1317    2.7239   13.4077 H   0  0  0  0  0  0  0  0  0  0  0  0
   44.4082    3.0693   11.8395 H   0  0  0  0  0  0  0  0  0  0  0  0
   42.3680    6.8380   12.4491 H   0  0  0  0  0  0  0  0  0  0  0  0
   45.4376    7.0453   13.9826 H   0  0  0  0  0  0  0  0  0  0  0  0
   47.5034    5.8784   10.4832 H   0  0  0  0  0  0  0  0  0  0  0  0
   44.0110    6.1668   10.2494 H   0  0  0  0  0  0  0  0  0  0  0  0
   44.9453    7.9524   11.8242 H   0  0  0  0  0  0  0  0  0  0  0  0
   47.0523    7.1056   13.9194 H   0  0  0  0  0  0  0  0  0  0  0  0
   43.5364    7.9976   11.7109 H   0  0  0  0  0  0  0  0  0  0  0  0
   42.3878    5.8327   11.6344 H   0  0  0  0  0  0  0  0  0  0  0  0
   45.2801    3.2928    9.7602 H   0  0  0  0  0  0  0  0  0  0  0  0
   45.7115    6.4926   10.7743 H   0  0  0  0  0  0  0  0  0  0  0  0
   44.7646    4.8804   12.8005 H   0  0  0  0  0  0  0  0  0  0  0  0
   44.1785    5.3887   11.8766 H   0  0  0  0  0  0  0  0  0  0  0  0
   44.9192    6.7238   11.8893 H   0  0  0  0  0  0  0  0  0  0  0  0
  7  2  2  0
  2  3  1  0
  8  6  1  0
  8  9  1  0
  4  5  1  0
  5  6  2  0
  3  4  2  0
  9 10  1  0
 10 11  1  0
 11 12  1  0
  8 12  1  0
  6  7  1  0
  9 13  1  0
 20 15  2  0
 21 16  1  0
 22 17  1  0
 20 14  1  0
 22 23  1  0
 21 22  1  0
 23 19  1  0
 20 21  1  0
 23 18  2  0
 30 25  2  0
 31 26  1  0
 32 27  1  0
 30 24  1  0
 32 33  1  0
 31 32  1  0
 33 29  1  0
 30 31  1  0
 33 28  2  0
  1 35  1  0
  1 36  1  0
  2 37  1  0
  3 38  1  0
  5 39  1  0
  7 40  1  0
  8 41  1  1
 10 42  1  0
 10 43  1  0
 11 44  1  0
 11 45  1  0
 12 46  1  0
 12 47  1  0
 13 48  1  0
 13 49  1  0
 13 50  1  0
 14 51  1  0
 16 52  1  0
 17 53  1  0
 19 54  1  0
 21 55  1  1
 22 56  1  1
 24 57  1  0
 26 58  1  0
 27 59  1  0
 29 60  1  0
 31 61  1  1
 32 62  1  6
 34 63  1  0
 34 64  1  0
M  END
> <Uni-Dock RESULT> 
ENERGY=   -5.917  LOWER_BOUND=    0.000  UPPER_BOUND=    0.000
INTER + INTRA:          -5.917
INTER:                  -5.917
INTRA:                   0.000
UNBOUND:                 0.000

$$$$

     RDKit          3D

 64 61  0  0  0  0  0  0  0  0999 V2000
   49.1048    4.7819   18.9744 O   0  0  0  0  0  0  0  0  0  0  0  0
   47.4770    6.3341   21.6074 C   0  0  0  0  0  0  0  0  0  0  0  0
   48.5446    6.3159   22.4875 C   0  0  0  0  0  0  0  0  0  0  0  0
   49.7875    5.9241   22.1454 N   0  0  0  0  0  0  0  0  0  0  0  0
   49.9644    5.5281   20.8622 C   0  0  0  0  0  0  0  0  0  0  0  0
   48.9687    5.5234   19.8833 C   0  0  0  0  0  0  0  0  0  0  0  0
   47.6942    5.9310   20.2907 C   0  0  0  0  0  0  0  0  0  0  0  0
   49.3273    5.0664   18.4806 C   0  0  1  0  0  0  0  0  0  0  0  0
   49.4148    3.5907   18.4250 N   0  0  0  0  0  0  0  0  0  0  0  0
   48.0605    3.1296   18.0892 C   0  0  0  0  0  0  0  0  0  0  0  0
   47.4329    4.2100   17.2193 C   0  0  0  0  0  0  0  0  0  0  0  0
   48.3363    5.4275   17.3685 C   0  0  0  0  0  0  0  0  0  0  0  0
   50.3898    3.1416   17.4308 C   0  0  0  0  0  0  0  0  0  0  0  0
   49.5959    4.2041   17.2479 O   0  0  0  0  0  0  0  0  0  0  0  0
   47.6060    3.2194   17.0988 O   0  0  0  0  0  0  0  0  0  0  0  0
   46.3925    5.1703   18.6627 O   0  0  0  0  0  0  0  0  0  0  0  0
   48.0921    3.7442   20.4479 O   0  0  0  0  0  0  0  0  0  0  0  0
   50.7759    4.5107   20.4114 O   0  0  0  0  0  0  0  0  0  0  0  0
   50.3219    6.4363   19.3745 O   0  0  0  0  0  0  0  0  0  0  0  0
   48.2918    4.1094   17.5779 C   0  0  0  0  0  0  0  0  0  0  0  0
   47.8235    5.2037   18.5336 C   0  0  2  0  0  0  0  0  0  0  0  0
   48.4446    5.0304   19.9188 C   0  0  2  0  0  0  0  0  0  0  0  0
   49.9499    5.2614   19.9136 C   0  0  0  0  0  0  0  0  0  0  0  0
   50.1155    4.2614   20.9348 O   0  0  0  0  0  0  0  0  0  0  0  0
   48.1084    4.7532   21.7780 O   0  0  0  0  0  0  0  0  0  0  0  0
   47.3815    6.1851   19.5006 O   0  0  0  0  0  0  0  0  0  0  0  0
   47.2023    3.8409   18.2960 O   0  0  0  0  0  0  0  0  0  0  0  0
   48.3569    5.1053   16.0872 O   0  0  0  0  0  0  0  0  0  0  0  0
   50.3524    5.1928   17.0811 O   0  0  0  0  0  0  0  0  0  0  0  0
   48.8824    4.7945   20.8339 C   0  0  0  0  0  0  0  0  0  0  0  0
   48.6041    5.4344   19.4817 C   0  0  1  0  0  0  0  0  0  0  0  0
   48.5391    4.3468   18.4087 C   0  0  2  0  0  0  0  0  0  0  0  0
   49.0338    4.9145   17.0859 C   0  0  0  0  0  0  0  0  0  0  0  0
   49.1055    4.7882   18.9861 O   0  0  0  0  0  0  0  0  0  0  0  0
   48.5635    5.1484   19.6899 H   0  0  0  0  0  0  0  0  0  0  0  0
   48.4558    4.4286   18.3475 H   0  0  0  0  0  0  0  0  0  0  0  0
   46.4948    6.6515   21.9388 H   0  0  0  0  0  0  0  0  0  0  0  0
   48.4232    6.6215   23.5224 H   0  0  0  0  0  0  0  0  0  0  0  0
   50.9740    5.1973   20.6295 H   0  0  0  0  0  0  0  0  0  0  0  0
   46.8545    5.9343   19.6032 H   0  0  0  0  0  0  0  0  0  0  0  0
   50.2927    5.5365   18.2459 H   0  0  0  0  0  0  0  0  0  0  0  0
   48.0423    2.1461   17.6057 H   0  0  0  0  0  0  0  0  0  0  0  0
   47.4833    3.0259   19.0163 H   0  0  0  0  0  0  0  0  0  0  0  0
   47.3904    3.8988   16.1696 H   0  0  0  0  0  0  0  0  0  0  0  0
   46.4112    4.4298   17.5458 H   0  0  0  0  0  0  0  0  0  0  0  0
   47.7706    6.3471   17.5457 H   0  0  0  0  0  0  0  0  0  0  0  0
   48.8799    5.5721   16.4255 H   0  0  0  0  0  0  0  0  0  0  0  0
   50.1564    3.4771   16.4144 H   0  0  0  0  0  0  0  0  0  0  0  0
   51.3914    3.5021   17.6908 H   0  0  0  0  0  0  0  0  0  0  0  0
   50.4450    2.0472   17.4239 H   0  0  0  0  0  0  0  0  0  0  0  0
   49.7331    3.4506   16.6330 H   0  0  0  0  0  0  0  0  0  0  0  0
   46.1823    4.2652   18.9706 H   0  0  0  0  0  0  0  0  0  0  0  0
   48.7370    3.5479   21.1561 H   0  0  0  0  0  0  0  0  0  0  0  0
   51.3004    6.4418   19.4449 H   0  0  0  0  0  0  0  0  0  0  0  0
   48.0724    6.1721   18.0876 H   0  0  0  0  0  0  0  0  0  0  0  0
   48.0111    5.7615   20.6113 H   0  0  0  0  0  0  0  0  0  0  0  0
   50.1517    3.9100   21.8505 H   0  0  0  0  0  0  0  0  0  0  0  0
   46.7420    5.6372   19.9998 H   0  0  0  0  0  0  0  0  0  0  0  0
   46.6990    4.5280   17.8137 H   0  0  0  0  0  0  0  0  0  0  0  0
   50.5262    5.5225   16.1727 H   0  0  0  0  0  0  0  0  0  0  0  0
   49.4109    6.1542   19.3049 H   0  0  0  0  0  0  0  0  0  0  0  0
   49.1799    3.4887   18.6387 H   0  0  0  0  0  0  0  0  0  0  0  0
   48.4807    4.4255   18.3402 H   0  0  0  0  0  0  0  0  0  0  0  0
   48.5380    5.1454   19.6856 H   0  0  0  0  0  0  0  0  0  0  0  0
  7  2  2  0
  2  3  1  0
  8  6  1  0
  8  9  1  0
  4  5  1  0
  5  6  2  0
  3  4  2  0
  9 10  1  0
 10 11  1  0
 11 12  1  0
  8 12  1  0
  6  7  1  0
  9 13  1  0
 20 15  2  0
 21 16  1  0
 22 17  1  0
 20 14  1  0
 22 23  1  0
 21 22  1  0
 23 19  1  0
 20 21  1  0
 23 18  2  0
 30 25  2  0
 31 26  1  0
 32 27  1  0
 30 24  1  0
 32 33  1  0
 31 32  1  0
 33 29  1  0
 30 31  1  0
 33 28  2  0
  1 35  1  0
  1 36  1  0
  2 37  1  0
  3 38  1  0
  5 39  1  0
  7 40  1  0
  8 41  1  1
 10 42  1  0
 10 43  1  0
 11 44  1  0
 11 45  1  0
 12 46  1  0
 12 47  1  0
 13 48  1  0
 13 49  1  0
 13 50  1  0
 14 51  1  0
 16 52  1  0
 17 53  1  0
 19 54  1  0
 21 55  1  1
 22 56  1  1
 24 57  1  0
 26 58  1  0
 27 59  1  0
 29 60  1  0
 31 61  1  1
 32 62  1  6
 34 63  1  0
 34 64  1  0
M  END
> <Uni-Dock RESULT> 
ENERGY=   -4.979  LOWER_BOUND=    7.379  UPPER_BOUND=    8.591
INTER + INTRA:          -4.979
INTER:                  -4.979
INTRA:                   0.000
UNBOUND:                 0.000

$$$$

     RDKit          3D

 64 61  0  0  0  0  0  0  0  0999 V2000
   44.5652    5.1131   10.8563 O   0  0  0  0  0  0  0  0  0  0  0  0
   44.8120    2.1498    9.0817 C   0  0  0  0  0  0  0  0  0  0  0  0
   45.6502    2.6275    8.0898 C   0  0  0  0  0  0  0  0  0  0  0  0
   46.2095    3.8532    8.1114 N   0  0  0  0  0  0  0  0  0  0  0  0
   45.9091    4.6357    9.1754 C   0  0  0  0  0  0  0  0  0  0  0  0
   45.0941    4.2538   10.2429 C   0  0  0  0  0  0  0  0  0  0  0  0
   44.5312    2.9755   10.1692 C   0  0  0  0  0  0  0  0  0  0  0  0
   44.8648    5.2398   11.3745 C   0  0  1  0  0  0  0  0  0  0  0  0
   43.8839    6.2706   10.9701 N   0  0  0  0  0  0  0  0  0  0  0  0
   42.5698    5.7313   11.3472 C   0  0  0  0  0  0  0  0  0  0  0  0
   42.7880    4.8710   12.5842 C   0  0  0  0  0  0  0  0  0  0  0  0
   44.2947    4.6670   12.6768 C   0  0  0  0  0  0  0  0  0  0  0  0
   44.1401    7.5519   11.6284 C   0  0  0  0  0  0  0  0  0  0  0  0
   44.3073    6.3712   12.2372 O   0  0  0  0  0  0  0  0  0  0  0  0
   42.2003    5.6687   12.3744 O   0  0  0  0  0  0  0  0  0  0  0  0
   42.8960    3.0729   11.6661 O   0  0  0  0  0  0  0  0  0  0  0  0
   43.2933    4.6143    9.3048 O   0  0  0  0  0  0  0  0  0  0  0  0
   45.7135    5.9991    9.1748 O   0  0  0  0  0  0  0  0  0  0  0  0
   46.6279    4.7665   10.7978 O   0  0  0  0  0  0  0  0  0  0  0  0
   43.3620    5.4208   12.0897 C   0  0  0  0  0  0  0  0  0  0  0  0
   43.9105    4.0878   11.5871 C   0  0  2  0  0  0  0  0  0  0  0  0
   44.3837    4.1960   10.1383 C   0  0  2  0  0  0  0  0  0  0  0  0
   45.6032    5.0962    9.9912 C   0  0  0  0  0  0  0  0  0  0  0  0
   45.1342    5.5356    8.7038 O   0  0  0  0  0  0  0  0  0  0  0  0
   44.1653    3.5559    8.3526 O   0  0  0  0  0  0  0  0  0  0  0  0
   44.3994    2.8425   11.0361 O   0  0  0  0  0  0  0  0  0  0  0  0
   42.4898    4.6098   11.4926 O   0  0  0  0  0  0  0  0  0  0  0  0
   43.9365    5.2925   13.7842 O   0  0  0  0  0  0  0  0  0  0  0  0
   45.5141    6.3121   12.5803 O   0  0  0  0  0  0  0  0  0  0  0  0
   44.6303    4.3651    9.1407 C   0  0  0  0  0  0  0  0  0  0  0  0
   44.7294    4.1839   10.6483 C   0  0  1  0  0  0  0  0  0  0  0  0
   43.7974    5.1783   11.3418 C   0  0  2  0  0  0  0  0  0  0  0  0
   44.3925    5.5725   12.6861 C   0  0  0  0  0  0  0  0  0  0  0  0
   44.5714    5.1059   10.8471 O   0  0  0  0  0  0  0  0  0  0  0  0
   44.5239    4.2747   10.3721 H   0  0  0  0  0  0  0  0  0  0  0  0
   43.7894    5.0867   11.4363 H   0  0  0  0  0  0  0  0  0  0  0  0
   44.3825    1.1570    9.0094 H   0  0  0  0  0  0  0  0  0  0  0  0
   45.8978    2.0202    7.2244 H   0  0  0  0  0  0  0  0  0  0  0  0
   46.3598    5.6251    9.1466 H   0  0  0  0  0  0  0  0  0  0  0  0
   43.8647    2.6053   10.9416 H   0  0  0  0  0  0  0  0  0  0  0  0
   45.8466    5.6821   11.5949 H   0  0  0  0  0  0  0  0  0  0  0  0
   41.8113    6.5055   11.5097 H   0  0  0  0  0  0  0  0  0  0  0  0
   42.1974    5.1047   10.5274 H   0  0  0  0  0  0  0  0  0  0  0  0
   42.4196    5.3725   13.4860 H   0  0  0  0  0  0  0  0  0  0  0  0
   42.2616    3.9152   12.4930 H   0  0  0  0  0  0  0  0  0  0  0  0
   44.5632    3.6239   12.8697 H   0  0  0  0  0  0  0  0  0  0  0  0
   44.6706    5.2488   13.5289 H   0  0  0  0  0  0  0  0  0  0  0  0
   44.0954    7.4928   12.7214 H   0  0  0  0  0  0  0  0  0  0  0  0
   45.1269    7.9345   11.3444 H   0  0  0  0  0  0  0  0  0  0  0  0
   43.4097    8.2988   11.2976 H   0  0  0  0  0  0  0  0  0  0  0  0
   43.8043    7.1465   12.5698 H   0  0  0  0  0  0  0  0  0  0  0  0
   42.1481    3.4137   11.1346 H   0  0  0  0  0  0  0  0  0  0  0  0
   43.6897    4.9669    8.4836 H   0  0  0  0  0  0  0  0  0  0  0  0
   47.3276    5.4219   10.5891 H   0  0  0  0  0  0  0  0  0  0  0  0
   44.7144    3.7764   12.2620 H   0  0  0  0  0  0  0  0  0  0  0  0
   44.6714    3.2045    9.7695 H   0  0  0  0  0  0  0  0  0  0  0  0
   45.0176    5.4994    7.7300 H   0  0  0  0  0  0  0  0  0  0  0  0
   43.6224    2.5939   10.4951 H   0  0  0  0  0  0  0  0  0  0  0  0
   42.5634    3.9679   12.2278 H   0  0  0  0  0  0  0  0  0  0  0  0
   45.7638    6.5061   13.5098 H   0  0  0  0  0  0  0  0  0  0  0  0
   45.7816    4.3365   10.9126 H   0  0  0  0  0  0  0  0  0  0  0  0
   43.6716    6.1057   10.7727 H   0  0  0  0  0  0  0  0  0  0  0  0
   43.8038    5.1084   11.4386 H   0  0  0  0  0  0  0  0  0  0  0  0
   44.5034    4.2602   10.3789 H   0  0  0  0  0  0  0  0  0  0  0  0
  7  2  2  0
  2  3  1  0
  8  6  1  0
  8  9  1  0
  4  5  1  0
  5  6  2  0
  3  4  2  0
  9 10  1  0
 10 11  1  0
 11 12  1  0
  8 12  1  0
  6  7  1  0
  9 13  1  0
 20 15  2  0
 21 16  1  0
 22 17  1  0
 20 14  1  0
 22 23  1  0
 21 22  1  0
 23 19  1  0
 20 21  1  0
 23 18  2  0
 30 25  2  0
 31 26  1  0
 32 27  1  0
 30 24  1  0
 32 33  1  0
 31 32  1  0
 33 29  1  0
 30 31  1  0
 33 28  2  0
  1 35  1  0
  1 36  1  0
  2 37  1  0
  3 38  1  0
  5 39  1  0
  7 40  1  0
  8 41  1  1
 10 42  1  0
 10 43  1  0
 11 44  1  0
 11 45  1  0
 12 46  1  0
 12 47  1  0
 13 48  1  0
 13 49  1  0
 13 50  1  0
 14 51  1  0
 16 52  1  0
 17 53  1  0
 19 54  1  0
 21 55  1  1
 22 56  1  1
 24 57  1  0
 26 58  1  0
 27 59  1  0
 29 60  1  0
 31 61  1  1
 32 62  1  6
 34 63  1  0
 34 64  1  0
M  END
> <Uni-Dock RESULT> 
ENERGY=   -4.757  LOWER_BOUND=    1.709  UPPER_BOUND=    3.813
INTER + INTRA:          -4.757
INTER:                  -4.757
INTRA:                   0.000
UNBOUND:                 0.000

$$$$

     RDKit          3D

 64 61  0  0  0  0  0  0  0  0999 V2000
   45.1394    4.9225   12.5482 O   0  0  0  0  0  0  0  0  0  0  0  0
   47.6415    7.2536   12.0035 C   0  0  0  0  0  0  0  0  0  0  0  0
   48.3810    6.9610   13.1358 C   0  0  0  0  0  0  0  0  0  0  0  0
   48.1104    5.9283   13.9580 N   0  0  0  0  0  0  0  0  0  0  0  0
   47.0457    5.1579   13.6299 C   0  0  0  0  0  0  0  0  0  0  0  0
   46.2413    5.3448   12.5040 C   0  0  0  0  0  0  0  0  0  0  0  0
   46.5584    6.4350   11.6871 C   0  0  0  0  0  0  0  0  0  0  0  0
   45.0909    4.3839   12.2621 C   0  0  1  0  0  0  0  0  0  0  0  0
   43.9534    4.7062   13.1513 N   0  0  0  0  0  0  0  0  0  0  0  0
   43.1335    5.6713   12.4056 C   0  0  0  0  0  0  0  0  0  0  0  0
   43.2913    5.3322   10.9298 C   0  0  0  0  0  0  0  0  0  0  0  0
   44.4820    4.3850   10.8555 C   0  0  0  0  0  0  0  0  0  0  0  0
   43.1820    3.5129   13.5004 C   0  0  0  0  0  0  0  0  0  0  0  0
   43.7215    3.7063   12.2903 O   0  0  0  0  0  0  0  0  0  0  0  0
   42.4980    5.4130   11.5542 O   0  0  0  0  0  0  0  0  0  0  0  0
   44.7174    6.6914   10.4753 O   0  0  0  0  0  0  0  0  0  0  0  0
   45.0734    6.8486   13.2962 O   0  0  0  0  0  0  0  0  0  0  0  0
   46.1496    4.5683   14.4938 O   0  0  0  0  0  0  0  0  0  0  0  0
   46.8782    3.7585   12.5438 O   0  0  0  0  0  0  0  0  0  0  0  0
   43.6036    4.9173   11.7088 C   0  0  0  0  0  0  0  0  0  0  0  0
   44.9383    5.5187   11.2763 C   0  0  2  0  0  0  0  0  0  0  0  0
   45.7883    5.9046   12.4859 C   0  0  2  0  0  0  0  0  0  0  0  0
   46.2504    4.6914   13.2820 C   0  0  0  0  0  0  0  0  0  0  0  0
   46.1588    5.4470   14.5031 O   0  0  0  0  0  0  0  0  0  0  0  0
   46.6697    7.3244   13.4097 O   0  0  0  0  0  0  0  0  0  0  0  0
   46.1994    6.1390   10.9321 O   0  0  0  0  0  0  0  0  0  0  0  0
   43.6366    6.2413   11.5646 O   0  0  0  0  0  0  0  0  0  0  0  0
   43.4444    3.7135   10.3883 O   0  0  0  0  0  0  0  0  0  0  0  0
   44.5137    2.7517   12.0939 O   0  0  0  0  0  0  0  0  0  0  0  0
   46.2628    6.1733   13.3732 C   0  0  0  0  0  0  0  0  0  0  0  0
   45.8536    5.4129   12.1204 C   0  0  1  0  0  0  0  0  0  0  0  0
   44.3482    5.1465   12.1568 C   0  0  2  0  0  0  0  0  0  0  0  0
   44.0514    3.8363   11.4412 C   0  0  0  0  0  0  0  0  0  0  0  0
   45.1515    4.9269   12.5511 O   0  0  0  0  0  0  0  0  0  0  0  0
   45.7582    5.6469   12.3712 H   0  0  0  0  0  0  0  0  0  0  0  0
   44.3562    5.1507   12.0253 H   0  0  0  0  0  0  0  0  0  0  0  0
   47.8993    8.1030   11.3812 H   0  0  0  0  0  0  0  0  0  0  0  0
   49.2333    7.5700   13.4217 H   0  0  0  0  0  0  0  0  0  0  0  0
   46.8445    4.3491   14.3286 H   0  0  0  0  0  0  0  0  0  0  0  0
   45.9714    6.6710   10.8055 H   0  0  0  0  0  0  0  0  0  0  0  0
   45.4877    3.3788   12.4635 H   0  0  0  0  0  0  0  0  0  0  0  0
   42.0830    5.6837   12.7177 H   0  0  0  0  0  0  0  0  0  0  0  0
   43.5204    6.6808   12.5919 H   0  0  0  0  0  0  0  0  0  0  0  0
   42.3939    4.8407   10.5378 H   0  0  0  0  0  0  0  0  0  0  0  0
   43.4643    6.2367   10.3375 H   0  0  0  0  0  0  0  0  0  0  0  0
   45.1812    4.6559   10.0586 H   0  0  0  0  0  0  0  0  0  0  0  0
   44.1099    3.3800   10.6161 H   0  0  0  0  0  0  0  0  0  0  0  0
   42.7593    3.0014   12.6288 H   0  0  0  0  0  0  0  0  0  0  0  0
   43.8104    2.8005   14.0465 H   0  0  0  0  0  0  0  0  0  0  0  0
   42.3579    3.7794   14.1717 H   0  0  0  0  0  0  0  0  0  0  0  0
   42.7935    3.4583   12.4957 H   0  0  0  0  0  0  0  0  0  0  0  0
   44.1817    7.2893   11.0353 H   0  0  0  0  0  0  0  0  0  0  0  0
   45.4894    6.8278   14.1808 H   0  0  0  0  0  0  0  0  0  0  0  0
   47.1148    3.0542   13.1845 H   0  0  0  0  0  0  0  0  0  0  0  0
   45.4437    4.7927   10.6311 H   0  0  0  0  0  0  0  0  0  0  0  0
   46.6902    6.4297   12.1503 H   0  0  0  0  0  0  0  0  0  0  0  0
   46.4688    6.0543   15.2091 H   0  0  0  0  0  0  0  0  0  0  0  0
   45.9710    7.0729   11.1165 H   0  0  0  0  0  0  0  0  0  0  0  0
   43.7609    6.1462   10.5984 H   0  0  0  0  0  0  0  0  0  0  0  0
   44.2323    1.9953   11.5348 H   0  0  0  0  0  0  0  0  0  0  0  0
   46.4452    4.4910   12.1073 H   0  0  0  0  0  0  0  0  0  0  0  0
   43.9637    5.0386   13.1767 H   0  0  0  0  0  0  0  0  0  0  0  0
   44.3541    5.1284   12.0388 H   0  0  0  0  0  0  0  0  0  0  0  0
   45.7484    5.6647   12.3549 H   0  0  0  0  0  0  0  0  0  0  0  0
  7  2  2  0
  2  3  1  0
  8  6  1  0
  8  9  1  0
  4  5  1  0
  5  6  2  0
  3  4  2  0
  9 10  1  0
 10 11  1  0
 11 12  1  0
  8 12  1  0
  6  7  1  0
  9 13  1  0
 20 15  2  0
 21 16  1  0
 22 17  1  0
 20 14  1  0
 22 23  1  0
 21 22  1  0
 23 19  1  0
 20 21  1  0
 23 18  2  0
 30 25  2  0
 31 26  1  0
 32 27  1  0
 30 24  1  0
 32 33  1  0
 31 32  1  0
 33 29  1  0
 30 31  1  0
 33 28  2  0
  1 35  1  0
  1 36  1  0
  2 37  1  0
  3 38  1  0
  5 39  1  0
  7 40  1  0
  8 41  1  1
 10 42  1  0
 10 43  1  0
 11 44  1  0
 11 45  1  0
 12 46  1  0
 12 47  1  0
 13 48  1  0
 13 49  1  0
 13 50  1  0
 14 51  1  0
 16 52  1  0
 17 53  1  0
 19 54  1  0
 21 55  1  1
 22 56  1  1
 24 57  1  0
 26 58  1  0
 27 59  1  0
 29 60  1  0
 31 61  1  1
 32 62  1  6
 34 63  1  0
 34 64  1  0
M  END
> <Uni-Dock RESULT> 
ENERGY=   -4.696  LOWER_BOUND=    1.395  UPPER_BOUND=    1.899
INTER + INTRA:          -4.696
INTER:                  -4.696
INTRA:                   0.000
UNBOUND:                 0.000

$$$$

     RDKit          3D

 64 61  0  0  0  0  0  0  0  0999 V2000
   44.7727    5.7350   12.2537 O   0  0  0  0  0  0  0  0  0  0  0  0
   48.0942    6.5192   12.8404 C   0  0  0  0  0  0  0  0  0  0  0  0
   48.0083    7.8533   12.4832 C   0  0  0  0  0  0  0  0  0  0  0  0
   46.8484    8.4762   12.1967 N   0  0  0  0  0  0  0  0  0  0  0  0
   45.7247    7.7232   12.2676 C   0  0  0  0  0  0  0  0  0  0  0  0
   45.6874    6.3768   12.6356 C   0  0  0  0  0  0  0  0  0  0  0  0
   46.9183    5.7742   12.9152 C   0  0  0  0  0  0  0  0  0  0  0  0
   44.3439    5.6713   12.6853 C   0  0  1  0  0  0  0  0  0  0  0  0
   43.8893    5.3299   11.3196 N   0  0  0  0  0  0  0  0  0  0  0  0
   44.4351    3.9929   11.0470 C   0  0  0  0  0  0  0  0  0  0  0  0
   44.4944    3.2634   12.3820 C   0  0  0  0  0  0  0  0  0  0  0  0
   44.2975    4.3393   13.4422 C   0  0  0  0  0  0  0  0  0  0  0  0
   42.4299    5.3384   11.2151 C   0  0  0  0  0  0  0  0  0  0  0  0
   43.0825    4.9001   12.2990 O   0  0  0  0  0  0  0  0  0  0  0  0
   44.0545    3.0689   11.4907 O   0  0  0  0  0  0  0  0  0  0  0  0
   46.4396    3.6100   12.8108 O   0  0  0  0  0  0  0  0  0  0  0  0
   46.2373    5.6157   10.7994 O   0  0  0  0  0  0  0  0  0  0  0  0
   44.6215    7.7981   11.4464 O   0  0  0  0  0  0  0  0  0  0  0  0
   44.6522    7.3100   13.6259 O   0  0  0  0  0  0  0  0  0  0  0  0
   44.1564    4.1010   12.1360 C   0  0  0  0  0  0  0  0  0  0  0  0
   45.4095    4.6118   12.8424 C   0  0  2  0  0  0  0  0  0  0  0  0
   45.9399    5.8812   12.1778 C   0  0  2  0  0  0  0  0  0  0  0  0
   44.9965    7.0642   12.3490 C   0  0  0  0  0  0  0  0  0  0  0  0
   45.3696    7.5607   11.0510 O   0  0  0  0  0  0  0  0  0  0  0  0
   47.4148    6.6971   11.2804 O   0  0  0  0  0  0  0  0  0  0  0  0
   46.6259    5.1204   13.4383 O   0  0  0  0  0  0  0  0  0  0  0  0
   45.3218    3.6563   11.6680 O   0  0  0  0  0  0  0  0  0  0  0  0
   43.2965    3.4891   13.5865 O   0  0  0  0  0  0  0  0  0  0  0  0
   42.7031    5.6148   13.2597 O   0  0  0  0  0  0  0  0  0  0  0  0
   46.2427    6.7096   11.6240 C   0  0  0  0  0  0  0  0  0  0  0  0
   45.6219    5.8352   12.7036 C   0  0  1  0  0  0  0  0  0  0  0  0
   44.6400    4.8548   12.0609 C   0  0  2  0  0  0  0  0  0  0  0  0
   43.5113    4.5594   13.0384 C   0  0  0  0  0  0  0  0  0  0  0  0
   44.7820    5.7442   12.2554 O   0  0  0  0  0  0  0  0  0  0  0  0
   45.7273    5.8600   12.3644 H   0  0  0  0  0  0  0  0  0  0  0  0
   44.6715    4.7757   12.1615 H   0  0  0  0  0  0  0  0  0  0  0  0
   49.0560    6.0664   13.0529 H   0  0  0  0  0  0  0  0  0  0  0  0
   48.8971    8.4731   12.4125 H   0  0  0  0  0  0  0  0  0  0  0  0
   44.8116    8.2537   12.0074 H   0  0  0  0  0  0  0  0  0  0  0  0
   46.9866    4.7250   13.1841 H   0  0  0  0  0  0  0  0  0  0  0  0
   43.6525    6.3699   13.1774 H   0  0  0  0  0  0  0  0  0  0  0  0
   43.8659    3.4348   10.2949 H   0  0  0  0  0  0  0  0  0  0  0  0
   45.4499    4.1017   10.6447 H   0  0  0  0  0  0  0  0  0  0  0  0
   43.7022    2.5103   12.4578 H   0  0  0  0  0  0  0  0  0  0  0  0
   45.4553    2.7532   12.5060 H   0  0  0  0  0  0  0  0  0  0  0  0
   45.0202    4.2564   14.2596 H   0  0  0  0  0  0  0  0  0  0  0  0
   43.3036    4.2061   13.8895 H   0  0  0  0  0  0  0  0  0  0  0  0
   41.9441    4.6261   11.8911 H   0  0  0  0  0  0  0  0  0  0  0  0
   42.0392    6.3391   11.4310 H   0  0  0  0  0  0  0  0  0  0  0  0
   42.1235    5.0989   10.1906 H   0  0  0  0  0  0  0  0  0  0  0  0
   42.3728    4.4360   11.8032 H   0  0  0  0  0  0  0  0  0  0  0  0
   46.5781    3.4122   11.8622 H   0  0  0  0  0  0  0  0  0  0  0  0
   46.2658    6.4828   10.3486 H   0  0  0  0  0  0  0  0  0  0  0  0
   44.0562    8.0877   13.5760 H   0  0  0  0  0  0  0  0  0  0  0  0
   45.1628    4.7700   13.8973 H   0  0  0  0  0  0  0  0  0  0  0  0
   46.8952    6.1650   12.6347 H   0  0  0  0  0  0  0  0  0  0  0  0
   45.9105    8.0594   10.4015 H   0  0  0  0  0  0  0  0  0  0  0  0
   47.2706    4.8084   12.7711 H   0  0  0  0  0  0  0  0  0  0  0  0
   45.4787    3.1577   12.4956 H   0  0  0  0  0  0  0  0  0  0  0  0
   42.0232    5.2723   13.8798 H   0  0  0  0  0  0  0  0  0  0  0  0
   45.1371    6.5134   13.4143 H   0  0  0  0  0  0  0  0  0  0  0  0
   44.1716    5.2589   11.1569 H   0  0  0  0  0  0  0  0  0  0  0  0
   44.6491    4.7891   12.1603 H   0  0  0  0  0  0  0  0  0  0  0  0
   45.7404    5.8375   12.3638 H   0  0  0  0  0  0  0  0  0  0  0  0
  7  2  2  0
  2  3  1  0
  8  6  1  0
  8  9  1  0
  4  5  1  0
  5  6  2  0
  3  4  2  0
  9 10  1  0
 10 11  1  0
 11 12  1  0
  8 12  1  0
  6  7  1  0
  9 13  1  0
 20 15  2  0
 21 16  1  0
 22 17  1  0
 20 14  1  0
 22 23  1  0
 21 22  1  0
 23 19  1  0
 20 21  1  0
 23 18  2  0
 30 25  2  0
 31 26  1  0
 32 27  1  0
 30 24  1  0
 32 33  1  0
 31 32  1  0
 33 29  1  0
 30 31  1  0
 33 28  2  0
  1 35  1  0
  1 36  1  0
  2 37  1  0
  3 38  1  0
  5 39  1  0
  7 40  1  0
  8 41  1  1
 10 42  1  0
 10 43  1  0
 11 44  1  0
 11 45  1  0
 12 46  1  0
 12 47  1  0
 13 48  1  0
 13 49  1  0
 13 50  1  0
 14 51  1  0
 16 52  1  0
 17 53  1  0
 19 54  1  0
 21 55  1  1
 22 56  1  1
 24 57  1  0
 26 58  1  0
 27 59  1  0
 29 60  1  0
 31 61  1  1
 32 62  1  6
 34 63  1  0
 34 64  1  0
M  END
> <Uni-Dock RESULT> 
ENERGY=   -4.588  LOWER_BOUND=    1.092  UPPER_BOUND=    2.726
INTER + INTRA:          -4.588
INTER:                  -4.588
INTRA:                   0.000
UNBOUND:                 0.000

$$$$

     RDKit          3D

 64 61  0  0  0  0  0  0  0  0999 V2000
   46.5127    6.9044   12.2889 O   0  0  0  0  0  0  0  0  0  0  0  0
   44.3537    4.2658   12.8958 C   0  0  0  0  0  0  0  0  0  0  0  0
   43.4095    4.6107   11.9450 C   0  0  0  0  0  0  0  0  0  0  0  0
   43.5769    5.6074   11.0538 N   0  0  0  0  0  0  0  0  0  0  0  0
   44.7439    6.2914   11.1247 C   0  0  0  0  0  0  0  0  0  0  0  0
   45.7751    6.0204   12.0263 C   0  0  0  0  0  0  0  0  0  0  0  0
   45.5491    4.9819   12.9357 C   0  0  0  0  0  0  0  0  0  0  0  0
   47.0339    6.8675   11.9707 C   0  0  1  0  0  0  0  0  0  0  0  0
   46.7994    8.1829   12.6056 N   0  0  0  0  0  0  0  0  0  0  0  0
   47.1405    8.0007   14.0234 C   0  0  0  0  0  0  0  0  0  0  0  0
   48.2453    6.9545   14.0773 C   0  0  0  0  0  0  0  0  0  0  0  0
   48.2650    6.3128   12.6958 C   0  0  0  0  0  0  0  0  0  0  0  0
   47.6141    9.2336   11.9947 C   0  0  0  0  0  0  0  0  0  0  0  0
   48.0554    7.9838   12.1841 O   0  0  0  0  0  0  0  0  0  0  0  0
   48.1608    7.9089   14.4056 O   0  0  0  0  0  0  0  0  0  0  0  0
   47.0937    5.3440   14.4870 O   0  0  0  0  0  0  0  0  0  0  0  0
   44.9473    7.0102   13.6351 O   0  0  0  0  0  0  0  0  0  0  0  0
   44.9302    7.6400   10.9157 O   0  0  0  0  0  0  0  0  0  0  0  0
   46.3471    5.9873   10.4154 O   0  0  0  0  0  0  0  0  0  0  0  0
   47.8112    7.3766   13.3632 C   0  0  0  0  0  0  0  0  0  0  0  0
   47.1200    6.0231   13.2207 C   0  0  2  0  0  0  0  0  0  0  0  0
   45.6850    6.1853   12.7217 C   0  0  2  0  0  0  0  0  0  0  0  0
   45.6224    6.7056   11.2919 C   0  0  0  0  0  0  0  0  0  0  0  0
   44.4192    7.4323   11.5998 O   0  0  0  0  0  0  0  0  0  0  0  0
   43.8374    5.8842   13.0986 O   0  0  0  0  0  0  0  0  0  0  0  0
   46.3942    4.7763   13.1092 O   0  0  0  0  0  0  0  0  0  0  0  0
   47.1380    6.9415   14.4273 O   0  0  0  0  0  0  0  0  0  0  0  0
   49.4558    6.8589   12.8680 O   0  0  0  0  0  0  0  0  0  0  0  0
   48.3515    7.5321   11.0501 O   0  0  0  0  0  0  0  0  0  0  0  0
   44.7117    6.4096   12.4266 C   0  0  0  0  0  0  0  0  0  0  0  0
   46.1782    6.0046   12.3997 C   0  0  1  0  0  0  0  0  0  0  0  0
   47.0252    7.1224   13.0095 C   0  0  2  0  0  0  0  0  0  0  0  0
   48.3916    7.1413   12.3392 C   0  0  0  0  0  0  0  0  0  0  0  0
   46.5024    6.8970   12.2849 O   0  0  0  0  0  0  0  0  0  0  0  0
   45.9228    6.1876   12.5671 H   0  0  0  0  0  0  0  0  0  0  0  0
   47.1069    7.0251   13.0448 H   0  0  0  0  0  0  0  0  0  0  0  0
   44.1631    3.4592   13.5946 H   0  0  0  0  0  0  0  0  0  0  0  0
   42.4641    4.0810   11.8758 H   0  0  0  0  0  0  0  0  0  0  0  0
   44.8333    7.1025   10.4057 H   0  0  0  0  0  0  0  0  0  0  0  0
   46.2850    4.7191   13.6887 H   0  0  0  0  0  0  0  0  0  0  0  0
   47.2817    6.9728   10.9050 H   0  0  0  0  0  0  0  0  0  0  0  0
   47.4269    8.9317   14.5258 H   0  0  0  0  0  0  0  0  0  0  0  0
   46.2562    7.6259   14.5535 H   0  0  0  0  0  0  0  0  0  0  0  0
   49.2162    7.4140   14.2932 H   0  0  0  0  0  0  0  0  0  0  0  0
   48.0437    6.2135   14.8577 H   0  0  0  0  0  0  0  0  0  0  0  0
   48.3096    5.2206   12.7440 H   0  0  0  0  0  0  0  0  0  0  0  0
   49.1752    6.6398   12.1758 H   0  0  0  0  0  0  0  0  0  0  0  0
   48.6903    9.0421   12.0658 H   0  0  0  0  0  0  0  0  0  0  0  0
   47.3541    9.3492   10.9366 H   0  0  0  0  0  0  0  0  0  0  0  0
   47.4073   10.1975   12.4732 H   0  0  0  0  0  0  0  0  0  0  0  0
   48.5028    8.8188   12.4435 H   0  0  0  0  0  0  0  0  0  0  0  0
   46.6347    5.9555   15.0983 H   0  0  0  0  0  0  0  0  0  0  0  0
   44.1687    7.3411   13.1450 H   0  0  0  0  0  0  0  0  0  0  0  0
   46.2066    6.4343    9.5534 H   0  0  0  0  0  0  0  0  0  0  0  0
   47.7233    5.4039   12.5489 H   0  0  0  0  0  0  0  0  0  0  0  0
   45.1793    5.2126   12.7308 H   0  0  0  0  0  0  0  0  0  0  0  0
   43.4532    7.5639   11.7120 H   0  0  0  0  0  0  0  0  0  0  0  0
   45.8484    4.8389   13.9194 H   0  0  0  0  0  0  0  0  0  0  0  0
   47.7790    6.2121   14.5509 H   0  0  0  0  0  0  0  0  0  0  0  0
   49.2907    7.5176   10.7642 H   0  0  0  0  0  0  0  0  0  0  0  0
   46.4290    5.8090   11.3513 H   0  0  0  0  0  0  0  0  0  0  0  0
   46.5882    8.1148   12.8546 H   0  0  0  0  0  0  0  0  0  0  0  0
   47.1115    7.0412   13.0247 H   0  0  0  0  0  0  0  0  0  0  0  0
   45.9283    6.1789   12.5911 H   0  0  0  0  0  0  0  0  0  0  0  0
  7  2  2  0
  2  3  1  0
  8  6  1  0
  8  9  1  0
  4  5  1  0
  5  6  2  0
  3  4  2  0
  9 10  1  0
 10 11  1  0
 11 12  1  0
  8 12  1  0
  6  7  1  0
  9 13  1  0
 20 15  2  0
 21 16  1  0
 22 17  1  0
 20 14  1  0
 22 23  1  0
 21 22  1  0
 23 19  1  0
 20 21  1  0
 23 18  2  0
 30 25  2  0
 31 26  1  0
 32 27  1  0
 30 24  1  0
 32 33  1  0
 31 32  1  0
 33 29  1  0
 30 31  1  0
 33 28  2  0
  1 35  1  0
  1 36  1  0
  2 37  1  0
  3 38  1  0
  5 39  1  0
  7 40  1  0
  8 41  1  1
 10 42  1  0
 10 43  1  0
 11 44  1  0
 11 45  1  0
 12 46  1  0
 12 47  1  0
 13 48  1  0
 13 49  1  0
 13 50  1  0
 14 51  1  0
 16 52  1  0
 17 53  1  0
 19 54  1  0
 21 55  1  1
 22 56  1  1
 24 57  1  0
 26 58  1  0
 27 59  1  0
 29 60  1  0
 31 61  1  1
 32 62  1  6
 34 63  1  0
 34 64  1  0
M  END
> <Uni-Dock RESULT> 
ENERGY=   -4.357  LOWER_BOUND=    1.489  UPPER_BOUND=    4.201
INTER + INTRA:          -4.357
INTER:                  -4.357
INTRA:                   0.000
UNBOUND:                 0.000

$$$$

     RDKit          3D

 64 61  0  0  0  0  0  0  0  0999 V2000
   48.8131    5.6949   19.3504 O   0  0  0  0  0  0  0  0  0  0  0  0
   47.6459    3.1498   17.3129 C   0  0  0  0  0  0  0  0  0  0  0  0
   47.5633    3.8997   16.1529 C   0  0  0  0  0  0  0  0  0  0  0  0
   48.0176    5.1638   16.0472 N   0  0  0  0  0  0  0  0  0  0  0  0
   48.5758    5.7000   17.1588 C   0  0  0  0  0  0  0  0  0  0  0  0
   48.7311    5.0333   18.3757 C   0  0  0  0  0  0  0  0  0  0  0  0
   48.2359    3.7266   18.4366 C   0  0  0  0  0  0  0  0  0  0  0  0
   49.3940    5.7653   19.5290 C   0  0  1  0  0  0  0  0  0  0  0  0
   48.4462    6.7164   20.1497 N   0  0  0  0  0  0  0  0  0  0  0  0
   47.7567    5.9542   21.2001 C   0  0  0  0  0  0  0  0  0  0  0  0
   48.7507    4.9237   21.7177 C   0  0  0  0  0  0  0  0  0  0  0  0
   49.8820    4.9022   20.6978 C   0  0  0  0  0  0  0  0  0  0  0  0
   49.1329    7.8830   20.7050 C   0  0  0  0  0  0  0  0  0  0  0  0
   49.6395    6.6446   20.7544 O   0  0  0  0  0  0  0  0  0  0  0  0
   48.2116    5.6635   22.1510 O   0  0  0  0  0  0  0  0  0  0  0  0
   48.1240    3.3458   20.6197 O   0  0  0  0  0  0  0  0  0  0  0  0
   46.8027    5.3193   19.0486 O   0  0  0  0  0  0  0  0  0  0  0  0
   48.4815    7.0052   17.5885 O   0  0  0  0  0  0  0  0  0  0  0  0
   50.2296    5.6328   17.8116 O   0  0  0  0  0  0  0  0  0  0  0  0
   48.8311    5.6217   21.0991 C   0  0  0  0  0  0  0  0  0  0  0  0
   48.8250    4.4808   20.0849 C   0  0  2  0  0  0  0  0  0  0  0  0
   48.1499    4.9040   18.7812 C   0  0  2  0  0  0  0  0  0  0  0  0
   48.9452    5.9654   18.0330 C   0  0  0  0  0  0  0  0  0  0  0  0
   47.7232    6.5618   17.5626 O   0  0  0  0  0  0  0  0  0  0  0  0
   46.7209    4.5677   17.5600 O   0  0  0  0  0  0  0  0  0  0  0  0
   48.7454    3.4262   19.0974 O   0  0  0  0  0  0  0  0  0  0  0  0
   47.7642    4.8239   21.1129 O   0  0  0  0  0  0  0  0  0  0  0  0
   50.4242    5.2702   21.8452 O   0  0  0  0  0  0  0  0  0  0  0  0
   50.7376    6.6815   20.1459 O   0  0  0  0  0  0  0  0  0  0  0  0
   47.6316    5.2774   17.9587 C   0  0  0  0  0  0  0  0  0  0  0  0
   48.7532    4.8463   18.8922 C   0  0  1  0  0  0  0  0  0  0  0  0
   48.6088    5.5736   20.2296 C   0  0  2  0  0  0  0  0  0  0  0  0
   49.9883    5.7967   20.8328 C   0  0  0  0  0  0  0  0  0  0  0  0
   48.8108    5.6903   19.3382 O   0  0  0  0  0  0  0  0  0  0  0  0
   48.4162    4.9574   18.8629 H   0  0  0  0  0  0  0  0  0  0  0  0
   48.6663    5.4665   20.2806 H   0  0  0  0  0  0  0  0  0  0  0  0
   47.2562    2.1387   17.3445 H   0  0  0  0  0  0  0  0  0  0  0  0
   47.1126    3.4923   15.2529 H   0  0  0  0  0  0  0  0  0  0  0  0
   48.9095    6.7286   17.0421 H   0  0  0  0  0  0  0  0  0  0  0  0
   48.2904    3.1427   19.3497 H   0  0  0  0  0  0  0  0  0  0  0  0
   50.2626    6.2843   19.0995 H   0  0  0  0  0  0  0  0  0  0  0  0
   47.3561    6.5831   22.0034 H   0  0  0  0  0  0  0  0  0  0  0  0
   46.8958    5.4401   20.7552 H   0  0  0  0  0  0  0  0  0  0  0  0
   49.1373    5.2058   22.7033 H   0  0  0  0  0  0  0  0  0  0  0  0
   48.2800    3.9394   21.8110 H   0  0  0  0  0  0  0  0  0  0  0  0
   50.1737    3.8849   20.4199 H   0  0  0  0  0  0  0  0  0  0  0  0
   50.7665    5.3673   21.1529 H   0  0  0  0  0  0  0  0  0  0  0  0
   49.8654    7.6259   21.4779 H   0  0  0  0  0  0  0  0  0  0  0  0
   49.6493    8.4336   19.9108 H   0  0  0  0  0  0  0  0  0  0  0  0
   48.4056    8.5763   21.1422 H   0  0  0  0  0  0  0  0  0  0  0  0
   49.5402    7.2774   21.4991 H   0  0  0  0  0  0  0  0  0  0  0  0
   47.2300    3.6762   20.8426 H   0  0  0  0  0  0  0  0  0  0  0  0
   46.5210    5.8600   18.2842 H   0  0  0  0  0  0  0  0  0  0  0  0
   50.6035    6.3993   17.3266 H   0  0  0  0  0  0  0  0  0  0  0  0
   49.8604    4.1608   19.9289 H   0  0  0  0  0  0  0  0  0  0  0  0
   48.0631    4.0390   18.1133 H   0  0  0  0  0  0  0  0  0  0  0  0
   46.9561    6.6841   16.9627 H   0  0  0  0  0  0  0  0  0  0  0  0
   47.8043    3.1795   19.2061 H   0  0  0  0  0  0  0  0  0  0  0  0
   48.3108    4.0767   21.4310 H   0  0  0  0  0  0  0  0  0  0  0  0
   51.5737    6.7383   20.6576 H   0  0  0  0  0  0  0  0  0  0  0  0
   49.6930    5.0838   18.3818 H   0  0  0  0  0  0  0  0  0  0  0  0
   48.1511    6.5632   20.1241 H   0  0  0  0  0  0  0  0  0  0  0  0
   48.6789    5.4891   20.2769 H   0  0  0  0  0  0  0  0  0  0  0  0
   48.4059    4.9394   18.8787 H   0  0  0  0  0  0  0  0  0  0  0  0
  7  2  2  0
  2  3  1  0
  8  6  1  0
  8  9  1  0
  4  5  1  0
  5  6  2  0
  3  4  2  0
  9 10  1  0
 10 11  1  0
 11 12  1  0
  8 12  1  0
  6  7  1  0
  9 13  1  0
 20 15  2  0
 21 16  1  0
 22 17  1  0
 20 14  1  0
 22 23  1  0
 21 22  1  0
 23 19  1  0
 20 21  1  0
 23 18  2  0
 30 25  2  0
 31 26  1  0
 32 27  1  0
 30 24  1  0
 32 33  1  0
 31 32  1  0
 33 29  1  0
 30 31  1  0
 33 28  2  0
  1 35  1  0
  1 36  1  0
  2 37  1  0
  3 38  1  0
  5 39  1  0
  7 40  1  0
  8 41  1  1
 10 42  1  0
 10 43  1  0
 11 44  1  0
 11 45  1  0
 12 46  1  0
 12 47  1  0
 13 48  1  0
 13 49  1  0
 13 50  1  0
 14 51  1  0
 16 52  1  0
 17 53  1  0
 19 54  1  0
 21 55  1  1
 22 56  1  1
 24 57  1  0
 26 58  1  0
 27 59  1  0
 29 60  1  0
 31 61  1  1
 32 62  1  6
 34 63  1  0
 34 64  1  0
M  END
> <Uni-Dock RESULT> 
ENERGY=   -4.314  LOWER_BOUND=    7.397  UPPER_BOUND=    9.115
INTER + INTRA:          -4.314
INTER:                  -4.314
INTRA:                   0.000
UNBOUND:                 0.000

$$$$

     RDKit          3D

 64 61  0  0  0  0  0  0  0  0999 V2000
   41.9314   11.7815   10.6679 O   0  0  0  0  0  0  0  0  0  0  0  0
   38.9430   10.3898   11.7280 C   0  0  0  0  0  0  0  0  0  0  0  0
   38.2936   11.5842   11.9855 C   0  0  0  0  0  0  0  0  0  0  0  0
   38.8032   12.7927   11.6768 N   0  0  0  0  0  0  0  0  0  0  0  0
   40.0226   12.8014   11.0869 C   0  0  0  0  0  0  0  0  0  0  0  0
   40.7604   11.6615   10.7613 C   0  0  0  0  0  0  0  0  0  0  0  0
   40.1918   10.4320   11.1099 C   0  0  0  0  0  0  0  0  0  0  0  0
   42.1086   11.8342   10.0848 C   0  0  1  0  0  0  0  0  0  0  0  0
   43.1336   12.2384   11.0719 N   0  0  0  0  0  0  0  0  0  0  0  0
   43.6985   10.9835   11.5873 C   0  0  0  0  0  0  0  0  0  0  0  0
   43.6296    9.9727   10.4508 C   0  0  0  0  0  0  0  0  0  0  0  0
   42.7018   10.5909    9.4128 C   0  0  0  0  0  0  0  0  0  0  0  0
   44.1688   13.0773   10.4673 C   0  0  0  0  0  0  0  0  0  0  0  0
   43.6007   12.0451    9.8312 O   0  0  0  0  0  0  0  0  0  0  0  0
   44.3791   10.3371   11.0264 O   0  0  0  0  0  0  0  0  0  0  0  0
   41.9192    9.0438   10.9981 O   0  0  0  0  0  0  0  0  0  0  0  0
   41.5308   11.3336   12.6460 O   0  0  0  0  0  0  0  0  0  0  0  0
   41.0327   13.7172   11.2814 O   0  0  0  0  0  0  0  0  0  0  0  0
   40.5236   12.6499    9.3864 O   0  0  0  0  0  0  0  0  0  0  0  0
   43.4249   10.8851   10.4961 C   0  0  0  0  0  0  0  0  0  0  0  0
   41.9854   10.3777   10.4673 C   0  0  2  0  0  0  0  0  0  0  0  0
   41.0655   11.2787   11.2898 C   0  0  2  0  0  0  0  0  0  0  0  0
   40.9073   12.6632   10.6756 C   0  0  0  0  0  0  0  0  0  0  0  0
   40.8123   13.2442   11.9885 O   0  0  0  0  0  0  0  0  0  0  0  0
   39.8668   11.3808   12.7727 O   0  0  0  0  0  0  0  0  0  0  0  0
   40.6128    9.9229   10.5181 O   0  0  0  0  0  0  0  0  0  0  0  0
   43.0746   10.0444   11.4685 O   0  0  0  0  0  0  0  0  0  0  0  0
   43.8713   10.4342    8.8182 O   0  0  0  0  0  0  0  0  0  0  0  0
   43.0617   12.5130    8.7978 O   0  0  0  0  0  0  0  0  0  0  0  0
   40.5387   11.9274   11.9113 C   0  0  0  0  0  0  0  0  0  0  0  0
   41.1210   11.2554   10.6766 C   0  0  1  0  0  0  0  0  0  0  0  0
   42.6462   11.2292   10.7841 C   0  0  2  0  0  0  0  0  0  0  0  0
   43.2507   11.3173    9.3900 C   0  0  0  0  0  0  0  0  0  0  0  0
   41.9186   11.7831   10.6707 O   0  0  0  0  0  0  0  0  0  0  0  0
   41.1568   11.3213   11.0246 H   0  0  0  0  0  0  0  0  0  0  0  0
   42.6376   11.1194   10.7116 H   0  0  0  0  0  0  0  0  0  0  0  0
   38.4896    9.4449   12.0054 H   0  0  0  0  0  0  0  0  0  0  0  0
   37.3193   11.6006   12.4647 H   0  0  0  0  0  0  0  0  0  0  0  0
   40.4112   13.7946   10.8739 H   0  0  0  0  0  0  0  0  0  0  0  0
   40.7064    9.4960   10.9182 H   0  0  0  0  0  0  0  0  0  0  0  0
   41.9649   12.6050    9.3144 H   0  0  0  0  0  0  0  0  0  0  0  0
   44.7147   11.0931   11.9830 H   0  0  0  0  0  0  0  0  0  0  0  0
   43.0798   10.6356   12.4237 H   0  0  0  0  0  0  0  0  0  0  0  0
   44.6195    9.7981   10.0149 H   0  0  0  0  0  0  0  0  0  0  0  0
   43.2451    9.0110   10.8062 H   0  0  0  0  0  0  0  0  0  0  0  0
   41.9594    9.8786    9.0403 H   0  0  0  0  0  0  0  0  0  0  0  0
   43.3051   10.8945    8.5470 H   0  0  0  0  0  0  0  0  0  0  0  0
   44.7036   12.5817    9.6497 H   0  0  0  0  0  0  0  0  0  0  0  0
   43.7292   14.0032   10.0797 H   0  0  0  0  0  0  0  0  0  0  0  0
   44.9034   13.3744   11.2242 H   0  0  0  0  0  0  0  0  0  0  0  0
   44.5607   12.2259    9.9337 H   0  0  0  0  0  0  0  0  0  0  0  0
   42.2943    9.1061   11.9001 H   0  0  0  0  0  0  0  0  0  0  0  0
   41.1305   12.1310   13.0458 H   0  0  0  0  0  0  0  0  0  0  0  0
   40.4623   13.5968    9.1369 H   0  0  0  0  0  0  0  0  0  0  0  0
   41.6707   10.3113    9.4208 H   0  0  0  0  0  0  0  0  0  0  0  0
   40.0643   10.8349   11.3409 H   0  0  0  0  0  0  0  0  0  0  0  0
   40.3641   13.5355   12.8116 H   0  0  0  0  0  0  0  0  0  0  0  0
   40.6095    9.5322   11.4157 H   0  0  0  0  0  0  0  0  0  0  0  0
   42.9785    9.3159   10.8219 H   0  0  0  0  0  0  0  0  0  0  0  0
   43.5178   12.4286    7.9324 H   0  0  0  0  0  0  0  0  0  0  0  0
   40.7685   11.8298    9.8129 H   0  0  0  0  0  0  0  0  0  0  0  0
   43.0436   12.0785   11.3504 H   0  0  0  0  0  0  0  0  0  0  0  0
   42.6451   11.1425   10.7019 H   0  0  0  0  0  0  0  0  0  0  0  0
   41.1622   11.2968   11.0316 H   0  0  0  0  0  0  0  0  0  0  0  0
  7  2  2  0
  2  3  1  0
  8  6  1  0
  8  9  1  0
  4  5  1  0
  5  6  2  0
  3  4  2  0
  9 10  1  0
 10 11  1  0
 11 12  1  0
  8 12  1  0
  6  7  1  0
  9 13  1  0
 20 15  2  0
 21 16  1  0
 22 17  1  0
 20 14  1  0
 22 23  1  0
 21 22  1  0
 23 19  1  0
 20 21  1  0
 23 18  2  0
 30 25  2  0
 31 26  1  0
 32 27  1  0
 30 24  1  0
 32 33  1  0
 31 32  1  0
 33 29  1  0
 30 31  1  0
 33 28  2  0
  1 35  1  0
  1 36  1  0
  2 37  1  0
  3 38  1  0
  5 39  1  0
  7 40  1  0
  8 41  1  1
 10 42  1  0
 10 43  1  0
 11 44  1  0
 11 45  1  0
 12 46  1  0
 12 47  1  0
 13 48  1  0
 13 49  1  0
 13 50  1  0
 14 51  1  0
 16 52  1  0
 17 53  1  0
 19 54  1  0
 21 55  1  1
 22 56  1  1
 24 57  1  0
 26 58  1  0
 27 59  1  0
 29 60  1  0
 31 61  1  1
 32 62  1  6
 34 63  1  0
 34 64  1  0
M  END
> <Uni-Dock RESULT> 
ENERGY=   -4.285  LOWER_BOUND=    4.913  UPPER_BOUND=    7.081
INTER + INTRA:          -4.285
INTER:                  -4.285
INTRA:                   0.000
UNBOUND:                 0.000

$$$$

     RDKit          3D

 64 61  0  0  0  0  0  0  0  0999 V2000
   54.7044    7.2080    7.3172 O   0  0  0  0  0  0  0  0  0  0  0  0
   52.4098    9.3302    5.8264 C   0  0  0  0  0  0  0  0  0  0  0  0
   53.3325   10.2117    5.2913 C   0  0  0  0  0  0  0  0  0  0  0  0
   54.6641   10.0077    5.3208 N   0  0  0  0  0  0  0  0  0  0  0  0
   55.0877    8.8688    5.9193 C   0  0  0  0  0  0  0  0  0  0  0  0
   54.2503    7.8991    6.4743 C   0  0  0  0  0  0  0  0  0  0  0  0
   52.8772    8.1616    6.4258 C   0  0  0  0  0  0  0  0  0  0  0  0
   54.8769    6.6640    7.0966 C   0  0  1  0  0  0  0  0  0  0  0  0
   55.4261    6.9814    8.4330 N   0  0  0  0  0  0  0  0  0  0  0  0
   54.3259    6.7398    9.3769 C   0  0  0  0  0  0  0  0  0  0  0  0
   53.4861    5.6129    8.7917 C   0  0  0  0  0  0  0  0  0  0  0  0
   53.9435    5.4740    7.3453 C   0  0  0  0  0  0  0  0  0  0  0  0
   56.5901    6.1542    8.7521 C   0  0  0  0  0  0  0  0  0  0  0  0
   55.5275    5.6928    8.0807 O   0  0  0  0  0  0  0  0  0  0  0  0
   53.9713    5.7480    9.6703 O   0  0  0  0  0  0  0  0  0  0  0  0
   52.0542    6.7454    7.9227 O   0  0  0  0  0  0  0  0  0  0  0  0
   53.9195    8.8700    8.2635 O   0  0  0  0  0  0  0  0  0  0  0  0
   56.2184    8.7059    6.6886 O   0  0  0  0  0  0  0  0  0  0  0  0
   55.2958    7.2101    5.3101 O   0  0  0  0  0  0  0  0  0  0  0  0
   54.2914    6.0053    8.5199 C   0  0  0  0  0  0  0  0  0  0  0  0
   53.4085    6.6457    7.4519 C   0  0  2  0  0  0  0  0  0  0  0  0
   53.9056    8.0444    7.0900 C   0  0  2  0  0  0  0  0  0  0  0  0
   55.2554    8.0170    6.3856 C   0  0  0  0  0  0  0  0  0  0  0  0
   55.6184    9.2594    7.0140 O   0  0  0  0  0  0  0  0  0  0  0  0
   53.4821    9.9054    7.0290 O   0  0  0  0  0  0  0  0  0  0  0  0
   52.5844    7.3259    6.4764 O   0  0  0  0  0  0  0  0  0  0  0  0
   53.2720    6.7420    8.9593 O   0  0  0  0  0  0  0  0  0  0  0  0
   54.1963    4.3149    7.9270 O   0  0  0  0  0  0  0  0  0  0  0  0
   55.9504    5.3019    6.9645 O   0  0  0  0  0  0  0  0  0  0  0  0
   54.2979    8.9995    6.9532 C   0  0  0  0  0  0  0  0  0  0  0  0
   53.9754    7.5240    6.7675 C   0  0  1  0  0  0  0  0  0  0  0  0
   54.3647    6.7559    8.0311 C   0  0  2  0  0  0  0  0  0  0  0  0
   54.7917    5.3452    7.6512 C   0  0  0  0  0  0  0  0  0  0  0  0
   54.7020    7.2177    7.3086 O   0  0  0  0  0  0  0  0  0  0  0  0
   54.0048    7.7961    6.9953 H   0  0  0  0  0  0  0  0  0  0  0  0
   54.2669    6.6743    7.9974 H   0  0  0  0  0  0  0  0  0  0  0  0
   51.3489    9.5485    5.7820 H   0  0  0  0  0  0  0  0  0  0  0  0
   53.0153   11.1341    4.8143 H   0  0  0  0  0  0  0  0  0  0  0  0
   56.1685    8.7500    5.9444 H   0  0  0  0  0  0  0  0  0  0  0  0
   52.1545    7.4756    6.8556 H   0  0  0  0  0  0  0  0  0  0  0  0
   55.6661    6.3420    6.4026 H   0  0  0  0  0  0  0  0  0  0  0  0
   54.6659    6.5174   10.3948 H   0  0  0  0  0  0  0  0  0  0  0  0
   53.7172    7.6496    9.4491 H   0  0  0  0  0  0  0  0  0  0  0  0
   53.6517    4.6737    9.3310 H   0  0  0  0  0  0  0  0  0  0  0  0
   52.4187    5.8500    8.8508 H   0  0  0  0  0  0  0  0  0  0  0  0
   53.1038    5.4023    6.6475 H   0  0  0  0  0  0  0  0  0  0  0  0
   54.5094    4.5378    7.2501 H   0  0  0  0  0  0  0  0  0  0  0  0
   56.3701    5.0810    8.7538 H   0  0  0  0  0  0  0  0  0  0  0  0
   57.3963    6.3393    8.0335 H   0  0  0  0  0  0  0  0  0  0  0  0
   56.9846    6.4226    9.7386 H   0  0  0  0  0  0  0  0  0  0  0  0
   55.9560    5.2893    8.8670 H   0  0  0  0  0  0  0  0  0  0  0  0
   52.1064    7.2649    8.7507 H   0  0  0  0  0  0  0  0  0  0  0  0
   54.5164    9.6197    8.0697 H   0  0  0  0  0  0  0  0  0  0  0  0
   56.2108    7.2998    4.9678 H   0  0  0  0  0  0  0  0  0  0  0  0
   53.3873    5.9777    6.5848 H   0  0  0  0  0  0  0  0  0  0  0  0
   53.1962    8.5217    6.4038 H   0  0  0  0  0  0  0  0  0  0  0  0
   55.6674   10.2345    7.1147 H   0  0  0  0  0  0  0  0  0  0  0  0
   52.0999    7.9311    7.0741 H   0  0  0  0  0  0  0  0  0  0  0  0
   52.6321    6.0914    8.6050 H   0  0  0  0  0  0  0  0  0  0  0  0
   56.1057    4.3443    6.8132 H   0  0  0  0  0  0  0  0  0  0  0  0
   54.5308    7.1918    5.8836 H   0  0  0  0  0  0  0  0  0  0  0  0
   55.2140    7.2082    8.5546 H   0  0  0  0  0  0  0  0  0  0  0  0
   54.2921    6.6686    7.9938 H   0  0  0  0  0  0  0  0  0  0  0  0
   53.9821    7.7921    7.0074 H   0  0  0  0  0  0  0  0  0  0  0  0
  7  2  2  0
  2  3  1  0
  8  6  1  0
  8  9  1  0
  4  5  1  0
  5  6  2  0
  3  4  2  0
  9 10  1  0
 10 11  1  0
 11 12  1  0
  8 12  1  0
  6  7  1  0
  9 13  1  0
 20 15  2  0
 21 16  1  0
 22 17  1  0
 20 14  1  0
 22 23  1  0
 21 22  1  0
 23 19  1  0
 20 21  1  0
 23 18  2  0
 30 25  2  0
 31 26  1  0
 32 27  1  0
 30 24  1  0
 32 33  1  0
 31 32  1  0
 33 29  1  0
 30 31  1  0
 33 28  2  0
  1 35  1  0
  1 36  1  0
  2 37  1  0
  3 38  1  0
  5 39  1  0
  7 40  1  0
  8 41  1  1
 10 42  1  0
 10 43  1  0
 11 44  1  0
 11 45  1  0
 12 46  1  0
 12 47  1  0
 13 48  1  0
 13 49  1  0
 13 50  1  0
 14 51  1  0
 16 52  1  0
 17 53  1  0
 19 54  1  0
 21 55  1  1
 22 56  1  1
 24 57  1  0
 26 58  1  0
 27 59  1  0
 29 60  1  0
 31 61  1  1
 32 62  1  6
 34 63  1  0
 34 64  1  0
M  END
> <Uni-Dock RESULT> 
ENERGY=   -4.228  LOWER_BOUND=    9.188  UPPER_BOUND=   10.759
INTER + INTRA:          -4.228
INTER:                  -4.228
INTRA:                   0.000
UNBOUND:                 0.000

$$$$
