
     RDKit          3D

 64 61  0  0  0  0  0  0  0  0999 V2000
   44.8110    6.4984   11.8234 O   0  0  0  0  0  0  0  0  0  0  0  0
   43.4231    3.7755   12.8354 C   0  0  0  0  0  0  0  0  0  0  0  0
   43.4301    2.9075   11.7570 C   0  0  0  0  0  0  0  0  0  0  0  0
   44.0872    3.1487   10.6027 N   0  0  0  0  0  0  0  0  0  0  0  0
   44.7653    4.3173   10.5257 C   0  0  0  0  0  0  0  0  0  0  0  0
   44.8207    5.2663   11.5434 C   0  0  0  0  0  0  0  0  0  0  0  0
   44.1309    4.9687   12.7244 C   0  0  0  0  0  0  0  0  0  0  0  0
   45.6297    6.5280   11.3677 C   0  0  1  0  0  0  0  0  0  0  0  0
   44.9920    7.7165   11.9679 N   0  0  0  0  0  0  0  0  0  0  0  0
   46.0785    8.6176   12.3484 C   0  0  0  0  0  0  0  0  0  0  0  0
   47.0751    7.6568   12.9638 C   0  0  0  0  0  0  0  0  0  0  0  0
   46.9992    6.4307   12.0635 C   0  0  0  0  0  0  0  0  0  0  0  0
   44.0298    8.3552   11.0796 C   0  0  0  0  0  0  0  0  0  0  0  0
   45.1095    3.6232   12.3824 O   0  0  0  0  0  0  0  0  0  0  0  0
   44.8149    4.0962   10.2151 O   0  0  0  0  0  0  0  0  0  0  0  0
   46.3812    6.3417   10.4915 O   0  0  0  0  0  0  0  0  0  0  0  0
   43.8944    6.2482   13.2501 O   0  0  0  0  0  0  0  0  0  0  0  0
   45.5007    8.4674   13.5421 O   0  0  0  0  0  0  0  0  0  0  0  0
   45.1733    8.9745   11.3884 O   0  0  0  0  0  0  0  0  0  0  0  0
   45.1648    4.4597   11.3295 C   0  0  0  0  0  0  0  0  0  0  0  0
   45.7163    5.8367   11.6611 C   0  0  2  0  0  0  0  0  0  0  0  0
   44.5674    6.7527   12.0866 C   0  0  2  0  0  0  0  0  0  0  0  0
   45.1281    8.1232   12.4294 C   0  0  0  0  0  0  0  0  0  0  0  0
   42.3922    5.4984   11.5811 O   0  0  0  0  0  0  0  0  0  0  0  0
   43.6247    4.3082   13.0071 O   0  0  0  0  0  0  0  0  0  0  0  0
   43.9277    7.6605   11.6358 O   0  0  0  0  0  0  0  0  0  0  0  0
   45.6636    6.1285   10.3135 O   0  0  0  0  0  0  0  0  0  0  0  0
   47.0583    7.2852   13.4428 O   0  0  0  0  0  0  0  0  0  0  0  0
   47.8386    7.1485   11.3527 O   0  0  0  0  0  0  0  0  0  0  0  0
   43.4719    5.3411   12.3737 C   0  0  0  0  0  0  0  0  0  0  0  0
   44.4277    6.5296   12.3546 C   0  0  1  0  0  0  0  0  0  0  0  0
   45.7499    6.0595   11.7461 C   0  0  2  0  0  0  0  0  0  0  0  0
   46.8988    6.8991   12.2976 C   0  0  0  0  0  0  0  0  0  0  0  0
   44.7993    6.4773   11.8224 O   0  0  0  0  0  0  0  0  0  0  0  0
   45.7113    6.8388   11.9393 H   0  0  0  0  0  0  0  0  0  0  0  0
   44.9171    5.5358   11.8683 H   0  0  0  0  0  0  0  0  0  0  0  0
   42.8797    3.5296   13.7410 H   0  0  0  0  0  0  0  0  0  0  0  0
   42.8912    1.9653   11.7949 H   0  0  0  0  0  0  0  0  0  0  0  0
   45.2841    4.4703    9.5828 H   0  0  0  0  0  0  0  0  0  0  0  0
   44.1407    5.6702   13.5555 H   0  0  0  0  0  0  0  0  0  0  0  0
   45.8073    6.7036   10.2967 H   0  0  0  0  0  0  0  0  0  0  0  0
   46.5193    9.1208   11.4778 H   0  0  0  0  0  0  0  0  0  0  0  0
   45.7510    9.3742   13.0692 H   0  0  0  0  0  0  0  0  0  0  0  0
   48.0853    8.0737   13.0161 H   0  0  0  0  0  0  0  0  0  0  0  0
   46.7664    7.3887   13.9820 H   0  0  0  0  0  0  0  0  0  0  0  0
   47.7966    6.4802   11.3103 H   0  0  0  0  0  0  0  0  0  0  0  0
   47.1476    5.5146   12.6468 H   0  0  0  0  0  0  0  0  0  0  0  0
   44.4888    8.6985   10.1450 H   0  0  0  0  0  0  0  0  0  0  0  0
   43.5738    9.2201   11.5741 H   0  0  0  0  0  0  0  0  0  0  0  0
   43.2145    7.6676   10.8304 H   0  0  0  0  0  0  0  0  0  0  0  0
   44.7316    2.7941   12.0224 H   0  0  0  0  0  0  0  0  0  0  0  0
   45.8306    6.0936    9.7209 H   0  0  0  0  0  0  0  0  0  0  0  0
   44.4615    6.4577   14.0202 H   0  0  0  0  0  0  0  0  0  0  0  0
   45.5796    9.7909   11.7489 H   0  0  0  0  0  0  0  0  0  0  0  0
   46.4725    5.7335   12.4477 H   0  0  0  0  0  0  0  0  0  0  0  0
   43.8168    6.8629   11.2956 H   0  0  0  0  0  0  0  0  0  0  0  0
   41.8714    4.6773   11.7024 H   0  0  0  0  0  0  0  0  0  0  0  0
   43.8499    7.3541   10.7096 H   0  0  0  0  0  0  0  0  0  0  0  0
   46.5881    6.1945    9.9987 H   0  0  0  0  0  0  0  0  0  0  0  0
   48.5015    7.6997   11.8240 H   0  0  0  0  0  0  0  0  0  0  0  0
   44.5350    6.8419   13.3993 H   0  0  0  0  0  0  0  0  0  0  0  0
   45.9834    5.0214   12.0109 H   0  0  0  0  0  0  0  0  0  0  0  0
   45.6773    6.8721   11.9335 H   0  0  0  0  0  0  0  0  0  0  0  0
   44.9628    5.5236   11.8751 H   0  0  0  0  0  0  0  0  0  0  0  0
  7  2  2  0
  2  3  1  0
  8  6  1  0
  8  9  1  0
  4  5  1  0
  5  6  2  0
  3  4  2  0
  9 10  1  0
 10 11  1  0
 11 12  1  0
  8 12  1  0
  6  7  1  0
  9 13  1  0
 20 15  2  0
 21 16  1  0
 22 17  1  0
 20 14  1  0
 22 23  1  0
 21 22  1  0
 23 19  1  0
 20 21  1  0
 23 18  2  0
 30 25  2  0
 31 26  1  0
 32 27  1  0
 30 24  1  0
 32 33  1  0
 31 32  1  0
 33 29  1  0
 30 31  1  0
 33 28  2  0
  1 35  1  0
  1 36  1  0
  2 37  1  0
  3 38  1  0
  5 39  1  0
  7 40  1  0
  8 41  1  1
 10 42  1  0
 10 43  1  0
 11 44  1  0
 11 45  1  0
 12 46  1  0
 12 47  1  0
 13 48  1  0
 13 49  1  0
 13 50  1  0
 14 51  1  0
 16 52  1  0
 17 53  1  0
 19 54  1  0
 21 55  1  6
 22 56  1  1
 24 57  1  0
 26 58  1  0
 27 59  1  0
 29 60  1  0
 31 61  1  6
 32 62  1  1
 34 63  1  0
 34 64  1  0
M  END
> <Uni-Dock RESULT> 
ENERGY=   -6.422  LOWER_BOUND=    0.000  UPPER_BOUND=    0.000
INTER + INTRA:          -6.422
INTER:                  -6.422
INTRA:                   0.000
UNBOUND:                 0.000

$$$$

     RDKit          3D

 64 61  0  0  0  0  0  0  0  0999 V2000
   45.0477    5.9131   11.4332 O   0  0  0  0  0  0  0  0  0  0  0  0
   47.1830    7.6019   13.1518 C   0  0  0  0  0  0  0  0  0  0  0  0
   46.9561    8.9354   12.8580 C   0  0  0  0  0  0  0  0  0  0  0  0
   45.9004    9.3779   12.1422 N   0  0  0  0  0  0  0  0  0  0  0  0
   45.0348    8.4378   11.6970 C   0  0  0  0  0  0  0  0  0  0  0  0
   45.1682    7.0705   11.9257 C   0  0  0  0  0  0  0  0  0  0  0  0
   46.2737    6.6599   12.6797 C   0  0  0  0  0  0  0  0  0  0  0  0
   44.1304    6.1050   11.4081 C   0  0  1  0  0  0  0  0  0  0  0  0
   44.7070    4.8345   10.9253 N   0  0  0  0  0  0  0  0  0  0  0  0
   43.6785    3.8148   11.1241 C   0  0  0  0  0  0  0  0  0  0  0  0
   43.1608    4.1637   12.5045 C   0  0  0  0  0  0  0  0  0  0  0  0
   43.1391    5.6865   12.5088 C   0  0  0  0  0  0  0  0  0  0  0  0
   45.1563    4.9037    9.5410 C   0  0  0  0  0  0  0  0  0  0  0  0
   45.5050    7.8832   13.5729 O   0  0  0  0  0  0  0  0  0  0  0  0
   44.9205    8.7955   11.6149 O   0  0  0  0  0  0  0  0  0  0  0  0
   43.1660    6.7225   11.1720 O   0  0  0  0  0  0  0  0  0  0  0  0
   46.4392    5.3343   12.2499 O   0  0  0  0  0  0  0  0  0  0  0  0
   44.6584    3.2707   11.8488 O   0  0  0  0  0  0  0  0  0  0  0  0
   44.1024    4.1496    9.8686 O   0  0  0  0  0  0  0  0  0  0  0  0
   44.9266    7.8246   12.3590 C   0  0  0  0  0  0  0  0  0  0  0  0
   44.2830    6.4842   12.0440 C   0  0  2  0  0  0  0  0  0  0  0  0
   45.3170    5.5689   11.3857 C   0  0  2  0  0  0  0  0  0  0  0  0
   44.6701    4.2266   11.0861 C   0  0  0  0  0  0  0  0  0  0  0  0
   47.3648    7.0165   10.8651 O   0  0  0  0  0  0  0  0  0  0  0  0
   46.9601    7.0585   13.0568 O   0  0  0  0  0  0  0  0  0  0  0  0
   45.5755    5.1431   10.2956 O   0  0  0  0  0  0  0  0  0  0  0  0
   43.8004    7.0449   10.8793 O   0  0  0  0  0  0  0  0  0  0  0  0
   43.4146    4.1826   13.0551 O   0  0  0  0  0  0  0  0  0  0  0  0
   41.9850    5.4722   11.9196 O   0  0  0  0  0  0  0  0  0  0  0  0
   46.6846    6.6081   11.9556 C   0  0  0  0  0  0  0  0  0  0  0  0
   45.5813    5.6000   11.6509 C   0  0  1  0  0  0  0  0  0  0  0  0
   44.2410    6.2524   11.9939 C   0  0  2  0  0  0  0  0  0  0  0  0
   43.2272    5.1776   12.3763 C   0  0  0  0  0  0  0  0  0  0  0  0
   45.0620    5.9315   11.4398 O   0  0  0  0  0  0  0  0  0  0  0  0
   44.2002    5.5130   11.6813 H   0  0  0  0  0  0  0  0  0  0  0  0
   45.1449    6.6560   12.0486 H   0  0  0  0  0  0  0  0  0  0  0  0
   48.0473    7.3021   13.7342 H   0  0  0  0  0  0  0  0  0  0  0  0
   47.6382    9.7072   13.2024 H   0  0  0  0  0  0  0  0  0  0  0  0
   44.1973    8.8358   11.1299 H   0  0  0  0  0  0  0  0  0  0  0  0
   46.4286    5.6049   12.8939 H   0  0  0  0  0  0  0  0  0  0  0  0
   43.5561    6.5820   10.6006 H   0  0  0  0  0  0  0  0  0  0  0  0
   42.8730    3.8930   10.3822 H   0  0  0  0  0  0  0  0  0  0  0  0
   44.0935    2.8018   11.0941 H   0  0  0  0  0  0  0  0  0  0  0  0
   42.1759    3.7323   12.7067 H   0  0  0  0  0  0  0  0  0  0  0  0
   43.8538    3.8007   13.2739 H   0  0  0  0  0  0  0  0  0  0  0  0
   42.1324    6.0387   12.2477 H   0  0  0  0  0  0  0  0  0  0  0  0
   43.3794    6.0725   13.5062 H   0  0  0  0  0  0  0  0  0  0  0  0
   44.3412    5.1473    8.8495 H   0  0  0  0  0  0  0  0  0  0  0  0
   45.5889    3.9447    9.2349 H   0  0  0  0  0  0  0  0  0  0  0  0
   45.9431    5.6568    9.4247 H   0  0  0  0  0  0  0  0  0  0  0  0
   45.8778    8.7876   13.6279 H   0  0  0  0  0  0  0  0  0  0  0  0
   43.4440    7.4110   10.5338 H   0  0  0  0  0  0  0  0  0  0  0  0
   46.1530    4.6761   12.9158 H   0  0  0  0  0  0  0  0  0  0  0  0
   43.7061    3.2535    9.8323 H   0  0  0  0  0  0  0  0  0  0  0  0
   43.8873    6.0563   12.9722 H   0  0  0  0  0  0  0  0  0  0  0  0
   45.7047    5.9933   10.4526 H   0  0  0  0  0  0  0  0  0  0  0  0
   48.0374    7.6404   11.2093 H   0  0  0  0  0  0  0  0  0  0  0  0
   45.3760    5.9399    9.7635 H   0  0  0  0  0  0  0  0  0  0  0  0
   42.8292    7.1177   10.9779 H   0  0  0  0  0  0  0  0  0  0  0  0
   41.4419    4.7083   12.2141 H   0  0  0  0  0  0  0  0  0  0  0  0
   45.7946    4.7269   12.2774 H   0  0  0  0  0  0  0  0  0  0  0  0
   44.3132    6.9186   12.8618 H   0  0  0  0  0  0  0  0  0  0  0  0
   44.2232    5.4917   11.6449 H   0  0  0  0  0  0  0  0  0  0  0  0
   45.1076    6.6589   12.0784 H   0  0  0  0  0  0  0  0  0  0  0  0
  7  2  2  0
  2  3  1  0
  8  6  1  0
  8  9  1  0
  4  5  1  0
  5  6  2  0
  3  4  2  0
  9 10  1  0
 10 11  1  0
 11 12  1  0
  8 12  1  0
  6  7  1  0
  9 13  1  0
 20 15  2  0
 21 16  1  0
 22 17  1  0
 20 14  1  0
 22 23  1  0
 21 22  1  0
 23 19  1  0
 20 21  1  0
 23 18  2  0
 30 25  2  0
 31 26  1  0
 32 27  1  0
 30 24  1  0
 32 33  1  0
 31 32  1  0
 33 29  1  0
 30 31  1  0
 33 28  2  0
  1 35  1  0
  1 36  1  0
  2 37  1  0
  3 38  1  0
  5 39  1  0
  7 40  1  0
  8 41  1  1
 10 42  1  0
 10 43  1  0
 11 44  1  0
 11 45  1  0
 12 46  1  0
 12 47  1  0
 13 48  1  0
 13 49  1  0
 13 50  1  0
 14 51  1  0
 16 52  1  0
 17 53  1  0
 19 54  1  0
 21 55  1  6
 22 56  1  1
 24 57  1  0
 26 58  1  0
 27 59  1  0
 29 60  1  0
 31 61  1  6
 32 62  1  1
 34 63  1  0
 34 64  1  0
M  END
> <Uni-Dock RESULT> 
ENERGY=   -6.346  LOWER_BOUND=    0.895  UPPER_BOUND=    4.079
INTER + INTRA:          -6.346
INTER:                  -6.346
INTRA:                   0.000
UNBOUND:                 0.000

$$$$

     RDKit          3D

 64 61  0  0  0  0  0  0  0  0999 V2000
   48.7891    4.7773   19.1376 O   0  0  0  0  0  0  0  0  0  0  0  0
   47.8412    5.3280   22.1647 C   0  0  0  0  0  0  0  0  0  0  0  0
   47.6779    6.6976   22.2815 C   0  0  0  0  0  0  0  0  0  0  0  0
   47.7265    7.5518   21.2372 N   0  0  0  0  0  0  0  0  0  0  0  0
   47.9540    7.0062   20.0198 C   0  0  0  0  0  0  0  0  0  0  0  0
   48.1404    5.6459   19.7868 C   0  0  0  0  0  0  0  0  0  0  0  0
   48.0731    4.7984   20.8987 C   0  0  0  0  0  0  0  0  0  0  0  0
   48.3607    5.1347   18.3842 C   0  0  1  0  0  0  0  0  0  0  0  0
   49.3352    4.0278   18.3146 N   0  0  0  0  0  0  0  0  0  0  0  0
   48.9525    3.2155   17.1610 C   0  0  0  0  0  0  0  0  0  0  0  0
   47.4466    3.1522   17.3141 C   0  0  0  0  0  0  0  0  0  0  0  0
   47.0708    4.5532   17.7782 C   0  0  0  0  0  0  0  0  0  0  0  0
   50.7149    4.4891   18.2323 C   0  0  0  0  0  0  0  0  0  0  0  0
   46.6699    5.7550   20.9326 O   0  0  0  0  0  0  0  0  0  0  0  0
   47.8895    7.3848   20.0030 O   0  0  0  0  0  0  0  0  0  0  0  0
   47.9928    5.9652   17.6480 O   0  0  0  0  0  0  0  0  0  0  0  0
   48.8336    3.6997   20.4699 O   0  0  0  0  0  0  0  0  0  0  0  0
   48.8869    2.2791   18.1100 O   0  0  0  0  0  0  0  0  0  0  0  0
   50.1463    3.8807   17.1868 O   0  0  0  0  0  0  0  0  0  0  0  0
   47.4793    6.2329   19.9693 C   0  0  0  0  0  0  0  0  0  0  0  0
   47.7874    5.2327   18.8671 C   0  0  2  0  0  0  0  0  0  0  0  0
   49.0309    4.4272   19.2480 C   0  0  2  0  0  0  0  0  0  0  0  0
   49.3246    3.4204   18.1478 C   0  0  0  0  0  0  0  0  0  0  0  0
   50.0396    5.5530   21.3156 O   0  0  0  0  0  0  0  0  0  0  0  0
   47.9545    4.9040   21.7631 O   0  0  0  0  0  0  0  0  0  0  0  0
   50.1896    4.3673   18.9477 O   0  0  0  0  0  0  0  0  0  0  0  0
   48.4490    6.2441   18.2014 O   0  0  0  0  0  0  0  0  0  0  0  0
   47.0775    2.9301   17.7411 O   0  0  0  0  0  0  0  0  0  0  0  0
   47.1229    4.7786   16.4854 O   0  0  0  0  0  0  0  0  0  0  0  0
   48.8932    4.9258   20.9822 C   0  0  0  0  0  0  0  0  0  0  0  0
   48.9105    4.3137   19.5853 C   0  0  1  0  0  0  0  0  0  0  0  0
   47.8675    5.0451   18.7389 C   0  0  2  0  0  0  0  0  0  0  0  0
   47.3454    4.1155   17.6468 C   0  0  0  0  0  0  0  0  0  0  0  0
   48.7853    4.7892   19.1584 O   0  0  0  0  0  0  0  0  0  0  0  0
   48.2960    4.4827   18.3566 H   0  0  0  0  0  0  0  0  0  0  0  0
   48.1225    5.2268   19.6794 H   0  0  0  0  0  0  0  0  0  0  0  0
   47.7896    4.6874   23.0382 H   0  0  0  0  0  0  0  0  0  0  0  0
   47.4968    7.1581   23.2483 H   0  0  0  0  0  0  0  0  0  0  0  0
   47.9807    7.7267   19.2064 H   0  0  0  0  0  0  0  0  0  0  0  0
   48.2072    3.7258   20.7782 H   0  0  0  0  0  0  0  0  0  0  0  0
   48.6927    5.9620   17.7402 H   0  0  0  0  0  0  0  0  0  0  0  0
   49.2208    3.6972   16.2116 H   0  0  0  0  0  0  0  0  0  0  0  0
   49.4026    2.2176   17.1941 H   0  0  0  0  0  0  0  0  0  0  0  0
   46.9401    2.8707   16.3860 H   0  0  0  0  0  0  0  0  0  0  0  0
   47.1727    2.4205   18.0846 H   0  0  0  0  0  0  0  0  0  0  0  0
   46.7691    5.1568   16.9120 H   0  0  0  0  0  0  0  0  0  0  0  0
   46.2216    4.5150   18.4703 H   0  0  0  0  0  0  0  0  0  0  0  0
   50.8959    5.1070   17.3449 H   0  0  0  0  0  0  0  0  0  0  0  0
   51.3988    3.6338   18.1985 H   0  0  0  0  0  0  0  0  0  0  0  0
   50.9831    5.0734   19.1191 H   0  0  0  0  0  0  0  0  0  0  0  0
   46.5713    6.4963   21.5656 H   0  0  0  0  0  0  0  0  0  0  0  0
   48.5038    6.7676   17.8800 H   0  0  0  0  0  0  0  0  0  0  0  0
   48.2878    2.9171   20.2504 H   0  0  0  0  0  0  0  0  0  0  0  0
   50.2163    3.1448   16.5425 H   0  0  0  0  0  0  0  0  0  0  0  0
   46.9115    4.5907   18.7187 H   0  0  0  0  0  0  0  0  0  0  0  0
   49.9083    5.0691   19.3865 H   0  0  0  0  0  0  0  0  0  0  0  0
   49.8897    5.8796   22.2272 H   0  0  0  0  0  0  0  0  0  0  0  0
   50.3724    5.3219   18.8329 H   0  0  0  0  0  0  0  0  0  0  0  0
   47.9182    6.4591   17.4076 H   0  0  0  0  0  0  0  0  0  0  0  0
   46.8104    4.0766   15.8731 H   0  0  0  0  0  0  0  0  0  0  0  0
   48.6702    3.2535   19.7220 H   0  0  0  0  0  0  0  0  0  0  0  0
   46.9896    5.3410   19.3254 H   0  0  0  0  0  0  0  0  0  0  0  0
   48.3427    4.4715   18.3569 H   0  0  0  0  0  0  0  0  0  0  0  0
   48.0796    5.2261   19.6584 H   0  0  0  0  0  0  0  0  0  0  0  0
  7  2  2  0
  2  3  1  0
  8  6  1  0
  8  9  1  0
  4  5  1  0
  5  6  2  0
  3  4  2  0
  9 10  1  0
 10 11  1  0
 11 12  1  0
  8 12  1  0
  6  7  1  0
  9 13  1  0
 20 15  2  0
 21 16  1  0
 22 17  1  0
 20 14  1  0
 22 23  1  0
 21 22  1  0
 23 19  1  0
 20 21  1  0
 23 18  2  0
 30 25  2  0
 31 26  1  0
 32 27  1  0
 30 24  1  0
 32 33  1  0
 31 32  1  0
 33 29  1  0
 30 31  1  0
 33 28  2  0
  1 35  1  0
  1 36  1  0
  2 37  1  0
  3 38  1  0
  5 39  1  0
  7 40  1  0
  8 41  1  1
 10 42  1  0
 10 43  1  0
 11 44  1  0
 11 45  1  0
 12 46  1  0
 12 47  1  0
 13 48  1  0
 13 49  1  0
 13 50  1  0
 14 51  1  0
 16 52  1  0
 17 53  1  0
 19 54  1  0
 21 55  1  6
 22 56  1  1
 24 57  1  0
 26 58  1  0
 27 59  1  0
 29 60  1  0
 31 61  1  6
 32 62  1  1
 34 63  1  0
 34 64  1  0
M  END
> <Uni-Dock RESULT> 
ENERGY=   -5.726  LOWER_BOUND=    7.173  UPPER_BOUND=    8.963
INTER + INTRA:          -5.726
INTER:                  -5.726
INTRA:                   0.000
UNBOUND:                 0.000

$$$$

     RDKit          3D

 64 61  0  0  0  0  0  0  0  0999 V2000
   45.4863    4.9002   12.4416 O   0  0  0  0  0  0  0  0  0  0  0  0
   47.6967    6.1203   14.4393 C   0  0  0  0  0  0  0  0  0  0  0  0
   48.5802    6.8406   13.6538 C   0  0  0  0  0  0  0  0  0  0  0  0
   48.3786    7.1049   12.3454 N   0  0  0  0  0  0  0  0  0  0  0  0
   47.2394    6.6199   11.7990 C   0  0  0  0  0  0  0  0  0  0  0  0
   46.2859    5.8774   12.4910 C   0  0  0  0  0  0  0  0  0  0  0  0
   46.5340    5.6358   13.8472 C   0  0  0  0  0  0  0  0  0  0  0  0
   45.0331    5.4053   11.7948 C   0  0  1  0  0  0  0  0  0  0  0  0
   44.6038    4.0581   12.2195 N   0  0  0  0  0  0  0  0  0  0  0  0
   43.1512    4.0203   12.0596 C   0  0  0  0  0  0  0  0  0  0  0  0
   42.7444    5.3701   12.6143 C   0  0  0  0  0  0  0  0  0  0  0  0
   43.8289    6.3116   12.1072 C   0  0  0  0  0  0  0  0  0  0  0  0
   45.2688    2.9908   11.4834 C   0  0  0  0  0  0  0  0  0  0  0  0
   46.7086    7.3091   13.6130 O   0  0  0  0  0  0  0  0  0  0  0  0
   47.4423    6.8345   11.5530 O   0  0  0  0  0  0  0  0  0  0  0  0
   44.9056    6.0518   10.8289 O   0  0  0  0  0  0  0  0  0  0  0  0
   45.7848    4.4711   14.0741 O   0  0  0  0  0  0  0  0  0  0  0  0
   43.2280    3.7333   13.3608 O   0  0  0  0  0  0  0  0  0  0  0  0
   43.9614    3.2111   11.3132 O   0  0  0  0  0  0  0  0  0  0  0  0
   46.5721    6.7293   12.4061 C   0  0  0  0  0  0  0  0  0  0  0  0
   45.2583    5.9879   12.2205 C   0  0  2  0  0  0  0  0  0  0  0  0
   45.4243    4.5402   12.6861 C   0  0  2  0  0  0  0  0  0  0  0  0
   44.1034    3.8092   12.5102 C   0  0  0  0  0  0  0  0  0  0  0  0
   47.9249    4.1777   13.1054 O   0  0  0  0  0  0  0  0  0  0  0  0
   47.1813    5.8245   14.4109 O   0  0  0  0  0  0  0  0  0  0  0  0
   45.5391    3.4488   12.2043 O   0  0  0  0  0  0  0  0  0  0  0  0
   45.6199    5.7762   10.9059 O   0  0  0  0  0  0  0  0  0  0  0  0
   42.7953    5.6322   13.1590 O   0  0  0  0  0  0  0  0  0  0  0  0
   43.0594    6.3019   11.0429 O   0  0  0  0  0  0  0  0  0  0  0  0
   46.9330    4.9463   13.5994 C   0  0  0  0  0  0  0  0  0  0  0  0
   45.5572    4.6172   13.0290 C   0  0  1  0  0  0  0  0  0  0  0  0
   45.0752    5.8320   12.2343 C   0  0  2  0  0  0  0  0  0  0  0  0
   43.5496    5.8750   12.2328 C   0  0  0  0  0  0  0  0  0  0  0  0
   45.5074    4.9095   12.4492 O   0  0  0  0  0  0  0  0  0  0  0  0
   44.5875    5.1931   12.2266 H   0  0  0  0  0  0  0  0  0  0  0  0
   45.9427    5.7157   12.6998 H   0  0  0  0  0  0  0  0  0  0  0  0
   47.9078    5.9397   15.4875 H   0  0  0  0  0  0  0  0  0  0  0  0
   49.5016    7.2374   14.0697 H   0  0  0  0  0  0  0  0  0  0  0  0
   47.1132    6.8588   10.7461 H   0  0  0  0  0  0  0  0  0  0  0  0
   45.8234    5.0648   14.4403 H   0  0  0  0  0  0  0  0  0  0  0  0
   45.1914    5.4180   10.7065 H   0  0  0  0  0  0  0  0  0  0  0  0
   42.8556    3.9348   11.0056 H   0  0  0  0  0  0  0  0  0  0  0  0
   42.6971    3.1995   12.6247 H   0  0  0  0  0  0  0  0  0  0  0  0
   41.7442    5.6743   12.2918 H   0  0  0  0  0  0  0  0  0  0  0  0
   42.7547    5.3495   13.7113 H   0  0  0  0  0  0  0  0  0  0  0  0
   43.4881    6.7985   11.1840 H   0  0  0  0  0  0  0  0  0  0  0  0
   44.0319    7.0977   12.8437 H   0  0  0  0  0  0  0  0  0  0  0  0
   45.0746    3.0437   10.4057 H   0  0  0  0  0  0  0  0  0  0  0  0
   44.9294    2.0135   11.8442 H   0  0  0  0  0  0  0  0  0  0  0  0
   46.3522    3.0269   11.6402 H   0  0  0  0  0  0  0  0  0  0  0  0
   47.5916    7.7327   13.5875 H   0  0  0  0  0  0  0  0  0  0  0  0
   45.7325    5.9291   10.3191 H   0  0  0  0  0  0  0  0  0  0  0  0
   44.9681    4.6341   14.5889 H   0  0  0  0  0  0  0  0  0  0  0  0
   43.0646    2.8152   11.3349 H   0  0  0  0  0  0  0  0  0  0  0  0
   44.4754    6.5124   12.7803 H   0  0  0  0  0  0  0  0  0  0  0  0
   46.2006    4.0139   12.1191 H   0  0  0  0  0  0  0  0  0  0  0  0
   48.7334    4.4884   13.5635 H   0  0  0  0  0  0  0  0  0  0  0  0
   46.1083    3.6727   11.4403 H   0  0  0  0  0  0  0  0  0  0  0  0
   45.0168    6.3137   10.3531 H   0  0  0  0  0  0  0  0  0  0  0  0
   42.0854    6.2692   11.1676 H   0  0  0  0  0  0  0  0  0  0  0  0
   44.9199    4.4029   13.8940 H   0  0  0  0  0  0  0  0  0  0  0  0
   45.4012    6.7779   12.6828 H   0  0  0  0  0  0  0  0  0  0  0  0
   44.5956    5.1460   12.2216 H   0  0  0  0  0  0  0  0  0  0  0  0
   45.9136    5.7535   12.6972 H   0  0  0  0  0  0  0  0  0  0  0  0
  7  2  2  0
  2  3  1  0
  8  6  1  0
  8  9  1  0
  4  5  1  0
  5  6  2  0
  3  4  2  0
  9 10  1  0
 10 11  1  0
 11 12  1  0
  8 12  1  0
  6  7  1  0
  9 13  1  0
 20 15  2  0
 21 16  1  0
 22 17  1  0
 20 14  1  0
 22 23  1  0
 21 22  1  0
 23 19  1  0
 20 21  1  0
 23 18  2  0
 30 25  2  0
 31 26  1  0
 32 27  1  0
 30 24  1  0
 32 33  1  0
 31 32  1  0
 33 29  1  0
 30 31  1  0
 33 28  2  0
  1 35  1  0
  1 36  1  0
  2 37  1  0
  3 38  1  0
  5 39  1  0
  7 40  1  0
  8 41  1  1
 10 42  1  0
 10 43  1  0
 11 44  1  0
 11 45  1  0
 12 46  1  0
 12 47  1  0
 13 48  1  0
 13 49  1  0
 13 50  1  0
 14 51  1  0
 16 52  1  0
 17 53  1  0
 19 54  1  0
 21 55  1  6
 22 56  1  1
 24 57  1  0
 26 58  1  0
 27 59  1  0
 29 60  1  0
 31 61  1  6
 32 62  1  1
 34 63  1  0
 34 64  1  0
M  END
> <Uni-Dock RESULT> 
ENERGY=   -5.684  LOWER_BOUND=    1.453  UPPER_BOUND=    3.983
INTER + INTRA:          -5.684
INTER:                  -5.684
INTRA:                   0.000
UNBOUND:                 0.000

$$$$

     RDKit          3D

 64 61  0  0  0  0  0  0  0  0999 V2000
   48.3797    5.5352   19.2661 O   0  0  0  0  0  0  0  0  0  0  0  0
   47.0978    3.5525   17.0774 C   0  0  0  0  0  0  0  0  0  0  0  0
   48.1531    2.8573   16.5124 C   0  0  0  0  0  0  0  0  0  0  0  0
   49.4194    2.9051   16.9779 N   0  0  0  0  0  0  0  0  0  0  0  0
   49.6373    3.6907   18.0580 C   0  0  0  0  0  0  0  0  0  0  0  0
   48.6544    4.4390   18.7010 C   0  0  0  0  0  0  0  0  0  0  0  0
   47.3552    4.3512   18.1878 C   0  0  0  0  0  0  0  0  0  0  0  0
   48.9963    5.2634   19.9179 C   0  0  1  0  0  0  0  0  0  0  0  0
   48.2772    6.5518   19.9687 N   0  0  0  0  0  0  0  0  0  0  0  0
   48.1327    6.8861   21.3845 C   0  0  0  0  0  0  0  0  0  0  0  0
   47.7381    5.5494   21.9785 C   0  0  0  0  0  0  0  0  0  0  0  0
   48.6017    4.5483   21.2225 C   0  0  0  0  0  0  0  0  0  0  0  0
   48.9456    7.6061   19.2173 C   0  0  0  0  0  0  0  0  0  0  0  0
   47.8927    2.7570   18.4218 O   0  0  0  0  0  0  0  0  0  0  0  0
   49.9512    3.4970   17.9497 O   0  0  0  0  0  0  0  0  0  0  0  0
   50.0098    4.8605   20.3391 O   0  0  0  0  0  0  0  0  0  0  0  0
   46.7928    5.5626   18.6186 O   0  0  0  0  0  0  0  0  0  0  0  0
   46.8445    6.8844   21.0353 O   0  0  0  0  0  0  0  0  0  0  0  0
   48.8829    7.6677   20.5511 O   0  0  0  0  0  0  0  0  0  0  0  0
   48.9348    3.5843   18.6247 C   0  0  0  0  0  0  0  0  0  0  0  0
   48.7268    4.5754   19.7581 C   0  0  2  0  0  0  0  0  0  0  0  0
   48.0717    5.8434   19.2076 C   0  0  2  0  0  0  0  0  0  0  0  0
   47.8547    6.8237   20.3486 C   0  0  0  0  0  0  0  0  0  0  0  0
   48.1108    5.6500   16.6539 O   0  0  0  0  0  0  0  0  0  0  0  0
   46.9725    3.9370   17.5137 O   0  0  0  0  0  0  0  0  0  0  0  0
   48.3797    6.9700   18.9388 O   0  0  0  0  0  0  0  0  0  0  0  0
   50.0340    4.9795   19.5793 O   0  0  0  0  0  0  0  0  0  0  0  0
   47.2658    5.1776   21.8974 O   0  0  0  0  0  0  0  0  0  0  0  0
   49.4726    4.9140   22.1350 O   0  0  0  0  0  0  0  0  0  0  0  0
   47.5609    4.9918   17.6946 C   0  0  0  0  0  0  0  0  0  0  0  0
   47.7801    5.6755   19.0403 C   0  0  1  0  0  0  0  0  0  0  0  0
   48.6508    4.7560   19.8982 C   0  0  2  0  0  0  0  0  0  0  0  0
   48.3521    4.9938   21.3758 C   0  0  0  0  0  0  0  0  0  0  0  0
   48.3782    5.5210   19.2467 O   0  0  0  0  0  0  0  0  0  0  0  0
   48.4546    5.4614   20.2299 H   0  0  0  0  0  0  0  0  0  0  0  0
   48.3570    4.6150   18.9619 H   0  0  0  0  0  0  0  0  0  0  0  0
   46.0985    3.4752   16.6636 H   0  0  0  0  0  0  0  0  0  0  0  0
   48.0027    2.2228   15.6438 H   0  0  0  0  0  0  0  0  0  0  0  0
   50.6679    3.6974   18.4037 H   0  0  0  0  0  0  0  0  0  0  0  0
   46.5451    4.9102   18.6505 H   0  0  0  0  0  0  0  0  0  0  0  0
   50.0809    5.4428   19.9464 H   0  0  0  0  0  0  0  0  0  0  0  0
   49.0766    7.2360   21.8228 H   0  0  0  0  0  0  0  0  0  0  0  0
   47.3601    7.6442   21.5506 H   0  0  0  0  0  0  0  0  0  0  0  0
   47.8983    5.5051   23.0599 H   0  0  0  0  0  0  0  0  0  0  0  0
   46.6776    5.3450   21.7846 H   0  0  0  0  0  0  0  0  0  0  0  0
   49.5048    4.3293   21.8073 H   0  0  0  0  0  0  0  0  0  0  0  0
   48.0613    3.6056   21.0775 H   0  0  0  0  0  0  0  0  0  0  0  0
   49.9557    7.8092   19.5920 H   0  0  0  0  0  0  0  0  0  0  0  0
   48.3675    8.5353   19.2725 H   0  0  0  0  0  0  0  0  0  0  0  0
   49.0185    7.3417   18.1569 H   0  0  0  0  0  0  0  0  0  0  0  0
   48.1652    2.1932   17.6683 H   0  0  0  0  0  0  0  0  0  0  0  0
   50.6484    4.9307   19.6002 H   0  0  0  0  0  0  0  0  0  0  0  0
   46.1582    5.4508   19.3557 H   0  0  0  0  0  0  0  0  0  0  0  0
   48.6159    8.2081   21.3245 H   0  0  0  0  0  0  0  0  0  0  0  0
   48.1153    4.1005   20.5339 H   0  0  0  0  0  0  0  0  0  0  0  0
   48.6886    6.3227   18.4390 H   0  0  0  0  0  0  0  0  0  0  0  0
   47.8827    5.1104   15.8684 H   0  0  0  0  0  0  0  0  0  0  0  0
   49.2690    6.8054   18.5647 H   0  0  0  0  0  0  0  0  0  0  0  0
   50.5349    4.6847   20.3669 H   0  0  0  0  0  0  0  0  0  0  0  0
   49.1506    5.0982   23.0447 H   0  0  0  0  0  0  0  0  0  0  0  0
   46.7812    5.8229   19.4654 H   0  0  0  0  0  0  0  0  0  0  0  0
   48.4397    3.6955   19.7167 H   0  0  0  0  0  0  0  0  0  0  0  0
   48.4532    5.5062   20.2127 H   0  0  0  0  0  0  0  0  0  0  0  0
   48.3599    4.5844   18.9986 H   0  0  0  0  0  0  0  0  0  0  0  0
  7  2  2  0
  2  3  1  0
  8  6  1  0
  8  9  1  0
  4  5  1  0
  5  6  2  0
  3  4  2  0
  9 10  1  0
 10 11  1  0
 11 12  1  0
  8 12  1  0
  6  7  1  0
  9 13  1  0
 20 15  2  0
 21 16  1  0
 22 17  1  0
 20 14  1  0
 22 23  1  0
 21 22  1  0
 23 19  1  0
 20 21  1  0
 23 18  2  0
 30 25  2  0
 31 26  1  0
 32 27  1  0
 30 24  1  0
 32 33  1  0
 31 32  1  0
 33 29  1  0
 30 31  1  0
 33 28  2  0
  1 35  1  0
  1 36  1  0
  2 37  1  0
  3 38  1  0
  5 39  1  0
  7 40  1  0
  8 41  1  1
 10 42  1  0
 10 43  1  0
 11 44  1  0
 11 45  1  0
 12 46  1  0
 12 47  1  0
 13 48  1  0
 13 49  1  0
 13 50  1  0
 14 51  1  0
 16 52  1  0
 17 53  1  0
 19 54  1  0
 21 55  1  6
 22 56  1  1
 24 57  1  0
 26 58  1  0
 27 59  1  0
 29 60  1  0
 31 61  1  6
 32 62  1  1
 34 63  1  0
 34 64  1  0
M  END
> <Uni-Dock RESULT> 
ENERGY=   -5.597  LOWER_BOUND=    7.187  UPPER_BOUND=    8.485
INTER + INTRA:          -5.597
INTER:                  -5.597
INTRA:                   0.000
UNBOUND:                 0.000

$$$$

     RDKit          3D

 64 61  0  0  0  0  0  0  0  0999 V2000
   44.9455    5.3711   12.4059 O   0  0  0  0  0  0  0  0  0  0  0  0
   47.7967    6.8636   12.4961 C   0  0  0  0  0  0  0  0  0  0  0  0
   48.2679    6.7309   13.7909 C   0  0  0  0  0  0  0  0  0  0  0  0
   47.6899    5.9449   14.7239 N   0  0  0  0  0  0  0  0  0  0  0  0
   46.5852    5.2638   14.3407 C   0  0  0  0  0  0  0  0  0  0  0  0
   46.0199    5.3276   13.0696 C   0  0  0  0  0  0  0  0  0  0  0  0
   46.6586    6.1491   12.1335 C   0  0  0  0  0  0  0  0  0  0  0  0
   44.7999    4.5051   12.7342 C   0  0  1  0  0  0  0  0  0  0  0  0
   43.8475    5.2094   11.8531 N   0  0  0  0  0  0  0  0  0  0  0  0
   43.1588    4.1753   11.0827 C   0  0  0  0  0  0  0  0  0  0  0  0
   44.3031    3.2554   10.7088 C   0  0  0  0  0  0  0  0  0  0  0  0
   45.1675    3.2252   11.9624 C   0  0  0  0  0  0  0  0  0  0  0  0
   42.9205    6.0631   12.5844 C   0  0  0  0  0  0  0  0  0  0  0  0
   47.8556    5.1359   12.7860 O   0  0  0  0  0  0  0  0  0  0  0  0
   46.6953    5.1783   14.6990 O   0  0  0  0  0  0  0  0  0  0  0  0
   44.7196    3.6571   13.5352 O   0  0  0  0  0  0  0  0  0  0  0  0
   45.6108    6.4462   11.2485 O   0  0  0  0  0  0  0  0  0  0  0  0
   43.6665    4.8871   10.0742 O   0  0  0  0  0  0  0  0  0  0  0  0
   42.4771    4.9637   11.9670 O   0  0  0  0  0  0  0  0  0  0  0  0
   46.7257    4.9601   13.4957 C   0  0  0  0  0  0  0  0  0  0  0  0
   45.5516    4.4523   12.6748 C   0  0  2  0  0  0  0  0  0  0  0  0
   44.7815    5.6438   12.1026 C   0  0  2  0  0  0  0  0  0  0  0  0
   43.6176    5.1280   11.2722 C   0  0  0  0  0  0  0  0  0  0  0  0
   45.7236    7.7444   13.2250 O   0  0  0  0  0  0  0  0  0  0  0  0
   47.3561    6.6838   12.1390 O   0  0  0  0  0  0  0  0  0  0  0  0
   43.7538    6.2280   12.2999 O   0  0  0  0  0  0  0  0  0  0  0  0
   44.8371    4.3490   13.8506 O   0  0  0  0  0  0  0  0  0  0  0  0
   44.8090    3.3271   10.3821 O   0  0  0  0  0  0  0  0  0  0  0  0
   44.2894    2.3101   12.3035 O   0  0  0  0  0  0  0  0  0  0  0  0
   46.1688    6.7635   12.4136 C   0  0  0  0  0  0  0  0  0  0  0  0
   45.0742    5.8133   11.9390 C   0  0  1  0  0  0  0  0  0  0  0  0
   45.3698    4.4290   12.5185 C   0  0  2  0  0  0  0  0  0  0  0  0
   44.7970    3.3526   11.6008 C   0  0  0  0  0  0  0  0  0  0  0  0
   44.9648    5.3825   12.4150 O   0  0  0  0  0  0  0  0  0  0  0  0
   44.6943    4.4906   12.0872 H   0  0  0  0  0  0  0  0  0  0  0  0
   45.8739    5.2698   12.6660 H   0  0  0  0  0  0  0  0  0  0  0  0
   48.3027    7.5079   11.7856 H   0  0  0  0  0  0  0  0  0  0  0  0
   49.1511    7.2695   14.1218 H   0  0  0  0  0  0  0  0  0  0  0  0
   46.1539    4.6396   15.1192 H   0  0  0  0  0  0  0  0  0  0  0  0
   46.2653    6.2363   11.1233 H   0  0  0  0  0  0  0  0  0  0  0  0
   44.2933    4.2051   13.6631 H   0  0  0  0  0  0  0  0  0  0  0  0
   42.4172    3.6372   11.6876 H   0  0  0  0  0  0  0  0  0  0  0  0
   42.6652    4.5849   10.1950 H   0  0  0  0  0  0  0  0  0  0  0  0
   43.9630    2.2585   10.4129 H   0  0  0  0  0  0  0  0  0  0  0  0
   44.8752    3.6796    9.8741 H   0  0  0  0  0  0  0  0  0  0  0  0
   44.9059    2.3461   12.5659 H   0  0  0  0  0  0  0  0  0  0  0  0
   46.2280    3.1443   11.6972 H   0  0  0  0  0  0  0  0  0  0  0  0
   42.3100    5.4994   13.2996 H   0  0  0  0  0  0  0  0  0  0  0  0
   42.2465    6.5742   11.8880 H   0  0  0  0  0  0  0  0  0  0  0  0
   43.4600    6.8433   13.1321 H   0  0  0  0  0  0  0  0  0  0  0  0
   48.5089    5.4686   13.4359 H   0  0  0  0  0  0  0  0  0  0  0  0
   44.6842    4.1145   14.4001 H   0  0  0  0  0  0  0  0  0  0  0  0
   45.6831    5.9724   10.3948 H   0  0  0  0  0  0  0  0  0  0  0  0
   41.8371    4.6028   11.3176 H   0  0  0  0  0  0  0  0  0  0  0  0
   45.9319    3.7921   11.8868 H   0  0  0  0  0  0  0  0  0  0  0  0
   44.3935    6.2979   12.8917 H   0  0  0  0  0  0  0  0  0  0  0  0
   46.5201    8.2748   13.4360 H   0  0  0  0  0  0  0  0  0  0  0  0
   43.7405    6.1978   13.2781 H   0  0  0  0  0  0  0  0  0  0  0  0
   44.7066    3.3944   14.0232 H   0  0  0  0  0  0  0  0  0  0  0  0
   43.9455    1.7068   11.6085 H   0  0  0  0  0  0  0  0  0  0  0  0
   45.1214    5.8279   10.8445 H   0  0  0  0  0  0  0  0  0  0  0  0
   46.4455    4.2266   12.5829 H   0  0  0  0  0  0  0  0  0  0  0  0
   44.6597    4.5238   12.0856 H   0  0  0  0  0  0  0  0  0  0  0  0
   45.8893    5.2251   12.6586 H   0  0  0  0  0  0  0  0  0  0  0  0
  7  2  2  0
  2  3  1  0
  8  6  1  0
  8  9  1  0
  4  5  1  0
  5  6  2  0
  3  4  2  0
  9 10  1  0
 10 11  1  0
 11 12  1  0
  8 12  1  0
  6  7  1  0
  9 13  1  0
 20 15  2  0
 21 16  1  0
 22 17  1  0
 20 14  1  0
 22 23  1  0
 21 22  1  0
 23 19  1  0
 20 21  1  0
 23 18  2  0
 30 25  2  0
 31 26  1  0
 32 27  1  0
 30 24  1  0
 32 33  1  0
 31 32  1  0
 33 29  1  0
 30 31  1  0
 33 28  2  0
  1 35  1  0
  1 36  1  0
  2 37  1  0
  3 38  1  0
  5 39  1  0
  7 40  1  0
  8 41  1  1
 10 42  1  0
 10 43  1  0
 11 44  1  0
 11 45  1  0
 12 46  1  0
 12 47  1  0
 13 48  1  0
 13 49  1  0
 13 50  1  0
 14 51  1  0
 16 52  1  0
 17 53  1  0
 19 54  1  0
 21 55  1  6
 22 56  1  1
 24 57  1  0
 26 58  1  0
 27 59  1  0
 29 60  1  0
 31 61  1  6
 32 62  1  1
 34 63  1  0
 34 64  1  0
M  END
> <Uni-Dock RESULT> 
ENERGY=   -5.531  LOWER_BOUND=    1.568  UPPER_BOUND=    3.966
INTER + INTRA:          -5.531
INTER:                  -5.531
INTRA:                   0.000
UNBOUND:                 0.000

$$$$

     RDKit          3D

 64 61  0  0  0  0  0  0  0  0999 V2000
   40.1979   11.7477   10.5939 O   0  0  0  0  0  0  0  0  0  0  0  0
   43.0223   10.9711    9.2580 C   0  0  0  0  0  0  0  0  0  0  0  0
   43.9355   10.8834   10.2946 C   0  0  0  0  0  0  0  0  0  0  0  0
   43.5961   10.9269   11.6005 N   0  0  0  0  0  0  0  0  0  0  0  0
   42.2794   11.0693   11.8787 C   0  0  0  0  0  0  0  0  0  0  0  0
   41.2766   11.1751   10.9181 C   0  0  0  0  0  0  0  0  0  0  0  0
   41.6755   11.1165    9.5778 C   0  0  0  0  0  0  0  0  0  0  0  0
   39.8316   11.3035   11.3337 C   0  0  1  0  0  0  0  0  0  0  0  0
   39.0565   12.2160   10.4700 N   0  0  0  0  0  0  0  0  0  0  0  0
   37.6750   11.7391   10.5036 C   0  0  0  0  0  0  0  0  0  0  0  0
   37.8628   10.2407   10.3824 C   0  0  0  0  0  0  0  0  0  0  0  0
   39.0884    9.9588   11.2415 C   0  0  0  0  0  0  0  0  0  0  0  0
   39.1692   13.6120   10.8717 C   0  0  0  0  0  0  0  0  0  0  0  0
   42.3623    9.7670   10.3475 O   0  0  0  0  0  0  0  0  0  0  0  0
   42.4937   11.0234   12.1946 O   0  0  0  0  0  0  0  0  0  0  0  0
   39.7544   10.9446   12.4438 O   0  0  0  0  0  0  0  0  0  0  0  0
   40.6308   11.7992    8.9361 O   0  0  0  0  0  0  0  0  0  0  0  0
   37.8904   11.6701    9.1882 O   0  0  0  0  0  0  0  0  0  0  0  0
   38.0075   12.9651   11.0082 O   0  0  0  0  0  0  0  0  0  0  0  0
   41.8145   10.5540   11.2919 C   0  0  0  0  0  0  0  0  0  0  0  0
   40.3167   10.7591   11.1345 C   0  0  2  0  0  0  0  0  0  0  0  0
   40.0637   11.9762   10.2431 C   0  0  2  0  0  0  0  0  0  0  0  0
   38.5647   12.1667   10.0794 C   0  0  0  0  0  0  0  0  0  0  0  0
   42.3232   13.1362    9.9123 O   0  0  0  0  0  0  0  0  0  0  0  0
   42.4413   11.0438    9.1527 O   0  0  0  0  0  0  0  0  0  0  0  0
   39.7084   13.1152   10.3571 O   0  0  0  0  0  0  0  0  0  0  0  0
   40.3332   11.4396   12.3347 O   0  0  0  0  0  0  0  0  0  0  0  0
   38.1002    9.8811    9.9556 O   0  0  0  0  0  0  0  0  0  0  0  0
   38.1777    9.9620   12.1880 O   0  0  0  0  0  0  0  0  0  0  0  0
   41.7625   11.9451    9.6199 C   0  0  0  0  0  0  0  0  0  0  0  0
   40.2763   11.8660    9.9536 C   0  0  1  0  0  0  0  0  0  0  0  0
   40.0975   10.8234   11.0583 C   0  0  2  0  0  0  0  0  0  0  0  0
   38.7057   10.2043   10.9629 C   0  0  0  0  0  0  0  0  0  0  0  0
   40.2219   11.7455   10.5912 O   0  0  0  0  0  0  0  0  0  0  0  0
   39.4291   11.2044   10.8256 H   0  0  0  0  0  0  0  0  0  0  0  0
   40.9442   11.1309   10.6443 H   0  0  0  0  0  0  0  0  0  0  0  0
   43.3505   10.9276    8.2253 H   0  0  0  0  0  0  0  0  0  0  0  0
   44.9973   10.7712   10.0956 H   0  0  0  0  0  0  0  0  0  0  0  0
   42.0483   11.0948   12.9406 H   0  0  0  0  0  0  0  0  0  0  0  0
   40.9366   11.1900    8.7831 H   0  0  0  0  0  0  0  0  0  0  0  0
   39.7793   11.6469   12.3772 H   0  0  0  0  0  0  0  0  0  0  0  0
   37.1773   11.9871   11.4503 H   0  0  0  0  0  0  0  0  0  0  0  0
   37.0824   12.1388    9.6740 H   0  0  0  0  0  0  0  0  0  0  0  0
   36.9843    9.6779   10.7120 H   0  0  0  0  0  0  0  0  0  0  0  0
   38.0694    9.9661    9.3404 H   0  0  0  0  0  0  0  0  0  0  0  0
   38.7681    9.6482   12.2448 H   0  0  0  0  0  0  0  0  0  0  0  0
   39.6801    9.1419   10.8124 H   0  0  0  0  0  0  0  0  0  0  0  0
   38.8076   13.7828   11.8925 H   0  0  0  0  0  0  0  0  0  0  0  0
   38.5909   14.2492   10.1933 H   0  0  0  0  0  0  0  0  0  0  0  0
   40.2092   13.9507   10.8137 H   0  0  0  0  0  0  0  0  0  0  0  0
   43.3156    9.7359   10.5713 H   0  0  0  0  0  0  0  0  0  0  0  0
   40.3799   11.5060   12.9460 H   0  0  0  0  0  0  0  0  0  0  0  0
   40.0294   11.2047    8.4429 H   0  0  0  0  0  0  0  0  0  0  0  0
   37.0502   12.9675   10.7959 H   0  0  0  0  0  0  0  0  0  0  0  0
   39.8779    9.8456   10.7170 H   0  0  0  0  0  0  0  0  0  0  0  0
   40.4945   12.8907   10.6665 H   0  0  0  0  0  0  0  0  0  0  0  0
   43.2594   13.0457    9.6377 H   0  0  0  0  0  0  0  0  0  0  0  0
   40.1670   13.3408   11.1917 H   0  0  0  0  0  0  0  0  0  0  0  0
   39.8574   10.8841   12.9852 H   0  0  0  0  0  0  0  0  0  0  0  0
   37.2921    9.5861   11.9891 H   0  0  0  0  0  0  0  0  0  0  0  0
   39.7769   11.5787    9.0217 H   0  0  0  0  0  0  0  0  0  0  0  0
   40.8034    9.9900   10.9612 H   0  0  0  0  0  0  0  0  0  0  0  0
   39.4196   11.2504   10.8158 H   0  0  0  0  0  0  0  0  0  0  0  0
   40.9297   11.0870   10.6567 H   0  0  0  0  0  0  0  0  0  0  0  0
  7  2  2  0
  2  3  1  0
  8  6  1  0
  8  9  1  0
  4  5  1  0
  5  6  2  0
  3  4  2  0
  9 10  1  0
 10 11  1  0
 11 12  1  0
  8 12  1  0
  6  7  1  0
  9 13  1  0
 20 15  2  0
 21 16  1  0
 22 17  1  0
 20 14  1  0
 22 23  1  0
 21 22  1  0
 23 19  1  0
 20 21  1  0
 23 18  2  0
 30 25  2  0
 31 26  1  0
 32 27  1  0
 30 24  1  0
 32 33  1  0
 31 32  1  0
 33 29  1  0
 30 31  1  0
 33 28  2  0
  1 35  1  0
  1 36  1  0
  2 37  1  0
  3 38  1  0
  5 39  1  0
  7 40  1  0
  8 41  1  1
 10 42  1  0
 10 43  1  0
 11 44  1  0
 11 45  1  0
 12 46  1  0
 12 47  1  0
 13 48  1  0
 13 49  1  0
 13 50  1  0
 14 51  1  0
 16 52  1  0
 17 53  1  0
 19 54  1  0
 21 55  1  6
 22 56  1  1
 24 57  1  0
 26 58  1  0
 27 59  1  0
 29 60  1  0
 31 61  1  6
 32 62  1  1
 34 63  1  0
 34 64  1  0
M  END
> <Uni-Dock RESULT> 
ENERGY=   -4.704  LOWER_BOUND=    5.430  UPPER_BOUND=    7.959
INTER + INTRA:          -4.704
INTER:                  -4.704
INTRA:                   0.000
UNBOUND:                 0.000

$$$$

     RDKit          3D

 64 61  0  0  0  0  0  0  0  0999 V2000
   47.2119    6.5021   13.4882 O   0  0  0  0  0  0  0  0  0  0  0  0
   45.6838    3.7787   12.7054 C   0  0  0  0  0  0  0  0  0  0  0  0
   44.3292    4.0482   12.7994 C   0  0  0  0  0  0  0  0  0  0  0  0
   43.8205    5.2843   12.9885 N   0  0  0  0  0  0  0  0  0  0  0  0
   44.7130    6.2962   13.0925 C   0  0  0  0  0  0  0  0  0  0  0  0
   46.0950    6.1401   13.0211 C   0  0  0  0  0  0  0  0  0  0  0  0
   46.5755    4.8416   12.8158 C   0  0  0  0  0  0  0  0  0  0  0  0
   47.0050    7.3397   13.1214 C   0  0  1  0  0  0  0  0  0  0  0  0
   48.2458    7.0676   13.8738 N   0  0  0  0  0  0  0  0  0  0  0  0
   49.2617    7.9672   13.3299 C   0  0  0  0  0  0  0  0  0  0  0  0
   49.0057    7.8574   11.8407 C   0  0  0  0  0  0  0  0  0  0  0  0
   47.4870    7.8093   11.7371 C   0  0  0  0  0  0  0  0  0  0  0  0
   48.0836    7.2232   15.3134 C   0  0  0  0  0  0  0  0  0  0  0  0
   45.4085    5.1224   11.6140 O   0  0  0  0  0  0  0  0  0  0  0  0
   44.3486    6.4185   13.0986 O   0  0  0  0  0  0  0  0  0  0  0  0
   46.3578    8.2884   12.9017 O   0  0  0  0  0  0  0  0  0  0  0  0
   47.8689    4.9247   13.3539 O   0  0  0  0  0  0  0  0  0  0  0  0
   49.8713    6.8008   13.1075 O   0  0  0  0  0  0  0  0  0  0  0  0
   48.8435    8.0815   14.6261 O   0  0  0  0  0  0  0  0  0  0  0  0
   45.3706    6.1498   12.4826 C   0  0  0  0  0  0  0  0  0  0  0  0
   46.6750    6.9234   12.5837 C   0  0  2  0  0  0  0  0  0  0  0  0
   47.5558    6.2913   13.6629 C   0  0  2  0  0  0  0  0  0  0  0  0
   48.8632    7.0616   13.7487 C   0  0  0  0  0  0  0  0  0  0  0  0
   46.1051    4.5766   14.8941 O   0  0  0  0  0  0  0  0  0  0  0  0
   46.2154    4.0443   12.7322 O   0  0  0  0  0  0  0  0  0  0  0  0
   47.9056    6.5214   14.7859 O   0  0  0  0  0  0  0  0  0  0  0  0
   46.0245    7.8165   13.4101 O   0  0  0  0  0  0  0  0  0  0  0  0
   49.0303    7.3995   11.4437 O   0  0  0  0  0  0  0  0  0  0  0  0
   47.6409    9.1117   11.8097 O   0  0  0  0  0  0  0  0  0  0  0  0
   46.5810    4.7666   13.6466 C   0  0  0  0  0  0  0  0  0  0  0  0
   47.5478    5.9403   13.5289 C   0  0  1  0  0  0  0  0  0  0  0  0
   46.9020    6.9923   12.6257 C   0  0  2  0  0  0  0  0  0  0  0  0
   47.9863    7.8056   11.9242 C   0  0  0  0  0  0  0  0  0  0  0  0
   47.1942    6.4856   13.4870 O   0  0  0  0  0  0  0  0  0  0  0  0
   47.6162    7.1897   12.9371 H   0  0  0  0  0  0  0  0  0  0  0  0
   46.5169    6.1290   12.9245 H   0  0  0  0  0  0  0  0  0  0  0  0
   46.0377    2.7655   12.5500 H   0  0  0  0  0  0  0  0  0  0  0  0
   43.5947    3.2520   12.7215 H   0  0  0  0  0  0  0  0  0  0  0  0
   44.2625    7.2745   13.2390 H   0  0  0  0  0  0  0  0  0  0  0  0
   47.6454    4.6583   12.7479 H   0  0  0  0  0  0  0  0  0  0  0  0
   46.4624    8.1734   13.5903 H   0  0  0  0  0  0  0  0  0  0  0  0
   49.1181    9.0019   13.6677 H   0  0  0  0  0  0  0  0  0  0  0  0
   50.2760    7.6453   13.5887 H   0  0  0  0  0  0  0  0  0  0  0  0
   49.4358    8.6904   11.2766 H   0  0  0  0  0  0  0  0  0  0  0  0
   49.4336    6.9262   11.4486 H   0  0  0  0  0  0  0  0  0  0  0  0
   47.1019    8.8182   11.5385 H   0  0  0  0  0  0  0  0  0  0  0  0
   47.1777    7.1646   10.9064 H   0  0  0  0  0  0  0  0  0  0  0  0
   47.7786    8.2388   15.5915 H   0  0  0  0  0  0  0  0  0  0  0  0
   49.0244    6.9962   15.8272 H   0  0  0  0  0  0  0  0  0  0  0  0
   47.3359    6.5216   15.6986 H   0  0  0  0  0  0  0  0  0  0  0  0
   44.5162    4.7210   11.6637 H   0  0  0  0  0  0  0  0  0  0  0  0
   45.6292    8.2670   13.5555 H   0  0  0  0  0  0  0  0  0  0  0  0
   48.5691    4.9407   12.6697 H   0  0  0  0  0  0  0  0  0  0  0  0
   49.7287    8.4963   14.5492 H   0  0  0  0  0  0  0  0  0  0  0  0
   47.1628    6.9216   11.6021 H   0  0  0  0  0  0  0  0  0  0  0  0
   47.0710    6.3024   14.6457 H   0  0  0  0  0  0  0  0  0  0  0  0
   45.5178    3.7956   14.8212 H   0  0  0  0  0  0  0  0  0  0  0  0
   47.0695    6.8869   15.1398 H   0  0  0  0  0  0  0  0  0  0  0  0
   45.9445    8.6576   12.9158 H   0  0  0  0  0  0  0  0  0  0  0  0
   48.4159    9.5187   11.3637 H   0  0  0  0  0  0  0  0  0  0  0  0
   48.4670    5.5268   13.0994 H   0  0  0  0  0  0  0  0  0  0  0  0
   46.3013    6.5416   11.8267 H   0  0  0  0  0  0  0  0  0  0  0  0
   47.6351    7.1846   12.9809 H   0  0  0  0  0  0  0  0  0  0  0  0
   46.5157    6.1506   12.8818 H   0  0  0  0  0  0  0  0  0  0  0  0
  7  2  2  0
  2  3  1  0
  8  6  1  0
  8  9  1  0
  4  5  1  0
  5  6  2  0
  3  4  2  0
  9 10  1  0
 10 11  1  0
 11 12  1  0
  8 12  1  0
  6  7  1  0
  9 13  1  0
 20 15  2  0
 21 16  1  0
 22 17  1  0
 20 14  1  0
 22 23  1  0
 21 22  1  0
 23 19  1  0
 20 21  1  0
 23 18  2  0
 30 25  2  0
 31 26  1  0
 32 27  1  0
 30 24  1  0
 32 33  1  0
 31 32  1  0
 33 29  1  0
 30 31  1  0
 33 28  2  0
  1 35  1  0
  1 36  1  0
  2 37  1  0
  3 38  1  0
  5 39  1  0
  7 40  1  0
  8 41  1  1
 10 42  1  0
 10 43  1  0
 11 44  1  0
 11 45  1  0
 12 46  1  0
 12 47  1  0
 13 48  1  0
 13 49  1  0
 13 50  1  0
 14 51  1  0
 16 52  1  0
 17 53  1  0
 19 54  1  0
 21 55  1  6
 22 56  1  1
 24 57  1  0
 26 58  1  0
 27 59  1  0
 29 60  1  0
 31 61  1  6
 32 62  1  1
 34 63  1  0
 34 64  1  0
M  END
> <Uni-Dock RESULT> 
ENERGY=   -4.645  LOWER_BOUND=    1.807  UPPER_BOUND=    3.300
INTER + INTRA:          -4.645
INTER:                  -4.645
INTRA:                   0.000
UNBOUND:                 0.000

$$$$

     RDKit          3D

 64 61  0  0  0  0  0  0  0  0999 V2000
   42.3709   11.3400   10.1919 O   0  0  0  0  0  0  0  0  0  0  0  0
   39.7572   12.6405   11.5492 C   0  0  0  0  0  0  0  0  0  0  0  0
   38.8467   11.6107   11.7128 C   0  0  0  0  0  0  0  0  0  0  0  0
   39.1403   10.3089   11.5090 N   0  0  0  0  0  0  0  0  0  0  0  0
   40.4054   10.0281   11.1188 C   0  0  0  0  0  0  0  0  0  0  0  0
   41.3990   10.9826   10.9159 C   0  0  0  0  0  0  0  0  0  0  0  0
   41.0503   12.3182   11.1476 C   0  0  0  0  0  0  0  0  0  0  0  0
   42.7893   10.5623   10.5065 C   0  0  1  0  0  0  0  0  0  0  0  0
   43.4174   11.4886    9.5436 N   0  0  0  0  0  0  0  0  0  0  0  0
   44.8590   11.4004    9.7693 C   0  0  0  0  0  0  0  0  0  0  0  0
   44.9352   11.4013   11.2824 C   0  0  0  0  0  0  0  0  0  0  0  0
   43.7550   10.5362   11.7047 C   0  0  0  0  0  0  0  0  0  0  0  0
   43.0559   11.2032    8.1613 C   0  0  0  0  0  0  0  0  0  0  0  0
   40.5868   11.4491   12.5314 O   0  0  0  0  0  0  0  0  0  0  0  0
   40.1942    9.7121   11.1763 O   0  0  0  0  0  0  0  0  0  0  0  0
   42.8990    9.4258   10.7586 O   0  0  0  0  0  0  0  0  0  0  0  0
   41.9778   13.0013   10.3461 O   0  0  0  0  0  0  0  0  0  0  0  0
   44.6923   12.7082    9.9773 O   0  0  0  0  0  0  0  0  0  0  0  0
   44.3078   11.0011    8.5840 O   0  0  0  0  0  0  0  0  0  0  0  0
   40.9667   10.5657   11.5898 C   0  0  0  0  0  0  0  0  0  0  0  0
   42.4104   10.7221   11.1408 C   0  0  2  0  0  0  0  0  0  0  0  0
   42.4726   11.7066    9.9717 C   0  0  2  0  0  0  0  0  0  0  0  0
   43.9201   11.8681    9.5372 C   0  0  0  0  0  0  0  0  0  0  0  0
   40.0563   12.1567    9.2511 O   0  0  0  0  0  0  0  0  0  0  0  0
   40.3195   12.7447   11.3852 O   0  0  0  0  0  0  0  0  0  0  0  0
   42.6236   11.6818    8.7830 O   0  0  0  0  0  0  0  0  0  0  0  0
   42.2465    9.5816   10.3816 O   0  0  0  0  0  0  0  0  0  0  0  0
   44.7741   11.8001   11.7100 O   0  0  0  0  0  0  0  0  0  0  0  0
   44.6272    9.5828   11.4694 O   0  0  0  0  0  0  0  0  0  0  0  0
   40.8210   12.3447   10.3460 C   0  0  0  0  0  0  0  0  0  0  0  0
   42.2896   11.9887   10.1394 C   0  0  1  0  0  0  0  0  0  0  0  0
   42.6171   10.8008   11.0455 C   0  0  2  0  0  0  0  0  0  0  0  0
   44.0966   10.8295   11.4190 C   0  0  0  0  0  0  0  0  0  0  0  0
   42.3477   11.3427   10.1984 O   0  0  0  0  0  0  0  0  0  0  0  0
   43.2156   11.0560   10.5736 H   0  0  0  0  0  0  0  0  0  0  0  0
   41.7409   11.2481   10.9231 H   0  0  0  0  0  0  0  0  0  0  0  0
   39.4678   13.6699   11.7296 H   0  0  0  0  0  0  0  0  0  0  0  0
   37.8255   11.8121   12.0228 H   0  0  0  0  0  0  0  0  0  0  0  0
   40.6015    8.9693   10.9706 H   0  0  0  0  0  0  0  0  0  0  0  0
   41.7854   13.1077   11.0092 H   0  0  0  0  0  0  0  0  0  0  0  0
   42.7552    9.5498   10.0786 H   0  0  0  0  0  0  0  0  0  0  0  0
   45.2824   10.4714    9.3654 H   0  0  0  0  0  0  0  0  0  0  0  0
   45.3949   12.2529    9.3389 H   0  0  0  0  0  0  0  0  0  0  0  0
   45.8888   11.0169   11.6566 H   0  0  0  0  0  0  0  0  0  0  0  0
   44.8054   12.4198   11.6694 H   0  0  0  0  0  0  0  0  0  0  0  0
   44.0984    9.5073   11.8755 H   0  0  0  0  0  0  0  0  0  0  0  0
   43.3239   10.9041   12.6429 H   0  0  0  0  0  0  0  0  0  0  0  0
   43.3567   10.1956    7.8510 H   0  0  0  0  0  0  0  0  0  0  0  0
   43.5329   11.9245    7.4885 H   0  0  0  0  0  0  0  0  0  0  0  0
   41.9750   11.3004    8.0140 H   0  0  0  0  0  0  0  0  0  0  0  0
   39.6476   11.2345   12.7100 H   0  0  0  0  0  0  0  0  0  0  0  0
   42.1736    8.9782   10.2768 H   0  0  0  0  0  0  0  0  0  0  0  0
   42.6850   13.4376   10.8639 H   0  0  0  0  0  0  0  0  0  0  0  0
   45.2554   11.2020    8.4320 H   0  0  0  0  0  0  0  0  0  0  0  0
   43.0104   11.0588   11.9940 H   0  0  0  0  0  0  0  0  0  0  0  0
   41.8802   11.3642    9.1156 H   0  0  0  0  0  0  0  0  0  0  0  0
   39.1569   12.4337    9.5240 H   0  0  0  0  0  0  0  0  0  0  0  0
   42.1119   10.8736    8.5758 H   0  0  0  0  0  0  0  0  0  0  0  0
   42.7941    8.8826   10.7935 H   0  0  0  0  0  0  0  0  0  0  0  0
   45.5691    9.7402   11.7003 H   0  0  0  0  0  0  0  0  0  0  0  0
   42.8545   12.8883   10.4077 H   0  0  0  0  0  0  0  0  0  0  0  0
   42.0679   10.8377   11.9939 H   0  0  0  0  0  0  0  0  0  0  0  0
   43.2173   11.0694   10.5275 H   0  0  0  0  0  0  0  0  0  0  0  0
   41.7624   11.2320   10.9626 H   0  0  0  0  0  0  0  0  0  0  0  0
  7  2  2  0
  2  3  1  0
  8  6  1  0
  8  9  1  0
  4  5  1  0
  5  6  2  0
  3  4  2  0
  9 10  1  0
 10 11  1  0
 11 12  1  0
  8 12  1  0
  6  7  1  0
  9 13  1  0
 20 15  2  0
 21 16  1  0
 22 17  1  0
 20 14  1  0
 22 23  1  0
 21 22  1  0
 23 19  1  0
 20 21  1  0
 23 18  2  0
 30 25  2  0
 31 26  1  0
 32 27  1  0
 30 24  1  0
 32 33  1  0
 31 32  1  0
 33 29  1  0
 30 31  1  0
 33 28  2  0
  1 35  1  0
  1 36  1  0
  2 37  1  0
  3 38  1  0
  5 39  1  0
  7 40  1  0
  8 41  1  1
 10 42  1  0
 10 43  1  0
 11 44  1  0
 11 45  1  0
 12 46  1  0
 12 47  1  0
 13 48  1  0
 13 49  1  0
 13 50  1  0
 14 51  1  0
 16 52  1  0
 17 53  1  0
 19 54  1  0
 21 55  1  6
 22 56  1  1
 24 57  1  0
 26 58  1  0
 27 59  1  0
 29 60  1  0
 31 61  1  6
 32 62  1  1
 34 63  1  0
 34 64  1  0
M  END
> <Uni-Dock RESULT> 
ENERGY=   -4.539  LOWER_BOUND=    4.808  UPPER_BOUND=    6.465
INTER + INTRA:          -4.539
INTER:                  -4.539
INTRA:                   0.000
UNBOUND:                 0.000

$$$$
