
     RDKit          3D

 64 61  0  0  0  0  0  0  0  0999 V2000
   44.4763    4.0546   11.0430 O   0  0  0  0  0  0  0  0  0  0  0  0
   45.8235    4.1666    7.9516 C   0  0  0  0  0  0  0  0  0  0  0  0
   45.7402    2.8224    7.6307 C   0  0  0  0  0  0  0  0  0  0  0  0
   45.1499    1.8980    8.4174 N   0  0  0  0  0  0  0  0  0  0  0  0
   44.6224    2.3420    9.5819 C   0  0  0  0  0  0  0  0  0  0  0  0
   44.6551    3.6675   10.0079 C   0  0  0  0  0  0  0  0  0  0  0  0
   45.2694    4.5916    9.1552 C   0  0  0  0  0  0  0  0  0  0  0  0
   44.0127    4.0650   11.3133 C   0  0  1  0  0  0  0  0  0  0  0  0
   44.7635    5.0970   12.0555 N   0  0  0  0  0  0  0  0  0  0  0  0
   43.7799    5.7751   12.8989 C   0  0  0  0  0  0  0  0  0  0  0  0
   42.6192    5.9598   11.9416 C   0  0  0  0  0  0  0  0  0  0  0  0
   42.6233    4.6892   11.1008 C   0  0  0  0  0  0  0  0  0  0  0  0
   45.8658    4.5463   12.8343 C   0  0  0  0  0  0  0  0  0  0  0  0
   44.6567    2.6265    9.9091 O   0  0  0  0  0  0  0  0  0  0  0  0
   44.2420    3.9687    8.1845 O   0  0  0  0  0  0  0  0  0  0  0  0
   45.5024    6.1246    9.3785 O   0  0  0  0  0  0  0  0  0  0  0  0
   43.2690    5.4774   11.1397 O   0  0  0  0  0  0  0  0  0  0  0  0
   45.8777    3.4780   12.6982 O   0  0  0  0  0  0  0  0  0  0  0  0
   43.7063    3.8016   13.1276 O   0  0  0  0  0  0  0  0  0  0  0  0
   44.7090    3.8301    9.3052 C   0  0  0  0  0  0  0  0  0  0  0  0
   45.4050    4.9057   10.1352 C   0  0  2  0  0  0  0  0  0  0  0  0
   44.6426    5.1910   11.4276 C   0  0  2  0  0  0  0  0  0  0  0  0
   44.8428    4.0679   12.4408 C   0  0  0  0  0  0  0  0  0  0  0  0
   43.3428    4.5896   13.4602 O   0  0  0  0  0  0  0  0  0  0  0  0
   42.0325    5.2864   11.7931 O   0  0  0  0  0  0  0  0  0  0  0  0
   44.8183    2.9655   11.9624 O   0  0  0  0  0  0  0  0  0  0  0  0
   45.8665    5.2542   11.0996 O   0  0  0  0  0  0  0  0  0  0  0  0
   44.3229    3.4858    8.3395 O   0  0  0  0  0  0  0  0  0  0  0  0
   46.3100    4.4610    8.6571 O   0  0  0  0  0  0  0  0  0  0  0  0
   42.9937    4.6260   12.1570 C   0  0  0  0  0  0  0  0  0  0  0  0
   43.9195    3.8217   11.2514 C   0  0  1  0  0  0  0  0  0  0  0  0
   44.7010    4.8107   10.3850 C   0  0  2  0  0  0  0  0  0  0  0  0
   45.0484    4.1589    9.0503 C   0  0  0  0  0  0  0  0  0  0  0  0
   44.4862    4.0382   11.0102 O   0  0  0  0  0  0  0  0  0  0  0  0
   44.6336    4.2044   10.0987 H   0  0  0  0  0  0  0  0  0  0  0  0
   44.2288    4.9286   11.3805 H   0  0  0  0  0  0  0  0  0  0  0  0
   46.3080    4.8676    7.2821 H   0  0  0  0  0  0  0  0  0  0  0  0
   46.1580    2.4424    6.7032 H   0  0  0  0  0  0  0  0  0  0  0  0
   44.1535    1.5678   10.1836 H   0  0  0  0  0  0  0  0  0  0  0  0
   45.3197    5.6422    9.4325 H   0  0  0  0  0  0  0  0  0  0  0  0
   43.8898    3.1752   11.9477 H   0  0  0  0  0  0  0  0  0  0  0  0
   43.4736    5.1544   13.7506 H   0  0  0  0  0  0  0  0  0  0  0  0
   44.1488    6.7347   13.2740 H   0  0  0  0  0  0  0  0  0  0  0  0
   41.6681    6.1082   12.4616 H   0  0  0  0  0  0  0  0  0  0  0  0
   42.7924    6.8303   11.2967 H   0  0  0  0  0  0  0  0  0  0  0  0
   42.3935    4.9251   10.0557 H   0  0  0  0  0  0  0  0  0  0  0  0
   41.8491    4.0009   11.4612 H   0  0  0  0  0  0  0  0  0  0  0  0
   45.5282    3.8118   13.5744 H   0  0  0  0  0  0  0  0  0  0  0  0
   46.3929    5.3473   13.3642 H   0  0  0  0  0  0  0  0  0  0  0  0
   46.6009    4.0631   12.1818 H   0  0  0  0  0  0  0  0  0  0  0  0
   44.2202    2.0525    9.2430 H   0  0  0  0  0  0  0  0  0  0  0  0
   44.5916    6.3217    9.0806 H   0  0  0  0  0  0  0  0  0  0  0  0
   42.7850    5.3052   11.9727 H   0  0  0  0  0  0  0  0  0  0  0  0
   43.9640    3.0733   13.7343 H   0  0  0  0  0  0  0  0  0  0  0  0
   46.4319    4.5774   10.3266 H   0  0  0  0  0  0  0  0  0  0  0  0
   45.0415    6.0992   11.8953 H   0  0  0  0  0  0  0  0  0  0  0  0
   42.6669    5.1352   13.9132 H   0  0  0  0  0  0  0  0  0  0  0  0
   45.3783    3.5740   12.4866 H   0  0  0  0  0  0  0  0  0  0  0  0
   46.5421    5.4280   10.4116 H   0  0  0  0  0  0  0  0  0  0  0  0
   46.4095    3.9855    7.8031 H   0  0  0  0  0  0  0  0  0  0  0  0
   43.2665    3.1704   10.6604 H   0  0  0  0  0  0  0  0  0  0  0  0
   44.1138    5.7029   10.1391 H   0  0  0  0  0  0  0  0  0  0  0  0
   44.6222    4.2767   10.0810 H   0  0  0  0  0  0  0  0  0  0  0  0
   44.2302    4.8727   11.4310 H   0  0  0  0  0  0  0  0  0  0  0  0
  7  2  2  0
  2  3  1  0
  8  6  1  0
  8  9  1  0
  4  5  1  0
  5  6  2  0
  3  4  2  0
  9 10  1  0
 10 11  1  0
 11 12  1  0
  8 12  1  0
  6  7  1  0
  9 13  1  0
 20 15  2  0
 21 16  1  0
 22 17  1  0
 20 14  1  0
 22 23  1  0
 21 22  1  0
 23 19  1  0
 20 21  1  0
 23 18  2  0
 30 25  2  0
 31 26  1  0
 32 27  1  0
 30 24  1  0
 32 33  1  0
 31 32  1  0
 33 29  1  0
 30 31  1  0
 33 28  2  0
  1 35  1  0
  1 36  1  0
  2 37  1  0
  3 38  1  0
  5 39  1  0
  7 40  1  0
  8 41  1  1
 10 42  1  0
 10 43  1  0
 11 44  1  0
 11 45  1  0
 12 46  1  0
 12 47  1  0
 13 48  1  0
 13 49  1  0
 13 50  1  0
 14 51  1  0
 16 52  1  0
 17 53  1  0
 19 54  1  0
 21 55  1  6
 22 56  1  6
 24 57  1  0
 26 58  1  0
 27 59  1  0
 29 60  1  0
 31 61  1  1
 32 62  1  1
 34 63  1  0
 34 64  1  0
M  END
> <Uni-Dock RESULT> 
ENERGY=   -8.004  LOWER_BOUND=    0.000  UPPER_BOUND=    0.000
INTER + INTRA:          -8.004
INTER:                  -8.004
INTRA:                   0.000
UNBOUND:                 0.000

$$$$

     RDKit          3D

 64 61  0  0  0  0  0  0  0  0999 V2000
   44.5025    6.1921   11.6142 O   0  0  0  0  0  0  0  0  0  0  0  0
   46.7160    8.4828   12.7265 C   0  0  0  0  0  0  0  0  0  0  0  0
   46.1585    9.6156   12.1585 C   0  0  0  0  0  0  0  0  0  0  0  0
   44.9920    9.6185   11.4794 N   0  0  0  0  0  0  0  0  0  0  0  0
   44.3575    8.4290   11.3610 C   0  0  0  0  0  0  0  0  0  0  0  0
   44.8291    7.2280   11.8851 C   0  0  0  0  0  0  0  0  0  0  0  0
   46.0377    7.2755   12.5889 C   0  0  0  0  0  0  0  0  0  0  0  0
   44.0310    5.9588   11.7211 C   0  0  1  0  0  0  0  0  0  0  0  0
   44.8610    4.7604   11.4878 N   0  0  0  0  0  0  0  0  0  0  0  0
   44.0607    3.6264   11.9485 C   0  0  0  0  0  0  0  0  0  0  0  0
   43.5038    4.1467   13.2589 C   0  0  0  0  0  0  0  0  0  0  0  0
   43.2274    5.6203   12.9879 C   0  0  0  0  0  0  0  0  0  0  0  0
   45.2674    4.6141   10.0955 C   0  0  0  0  0  0  0  0  0  0  0  0
   44.4016    7.9982   11.3216 O   0  0  0  0  0  0  0  0  0  0  0  0
   45.2372    8.3538   13.3520 O   0  0  0  0  0  0  0  0  0  0  0  0
   46.8363    6.0970   13.2428 O   0  0  0  0  0  0  0  0  0  0  0  0
   44.1000    5.1001   13.0759 O   0  0  0  0  0  0  0  0  0  0  0  0
   44.8488    5.4308    9.5317 O   0  0  0  0  0  0  0  0  0  0  0  0
   43.0459    4.7740   10.6815 O   0  0  0  0  0  0  0  0  0  0  0  0
   45.1839    7.6427   12.3597 C   0  0  0  0  0  0  0  0  0  0  0  0
   45.9581    6.3470   12.1320 C   0  0  2  0  0  0  0  0  0  0  0  0
   45.0150    5.1558   11.9754 C   0  0  2  0  0  0  0  0  0  0  0  0
   44.3394    5.1684   10.6073 C   0  0  0  0  0  0  0  0  0  0  0  0
   42.9816    3.9797   11.1597 O   0  0  0  0  0  0  0  0  0  0  0  0
   42.7682    4.6745   13.2700 O   0  0  0  0  0  0  0  0  0  0  0  0
   43.9914    6.2593   10.2421 O   0  0  0  0  0  0  0  0  0  0  0  0
   46.1694    5.4253   11.5234 O   0  0  0  0  0  0  0  0  0  0  0  0
   45.0375    8.5668   12.9296 O   0  0  0  0  0  0  0  0  0  0  0  0
   47.0116    7.7905   12.2222 O   0  0  0  0  0  0  0  0  0  0  0  0
   43.1492    4.9010   12.1316 C   0  0  0  0  0  0  0  0  0  0  0  0
   43.8666    6.1623   11.6638 C   0  0  1  0  0  0  0  0  0  0  0  0
   45.2473    6.1860   12.3215 C   0  0  2  0  0  0  0  0  0  0  0  0
   45.6977    7.6305   12.5149 C   0  0  0  0  0  0  0  0  0  0  0  0
   44.5145    6.2279   11.6179 O   0  0  0  0  0  0  0  0  0  0  0  0
   45.0190    6.8002   12.1640 H   0  0  0  0  0  0  0  0  0  0  0  0
   44.5710    5.3431   12.0763 H   0  0  0  0  0  0  0  0  0  0  0  0
   47.6558    8.5366   13.2634 H   0  0  0  0  0  0  0  0  0  0  0  0
   46.6502   10.5806   12.2384 H   0  0  0  0  0  0  0  0  0  0  0  0
   43.4210    8.4753   10.8113 H   0  0  0  0  0  0  0  0  0  0  0  0
   46.4522    6.3697   13.0258 H   0  0  0  0  0  0  0  0  0  0  0  0
   43.3192    6.0777   10.8913 H   0  0  0  0  0  0  0  0  0  0  0  0
   43.2428    3.3938   11.2548 H   0  0  0  0  0  0  0  0  0  0  0  0
   44.6661    2.7269   12.0974 H   0  0  0  0  0  0  0  0  0  0  0  0
   42.6047    3.6087   13.5738 H   0  0  0  0  0  0  0  0  0  0  0  0
   44.2523    4.0514   14.0553 H   0  0  0  0  0  0  0  0  0  0  0  0
   43.4952    6.2236   13.8625 H   0  0  0  0  0  0  0  0  0  0  0  0
   42.1575    5.7706   12.7990 H   0  0  0  0  0  0  0  0  0  0  0  0
   44.4106    4.5386    9.4162 H   0  0  0  0  0  0  0  0  0  0  0  0
   45.8811    3.7150    9.9723 H   0  0  0  0  0  0  0  0  0  0  0  0
   45.8834    5.4623    9.7781 H   0  0  0  0  0  0  0  0  0  0  0  0
   44.0099    8.8513   11.6088 H   0  0  0  0  0  0  0  0  0  0  0  0
   46.2690    6.1346   14.0391 H   0  0  0  0  0  0  0  0  0  0  0  0
   43.3401    4.5712   12.7589 H   0  0  0  0  0  0  0  0  0  0  0  0
   42.7309    4.8267    9.7526 H   0  0  0  0  0  0  0  0  0  0  0  0
   46.5994    6.4827   11.2549 H   0  0  0  0  0  0  0  0  0  0  0  0
   45.5909    4.2238   12.0231 H   0  0  0  0  0  0  0  0  0  0  0  0
   42.5100    3.2409   11.5972 H   0  0  0  0  0  0  0  0  0  0  0  0
   44.5488    5.4952    9.9891 H   0  0  0  0  0  0  0  0  0  0  0  0
   47.0399    5.8565   11.6509 H   0  0  0  0  0  0  0  0  0  0  0  0
   47.1720    8.7469   12.3794 H   0  0  0  0  0  0  0  0  0  0  0  0
   43.2355    6.9995   11.9817 H   0  0  0  0  0  0  0  0  0  0  0  0
   45.2396    5.7378   13.3217 H   0  0  0  0  0  0  0  0  0  0  0  0
   45.0476    6.7642   12.2237 H   0  0  0  0  0  0  0  0  0  0  0  0
   44.5303    5.3432   12.0128 H   0  0  0  0  0  0  0  0  0  0  0  0
  7  2  2  0
  2  3  1  0
  8  6  1  0
  8  9  1  0
  4  5  1  0
  5  6  2  0
  3  4  2  0
  9 10  1  0
 10 11  1  0
 11 12  1  0
  8 12  1  0
  6  7  1  0
  9 13  1  0
 20 15  2  0
 21 16  1  0
 22 17  1  0
 20 14  1  0
 22 23  1  0
 21 22  1  0
 23 19  1  0
 20 21  1  0
 23 18  2  0
 30 25  2  0
 31 26  1  0
 32 27  1  0
 30 24  1  0
 32 33  1  0
 31 32  1  0
 33 29  1  0
 30 31  1  0
 33 28  2  0
  1 35  1  0
  1 36  1  0
  2 37  1  0
  3 38  1  0
  5 39  1  0
  7 40  1  0
  8 41  1  1
 10 42  1  0
 10 43  1  0
 11 44  1  0
 11 45  1  0
 12 46  1  0
 12 47  1  0
 13 48  1  0
 13 49  1  0
 13 50  1  0
 14 51  1  0
 16 52  1  0
 17 53  1  0
 19 54  1  0
 21 55  1  6
 22 56  1  6
 24 57  1  0
 26 58  1  0
 27 59  1  0
 29 60  1  0
 31 61  1  1
 32 62  1  1
 34 63  1  0
 34 64  1  0
M  END
> <Uni-Dock RESULT> 
ENERGY=   -6.146  LOWER_BOUND=    2.232  UPPER_BOUND=    4.134
INTER + INTRA:          -6.146
INTER:                  -6.146
INTRA:                   0.000
UNBOUND:                 0.000

$$$$

     RDKit          3D

 64 61  0  0  0  0  0  0  0  0999 V2000
   44.9597    4.6324   12.6468 O   0  0  0  0  0  0  0  0  0  0  0  0
   47.4910    6.6750   13.5438 C   0  0  0  0  0  0  0  0  0  0  0  0
   47.8444    6.0698   14.7376 C   0  0  0  0  0  0  0  0  0  0  0  0
   47.2906    4.9258   15.1922 N   0  0  0  0  0  0  0  0  0  0  0  0
   46.3351    4.3653   14.4148 C   0  0  0  0  0  0  0  0  0  0  0  0
   45.8974    4.8901   13.2014 C   0  0  0  0  0  0  0  0  0  0  0  0
   46.5067    6.0724   12.7663 C   0  0  0  0  0  0  0  0  0  0  0  0
   44.8435    4.1724   12.3959 C   0  0  1  0  0  0  0  0  0  0  0  0
   43.8906    5.0772   11.7229 N   0  0  0  0  0  0  0  0  0  0  0  0
   43.3759    4.3308   10.5755 C   0  0  0  0  0  0  0  0  0  0  0  0
   44.6382    3.7059   10.0153 C   0  0  0  0  0  0  0  0  0  0  0  0
   45.4588    3.3525   11.2495 C   0  0  0  0  0  0  0  0  0  0  0  0
   42.8222    5.5326   12.6038 C   0  0  0  0  0  0  0  0  0  0  0  0
   46.0084    4.4355   14.1365 O   0  0  0  0  0  0  0  0  0  0  0  0
   47.7546    5.1883   12.9826 O   0  0  0  0  0  0  0  0  0  0  0  0
   46.1974    6.9183   11.4845 O   0  0  0  0  0  0  0  0  0  0  0  0
   45.2118    4.2508   10.8351 O   0  0  0  0  0  0  0  0  0  0  0  0
   42.9660    5.0843   13.5725 O   0  0  0  0  0  0  0  0  0  0  0  0
   43.2135    3.2891   12.2609 O   0  0  0  0  0  0  0  0  0  0  0  0
   46.5474    5.2059   13.1711 C   0  0  0  0  0  0  0  0  0  0  0  0
   45.5269    6.0605   12.4238 C   0  0  2  0  0  0  0  0  0  0  0  0
   44.5238    5.1934   11.6657 C   0  0  2  0  0  0  0  0  0  0  0  0
   43.5167    4.5592   12.6205 C   0  0  0  0  0  0  0  0  0  0  0  0
   42.9944    3.2570   11.3583 O   0  0  0  0  0  0  0  0  0  0  0  0
   44.9697    2.9409   10.3684 O   0  0  0  0  0  0  0  0  0  0  0  0
   43.9981    4.1593   13.6467 O   0  0  0  0  0  0  0  0  0  0  0  0
   44.4620    6.3431   12.1985 O   0  0  0  0  0  0  0  0  0  0  0  0
   47.5905    4.9891   13.4266 O   0  0  0  0  0  0  0  0  0  0  0  0
   46.6661    7.0252   13.4104 O   0  0  0  0  0  0  0  0  0  0  0  0
   44.3412    3.3418   11.3362 C   0  0  0  0  0  0  0  0  0  0  0  0
   44.9348    3.9982   12.5776 C   0  0  1  0  0  0  0  0  0  0  0  0
   45.5052    5.3550   12.1615 C   0  0  2  0  0  0  0  0  0  0  0  0
   46.6811    5.7147   13.0641 C   0  0  0  0  0  0  0  0  0  0  0  0
   44.9882    4.6422   12.6699 O   0  0  0  0  0  0  0  0  0  0  0  0
   45.8085    5.0961   12.7048 H   0  0  0  0  0  0  0  0  0  0  0  0
   44.6992    4.7364   11.7192 H   0  0  0  0  0  0  0  0  0  0  0  0
   47.9692    7.5937   13.2248 H   0  0  0  0  0  0  0  0  0  0  0  0
   48.6067    6.5020   15.3791 H   0  0  0  0  0  0  0  0  0  0  0  0
   45.9180    3.4445   14.8142 H   0  0  0  0  0  0  0  0  0  0  0  0
   46.2098    6.5257   11.8231 H   0  0  0  0  0  0  0  0  0  0  0  0
   44.2916    3.4799   13.0481 H   0  0  0  0  0  0  0  0  0  0  0  0
   42.6686    3.5488   10.8796 H   0  0  0  0  0  0  0  0  0  0  0  0
   42.8903    4.9828    9.8427 H   0  0  0  0  0  0  0  0  0  0  0  0
   44.4305    2.8307    9.3927 H   0  0  0  0  0  0  0  0  0  0  0  0
   45.1851    4.4346    9.4041 H   0  0  0  0  0  0  0  0  0  0  0  0
   46.5202    3.5587   11.0712 H   0  0  0  0  0  0  0  0  0  0  0  0
   45.3632    2.2817   11.4670 H   0  0  0  0  0  0  0  0  0  0  0  0
   42.2326    4.7023   13.0090 H   0  0  0  0  0  0  0  0  0  0  0  0
   42.1436    6.2009   12.0625 H   0  0  0  0  0  0  0  0  0  0  0  0
   43.2275    6.1075   13.4434 H   0  0  0  0  0  0  0  0  0  0  0  0
   46.7853    3.9865   14.5346 H   0  0  0  0  0  0  0  0  0  0  0  0
   46.7555    6.3264   10.9410 H   0  0  0  0  0  0  0  0  0  0  0  0
   44.5690    3.5327   10.6652 H   0  0  0  0  0  0  0  0  0  0  0  0
   42.5694    2.9994   12.9437 H   0  0  0  0  0  0  0  0  0  0  0  0
   45.0371    6.7187   13.1490 H   0  0  0  0  0  0  0  0  0  0  0  0
   43.9417    5.8208   10.9802 H   0  0  0  0  0  0  0  0  0  0  0  0
   42.7600    2.8163   10.5155 H   0  0  0  0  0  0  0  0  0  0  0  0
   43.3181    4.7676   13.2913 H   0  0  0  0  0  0  0  0  0  0  0  0
   44.9084    7.1828   12.4342 H   0  0  0  0  0  0  0  0  0  0  0  0
   47.4569    7.1250   13.9848 H   0  0  0  0  0  0  0  0  0  0  0  0
   45.7076    3.3103   12.9380 H   0  0  0  0  0  0  0  0  0  0  0  0
   45.9034    5.3436   11.1404 H   0  0  0  0  0  0  0  0  0  0  0  0
   45.8277    5.1251   12.6379 H   0  0  0  0  0  0  0  0  0  0  0  0
   44.6516    4.6977   11.7630 H   0  0  0  0  0  0  0  0  0  0  0  0
  7  2  2  0
  2  3  1  0
  8  6  1  0
  8  9  1  0
  4  5  1  0
  5  6  2  0
  3  4  2  0
  9 10  1  0
 10 11  1  0
 11 12  1  0
  8 12  1  0
  6  7  1  0
  9 13  1  0
 20 15  2  0
 21 16  1  0
 22 17  1  0
 20 14  1  0
 22 23  1  0
 21 22  1  0
 23 19  1  0
 20 21  1  0
 23 18  2  0
 30 25  2  0
 31 26  1  0
 32 27  1  0
 30 24  1  0
 32 33  1  0
 31 32  1  0
 33 29  1  0
 30 31  1  0
 33 28  2  0
  1 35  1  0
  1 36  1  0
  2 37  1  0
  3 38  1  0
  5 39  1  0
  7 40  1  0
  8 41  1  1
 10 42  1  0
 10 43  1  0
 11 44  1  0
 11 45  1  0
 12 46  1  0
 12 47  1  0
 13 48  1  0
 13 49  1  0
 13 50  1  0
 14 51  1  0
 16 52  1  0
 17 53  1  0
 19 54  1  0
 21 55  1  6
 22 56  1  6
 24 57  1  0
 26 58  1  0
 27 59  1  0
 29 60  1  0
 31 61  1  1
 32 62  1  1
 34 63  1  0
 34 64  1  0
M  END
> <Uni-Dock RESULT> 
ENERGY=   -6.085  LOWER_BOUND=    1.657  UPPER_BOUND=    3.913
INTER + INTRA:          -6.085
INTER:                  -6.085
INTRA:                   0.000
UNBOUND:                 0.000

$$$$

     RDKit          3D

 64 61  0  0  0  0  0  0  0  0999 V2000
   45.2628    5.3737   11.7146 O   0  0  0  0  0  0  0  0  0  0  0  0
   47.8254    5.8950   13.8465 C   0  0  0  0  0  0  0  0  0  0  0  0
   48.5497    6.8049   13.0955 C   0  0  0  0  0  0  0  0  0  0  0  0
   48.1292    7.3079   11.9156 N   0  0  0  0  0  0  0  0  0  0  0  0
   46.9284    6.8747   11.4664 C   0  0  0  0  0  0  0  0  0  0  0  0
   46.1203    5.9582   12.1345 C   0  0  0  0  0  0  0  0  0  0  0  0
   46.5933    5.4710   13.3581 C   0  0  0  0  0  0  0  0  0  0  0  0
   44.7835    5.5600   11.5609 C   0  0  1  0  0  0  0  0  0  0  0  0
   44.4506    4.1358   11.7617 N   0  0  0  0  0  0  0  0  0  0  0  0
   42.9906    4.0596   11.7263 C   0  0  0  0  0  0  0  0  0  0  0  0
   42.5932    5.2494   12.5774 C   0  0  0  0  0  0  0  0  0  0  0  0
   43.6245    6.3163   12.2318 C   0  0  0  0  0  0  0  0  0  0  0  0
   45.0686    3.2637   10.7704 C   0  0  0  0  0  0  0  0  0  0  0  0
   46.6481    6.5428   11.4467 O   0  0  0  0  0  0  0  0  0  0  0  0
   46.6655    6.9906   13.6254 O   0  0  0  0  0  0  0  0  0  0  0  0
   45.9419    4.4068   14.3054 O   0  0  0  0  0  0  0  0  0  0  0  0
   43.7045    5.4380   12.7435 O   0  0  0  0  0  0  0  0  0  0  0  0
   45.6361    3.8736   10.0878 O   0  0  0  0  0  0  0  0  0  0  0  0
   43.7140    5.0166   10.1410 O   0  0  0  0  0  0  0  0  0  0  0  0
   46.4609    6.1826   12.7317 C   0  0  0  0  0  0  0  0  0  0  0  0
   46.0222    4.7311   12.9068 C   0  0  2  0  0  0  0  0  0  0  0  0
   44.6580    4.4813   12.2669 C   0  0  2  0  0  0  0  0  0  0  0  0
   44.7691    4.4213   10.7463 C   0  0  0  0  0  0  0  0  0  0  0  0
   42.9186    4.7010   10.5036 O   0  0  0  0  0  0  0  0  0  0  0  0
   42.5617    6.0811   12.2210 O   0  0  0  0  0  0  0  0  0  0  0  0
   45.5095    5.2429   10.2757 O   0  0  0  0  0  0  0  0  0  0  0  0
   45.6757    3.7527   12.4741 O   0  0  0  0  0  0  0  0  0  0  0  0
   46.8599    7.1067   13.1644 O   0  0  0  0  0  0  0  0  0  0  0  0
   47.6599    5.0546   13.5510 O   0  0  0  0  0  0  0  0  0  0  0  0
   43.3514    5.5689   11.4422 C   0  0  0  0  0  0  0  0  0  0  0  0
   44.8610    5.7813   11.4316 C   0  0  1  0  0  0  0  0  0  0  0  0
   45.4308    5.1504   12.7030 C   0  0  2  0  0  0  0  0  0  0  0  0
   46.6892    5.9008   13.1275 C   0  0  0  0  0  0  0  0  0  0  0  0
   45.2948    5.3913   11.7247 O   0  0  0  0  0  0  0  0  0  0  0  0
   45.8121    5.6515   12.4629 H   0  0  0  0  0  0  0  0  0  0  0  0
   44.5082    4.9300   12.1302 H   0  0  0  0  0  0  0  0  0  0  0  0
   48.2095    5.5237   14.7894 H   0  0  0  0  0  0  0  0  0  0  0  0
   49.5165    7.1653   13.4343 H   0  0  0  0  0  0  0  0  0  0  0  0
   46.6250    7.3063   10.5161 H   0  0  0  0  0  0  0  0  0  0  0  0
   46.0025    4.7571   13.9278 H   0  0  0  0  0  0  0  0  0  0  0  0
   44.7614    5.7926   10.4863 H   0  0  0  0  0  0  0  0  0  0  0  0
   42.5992    4.1748   10.7075 H   0  0  0  0  0  0  0  0  0  0  0  0
   42.6156    3.1212   12.1463 H   0  0  0  0  0  0  0  0  0  0  0  0
   41.5706    5.5831   12.3778 H   0  0  0  0  0  0  0  0  0  0  0  0
   42.6656    4.9967   13.6425 H   0  0  0  0  0  0  0  0  0  0  0  0
   43.9133    6.8706   13.1319 H   0  0  0  0  0  0  0  0  0  0  0  0
   43.1940    7.0364   11.5253 H   0  0  0  0  0  0  0  0  0  0  0  0
   44.7664    3.5146    9.7472 H   0  0  0  0  0  0  0  0  0  0  0  0
   44.7954    2.2200   10.9608 H   0  0  0  0  0  0  0  0  0  0  0  0
   46.1608    3.3194   10.8291 H   0  0  0  0  0  0  0  0  0  0  0  0
   46.9554    7.4730   11.5097 H   0  0  0  0  0  0  0  0  0  0  0  0
   45.3636    5.0902   14.7002 H   0  0  0  0  0  0  0  0  0  0  0  0
   42.9925    5.4556   12.0723 H   0  0  0  0  0  0  0  0  0  0  0  0
   43.9040    4.9130    9.1828 H   0  0  0  0  0  0  0  0  0  0  0  0
   46.7998    4.0865   12.4838 H   0  0  0  0  0  0  0  0  0  0  0  0
   44.2781    3.5029   12.5844 H   0  0  0  0  0  0  0  0  0  0  0  0
   41.9469    4.6699   10.6239 H   0  0  0  0  0  0  0  0  0  0  0  0
   45.3504    4.2783   10.3286 H   0  0  0  0  0  0  0  0  0  0  0  0
   46.4456    3.5286   13.0371 H   0  0  0  0  0  0  0  0  0  0  0  0
   48.4043    5.6510   13.7866 H   0  0  0  0  0  0  0  0  0  0  0  0
   45.0092    6.8662   11.3982 H   0  0  0  0  0  0  0  0  0  0  0  0
   44.7385    5.2227   13.5498 H   0  0  0  0  0  0  0  0  0  0  0  0
   45.7805    5.6309   12.5282 H   0  0  0  0  0  0  0  0  0  0  0  0
   44.5076    4.9329   12.0549 H   0  0  0  0  0  0  0  0  0  0  0  0
  7  2  2  0
  2  3  1  0
  8  6  1  0
  8  9  1  0
  4  5  1  0
  5  6  2  0
  3  4  2  0
  9 10  1  0
 10 11  1  0
 11 12  1  0
  8 12  1  0
  6  7  1  0
  9 13  1  0
 20 15  2  0
 21 16  1  0
 22 17  1  0
 20 14  1  0
 22 23  1  0
 21 22  1  0
 23 19  1  0
 20 21  1  0
 23 18  2  0
 30 25  2  0
 31 26  1  0
 32 27  1  0
 30 24  1  0
 32 33  1  0
 31 32  1  0
 33 29  1  0
 30 31  1  0
 33 28  2  0
  1 35  1  0
  1 36  1  0
  2 37  1  0
  3 38  1  0
  5 39  1  0
  7 40  1  0
  8 41  1  1
 10 42  1  0
 10 43  1  0
 11 44  1  0
 11 45  1  0
 12 46  1  0
 12 47  1  0
 13 48  1  0
 13 49  1  0
 13 50  1  0
 14 51  1  0
 16 52  1  0
 17 53  1  0
 19 54  1  0
 21 55  1  6
 22 56  1  6
 24 57  1  0
 26 58  1  0
 27 59  1  0
 29 60  1  0
 31 61  1  1
 32 62  1  1
 34 63  1  0
 34 64  1  0
M  END
> <Uni-Dock RESULT> 
ENERGY=   -5.478  LOWER_BOUND=    1.718  UPPER_BOUND=    3.863
INTER + INTRA:          -5.478
INTER:                  -5.478
INTRA:                   0.000
UNBOUND:                 0.000

$$$$

     RDKit          3D

 64 61  0  0  0  0  0  0  0  0999 V2000
   45.6065    6.7573   12.5042 O   0  0  0  0  0  0  0  0  0  0  0  0
   44.0024    4.6388   10.4251 C   0  0  0  0  0  0  0  0  0  0  0  0
   43.1760    4.0171   11.3454 C   0  0  0  0  0  0  0  0  0  0  0  0
   43.0967    4.3742   12.6447 N   0  0  0  0  0  0  0  0  0  0  0  0
   43.8861    5.3999   13.0398 C   0  0  0  0  0  0  0  0  0  0  0  0
   44.7586    6.0913   12.2030 C   0  0  0  0  0  0  0  0  0  0  0  0
   44.8002    5.6918   10.8625 C   0  0  0  0  0  0  0  0  0  0  0  0
   45.5771    7.2402   12.7366 C   0  0  1  0  0  0  0  0  0  0  0  0
   46.9404    7.3107   12.1745 N   0  0  0  0  0  0  0  0  0  0  0  0
   47.3463    8.7109   12.2895 C   0  0  0  0  0  0  0  0  0  0  0  0
   46.0985    9.4385   11.8296 C   0  0  0  0  0  0  0  0  0  0  0  0
   44.9527    8.6006   12.3831 C   0  0  0  0  0  0  0  0  0  0  0  0
   47.8757    6.4129   12.8409 C   0  0  0  0  0  0  0  0  0  0  0  0
   44.2660    5.6049   12.9867 O   0  0  0  0  0  0  0  0  0  0  0  0
   43.2861    5.9530   11.0205 O   0  0  0  0  0  0  0  0  0  0  0  0
   45.7057    6.2374    9.7064 O   0  0  0  0  0  0  0  0  0  0  0  0
   45.6312    8.4161   11.6446 O   0  0  0  0  0  0  0  0  0  0  0  0
   47.3492    5.8936   13.6238 O   0  0  0  0  0  0  0  0  0  0  0  0
   46.6881    7.9931   14.0227 O   0  0  0  0  0  0  0  0  0  0  0  0
   44.3195    5.8801   11.6685 C   0  0  0  0  0  0  0  0  0  0  0  0
   45.7386    6.0448   11.1310 C   0  0  2  0  0  0  0  0  0  0  0  0
   46.4404    7.2410   11.7709 C   0  0  2  0  0  0  0  0  0  0  0  0
   46.8592    6.9276   13.2043 C   0  0  0  0  0  0  0  0  0  0  0  0
   47.0700    8.7508   13.6436 O   0  0  0  0  0  0  0  0  0  0  0  0
   45.4135    9.5866   12.4029 O   0  0  0  0  0  0  0  0  0  0  0  0
   46.0409    6.3086   13.8303 O   0  0  0  0  0  0  0  0  0  0  0  0
   46.8467    6.1352   11.3001 O   0  0  0  0  0  0  0  0  0  0  0  0
   43.2509    5.7280   11.4808 O   0  0  0  0  0  0  0  0  0  0  0  0
   44.9054    4.5977   10.4881 O   0  0  0  0  0  0  0  0  0  0  0  0
   45.9179    8.6194   12.9530 C   0  0  0  0  0  0  0  0  0  0  0  0
   45.3845    7.1917   12.9162 C   0  0  1  0  0  0  0  0  0  0  0  0
   45.5276    6.6760   11.4834 C   0  0  2  0  0  0  0  0  0  0  0  0
   44.4331    5.6533   11.1954 C   0  0  0  0  0  0  0  0  0  0  0  0
   45.5802    6.7309   12.4972 O   0  0  0  0  0  0  0  0  0  0  0  0
   45.0322    6.3728   11.8251 H   0  0  0  0  0  0  0  0  0  0  0  0
   46.0864    7.4571   12.0362 H   0  0  0  0  0  0  0  0  0  0  0  0
   44.0263    4.3127    9.3919 H   0  0  0  0  0  0  0  0  0  0  0  0
   42.5353    3.1906   11.0524 H   0  0  0  0  0  0  0  0  0  0  0  0
   43.7894    5.6585   14.0911 H   0  0  0  0  0  0  0  0  0  0  0  0
   45.4586    6.1990   10.1608 H   0  0  0  0  0  0  0  0  0  0  0  0
   45.6367    7.1705   13.8324 H   0  0  0  0  0  0  0  0  0  0  0  0
   47.5844    8.9844   13.3253 H   0  0  0  0  0  0  0  0  0  0  0  0
   48.2060    8.9454   11.6542 H   0  0  0  0  0  0  0  0  0  0  0  0
   46.0631   10.4728   12.1845 H   0  0  0  0  0  0  0  0  0  0  0  0
   46.0491    9.4543   10.7337 H   0  0  0  0  0  0  0  0  0  0  0  0
   44.1377    8.5428   11.6529 H   0  0  0  0  0  0  0  0  0  0  0  0
   44.5508    9.0703   13.2891 H   0  0  0  0  0  0  0  0  0  0  0  0
   47.9674    6.6257   13.9122 H   0  0  0  0  0  0  0  0  0  0  0  0
   48.8703    6.4986   12.3895 H   0  0  0  0  0  0  0  0  0  0  0  0
   47.5651    5.3692   12.7236 H   0  0  0  0  0  0  0  0  0  0  0  0
   43.3061    5.4963   13.1614 H   0  0  0  0  0  0  0  0  0  0  0  0
   45.0908    6.9837    9.5569 H   0  0  0  0  0  0  0  0  0  0  0  0
   45.9441    9.0264   12.3427 H   0  0  0  0  0  0  0  0  0  0  0  0
   46.9872    7.6661   14.8993 H   0  0  0  0  0  0  0  0  0  0  0  0
   46.2796    5.1087   11.3043 H   0  0  0  0  0  0  0  0  0  0  0  0
   47.3650    7.4593   11.2232 H   0  0  0  0  0  0  0  0  0  0  0  0
   47.2850    9.7049   13.5876 H   0  0  0  0  0  0  0  0  0  0  0  0
   46.9707    6.2812   13.5246 H   0  0  0  0  0  0  0  0  0  0  0  0
   46.7427    5.4143   10.6447 H   0  0  0  0  0  0  0  0  0  0  0  0
   44.1184    4.0206   10.3747 H   0  0  0  0  0  0  0  0  0  0  0  0
   44.3390    7.2557   13.2370 H   0  0  0  0  0  0  0  0  0  0  0  0
   45.3982    7.4710   10.7400 H   0  0  0  0  0  0  0  0  0  0  0  0
   45.0420    6.4078   11.7591 H   0  0  0  0  0  0  0  0  0  0  0  0
   46.1029    7.4486   12.1093 H   0  0  0  0  0  0  0  0  0  0  0  0
  7  2  2  0
  2  3  1  0
  8  6  1  0
  8  9  1  0
  4  5  1  0
  5  6  2  0
  3  4  2  0
  9 10  1  0
 10 11  1  0
 11 12  1  0
  8 12  1  0
  6  7  1  0
  9 13  1  0
 20 15  2  0
 21 16  1  0
 22 17  1  0
 20 14  1  0
 22 23  1  0
 21 22  1  0
 23 19  1  0
 20 21  1  0
 23 18  2  0
 30 25  2  0
 31 26  1  0
 32 27  1  0
 30 24  1  0
 32 33  1  0
 31 32  1  0
 33 29  1  0
 30 31  1  0
 33 28  2  0
  1 35  1  0
  1 36  1  0
  2 37  1  0
  3 38  1  0
  5 39  1  0
  7 40  1  0
  8 41  1  1
 10 42  1  0
 10 43  1  0
 11 44  1  0
 11 45  1  0
 12 46  1  0
 12 47  1  0
 13 48  1  0
 13 49  1  0
 13 50  1  0
 14 51  1  0
 16 52  1  0
 17 53  1  0
 19 54  1  0
 21 55  1  6
 22 56  1  6
 24 57  1  0
 26 58  1  0
 27 59  1  0
 29 60  1  0
 31 61  1  1
 32 62  1  1
 34 63  1  0
 34 64  1  0
M  END
> <Uni-Dock RESULT> 
ENERGY=   -5.445  LOWER_BOUND=    2.518  UPPER_BOUND=    3.787
INTER + INTRA:          -5.445
INTER:                  -5.445
INTRA:                   0.000
UNBOUND:                 0.000

$$$$

     RDKit          3D

 64 61  0  0  0  0  0  0  0  0999 V2000
   44.5075    4.7026   10.9762 O   0  0  0  0  0  0  0  0  0  0  0  0
   44.6461    2.2442    8.6695 C   0  0  0  0  0  0  0  0  0  0  0  0
   45.2205    2.9554    7.6299 C   0  0  0  0  0  0  0  0  0  0  0  0
   45.6413    4.2334    7.7370 N   0  0  0  0  0  0  0  0  0  0  0  0
   45.4744    4.8267    8.9419 C   0  0  0  0  0  0  0  0  0  0  0  0
   44.9036    4.2099   10.0523 C   0  0  0  0  0  0  0  0  0  0  0  0
   44.4905    2.8820    9.8965 C   0  0  0  0  0  0  0  0  0  0  0  0
   44.7876    4.9511   11.3607 C   0  0  1  0  0  0  0  0  0  0  0  0
   43.5420    4.6630   12.0990 N   0  0  0  0  0  0  0  0  0  0  0  0
   43.8424    4.9293   13.5052 C   0  0  0  0  0  0  0  0  0  0  0  0
   45.2034    4.2810   13.6640 C   0  0  0  0  0  0  0  0  0  0  0  0
   45.9061    4.5601   12.3412 C   0  0  0  0  0  0  0  0  0  0  0  0
   42.4074    5.4452   11.6239 C   0  0  0  0  0  0  0  0  0  0  0  0
   45.2271    4.8580    9.2982 O   0  0  0  0  0  0  0  0  0  0  0  0
   45.9616    2.7633    9.4408 O   0  0  0  0  0  0  0  0  0  0  0  0
   43.7779    1.9506   10.9352 O   0  0  0  0  0  0  0  0  0  0  0  0
   45.1195    3.9551   12.5755 O   0  0  0  0  0  0  0  0  0  0  0  0
   42.7455    6.0843   10.8256 O   0  0  0  0  0  0  0  0  0  0  0  0
   44.3428    6.4640   12.3449 O   0  0  0  0  0  0  0  0  0  0  0  0
   45.1151    3.5910    9.7436 C   0  0  0  0  0  0  0  0  0  0  0  0
   43.8672    3.3428   10.5868 C   0  0  2  0  0  0  0  0  0  0  0  0
   43.8906    4.1686   11.8714 C   0  0  2  0  0  0  0  0  0  0  0  0
   43.5873    5.6362   11.5845 C   0  0  0  0  0  0  0  0  0  0  0  0
   44.2991    6.2063   13.2367 O   0  0  0  0  0  0  0  0  0  0  0  0
   45.9552    4.7208   13.4167 O   0  0  0  0  0  0  0  0  0  0  0  0
   44.1131    6.0606   10.5905 O   0  0  0  0  0  0  0  0  0  0  0  0
   42.9605    3.7240   11.1319 O   0  0  0  0  0  0  0  0  0  0  0  0
   45.9563    3.1956    9.1636 O   0  0  0  0  0  0  0  0  0  0  0  0
   43.8440    2.4754    9.0220 O   0  0  0  0  0  0  0  0  0  0  0  0
   45.1502    5.3032   12.7060 C   0  0  0  0  0  0  0  0  0  0  0  0
   44.9605    5.0879   11.2087 C   0  0  1  0  0  0  0  0  0  0  0  0
   44.3918    3.6825   11.0068 C   0  0  2  0  0  0  0  0  0  0  0  0
   44.8433    3.1365    9.6559 C   0  0  0  0  0  0  0  0  0  0  0  0
   44.5175    4.6893   10.9421 O   0  0  0  0  0  0  0  0  0  0  0  0
   44.7374    3.9068   10.4736 H   0  0  0  0  0  0  0  0  0  0  0  0
   44.3384    4.3732   11.8717 H   0  0  0  0  0  0  0  0  0  0  0  0
   44.3266    1.2181    8.5297 H   0  0  0  0  0  0  0  0  0  0  0  0
   45.3626    2.5014    6.6536 H   0  0  0  0  0  0  0  0  0  0  0  0
   45.8296    5.8529    8.9873 H   0  0  0  0  0  0  0  0  0  0  0  0
   44.0430    2.3469   10.7311 H   0  0  0  0  0  0  0  0  0  0  0  0
   44.8621    6.0329   11.1774 H   0  0  0  0  0  0  0  0  0  0  0  0
   43.9084    6.0048   13.7133 H   0  0  0  0  0  0  0  0  0  0  0  0
   43.1031    4.4827   14.1773 H   0  0  0  0  0  0  0  0  0  0  0  0
   45.7586    4.6785   14.5188 H   0  0  0  0  0  0  0  0  0  0  0  0
   45.0954    3.1982   13.8038 H   0  0  0  0  0  0  0  0  0  0  0  0
   46.4893    3.6863   12.0296 H   0  0  0  0  0  0  0  0  0  0  0  0
   46.6046    5.3975   12.4593 H   0  0  0  0  0  0  0  0  0  0  0  0
   42.5792    6.5243   11.7088 H   0  0  0  0  0  0  0  0  0  0  0  0
   41.5083    5.1964   12.1984 H   0  0  0  0  0  0  0  0  0  0  0  0
   42.1860    5.2143   10.5764 H   0  0  0  0  0  0  0  0  0  0  0  0
   46.0451    4.8409    8.7558 H   0  0  0  0  0  0  0  0  0  0  0  0
   44.6369    1.7278   11.3472 H   0  0  0  0  0  0  0  0  0  0  0  0
   45.2249    4.7322   13.1610 H   0  0  0  0  0  0  0  0  0  0  0  0
   44.0577    7.3623   12.0681 H   0  0  0  0  0  0  0  0  0  0  0  0
   42.9896    3.5644    9.9705 H   0  0  0  0  0  0  0  0  0  0  0  0
   43.0996    3.8194   12.5459 H   0  0  0  0  0  0  0  0  0  0  0  0
   44.5383    6.2443   14.1859 H   0  0  0  0  0  0  0  0  0  0  0  0
   43.2404    5.9362   11.0165 H   0  0  0  0  0  0  0  0  0  0  0  0
   42.6274    3.0225   10.5345 H   0  0  0  0  0  0  0  0  0  0  0  0
   44.2545    2.1832    8.1785 H   0  0  0  0  0  0  0  0  0  0  0  0
   45.9537    5.2072   10.7621 H   0  0  0  0  0  0  0  0  0  0  0  0
   44.7611    2.9726   11.7558 H   0  0  0  0  0  0  0  0  0  0  0  0
   44.7352    3.8459   10.5178 H   0  0  0  0  0  0  0  0  0  0  0  0
   44.3306    4.4475   11.8616 H   0  0  0  0  0  0  0  0  0  0  0  0
  7  2  2  0
  2  3  1  0
  8  6  1  0
  8  9  1  0
  4  5  1  0
  5  6  2  0
  3  4  2  0
  9 10  1  0
 10 11  1  0
 11 12  1  0
  8 12  1  0
  6  7  1  0
  9 13  1  0
 20 15  2  0
 21 16  1  0
 22 17  1  0
 20 14  1  0
 22 23  1  0
 21 22  1  0
 23 19  1  0
 20 21  1  0
 23 18  2  0
 30 25  2  0
 31 26  1  0
 32 27  1  0
 30 24  1  0
 32 33  1  0
 31 32  1  0
 33 29  1  0
 30 31  1  0
 33 28  2  0
  1 35  1  0
  1 36  1  0
  2 37  1  0
  3 38  1  0
  5 39  1  0
  7 40  1  0
  8 41  1  1
 10 42  1  0
 10 43  1  0
 11 44  1  0
 11 45  1  0
 12 46  1  0
 12 47  1  0
 13 48  1  0
 13 49  1  0
 13 50  1  0
 14 51  1  0
 16 52  1  0
 17 53  1  0
 19 54  1  0
 21 55  1  6
 22 56  1  6
 24 57  1  0
 26 58  1  0
 27 59  1  0
 29 60  1  0
 31 61  1  1
 32 62  1  1
 34 63  1  0
 34 64  1  0
M  END
> <Uni-Dock RESULT> 
ENERGY=   -5.237  LOWER_BOUND=    1.113  UPPER_BOUND=    2.543
INTER + INTRA:          -5.237
INTER:                  -5.237
INTRA:                   0.000
UNBOUND:                 0.000

$$$$

     RDKit          3D

 64 61  0  0  0  0  0  0  0  0999 V2000
   47.4364    7.5640   13.1889 O   0  0  0  0  0  0  0  0  0  0  0  0
   45.4725    4.8204   13.1931 C   0  0  0  0  0  0  0  0  0  0  0  0
   44.2742    5.4119   12.8317 C   0  0  0  0  0  0  0  0  0  0  0  0
   44.1497    6.7145   12.5006 N   0  0  0  0  0  0  0  0  0  0  0  0
   45.2791    7.4591   12.5378 C   0  0  0  0  0  0  0  0  0  0  0  0
   46.5342    6.9711   12.8929 C   0  0  0  0  0  0  0  0  0  0  0  0
   46.6162    5.6128   13.2195 C   0  0  0  0  0  0  0  0  0  0  0  0
   47.7381    7.8793   12.8765 C   0  0  1  0  0  0  0  0  0  0  0  0
   48.6895    7.6255   13.9765 N   0  0  0  0  0  0  0  0  0  0  0  0
   49.9869    8.1018   13.4982 C   0  0  0  0  0  0  0  0  0  0  0  0
   50.0174    7.5616   12.0822 C   0  0  0  0  0  0  0  0  0  0  0  0
   48.5777    7.6939   11.6014 C   0  0  0  0  0  0  0  0  0  0  0  0
   48.2971    8.2670   15.2252 C   0  0  0  0  0  0  0  0  0  0  0  0
   45.6621    7.5255   12.7329 O   0  0  0  0  0  0  0  0  0  0  0  0
   45.9595    5.5169   11.8247 O   0  0  0  0  0  0  0  0  0  0  0  0
   47.8632    4.7955   13.7002 O   0  0  0  0  0  0  0  0  0  0  0  0
   49.0059    7.0830   12.2965 O   0  0  0  0  0  0  0  0  0  0  0  0
   47.3807    8.8072   15.0565 O   0  0  0  0  0  0  0  0  0  0  0  0
   48.5752    9.4863   13.2913 O   0  0  0  0  0  0  0  0  0  0  0  0
   46.2791    6.3285   12.6806 C   0  0  0  0  0  0  0  0  0  0  0  0
   47.3285    6.1285   13.7708 C   0  0  2  0  0  0  0  0  0  0  0  0
   48.4769    7.1251   13.6269 C   0  0  2  0  0  0  0  0  0  0  0  0
   48.0530    8.5185   14.0818 C   0  0  0  0  0  0  0  0  0  0  0  0
   49.4889    9.3532   13.1858 O   0  0  0  0  0  0  0  0  0  0  0  0
   49.6031    8.0054   11.4105 O   0  0  0  0  0  0  0  0  0  0  0  0
   46.9437    8.8300   13.7393 O   0  0  0  0  0  0  0  0  0  0  0  0
   47.9524    6.5290   14.6163 O   0  0  0  0  0  0  0  0  0  0  0  0
   45.6329    5.9053   11.9035 O   0  0  0  0  0  0  0  0  0  0  0  0
   45.9110    5.0517   13.9516 O   0  0  0  0  0  0  0  0  0  0  0  0
   48.9551    8.4357   12.3524 C   0  0  0  0  0  0  0  0  0  0  0  0
   47.5450    8.0034   12.7385 C   0  0  1  0  0  0  0  0  0  0  0  0
   47.6158    6.5531   13.2192 C   0  0  2  0  0  0  0  0  0  0  0  0
   46.2936    5.8512   12.9259 C   0  0  0  0  0  0  0  0  0  0  0  0
   47.4032    7.5467   13.1830 O   0  0  0  0  0  0  0  0  0  0  0  0
   47.0114    6.7205   12.9725 H   0  0  0  0  0  0  0  0  0  0  0  0
   48.3822    7.3532   13.2010 H   0  0  0  0  0  0  0  0  0  0  0  0
   45.5169    3.7682   13.4485 H   0  0  0  0  0  0  0  0  0  0  0  0
   43.3545    4.8353   12.7968 H   0  0  0  0  0  0  0  0  0  0  0  0
   45.1367    8.5004   12.2608 H   0  0  0  0  0  0  0  0  0  0  0  0
   47.5715    5.1742   13.4990 H   0  0  0  0  0  0  0  0  0  0  0  0
   47.4075    8.9275   12.9137 H   0  0  0  0  0  0  0  0  0  0  0  0
   50.0418    9.1978   13.4869 H   0  0  0  0  0  0  0  0  0  0  0  0
   50.8163    7.7113   14.0959 H   0  0  0  0  0  0  0  0  0  0  0  0
   50.7185    8.1056   11.4423 H   0  0  0  0  0  0  0  0  0  0  0  0
   50.3107    6.5044   12.0843 H   0  0  0  0  0  0  0  0  0  0  0  0
   48.2958    6.8203   11.0029 H   0  0  0  0  0  0  0  0  0  0  0  0
   48.4783    8.5784   10.9605 H   0  0  0  0  0  0  0  0  0  0  0  0
   48.2147    9.3556   15.1275 H   0  0  0  0  0  0  0  0  0  0  0  0
   49.0299    8.0492   16.0099 H   0  0  0  0  0  0  0  0  0  0  0  0
   47.3346    7.8801   15.5765 H   0  0  0  0  0  0  0  0  0  0  0  0
   45.0074    7.4802   12.0028 H   0  0  0  0  0  0  0  0  0  0  0  0
   48.1640    4.6823   12.7761 H   0  0  0  0  0  0  0  0  0  0  0  0
   49.4631    7.9388   12.1687 H   0  0  0  0  0  0  0  0  0  0  0  0
   48.2319   10.3194   13.6824 H   0  0  0  0  0  0  0  0  0  0  0  0
   46.8307    6.2112   14.7426 H   0  0  0  0  0  0  0  0  0  0  0  0
   49.3041    6.8281   14.2828 H   0  0  0  0  0  0  0  0  0  0  0  0
   50.3773    9.5368   12.8160 H   0  0  0  0  0  0  0  0  0  0  0  0
   47.5110    8.7159   14.5291 H   0  0  0  0  0  0  0  0  0  0  0  0
   47.5087    5.7331   14.9764 H   0  0  0  0  0  0  0  0  0  0  0  0
   45.0594    4.6691   13.6454 H   0  0  0  0  0  0  0  0  0  0  0  0
   46.9399    8.1165   11.8324 H   0  0  0  0  0  0  0  0  0  0  0  0
   48.3846    5.9769   12.6916 H   0  0  0  0  0  0  0  0  0  0  0  0
   47.0630    6.6663   12.9636 H   0  0  0  0  0  0  0  0  0  0  0  0
   48.3639    7.4248   13.2160 H   0  0  0  0  0  0  0  0  0  0  0  0
  7  2  2  0
  2  3  1  0
  8  6  1  0
  8  9  1  0
  4  5  1  0
  5  6  2  0
  3  4  2  0
  9 10  1  0
 10 11  1  0
 11 12  1  0
  8 12  1  0
  6  7  1  0
  9 13  1  0
 20 15  2  0
 21 16  1  0
 22 17  1  0
 20 14  1  0
 22 23  1  0
 21 22  1  0
 23 19  1  0
 20 21  1  0
 23 18  2  0
 30 25  2  0
 31 26  1  0
 32 27  1  0
 30 24  1  0
 32 33  1  0
 31 32  1  0
 33 29  1  0
 30 31  1  0
 33 28  2  0
  1 35  1  0
  1 36  1  0
  2 37  1  0
  3 38  1  0
  5 39  1  0
  7 40  1  0
  8 41  1  1
 10 42  1  0
 10 43  1  0
 11 44  1  0
 11 45  1  0
 12 46  1  0
 12 47  1  0
 13 48  1  0
 13 49  1  0
 13 50  1  0
 14 51  1  0
 16 52  1  0
 17 53  1  0
 19 54  1  0
 21 55  1  6
 22 56  1  6
 24 57  1  0
 26 58  1  0
 27 59  1  0
 29 60  1  0
 31 61  1  1
 32 62  1  1
 34 63  1  0
 34 64  1  0
M  END
> <Uni-Dock RESULT> 
ENERGY=   -5.150  LOWER_BOUND=    3.704  UPPER_BOUND=    5.738
INTER + INTRA:          -5.150
INTER:                  -5.150
INTRA:                   0.000
UNBOUND:                 0.000

$$$$
