
     RDKit          3D

 64 61  0  0  0  0  0  0  0  0999 V2000
   45.6879    6.3866   11.9496 O   0  0  0  0  0  0  0  0  0  0  0  0
   44.5817    3.2482   12.4096 C   0  0  0  0  0  0  0  0  0  0  0  0
   43.4009    3.3113   11.6927 C   0  0  0  0  0  0  0  0  0  0  0  0
   42.8166    4.4664   11.3137 N   0  0  0  0  0  0  0  0  0  0  0  0
   43.4475    5.6130   11.6646 C   0  0  0  0  0  0  0  0  0  0  0  0
   44.6472    5.6715   12.3680 C   0  0  0  0  0  0  0  0  0  0  0  0
   45.2044    4.4438   12.7544 C   0  0  0  0  0  0  0  0  0  0  0  0
   45.3066    6.9668   12.7759 C   0  0  1  0  0  0  0  0  0  0  0  0
   46.7631    7.0754   12.4966 N   0  0  0  0  0  0  0  0  0  0  0  0
   47.0714    8.4775   12.8261 C   0  0  0  0  0  0  0  0  0  0  0  0
   45.8455    9.2951   12.4356 C   0  0  0  0  0  0  0  0  0  0  0  0
   44.7307    8.2764   12.2293 C   0  0  0  0  0  0  0  0  0  0  0  0
   47.1189    6.7929   11.1011 C   0  0  0  0  0  0  0  0  0  0  0  0
   44.7201    4.1657   11.0078 O   0  0  0  0  0  0  0  0  0  0  0  0
   42.9532    5.4578   11.4757 O   0  0  0  0  0  0  0  0  0  0  0  0
   44.5080    7.6929   11.0212 O   0  0  0  0  0  0  0  0  0  0  0  0
   46.2521    5.3785   13.3356 O   0  0  0  0  0  0  0  0  0  0  0  0
   47.8529    7.5760   12.9233 O   0  0  0  0  0  0  0  0  0  0  0  0
   46.1019    8.9218   13.2775 O   0  0  0  0  0  0  0  0  0  0  0  0
   44.1630    5.3513   11.3258 C   0  0  0  0  0  0  0  0  0  0  0  0
   45.1588    6.4905   11.4483 C   0  0  2  0  0  0  0  0  0  0  0  0
   45.6243    6.5942   12.9003 C   0  0  2  0  0  0  0  0  0  0  0  0
   46.6411    7.7171   13.0206 C   0  0  0  0  0  0  0  0  0  0  0  0
   45.2417    5.4013    9.9601 O   0  0  0  0  0  0  0  0  0  0  0  0
   43.1167    5.6387   10.5757 O   0  0  0  0  0  0  0  0  0  0  0  0
   43.8620    5.8778   13.2965 O   0  0  0  0  0  0  0  0  0  0  0  0
   44.7692    8.2481   12.6264 O   0  0  0  0  0  0  0  0  0  0  0  0
   47.0598    7.9431   14.1261 O   0  0  0  0  0  0  0  0  0  0  0  0
   47.6636    6.0680   13.0759 O   0  0  0  0  0  0  0  0  0  0  0  0
   44.2953    5.6349   10.8931 C   0  0  0  0  0  0  0  0  0  0  0  0
   44.8772    5.8502   12.2867 C   0  0  1  0  0  0  0  0  0  0  0  0
   45.6612    7.1648   12.2935 C   0  0  2  0  0  0  0  0  0  0  0  0
   46.8258    7.0995   13.2711 C   0  0  0  0  0  0  0  0  0  0  0  0
   45.6894    6.3889   11.9499 O   0  0  0  0  0  0  0  0  0  0  0  0
   44.8570    5.9682   12.2205 H   0  0  0  0  0  0  0  0  0  0  0  0
   45.6719    7.2481   12.3930 H   0  0  0  0  0  0  0  0  0  0  0  0
   45.0082    2.2942   12.6957 H   0  0  0  0  0  0  0  0  0  0  0  0
   42.8759    2.4074   11.3980 H   0  0  0  0  0  0  0  0  0  0  0  0
   42.9223    6.5096   11.3488 H   0  0  0  0  0  0  0  0  0  0  0  0
   46.1344    4.4229   13.3192 H   0  0  0  0  0  0  0  0  0  0  0  0
   45.1942    7.0050   13.8711 H   0  0  0  0  0  0  0  0  0  0  0  0
   47.9891    8.8475   12.3557 H   0  0  0  0  0  0  0  0  0  0  0  0
   47.2259    8.5514   13.9097 H   0  0  0  0  0  0  0  0  0  0  0  0
   45.5867   10.0100   13.2236 H   0  0  0  0  0  0  0  0  0  0  0  0
   46.0176    9.8573   11.5111 H   0  0  0  0  0  0  0  0  0  0  0  0
   43.8139    8.5718   12.7508 H   0  0  0  0  0  0  0  0  0  0  0  0
   44.4964    8.2108   11.1601 H   0  0  0  0  0  0  0  0  0  0  0  0
   46.9239    5.7467   10.8447 H   0  0  0  0  0  0  0  0  0  0  0  0
   46.5951    7.4271   10.3779 H   0  0  0  0  0  0  0  0  0  0  0  0
   48.1959    6.9394   10.9557 H   0  0  0  0  0  0  0  0  0  0  0  0
   43.9686    3.5373   10.9843 H   0  0  0  0  0  0  0  0  0  0  0  0
   43.6251    7.7074   11.4404 H   0  0  0  0  0  0  0  0  0  0  0  0
   47.1760    5.4013   13.0111 H   0  0  0  0  0  0  0  0  0  0  0  0
   46.8663    9.5349   13.3197 H   0  0  0  0  0  0  0  0  0  0  0  0
   45.9904    6.3072   10.7629 H   0  0  0  0  0  0  0  0  0  0  0  0
   44.7925    6.7969   13.5837 H   0  0  0  0  0  0  0  0  0  0  0  0
   44.7253    5.2414    9.1399 H   0  0  0  0  0  0  0  0  0  0  0  0
   43.3861    6.7223   13.1536 H   0  0  0  0  0  0  0  0  0  0  0  0
   45.2888    8.8774   13.1684 H   0  0  0  0  0  0  0  0  0  0  0  0
   48.3670    6.1861   13.7505 H   0  0  0  0  0  0  0  0  0  0  0  0
   45.5041    4.9752   12.4957 H   0  0  0  0  0  0  0  0  0  0  0  0
   46.0937    7.4038   11.3172 H   0  0  0  0  0  0  0  0  0  0  0  0
   44.8600    5.9651   12.2172 H   0  0  0  0  0  0  0  0  0  0  0  0
   45.6675    7.2488   12.3958 H   0  0  0  0  0  0  0  0  0  0  0  0
  7  2  2  0
  2  3  1  0
  8  6  1  0
  8  9  1  0
  4  5  1  0
  5  6  2  0
  3  4  2  0
  9 10  1  0
 10 11  1  0
 11 12  1  0
  8 12  1  0
  6  7  1  0
  9 13  1  0
 20 15  2  0
 21 16  1  0
 22 17  1  0
 20 14  1  0
 22 23  1  0
 21 22  1  0
 23 19  1  0
 20 21  1  0
 23 18  2  0
 30 25  2  0
 31 26  1  0
 32 27  1  0
 30 24  1  0
 32 33  1  0
 31 32  1  0
 33 29  1  0
 30 31  1  0
 33 28  2  0
  1 35  1  0
  1 36  1  0
  2 37  1  0
  3 38  1  0
  5 39  1  0
  7 40  1  0
  8 41  1  1
 10 42  1  0
 10 43  1  0
 11 44  1  0
 11 45  1  0
 12 46  1  0
 12 47  1  0
 13 48  1  0
 13 49  1  0
 13 50  1  0
 14 51  1  0
 16 52  1  0
 17 53  1  0
 19 54  1  0
 21 55  1  1
 22 56  1  6
 24 57  1  0
 26 58  1  0
 27 59  1  0
 29 60  1  0
 31 61  1  1
 32 62  1  6
 34 63  1  0
 34 64  1  0
M  END
> <Uni-Dock RESULT> 
ENERGY=   -6.309  LOWER_BOUND=    0.000  UPPER_BOUND=    0.000
INTER + INTRA:          -6.309
INTER:                  -6.309
INTRA:                   0.000
UNBOUND:                 0.000

$$$$

     RDKit          3D

 64 61  0  0  0  0  0  0  0  0999 V2000
   45.0985    6.0635   11.7840 O   0  0  0  0  0  0  0  0  0  0  0  0
   46.2110    9.1804   12.3605 C   0  0  0  0  0  0  0  0  0  0  0  0
   47.4483    8.8880   12.9043 C   0  0  0  0  0  0  0  0  0  0  0  0
   47.7941    7.6678   13.3638 N   0  0  0  0  0  0  0  0  0  0  0  0
   46.8581    6.6927   13.2697 C   0  0  0  0  0  0  0  0  0  0  0  0
   45.5888    6.8656   12.7251 C   0  0  0  0  0  0  0  0  0  0  0  0
   45.2722    8.1566   12.2782 C   0  0  0  0  0  0  0  0  0  0  0  0
   44.5548    5.7671   12.6679 C   0  0  1  0  0  0  0  0  0  0  0  0
   43.8629    5.5878   11.3639 N   0  0  0  0  0  0  0  0  0  0  0  0
   43.0723    4.3608   11.5616 C   0  0  0  0  0  0  0  0  0  0  0  0
   43.8983    3.4530   12.4658 C   0  0  0  0  0  0  0  0  0  0  0  0
   44.9833    4.3481   13.0528 C   0  0  0  0  0  0  0  0  0  0  0  0
   44.7778    5.4235   10.2282 C   0  0  0  0  0  0  0  0  0  0  0  0
   46.9572    7.8724   11.6131 O   0  0  0  0  0  0  0  0  0  0  0  0
   47.3379    6.7775   13.5279 O   0  0  0  0  0  0  0  0  0  0  0  0
   46.1805    4.5239   12.4320 O   0  0  0  0  0  0  0  0  0  0  0  0
   43.9647    7.4578   11.9445 O   0  0  0  0  0  0  0  0  0  0  0  0
   42.7572    5.2534   10.8290 O   0  0  0  0  0  0  0  0  0  0  0  0
   43.2009    4.0722   12.6758 O   0  0  0  0  0  0  0  0  0  0  0  0
   46.7508    6.8410   12.4562 C   0  0  0  0  0  0  0  0  0  0  0  0
   45.7703    5.8044   11.9381 C   0  0  2  0  0  0  0  0  0  0  0  0
   44.3639    6.1623   12.4176 C   0  0  2  0  0  0  0  0  0  0  0  0
   43.3766    5.1407   11.8786 C   0  0  0  0  0  0  0  0  0  0  0  0
   47.1240    6.3756   10.8205 O   0  0  0  0  0  0  0  0  0  0  0  0
   47.8755    6.3261   12.9142 O   0  0  0  0  0  0  0  0  0  0  0  0
   45.3053    6.9533   13.9223 O   0  0  0  0  0  0  0  0  0  0  0  0
   44.6665    4.4991   13.2446 O   0  0  0  0  0  0  0  0  0  0  0  0
   42.2299    5.2739   12.2190 O   0  0  0  0  0  0  0  0  0  0  0  0
   43.1378    6.7324   10.7935 O   0  0  0  0  0  0  0  0  0  0  0  0
   46.9272    6.4377   12.1540 C   0  0  0  0  0  0  0  0  0  0  0  0
   45.4668    6.6721   12.5273 C   0  0  1  0  0  0  0  0  0  0  0  0
   44.6569    5.4312   12.1440 C   0  0  2  0  0  0  0  0  0  0  0  0
   43.2323    5.8069   11.7623 C   0  0  0  0  0  0  0  0  0  0  0  0
   45.0969    6.0614   11.7834 O   0  0  0  0  0  0  0  0  0  0  0  0
   45.4992    6.5393   12.5269 H   0  0  0  0  0  0  0  0  0  0  0  0
   44.5539    5.3832   12.2077 H   0  0  0  0  0  0  0  0  0  0  0  0
   45.9795   10.1792   12.0102 H   0  0  0  0  0  0  0  0  0  0  0  0
   48.2165    9.6508   12.9903 H   0  0  0  0  0  0  0  0  0  0  0  0
   47.1860    5.7384   13.6713 H   0  0  0  0  0  0  0  0  0  0  0  0
   44.2901    8.3597   11.8553 H   0  0  0  0  0  0  0  0  0  0  0  0
   43.7830    6.0716   13.3926 H   0  0  0  0  0  0  0  0  0  0  0  0
   42.7830    3.8694   10.6261 H   0  0  0  0  0  0  0  0  0  0  0  0
   42.1398    4.6297   12.0729 H   0  0  0  0  0  0  0  0  0  0  0  0
   43.2757    3.0176   13.2544 H   0  0  0  0  0  0  0  0  0  0  0  0
   44.3527    2.6317   11.9006 H   0  0  0  0  0  0  0  0  0  0  0  0
   45.0647    4.2232   14.1379 H   0  0  0  0  0  0  0  0  0  0  0  0
   45.9509    4.0752   12.6151 H   0  0  0  0  0  0  0  0  0  0  0  0
   45.3544    6.3361   10.0467 H   0  0  0  0  0  0  0  0  0  0  0  0
   45.4799    4.5915   10.3475 H   0  0  0  0  0  0  0  0  0  0  0  0
   44.2030    5.2471    9.3111 H   0  0  0  0  0  0  0  0  0  0  0  0
   47.5863    8.4565   12.0857 H   0  0  0  0  0  0  0  0  0  0  0  0
   46.3902    4.6343   13.3802 H   0  0  0  0  0  0  0  0  0  0  0  0
   43.6491    7.3419   11.0245 H   0  0  0  0  0  0  0  0  0  0  0  0
   42.5537    3.5086   12.2008 H   0  0  0  0  0  0  0  0  0  0  0  0
   45.8358    5.7710   10.8475 H   0  0  0  0  0  0  0  0  0  0  0  0
   44.2951    6.1767   13.5108 H   0  0  0  0  0  0  0  0  0  0  0  0
   48.0965    6.2678   10.7337 H   0  0  0  0  0  0  0  0  0  0  0  0
   45.4858    6.1028   14.3742 H   0  0  0  0  0  0  0  0  0  0  0  0
   43.7838    4.0742   13.2547 H   0  0  0  0  0  0  0  0  0  0  0  0
   42.1737    6.8359   10.6398 H   0  0  0  0  0  0  0  0  0  0  0  0
   45.1532    7.5733   11.9872 H   0  0  0  0  0  0  0  0  0  0  0  0
   45.0757    4.9029   11.2823 H   0  0  0  0  0  0  0  0  0  0  0  0
   45.5007    6.5412   12.5221 H   0  0  0  0  0  0  0  0  0  0  0  0
   44.5542    5.3833   12.2130 H   0  0  0  0  0  0  0  0  0  0  0  0
  7  2  2  0
  2  3  1  0
  8  6  1  0
  8  9  1  0
  4  5  1  0
  5  6  2  0
  3  4  2  0
  9 10  1  0
 10 11  1  0
 11 12  1  0
  8 12  1  0
  6  7  1  0
  9 13  1  0
 20 15  2  0
 21 16  1  0
 22 17  1  0
 20 14  1  0
 22 23  1  0
 21 22  1  0
 23 19  1  0
 20 21  1  0
 23 18  2  0
 30 25  2  0
 31 26  1  0
 32 27  1  0
 30 24  1  0
 32 33  1  0
 31 32  1  0
 33 29  1  0
 30 31  1  0
 33 28  2  0
  1 35  1  0
  1 36  1  0
  2 37  1  0
  3 38  1  0
  5 39  1  0
  7 40  1  0
  8 41  1  1
 10 42  1  0
 10 43  1  0
 11 44  1  0
 11 45  1  0
 12 46  1  0
 12 47  1  0
 13 48  1  0
 13 49  1  0
 13 50  1  0
 14 51  1  0
 16 52  1  0
 17 53  1  0
 19 54  1  0
 21 55  1  1
 22 56  1  6
 24 57  1  0
 26 58  1  0
 27 59  1  0
 29 60  1  0
 31 61  1  1
 32 62  1  6
 34 63  1  0
 34 64  1  0
M  END
> <Uni-Dock RESULT> 
ENERGY=   -5.403  LOWER_BOUND=    1.053  UPPER_BOUND=    4.142
INTER + INTRA:          -5.403
INTER:                  -5.403
INTRA:                   0.000
UNBOUND:                 0.000

$$$$

     RDKit          3D

 64 61  0  0  0  0  0  0  0  0999 V2000
   48.7345    4.9199   18.6616 O   0  0  0  0  0  0  0  0  0  0  0  0
   48.1187    6.3881   21.6197 C   0  0  0  0  0  0  0  0  0  0  0  0
   49.3555    6.2316   22.2180 C   0  0  0  0  0  0  0  0  0  0  0  0
   50.2993    5.3770   21.7726 N   0  0  0  0  0  0  0  0  0  0  0  0
   49.9920    4.6481   20.6726 C   0  0  0  0  0  0  0  0  0  0  0  0
   48.7890    4.7349   19.9777 C   0  0  0  0  0  0  0  0  0  0  0  0
   47.8344    5.6246   20.4916 C   0  0  0  0  0  0  0  0  0  0  0  0
   48.4626    3.8817   18.7758 C   0  0  1  0  0  0  0  0  0  0  0  0
   47.8986    4.5967   17.6002 N   0  0  0  0  0  0  0  0  0  0  0  0
   47.8591    3.5595   16.5552 C   0  0  0  0  0  0  0  0  0  0  0  0
   49.0759    2.6693   16.7806 C   0  0  0  0  0  0  0  0  0  0  0  0
   49.5757    3.0161   18.1781 C   0  0  0  0  0  0  0  0  0  0  0  0
   48.7127    5.7338   17.1549 C   0  0  0  0  0  0  0  0  0  0  0  0
   49.3929    6.5896   20.5417 O   0  0  0  0  0  0  0  0  0  0  0  0
   50.3723    4.6480   21.0719 O   0  0  0  0  0  0  0  0  0  0  0  0
   50.4821    4.0078   18.3891 O   0  0  0  0  0  0  0  0  0  0  0  0
   47.0555    5.0971   19.2982 O   0  0  0  0  0  0  0  0  0  0  0  0
   47.0963    4.4798   16.6189 O   0  0  0  0  0  0  0  0  0  0  0  0
   48.1708    2.5711   17.0720 O   0  0  0  0  0  0  0  0  0  0  0  0
   49.7849    5.3342   20.2463 C   0  0  0  0  0  0  0  0  0  0  0  0
   49.4506    4.8977   18.8314 C   0  0  2  0  0  0  0  0  0  0  0  0
   48.0844    4.2126   18.8287 C   0  0  2  0  0  0  0  0  0  0  0  0
   47.7356    3.7979   17.4091 C   0  0  0  0  0  0  0  0  0  0  0  0
   50.2648    6.5355   19.0811 O   0  0  0  0  0  0  0  0  0  0  0  0
   51.0351    5.0972   20.5939 O   0  0  0  0  0  0  0  0  0  0  0  0
   48.5585    3.7264   20.6495 O   0  0  0  0  0  0  0  0  0  0  0  0
   49.2359    2.8299   18.2771 O   0  0  0  0  0  0  0  0  0  0  0  0
   46.7005    3.2007   17.2654 O   0  0  0  0  0  0  0  0  0  0  0  0
   46.6630    5.3727   17.7800 O   0  0  0  0  0  0  0  0  0  0  0  0
   50.1283    5.4352   19.8501 C   0  0  0  0  0  0  0  0  0  0  0  0
   48.7740    4.7550   19.6764 C   0  0  1  0  0  0  0  0  0  0  0  0
   48.6971    4.1677   18.2650 C   0  0  2  0  0  0  0  0  0  0  0  0
   47.2649    4.1723   17.7503 C   0  0  0  0  0  0  0  0  0  0  0  0
   48.7341    4.9188   18.6592 O   0  0  0  0  0  0  0  0  0  0  0  0
   48.8698    4.7003   19.5956 H   0  0  0  0  0  0  0  0  0  0  0  0
   48.6365    4.0579   18.2300 H   0  0  0  0  0  0  0  0  0  0  0  0
   47.3915    7.0846   22.0198 H   0  0  0  0  0  0  0  0  0  0  0  0
   49.6273    6.8043   23.0998 H   0  0  0  0  0  0  0  0  0  0  0  0
   50.7814    3.9657   20.3717 H   0  0  0  0  0  0  0  0  0  0  0  0
   46.8681    5.7274   20.0017 H   0  0  0  0  0  0  0  0  0  0  0  0
   47.6797    3.1911   19.1274 H   0  0  0  0  0  0  0  0  0  0  0  0
   47.8180    3.9630   15.5374 H   0  0  0  0  0  0  0  0  0  0  0  0
   46.9463    2.9665   16.6917 H   0  0  0  0  0  0  0  0  0  0  0  0
   48.8032    1.6111   16.7098 H   0  0  0  0  0  0  0  0  0  0  0  0
   49.8592    2.8676   16.0406 H   0  0  0  0  0  0  0  0  0  0  0  0
   49.7616    2.1161   18.7740 H   0  0  0  0  0  0  0  0  0  0  0  0
   50.5241    3.5604   18.0964 H   0  0  0  0  0  0  0  0  0  0  0  0
   48.7307    6.5289   17.9071 H   0  0  0  0  0  0  0  0  0  0  0  0
   49.7468    5.4652   16.9141 H   0  0  0  0  0  0  0  0  0  0  0  0
   48.2663    6.1816   16.2590 H   0  0  0  0  0  0  0  0  0  0  0  0
   49.6556    6.7175   21.4770 H   0  0  0  0  0  0  0  0  0  0  0  0
   50.6510    3.3777   19.1170 H   0  0  0  0  0  0  0  0  0  0  0  0
   46.8001    5.6658   18.5427 H   0  0  0  0  0  0  0  0  0  0  0  0
   47.8819    2.4490   16.1426 H   0  0  0  0  0  0  0  0  0  0  0  0
   49.4715    5.7737   18.1779 H   0  0  0  0  0  0  0  0  0  0  0  0
   48.0706    3.3239   19.4692 H   0  0  0  0  0  0  0  0  0  0  0  0
   51.1497    6.8834   19.3279 H   0  0  0  0  0  0  0  0  0  0  0  0
   49.1707    3.0051   20.3946 H   0  0  0  0  0  0  0  0  0  0  0  0
   48.6974    2.3093   17.6457 H   0  0  0  0  0  0  0  0  0  0  0  0
   45.7760    5.2174   17.3890 H   0  0  0  0  0  0  0  0  0  0  0  0
   48.0173    5.5264   19.8624 H   0  0  0  0  0  0  0  0  0  0  0  0
   49.2856    4.7360   17.5383 H   0  0  0  0  0  0  0  0  0  0  0  0
   48.8699    4.7056   19.5946 H   0  0  0  0  0  0  0  0  0  0  0  0
   48.6369    4.0539   18.2334 H   0  0  0  0  0  0  0  0  0  0  0  0
  7  2  2  0
  2  3  1  0
  8  6  1  0
  8  9  1  0
  4  5  1  0
  5  6  2  0
  3  4  2  0
  9 10  1  0
 10 11  1  0
 11 12  1  0
  8 12  1  0
  6  7  1  0
  9 13  1  0
 20 15  2  0
 21 16  1  0
 22 17  1  0
 20 14  1  0
 22 23  1  0
 21 22  1  0
 23 19  1  0
 20 21  1  0
 23 18  2  0
 30 25  2  0
 31 26  1  0
 32 27  1  0
 30 24  1  0
 32 33  1  0
 31 32  1  0
 33 29  1  0
 30 31  1  0
 33 28  2  0
  1 35  1  0
  1 36  1  0
  2 37  1  0
  3 38  1  0
  5 39  1  0
  7 40  1  0
  8 41  1  1
 10 42  1  0
 10 43  1  0
 11 44  1  0
 11 45  1  0
 12 46  1  0
 12 47  1  0
 13 48  1  0
 13 49  1  0
 13 50  1  0
 14 51  1  0
 16 52  1  0
 17 53  1  0
 19 54  1  0
 21 55  1  1
 22 56  1  6
 24 57  1  0
 26 58  1  0
 27 59  1  0
 29 60  1  0
 31 61  1  1
 32 62  1  6
 34 63  1  0
 34 64  1  0
M  END
> <Uni-Dock RESULT> 
ENERGY=   -4.877  LOWER_BOUND=    6.708  UPPER_BOUND=    8.837
INTER + INTRA:          -4.877
INTER:                  -4.877
INTRA:                   0.000
UNBOUND:                 0.000

$$$$

     RDKit          3D

 64 61  0  0  0  0  0  0  0  0999 V2000
   48.8474    5.8337   20.3588 O   0  0  0  0  0  0  0  0  0  0  0  0
   49.4991    4.6314   17.2905 C   0  0  0  0  0  0  0  0  0  0  0  0
   48.2137    4.5824   16.7829 C   0  0  0  0  0  0  0  0  0  0  0  0
   47.1044    4.6539   17.5470 N   0  0  0  0  0  0  0  0  0  0  0  0
   47.2910    4.7860   18.8825 C   0  0  0  0  0  0  0  0  0  0  0  0
   48.5347    4.8648   19.5027 C   0  0  0  0  0  0  0  0  0  0  0  0
   49.6563    4.7674   18.6663 C   0  0  0  0  0  0  0  0  0  0  0  0
   48.7097    4.9751   20.9981 C   0  0  1  0  0  0  0  0  0  0  0  0
   49.6606    6.0164   21.4701 N   0  0  0  0  0  0  0  0  0  0  0  0
   49.4819    6.0059   22.9321 C   0  0  0  0  0  0  0  0  0  0  0  0
   48.0081    5.7112   23.1874 C   0  0  0  0  0  0  0  0  0  0  0  0
   47.4631    5.2010   21.8586 C   0  0  0  0  0  0  0  0  0  0  0  0
   49.3831    7.3546   20.9354 C   0  0  0  0  0  0  0  0  0  0  0  0
   48.5572    5.9358   17.7778 O   0  0  0  0  0  0  0  0  0  0  0  0
   46.8809    4.6609   18.5358 O   0  0  0  0  0  0  0  0  0  0  0  0
   46.9506    6.0447   20.9232 O   0  0  0  0  0  0  0  0  0  0  0  0
   50.3636    4.9229   20.0022 O   0  0  0  0  0  0  0  0  0  0  0  0
   50.5047    6.2946   22.3814 O   0  0  0  0  0  0  0  0  0  0  0  0
   48.7640    5.1266   23.1614 O   0  0  0  0  0  0  0  0  0  0  0  0
   47.7908    5.4442   18.7718 C   0  0  0  0  0  0  0  0  0  0  0  0
   48.1539    5.9667   20.1501 C   0  0  2  0  0  0  0  0  0  0  0  0
   49.1687    5.0214   20.7922 C   0  0  2  0  0  0  0  0  0  0  0  0
   49.5537    5.5562   22.1615 C   0  0  0  0  0  0  0  0  0  0  0  0
   47.9518    7.1778   18.7715 O   0  0  0  0  0  0  0  0  0  0  0  0
   46.5018    5.5120   18.5007 O   0  0  0  0  0  0  0  0  0  0  0  0
   48.2864    3.6737   19.7053 O   0  0  0  0  0  0  0  0  0  0  0  0
   47.6950    4.8898   21.9553 O   0  0  0  0  0  0  0  0  0  0  0  0
   50.3158    4.8817   22.8041 O   0  0  0  0  0  0  0  0  0  0  0  0
   51.0504    5.9621   20.9939 O   0  0  0  0  0  0  0  0  0  0  0  0
   47.5695    5.8961   18.9503 C   0  0  0  0  0  0  0  0  0  0  0  0
   48.6006    5.0710   19.7138 C   0  0  1  0  0  0  0  0  0  0  0  0
   48.6720    5.5851   21.1537 C   0  0  2  0  0  0  0  0  0  0  0  0
   50.0707    5.4079   21.7268 C   0  0  0  0  0  0  0  0  0  0  0  0
   48.8477    5.8344   20.3614 O   0  0  0  0  0  0  0  0  0  0  0  0
   48.5048    5.1229   19.7964 H   0  0  0  0  0  0  0  0  0  0  0  0
   48.6937    5.5137   21.2605 H   0  0  0  0  0  0  0  0  0  0  0  0
   50.3589    4.5639   16.6346 H   0  0  0  0  0  0  0  0  0  0  0  0
   48.0364    4.4782   15.7166 H   0  0  0  0  0  0  0  0  0  0  0  0
   46.3641    4.8200   19.4474 H   0  0  0  0  0  0  0  0  0  0  0  0
   50.6569    4.8077   19.0923 H   0  0  0  0  0  0  0  0  0  0  0  0
   49.1320    4.0043   21.3026 H   0  0  0  0  0  0  0  0  0  0  0  0
   49.8159    6.9273   23.4219 H   0  0  0  0  0  0  0  0  0  0  0  0
   50.0909    5.1941   23.3485 H   0  0  0  0  0  0  0  0  0  0  0  0
   47.8917    4.9610   23.9765 H   0  0  0  0  0  0  0  0  0  0  0  0
   47.4673    6.6131   23.4948 H   0  0  0  0  0  0  0  0  0  0  0  0
   46.8810    4.2823   21.9884 H   0  0  0  0  0  0  0  0  0  0  0  0
   46.7956    5.9575   21.4291 H   0  0  0  0  0  0  0  0  0  0  0  0
   49.5387    7.3905   19.8524 H   0  0  0  0  0  0  0  0  0  0  0  0
   48.3697    7.7108   21.1487 H   0  0  0  0  0  0  0  0  0  0  0  0
   50.0884    8.0782   21.3616 H   0  0  0  0  0  0  0  0  0  0  0  0
   48.2213    5.4996   16.9672 H   0  0  0  0  0  0  0  0  0  0  0  0
   46.4611    5.2110   20.7796 H   0  0  0  0  0  0  0  0  0  0  0  0
   50.9151    5.7030   20.2187 H   0  0  0  0  0  0  0  0  0  0  0  0
   49.1252    5.5533   23.9674 H   0  0  0  0  0  0  0  0  0  0  0  0
   48.5454    6.9824   20.0503 H   0  0  0  0  0  0  0  0  0  0  0  0
   48.7682    4.0085   20.9090 H   0  0  0  0  0  0  0  0  0  0  0  0
   47.2237    7.5655   18.2382 H   0  0  0  0  0  0  0  0  0  0  0  0
   47.5020    3.5875   20.2862 H   0  0  0  0  0  0  0  0  0  0  0  0
   48.0994    4.7669   22.8390 H   0  0  0  0  0  0  0  0  0  0  0  0
   51.8708    5.7957   21.5067 H   0  0  0  0  0  0  0  0  0  0  0  0
   49.5463    5.1832   19.1704 H   0  0  0  0  0  0  0  0  0  0  0  0
   48.4410    6.6516   21.2335 H   0  0  0  0  0  0  0  0  0  0  0  0
   48.5068    5.1270   19.7936 H   0  0  0  0  0  0  0  0  0  0  0  0
   48.6914    5.5089   21.2606 H   0  0  0  0  0  0  0  0  0  0  0  0
  7  2  2  0
  2  3  1  0
  8  6  1  0
  8  9  1  0
  4  5  1  0
  5  6  2  0
  3  4  2  0
  9 10  1  0
 10 11  1  0
 11 12  1  0
  8 12  1  0
  6  7  1  0
  9 13  1  0
 20 15  2  0
 21 16  1  0
 22 17  1  0
 20 14  1  0
 22 23  1  0
 21 22  1  0
 23 19  1  0
 20 21  1  0
 23 18  2  0
 30 25  2  0
 31 26  1  0
 32 27  1  0
 30 24  1  0
 32 33  1  0
 31 32  1  0
 33 29  1  0
 30 31  1  0
 33 28  2  0
  1 35  1  0
  1 36  1  0
  2 37  1  0
  3 38  1  0
  5 39  1  0
  7 40  1  0
  8 41  1  1
 10 42  1  0
 10 43  1  0
 11 44  1  0
 11 45  1  0
 12 46  1  0
 12 47  1  0
 13 48  1  0
 13 49  1  0
 13 50  1  0
 14 51  1  0
 16 52  1  0
 17 53  1  0
 19 54  1  0
 21 55  1  1
 22 56  1  6
 24 57  1  0
 26 58  1  0
 27 59  1  0
 29 60  1  0
 31 61  1  1
 32 62  1  6
 34 63  1  0
 34 64  1  0
M  END
> <Uni-Dock RESULT> 
ENERGY=   -4.617  LOWER_BOUND=    7.547  UPPER_BOUND=    9.089
INTER + INTRA:          -4.617
INTER:                  -4.617
INTRA:                   0.000
UNBOUND:                 0.000

$$$$

     RDKit          3D

 64 61  0  0  0  0  0  0  0  0999 V2000
   48.1792   11.1078   20.2072 O   0  0  0  0  0  0  0  0  0  0  0  0
   47.4572    8.2657   21.8462 C   0  0  0  0  0  0  0  0  0  0  0  0
   47.5037    7.3720   20.7920 C   0  0  0  0  0  0  0  0  0  0  0  0
   47.4704    7.7422   19.4954 N   0  0  0  0  0  0  0  0  0  0  0  0
   47.3922    9.0710   19.2421 C   0  0  0  0  0  0  0  0  0  0  0  0
   47.3583   10.0612   20.2199 C   0  0  0  0  0  0  0  0  0  0  0  0
   47.3770    9.6234   21.5521 C   0  0  0  0  0  0  0  0  0  0  0  0
   47.2339   11.5325   19.9055 C   0  0  1  0  0  0  0  0  0  0  0  0
   48.1776   12.4351   20.6170 N   0  0  0  0  0  0  0  0  0  0  0  0
   47.9436   13.7437   19.9828 C   0  0  0  0  0  0  0  0  0  0  0  0
   47.6318   13.4663   18.5166 C   0  0  0  0  0  0  0  0  0  0  0  0
   47.3400   11.9722   18.4424 C   0  0  0  0  0  0  0  0  0  0  0  0
   49.5858   12.0474   20.4741 C   0  0  0  0  0  0  0  0  0  0  0  0
   48.6826    8.6162   20.7499 O   0  0  0  0  0  0  0  0  0  0  0  0
   47.3273    8.5966   18.9687 O   0  0  0  0  0  0  0  0  0  0  0  0
   48.3246   11.0600   18.2230 O   0  0  0  0  0  0  0  0  0  0  0  0
   47.3152   11.1228   21.7912 O   0  0  0  0  0  0  0  0  0  0  0  0
   48.3008   13.5996   21.1161 O   0  0  0  0  0  0  0  0  0  0  0  0
   47.0486   13.5961   19.2629 O   0  0  0  0  0  0  0  0  0  0  0  0
   48.0531    9.2266   19.7261 C   0  0  0  0  0  0  0  0  0  0  0  0
   48.3517   10.7105   19.6118 C   0  0  2  0  0  0  0  0  0  0  0  0
   47.3057   11.4939   20.4042 C   0  0  2  0  0  0  0  0  0  0  0  0
   47.6175   12.9783   20.3130 C   0  0  0  0  0  0  0  0  0  0  0  0
   49.7637    9.5386   19.8135 O   0  0  0  0  0  0  0  0  0  0  0  0
   48.1784    8.5703   18.5888 O   0  0  0  0  0  0  0  0  0  0  0  0
   46.1534    9.9920   19.9649 O   0  0  0  0  0  0  0  0  0  0  0  0
   47.0147   12.0900   18.6430 O   0  0  0  0  0  0  0  0  0  0  0  0
   46.8421   13.7220   20.8557 O   0  0  0  0  0  0  0  0  0  0  0  0
   48.1798   12.4266   22.0871 O   0  0  0  0  0  0  0  0  0  0  0  0
   48.4748    9.3906   19.4426 C   0  0  0  0  0  0  0  0  0  0  0  0
   47.5286   10.3108   20.2074 C   0  0  1  0  0  0  0  0  0  0  0  0
   47.8129   11.7577   19.7974 C   0  0  2  0  0  0  0  0  0  0  0  0
   47.5316   12.7150   20.9466 C   0  0  0  0  0  0  0  0  0  0  0  0
   48.1794   11.1104   20.2067 O   0  0  0  0  0  0  0  0  0  0  0  0
   47.5683   10.3651   20.0884 H   0  0  0  0  0  0  0  0  0  0  0  0
   47.7257   11.8538   19.7867 H   0  0  0  0  0  0  0  0  0  0  0  0
   47.4810    7.9174   22.8719 H   0  0  0  0  0  0  0  0  0  0  0  0
   47.5677    6.3022   20.9674 H   0  0  0  0  0  0  0  0  0  0  0  0
   47.3503    9.3076   18.1830 H   0  0  0  0  0  0  0  0  0  0  0  0
   47.3382   10.3483   22.3629 H   0  0  0  0  0  0  0  0  0  0  0  0
   46.2225   11.8065   20.2452 H   0  0  0  0  0  0  0  0  0  0  0  0
   48.7739   14.4474   20.1087 H   0  0  0  0  0  0  0  0  0  0  0  0
   47.0695   14.2061   20.4577 H   0  0  0  0  0  0  0  0  0  0  0  0
   46.7702   14.0542   18.1834 H   0  0  0  0  0  0  0  0  0  0  0  0
   48.4822   13.7163   17.8725 H   0  0  0  0  0  0  0  0  0  0  0  0
   46.4198   11.7690   17.8842 H   0  0  0  0  0  0  0  0  0  0  0  0
   48.1623   11.4705   17.9183 H   0  0  0  0  0  0  0  0  0  0  0  0
   49.7866   11.0897   20.9648 H   0  0  0  0  0  0  0  0  0  0  0  0
   49.9176   11.9760   19.4328 H   0  0  0  0  0  0  0  0  0  0  0  0
   50.2257   12.7808   20.9794 H   0  0  0  0  0  0  0  0  0  0  0  0
   48.3812    7.6848   20.7061 H   0  0  0  0  0  0  0  0  0  0  0  0
   47.5294   10.6436   17.8363 H   0  0  0  0  0  0  0  0  0  0  0  0
   48.0453   11.6192   22.2154 H   0  0  0  0  0  0  0  0  0  0  0  0
   47.3410   14.5297   19.3325 H   0  0  0  0  0  0  0  0  0  0  0  0
   49.3656   10.8953   19.9762 H   0  0  0  0  0  0  0  0  0  0  0  0
   46.2920   11.3225   20.0257 H   0  0  0  0  0  0  0  0  0  0  0  0
   50.2384    8.8649   19.2790 H   0  0  0  0  0  0  0  0  0  0  0  0
   45.9886   10.2712   19.0402 H   0  0  0  0  0  0  0  0  0  0  0  0
   46.7516   13.0276   18.7494 H   0  0  0  0  0  0  0  0  0  0  0  0
   47.9257   13.1439   22.7073 H   0  0  0  0  0  0  0  0  0  0  0  0
   47.7113   10.1222   21.2720 H   0  0  0  0  0  0  0  0  0  0  0  0
   48.8572   11.9189   19.5132 H   0  0  0  0  0  0  0  0  0  0  0  0
   47.5728   10.3637   20.0910 H   0  0  0  0  0  0  0  0  0  0  0  0
   47.7210   11.8525   19.7847 H   0  0  0  0  0  0  0  0  0  0  0  0
  7  2  2  0
  2  3  1  0
  8  6  1  0
  8  9  1  0
  4  5  1  0
  5  6  2  0
  3  4  2  0
  9 10  1  0
 10 11  1  0
 11 12  1  0
  8 12  1  0
  6  7  1  0
  9 13  1  0
 20 15  2  0
 21 16  1  0
 22 17  1  0
 20 14  1  0
 22 23  1  0
 21 22  1  0
 23 19  1  0
 20 21  1  0
 23 18  2  0
 30 25  2  0
 31 26  1  0
 32 27  1  0
 30 24  1  0
 32 33  1  0
 31 32  1  0
 33 29  1  0
 30 31  1  0
 33 28  2  0
  1 35  1  0
  1 36  1  0
  2 37  1  0
  3 38  1  0
  5 39  1  0
  7 40  1  0
  8 41  1  1
 10 42  1  0
 10 43  1  0
 11 44  1  0
 11 45  1  0
 12 46  1  0
 12 47  1  0
 13 48  1  0
 13 49  1  0
 13 50  1  0
 14 51  1  0
 16 52  1  0
 17 53  1  0
 19 54  1  0
 21 55  1  1
 22 56  1  6
 24 57  1  0
 26 58  1  0
 27 59  1  0
 29 60  1  0
 31 61  1  1
 32 62  1  6
 34 63  1  0
 34 64  1  0
M  END
> <Uni-Dock RESULT> 
ENERGY=   -4.460  LOWER_BOUND=    7.934  UPPER_BOUND=    9.623
INTER + INTRA:          -4.460
INTER:                  -4.460
INTRA:                   0.000
UNBOUND:                 0.000

$$$$

     RDKit          3D

 64 61  0  0  0  0  0  0  0  0999 V2000
   48.5025    5.2401   18.5995 O   0  0  0  0  0  0  0  0  0  0  0  0
   47.9177    7.7781   20.7211 C   0  0  0  0  0  0  0  0  0  0  0  0
   47.8804    7.0794   21.9138 C   0  0  0  0  0  0  0  0  0  0  0  0
   47.7428    5.7398   21.9920 N   0  0  0  0  0  0  0  0  0  0  0  0
   47.6429    5.0673   20.8200 C   0  0  0  0  0  0  0  0  0  0  0  0
   47.6865    5.6613   19.5618 C   0  0  0  0  0  0  0  0  0  0  0  0
   47.8126    7.0578   19.5352 C   0  0  0  0  0  0  0  0  0  0  0  0
   47.5356    4.8876   18.2743 C   0  0  1  0  0  0  0  0  0  0  0  0
   48.5322    5.1858   17.2118 N   0  0  0  0  0  0  0  0  0  0  0  0
   48.2466    4.1735   16.1806 C   0  0  0  0  0  0  0  0  0  0  0  0
   47.8185    2.9103   16.9188 C   0  0  0  0  0  0  0  0  0  0  0  0
   47.5235    3.3578   18.3456 C   0  0  0  0  0  0  0  0  0  0  0  0
   49.9249    5.0727   17.6606 C   0  0  0  0  0  0  0  0  0  0  0  0
   49.0507    6.5378   20.7839 O   0  0  0  0  0  0  0  0  0  0  0  0
   47.5569    4.9723   21.3563 O   0  0  0  0  0  0  0  0  0  0  0  0
   48.4883    3.3788   19.3038 O   0  0  0  0  0  0  0  0  0  0  0  0
   47.7684    6.7905   18.0400 O   0  0  0  0  0  0  0  0  0  0  0  0
   48.6938    5.2599   15.9513 O   0  0  0  0  0  0  0  0  0  0  0  0
   47.2969    3.6135   16.5349 O   0  0  0  0  0  0  0  0  0  0  0  0
   48.3404    5.4206   20.5302 C   0  0  0  0  0  0  0  0  0  0  0  0
   48.6272    4.7986   19.1754 C   0  0  2  0  0  0  0  0  0  0  0  0
   47.6472    5.3639   18.1478 C   0  0  2  0  0  0  0  0  0  0  0  0
   47.9489    4.7625   16.7854 C   0  0  0  0  0  0  0  0  0  0  0  0
   50.0522    5.2693   20.2505 O   0  0  0  0  0  0  0  0  0  0  0  0
   48.3748    4.5589   21.5283 O   0  0  0  0  0  0  0  0  0  0  0  0
   46.4651    5.5361   19.6806 O   0  0  0  0  0  0  0  0  0  0  0  0
   47.2151    3.5322   18.1599 O   0  0  0  0  0  0  0  0  0  0  0  0
   47.2188    5.0855   15.8847 O   0  0  0  0  0  0  0  0  0  0  0  0
   48.6525    6.5709   16.7341 O   0  0  0  0  0  0  0  0  0  0  0  0
   48.7378    5.0676   20.4798 C   0  0  0  0  0  0  0  0  0  0  0  0
   47.8549    5.5539   19.3348 C   0  0  1  0  0  0  0  0  0  0  0  0
   48.1038    4.6672   18.1123 C   0  0  2  0  0  0  0  0  0  0  0  0
   47.9145    5.4522   16.8223 C   0  0  0  0  0  0  0  0  0  0  0  0
   48.5027    5.2387   18.5972 O   0  0  0  0  0  0  0  0  0  0  0  0
   47.8849    5.4209   19.3239 H   0  0  0  0  0  0  0  0  0  0  0  0
   48.0159    4.6319   18.0230 H   0  0  0  0  0  0  0  0  0  0  0  0
   48.0240    8.8564   20.7114 H   0  0  0  0  0  0  0  0  0  0  0  0
   47.9596    7.5939   22.8668 H   0  0  0  0  0  0  0  0  0  0  0  0
   47.5159    3.9961   20.9456 H   0  0  0  0  0  0  0  0  0  0  0  0
   47.8381    7.5830   18.5824 H   0  0  0  0  0  0  0  0  0  0  0  0
   46.5543    5.1932   17.8779 H   0  0  0  0  0  0  0  0  0  0  0  0
   49.0835    3.9956   15.4963 H   0  0  0  0  0  0  0  0  0  0  0  0
   47.4129    4.5334   15.5652 H   0  0  0  0  0  0  0  0  0  0  0  0
   46.9322    2.4677   16.4522 H   0  0  0  0  0  0  0  0  0  0  0  0
   48.6141    2.1571   16.9174 H   0  0  0  0  0  0  0  0  0  0  0  0
   46.5616    2.9702   18.6983 H   0  0  0  0  0  0  0  0  0  0  0  0
   48.3016    2.9687   19.0131 H   0  0  0  0  0  0  0  0  0  0  0  0
   50.1655    5.8362   18.4072 H   0  0  0  0  0  0  0  0  0  0  0  0
   50.1722    4.0919   18.0805 H   0  0  0  0  0  0  0  0  0  0  0  0
   50.6025    5.2562   16.8181 H   0  0  0  0  0  0  0  0  0  0  0  0
   48.7478    6.8281   21.6694 H   0  0  0  0  0  0  0  0  0  0  0  0
   47.6651    3.2137   19.8042 H   0  0  0  0  0  0  0  0  0  0  0  0
   48.5296    6.9693   17.4501 H   0  0  0  0  0  0  0  0  0  0  0  0
   47.5929    3.3473   15.6385 H   0  0  0  0  0  0  0  0  0  0  0  0
   49.6668    5.0030   18.9065 H   0  0  0  0  0  0  0  0  0  0  0  0
   46.6066    5.1418   18.4088 H   0  0  0  0  0  0  0  0  0  0  0  0
   50.4832    4.9537   21.0748 H   0  0  0  0  0  0  0  0  0  0  0  0
   46.2263    4.5865   19.7185 H   0  0  0  0  0  0  0  0  0  0  0  0
   46.9603    3.3416   17.2334 H   0  0  0  0  0  0  0  0  0  0  0  0
   48.4481    6.9359   15.8460 H   0  0  0  0  0  0  0  0  0  0  0  0
   48.1227    6.6036   19.1657 H   0  0  0  0  0  0  0  0  0  0  0  0
   49.1217    4.2670   18.0808 H   0  0  0  0  0  0  0  0  0  0  0  0
   47.8896    5.4235   19.3244 H   0  0  0  0  0  0  0  0  0  0  0  0
   48.0110    4.6308   18.0248 H   0  0  0  0  0  0  0  0  0  0  0  0
  7  2  2  0
  2  3  1  0
  8  6  1  0
  8  9  1  0
  4  5  1  0
  5  6  2  0
  3  4  2  0
  9 10  1  0
 10 11  1  0
 11 12  1  0
  8 12  1  0
  6  7  1  0
  9 13  1  0
 20 15  2  0
 21 16  1  0
 22 17  1  0
 20 14  1  0
 22 23  1  0
 21 22  1  0
 23 19  1  0
 20 21  1  0
 23 18  2  0
 30 25  2  0
 31 26  1  0
 32 27  1  0
 30 24  1  0
 32 33  1  0
 31 32  1  0
 33 29  1  0
 30 31  1  0
 33 28  2  0
  1 35  1  0
  1 36  1  0
  2 37  1  0
  3 38  1  0
  5 39  1  0
  7 40  1  0
  8 41  1  1
 10 42  1  0
 10 43  1  0
 11 44  1  0
 11 45  1  0
 12 46  1  0
 12 47  1  0
 13 48  1  0
 13 49  1  0
 13 50  1  0
 14 51  1  0
 16 52  1  0
 17 53  1  0
 19 54  1  0
 21 55  1  1
 22 56  1  6
 24 57  1  0
 26 58  1  0
 27 59  1  0
 29 60  1  0
 31 61  1  1
 32 62  1  6
 34 63  1  0
 34 64  1  0
M  END
> <Uni-Dock RESULT> 
ENERGY=   -4.445  LOWER_BOUND=    6.190  UPPER_BOUND=    8.221
INTER + INTRA:          -4.445
INTER:                  -4.445
INTRA:                   0.000
UNBOUND:                 0.000

$$$$

     RDKit          3D

 64 61  0  0  0  0  0  0  0  0999 V2000
   41.8483   11.2033   10.5650 O   0  0  0  0  0  0  0  0  0  0  0  0
   38.7478   10.0407   11.1310 C   0  0  0  0  0  0  0  0  0  0  0  0
   38.0550   11.2368   11.1688 C   0  0  0  0  0  0  0  0  0  0  0  0
   38.6473   12.4401   11.3132 N   0  0  0  0  0  0  0  0  0  0  0  0
   39.9980   12.4464   11.4196 C   0  0  0  0  0  0  0  0  0  0  0  0
   40.7994   11.3091   11.3763 C   0  0  0  0  0  0  0  0  0  0  0  0
   40.1342   10.0817   11.2429 C   0  0  0  0  0  0  0  0  0  0  0  0
   42.3003   11.3463   11.5345 C   0  0  1  0  0  0  0  0  0  0  0  0
   43.0822   10.5659   10.5390 N   0  0  0  0  0  0  0  0  0  0  0  0
   44.4772   10.9366   10.8327 C   0  0  0  0  0  0  0  0  0  0  0  0
   44.4563   12.3981   11.2655 C   0  0  0  0  0  0  0  0  0  0  0  0
   42.9930   12.7120   11.5544 C   0  0  0  0  0  0  0  0  0  0  0  0
   42.7543   10.8903    9.1459 C   0  0  0  0  0  0  0  0  0  0  0  0
   39.3107   11.1542   10.0043 O   0  0  0  0  0  0  0  0  0  0  0  0
   39.5780   12.7934   11.5048 O   0  0  0  0  0  0  0  0  0  0  0  0
   42.1539   13.1697   10.5870 O   0  0  0  0  0  0  0  0  0  0  0  0
   41.5664    9.5763   11.2924 O   0  0  0  0  0  0  0  0  0  0  0  0
   44.1427    9.8800   10.3804 O   0  0  0  0  0  0  0  0  0  0  0  0
   44.4407   11.5954   11.7844 O   0  0  0  0  0  0  0  0  0  0  0  0
   40.0791   11.9984   10.7211 C   0  0  0  0  0  0  0  0  0  0  0  0
   41.5657   11.8718   10.4411 C   0  0  2  0  0  0  0  0  0  0  0  0
   42.1759   10.8700   11.4208 C   0  0  2  0  0  0  0  0  0  0  0  0
   43.6591   10.7217   11.1257 C   0  0  0  0  0  0  0  0  0  0  0  0
   40.4053   11.9976    9.0109 O   0  0  0  0  0  0  0  0  0  0  0  0
   39.6363   13.2405   10.6886 O   0  0  0  0  0  0  0  0  0  0  0  0
   40.7520   11.4726   12.5979 O   0  0  0  0  0  0  0  0  0  0  0  0
   43.0671   12.4677   11.8623 O   0  0  0  0  0  0  0  0  0  0  0  0
   44.2796    9.9940   11.8565 O   0  0  0  0  0  0  0  0  0  0  0  0
   42.8148    9.1258   10.4128 O   0  0  0  0  0  0  0  0  0  0  0  0
   40.2990   12.2819   10.3257 C   0  0  0  0  0  0  0  0  0  0  0  0
   41.0507   11.2911   11.2090 C   0  0  1  0  0  0  0  0  0  0  0  0
   42.5527   11.4599   10.9679 C   0  0  2  0  0  0  0  0  0  0  0  0
   43.2865   10.1400   11.1564 C   0  0  0  0  0  0  0  0  0  0  0  0
   41.8509   11.2034   10.5647 O   0  0  0  0  0  0  0  0  0  0  0  0
   41.1259   11.4014   11.1797 H   0  0  0  0  0  0  0  0  0  0  0  0
   42.6474   11.4462   11.0562 H   0  0  0  0  0  0  0  0  0  0  0  0
   38.2247    9.0984   11.0190 H   0  0  0  0  0  0  0  0  0  0  0  0
   36.9725   11.2598   11.0845 H   0  0  0  0  0  0  0  0  0  0  0  0
   40.4167   13.4397   11.5519 H   0  0  0  0  0  0  0  0  0  0  0  0
   40.7039    9.1548   11.2171 H   0  0  0  0  0  0  0  0  0  0  0  0
   42.4897   10.8817   12.5152 H   0  0  0  0  0  0  0  0  0  0  0  0
   45.1642   10.7564    9.9985 H   0  0  0  0  0  0  0  0  0  0  0  0
   44.8309   10.3171   11.6661 H   0  0  0  0  0  0  0  0  0  0  0  0
   45.0762   12.5500   12.1552 H   0  0  0  0  0  0  0  0  0  0  0  0
   44.8330   13.0552   10.4737 H   0  0  0  0  0  0  0  0  0  0  0  0
   42.8729   13.2200   12.5174 H   0  0  0  0  0  0  0  0  0  0  0  0
   42.6082   13.3823   10.7766 H   0  0  0  0  0  0  0  0  0  0  0  0
   41.7293   10.5953    8.8993 H   0  0  0  0  0  0  0  0  0  0  0  0
   42.8743   11.9514    8.9026 H   0  0  0  0  0  0  0  0  0  0  0  0
   43.3998   10.3172    8.4695 H   0  0  0  0  0  0  0  0  0  0  0  0
   38.3957   11.3376   10.3033 H   0  0  0  0  0  0  0  0  0  0  0  0
   41.7962   13.5575   11.4098 H   0  0  0  0  0  0  0  0  0  0  0  0
   41.9949    9.1322   10.5318 H   0  0  0  0  0  0  0  0  0  0  0  0
   45.3532   11.3856   11.4921 H   0  0  0  0  0  0  0  0  0  0  0  0
   41.7038   11.5648    9.4011 H   0  0  0  0  0  0  0  0  0  0  0  0
   42.0535   11.1885   12.4618 H   0  0  0  0  0  0  0  0  0  0  0  0
   39.8461   12.6802    8.5793 H   0  0  0  0  0  0  0  0  0  0  0  0
   41.1864   12.3165   12.8416 H   0  0  0  0  0  0  0  0  0  0  0  0
   43.9658   12.1754   12.1205 H   0  0  0  0  0  0  0  0  0  0  0  0
   43.4062    8.3695   10.6176 H   0  0  0  0  0  0  0  0  0  0  0  0
   40.6812   10.2955   10.9361 H   0  0  0  0  0  0  0  0  0  0  0  0
   42.7824   11.7957    9.9522 H   0  0  0  0  0  0  0  0  0  0  0  0
   41.1242   11.3995   11.1750 H   0  0  0  0  0  0  0  0  0  0  0  0
   42.6463   11.4480   11.0611 H   0  0  0  0  0  0  0  0  0  0  0  0
  7  2  2  0
  2  3  1  0
  8  6  1  0
  8  9  1  0
  4  5  1  0
  5  6  2  0
  3  4  2  0
  9 10  1  0
 10 11  1  0
 11 12  1  0
  8 12  1  0
  6  7  1  0
  9 13  1  0
 20 15  2  0
 21 16  1  0
 22 17  1  0
 20 14  1  0
 22 23  1  0
 21 22  1  0
 23 19  1  0
 20 21  1  0
 23 18  2  0
 30 25  2  0
 31 26  1  0
 32 27  1  0
 30 24  1  0
 32 33  1  0
 31 32  1  0
 33 29  1  0
 30 31  1  0
 33 28  2  0
  1 35  1  0
  1 36  1  0
  2 37  1  0
  3 38  1  0
  5 39  1  0
  7 40  1  0
  8 41  1  1
 10 42  1  0
 10 43  1  0
 11 44  1  0
 11 45  1  0
 12 46  1  0
 12 47  1  0
 13 48  1  0
 13 49  1  0
 13 50  1  0
 14 51  1  0
 16 52  1  0
 17 53  1  0
 19 54  1  0
 21 55  1  1
 22 56  1  6
 24 57  1  0
 26 58  1  0
 27 59  1  0
 29 60  1  0
 31 61  1  1
 32 62  1  6
 34 63  1  0
 34 64  1  0
M  END
> <Uni-Dock RESULT> 
ENERGY=   -4.404  LOWER_BOUND=    5.114  UPPER_BOUND=    6.622
INTER + INTRA:          -4.404
INTER:                  -4.404
INTRA:                   0.000
UNBOUND:                 0.000

$$$$

     RDKit          3D

 64 61  0  0  0  0  0  0  0  0999 V2000
   45.6584    5.2793   12.1123 O   0  0  0  0  0  0  0  0  0  0  0  0
   48.4944    7.0768   12.2174 C   0  0  0  0  0  0  0  0  0  0  0  0
   48.8305    6.9019   13.5474 C   0  0  0  0  0  0  0  0  0  0  0  0
   47.9707    6.4495   14.4830 N   0  0  0  0  0  0  0  0  0  0  0  0
   46.7160    6.1530   14.0662 C   0  0  0  0  0  0  0  0  0  0  0  0
   46.2711    6.2714   12.7525 C   0  0  0  0  0  0  0  0  0  0  0  0
   47.1978    6.7631   11.8218 C   0  0  0  0  0  0  0  0  0  0  0  0
   44.8550    5.9674   12.3265 C   0  0  1  0  0  0  0  0  0  0  0  0
   44.7048    5.1179   11.1153 N   0  0  0  0  0  0  0  0  0  0  0  0
   43.2571    4.8517   11.0612 C   0  0  0  0  0  0  0  0  0  0  0  0
   42.7807    4.7458   12.5054 C   0  0  0  0  0  0  0  0  0  0  0  0
   43.9149    5.3192   13.3469 C   0  0  0  0  0  0  0  0  0  0  0  0
   45.4499    3.8554   11.1840 C   0  0  0  0  0  0  0  0  0  0  0  0
   48.1598    5.5263   12.7745 O   0  0  0  0  0  0  0  0  0  0  0  0
   46.9823    6.2318   14.5425 O   0  0  0  0  0  0  0  0  0  0  0  0
   44.9286    4.5395   13.8096 O   0  0  0  0  0  0  0  0  0  0  0  0
   46.0077    6.5669   10.8975 O   0  0  0  0  0  0  0  0  0  0  0  0
   43.9679    4.9043   10.0995 O   0  0  0  0  0  0  0  0  0  0  0  0
   42.7819    5.4886   11.9036 O   0  0  0  0  0  0  0  0  0  0  0  0
   47.0079    5.6577   13.4622 C   0  0  0  0  0  0  0  0  0  0  0  0
   45.8068    5.0217   12.7859 C   0  0  2  0  0  0  0  0  0  0  0  0
   45.1179    6.0642   11.9060 C   0  0  2  0  0  0  0  0  0  0  0  0
   43.9304    5.4231   11.2074 C   0  0  0  0  0  0  0  0  0  0  0  0
   47.3587    4.0340   12.9409 O   0  0  0  0  0  0  0  0  0  0  0  0
   47.1355    5.3322   14.7341 O   0  0  0  0  0  0  0  0  0  0  0  0
   45.8168    7.3221   13.2120 O   0  0  0  0  0  0  0  0  0  0  0  0
   43.7880    5.6566   13.1738 O   0  0  0  0  0  0  0  0  0  0  0  0
   43.2635    6.1464   10.5140 O   0  0  0  0  0  0  0  0  0  0  0  0
   45.3198    5.5739    9.8603 O   0  0  0  0  0  0  0  0  0  0  0  0
   46.8947    5.1437   13.5524 C   0  0  0  0  0  0  0  0  0  0  0  0
   46.1124    6.0554   12.6124 C   0  0  1  0  0  0  0  0  0  0  0  0
   44.8157    5.3489   12.2097 C   0  0  2  0  0  0  0  0  0  0  0  0
   44.3858    5.7567   10.8079 C   0  0  0  0  0  0  0  0  0  0  0  0
   45.6561    5.2783   12.1115 O   0  0  0  0  0  0  0  0  0  0  0  0
   46.0308    5.9699   12.6810 H   0  0  0  0  0  0  0  0  0  0  0  0
   44.7006    5.4054   12.1871 H   0  0  0  0  0  0  0  0  0  0  0  0
   49.2206    7.4492   11.5047 H   0  0  0  0  0  0  0  0  0  0  0  0
   49.8292    7.1309   13.9072 H   0  0  0  0  0  0  0  0  0  0  0  0
   46.0644    5.8114   14.8650 H   0  0  0  0  0  0  0  0  0  0  0  0
   46.9065    6.8922   10.7812 H   0  0  0  0  0  0  0  0  0  0  0  0
   44.4215    6.9487   12.0764 H   0  0  0  0  0  0  0  0  0  0  0  0
   42.9949    3.9688   10.4678 H   0  0  0  0  0  0  0  0  0  0  0  0
   42.7666    5.7067   10.5799 H   0  0  0  0  0  0  0  0  0  0  0  0
   41.8546    5.3111   12.6527 H   0  0  0  0  0  0  0  0  0  0  0  0
   42.5909    3.7046   12.7887 H   0  0  0  0  0  0  0  0  0  0  0  0
   43.5449    6.0417   14.0823 H   0  0  0  0  0  0  0  0  0  0  0  0
   44.4008    4.5054   13.8984 H   0  0  0  0  0  0  0  0  0  0  0  0
   46.5303    4.0312   11.1957 H   0  0  0  0  0  0  0  0  0  0  0  0
   45.1924    3.2409   12.0532 H   0  0  0  0  0  0  0  0  0  0  0  0
   45.2549    3.2599   10.2840 H   0  0  0  0  0  0  0  0  0  0  0  0
   48.8273    5.9951   13.3175 H   0  0  0  0  0  0  0  0  0  0  0  0
   44.8521    5.2462   14.4804 H   0  0  0  0  0  0  0  0  0  0  0  0
   46.0101    5.9145   10.1668 H   0  0  0  0  0  0  0  0  0  0  0  0
   42.1201    5.0357   11.3390 H   0  0  0  0  0  0  0  0  0  0  0  0
   46.1439    4.1564   12.2094 H   0  0  0  0  0  0  0  0  0  0  0  0
   44.7637    6.9220   12.4881 H   0  0  0  0  0  0  0  0  0  0  0  0
   47.8682    3.5761   13.6450 H   0  0  0  0  0  0  0  0  0  0  0  0
   45.1431    7.1267   13.8962 H   0  0  0  0  0  0  0  0  0  0  0  0
   42.9501    5.7282   12.6713 H   0  0  0  0  0  0  0  0  0  0  0  0
   44.8836    5.8447    9.0236 H   0  0  0  0  0  0  0  0  0  0  0  0
   46.7734    6.2579   11.7612 H   0  0  0  0  0  0  0  0  0  0  0  0
   44.9153    4.2594   12.1948 H   0  0  0  0  0  0  0  0  0  0  0  0
   46.0345    5.9669   12.6786 H   0  0  0  0  0  0  0  0  0  0  0  0
   44.6993    5.4094   12.1903 H   0  0  0  0  0  0  0  0  0  0  0  0
  7  2  2  0
  2  3  1  0
  8  6  1  0
  8  9  1  0
  4  5  1  0
  5  6  2  0
  3  4  2  0
  9 10  1  0
 10 11  1  0
 11 12  1  0
  8 12  1  0
  6  7  1  0
  9 13  1  0
 20 15  2  0
 21 16  1  0
 22 17  1  0
 20 14  1  0
 22 23  1  0
 21 22  1  0
 23 19  1  0
 20 21  1  0
 23 18  2  0
 30 25  2  0
 31 26  1  0
 32 27  1  0
 30 24  1  0
 32 33  1  0
 31 32  1  0
 33 29  1  0
 30 31  1  0
 33 28  2  0
  1 35  1  0
  1 36  1  0
  2 37  1  0
  3 38  1  0
  5 39  1  0
  7 40  1  0
  8 41  1  1
 10 42  1  0
 10 43  1  0
 11 44  1  0
 11 45  1  0
 12 46  1  0
 12 47  1  0
 13 48  1  0
 13 49  1  0
 13 50  1  0
 14 51  1  0
 16 52  1  0
 17 53  1  0
 19 54  1  0
 21 55  1  1
 22 56  1  6
 24 57  1  0
 26 58  1  0
 27 59  1  0
 29 60  1  0
 31 61  1  1
 32 62  1  6
 34 63  1  0
 34 64  1  0
M  END
> <Uni-Dock RESULT> 
ENERGY=   -4.322  LOWER_BOUND=    1.385  UPPER_BOUND=    4.001
INTER + INTRA:          -4.322
INTER:                  -4.322
INTRA:                   0.000
UNBOUND:                 0.000

$$$$

     RDKit          3D

 64 61  0  0  0  0  0  0  0  0999 V2000
   41.6068   11.8727   10.5567 O   0  0  0  0  0  0  0  0  0  0  0  0
   38.3946   12.8254   10.3136 C   0  0  0  0  0  0  0  0  0  0  0  0
   37.9384   12.4213   11.5549 C   0  0  0  0  0  0  0  0  0  0  0  0
   38.6051   11.5630   12.3539 N   0  0  0  0  0  0  0  0  0  0  0  0
   39.7875   11.0910   11.8902 C   0  0  0  0  0  0  0  0  0  0  0  0
   40.3534   11.4412   10.6676 C   0  0  0  0  0  0  0  0  0  0  0  0
   39.6124   12.3222    9.8666 C   0  0  0  0  0  0  0  0  0  0  0  0
   41.6561   10.8690   10.1631 C   0  0  1  0  0  0  0  0  0  0  0  0
   42.6354   11.8494    9.6234 N   0  0  0  0  0  0  0  0  0  0  0  0
   43.8407   11.0359    9.3891 C   0  0  0  0  0  0  0  0  0  0  0  0
   43.8785    9.9872   10.4949 C   0  0  0  0  0  0  0  0  0  0  0  0
   42.4882   10.0092   11.1190 C   0  0  0  0  0  0  0  0  0  0  0  0
   42.9383   12.9497   10.5461 C   0  0  0  0  0  0  0  0  0  0  0  0
   39.5220   13.0782   11.5348 O   0  0  0  0  0  0  0  0  0  0  0  0
   39.4275   10.9736   12.2910 O   0  0  0  0  0  0  0  0  0  0  0  0
   42.1810   10.8351   12.1549 O   0  0  0  0  0  0  0  0  0  0  0  0
   40.8114   12.1176    8.9557 O   0  0  0  0  0  0  0  0  0  0  0  0
   43.5517   12.0086    8.7543 O   0  0  0  0  0  0  0  0  0  0  0  0
   43.5349    9.9398    9.6041 O   0  0  0  0  0  0  0  0  0  0  0  0
   40.0667   11.8633   11.7460 C   0  0  0  0  0  0  0  0  0  0  0  0
   41.5038   11.7383   11.2732 C   0  0  2  0  0  0  0  0  0  0  0  0
   41.5141   11.2250    9.8337 C   0  0  2  0  0  0  0  0  0  0  0  0
   42.9508   11.1238    9.3491 C   0  0  0  0  0  0  0  0  0  0  0  0
   41.0364   13.1981   12.3020 O   0  0  0  0  0  0  0  0  0  0  0  0
   39.8717   11.4257   12.9749 O   0  0  0  0  0  0  0  0  0  0  0  0
   39.8542   10.3582   10.3528 O   0  0  0  0  0  0  0  0  0  0  0  0
   42.3958    9.8476   10.7650 O   0  0  0  0  0  0  0  0  0  0  0  0
   43.1114   10.6850    8.2399 O   0  0  0  0  0  0  0  0  0  0  0  0
   42.2188   12.7134    8.5093 O   0  0  0  0  0  0  0  0  0  0  0  0
   40.4659   11.9966   12.0745 C   0  0  0  0  0  0  0  0  0  0  0  0
   40.6442   11.5186   10.6369 C   0  0  1  0  0  0  0  0  0  0  0  0
   42.1259   11.2166   10.4002 C   0  0  2  0  0  0  0  0  0  0  0  0
   42.5107   11.4791    8.9513 C   0  0  0  0  0  0  0  0  0  0  0  0
   41.6093   11.8721   10.5560 O   0  0  0  0  0  0  0  0  0  0  0  0
   40.7410   11.4694   10.7200 H   0  0  0  0  0  0  0  0  0  0  0  0
   42.1746   11.1228   10.3242 H   0  0  0  0  0  0  0  0  0  0  0  0
   37.8183   13.5133    9.7063 H   0  0  0  0  0  0  0  0  0  0  0  0
   36.9948   12.7854   11.9504 H   0  0  0  0  0  0  0  0  0  0  0  0
   40.2691   10.3914   12.5669 H   0  0  0  0  0  0  0  0  0  0  0  0
   39.9943   12.6232    8.8929 H   0  0  0  0  0  0  0  0  0  0  0  0
   41.3686   10.2184    9.3220 H   0  0  0  0  0  0  0  0  0  0  0  0
   44.7638   11.6236    9.3373 H   0  0  0  0  0  0  0  0  0  0  0  0
   43.7360   10.5352    8.4186 H   0  0  0  0  0  0  0  0  0  0  0  0
   44.1128    8.9985   10.0865 H   0  0  0  0  0  0  0  0  0  0  0  0
   44.6342   10.2295   11.2503 H   0  0  0  0  0  0  0  0  0  0  0  0
   42.0787    8.9989   11.2255 H   0  0  0  0  0  0  0  0  0  0  0  0
   42.5508   10.4481   12.1219 H   0  0  0  0  0  0  0  0  0  0  0  0
   42.0613   13.5838   10.7106 H   0  0  0  0  0  0  0  0  0  0  0  0
   43.3080   12.6152   11.5212 H   0  0  0  0  0  0  0  0  0  0  0  0
   43.7005   13.6039   10.1061 H   0  0  0  0  0  0  0  0  0  0  0  0
   38.6039   12.9993   11.8682 H   0  0  0  0  0  0  0  0  0  0  0  0
   41.5929   10.0656   12.2867 H   0  0  0  0  0  0  0  0  0  0  0  0
   41.4303   12.8420    8.7287 H   0  0  0  0  0  0  0  0  0  0  0  0
   44.4439   10.0262    9.2459 H   0  0  0  0  0  0  0  0  0  0  0  0
   41.9912   12.7124   11.3649 H   0  0  0  0  0  0  0  0  0  0  0  0
   41.0423   10.2401    9.7466 H   0  0  0  0  0  0  0  0  0  0  0  0
   40.8063   13.3915   13.2372 H   0  0  0  0  0  0  0  0  0  0  0  0
   40.2828    9.6321   10.8521 H   0  0  0  0  0  0  0  0  0  0  0  0
   43.0625    9.5179   10.1273 H   0  0  0  0  0  0  0  0  0  0  0  0
   42.5560   12.7351    7.5875 H   0  0  0  0  0  0  0  0  0  0  0  0
   40.2621   12.3226    9.9968 H   0  0  0  0  0  0  0  0  0  0  0  0
   42.7867   11.8396   11.0104 H   0  0  0  0  0  0  0  0  0  0  0  0
   40.7410   11.4747   10.7206 H   0  0  0  0  0  0  0  0  0  0  0  0
   42.1720   11.1182   10.3243 H   0  0  0  0  0  0  0  0  0  0  0  0
  7  2  2  0
  2  3  1  0
  8  6  1  0
  8  9  1  0
  4  5  1  0
  5  6  2  0
  3  4  2  0
  9 10  1  0
 10 11  1  0
 11 12  1  0
  8 12  1  0
  6  7  1  0
  9 13  1  0
 20 15  2  0
 21 16  1  0
 22 17  1  0
 20 14  1  0
 22 23  1  0
 21 22  1  0
 23 19  1  0
 20 21  1  0
 23 18  2  0
 30 25  2  0
 31 26  1  0
 32 27  1  0
 30 24  1  0
 32 33  1  0
 31 32  1  0
 33 29  1  0
 30 31  1  0
 33 28  2  0
  1 35  1  0
  1 36  1  0
  2 37  1  0
  3 38  1  0
  5 39  1  0
  7 40  1  0
  8 41  1  1
 10 42  1  0
 10 43  1  0
 11 44  1  0
 11 45  1  0
 12 46  1  0
 12 47  1  0
 13 48  1  0
 13 49  1  0
 13 50  1  0
 14 51  1  0
 16 52  1  0
 17 53  1  0
 19 54  1  0
 21 55  1  1
 22 56  1  6
 24 57  1  0
 26 58  1  0
 27 59  1  0
 29 60  1  0
 31 61  1  1
 32 62  1  6
 34 63  1  0
 34 64  1  0
M  END
> <Uni-Dock RESULT> 
ENERGY=   -4.081  LOWER_BOUND=    5.519  UPPER_BOUND=    7.405
INTER + INTRA:          -4.081
INTER:                  -4.081
INTRA:                   0.000
UNBOUND:                 0.000

$$$$
