
     RDKit          3D

 64 61  0  0  0  0  0  0  0  0999 V2000
   44.4448    4.6369   10.8018 O   0  0  0  0  0  0  0  0  0  0  0  0
   45.1469    2.8202    7.8102 C   0  0  0  0  0  0  0  0  0  0  0  0
   45.9427    3.9093    7.4945 C   0  0  0  0  0  0  0  0  0  0  0  0
   46.1121    4.9751    8.3048 N   0  0  0  0  0  0  0  0  0  0  0  0
   45.4565    4.9461    9.4905 C   0  0  0  0  0  0  0  0  0  0  0  0
   44.6405    3.8988    9.9146 C   0  0  0  0  0  0  0  0  0  0  0  0
   44.4845    2.8198    9.0350 C   0  0  0  0  0  0  0  0  0  0  0  0
   43.9058    3.9356   11.2322 C   0  0  1  0  0  0  0  0  0  0  0  0
   44.6849    4.5283   12.3357 N   0  0  0  0  0  0  0  0  0  0  0  0
   43.6986    5.0256   13.2951 C   0  0  0  0  0  0  0  0  0  0  0  0
   42.6893    5.7017   12.3864 C   0  0  0  0  0  0  0  0  0  0  0  0
   42.6354    4.7989   11.1584 C   0  0  0  0  0  0  0  0  0  0  0  0
   45.6132    3.5839   12.9478 C   0  0  0  0  0  0  0  0  0  0  0  0
   44.0403    3.9905    8.3969 O   0  0  0  0  0  0  0  0  0  0  0  0
   46.2626    4.1668    8.6028 O   0  0  0  0  0  0  0  0  0  0  0  0
   43.6607    5.7043   10.3702 O   0  0  0  0  0  0  0  0  0  0  0  0
   45.8218    2.9335   11.5653 O   0  0  0  0  0  0  0  0  0  0  0  0
   45.0587    4.4568   13.7166 O   0  0  0  0  0  0  0  0  0  0  0  0
   42.9416    4.4571   12.9951 O   0  0  0  0  0  0  0  0  0  0  0  0
   45.1573    4.3211    9.0947 C   0  0  0  0  0  0  0  0  0  0  0  0
   44.8268    4.8758   10.4734 C   0  0  2  0  0  0  0  0  0  0  0  0
   44.6226    3.7114   11.4422 C   0  0  2  0  0  0  0  0  0  0  0  0
   44.2583    4.2490   12.8158 C   0  0  0  0  0  0  0  0  0  0  0  0
   44.2326    2.3583    9.2571 O   0  0  0  0  0  0  0  0  0  0  0  0
   45.5319    4.1708    9.1308 O   0  0  0  0  0  0  0  0  0  0  0  0
   43.6360    2.6459   11.7782 O   0  0  0  0  0  0  0  0  0  0  0  0
   46.1933    5.1150   12.2821 O   0  0  0  0  0  0  0  0  0  0  0  0
   44.6064    6.9852   11.0598 O   0  0  0  0  0  0  0  0  0  0  0  0
   43.0149    5.5020   10.5774 O   0  0  0  0  0  0  0  0  0  0  0  0
   44.9109    3.3868    9.8261 C   0  0  0  0  0  0  0  0  0  0  0  0
   44.8137    3.3526   11.3518 C   0  0  1  0  0  0  0  0  0  0  0  0
   44.8341    4.7439   11.9874 C   0  0  2  0  0  0  0  0  0  0  0  0
   44.1791    5.8421   11.1558 C   0  0  0  0  0  0  0  0  0  0  0  0
   44.4316    4.6498   10.8609 O   0  0  0  0  0  0  0  0  0  0  0  0
   44.4195    4.3068   11.7125 H   0  0  0  0  0  0  0  0  0  0  0  0
   44.7759    3.8846   10.2886 H   0  0  0  0  0  0  0  0  0  0  0  0
   45.0466    1.9893    7.1204 H   0  0  0  0  0  0  0  0  0  0  0  0
   46.4820    3.9560    6.5525 H   0  0  0  0  0  0  0  0  0  0  0  0
   45.6084    5.8269   10.1127 H   0  0  0  0  0  0  0  0  0  0  0  0
   43.8481    1.9783    9.2983 H   0  0  0  0  0  0  0  0  0  0  0  0
   43.6030    2.9134   11.5082 H   0  0  0  0  0  0  0  0  0  0  0  0
   44.1358    5.7323   14.0088 H   0  0  0  0  0  0  0  0  0  0  0  0
   43.2208    4.2070   13.8504 H   0  0  0  0  0  0  0  0  0  0  0  0
   41.7064    5.8157   12.8598 H   0  0  0  0  0  0  0  0  0  0  0  0
   43.0475    6.7014   12.0964 H   0  0  0  0  0  0  0  0  0  0  0  0
   41.7482    4.1551   11.2101 H   0  0  0  0  0  0  0  0  0  0  0  0
   42.5575    5.4019   10.2459 H   0  0  0  0  0  0  0  0  0  0  0  0
   46.3579    3.2418   12.2203 H   0  0  0  0  0  0  0  0  0  0  0  0
   45.0987    2.7037   13.3532 H   0  0  0  0  0  0  0  0  0  0  0  0
   46.1656    4.0663   13.7626 H   0  0  0  0  0  0  0  0  0  0  0  0
   44.3954    3.6635    7.5430 H   0  0  0  0  0  0  0  0  0  0  0  0
   43.0162    5.2006    9.8279 H   0  0  0  0  0  0  0  0  0  0  0  0
   46.3340    3.3105   12.3106 H   0  0  0  0  0  0  0  0  0  0  0  0
   42.8647    4.8248   13.9003 H   0  0  0  0  0  0  0  0  0  0  0  0
   45.6585    5.5180   10.7851 H   0  0  0  0  0  0  0  0  0  0  0  0
   43.8281    3.0334   11.1090 H   0  0  0  0  0  0  0  0  0  0  0  0
   44.3852    2.4761    8.2947 H   0  0  0  0  0  0  0  0  0  0  0  0
   43.5082    1.9316   11.1206 H   0  0  0  0  0  0  0  0  0  0  0  0
   46.2067    6.0916   12.3402 H   0  0  0  0  0  0  0  0  0  0  0  0
   42.7171    6.3246   10.1346 H   0  0  0  0  0  0  0  0  0  0  0  0
   45.6701    2.7649   11.7033 H   0  0  0  0  0  0  0  0  0  0  0  0
   44.3074    4.7255   12.9494 H   0  0  0  0  0  0  0  0  0  0  0  0
   44.7501    3.9880   10.2277 H   0  0  0  0  0  0  0  0  0  0  0  0
   44.4585    4.1904   11.7144 H   0  0  0  0  0  0  0  0  0  0  0  0
  7  2  2  0
  2  3  1  0
  8  6  1  0
  8  9  1  0
  4  5  1  0
  5  6  2  0
  3  4  2  0
  9 10  1  0
 10 11  1  0
 11 12  1  0
  8 12  1  0
  6  7  1  0
  9 13  1  0
 20 15  2  0
 21 16  1  0
 22 17  1  0
 20 14  1  0
 22 23  1  0
 21 22  1  0
 23 19  1  0
 20 21  1  0
 23 18  2  0
 30 25  2  0
 31 26  1  0
 32 27  1  0
 30 24  1  0
 32 33  1  0
 31 32  1  0
 33 29  1  0
 30 31  1  0
 33 28  2  0
  1 35  1  0
  1 36  1  0
  2 37  1  0
  3 38  1  0
  5 39  1  0
  7 40  1  0
  8 41  1  6
 10 42  1  0
 10 43  1  0
 11 44  1  0
 11 45  1  0
 12 46  1  0
 12 47  1  0
 13 48  1  0
 13 49  1  0
 13 50  1  0
 14 51  1  0
 16 52  1  0
 17 53  1  0
 19 54  1  0
 21 55  1  1
 22 56  1  6
 24 57  1  0
 26 58  1  0
 27 59  1  0
 29 60  1  0
 31 61  1  1
 32 62  1  6
 34 63  1  0
 34 64  1  0
M  END
> <Uni-Dock RESULT> 
ENERGY=   -7.700  LOWER_BOUND=    0.000  UPPER_BOUND=    0.000
INTER + INTRA:          -7.700
INTER:                  -7.700
INTRA:                   0.000
UNBOUND:                 0.000

$$$$

     RDKit          3D

 64 61  0  0  0  0  0  0  0  0999 V2000
   44.5593    4.0518   11.1246 O   0  0  0  0  0  0  0  0  0  0  0  0
   45.6370    3.7444    7.7353 C   0  0  0  0  0  0  0  0  0  0  0  0
   45.0092    2.5106    7.7879 C   0  0  0  0  0  0  0  0  0  0  0  0
   44.3541    2.0475    8.8730 N   0  0  0  0  0  0  0  0  0  0  0  0
   44.3221    2.8617    9.9559 C   0  0  0  0  0  0  0  0  0  0  0  0
   44.9086    4.1249   10.0098 C   0  0  0  0  0  0  0  0  0  0  0  0
   45.5885    4.5582    8.8643 C   0  0  0  0  0  0  0  0  0  0  0  0
   44.8719    4.9752   11.2559 C   0  0  1  0  0  0  0  0  0  0  0  0
   43.5905    4.9148   11.9843 N   0  0  0  0  0  0  0  0  0  0  0  0
   43.9065    5.2558   13.3715 C   0  0  0  0  0  0  0  0  0  0  0  0
   45.1665    4.4467   13.6149 C   0  0  0  0  0  0  0  0  0  0  0  0
   45.9175    4.5256   12.2899 C   0  0  0  0  0  0  0  0  0  0  0  0
   42.5751    5.7990   11.4229 C   0  0  0  0  0  0  0  0  0  0  0  0
   46.1800    3.3664    9.3167 O   0  0  0  0  0  0  0  0  0  0  0  0
   44.1516    2.8288    8.5364 O   0  0  0  0  0  0  0  0  0  0  0  0
   45.3484    3.1327   11.8125 O   0  0  0  0  0  0  0  0  0  0  0  0
   43.1546    5.5303   10.0195 O   0  0  0  0  0  0  0  0  0  0  0  0
   42.5806    5.6345   12.7009 O   0  0  0  0  0  0  0  0  0  0  0  0
   44.7617    5.7262   13.1881 O   0  0  0  0  0  0  0  0  0  0  0  0
   44.8379    3.2217    9.4648 C   0  0  0  0  0  0  0  0  0  0  0  0
   44.3741    3.5937   10.8663 C   0  0  2  0  0  0  0  0  0  0  0  0
   44.1720    5.1070   10.9382 C   0  0  2  0  0  0  0  0  0  0  0  0
   43.7414    5.4978   12.3418 C   0  0  0  0  0  0  0  0  0  0  0  0
   45.7367    5.1093    8.8623 O   0  0  0  0  0  0  0  0  0  0  0  0
   44.5124    3.2776    9.2300 O   0  0  0  0  0  0  0  0  0  0  0  0
   44.9511    6.3762   11.0006 O   0  0  0  0  0  0  0  0  0  0  0  0
   42.2667    4.0672   11.5949 O   0  0  0  0  0  0  0  0  0  0  0  0
   44.0670    2.2534   12.5842 O   0  0  0  0  0  0  0  0  0  0  0  0
   45.8176    3.5557   12.1316 O   0  0  0  0  0  0  0  0  0  0  0  0
   44.7698    4.4299    9.5294 C   0  0  0  0  0  0  0  0  0  0  0  0
   44.0877    5.3051   10.5816 C   0  0  1  0  0  0  0  0  0  0  0  0
   43.6174    4.5178   11.8060 C   0  0  2  0  0  0  0  0  0  0  0  0
   44.4943    3.3281   12.1831 C   0  0  0  0  0  0  0  0  0  0  0  0
   44.5396    4.0763   11.1779 O   0  0  0  0  0  0  0  0  0  0  0  0
   44.1535    4.8175   11.5583 H   0  0  0  0  0  0  0  0  0  0  0  0
   44.6053    4.3079   10.1912 H   0  0  0  0  0  0  0  0  0  0  0  0
   46.1498    4.0669    6.8357 H   0  0  0  0  0  0  0  0  0  0  0  0
   45.0165    1.8404    6.9328 H   0  0  0  0  0  0  0  0  0  0  0  0
   43.7943    2.4505   10.8152 H   0  0  0  0  0  0  0  0  0  0  0  0
   46.0823    5.5268    8.8466 H   0  0  0  0  0  0  0  0  0  0  0  0
   45.0901    6.0210   10.9889 H   0  0  0  0  0  0  0  0  0  0  0  0
   43.1042    4.9702   14.0605 H   0  0  0  0  0  0  0  0  0  0  0  0
   44.1147    6.3278   13.4909 H   0  0  0  0  0  0  0  0  0  0  0  0
   45.7609    4.8344   14.4514 H   0  0  0  0  0  0  0  0  0  0  0  0
   44.9100    3.3989   13.8341 H   0  0  0  0  0  0  0  0  0  0  0  0
   46.7144    5.2769   12.3595 H   0  0  0  0  0  0  0  0  0  0  0  0
   46.3868    3.5616   12.0605 H   0  0  0  0  0  0  0  0  0  0  0  0
   42.3349    5.5129   10.3927 H   0  0  0  0  0  0  0  0  0  0  0  0
   42.8962    6.8482   11.4225 H   0  0  0  0  0  0  0  0  0  0  0  0
   41.6443    5.7235   11.9972 H   0  0  0  0  0  0  0  0  0  0  0  0
   46.3365    3.0882    8.3891 H   0  0  0  0  0  0  0  0  0  0  0  0
   46.2228    3.3940   11.4517 H   0  0  0  0  0  0  0  0  0  0  0  0
   42.3033    5.5116   10.5043 H   0  0  0  0  0  0  0  0  0  0  0  0
   44.3365    5.9357   14.0459 H   0  0  0  0  0  0  0  0  0  0  0  0
   43.4419    3.0530   11.0660 H   0  0  0  0  0  0  0  0  0  0  0  0
   45.0866    5.6567   10.6861 H   0  0  0  0  0  0  0  0  0  0  0  0
   46.0795    4.4586    8.2124 H   0  0  0  0  0  0  0  0  0  0  0  0
   45.4602    6.6279   10.2027 H   0  0  0  0  0  0  0  0  0  0  0  0
   42.1330    3.3049   12.1935 H   0  0  0  0  0  0  0  0  0  0  0  0
   46.2180    2.7180   12.4466 H   0  0  0  0  0  0  0  0  0  0  0  0
   43.2313    5.7760   10.0844 H   0  0  0  0  0  0  0  0  0  0  0  0
   43.5866    5.1731   12.6852 H   0  0  0  0  0  0  0  0  0  0  0  0
   44.6483    4.1971   10.2219 H   0  0  0  0  0  0  0  0  0  0  0  0
   44.1301    4.9039   11.4742 H   0  0  0  0  0  0  0  0  0  0  0  0
  7  2  2  0
  2  3  1  0
  8  6  1  0
  8  9  1  0
  4  5  1  0
  5  6  2  0
  3  4  2  0
  9 10  1  0
 10 11  1  0
 11 12  1  0
  8 12  1  0
  6  7  1  0
  9 13  1  0
 20 15  2  0
 21 16  1  0
 22 17  1  0
 20 14  1  0
 22 23  1  0
 21 22  1  0
 23 19  1  0
 20 21  1  0
 23 18  2  0
 30 25  2  0
 31 26  1  0
 32 27  1  0
 30 24  1  0
 32 33  1  0
 31 32  1  0
 33 29  1  0
 30 31  1  0
 33 28  2  0
  1 35  1  0
  1 36  1  0
  2 37  1  0
  3 38  1  0
  5 39  1  0
  7 40  1  0
  8 41  1  6
 10 42  1  0
 10 43  1  0
 11 44  1  0
 11 45  1  0
 12 46  1  0
 12 47  1  0
 13 48  1  0
 13 49  1  0
 13 50  1  0
 14 51  1  0
 16 52  1  0
 17 53  1  0
 19 54  1  0
 21 55  1  1
 22 56  1  6
 24 57  1  0
 26 58  1  0
 27 59  1  0
 29 60  1  0
 31 61  1  1
 32 62  1  6
 34 63  1  0
 34 64  1  0
M  END
> <Uni-Dock RESULT> 
ENERGY=   -6.434  LOWER_BOUND=    1.051  UPPER_BOUND=    2.596
INTER + INTRA:          -6.434
INTER:                  -6.434
INTRA:                   0.000
UNBOUND:                 0.000

$$$$

     RDKit          3D

 64 61  0  0  0  0  0  0  0  0999 V2000
   44.9413    5.0027   11.9009 O   0  0  0  0  0  0  0  0  0  0  0  0
   45.7481    8.4716   12.1434 C   0  0  0  0  0  0  0  0  0  0  0  0
   47.0239    8.0173   12.4354 C   0  0  0  0  0  0  0  0  0  0  0  0
   47.3672    6.7125   12.4667 N   0  0  0  0  0  0  0  0  0  0  0  0
   46.3862    5.8202   12.1873 C   0  0  0  0  0  0  0  0  0  0  0  0
   45.0737    6.1653   11.8701 C   0  0  0  0  0  0  0  0  0  0  0  0
   44.7609    7.5307   11.8621 C   0  0  0  0  0  0  0  0  0  0  0  0
   44.0124    5.1267   11.6016 C   0  0  1  0  0  0  0  0  0  0  0  0
   44.4936    3.9641   10.8315 N   0  0  0  0  0  0  0  0  0  0  0  0
   43.5947    2.8619   11.1740 C   0  0  0  0  0  0  0  0  0  0  0  0
   43.4754    3.0097   12.6792 C   0  0  0  0  0  0  0  0  0  0  0  0
   43.4612    4.5183   12.9019 C   0  0  0  0  0  0  0  0  0  0  0  0
   44.5317    4.2104    9.3941 C   0  0  0  0  0  0  0  0  0  0  0  0
   45.2236    7.1808   13.1421 O   0  0  0  0  0  0  0  0  0  0  0  0
   46.9790    7.0491   11.7590 O   0  0  0  0  0  0  0  0  0  0  0  0
   45.0077    4.5497   13.2165 O   0  0  0  0  0  0  0  0  0  0  0  0
   44.9054    5.6785    9.6822 O   0  0  0  0  0  0  0  0  0  0  0  0
   44.2276    3.0214    9.7865 O   0  0  0  0  0  0  0  0  0  0  0  0
   42.8369    3.4191   11.4926 O   0  0  0  0  0  0  0  0  0  0  0  0
   45.9976    6.5145   12.2471 C   0  0  0  0  0  0  0  0  0  0  0  0
   45.4828    5.1063   11.9830 C   0  0  2  0  0  0  0  0  0  0  0  0
   44.3873    5.1685   10.9191 C   0  0  2  0  0  0  0  0  0  0  0  0
   43.8396    3.7735   10.6691 C   0  0  0  0  0  0  0  0  0  0  0  0
   44.2538    7.6636   11.6363 O   0  0  0  0  0  0  0  0  0  0  0  0
   46.2054    6.6129   11.9135 O   0  0  0  0  0  0  0  0  0  0  0  0
   42.9652    5.5800   10.7460 O   0  0  0  0  0  0  0  0  0  0  0  0
   45.9859    3.7013   10.2601 O   0  0  0  0  0  0  0  0  0  0  0  0
   46.1122    3.2367   12.9578 O   0  0  0  0  0  0  0  0  0  0  0  0
   44.3226    4.4938   13.3847 O   0  0  0  0  0  0  0  0  0  0  0  0
   45.0711    6.5931   11.4699 C   0  0  0  0  0  0  0  0  0  0  0  0
   44.3975    5.4893   10.6536 C   0  0  1  0  0  0  0  0  0  0  0  0
   44.8484    4.0837   11.0550 C   0  0  2  0  0  0  0  0  0  0  0  0
   45.1837    3.9118   12.5331 C   0  0  0  0  0  0  0  0  0  0  0  0
   44.9146    4.9497   11.8829 O   0  0  0  0  0  0  0  0  0  0  0  0
   44.4142    4.5550   11.2219 H   0  0  0  0  0  0  0  0  0  0  0  0
   45.0310    5.9086   11.5689 H   0  0  0  0  0  0  0  0  0  0  0  0
   45.5275    9.5334   12.1321 H   0  0  0  0  0  0  0  0  0  0  0  0
   47.8292    8.7114   12.6591 H   0  0  0  0  0  0  0  0  0  0  0  0
   46.6975    4.7775   12.2326 H   0  0  0  0  0  0  0  0  0  0  0  0
   43.7509    7.8660   11.6389 H   0  0  0  0  0  0  0  0  0  0  0  0
   43.1721    5.5956   11.0662 H   0  0  0  0  0  0  0  0  0  0  0  0
   44.0107    1.8874   10.8961 H   0  0  0  0  0  0  0  0  0  0  0  0
   42.6095    2.9771   10.7020 H   0  0  0  0  0  0  0  0  0  0  0  0
   42.5775    2.5235   13.0802 H   0  0  0  0  0  0  0  0  0  0  0  0
   44.3537    2.5696   13.1760 H   0  0  0  0  0  0  0  0  0  0  0  0
   42.4305    4.8600   13.0611 H   0  0  0  0  0  0  0  0  0  0  0  0
   44.0403    4.7765   13.7964 H   0  0  0  0  0  0  0  0  0  0  0  0
   45.2278    5.0225    9.1557 H   0  0  0  0  0  0  0  0  0  0  0  0
   43.5447    4.4752    8.9947 H   0  0  0  0  0  0  0  0  0  0  0  0
   44.8908    3.3204    8.8643 H   0  0  0  0  0  0  0  0  0  0  0  0
   45.6688    8.0512   13.2225 H   0  0  0  0  0  0  0  0  0  0  0  0
   44.4622    5.2482   13.6379 H   0  0  0  0  0  0  0  0  0  0  0  0
   45.2081    4.9082    9.1577 H   0  0  0  0  0  0  0  0  0  0  0  0
   42.6109    2.5008   11.2351 H   0  0  0  0  0  0  0  0  0  0  0  0
   46.3308    4.4954   11.6528 H   0  0  0  0  0  0  0  0  0  0  0  0
   43.5594    5.8218   11.2187 H   0  0  0  0  0  0  0  0  0  0  0  0
   44.7972    8.3005   12.1485 H   0  0  0  0  0  0  0  0  0  0  0  0
   42.7675    6.5377   10.7981 H   0  0  0  0  0  0  0  0  0  0  0  0
   46.4493    2.9996   10.7603 H   0  0  0  0  0  0  0  0  0  0  0  0
   44.6569    4.2448   14.2721 H   0  0  0  0  0  0  0  0  0  0  0  0
   44.6516    5.6816    9.6044 H   0  0  0  0  0  0  0  0  0  0  0  0
   44.0591    3.3565   10.8280 H   0  0  0  0  0  0  0  0  0  0  0  0
   45.0842    5.8819   11.6762 H   0  0  0  0  0  0  0  0  0  0  0  0
   44.3876    4.6347   11.1324 H   0  0  0  0  0  0  0  0  0  0  0  0
  7  2  2  0
  2  3  1  0
  8  6  1  0
  8  9  1  0
  4  5  1  0
  5  6  2  0
  3  4  2  0
  9 10  1  0
 10 11  1  0
 11 12  1  0
  8 12  1  0
  6  7  1  0
  9 13  1  0
 20 15  2  0
 21 16  1  0
 22 17  1  0
 20 14  1  0
 22 23  1  0
 21 22  1  0
 23 19  1  0
 20 21  1  0
 23 18  2  0
 30 25  2  0
 31 26  1  0
 32 27  1  0
 30 24  1  0
 32 33  1  0
 31 32  1  0
 33 29  1  0
 30 31  1  0
 33 28  2  0
  1 35  1  0
  1 36  1  0
  2 37  1  0
  3 38  1  0
  5 39  1  0
  7 40  1  0
  8 41  1  6
 10 42  1  0
 10 43  1  0
 11 44  1  0
 11 45  1  0
 12 46  1  0
 12 47  1  0
 13 48  1  0
 13 49  1  0
 13 50  1  0
 14 51  1  0
 16 52  1  0
 17 53  1  0
 19 54  1  0
 21 55  1  1
 22 56  1  6
 24 57  1  0
 26 58  1  0
 27 59  1  0
 29 60  1  0
 31 61  1  1
 32 62  1  6
 34 63  1  0
 34 64  1  0
M  END
> <Uni-Dock RESULT> 
ENERGY=   -6.116  LOWER_BOUND=    1.591  UPPER_BOUND=    3.639
INTER + INTRA:          -6.116
INTER:                  -6.116
INTRA:                   0.000
UNBOUND:                 0.000

$$$$

     RDKit          3D

 64 61  0  0  0  0  0  0  0  0999 V2000
   44.9716    5.9136   11.9329 O   0  0  0  0  0  0  0  0  0  0  0  0
   47.8432    7.5612   13.2679 C   0  0  0  0  0  0  0  0  0  0  0  0
   46.9974    8.6521   13.3849 C   0  0  0  0  0  0  0  0  0  0  0  0
   45.6919    8.6295   13.0437 N   0  0  0  0  0  0  0  0  0  0  0  0
   45.2094    7.4561   12.5672 C   0  0  0  0  0  0  0  0  0  0  0  0
   45.9660    6.2951   12.4185 C   0  0  0  0  0  0  0  0  0  0  0  0
   47.3190    6.3696   12.7735 C   0  0  0  0  0  0  0  0  0  0  0  0
   45.3843    5.0246   11.8488 C   0  0  1  0  0  0  0  0  0  0  0  0
   44.0040    4.7479   12.2895 N   0  0  0  0  0  0  0  0  0  0  0  0
   43.4170    3.9037   11.2488 C   0  0  0  0  0  0  0  0  0  0  0  0
   43.8790    4.5993    9.9822 C   0  0  0  0  0  0  0  0  0  0  0  0
   45.2901    5.0726   10.3147 C   0  0  0  0  0  0  0  0  0  0  0  0
   43.9423    4.1165   13.6033 C   0  0  0  0  0  0  0  0  0  0  0  0
   47.0652    7.3107   11.7611 O   0  0  0  0  0  0  0  0  0  0  0  0
   46.0124    8.0350   13.5993 O   0  0  0  0  0  0  0  0  0  0  0  0
   44.7835    6.5191   10.6926 O   0  0  0  0  0  0  0  0  0  0  0  0
   45.1800    4.9338   14.0250 O   0  0  0  0  0  0  0  0  0  0  0  0
   43.0578    3.7684   12.7333 O   0  0  0  0  0  0  0  0  0  0  0  0
   44.2716    3.5744   10.8647 O   0  0  0  0  0  0  0  0  0  0  0  0
   45.9977    7.3361   12.6000 C   0  0  0  0  0  0  0  0  0  0  0  0
   44.8727    6.4289   12.1212 C   0  0  2  0  0  0  0  0  0  0  0  0
   45.1501    5.0016   12.5923 C   0  0  2  0  0  0  0  0  0  0  0  0
   44.0524    4.0775   12.0927 C   0  0  0  0  0  0  0  0  0  0  0  0
   47.5916    5.8690   12.8029 O   0  0  0  0  0  0  0  0  0  0  0  0
   45.9442    7.3645   13.0006 O   0  0  0  0  0  0  0  0  0  0  0  0
   46.0358    3.8389   12.3004 O   0  0  0  0  0  0  0  0  0  0  0  0
   43.0860    5.6306   13.2899 O   0  0  0  0  0  0  0  0  0  0  0  0
   43.1237    6.9787   10.9043 O   0  0  0  0  0  0  0  0  0  0  0  0
   45.0277    6.0227   10.2511 O   0  0  0  0  0  0  0  0  0  0  0  0
   46.2787    6.1972   12.9041 C   0  0  0  0  0  0  0  0  0  0  0  0
   45.3864    4.9557   12.9322 C   0  0  1  0  0  0  0  0  0  0  0  0
   44.0177    5.1836   12.2878 C   0  0  2  0  0  0  0  0  0  0  0  0
   44.0110    6.1629   11.1184 C   0  0  0  0  0  0  0  0  0  0  0  0
   44.9306    5.8694   11.9187 O   0  0  0  0  0  0  0  0  0  0  0  0
   44.6419    5.0247   12.1339 H   0  0  0  0  0  0  0  0  0  0  0  0
   45.6938    6.0446   12.5655 H   0  0  0  0  0  0  0  0  0  0  0  0
   48.8857    7.6353   13.5576 H   0  0  0  0  0  0  0  0  0  0  0  0
   47.3576    9.6029   13.7675 H   0  0  0  0  0  0  0  0  0  0  0  0
   44.1558    7.4788   12.2926 H   0  0  0  0  0  0  0  0  0  0  0  0
   47.9682    5.5040   12.6658 H   0  0  0  0  0  0  0  0  0  0  0  0
   46.0305    4.1752   12.1203 H   0  0  0  0  0  0  0  0  0  0  0  0
   42.3241    3.8673   11.3134 H   0  0  0  0  0  0  0  0  0  0  0  0
   43.8110    2.8788   11.2843 H   0  0  0  0  0  0  0  0  0  0  0  0
   43.8596    3.9377    9.1074 H   0  0  0  0  0  0  0  0  0  0  0  0
   43.2371    5.4678    9.7688 H   0  0  0  0  0  0  0  0  0  0  0  0
   46.0246    4.3839    9.8782 H   0  0  0  0  0  0  0  0  0  0  0  0
   45.4689    6.0662    9.8871 H   0  0  0  0  0  0  0  0  0  0  0  0
   44.3643    4.7735   14.3721 H   0  0  0  0  0  0  0  0  0  0  0  0
   44.4858    3.1637   13.6290 H   0  0  0  0  0  0  0  0  0  0  0  0
   42.9003    3.9269   13.8865 H   0  0  0  0  0  0  0  0  0  0  0  0
   47.6962    7.9349   12.1789 H   0  0  0  0  0  0  0  0  0  0  0  0
   45.7035    6.4523   10.3577 H   0  0  0  0  0  0  0  0  0  0  0  0
   44.2689    4.7299   14.3225 H   0  0  0  0  0  0  0  0  0  0  0  0
   43.4800    3.0307   10.6692 H   0  0  0  0  0  0  0  0  0  0  0  0
   43.9328    6.8136   12.5332 H   0  0  0  0  0  0  0  0  0  0  0  0
   46.1149    4.6285   12.2290 H   0  0  0  0  0  0  0  0  0  0  0  0
   48.0547    6.7343   12.8152 H   0  0  0  0  0  0  0  0  0  0  0  0
   46.9873    3.9382   12.5096 H   0  0  0  0  0  0  0  0  0  0  0  0
   42.3675    6.0926   12.8127 H   0  0  0  0  0  0  0  0  0  0  0  0
   44.8407    6.6848    9.5525 H   0  0  0  0  0  0  0  0  0  0  0  0
   45.2656    4.6853   13.9880 H   0  0  0  0  0  0  0  0  0  0  0  0
   43.6209    4.2362   11.9030 H   0  0  0  0  0  0  0  0  0  0  0  0
   45.6694    6.1361   12.4874 H   0  0  0  0  0  0  0  0  0  0  0  0
   44.7074    4.9773   12.2264 H   0  0  0  0  0  0  0  0  0  0  0  0
  7  2  2  0
  2  3  1  0
  8  6  1  0
  8  9  1  0
  4  5  1  0
  5  6  2  0
  3  4  2  0
  9 10  1  0
 10 11  1  0
 11 12  1  0
  8 12  1  0
  6  7  1  0
  9 13  1  0
 20 15  2  0
 21 16  1  0
 22 17  1  0
 20 14  1  0
 22 23  1  0
 21 22  1  0
 23 19  1  0
 20 21  1  0
 23 18  2  0
 30 25  2  0
 31 26  1  0
 32 27  1  0
 30 24  1  0
 32 33  1  0
 31 32  1  0
 33 29  1  0
 30 31  1  0
 33 28  2  0
  1 35  1  0
  1 36  1  0
  2 37  1  0
  3 38  1  0
  5 39  1  0
  7 40  1  0
  8 41  1  6
 10 42  1  0
 10 43  1  0
 11 44  1  0
 11 45  1  0
 12 46  1  0
 12 47  1  0
 13 48  1  0
 13 49  1  0
 13 50  1  0
 14 51  1  0
 16 52  1  0
 17 53  1  0
 19 54  1  0
 21 55  1  1
 22 56  1  6
 24 57  1  0
 26 58  1  0
 27 59  1  0
 29 60  1  0
 31 61  1  1
 32 62  1  6
 34 63  1  0
 34 64  1  0
M  END
> <Uni-Dock RESULT> 
ENERGY=   -5.881  LOWER_BOUND=    1.993  UPPER_BOUND=    3.810
INTER + INTRA:          -5.881
INTER:                  -5.881
INTRA:                   0.000
UNBOUND:                 0.000

$$$$

     RDKit          3D

 64 61  0  0  0  0  0  0  0  0999 V2000
   48.0174    8.3748   13.3561 O   0  0  0  0  0  0  0  0  0  0  0  0
   44.8734    7.6826   11.8137 C   0  0  0  0  0  0  0  0  0  0  0  0
   44.7292    9.0603   11.7976 C   0  0  0  0  0  0  0  0  0  0  0  0
   45.6666    9.9184   12.2514 N   0  0  0  0  0  0  0  0  0  0  0  0
   46.8054    9.3700   12.7404 C   0  0  0  0  0  0  0  0  0  0  0  0
   47.0610    8.0010   12.7943 C   0  0  0  0  0  0  0  0  0  0  0  0
   46.0539    7.1485   12.3237 C   0  0  0  0  0  0  0  0  0  0  0  0
   48.3341    7.4439   13.3824 C   0  0  1  0  0  0  0  0  0  0  0  0
   49.5383    8.2319   13.0581 N   0  0  0  0  0  0  0  0  0  0  0  0
   50.4973    7.9483   14.1259 C   0  0  0  0  0  0  0  0  0  0  0  0
   49.6234    8.0310   15.3633 C   0  0  0  0  0  0  0  0  0  0  0  0
   48.2968    7.4236   14.9196 C   0  0  0  0  0  0  0  0  0  0  0  0
   50.0823    7.9228   11.7402 C   0  0  0  0  0  0  0  0  0  0  0  0
   45.5356    7.9216   13.3766 O   0  0  0  0  0  0  0  0  0  0  0  0
   45.8751    9.3129   11.6558 O   0  0  0  0  0  0  0  0  0  0  0  0
   47.6743    8.8434   14.6222 O   0  0  0  0  0  0  0  0  0  0  0  0
   48.6456    7.6896   11.2309 O   0  0  0  0  0  0  0  0  0  0  0  0
   50.9186    8.2149   12.6759 O   0  0  0  0  0  0  0  0  0  0  0  0
   50.0940    7.0917   14.4256 O   0  0  0  0  0  0  0  0  0  0  0  0
   46.3240    8.7422   12.6356 C   0  0  0  0  0  0  0  0  0  0  0  0
   47.7395    8.8285   13.1896 C   0  0  2  0  0  0  0  0  0  0  0  0
   48.5531    7.6471   12.6620 C   0  0  2  0  0  0  0  0  0  0  0  0
   49.9597    7.7008   13.2339 C   0  0  0  0  0  0  0  0  0  0  0  0
   46.2070    6.6026   12.2585 O   0  0  0  0  0  0  0  0  0  0  0  0
   46.3615    8.8309   12.2420 O   0  0  0  0  0  0  0  0  0  0  0  0
   48.7103    6.1765   12.8472 O   0  0  0  0  0  0  0  0  0  0  0  0
   49.6317    9.5786   12.1636 O   0  0  0  0  0  0  0  0  0  0  0  0
   48.5573   10.3361   14.5681 O   0  0  0  0  0  0  0  0  0  0  0  0
   47.8228    8.2833   15.0286 O   0  0  0  0  0  0  0  0  0  0  0  0
   46.9270    7.7527   12.2809 C   0  0  0  0  0  0  0  0  0  0  0  0
   48.4311    7.4775   12.3017 C   0  0  1  0  0  0  0  0  0  0  0  0
   49.2258    8.5358   13.0690 C   0  0  2  0  0  0  0  0  0  0  0  0
   48.4963    9.1536   14.2575 C   0  0  0  0  0  0  0  0  0  0  0  0
   48.0768    8.3703   13.3728 O   0  0  0  0  0  0  0  0  0  0  0  0
   48.8806    7.9786   13.1636 H   0  0  0  0  0  0  0  0  0  0  0  0
   47.4372    8.0201   12.6658 H   0  0  0  0  0  0  0  0  0  0  0  0
   44.0866    7.0390   11.4354 H   0  0  0  0  0  0  0  0  0  0  0  0
   43.8282    9.5257   11.4076 H   0  0  0  0  0  0  0  0  0  0  0  0
   47.5336   10.0921   13.1069 H   0  0  0  0  0  0  0  0  0  0  0  0
   46.1835    6.0693   12.3533 H   0  0  0  0  0  0  0  0  0  0  0  0
   48.4722    6.4081   13.0350 H   0  0  0  0  0  0  0  0  0  0  0  0
   51.3106    8.6815   14.1567 H   0  0  0  0  0  0  0  0  0  0  0  0
   50.9273    6.9419   14.0315 H   0  0  0  0  0  0  0  0  0  0  0  0
   50.0557    7.5002   16.2204 H   0  0  0  0  0  0  0  0  0  0  0  0
   49.4717    9.0822   15.6529 H   0  0  0  0  0  0  0  0  0  0  0  0
   48.2268    6.3871   15.2733 H   0  0  0  0  0  0  0  0  0  0  0  0
   47.4587    7.9817   15.3534 H   0  0  0  0  0  0  0  0  0  0  0  0
   49.3590    8.1643   10.9531 H   0  0  0  0  0  0  0  0  0  0  0  0
   50.3544    6.8643   11.6441 H   0  0  0  0  0  0  0  0  0  0  0  0
   50.9755    8.5277   11.5451 H   0  0  0  0  0  0  0  0  0  0  0  0
   44.6687    7.9679   12.9200 H   0  0  0  0  0  0  0  0  0  0  0  0
   47.0441    8.1342   14.8733 H   0  0  0  0  0  0  0  0  0  0  0  0
   49.4554    8.1949   11.0099 H   0  0  0  0  0  0  0  0  0  0  0  0
   51.0310    7.2316   14.6768 H   0  0  0  0  0  0  0  0  0  0  0  0
   48.1668    9.7862   12.8710 H   0  0  0  0  0  0  0  0  0  0  0  0
   48.1020    6.6844   12.9302 H   0  0  0  0  0  0  0  0  0  0  0  0
   45.2743    6.9063   12.2262 H   0  0  0  0  0  0  0  0  0  0  0  0
   47.9677    5.6076   12.5576 H   0  0  0  0  0  0  0  0  0  0  0  0
   49.8047   10.3696   12.7129 H   0  0  0  0  0  0  0  0  0  0  0  0
   47.4648    8.8341   15.7565 H   0  0  0  0  0  0  0  0  0  0  0  0
   48.7548    7.4488   11.2544 H   0  0  0  0  0  0  0  0  0  0  0  0
   50.1506    8.0979   13.4645 H   0  0  0  0  0  0  0  0  0  0  0  0
   47.3876    8.0967   12.7479 H   0  0  0  0  0  0  0  0  0  0  0  0
   48.8708    7.9065   13.0647 H   0  0  0  0  0  0  0  0  0  0  0  0
  7  2  2  0
  2  3  1  0
  8  6  1  0
  8  9  1  0
  4  5  1  0
  5  6  2  0
  3  4  2  0
  9 10  1  0
 10 11  1  0
 11 12  1  0
  8 12  1  0
  6  7  1  0
  9 13  1  0
 20 15  2  0
 21 16  1  0
 22 17  1  0
 20 14  1  0
 22 23  1  0
 21 22  1  0
 23 19  1  0
 20 21  1  0
 23 18  2  0
 30 25  2  0
 31 26  1  0
 32 27  1  0
 30 24  1  0
 32 33  1  0
 31 32  1  0
 33 29  1  0
 30 31  1  0
 33 28  2  0
  1 35  1  0
  1 36  1  0
  2 37  1  0
  3 38  1  0
  5 39  1  0
  7 40  1  0
  8 41  1  6
 10 42  1  0
 10 43  1  0
 11 44  1  0
 11 45  1  0
 12 46  1  0
 12 47  1  0
 13 48  1  0
 13 49  1  0
 13 50  1  0
 14 51  1  0
 16 52  1  0
 17 53  1  0
 19 54  1  0
 21 55  1  1
 22 56  1  6
 24 57  1  0
 26 58  1  0
 27 59  1  0
 29 60  1  0
 31 61  1  1
 32 62  1  6
 34 63  1  0
 34 64  1  0
M  END
> <Uni-Dock RESULT> 
ENERGY=   -5.014  LOWER_BOUND=    4.682  UPPER_BOUND=    6.270
INTER + INTRA:          -5.014
INTER:                  -5.014
INTRA:                   0.000
UNBOUND:                 0.000

$$$$

     RDKit          3D

 64 61  0  0  0  0  0  0  0  0999 V2000
   48.6847    4.5754   18.7211 O   0  0  0  0  0  0  0  0  0  0  0  0
   48.5323    5.4854   22.1695 C   0  0  0  0  0  0  0  0  0  0  0  0
   49.8939    5.2299   22.1592 C   0  0  0  0  0  0  0  0  0  0  0  0
   50.5782    4.8512   21.0594 N   0  0  0  0  0  0  0  0  0  0  0  0
   49.8649    4.7273   19.9137 C   0  0  0  0  0  0  0  0  0  0  0  0
   48.4965    4.9694   19.8071 C   0  0  0  0  0  0  0  0  0  0  0  0
   47.8260    5.3480   20.9773 C   0  0  0  0  0  0  0  0  0  0  0  0
   47.7458    4.7814   18.5116 C   0  0  1  0  0  0  0  0  0  0  0  0
   48.4929    5.2205   17.3177 N   0  0  0  0  0  0  0  0  0  0  0  0
   47.9397    4.4554   16.2002 C   0  0  0  0  0  0  0  0  0  0  0  0
   47.8441    3.0611   16.7905 C   0  0  0  0  0  0  0  0  0  0  0  0
   47.4312    3.3011   18.2389 C   0  0  0  0  0  0  0  0  0  0  0  0
   48.4063    6.6589   17.0899 C   0  0  0  0  0  0  0  0  0  0  0  0
   48.4161    4.0890   21.1820 O   0  0  0  0  0  0  0  0  0  0  0  0
   50.0859    5.5739   21.0448 O   0  0  0  0  0  0  0  0  0  0  0  0
   48.9229    3.2031   18.7462 O   0  0  0  0  0  0  0  0  0  0  0  0
   48.3801    6.8725   18.6168 O   0  0  0  0  0  0  0  0  0  0  0  0
   48.4507    5.8936   16.0541 O   0  0  0  0  0  0  0  0  0  0  0  0
   47.0725    4.2279   16.6275 O   0  0  0  0  0  0  0  0  0  0  0  0
   49.3056    4.8311   20.4734 C   0  0  0  0  0  0  0  0  0  0  0  0
   49.1808    4.5954   18.9745 C   0  0  2  0  0  0  0  0  0  0  0  0
   48.0683    5.4858   18.4218 C   0  0  2  0  0  0  0  0  0  0  0  0
   47.9089    5.2366   16.9315 C   0  0  0  0  0  0  0  0  0  0  0  0
   47.2935    5.5390   20.9026 O   0  0  0  0  0  0  0  0  0  0  0  0
   49.4658    5.2018   20.5068 O   0  0  0  0  0  0  0  0  0  0  0  0
   46.5823    5.5980   18.3955 O   0  0  0  0  0  0  0  0  0  0  0  0
   49.9770    5.8658   17.2576 O   0  0  0  0  0  0  0  0  0  0  0  0
   50.3302    3.1899   17.7313 O   0  0  0  0  0  0  0  0  0  0  0  0
   48.2855    2.9430   18.5820 O   0  0  0  0  0  0  0  0  0  0  0  0
   48.3626    5.4759   20.0691 C   0  0  0  0  0  0  0  0  0  0  0  0
   47.9809    5.8343   18.6324 C   0  0  1  0  0  0  0  0  0  0  0  0
   48.8106    5.0886   17.5856 C   0  0  2  0  0  0  0  0  0  0  0  0
   49.2377    3.6800   17.9857 C   0  0  0  0  0  0  0  0  0  0  0  0
   48.6727    4.5732   18.6604 O   0  0  0  0  0  0  0  0  0  0  0  0
   48.2720    5.0186   17.9645 H   0  0  0  0  0  0  0  0  0  0  0  0
   48.5130    5.1721   19.4649 H   0  0  0  0  0  0  0  0  0  0  0  0
   48.0326    5.7874   23.0834 H   0  0  0  0  0  0  0  0  0  0  0  0
   50.4896    5.3254   23.0627 H   0  0  0  0  0  0  0  0  0  0  0  0
   50.4480    4.4101   19.0504 H   0  0  0  0  0  0  0  0  0  0  0  0
   46.7550    5.5355   20.9659 H   0  0  0  0  0  0  0  0  0  0  0  0
   46.7897    5.3252   18.5633 H   0  0  0  0  0  0  0  0  0  0  0  0
   48.5924    4.4772   15.3208 H   0  0  0  0  0  0  0  0  0  0  0  0
   46.9422    4.8153   15.9133 H   0  0  0  0  0  0  0  0  0  0  0  0
   47.1277    2.4255   16.2557 H   0  0  0  0  0  0  0  0  0  0  0  0
   48.8275    2.5672   16.7621 H   0  0  0  0  0  0  0  0  0  0  0  0
   46.3537    3.1261   18.3512 H   0  0  0  0  0  0  0  0  0  0  0  0
   47.9537    2.6035   18.9041 H   0  0  0  0  0  0  0  0  0  0  0  0
   48.8470    7.2135   17.9260 H   0  0  0  0  0  0  0  0  0  0  0  0
   47.3695    6.9947   16.9628 H   0  0  0  0  0  0  0  0  0  0  0  0
   48.9715    6.9374   16.1928 H   0  0  0  0  0  0  0  0  0  0  0  0
   48.6122    4.3288   22.1128 H   0  0  0  0  0  0  0  0  0  0  0  0
   48.2258    2.9468   19.3876 H   0  0  0  0  0  0  0  0  0  0  0  0
   48.8590    7.1750   17.8172 H   0  0  0  0  0  0  0  0  0  0  0  0
   47.0933    4.1684   15.6495 H   0  0  0  0  0  0  0  0  0  0  0  0
   50.1487    4.8288   18.5163 H   0  0  0  0  0  0  0  0  0  0  0  0
   47.1070    5.2964   18.9138 H   0  0  0  0  0  0  0  0  0  0  0  0
   47.6641    5.3123   21.7826 H   0  0  0  0  0  0  0  0  0  0  0  0
   46.1351    5.8116   19.2402 H   0  0  0  0  0  0  0  0  0  0  0  0
   50.6321    5.2391   16.8896 H   0  0  0  0  0  0  0  0  0  0  0  0
   48.7094    2.0699   18.7213 H   0  0  0  0  0  0  0  0  0  0  0  0
   48.1321    6.9158   18.5327 H   0  0  0  0  0  0  0  0  0  0  0  0
   48.2390    4.9882   16.6547 H   0  0  0  0  0  0  0  0  0  0  0  0
   48.5756    5.0691   19.4880 H   0  0  0  0  0  0  0  0  0  0  0  0
   48.2213    5.1240   18.0021 H   0  0  0  0  0  0  0  0  0  0  0  0
  7  2  2  0
  2  3  1  0
  8  6  1  0
  8  9  1  0
  4  5  1  0
  5  6  2  0
  3  4  2  0
  9 10  1  0
 10 11  1  0
 11 12  1  0
  8 12  1  0
  6  7  1  0
  9 13  1  0
 20 15  2  0
 21 16  1  0
 22 17  1  0
 20 14  1  0
 22 23  1  0
 21 22  1  0
 23 19  1  0
 20 21  1  0
 23 18  2  0
 30 25  2  0
 31 26  1  0
 32 27  1  0
 30 24  1  0
 32 33  1  0
 31 32  1  0
 33 29  1  0
 30 31  1  0
 33 28  2  0
  1 35  1  0
  1 36  1  0
  2 37  1  0
  3 38  1  0
  5 39  1  0
  7 40  1  0
  8 41  1  6
 10 42  1  0
 10 43  1  0
 11 44  1  0
 11 45  1  0
 12 46  1  0
 12 47  1  0
 13 48  1  0
 13 49  1  0
 13 50  1  0
 14 51  1  0
 16 52  1  0
 17 53  1  0
 19 54  1  0
 21 55  1  1
 22 56  1  6
 24 57  1  0
 26 58  1  0
 27 59  1  0
 29 60  1  0
 31 61  1  1
 32 62  1  6
 34 63  1  0
 34 64  1  0
M  END
> <Uni-Dock RESULT> 
ENERGY=   -5.001  LOWER_BOUND=    6.990  UPPER_BOUND=    9.879
INTER + INTRA:          -5.001
INTER:                  -5.001
INTRA:                   0.000
UNBOUND:                 0.000

$$$$

     RDKit          3D

 64 61  0  0  0  0  0  0  0  0999 V2000
   48.9193    5.3027   18.1428 O   0  0  0  0  0  0  0  0  0  0  0  0
   47.4379    7.6278   20.4105 C   0  0  0  0  0  0  0  0  0  0  0  0
   47.5653    8.5258   19.3633 C   0  0  0  0  0  0  0  0  0  0  0  0
   48.0662    8.2012   18.1529 N   0  0  0  0  0  0  0  0  0  0  0  0
   48.4535    6.9138   17.9820 C   0  0  0  0  0  0  0  0  0  0  0  0
   48.3603    5.9260   18.9608 C   0  0  0  0  0  0  0  0  0  0  0  0
   47.8459    6.3124   20.2051 C   0  0  0  0  0  0  0  0  0  0  0  0
   48.8401    4.5147   18.7262 C   0  0  1  0  0  0  0  0  0  0  0  0
   48.5501    4.0006   17.3742 N   0  0  0  0  0  0  0  0  0  0  0  0
   49.5464    2.9590   17.1238 C   0  0  0  0  0  0  0  0  0  0  0  0
   50.8186    3.6129   17.6292 C   0  0  0  0  0  0  0  0  0  0  0  0
   50.3678    4.3975   18.8568 C   0  0  0  0  0  0  0  0  0  0  0  0
   47.1879    3.4967   17.2376 C   0  0  0  0  0  0  0  0  0  0  0  0
   48.9901    7.0809   19.9311 O   0  0  0  0  0  0  0  0  0  0  0  0
   47.4054    7.7410   18.4941 O   0  0  0  0  0  0  0  0  0  0  0  0
   50.2383    5.7366   18.0311 O   0  0  0  0  0  0  0  0  0  0  0  0
   46.7136    4.5888   18.2175 O   0  0  0  0  0  0  0  0  0  0  0  0
   48.1151    2.8926   16.5776 O   0  0  0  0  0  0  0  0  0  0  0  0
   49.7741    2.7794   18.0736 O   0  0  0  0  0  0  0  0  0  0  0  0
   48.3051    6.9634   18.7645 C   0  0  0  0  0  0  0  0  0  0  0  0
   48.8099    5.8018   17.9197 C   0  0  2  0  0  0  0  0  0  0  0  0
   48.1358    4.5137   18.3914 C   0  0  2  0  0  0  0  0  0  0  0  0
   48.6554    3.3394   17.5794 C   0  0  0  0  0  0  0  0  0  0  0  0
   47.7205    5.8842   20.5610 O   0  0  0  0  0  0  0  0  0  0  0  0
   47.9212    7.0176   18.6468 O   0  0  0  0  0  0  0  0  0  0  0  0
   48.1666    3.5376   19.5174 O   0  0  0  0  0  0  0  0  0  0  0  0
   47.7919    4.7641   16.1639 O   0  0  0  0  0  0  0  0  0  0  0  0
   50.2998    5.8601   16.3014 O   0  0  0  0  0  0  0  0  0  0  0  0
   50.5805    5.2623   18.4297 O   0  0  0  0  0  0  0  0  0  0  0  0
   47.8302    5.9412   19.2096 C   0  0  0  0  0  0  0  0  0  0  0  0
   47.7652    4.5500   18.5782 C   0  0  1  0  0  0  0  0  0  0  0  0
   48.6034    4.4277   17.3043 C   0  0  2  0  0  0  0  0  0  0  0  0
   49.8750    5.2698   17.2861 C   0  0  0  0  0  0  0  0  0  0  0  0
   48.9332    5.2499   18.1136 O   0  0  0  0  0  0  0  0  0  0  0  0
   48.6550    4.3878   17.9633 H   0  0  0  0  0  0  0  0  0  0  0  0
   48.2200    5.6396   18.7227 H   0  0  0  0  0  0  0  0  0  0  0  0
   47.0277    7.9433   21.3636 H   0  0  0  0  0  0  0  0  0  0  0  0
   47.2589    9.5624   19.4725 H   0  0  0  0  0  0  0  0  0  0  0  0
   48.8621    6.6917   16.9972 H   0  0  0  0  0  0  0  0  0  0  0  0
   47.7623    5.5938   21.0170 H   0  0  0  0  0  0  0  0  0  0  0  0
   48.3857    3.8471   19.4749 H   0  0  0  0  0  0  0  0  0  0  0  0
   49.6190    2.7032   16.0612 H   0  0  0  0  0  0  0  0  0  0  0  0
   49.3351    2.0461   17.6971 H   0  0  0  0  0  0  0  0  0  0  0  0
   51.6009    2.8823   17.8691 H   0  0  0  0  0  0  0  0  0  0  0  0
   51.2176    4.3055   16.8723 H   0  0  0  0  0  0  0  0  0  0  0  0
   50.6185    3.8381   19.7671 H   0  0  0  0  0  0  0  0  0  0  0  0
   50.8873    5.3618   18.9041 H   0  0  0  0  0  0  0  0  0  0  0  0
   46.4574    4.2963   17.4050 H   0  0  0  0  0  0  0  0  0  0  0  0
   46.9759    2.6840   17.9435 H   0  0  0  0  0  0  0  0  0  0  0  0
   47.0200    3.1229   16.2208 H   0  0  0  0  0  0  0  0  0  0  0  0
   48.5743    7.8588   20.3602 H   0  0  0  0  0  0  0  0  0  0  0  0
   50.4413    5.8307   18.9866 H   0  0  0  0  0  0  0  0  0  0  0  0
   46.5131    4.2294   17.3283 H   0  0  0  0  0  0  0  0  0  0  0  0
   50.0017    2.0675   17.4396 H   0  0  0  0  0  0  0  0  0  0  0  0
   48.5725    6.0204   16.8723 H   0  0  0  0  0  0  0  0  0  0  0  0
   48.3234    4.3162   19.4534 H   0  0  0  0  0  0  0  0  0  0  0  0
   47.7548    6.8238   20.8424 H   0  0  0  0  0  0  0  0  0  0  0  0
   47.8504    3.8512   20.3896 H   0  0  0  0  0  0  0  0  0  0  0  0
   48.4106    5.0202   15.4504 H   0  0  0  0  0  0  0  0  0  0  0  0
   51.3732    5.8025   18.2266 H   0  0  0  0  0  0  0  0  0  0  0  0
   46.7086    4.3611   18.3539 H   0  0  0  0  0  0  0  0  0  0  0  0
   48.9171    3.3866   17.1591 H   0  0  0  0  0  0  0  0  0  0  0  0
   48.3111    5.7162   18.6932 H   0  0  0  0  0  0  0  0  0  0  0  0
   48.5498    4.3639   18.0220 H   0  0  0  0  0  0  0  0  0  0  0  0
  7  2  2  0
  2  3  1  0
  8  6  1  0
  8  9  1  0
  4  5  1  0
  5  6  2  0
  3  4  2  0
  9 10  1  0
 10 11  1  0
 11 12  1  0
  8 12  1  0
  6  7  1  0
  9 13  1  0
 20 15  2  0
 21 16  1  0
 22 17  1  0
 20 14  1  0
 22 23  1  0
 21 22  1  0
 23 19  1  0
 20 21  1  0
 23 18  2  0
 30 25  2  0
 31 26  1  0
 32 27  1  0
 30 24  1  0
 32 33  1  0
 31 32  1  0
 33 29  1  0
 30 31  1  0
 33 28  2  0
  1 35  1  0
  1 36  1  0
  2 37  1  0
  3 38  1  0
  5 39  1  0
  7 40  1  0
  8 41  1  6
 10 42  1  0
 10 43  1  0
 11 44  1  0
 11 45  1  0
 12 46  1  0
 12 47  1  0
 13 48  1  0
 13 49  1  0
 13 50  1  0
 14 51  1  0
 16 52  1  0
 17 53  1  0
 19 54  1  0
 21 55  1  1
 22 56  1  6
 24 57  1  0
 26 58  1  0
 27 59  1  0
 29 60  1  0
 31 61  1  1
 32 62  1  6
 34 63  1  0
 34 64  1  0
M  END
> <Uni-Dock RESULT> 
ENERGY=   -4.719  LOWER_BOUND=    7.119  UPPER_BOUND=    9.364
INTER + INTRA:          -4.719
INTER:                  -4.719
INTRA:                   0.000
UNBOUND:                 0.000

$$$$
