
     RDKit          3D

 64 61  0  0  0  0  0  0  0  0999 V2000
   44.7414    3.8433   11.0194 O   0  0  0  0  0  0  0  0  0  0  0  0
   46.0192    3.8785    7.8679 C   0  0  0  0  0  0  0  0  0  0  0  0
   46.1988    2.5071    7.8319 C   0  0  0  0  0  0  0  0  0  0  0  0
   45.6285    1.6569    8.7075 N   0  0  0  0  0  0  0  0  0  0  0  0
   44.8469    2.2093    9.6662 C   0  0  0  0  0  0  0  0  0  0  0  0
   44.6051    3.5772    9.8073 C   0  0  0  0  0  0  0  0  0  0  0  0
   45.2070    4.4166    8.8645 C   0  0  0  0  0  0  0  0  0  0  0  0
   43.6817    4.0599   10.9004 C   0  0  1  0  0  0  0  0  0  0  0  0
   43.9857    3.5733   12.2713 N   0  0  0  0  0  0  0  0  0  0  0  0
   43.0551    4.3387   13.1201 C   0  0  0  0  0  0  0  0  0  0  0  0
   42.9450    5.7238   12.4927 C   0  0  0  0  0  0  0  0  0  0  0  0
   43.4965    5.5707   11.0797 C   0  0  0  0  0  0  0  0  0  0  0  0
   45.3711    3.8176   12.6906 C   0  0  0  0  0  0  0  0  0  0  0  0
   45.6837    4.7983   13.2600 O   0  0  0  0  0  0  0  0  0  0  0  0
   43.4714    4.4612   13.1522 O   0  0  0  0  0  0  0  0  0  0  0  0
   46.0380    4.9975   10.6524 O   0  0  0  0  0  0  0  0  0  0  0  0
   43.6447    4.9207    8.9375 O   0  0  0  0  0  0  0  0  0  0  0  0
   44.3521    2.0830   11.0894 O   0  0  0  0  0  0  0  0  0  0  0  0
   44.5338    2.4770    8.8979 O   0  0  0  0  0  0  0  0  0  0  0  0
   44.5112    4.7411   12.5802 C   0  0  0  0  0  0  0  0  0  0  0  0
   44.6867    5.1239   11.1131 C   0  0  2  0  0  0  0  0  0  0  0  0
   43.7404    4.3092   10.2334 C   0  0  2  0  0  0  0  0  0  0  0  0
   44.2214    2.8604   10.1578 C   0  0  0  0  0  0  0  0  0  0  0  0
   45.2311    5.3566    8.6374 O   0  0  0  0  0  0  0  0  0  0  0  0
   45.2378    3.1947    9.2042 O   0  0  0  0  0  0  0  0  0  0  0  0
   43.8046    6.1657   10.6491 O   0  0  0  0  0  0  0  0  0  0  0  0
   43.0428    2.7676   11.5977 O   0  0  0  0  0  0  0  0  0  0  0  0
   46.2254    4.3918   11.9505 O   0  0  0  0  0  0  0  0  0  0  0  0
   45.3325    2.5486   12.8451 O   0  0  0  0  0  0  0  0  0  0  0  0
   44.7955    4.3138    9.3895 C   0  0  0  0  0  0  0  0  0  0  0  0
   43.7214    4.7545   10.3879 C   0  0  1  0  0  0  0  0  0  0  0  0
   43.7965    3.9836   11.7077 C   0  0  2  0  0  0  0  0  0  0  0  0
   45.2376    3.7038   12.1413 C   0  0  0  0  0  0  0  0  0  0  0  0
   44.6825    3.8548   11.1025 O   0  0  0  0  0  0  0  0  0  0  0  0
   44.8991    4.3693   10.2216 H   0  0  0  0  0  0  0  0  0  0  0  0
   44.0963    4.3647   11.5195 H   0  0  0  0  0  0  0  0  0  0  0  0
   46.4962    4.5161    7.1308 H   0  0  0  0  0  0  0  0  0  0  0  0
   46.8215    2.0431    7.0727 H   0  0  0  0  0  0  0  0  0  0  0  0
   44.4018    1.4942   10.3542 H   0  0  0  0  0  0  0  0  0  0  0  0
   45.0530    5.4918    8.8827 H   0  0  0  0  0  0  0  0  0  0  0  0
   42.6937    3.6525   10.6319 H   0  0  0  0  0  0  0  0  0  0  0  0
   42.0747    3.8462   13.0939 H   0  0  0  0  0  0  0  0  0  0  0  0
   43.3543    4.3791   14.1733 H   0  0  0  0  0  0  0  0  0  0  0  0
   41.9075    6.0699   12.4828 H   0  0  0  0  0  0  0  0  0  0  0  0
   43.5397    6.4564   13.0489 H   0  0  0  0  0  0  0  0  0  0  0  0
   44.4443    6.1164   11.0057 H   0  0  0  0  0  0  0  0  0  0  0  0
   42.8140    5.9898   10.3329 H   0  0  0  0  0  0  0  0  0  0  0  0
   46.0789    3.2447   12.0830 H   0  0  0  0  0  0  0  0  0  0  0  0
   45.5122    3.4718   13.7212 H   0  0  0  0  0  0  0  0  0  0  0  0
   45.6600    4.8732   12.6503 H   0  0  0  0  0  0  0  0  0  0  0  0
   45.4420    4.5148   14.1683 H   0  0  0  0  0  0  0  0  0  0  0  0
   46.5968    5.2621   11.4107 H   0  0  0  0  0  0  0  0  0  0  0  0
   44.3473    4.4972    8.4018 H   0  0  0  0  0  0  0  0  0  0  0  0
   44.8329    1.5486    8.9981 H   0  0  0  0  0  0  0  0  0  0  0  0
   44.4385    6.1887   11.0353 H   0  0  0  0  0  0  0  0  0  0  0  0
   42.7220    4.2952   10.6352 H   0  0  0  0  0  0  0  0  0  0  0  0
   45.9212    4.9600    8.0629 H   0  0  0  0  0  0  0  0  0  0  0  0
   44.2008    6.5553    9.8426 H   0  0  0  0  0  0  0  0  0  0  0  0
   43.4062    2.1690   12.2813 H   0  0  0  0  0  0  0  0  0  0  0  0
   46.2920    2.4686   13.0352 H   0  0  0  0  0  0  0  0  0  0  0  0
   42.7544    4.5836    9.9014 H   0  0  0  0  0  0  0  0  0  0  0  0
   43.3365    4.5666   12.5142 H   0  0  0  0  0  0  0  0  0  0  0  0
   44.0596    4.5301   11.4076 H   0  0  0  0  0  0  0  0  0  0  0  0
   44.9947    4.1924   10.2504 H   0  0  0  0  0  0  0  0  0  0  0  0
  7  2  2  0
  2  3  1  0
  8  6  1  0
  8  9  1  0
  4  5  1  0
  5  6  2  0
  3  4  2  0
  9 10  1  0
 10 11  1  0
 11 12  1  0
  8 12  1  0
  6  7  1  0
  9 13  1  0
 20 15  2  0
 21 16  1  0
 22 17  1  0
 20 14  1  0
 22 23  1  0
 21 22  1  0
 23 19  1  0
 20 21  1  0
 23 18  2  0
 30 25  2  0
 31 26  1  0
 32 27  1  0
 30 24  1  0
 32 33  1  0
 31 32  1  0
 33 29  1  0
 30 31  1  0
 33 28  2  0
  1 35  1  0
  1 36  1  0
  2 37  1  0
  3 38  1  0
  5 39  1  0
  7 40  1  0
  8 41  1  1
 10 42  1  0
 10 43  1  0
 11 44  1  0
 11 45  1  0
 12 46  1  0
 12 47  1  0
 13 48  1  0
 13 49  1  0
 13 50  1  0
 14 51  1  0
 16 52  1  0
 17 53  1  0
 19 54  1  0
 21 55  1  6
 22 56  1  1
 24 57  1  0
 26 58  1  0
 27 59  1  0
 29 60  1  0
 31 61  1  1
 32 62  1  6
 34 63  1  0
 34 64  1  0
M  END
> <Uni-Dock RESULT> 
ENERGY=   -7.636  LOWER_BOUND=    0.000  UPPER_BOUND=    0.000
INTER + INTRA:          -7.636
INTER:                  -7.636
INTRA:                   0.000
UNBOUND:                 0.000

$$$$

     RDKit          3D

 64 61  0  0  0  0  0  0  0  0999 V2000
   44.3828    5.4078   11.1794 O   0  0  0  0  0  0  0  0  0  0  0  0
   45.5827    8.4411   12.1414 C   0  0  0  0  0  0  0  0  0  0  0  0
   44.6135    9.1421   11.4461 C   0  0  0  0  0  0  0  0  0  0  0  0
   43.4877    8.5803   10.9645 N   0  0  0  0  0  0  0  0  0  0  0  0
   43.3307    7.2532   11.1863 C   0  0  0  0  0  0  0  0  0  0  0  0
   44.2463    6.4442   11.8621 C   0  0  0  0  0  0  0  0  0  0  0  0
   45.3911    7.0775   12.3562 C   0  0  0  0  0  0  0  0  0  0  0  0
   43.9318    4.9824   12.0737 C   0  0  1  0  0  0  0  0  0  0  0  0
   43.5550    4.2151   10.8580 N   0  0  0  0  0  0  0  0  0  0  0  0
   43.4906    2.8232   11.3385 C   0  0  0  0  0  0  0  0  0  0  0  0
   44.5974    2.6776   12.3768 C   0  0  0  0  0  0  0  0  0  0  0  0
   44.9892    4.1029   12.7499 C   0  0  0  0  0  0  0  0  0  0  0  0
   44.5268    4.3285    9.7637 C   0  0  0  0  0  0  0  0  0  0  0  0
   45.4153    3.5675    9.6409 O   0  0  0  0  0  0  0  0  0  0  0  0
   43.8333    2.9113   11.0853 O   0  0  0  0  0  0  0  0  0  0  0  0
   46.1196    5.7200   10.9956 O   0  0  0  0  0  0  0  0  0  0  0  0
   44.8402    6.1695   13.6101 O   0  0  0  0  0  0  0  0  0  0  0  0
   42.7512    5.9647   10.6474 O   0  0  0  0  0  0  0  0  0  0  0  0
   43.4522    7.6280   11.9640 O   0  0  0  0  0  0  0  0  0  0  0  0
   44.7525    3.6672   10.8203 C   0  0  0  0  0  0  0  0  0  0  0  0
   45.3480    4.7503   11.7158 C   0  0  2  0  0  0  0  0  0  0  0  0
   44.2493    5.4333   12.5279 C   0  0  2  0  0  0  0  0  0  0  0  0
   43.4053    6.3214   11.6140 C   0  0  0  0  0  0  0  0  0  0  0  0
   46.1761    6.8586   12.8773 O   0  0  0  0  0  0  0  0  0  0  0  0
   44.4022    7.3512   11.6100 O   0  0  0  0  0  0  0  0  0  0  0  0
   45.6990    4.3129   13.0440 O   0  0  0  0  0  0  0  0  0  0  0  0
   42.4391    4.7297   11.5520 O   0  0  0  0  0  0  0  0  0  0  0  0
   45.5882    5.0163    9.8514 O   0  0  0  0  0  0  0  0  0  0  0  0
   43.4828    4.7438    9.1526 O   0  0  0  0  0  0  0  0  0  0  0  0
   44.9954    6.5346   12.2912 C   0  0  0  0  0  0  0  0  0  0  0  0
   44.5693    5.1066   12.6436 C   0  0  1  0  0  0  0  0  0  0  0  0
   43.8372    4.4127   11.4929 C   0  0  2  0  0  0  0  0  0  0  0  0
   44.4272    4.7663   10.1255 C   0  0  0  0  0  0  0  0  0  0  0  0
   44.3458    5.3122   11.1768 O   0  0  0  0  0  0  0  0  0  0  0  0
   44.9947    5.8828   11.7608 H   0  0  0  0  0  0  0  0  0  0  0  0
   44.3421    4.5180   11.5597 H   0  0  0  0  0  0  0  0  0  0  0  0
   46.4668    8.9470   12.5152 H   0  0  0  0  0  0  0  0  0  0  0  0
   44.7191   10.2062   11.2564 H   0  0  0  0  0  0  0  0  0  0  0  0
   42.4110    6.8336   10.7855 H   0  0  0  0  0  0  0  0  0  0  0  0
   46.1443    6.5305   12.9163 H   0  0  0  0  0  0  0  0  0  0  0  0
   43.0510    4.9789   12.7357 H   0  0  0  0  0  0  0  0  0  0  0  0
   42.5161    2.6651   11.8178 H   0  0  0  0  0  0  0  0  0  0  0  0
   43.5672    2.0789   10.5381 H   0  0  0  0  0  0  0  0  0  0  0  0
   44.2480    2.1166   13.2483 H   0  0  0  0  0  0  0  0  0  0  0  0
   45.4614    2.1491   11.9597 H   0  0  0  0  0  0  0  0  0  0  0  0
   45.9990    4.3051   12.3742 H   0  0  0  0  0  0  0  0  0  0  0  0
   45.0053    4.2454   13.8355 H   0  0  0  0  0  0  0  0  0  0  0  0
   44.5783    5.3525    9.3802 H   0  0  0  0  0  0  0  0  0  0  0  0
   44.2067    3.7077    8.9188 H   0  0  0  0  0  0  0  0  0  0  0  0
   45.5383    4.0155   10.0434 H   0  0  0  0  0  0  0  0  0  0  0  0
   44.9299    2.8637    9.1582 H   0  0  0  0  0  0  0  0  0  0  0  0
   46.5671    5.2193   10.2840 H   0  0  0  0  0  0  0  0  0  0  0  0
   44.9972    7.0684   13.2531 H   0  0  0  0  0  0  0  0  0  0  0  0
   42.8869    8.0739   11.2984 H   0  0  0  0  0  0  0  0  0  0  0  0
   46.0487    4.2473   12.3922 H   0  0  0  0  0  0  0  0  0  0  0  0
   43.5746    4.7065   12.9918 H   0  0  0  0  0  0  0  0  0  0  0  0
   46.3519    7.7718   12.5630 H   0  0  0  0  0  0  0  0  0  0  0  0
   46.3479    4.9505   13.4068 H   0  0  0  0  0  0  0  0  0  0  0  0
   42.0977    4.5879   10.6459 H   0  0  0  0  0  0  0  0  0  0  0  0
   43.9721    5.0120    8.3453 H   0  0  0  0  0  0  0  0  0  0  0  0
   43.9156    5.1835   13.5199 H   0  0  0  0  0  0  0  0  0  0  0  0
   43.9171    3.3240   11.5942 H   0  0  0  0  0  0  0  0  0  0  0  0
   44.4649    4.5209   11.7214 H   0  0  0  0  0  0  0  0  0  0  0  0
   44.9090    5.9755   11.6016 H   0  0  0  0  0  0  0  0  0  0  0  0
  7  2  2  0
  2  3  1  0
  8  6  1  0
  8  9  1  0
  4  5  1  0
  5  6  2  0
  3  4  2  0
  9 10  1  0
 10 11  1  0
 11 12  1  0
  8 12  1  0
  6  7  1  0
  9 13  1  0
 20 15  2  0
 21 16  1  0
 22 17  1  0
 20 14  1  0
 22 23  1  0
 21 22  1  0
 23 19  1  0
 20 21  1  0
 23 18  2  0
 30 25  2  0
 31 26  1  0
 32 27  1  0
 30 24  1  0
 32 33  1  0
 31 32  1  0
 33 29  1  0
 30 31  1  0
 33 28  2  0
  1 35  1  0
  1 36  1  0
  2 37  1  0
  3 38  1  0
  5 39  1  0
  7 40  1  0
  8 41  1  1
 10 42  1  0
 10 43  1  0
 11 44  1  0
 11 45  1  0
 12 46  1  0
 12 47  1  0
 13 48  1  0
 13 49  1  0
 13 50  1  0
 14 51  1  0
 16 52  1  0
 17 53  1  0
 19 54  1  0
 21 55  1  6
 22 56  1  1
 24 57  1  0
 26 58  1  0
 27 59  1  0
 29 60  1  0
 31 61  1  1
 32 62  1  6
 34 63  1  0
 34 64  1  0
M  END
> <Uni-Dock RESULT> 
ENERGY=   -6.019  LOWER_BOUND=    1.747  UPPER_BOUND=    3.856
INTER + INTRA:          -6.019
INTER:                  -6.019
INTRA:                   0.000
UNBOUND:                 0.000

$$$$

     RDKit          3D

 64 61  0  0  0  0  0  0  0  0999 V2000
   45.0051    5.2175   12.6070 O   0  0  0  0  0  0  0  0  0  0  0  0
   47.3469    7.4214   13.7137 C   0  0  0  0  0  0  0  0  0  0  0  0
   47.7165    6.6253   14.7833 C   0  0  0  0  0  0  0  0  0  0  0  0
   47.3873    5.3236   14.8931 N   0  0  0  0  0  0  0  0  0  0  0  0
   46.6487    4.7989   13.8860 C   0  0  0  0  0  0  0  0  0  0  0  0
   46.2087    5.5084   12.7668 C   0  0  0  0  0  0  0  0  0  0  0  0
   46.5897    6.8520   12.6917 C   0  0  0  0  0  0  0  0  0  0  0  0
   45.4209    4.7927   11.6956 C   0  0  1  0  0  0  0  0  0  0  0  0
   44.2372    4.0246   12.1617 N   0  0  0  0  0  0  0  0  0  0  0  0
   43.5865    3.6047   10.9076 C   0  0  0  0  0  0  0  0  0  0  0  0
   43.7783    4.7514    9.9216 C   0  0  0  0  0  0  0  0  0  0  0  0
   44.8852    5.6139   10.5176 C   0  0  0  0  0  0  0  0  0  0  0  0
   43.3050    4.8136   12.9762 C   0  0  0  0  0  0  0  0  0  0  0  0
   42.4020    5.3961   12.4977 O   0  0  0  0  0  0  0  0  0  0  0  0
   43.3755    3.9171   11.1249 O   0  0  0  0  0  0  0  0  0  0  0  0
   44.5375    6.9197   12.7857 O   0  0  0  0  0  0  0  0  0  0  0  0
   46.9276    6.2368   11.2059 O   0  0  0  0  0  0  0  0  0  0  0  0
   45.5945    3.7782   13.5214 O   0  0  0  0  0  0  0  0  0  0  0  0
   47.3639    5.1421   13.5243 O   0  0  0  0  0  0  0  0  0  0  0  0
   43.4361    4.9757   11.7268 C   0  0  0  0  0  0  0  0  0  0  0  0
   44.5669    6.0001   11.6867 C   0  0  2  0  0  0  0  0  0  0  0  0
   45.9204    5.2964   11.6105 C   0  0  2  0  0  0  0  0  0  0  0  0
   46.2417    4.6439   12.9548 C   0  0  0  0  0  0  0  0  0  0  0  0
   46.5084    7.5983   12.0818 O   0  0  0  0  0  0  0  0  0  0  0  0
   46.6339    5.8981   13.5270 O   0  0  0  0  0  0  0  0  0  0  0  0
   44.9856    6.3887   10.3629 O   0  0  0  0  0  0  0  0  0  0  0  0
   45.4036    3.2356   12.0688 O   0  0  0  0  0  0  0  0  0  0  0  0
   43.4943    6.0362   13.2529 O   0  0  0  0  0  0  0  0  0  0  0  0
   43.5521    3.8713   13.8050 O   0  0  0  0  0  0  0  0  0  0  0  0
   46.2978    6.3030   12.4290 C   0  0  0  0  0  0  0  0  0  0  0  0
   45.6595    5.5134   11.2827 C   0  0  1  0  0  0  0  0  0  0  0  0
   44.6850    4.4433   11.7798 C   0  0  2  0  0  0  0  0  0  0  0  0
   43.8737    4.9078   12.9918 C   0  0  0  0  0  0  0  0  0  0  0  0
   44.9487    5.1528   12.5510 O   0  0  0  0  0  0  0  0  0  0  0  0
   45.5053    6.0240   12.4134 H   0  0  0  0  0  0  0  0  0  0  0  0
   44.6353    4.9602   11.7497 H   0  0  0  0  0  0  0  0  0  0  0  0
   47.6481    8.4630   13.6724 H   0  0  0  0  0  0  0  0  0  0  0  0
   48.3078    7.0253   15.6017 H   0  0  0  0  0  0  0  0  0  0  0  0
   46.4027    3.7465   14.0066 H   0  0  0  0  0  0  0  0  0  0  0  0
   46.3135    7.4728   11.8441 H   0  0  0  0  0  0  0  0  0  0  0  0
   46.1266    4.0601   11.2720 H   0  0  0  0  0  0  0  0  0  0  0  0
   44.0990    2.7097   10.5323 H   0  0  0  0  0  0  0  0  0  0  0  0
   42.5329    3.3304   11.0307 H   0  0  0  0  0  0  0  0  0  0  0  0
   44.0513    4.3770    8.9309 H   0  0  0  0  0  0  0  0  0  0  0  0
   42.8602    5.3398    9.8186 H   0  0  0  0  0  0  0  0  0  0  0  0
   44.4577    6.5706   10.8393 H   0  0  0  0  0  0  0  0  0  0  0  0
   45.6670    5.8312    9.7823 H   0  0  0  0  0  0  0  0  0  0  0  0
   43.7634    5.1220   13.9212 H   0  0  0  0  0  0  0  0  0  0  0  0
   42.4400    4.1980   13.2494 H   0  0  0  0  0  0  0  0  0  0  0  0
   42.9306    5.7086   12.4682 H   0  0  0  0  0  0  0  0  0  0  0  0
   41.7624    4.6524   12.4574 H   0  0  0  0  0  0  0  0  0  0  0  0
   43.5892    7.0821   12.9632 H   0  0  0  0  0  0  0  0  0  0  0  0
   47.2803    6.6096   12.0406 H   0  0  0  0  0  0  0  0  0  0  0  0
   47.4408    4.6512   14.3696 H   0  0  0  0  0  0  0  0  0  0  0  0
   44.4123    6.6022   10.7838 H   0  0  0  0  0  0  0  0  0  0  0  0
   45.9259    4.5056   10.8534 H   0  0  0  0  0  0  0  0  0  0  0  0
   46.8920    7.9994   12.8914 H   0  0  0  0  0  0  0  0  0  0  0  0
   45.4494    7.2482   10.4365 H   0  0  0  0  0  0  0  0  0  0  0  0
   44.8427    2.7388   12.6984 H   0  0  0  0  0  0  0  0  0  0  0  0
   43.0685    4.2964   14.5456 H   0  0  0  0  0  0  0  0  0  0  0  0
   46.4827    5.0502   10.7268 H   0  0  0  0  0  0  0  0  0  0  0  0
   43.9595    4.1974   10.9954 H   0  0  0  0  0  0  0  0  0  0  0  0
   44.6994    5.1000   11.6171 H   0  0  0  0  0  0  0  0  0  0  0  0
   45.4977    5.9488   12.6019 H   0  0  0  0  0  0  0  0  0  0  0  0
  7  2  2  0
  2  3  1  0
  8  6  1  0
  8  9  1  0
  4  5  1  0
  5  6  2  0
  3  4  2  0
  9 10  1  0
 10 11  1  0
 11 12  1  0
  8 12  1  0
  6  7  1  0
  9 13  1  0
 20 15  2  0
 21 16  1  0
 22 17  1  0
 20 14  1  0
 22 23  1  0
 21 22  1  0
 23 19  1  0
 20 21  1  0
 23 18  2  0
 30 25  2  0
 31 26  1  0
 32 27  1  0
 30 24  1  0
 32 33  1  0
 31 32  1  0
 33 29  1  0
 30 31  1  0
 33 28  2  0
  1 35  1  0
  1 36  1  0
  2 37  1  0
  3 38  1  0
  5 39  1  0
  7 40  1  0
  8 41  1  1
 10 42  1  0
 10 43  1  0
 11 44  1  0
 11 45  1  0
 12 46  1  0
 12 47  1  0
 13 48  1  0
 13 49  1  0
 13 50  1  0
 14 51  1  0
 16 52  1  0
 17 53  1  0
 19 54  1  0
 21 55  1  6
 22 56  1  1
 24 57  1  0
 26 58  1  0
 27 59  1  0
 29 60  1  0
 31 61  1  1
 32 62  1  6
 34 63  1  0
 34 64  1  0
M  END
> <Uni-Dock RESULT> 
ENERGY=   -5.687  LOWER_BOUND=    1.909  UPPER_BOUND=    3.776
INTER + INTRA:          -5.687
INTER:                  -5.687
INTRA:                   0.000
UNBOUND:                 0.000

$$$$

     RDKit          3D

 64 61  0  0  0  0  0  0  0  0999 V2000
   44.7501    5.3894   11.6761 O   0  0  0  0  0  0  0  0  0  0  0  0
   47.1227    7.6060   12.6880 C   0  0  0  0  0  0  0  0  0  0  0  0
   46.3155    8.7065   12.4609 C   0  0  0  0  0  0  0  0  0  0  0  0
   44.9831    8.6292   12.2773 N   0  0  0  0  0  0  0  0  0  0  0  0
   44.4373    7.3901   12.3179 C   0  0  0  0  0  0  0  0  0  0  0  0
   45.1538    6.2099   12.5262 C   0  0  0  0  0  0  0  0  0  0  0  0
   46.5312    6.3446   12.7271 C   0  0  0  0  0  0  0  0  0  0  0  0
   44.4164    4.8934   12.5854 C   0  0  1  0  0  0  0  0  0  0  0  0
   43.5091    4.6037   11.4445 N   0  0  0  0  0  0  0  0  0  0  0  0
   43.0888    3.2119   11.6868 C   0  0  0  0  0  0  0  0  0  0  0  0
   44.2974    2.4975   12.2811 C   0  0  0  0  0  0  0  0  0  0  0  0
   45.2370    3.6079   12.7375 C   0  0  0  0  0  0  0  0  0  0  0  0
   44.1569    4.7158   10.1321 C   0  0  0  0  0  0  0  0  0  0  0  0
   44.6676    3.7932    9.6108 O   0  0  0  0  0  0  0  0  0  0  0  0
   43.3667    3.2617   11.3558 O   0  0  0  0  0  0  0  0  0  0  0  0
   46.3845    5.2347   11.0034 O   0  0  0  0  0  0  0  0  0  0  0  0
   46.0294    5.3383   13.9253 O   0  0  0  0  0  0  0  0  0  0  0  0
   43.3340    6.5017   11.7886 O   0  0  0  0  0  0  0  0  0  0  0  0
   44.8694    7.5019   13.0668 O   0  0  0  0  0  0  0  0  0  0  0  0
   44.3943    3.7690   10.9394 C   0  0  0  0  0  0  0  0  0  0  0  0
   45.5293    4.3712   11.7632 C   0  0  2  0  0  0  0  0  0  0  0  0
   44.9721    5.1035   12.9822 C   0  0  2  0  0  0  0  0  0  0  0  0
   44.2887    6.3978   12.5418 C   0  0  0  0  0  0  0  0  0  0  0  0
   47.2952    5.7866   12.9286 O   0  0  0  0  0  0  0  0  0  0  0  0
   45.5459    7.0689   12.3891 O   0  0  0  0  0  0  0  0  0  0  0  0
   46.0249    3.5258   12.8208 O   0  0  0  0  0  0  0  0  0  0  0  0
   42.8488    5.2157   12.5314 O   0  0  0  0  0  0  0  0  0  0  0  0
   45.3769    5.0291    9.9888 O   0  0  0  0  0  0  0  0  0  0  0  0
   43.2041    5.5517    9.9609 O   0  0  0  0  0  0  0  0  0  0  0  0
   45.9693    5.9714   12.7036 C   0  0  0  0  0  0  0  0  0  0  0  0
   45.1775    4.6814   12.9354 C   0  0  1  0  0  0  0  0  0  0  0  0
   43.9900    4.5432   11.9801 C   0  0  2  0  0  0  0  0  0  0  0  0
   44.3076    5.0553   10.5731 C   0  0  0  0  0  0  0  0  0  0  0  0
   44.6829    5.3122   11.6699 O   0  0  0  0  0  0  0  0  0  0  0  0
   45.6121    5.5059   12.1021 H   0  0  0  0  0  0  0  0  0  0  0  0
   44.5000    4.4807   11.8992 H   0  0  0  0  0  0  0  0  0  0  0  0
   48.1903    7.7276   12.8386 H   0  0  0  0  0  0  0  0  0  0  0  0
   46.7318    9.7089   12.4236 H   0  0  0  0  0  0  0  0  0  0  0  0
   43.3605    7.3652   12.1674 H   0  0  0  0  0  0  0  0  0  0  0  0
   47.1626    5.4823   12.9216 H   0  0  0  0  0  0  0  0  0  0  0  0
   43.7818    4.9684   13.4831 H   0  0  0  0  0  0  0  0  0  0  0  0
   42.2708    3.2176   12.4185 H   0  0  0  0  0  0  0  0  0  0  0  0
   42.7027    2.7085   10.7935 H   0  0  0  0  0  0  0  0  0  0  0  0
   44.0031    1.8534   13.1146 H   0  0  0  0  0  0  0  0  0  0  0  0
   44.7935    1.8725   11.5307 H   0  0  0  0  0  0  0  0  0  0  0  0
   46.1277    3.6064   12.0986 H   0  0  0  0  0  0  0  0  0  0  0  0
   45.5697    3.4556   13.7696 H   0  0  0  0  0  0  0  0  0  0  0  0
   44.4623    5.7463    9.9245 H   0  0  0  0  0  0  0  0  0  0  0  0
   43.4433    4.4500    9.3434 H   0  0  0  0  0  0  0  0  0  0  0  0
   45.0335    4.0689   10.0208 H   0  0  0  0  0  0  0  0  0  0  0  0
   43.8656    3.4042    9.1995 H   0  0  0  0  0  0  0  0  0  0  0  0
   46.4403    4.8288   10.1149 H   0  0  0  0  0  0  0  0  0  0  0  0
   46.3936    6.2166   13.6885 H   0  0  0  0  0  0  0  0  0  0  0  0
   44.3469    8.2449   12.6975 H   0  0  0  0  0  0  0  0  0  0  0  0
   46.1573    3.5343   12.0902 H   0  0  0  0  0  0  0  0  0  0  0  0
   44.2250    4.5029   13.5115 H   0  0  0  0  0  0  0  0  0  0  0  0
   47.6919    6.6617   12.7281 H   0  0  0  0  0  0  0  0  0  0  0  0
   46.9223    3.8384   13.0575 H   0  0  0  0  0  0  0  0  0  0  0  0
   42.2663    5.4144   11.7704 H   0  0  0  0  0  0  0  0  0  0  0  0
   43.5397    5.8692    9.0950 H   0  0  0  0  0  0  0  0  0  0  0  0
   44.8293    4.7115   13.9741 H   0  0  0  0  0  0  0  0  0  0  0  0
   43.7112    3.4884   11.8717 H   0  0  0  0  0  0  0  0  0  0  0  0
   44.6521    4.4070   12.0117 H   0  0  0  0  0  0  0  0  0  0  0  0
   45.5271    5.6567   11.9958 H   0  0  0  0  0  0  0  0  0  0  0  0
  7  2  2  0
  2  3  1  0
  8  6  1  0
  8  9  1  0
  4  5  1  0
  5  6  2  0
  3  4  2  0
  9 10  1  0
 10 11  1  0
 11 12  1  0
  8 12  1  0
  6  7  1  0
  9 13  1  0
 20 15  2  0
 21 16  1  0
 22 17  1  0
 20 14  1  0
 22 23  1  0
 21 22  1  0
 23 19  1  0
 20 21  1  0
 23 18  2  0
 30 25  2  0
 31 26  1  0
 32 27  1  0
 30 24  1  0
 32 33  1  0
 31 32  1  0
 33 29  1  0
 30 31  1  0
 33 28  2  0
  1 35  1  0
  1 36  1  0
  2 37  1  0
  3 38  1  0
  5 39  1  0
  7 40  1  0
  8 41  1  1
 10 42  1  0
 10 43  1  0
 11 44  1  0
 11 45  1  0
 12 46  1  0
 12 47  1  0
 13 48  1  0
 13 49  1  0
 13 50  1  0
 14 51  1  0
 16 52  1  0
 17 53  1  0
 19 54  1  0
 21 55  1  6
 22 56  1  1
 24 57  1  0
 26 58  1  0
 27 59  1  0
 29 60  1  0
 31 61  1  1
 32 62  1  6
 34 63  1  0
 34 64  1  0
M  END
> <Uni-Dock RESULT> 
ENERGY=   -5.642  LOWER_BOUND=    1.872  UPPER_BOUND=    4.023
INTER + INTRA:          -5.642
INTER:                  -5.642
INTRA:                   0.000
UNBOUND:                 0.000

$$$$

     RDKit          3D

 64 61  0  0  0  0  0  0  0  0999 V2000
   48.0716    5.4615   17.8879 O   0  0  0  0  0  0  0  0  0  0  0  0
   47.0999    3.9599   14.9954 C   0  0  0  0  0  0  0  0  0  0  0  0
   47.1923    5.1263   14.2570 C   0  0  0  0  0  0  0  0  0  0  0  0
   47.8348    6.2307   14.6841 N   0  0  0  0  0  0  0  0  0  0  0  0
   48.4056    6.1626   15.9107 C   0  0  0  0  0  0  0  0  0  0  0  0
   48.3653    5.0458   16.7478 C   0  0  0  0  0  0  0  0  0  0  0  0
   47.7001    3.9198   16.2526 C   0  0  0  0  0  0  0  0  0  0  0  0
   49.0760    5.0892   18.0795 C   0  0  1  0  0  0  0  0  0  0  0  0
   48.7495    6.2454   18.9543 N   0  0  0  0  0  0  0  0  0  0  0  0
   49.4347    5.9220   20.2185 C   0  0  0  0  0  0  0  0  0  0  0  0
   49.3315    4.4103   20.3862 C   0  0  0  0  0  0  0  0  0  0  0  0
   48.9494    3.8777   19.0098 C   0  0  0  0  0  0  0  0  0  0  0  0
   47.3110    6.4206   19.1885 C   0  0  0  0  0  0  0  0  0  0  0  0
   46.7651    5.9198   20.1022 O   0  0  0  0  0  0  0  0  0  0  0  0
   49.0015    5.8847   20.2331 O   0  0  0  0  0  0  0  0  0  0  0  0
   46.6151    4.4487   17.9163 O   0  0  0  0  0  0  0  0  0  0  0  0
   49.1227    3.3423   16.8380 O   0  0  0  0  0  0  0  0  0  0  0  0
   48.7854    6.9442   17.1481 O   0  0  0  0  0  0  0  0  0  0  0  0
   48.7290    5.5016   15.4431 O   0  0  0  0  0  0  0  0  0  0  0  0
   47.9830    5.4770   19.7010 C   0  0  0  0  0  0  0  0  0  0  0  0
   47.8697    4.4169   18.6088 C   0  0  2  0  0  0  0  0  0  0  0  0
   49.0306    4.5408   17.6239 C   0  0  2  0  0  0  0  0  0  0  0  0
   48.8469    5.7886   16.7606 C   0  0  0  0  0  0  0  0  0  0  0  0
   47.5156    3.0082   16.5183 O   0  0  0  0  0  0  0  0  0  0  0  0
   47.8751    5.1353   15.9341 O   0  0  0  0  0  0  0  0  0  0  0  0
   48.5722    3.1879   18.8821 O   0  0  0  0  0  0  0  0  0  0  0  0
   49.8868    6.4683   18.1489 O   0  0  0  0  0  0  0  0  0  0  0  0
   46.4321    5.6544   18.6908 O   0  0  0  0  0  0  0  0  0  0  0  0
   47.5796    7.5722   18.7012 O   0  0  0  0  0  0  0  0  0  0  0  0
   48.0746    4.2283   16.7216 C   0  0  0  0  0  0  0  0  0  0  0  0
   48.9493    4.2404   17.9785 C   0  0  1  0  0  0  0  0  0  0  0  0
   48.9059    5.5840   18.7096 C   0  0  2  0  0  0  0  0  0  0  0  0
   47.5129    6.2179   18.6878 C   0  0  0  0  0  0  0  0  0  0  0  0
   48.1195    5.4875   17.9748 O   0  0  0  0  0  0  0  0  0  0  0  0
   47.8879    4.6228   17.4397 H   0  0  0  0  0  0  0  0  0  0  0  0
   48.5564    5.1996   18.6845 H   0  0  0  0  0  0  0  0  0  0  0  0
   46.5772    3.0961   14.5977 H   0  0  0  0  0  0  0  0  0  0  0  0
   46.7417    5.2032   13.2718 H   0  0  0  0  0  0  0  0  0  0  0  0
   48.9165    7.0705   16.2226 H   0  0  0  0  0  0  0  0  0  0  0  0
   47.6415    2.9986   16.8253 H   0  0  0  0  0  0  0  0  0  0  0  0
   50.1441    5.1778   17.8237 H   0  0  0  0  0  0  0  0  0  0  0  0
   50.4900    6.2087   20.1258 H   0  0  0  0  0  0  0  0  0  0  0  0
   49.0399    6.4668   21.0832 H   0  0  0  0  0  0  0  0  0  0  0  0
   50.2794    3.9870   20.7309 H   0  0  0  0  0  0  0  0  0  0  0  0
   48.5591    4.1470   21.1168 H   0  0  0  0  0  0  0  0  0  0  0  0
   47.9247    3.4904   19.0492 H   0  0  0  0  0  0  0  0  0  0  0  0
   49.6025    3.0552   18.7002 H   0  0  0  0  0  0  0  0  0  0  0  0
   46.7847    6.6783   18.2639 H   0  0  0  0  0  0  0  0  0  0  0  0
   47.1471    7.2624   19.8713 H   0  0  0  0  0  0  0  0  0  0  0  0
   46.8287    5.5390   19.6238 H   0  0  0  0  0  0  0  0  0  0  0  0
   46.9743    6.5997   20.7788 H   0  0  0  0  0  0  0  0  0  0  0  0
   45.9499    4.6823   18.5946 H   0  0  0  0  0  0  0  0  0  0  0  0
   48.5661    3.5096   16.0492 H   0  0  0  0  0  0  0  0  0  0  0  0
   48.6068    6.3768   15.0182 H   0  0  0  0  0  0  0  0  0  0  0  0
   47.9137    3.4436   19.1111 H   0  0  0  0  0  0  0  0  0  0  0  0
   49.9922    4.6376   18.1384 H   0  0  0  0  0  0  0  0  0  0  0  0
   46.9695    3.1311   15.7120 H   0  0  0  0  0  0  0  0  0  0  0  0
   48.1826    2.4890   18.3174 H   0  0  0  0  0  0  0  0  0  0  0  0
   49.5858    7.3723   18.3724 H   0  0  0  0  0  0  0  0  0  0  0  0
   46.6405    7.8532   18.6551 H   0  0  0  0  0  0  0  0  0  0  0  0
   49.9709    4.0184   17.6497 H   0  0  0  0  0  0  0  0  0  0  0  0
   49.1703    5.4501   19.7652 H   0  0  0  0  0  0  0  0  0  0  0  0
   48.5704    4.9972   18.6772 H   0  0  0  0  0  0  0  0  0  0  0  0
   47.8260    4.7992   17.3603 H   0  0  0  0  0  0  0  0  0  0  0  0
  7  2  2  0
  2  3  1  0
  8  6  1  0
  8  9  1  0
  4  5  1  0
  5  6  2  0
  3  4  2  0
  9 10  1  0
 10 11  1  0
 11 12  1  0
  8 12  1  0
  6  7  1  0
  9 13  1  0
 20 15  2  0
 21 16  1  0
 22 17  1  0
 20 14  1  0
 22 23  1  0
 21 22  1  0
 23 19  1  0
 20 21  1  0
 23 18  2  0
 30 25  2  0
 31 26  1  0
 32 27  1  0
 30 24  1  0
 32 33  1  0
 31 32  1  0
 33 29  1  0
 30 31  1  0
 33 28  2  0
  1 35  1  0
  1 36  1  0
  2 37  1  0
  3 38  1  0
  5 39  1  0
  7 40  1  0
  8 41  1  1
 10 42  1  0
 10 43  1  0
 11 44  1  0
 11 45  1  0
 12 46  1  0
 12 47  1  0
 13 48  1  0
 13 49  1  0
 13 50  1  0
 14 51  1  0
 16 52  1  0
 17 53  1  0
 19 54  1  0
 21 55  1  6
 22 56  1  1
 24 57  1  0
 26 58  1  0
 27 59  1  0
 29 60  1  0
 31 61  1  1
 32 62  1  6
 34 63  1  0
 34 64  1  0
M  END
> <Uni-Dock RESULT> 
ENERGY=   -4.993  LOWER_BOUND=    6.117  UPPER_BOUND=    8.440
INTER + INTRA:          -4.993
INTER:                  -4.993
INTRA:                   0.000
UNBOUND:                 0.000

$$$$

     RDKit          3D

 64 61  0  0  0  0  0  0  0  0999 V2000
   47.4116    7.0339   12.7265 O   0  0  0  0  0  0  0  0  0  0  0  0
   45.1987    4.5581   11.9920 C   0  0  0  0  0  0  0  0  0  0  0  0
   45.8434    3.6270   12.7867 C   0  0  0  0  0  0  0  0  0  0  0  0
   46.7645    3.9492   13.7155 N   0  0  0  0  0  0  0  0  0  0  0  0
   47.0555    5.2655   13.8484 C   0  0  0  0  0  0  0  0  0  0  0  0
   46.4791    6.2894   13.0941 C   0  0  0  0  0  0  0  0  0  0  0  0
   45.5175    5.9051   12.1542 C   0  0  0  0  0  0  0  0  0  0  0  0
   46.8664    7.7230   13.3684 C   0  0  1  0  0  0  0  0  0  0  0  0
   48.3238    8.0141   13.3734 N   0  0  0  0  0  0  0  0  0  0  0  0
   48.3788    9.4831   13.4801 C   0  0  0  0  0  0  0  0  0  0  0  0
   47.1997   10.0149   12.6732 C   0  0  0  0  0  0  0  0  0  0  0  0
   46.2763    8.8184   12.4734 C   0  0  0  0  0  0  0  0  0  0  0  0
   49.0187    7.5683   12.1597 C   0  0  0  0  0  0  0  0  0  0  0  0
   49.1546    8.2729   11.2276 O   0  0  0  0  0  0  0  0  0  0  0  0
   48.4876    9.3261   13.0892 O   0  0  0  0  0  0  0  0  0  0  0  0
   47.0158    6.7406   11.0221 O   0  0  0  0  0  0  0  0  0  0  0  0
   44.8373    7.1668   12.9579 O   0  0  0  0  0  0  0  0  0  0  0  0
   48.1315    6.2701   14.1940 O   0  0  0  0  0  0  0  0  0  0  0  0
   46.1940    5.1841   13.9539 O   0  0  0  0  0  0  0  0  0  0  0  0
   48.2293    8.5587   12.1776 C   0  0  0  0  0  0  0  0  0  0  0  0
   46.8967    7.8696   11.8970 C   0  0  2  0  0  0  0  0  0  0  0  0
   46.2198    7.4665   13.2056 C   0  0  2  0  0  0  0  0  0  0  0  0
   46.9656    6.2895   13.8338 C   0  0  0  0  0  0  0  0  0  0  0  0
   44.9149    6.3172   11.5196 O   0  0  0  0  0  0  0  0  0  0  0  0
   46.3582    5.3572   12.9304 O   0  0  0  0  0  0  0  0  0  0  0  0
   45.7530    8.7474   11.8771 O   0  0  0  0  0  0  0  0  0  0  0  0
   47.8152    7.7280   14.6584 O   0  0  0  0  0  0  0  0  0  0  0  0
   48.4277    6.9907   11.1983 O   0  0  0  0  0  0  0  0  0  0  0  0
   49.7039    6.9316   13.0320 O   0  0  0  0  0  0  0  0  0  0  0  0
   45.8642    6.3784   12.4879 C   0  0  0  0  0  0  0  0  0  0  0  0
   46.1420    7.8244   12.9082 C   0  0  1  0  0  0  0  0  0  0  0  0
   47.6091    8.0559   13.2768 C   0  0  2  0  0  0  0  0  0  0  0  0
   48.5695    7.2774   12.3744 C   0  0  0  0  0  0  0  0  0  0  0  0
   47.4560    7.1214   12.7561 O   0  0  0  0  0  0  0  0  0  0  0  0
   46.5646    6.8088   12.3141 H   0  0  0  0  0  0  0  0  0  0  0  0
   47.3805    7.9981   12.8132 H   0  0  0  0  0  0  0  0  0  0  0  0
   44.4573    4.2429   11.2651 H   0  0  0  0  0  0  0  0  0  0  0  0
   45.6261    2.5668   12.6967 H   0  0  0  0  0  0  0  0  0  0  0  0
   47.8014    5.4893   14.6075 H   0  0  0  0  0  0  0  0  0  0  0  0
   44.9993    6.6375   11.5416 H   0  0  0  0  0  0  0  0  0  0  0  0
   46.5008    7.9211   14.3889 H   0  0  0  0  0  0  0  0  0  0  0  0
   48.2552    9.7603   14.5348 H   0  0  0  0  0  0  0  0  0  0  0  0
   49.3341    9.9109   13.1566 H   0  0  0  0  0  0  0  0  0  0  0  0
   46.6944   10.8271   13.2035 H   0  0  0  0  0  0  0  0  0  0  0  0
   47.5289   10.3996   11.7019 H   0  0  0  0  0  0  0  0  0  0  0  0
   46.2821    8.5364   11.4142 H   0  0  0  0  0  0  0  0  0  0  0  0
   45.2431    9.0565   12.7469 H   0  0  0  0  0  0  0  0  0  0  0  0
   49.0043    6.4774   12.0694 H   0  0  0  0  0  0  0  0  0  0  0  0
   50.0766    7.8506   12.2142 H   0  0  0  0  0  0  0  0  0  0  0  0
   48.6067    7.9944   11.2388 H   0  0  0  0  0  0  0  0  0  0  0  0
   49.9567    8.7511   11.5305 H   0  0  0  0  0  0  0  0  0  0  0  0
   47.7110    6.9835   10.3779 H   0  0  0  0  0  0  0  0  0  0  0  0
   44.8138    6.2063   12.7656 H   0  0  0  0  0  0  0  0  0  0  0  0
   46.7924    4.5173   14.3523 H   0  0  0  0  0  0  0  0  0  0  0  0
   46.2723    8.5986   11.3676 H   0  0  0  0  0  0  0  0  0  0  0  0
   46.2244    8.2833   13.9347 H   0  0  0  0  0  0  0  0  0  0  0  0
   44.8430    5.3586   11.3211 H   0  0  0  0  0  0  0  0  0  0  0  0
   45.0387    8.2962   11.3818 H   0  0  0  0  0  0  0  0  0  0  0  0
   48.7715    7.5388   14.7451 H   0  0  0  0  0  0  0  0  0  0  0  0
   50.2138    6.4213   12.3667 H   0  0  0  0  0  0  0  0  0  0  0  0
   45.4960    8.0284   13.7697 H   0  0  0  0  0  0  0  0  0  0  0  0
   47.8660    9.1157   13.1636 H   0  0  0  0  0  0  0  0  0  0  0  0
   47.2013    8.0551   12.7369 H   0  0  0  0  0  0  0  0  0  0  0  0
   46.6995    6.6643   12.3609 H   0  0  0  0  0  0  0  0  0  0  0  0
  7  2  2  0
  2  3  1  0
  8  6  1  0
  8  9  1  0
  4  5  1  0
  5  6  2  0
  3  4  2  0
  9 10  1  0
 10 11  1  0
 11 12  1  0
  8 12  1  0
  6  7  1  0
  9 13  1  0
 20 15  2  0
 21 16  1  0
 22 17  1  0
 20 14  1  0
 22 23  1  0
 21 22  1  0
 23 19  1  0
 20 21  1  0
 23 18  2  0
 30 25  2  0
 31 26  1  0
 32 27  1  0
 30 24  1  0
 32 33  1  0
 31 32  1  0
 33 29  1  0
 30 31  1  0
 33 28  2  0
  1 35  1  0
  1 36  1  0
  2 37  1  0
  3 38  1  0
  5 39  1  0
  7 40  1  0
  8 41  1  1
 10 42  1  0
 10 43  1  0
 11 44  1  0
 11 45  1  0
 12 46  1  0
 12 47  1  0
 13 48  1  0
 13 49  1  0
 13 50  1  0
 14 51  1  0
 16 52  1  0
 17 53  1  0
 19 54  1  0
 21 55  1  6
 22 56  1  1
 24 57  1  0
 26 58  1  0
 27 59  1  0
 29 60  1  0
 31 61  1  1
 32 62  1  6
 34 63  1  0
 34 64  1  0
M  END
> <Uni-Dock RESULT> 
ENERGY=   -4.966  LOWER_BOUND=    3.680  UPPER_BOUND=    5.188
INTER + INTRA:          -4.966
INTER:                  -4.966
INTRA:                   0.000
UNBOUND:                 0.000

$$$$

     RDKit          3D

 64 61  0  0  0  0  0  0  0  0999 V2000
   49.6594    3.9781   18.5389 O   0  0  0  0  0  0  0  0  0  0  0  0
   52.9282    3.1335   18.1294 C   0  0  0  0  0  0  0  0  0  0  0  0
   52.6447    1.7987   17.9006 C   0  0  0  0  0  0  0  0  0  0  0  0
   51.4128    1.3366   17.6113 N   0  0  0  0  0  0  0  0  0  0  0  0
   50.4194    2.2559   17.5546 C   0  0  0  0  0  0  0  0  0  0  0  0
   50.5852    3.6238   17.7799 C   0  0  0  0  0  0  0  0  0  0  0  0
   51.8854    4.0556   18.0611 C   0  0  0  0  0  0  0  0  0  0  0  0
   49.3981    4.5479   17.6494 C   0  0  1  0  0  0  0  0  0  0  0  0
   48.1889    4.1678   18.4253 N   0  0  0  0  0  0  0  0  0  0  0  0
   47.2914    5.3234   18.2477 C   0  0  0  0  0  0  0  0  0  0  0  0
   48.1844    6.5587   18.2244 C   0  0  0  0  0  0  0  0  0  0  0  0
   49.5937    6.0320   17.9781 C   0  0  0  0  0  0  0  0  0  0  0  0
   48.4497    3.9438   19.8524 C   0  0  0  0  0  0  0  0  0  0  0  0
   48.3561    4.8089   20.6440 O   0  0  0  0  0  0  0  0  0  0  0  0
   47.4653    5.2890   18.6451 O   0  0  0  0  0  0  0  0  0  0  0  0
   50.8261    4.5226   19.7595 O   0  0  0  0  0  0  0  0  0  0  0  0
   51.3358    5.0986   16.9164 O   0  0  0  0  0  0  0  0  0  0  0  0
   48.9451    2.5056   17.7794 O   0  0  0  0  0  0  0  0  0  0  0  0
   51.0382    2.5163   16.9985 O   0  0  0  0  0  0  0  0  0  0  0  0
   48.4606    5.0940   19.3218 C   0  0  0  0  0  0  0  0  0  0  0  0
   49.9171    5.1912   18.8758 C   0  0  2  0  0  0  0  0  0  0  0  0
   50.0729    4.6693   17.4488 C   0  0  2  0  0  0  0  0  0  0  0  0
   49.9234    3.1482   17.4340 C   0  0  0  0  0  0  0  0  0  0  0  0
   52.3581    4.8840   18.2224 O   0  0  0  0  0  0  0  0  0  0  0  0
   51.2571    2.9619   17.9248 O   0  0  0  0  0  0  0  0  0  0  0  0
   50.2606    6.4123   18.1904 O   0  0  0  0  0  0  0  0  0  0  0  0
   48.1691    3.6799   17.1012 O   0  0  0  0  0  0  0  0  0  0  0  0
   49.5998    4.0657   20.3715 O   0  0  0  0  0  0  0  0  0  0  0  0
   47.9415    2.8077   19.5576 O   0  0  0  0  0  0  0  0  0  0  0  0
   51.2336    4.1792   17.9369 C   0  0  0  0  0  0  0  0  0  0  0  0
   50.0564    5.1071   17.6238 C   0  0  1  0  0  0  0  0  0  0  0  0
   48.7195    4.5413   18.1079 C   0  0  2  0  0  0  0  0  0  0  0  0
   48.8423    3.8156   19.4500 C   0  0  0  0  0  0  0  0  0  0  0  0
   49.5665    4.0210   18.5317 O   0  0  0  0  0  0  0  0  0  0  0  0
   50.5661    4.3015   18.4325 H   0  0  0  0  0  0  0  0  0  0  0  0
   49.1115    4.7591   18.3715 H   0  0  0  0  0  0  0  0  0  0  0  0
   53.9419    3.4514   18.3496 H   0  0  0  0  0  0  0  0  0  0  0  0
   53.4255    1.0449   17.9416 H   0  0  0  0  0  0  0  0  0  0  0  0
   49.4394    1.8484   17.3175 H   0  0  0  0  0  0  0  0  0  0  0  0
   52.1110    5.1056   18.2247 H   0  0  0  0  0  0  0  0  0  0  0  0
   49.1196    4.4966   16.5845 H   0  0  0  0  0  0  0  0  0  0  0  0
   46.7809    5.2225   17.2815 H   0  0  0  0  0  0  0  0  0  0  0  0
   46.5057    5.3894   19.0085 H   0  0  0  0  0  0  0  0  0  0  0  0
   47.8735    7.2542   17.4395 H   0  0  0  0  0  0  0  0  0  0  0  0
   48.1458    7.0906   19.1811 H   0  0  0  0  0  0  0  0  0  0  0  0
   50.1933    6.1807   18.8837 H   0  0  0  0  0  0  0  0  0  0  0  0
   50.0880    6.5693   17.1620 H   0  0  0  0  0  0  0  0  0  0  0  0
   49.1018    3.0785   20.0079 H   0  0  0  0  0  0  0  0  0  0  0  0
   47.5111    3.7083   20.3675 H   0  0  0  0  0  0  0  0  0  0  0  0
   48.8988    4.8068   20.3552 H   0  0  0  0  0  0  0  0  0  0  0  0
   47.3878    4.7542   20.7960 H   0  0  0  0  0  0  0  0  0  0  0  0
   50.4650    4.6625   20.6580 H   0  0  0  0  0  0  0  0  0  0  0  0
   51.9654    4.3822   17.1411 H   0  0  0  0  0  0  0  0  0  0  0  0
   50.8092    1.5643   17.0519 H   0  0  0  0  0  0  0  0  0  0  0  0
   50.1856    6.2533   18.9119 H   0  0  0  0  0  0  0  0  0  0  0  0
   49.3095    5.0795   16.7797 H   0  0  0  0  0  0  0  0  0  0  0  0
   53.0241    4.1920   18.4253 H   0  0  0  0  0  0  0  0  0  0  0  0
   51.2323    6.5220   18.2444 H   0  0  0  0  0  0  0  0  0  0  0  0
   47.5508    3.0850   17.5719 H   0  0  0  0  0  0  0  0  0  0  0  0
   48.1392    2.4097   20.4326 H   0  0  0  0  0  0  0  0  0  0  0  0
   50.0431    5.2378   16.5357 H   0  0  0  0  0  0  0  0  0  0  0  0
   47.9965    5.3519   18.2575 H   0  0  0  0  0  0  0  0  0  0  0  0
   49.2408    4.9103   18.3314 H   0  0  0  0  0  0  0  0  0  0  0  0
   50.5295    4.1073   18.4798 H   0  0  0  0  0  0  0  0  0  0  0  0
  7  2  2  0
  2  3  1  0
  8  6  1  0
  8  9  1  0
  4  5  1  0
  5  6  2  0
  3  4  2  0
  9 10  1  0
 10 11  1  0
 11 12  1  0
  8 12  1  0
  6  7  1  0
  9 13  1  0
 20 15  2  0
 21 16  1  0
 22 17  1  0
 20 14  1  0
 22 23  1  0
 21 22  1  0
 23 19  1  0
 20 21  1  0
 23 18  2  0
 30 25  2  0
 31 26  1  0
 32 27  1  0
 30 24  1  0
 32 33  1  0
 31 32  1  0
 33 29  1  0
 30 31  1  0
 33 28  2  0
  1 35  1  0
  1 36  1  0
  2 37  1  0
  3 38  1  0
  5 39  1  0
  7 40  1  0
  8 41  1  1
 10 42  1  0
 10 43  1  0
 11 44  1  0
 11 45  1  0
 12 46  1  0
 12 47  1  0
 13 48  1  0
 13 49  1  0
 13 50  1  0
 14 51  1  0
 16 52  1  0
 17 53  1  0
 19 54  1  0
 21 55  1  6
 22 56  1  1
 24 57  1  0
 26 58  1  0
 27 59  1  0
 29 60  1  0
 31 61  1  1
 32 62  1  6
 34 63  1  0
 34 64  1  0
M  END
> <Uni-Dock RESULT> 
ENERGY=   -4.860  LOWER_BOUND=    8.028  UPPER_BOUND=    9.394
INTER + INTRA:          -4.860
INTER:                  -4.860
INTRA:                   0.000
UNBOUND:                 0.000

$$$$

     RDKit          3D

 64 61  0  0  0  0  0  0  0  0999 V2000
   48.5399    5.4580   18.7330 O   0  0  0  0  0  0  0  0  0  0  0  0
   49.6629    5.7413   21.9307 C   0  0  0  0  0  0  0  0  0  0  0  0
   48.8948    6.8617   22.1933 C   0  0  0  0  0  0  0  0  0  0  0  0
   47.8669    7.2598   21.4187 N   0  0  0  0  0  0  0  0  0  0  0  0
   47.6019    6.5016   20.3278 C   0  0  0  0  0  0  0  0  0  0  0  0
   48.3162    5.3605   19.9575 C   0  0  0  0  0  0  0  0  0  0  0  0
   49.3637    4.9798   20.8024 C   0  0  0  0  0  0  0  0  0  0  0  0
   47.8928    4.5831   18.7341 C   0  0  1  0  0  0  0  0  0  0  0  0
   47.7388    5.3708   17.4834 N   0  0  0  0  0  0  0  0  0  0  0  0
   47.5073    4.3396   16.4560 C   0  0  0  0  0  0  0  0  0  0  0  0
   48.3662    3.1433   16.8500 C   0  0  0  0  0  0  0  0  0  0  0  0
   48.7422    3.3805   18.3083 C   0  0  0  0  0  0  0  0  0  0  0  0
   48.9207    6.1709   17.1404 C   0  0  0  0  0  0  0  0  0  0  0  0
   49.7766    5.7506   16.4516 O   0  0  0  0  0  0  0  0  0  0  0  0
   47.8990    4.5282   16.4377 O   0  0  0  0  0  0  0  0  0  0  0  0
   50.2904    5.3985   19.0161 O   0  0  0  0  0  0  0  0  0  0  0  0
   48.5206    3.5958   20.5303 O   0  0  0  0  0  0  0  0  0  0  0  0
   47.0837    6.5088   18.9074 O   0  0  0  0  0  0  0  0  0  0  0  0
   47.5779    5.9700   21.0184 O   0  0  0  0  0  0  0  0  0  0  0  0
   48.8895    4.9087   17.0385 C   0  0  0  0  0  0  0  0  0  0  0  0
   49.3391    4.4959   18.4375 C   0  0  2  0  0  0  0  0  0  0  0  0
   48.1312    4.3261   19.3566 C   0  0  2  0  0  0  0  0  0  0  0  0
   47.5400    5.6947   19.6938 C   0  0  0  0  0  0  0  0  0  0  0  0
   50.0118    4.2662   20.8818 O   0  0  0  0  0  0  0  0  0  0  0  0
   48.5658    5.9559   20.6602 O   0  0  0  0  0  0  0  0  0  0  0  0
   49.3851    3.0728   18.6638 O   0  0  0  0  0  0  0  0  0  0  0  0
   46.5301    5.2313   18.1984 O   0  0  0  0  0  0  0  0  0  0  0  0
   49.9735    6.1850   17.8465 O   0  0  0  0  0  0  0  0  0  0  0  0
   48.0479    7.1049   17.1825 O   0  0  0  0  0  0  0  0  0  0  0  0
   48.9637    4.8735   20.2692 C   0  0  0  0  0  0  0  0  0  0  0  0
   48.4037    4.0121   19.1338 C   0  0  1  0  0  0  0  0  0  0  0  0
   47.8926    4.8502   17.9598 C   0  0  2  0  0  0  0  0  0  0  0  0
   48.7700    6.0747   17.6886 C   0  0  0  0  0  0  0  0  0  0  0  0
   48.4995    5.4248   18.6448 O   0  0  0  0  0  0  0  0  0  0  0  0
   49.0407    5.0405   19.4493 H   0  0  0  0  0  0  0  0  0  0  0  0
   48.3773    4.7351   18.1093 H   0  0  0  0  0  0  0  0  0  0  0  0
   50.4741    5.4616   22.5947 H   0  0  0  0  0  0  0  0  0  0  0  0
   49.0900    7.4841   23.0615 H   0  0  0  0  0  0  0  0  0  0  0  0
   46.7656    6.8509   19.7268 H   0  0  0  0  0  0  0  0  0  0  0  0
   49.9564    4.0910   20.6053 H   0  0  0  0  0  0  0  0  0  0  0  0
   46.8948    4.1890   18.9848 H   0  0  0  0  0  0  0  0  0  0  0  0
   46.4480    4.0540   16.4819 H   0  0  0  0  0  0  0  0  0  0  0  0
   47.7113    4.6833   15.4359 H   0  0  0  0  0  0  0  0  0  0  0  0
   47.8164    2.2060   16.7251 H   0  0  0  0  0  0  0  0  0  0  0  0
   49.2707    3.0883   16.2347 H   0  0  0  0  0  0  0  0  0  0  0  0
   49.8167    3.5888   18.3702 H   0  0  0  0  0  0  0  0  0  0  0  0
   48.5399    2.4988   18.9253 H   0  0  0  0  0  0  0  0  0  0  0  0
   49.1012    6.9548   17.8829 H   0  0  0  0  0  0  0  0  0  0  0  0
   48.7524    6.6911   16.1902 H   0  0  0  0  0  0  0  0  0  0  0  0
   49.8355    5.5775   17.0385 H   0  0  0  0  0  0  0  0  0  0  0  0
   49.3677    5.9530   15.5824 H   0  0  0  0  0  0  0  0  0  0  0  0
   50.8503    5.6981   18.2718 H   0  0  0  0  0  0  0  0  0  0  0  0
   48.7924    4.2785   21.1785 H   0  0  0  0  0  0  0  0  0  0  0  0
   47.1856    6.8660   21.0874 H   0  0  0  0  0  0  0  0  0  0  0  0
   49.8586    3.5368   18.3293 H   0  0  0  0  0  0  0  0  0  0  0  0
   47.3398    3.7355   18.8838 H   0  0  0  0  0  0  0  0  0  0  0  0
   50.2938    4.9143   21.5629 H   0  0  0  0  0  0  0  0  0  0  0  0
   49.9754    2.9108   19.4283 H   0  0  0  0  0  0  0  0  0  0  0  0
   46.3773    6.0249   17.6465 H   0  0  0  0  0  0  0  0  0  0  0  0
   48.7067    7.8254   17.0825 H   0  0  0  0  0  0  0  0  0  0  0  0
   47.5871    3.4213   19.5641 H   0  0  0  0  0  0  0  0  0  0  0  0
   47.8958    4.2550   17.0391 H   0  0  0  0  0  0  0  0  0  0  0  0
   48.4638    4.5705   18.1909 H   0  0  0  0  0  0  0  0  0  0  0  0
   48.9945    5.2382   19.4558 H   0  0  0  0  0  0  0  0  0  0  0  0
  7  2  2  0
  2  3  1  0
  8  6  1  0
  8  9  1  0
  4  5  1  0
  5  6  2  0
  3  4  2  0
  9 10  1  0
 10 11  1  0
 11 12  1  0
  8 12  1  0
  6  7  1  0
  9 13  1  0
 20 15  2  0
 21 16  1  0
 22 17  1  0
 20 14  1  0
 22 23  1  0
 21 22  1  0
 23 19  1  0
 20 21  1  0
 23 18  2  0
 30 25  2  0
 31 26  1  0
 32 27  1  0
 30 24  1  0
 32 33  1  0
 31 32  1  0
 33 29  1  0
 30 31  1  0
 33 28  2  0
  1 35  1  0
  1 36  1  0
  2 37  1  0
  3 38  1  0
  5 39  1  0
  7 40  1  0
  8 41  1  1
 10 42  1  0
 10 43  1  0
 11 44  1  0
 11 45  1  0
 12 46  1  0
 12 47  1  0
 13 48  1  0
 13 49  1  0
 13 50  1  0
 14 51  1  0
 16 52  1  0
 17 53  1  0
 19 54  1  0
 21 55  1  6
 22 56  1  1
 24 57  1  0
 26 58  1  0
 27 59  1  0
 29 60  1  0
 31 61  1  1
 32 62  1  6
 34 63  1  0
 34 64  1  0
M  END
> <Uni-Dock RESULT> 
ENERGY=   -4.676  LOWER_BOUND=    7.220  UPPER_BOUND=    9.953
INTER + INTRA:          -4.676
INTER:                  -4.676
INTRA:                   0.000
UNBOUND:                 0.000

$$$$
