
     RDKit          3D

 64 61  0  0  0  0  0  0  0  0999 V2000
   44.0986    4.6686   10.5931 O   0  0  0  0  0  0  0  0  0  0  0  0
   45.2400    2.9022    7.7484 C   0  0  0  0  0  0  0  0  0  0  0  0
   46.1406    3.9203    7.4848 C   0  0  0  0  0  0  0  0  0  0  0  0
   46.3252    4.9849    8.2917 N   0  0  0  0  0  0  0  0  0  0  0  0
   45.5754    5.0297    9.4191 C   0  0  0  0  0  0  0  0  0  0  0  0
   44.6420    4.0613    9.7829 C   0  0  0  0  0  0  0  0  0  0  0  0
   44.4796    2.9782    8.9123 C   0  0  0  0  0  0  0  0  0  0  0  0
   43.8113    4.1822   11.0356 C   0  0  1  0  0  0  0  0  0  0  0  0
   44.5719    4.6608   12.2052 N   0  0  0  0  0  0  0  0  0  0  0  0
   43.5919    5.2899   13.0897 C   0  0  0  0  0  0  0  0  0  0  0  0
   42.7582    6.0941   12.1122 C   0  0  0  0  0  0  0  0  0  0  0  0
   42.6742    5.2058   10.8773 C   0  0  0  0  0  0  0  0  0  0  0  0
   45.3137    3.5996   12.8748 C   0  0  0  0  0  0  0  0  0  0  0  0
   46.1718    3.2026    9.3551 O   0  0  0  0  0  0  0  0  0  0  0  0
   44.6256    3.9334    7.9131 O   0  0  0  0  0  0  0  0  0  0  0  0
   44.3243    2.5565   11.1236 O   0  0  0  0  0  0  0  0  0  0  0  0
   43.9752    6.1239   10.1616 O   0  0  0  0  0  0  0  0  0  0  0  0
   42.1577    5.5739   12.1539 O   0  0  0  0  0  0  0  0  0  0  0  0
   43.7650    4.5675   13.3400 O   0  0  0  0  0  0  0  0  0  0  0  0
   44.9230    3.6382    9.0578 C   0  0  0  0  0  0  0  0  0  0  0  0
   44.0264    3.6824   10.2872 C   0  0  2  0  0  0  0  0  0  0  0  0
   44.2372    5.0060   11.0217 C   0  0  2  0  0  0  0  0  0  0  0  0
   43.2765    5.0807   12.1963 C   0  0  0  0  0  0  0  0  0  0  0  0
   42.8620    6.3498   11.5841 O   0  0  0  0  0  0  0  0  0  0  0  0
   42.4819    4.1498   11.5658 O   0  0  0  0  0  0  0  0  0  0  0  0
   45.3649    6.1561   10.8620 O   0  0  0  0  0  0  0  0  0  0  0  0
   45.5023    2.6669   11.6956 O   0  0  0  0  0  0  0  0  0  0  0  0
   44.1849    2.0728    9.3686 O   0  0  0  0  0  0  0  0  0  0  0  0
   43.9940    4.2140    8.7768 O   0  0  0  0  0  0  0  0  0  0  0  0
   43.2876    5.0628   11.5281 C   0  0  0  0  0  0  0  0  0  0  0  0
   44.8128    4.9780   11.4725 C   0  0  1  0  0  0  0  0  0  0  0  0
   45.3226    3.7323   10.7445 C   0  0  2  0  0  0  0  0  0  0  0  0
   44.4356    3.2481    9.6008 C   0  0  0  0  0  0  0  0  0  0  0  0
   44.0996    4.6681   10.5910 O   0  0  0  0  0  0  0  0  0  0  0  0
   44.7575    4.1100   10.1538 H   0  0  0  0  0  0  0  0  0  0  0  0
   44.1415    4.3949   11.5216 H   0  0  0  0  0  0  0  0  0  0  0  0
   45.1316    2.0703    7.0622 H   0  0  0  0  0  0  0  0  0  0  0  0
   46.7555    3.9063    6.5898 H   0  0  0  0  0  0  0  0  0  0  0  0
   45.7521    5.8995   10.0476 H   0  0  0  0  0  0  0  0  0  0  0  0
   43.7630    2.1917    9.1341 H   0  0  0  0  0  0  0  0  0  0  0  0
   43.3560    3.2085   11.2672 H   0  0  0  0  0  0  0  0  0  0  0  0
   42.9659    4.5475   13.6011 H   0  0  0  0  0  0  0  0  0  0  0  0
   44.0643    5.9322   13.8394 H   0  0  0  0  0  0  0  0  0  0  0  0
   41.7702    6.3427   12.5106 H   0  0  0  0  0  0  0  0  0  0  0  0
   43.2676    7.0320   11.8588 H   0  0  0  0  0  0  0  0  0  0  0  0
   41.7087    4.6856   10.8588 H   0  0  0  0  0  0  0  0  0  0  0  0
   42.7391    5.8120    9.9668 H   0  0  0  0  0  0  0  0  0  0  0  0
   46.0561    3.1582   12.2014 H   0  0  0  0  0  0  0  0  0  0  0  0
   45.8650    4.0044   13.7306 H   0  0  0  0  0  0  0  0  0  0  0  0
   44.6598    2.7984   13.2376 H   0  0  0  0  0  0  0  0  0  0  0  0
   46.6319    3.2236    8.4871 H   0  0  0  0  0  0  0  0  0  0  0  0
   45.3000    2.4804   11.1423 H   0  0  0  0  0  0  0  0  0  0  0  0
   43.0042    6.2457   10.1321 H   0  0  0  0  0  0  0  0  0  0  0  0
   43.0389    4.6710   13.9901 H   0  0  0  0  0  0  0  0  0  0  0  0
   42.9911    3.5713    9.9463 H   0  0  0  0  0  0  0  0  0  0  0  0
   45.2616    5.1116   11.3950 H   0  0  0  0  0  0  0  0  0  0  0  0
   41.8843    6.2689   11.6288 H   0  0  0  0  0  0  0  0  0  0  0  0
   44.7966    6.8947   11.1601 H   0  0  0  0  0  0  0  0  0  0  0  0
   45.4437    1.8313   11.1898 H   0  0  0  0  0  0  0  0  0  0  0  0
   43.4757    3.7325    8.0970 H   0  0  0  0  0  0  0  0  0  0  0  0
   45.1613    4.9752   12.5121 H   0  0  0  0  0  0  0  0  0  0  0  0
   46.3108    3.9250   10.3112 H   0  0  0  0  0  0  0  0  0  0  0  0
   44.1386    4.3980   11.5208 H   0  0  0  0  0  0  0  0  0  0  0  0
   44.7595    4.1073   10.1565 H   0  0  0  0  0  0  0  0  0  0  0  0
  7  2  2  0
  2  3  1  0
  8  6  1  0
  8  9  1  0
  4  5  1  0
  5  6  2  0
  3  4  2  0
  9 10  1  0
 10 11  1  0
 11 12  1  0
  8 12  1  0
  6  7  1  0
  9 13  1  0
 20 15  2  0
 21 16  1  0
 22 17  1  0
 20 14  1  0
 22 23  1  0
 21 22  1  0
 23 19  1  0
 20 21  1  0
 23 18  2  0
 30 25  2  0
 31 26  1  0
 32 27  1  0
 30 24  1  0
 32 33  1  0
 31 32  1  0
 33 29  1  0
 30 31  1  0
 33 28  2  0
  1 35  1  0
  1 36  1  0
  2 37  1  0
  3 38  1  0
  5 39  1  0
  7 40  1  0
  8 41  1  6
 10 42  1  0
 10 43  1  0
 11 44  1  0
 11 45  1  0
 12 46  1  0
 12 47  1  0
 13 48  1  0
 13 49  1  0
 13 50  1  0
 14 51  1  0
 16 52  1  0
 17 53  1  0
 19 54  1  0
 21 55  1  6
 22 56  1  1
 24 57  1  0
 26 58  1  0
 27 59  1  0
 29 60  1  0
 31 61  1  1
 32 62  1  1
 34 63  1  0
 34 64  1  0
M  END
> <Uni-Dock RESULT> 
ENERGY=   -7.045  LOWER_BOUND=    0.000  UPPER_BOUND=    0.000
INTER + INTRA:          -7.045
INTER:                  -7.045
INTRA:                   0.000
UNBOUND:                 0.000

$$$$

     RDKit          3D

 64 61  0  0  0  0  0  0  0  0999 V2000
   44.5835    4.9072   11.9410 O   0  0  0  0  0  0  0  0  0  0  0  0
   45.4853    8.2740   12.5465 C   0  0  0  0  0  0  0  0  0  0  0  0
   46.6173    7.8439   13.2179 C   0  0  0  0  0  0  0  0  0  0  0  0
   46.9868    6.5503   13.3115 N   0  0  0  0  0  0  0  0  0  0  0  0
   46.1869    5.6445   12.6993 C   0  0  0  0  0  0  0  0  0  0  0  0
   45.0274    5.9657   11.9967 C   0  0  0  0  0  0  0  0  0  0  0  0
   44.6797    7.3193   11.9314 C   0  0  0  0  0  0  0  0  0  0  0  0
   44.1577    4.9090   11.3635 C   0  0  1  0  0  0  0  0  0  0  0  0
   44.9205    3.8457   10.6830 N   0  0  0  0  0  0  0  0  0  0  0  0
   44.0531    2.6682   10.6833 C   0  0  0  0  0  0  0  0  0  0  0  0
   43.5072    2.6815   12.0973 C   0  0  0  0  0  0  0  0  0  0  0  0
   43.3085    4.1604   12.4047 C   0  0  0  0  0  0  0  0  0  0  0  0
   45.3397    4.2178    9.3375 C   0  0  0  0  0  0  0  0  0  0  0  0
   46.3395    7.0524   11.3984 O   0  0  0  0  0  0  0  0  0  0  0  0
   45.1204    7.3569   13.2492 O   0  0  0  0  0  0  0  0  0  0  0  0
   44.2656    6.0587   10.1063 O   0  0  0  0  0  0  0  0  0  0  0  0
   44.8386    4.1635   13.2453 O   0  0  0  0  0  0  0  0  0  0  0  0
   42.7997    2.9494   11.8510 O   0  0  0  0  0  0  0  0  0  0  0  0
   44.0322    3.0255    9.9859 O   0  0  0  0  0  0  0  0  0  0  0  0
   45.2540    6.8034   12.1713 C   0  0  0  0  0  0  0  0  0  0  0  0
   44.3042    5.8095   11.5177 C   0  0  2  0  0  0  0  0  0  0  0  0
   44.7654    4.3863   11.8300 C   0  0  2  0  0  0  0  0  0  0  0  0
   43.7646    3.4013   11.2498 C   0  0  0  0  0  0  0  0  0  0  0  0
   43.7072    2.8808   12.6220 O   0  0  0  0  0  0  0  0  0  0  0  0
   42.8223    4.4051   11.2514 O   0  0  0  0  0  0  0  0  0  0  0  0
   46.1408    3.8174   12.4660 O   0  0  0  0  0  0  0  0  0  0  0  0
   45.3906    5.7216    9.5165 O   0  0  0  0  0  0  0  0  0  0  0  0
   44.1471    7.6071   11.0664 O   0  0  0  0  0  0  0  0  0  0  0  0
   44.5102    6.4818   12.9567 O   0  0  0  0  0  0  0  0  0  0  0  0
   43.8208    3.8808   11.7122 C   0  0  0  0  0  0  0  0  0  0  0  0
   45.2831    4.1602   11.3650 C   0  0  1  0  0  0  0  0  0  0  0  0
   45.5380    5.6091   10.9439 C   0  0  2  0  0  0  0  0  0  0  0  0
   44.6495    6.6435   11.6295 C   0  0  0  0  0  0  0  0  0  0  0  0
   44.5845    4.9091   11.9419 O   0  0  0  0  0  0  0  0  0  0  0  0
   45.1232    5.6865   11.7396 H   0  0  0  0  0  0  0  0  0  0  0  0
   44.4916    4.4591   11.0868 H   0  0  0  0  0  0  0  0  0  0  0  0
   45.2355    9.3278   12.5052 H   0  0  0  0  0  0  0  0  0  0  0  0
   47.2765    8.5501   13.7139 H   0  0  0  0  0  0  0  0  0  0  0  0
   46.5161    4.6121   12.7922 H   0  0  0  0  0  0  0  0  0  0  0  0
   43.7838    7.6364   11.4043 H   0  0  0  0  0  0  0  0  0  0  0  0
   43.4700    5.3827   10.6479 H   0  0  0  0  0  0  0  0  0  0  0  0
   43.2337    2.7631    9.9594 H   0  0  0  0  0  0  0  0  0  0  0  0
   44.6063    1.7475   10.4741 H   0  0  0  0  0  0  0  0  0  0  0  0
   42.5787    2.1110   12.1927 H   0  0  0  0  0  0  0  0  0  0  0  0
   44.2405    2.2548   12.7927 H   0  0  0  0  0  0  0  0  0  0  0  0
   42.2518    4.4271   12.2805 H   0  0  0  0  0  0  0  0  0  0  0  0
   43.5818    4.3735   13.4442 H   0  0  0  0  0  0  0  0  0  0  0  0
   46.0053    5.0871    9.3630 H   0  0  0  0  0  0  0  0  0  0  0  0
   45.9055    3.4005    8.8771 H   0  0  0  0  0  0  0  0  0  0  0  0
   44.4904    4.4544    8.6864 H   0  0  0  0  0  0  0  0  0  0  0  0
   46.8549    7.6968   11.9320 H   0  0  0  0  0  0  0  0  0  0  0  0
   45.1917    6.2151    9.8309 H   0  0  0  0  0  0  0  0  0  0  0  0
   43.9285    3.9829   13.5579 H   0  0  0  0  0  0  0  0  0  0  0  0
   43.3045    2.4133    9.7483 H   0  0  0  0  0  0  0  0  0  0  0  0
   43.3001    6.0030   11.9112 H   0  0  0  0  0  0  0  0  0  0  0  0
   45.7551    4.1728   11.4121 H   0  0  0  0  0  0  0  0  0  0  0  0
   42.7374    2.7911   12.7480 H   0  0  0  0  0  0  0  0  0  0  0  0
   45.7418    3.0198   12.8686 H   0  0  0  0  0  0  0  0  0  0  0  0
   45.1747    6.6582    9.3333 H   0  0  0  0  0  0  0  0  0  0  0  0
   43.9452    7.2347   13.2332 H   0  0  0  0  0  0  0  0  0  0  0  0
   45.5428    3.4791   10.5459 H   0  0  0  0  0  0  0  0  0  0  0  0
   46.5732    5.8917   11.1675 H   0  0  0  0  0  0  0  0  0  0  0  0
   44.4896    4.4570   11.0901 H   0  0  0  0  0  0  0  0  0  0  0  0
   45.1243    5.6868   11.7353 H   0  0  0  0  0  0  0  0  0  0  0  0
  7  2  2  0
  2  3  1  0
  8  6  1  0
  8  9  1  0
  4  5  1  0
  5  6  2  0
  3  4  2  0
  9 10  1  0
 10 11  1  0
 11 12  1  0
  8 12  1  0
  6  7  1  0
  9 13  1  0
 20 15  2  0
 21 16  1  0
 22 17  1  0
 20 14  1  0
 22 23  1  0
 21 22  1  0
 23 19  1  0
 20 21  1  0
 23 18  2  0
 30 25  2  0
 31 26  1  0
 32 27  1  0
 30 24  1  0
 32 33  1  0
 31 32  1  0
 33 29  1  0
 30 31  1  0
 33 28  2  0
  1 35  1  0
  1 36  1  0
  2 37  1  0
  3 38  1  0
  5 39  1  0
  7 40  1  0
  8 41  1  6
 10 42  1  0
 10 43  1  0
 11 44  1  0
 11 45  1  0
 12 46  1  0
 12 47  1  0
 13 48  1  0
 13 49  1  0
 13 50  1  0
 14 51  1  0
 16 52  1  0
 17 53  1  0
 19 54  1  0
 21 55  1  6
 22 56  1  1
 24 57  1  0
 26 58  1  0
 27 59  1  0
 29 60  1  0
 31 61  1  1
 32 62  1  1
 34 63  1  0
 34 64  1  0
M  END
> <Uni-Dock RESULT> 
ENERGY=   -6.554  LOWER_BOUND=    1.724  UPPER_BOUND=    3.761
INTER + INTRA:          -6.554
INTER:                  -6.554
INTRA:                   0.000
UNBOUND:                 0.000

$$$$

     RDKit          3D

 64 61  0  0  0  0  0  0  0  0999 V2000
   44.9580    5.8544   11.9355 O   0  0  0  0  0  0  0  0  0  0  0  0
   43.4187    2.6891   11.5794 C   0  0  0  0  0  0  0  0  0  0  0  0
   44.0484    2.5269   10.3570 C   0  0  0  0  0  0  0  0  0  0  0  0
   44.9424    3.4017    9.8528 N   0  0  0  0  0  0  0  0  0  0  0  0
   45.2229    4.4885   10.6113 C   0  0  0  0  0  0  0  0  0  0  0  0
   44.6502    4.7502   11.8542 C   0  0  0  0  0  0  0  0  0  0  0  0
   43.7234    3.8186   12.3344 C   0  0  0  0  0  0  0  0  0  0  0  0
   44.9771    5.9959   12.6387 C   0  0  1  0  0  0  0  0  0  0  0  0
   46.4101    6.3445   12.6239 N   0  0  0  0  0  0  0  0  0  0  0  0
   46.4733    7.7874   12.8538 C   0  0  0  0  0  0  0  0  0  0  0  0
   45.3681    8.2974   11.9505 C   0  0  0  0  0  0  0  0  0  0  0  0
   44.2776    7.2396   12.0647 C   0  0  0  0  0  0  0  0  0  0  0  0
   47.1878    5.5982   13.6051 C   0  0  0  0  0  0  0  0  0  0  0  0
   45.2416    3.0443   11.8810 O   0  0  0  0  0  0  0  0  0  0  0  0
   43.3067    3.7527   11.0100 O   0  0  0  0  0  0  0  0  0  0  0  0
   45.0830    4.7953   13.8476 O   0  0  0  0  0  0  0  0  0  0  0  0
   44.8478    6.5299   10.5750 O   0  0  0  0  0  0  0  0  0  0  0  0
   44.8847    8.4266   12.5691 O   0  0  0  0  0  0  0  0  0  0  0  0
   46.6302    7.3961   13.5146 O   0  0  0  0  0  0  0  0  0  0  0  0
   44.2562    3.9652   11.7444 C   0  0  0  0  0  0  0  0  0  0  0  0
   44.5068    5.2000   12.5985 C   0  0  2  0  0  0  0  0  0  0  0  0
   45.4174    6.1652   11.8403 C   0  0  2  0  0  0  0  0  0  0  0  0
   45.5913    7.4321   12.6606 C   0  0  0  0  0  0  0  0  0  0  0  0
   45.1188    8.1062   11.4442 O   0  0  0  0  0  0  0  0  0  0  0  0
   44.4259    7.1244   13.3259 O   0  0  0  0  0  0  0  0  0  0  0  0
   46.3012    5.9781   10.4972 O   0  0  0  0  0  0  0  0  0  0  0  0
   46.3156    4.3630   13.7034 O   0  0  0  0  0  0  0  0  0  0  0  0
   43.6674    3.7387   13.3858 O   0  0  0  0  0  0  0  0  0  0  0  0
   43.5291    4.7603   11.4087 O   0  0  0  0  0  0  0  0  0  0  0  0
   45.1282    7.0799   12.3315 C   0  0  0  0  0  0  0  0  0  0  0  0
   46.1239    5.9942   11.9233 C   0  0  1  0  0  0  0  0  0  0  0  0
   45.7291    4.5982   12.4101 C   0  0  2  0  0  0  0  0  0  0  0  0
   44.2260    4.3431   12.4798 C   0  0  0  0  0  0  0  0  0  0  0  0
   44.9571    5.8524   11.9346 O   0  0  0  0  0  0  0  0  0  0  0  0
   44.9984    4.8868   11.9698 H   0  0  0  0  0  0  0  0  0  0  0  0
   45.5849    6.1391   12.6172 H   0  0  0  0  0  0  0  0  0  0  0  0
   42.7060    1.9539   11.9346 H   0  0  0  0  0  0  0  0  0  0  0  0
   43.8434    1.6631    9.7316 H   0  0  0  0  0  0  0  0  0  0  0  0
   45.9496    5.1706   10.1760 H   0  0  0  0  0  0  0  0  0  0  0  0
   43.2354    3.9668   13.2941 H   0  0  0  0  0  0  0  0  0  0  0  0
   44.6403    5.8717   13.6781 H   0  0  0  0  0  0  0  0  0  0  0  0
   46.2585    8.0453   13.8987 H   0  0  0  0  0  0  0  0  0  0  0  0
   47.4452    8.2077   12.5773 H   0  0  0  0  0  0  0  0  0  0  0  0
   45.0134    9.2901   12.2429 H   0  0  0  0  0  0  0  0  0  0  0  0
   45.7201    8.3548   10.9131 H   0  0  0  0  0  0  0  0  0  0  0  0
   43.5006    7.5804   12.7597 H   0  0  0  0  0  0  0  0  0  0  0  0
   43.8007    7.0776   11.0915 H   0  0  0  0  0  0  0  0  0  0  0  0
   47.1443    4.5231   13.4008 H   0  0  0  0  0  0  0  0  0  0  0  0
   48.2431    5.8872   13.5516 H   0  0  0  0  0  0  0  0  0  0  0  0
   46.8387    5.7674   14.6302 H   0  0  0  0  0  0  0  0  0  0  0  0
   44.9555    2.3161   11.2866 H   0  0  0  0  0  0  0  0  0  0  0  0
   45.7537    4.1159   13.6318 H   0  0  0  0  0  0  0  0  0  0  0  0
   44.1814    7.2262   10.7469 H   0  0  0  0  0  0  0  0  0  0  0  0
   46.6044    8.2607   13.9756 H   0  0  0  0  0  0  0  0  0  0  0  0
   43.5340    5.6533   12.8191 H   0  0  0  0  0  0  0  0  0  0  0  0
   46.4043    5.7324   11.6438 H   0  0  0  0  0  0  0  0  0  0  0  0
   44.4611    8.7314   11.8198 H   0  0  0  0  0  0  0  0  0  0  0  0
   46.2586    6.9152   10.2187 H   0  0  0  0  0  0  0  0  0  0  0  0
   45.7626    3.6832   14.1387 H   0  0  0  0  0  0  0  0  0  0  0  0
   42.6050    4.4949   11.6042 H   0  0  0  0  0  0  0  0  0  0  0  0
   47.0906    6.2830   12.3526 H   0  0  0  0  0  0  0  0  0  0  0  0
   46.1435    3.8336   11.7429 H   0  0  0  0  0  0  0  0  0  0  0  0
   45.5830    6.1424   12.6152 H   0  0  0  0  0  0  0  0  0  0  0  0
   45.0012    4.8853   11.9728 H   0  0  0  0  0  0  0  0  0  0  0  0
  7  2  2  0
  2  3  1  0
  8  6  1  0
  8  9  1  0
  4  5  1  0
  5  6  2  0
  3  4  2  0
  9 10  1  0
 10 11  1  0
 11 12  1  0
  8 12  1  0
  6  7  1  0
  9 13  1  0
 20 15  2  0
 21 16  1  0
 22 17  1  0
 20 14  1  0
 22 23  1  0
 21 22  1  0
 23 19  1  0
 20 21  1  0
 23 18  2  0
 30 25  2  0
 31 26  1  0
 32 27  1  0
 30 24  1  0
 32 33  1  0
 31 32  1  0
 33 29  1  0
 30 31  1  0
 33 28  2  0
  1 35  1  0
  1 36  1  0
  2 37  1  0
  3 38  1  0
  5 39  1  0
  7 40  1  0
  8 41  1  6
 10 42  1  0
 10 43  1  0
 11 44  1  0
 11 45  1  0
 12 46  1  0
 12 47  1  0
 13 48  1  0
 13 49  1  0
 13 50  1  0
 14 51  1  0
 16 52  1  0
 17 53  1  0
 19 54  1  0
 21 55  1  6
 22 56  1  1
 24 57  1  0
 26 58  1  0
 27 59  1  0
 29 60  1  0
 31 61  1  1
 32 62  1  1
 34 63  1  0
 34 64  1  0
M  END
> <Uni-Dock RESULT> 
ENERGY=   -5.770  LOWER_BOUND=    1.924  UPPER_BOUND=    2.977
INTER + INTRA:          -5.770
INTER:                  -5.770
INTRA:                   0.000
UNBOUND:                 0.000

$$$$

     RDKit          3D

 64 61  0  0  0  0  0  0  0  0999 V2000
   44.7306    4.9221   11.3139 O   0  0  0  0  0  0  0  0  0  0  0  0
   46.3234    7.8313   12.5444 C   0  0  0  0  0  0  0  0  0  0  0  0
   45.3192    8.6079   11.9917 C   0  0  0  0  0  0  0  0  0  0  0  0
   44.2293    8.0999   11.3811 N   0  0  0  0  0  0  0  0  0  0  0  0
   44.1386    6.7493   11.3255 C   0  0  0  0  0  0  0  0  0  0  0  0
   45.0881    5.8742   11.8488 C   0  0  0  0  0  0  0  0  0  0  0  0
   46.2051    6.4461   12.4675 C   0  0  0  0  0  0  0  0  0  0  0  0
   44.9490    4.3776   11.7271 C   0  0  1  0  0  0  0  0  0  0  0  0
   43.5782    3.8899   11.9694 N   0  0  0  0  0  0  0  0  0  0  0  0
   43.4704    2.6235   11.2460 C   0  0  0  0  0  0  0  0  0  0  0  0
   44.1332    2.9598    9.9250 C   0  0  0  0  0  0  0  0  0  0  0  0
   45.2843    3.8801   10.3109 C   0  0  0  0  0  0  0  0  0  0  0  0
   43.2693    3.7403   13.3860 C   0  0  0  0  0  0  0  0  0  0  0  0
   44.7013    7.0822   13.1340 O   0  0  0  0  0  0  0  0  0  0  0  0
   46.1299    7.3770   11.4379 O   0  0  0  0  0  0  0  0  0  0  0  0
   45.3869    4.5458   13.3684 O   0  0  0  0  0  0  0  0  0  0  0  0
   44.2903    5.2534    9.8941 O   0  0  0  0  0  0  0  0  0  0  0  0
   44.7905    2.5565   10.1207 O   0  0  0  0  0  0  0  0  0  0  0  0
   43.5937    2.4950   12.0093 O   0  0  0  0  0  0  0  0  0  0  0  0
   45.4869    6.6109   12.1348 C   0  0  0  0  0  0  0  0  0  0  0  0
   45.4444    5.0920   12.0439 C   0  0  2  0  0  0  0  0  0  0  0  0
   44.2411    4.6675   11.2028 C   0  0  2  0  0  0  0  0  0  0  0  0
   44.2551    3.1567   11.0426 C   0  0  0  0  0  0  0  0  0  0  0  0
   44.2033    3.4582    9.6060 O   0  0  0  0  0  0  0  0  0  0  0  0
   45.6033    3.1706   11.3213 O   0  0  0  0  0  0  0  0  0  0  0  0
   42.9598    5.4971   10.6643 O   0  0  0  0  0  0  0  0  0  0  0  0
   44.2276    4.7730   13.9441 O   0  0  0  0  0  0  0  0  0  0  0  0
   46.6366    5.8708   13.2405 O   0  0  0  0  0  0  0  0  0  0  0  0
   45.9730    6.3180   11.1594 O   0  0  0  0  0  0  0  0  0  0  0  0
   44.6015    3.7047   10.8793 C   0  0  0  0  0  0  0  0  0  0  0  0
   43.6283    4.6365   11.6013 C   0  0  1  0  0  0  0  0  0  0  0  0
   44.2943    5.4789   12.6914 C   0  0  2  0  0  0  0  0  0  0  0  0
   45.7413    5.8717   12.4060 C   0  0  0  0  0  0  0  0  0  0  0  0
   44.7312    4.9243   11.3142 O   0  0  0  0  0  0  0  0  0  0  0  0
   44.7925    5.6424   11.9592 H   0  0  0  0  0  0  0  0  0  0  0  0
   44.3626    4.1837   11.8221 H   0  0  0  0  0  0  0  0  0  0  0  0
   47.1791    8.2944   13.0220 H   0  0  0  0  0  0  0  0  0  0  0  0
   45.3667    9.6923   12.0259 H   0  0  0  0  0  0  0  0  0  0  0  0
   43.2464    6.3743   10.8294 H   0  0  0  0  0  0  0  0  0  0  0  0
   46.9857    5.8193   12.8904 H   0  0  0  0  0  0  0  0  0  0  0  0
   45.6417    3.8883   12.4271 H   0  0  0  0  0  0  0  0  0  0  0  0
   44.0169    1.8162   11.7500 H   0  0  0  0  0  0  0  0  0  0  0  0
   42.4298    2.3144   11.1070 H   0  0  0  0  0  0  0  0  0  0  0  0
   44.4772    2.0692    9.3908 H   0  0  0  0  0  0  0  0  0  0  0  0
   43.4330    3.4969    9.2734 H   0  0  0  0  0  0  0  0  0  0  0  0
   46.2229    3.3129   10.3310 H   0  0  0  0  0  0  0  0  0  0  0  0
   45.3983    4.6790    9.5695 H   0  0  0  0  0  0  0  0  0  0  0  0
   43.3346    4.7037   13.9030 H   0  0  0  0  0  0  0  0  0  0  0  0
   42.2419    3.3825   13.5142 H   0  0  0  0  0  0  0  0  0  0  0  0
   43.9418    3.0351   13.8875 H   0  0  0  0  0  0  0  0  0  0  0  0
   44.8230    8.0557   13.0782 H   0  0  0  0  0  0  0  0  0  0  0  0
   44.7476    5.0971   13.8638 H   0  0  0  0  0  0  0  0  0  0  0  0
   44.9085    4.7155    9.3586 H   0  0  0  0  0  0  0  0  0  0  0  0
   43.7027    1.5476   11.7827 H   0  0  0  0  0  0  0  0  0  0  0  0
   46.3871    4.7605   11.5944 H   0  0  0  0  0  0  0  0  0  0  0  0
   43.2920    4.9661   11.6610 H   0  0  0  0  0  0  0  0  0  0  0  0
   44.8919    2.8486    9.2616 H   0  0  0  0  0  0  0  0  0  0  0  0
   42.8161    4.9508    9.8654 H   0  0  0  0  0  0  0  0  0  0  0  0
   44.9580    5.1186   14.4960 H   0  0  0  0  0  0  0  0  0  0  0  0
   46.9264    6.5496   11.1597 H   0  0  0  0  0  0  0  0  0  0  0  0
   42.8544    3.9962   12.0408 H   0  0  0  0  0  0  0  0  0  0  0  0
   43.7416    6.4141   12.8377 H   0  0  0  0  0  0  0  0  0  0  0  0
   44.3634    4.1827   11.8179 H   0  0  0  0  0  0  0  0  0  0  0  0
   44.7911    5.6413   11.9632 H   0  0  0  0  0  0  0  0  0  0  0  0
  7  2  2  0
  2  3  1  0
  8  6  1  0
  8  9  1  0
  4  5  1  0
  5  6  2  0
  3  4  2  0
  9 10  1  0
 10 11  1  0
 11 12  1  0
  8 12  1  0
  6  7  1  0
  9 13  1  0
 20 15  2  0
 21 16  1  0
 22 17  1  0
 20 14  1  0
 22 23  1  0
 21 22  1  0
 23 19  1  0
 20 21  1  0
 23 18  2  0
 30 25  2  0
 31 26  1  0
 32 27  1  0
 30 24  1  0
 32 33  1  0
 31 32  1  0
 33 29  1  0
 30 31  1  0
 33 28  2  0
  1 35  1  0
  1 36  1  0
  2 37  1  0
  3 38  1  0
  5 39  1  0
  7 40  1  0
  8 41  1  6
 10 42  1  0
 10 43  1  0
 11 44  1  0
 11 45  1  0
 12 46  1  0
 12 47  1  0
 13 48  1  0
 13 49  1  0
 13 50  1  0
 14 51  1  0
 16 52  1  0
 17 53  1  0
 19 54  1  0
 21 55  1  6
 22 56  1  1
 24 57  1  0
 26 58  1  0
 27 59  1  0
 29 60  1  0
 31 61  1  1
 32 62  1  1
 34 63  1  0
 34 64  1  0
M  END
> <Uni-Dock RESULT> 
ENERGY=   -5.366  LOWER_BOUND=    1.641  UPPER_BOUND=    3.653
INTER + INTRA:          -5.366
INTER:                  -5.366
INTRA:                   0.000
UNBOUND:                 0.000

$$$$

     RDKit          3D

 64 61  0  0  0  0  0  0  0  0999 V2000
   48.4239    4.4526   18.5457 O   0  0  0  0  0  0  0  0  0  0  0  0
   48.8020    5.4543   21.9174 C   0  0  0  0  0  0  0  0  0  0  0  0
   50.1552    5.1704   21.8439 C   0  0  0  0  0  0  0  0  0  0  0  0
   50.7794    4.7845   20.7125 N   0  0  0  0  0  0  0  0  0  0  0  0
   50.0127    4.6826   19.6003 C   0  0  0  0  0  0  0  0  0  0  0  0
   48.6448    4.9446   19.5603 C   0  0  0  0  0  0  0  0  0  0  0  0
   48.0385    5.3357   20.7590 C   0  0  0  0  0  0  0  0  0  0  0  0
   47.8361    4.7813   18.2981 C   0  0  1  0  0  0  0  0  0  0  0  0
   48.5154    5.2887   17.0912 N   0  0  0  0  0  0  0  0  0  0  0  0
   47.9468    4.5432   15.9688 C   0  0  0  0  0  0  0  0  0  0  0  0
   47.9204    3.1289   16.5131 C   0  0  0  0  0  0  0  0  0  0  0  0
   47.5529    3.3030   17.9814 C   0  0  0  0  0  0  0  0  0  0  0  0
   48.3732    6.7293   16.9211 C   0  0  0  0  0  0  0  0  0  0  0  0
   49.4380    6.3415   20.3850 O   0  0  0  0  0  0  0  0  0  0  0  0
   48.8829    4.3943   21.3361 O   0  0  0  0  0  0  0  0  0  0  0  0
   47.2855    6.2959   18.8608 O   0  0  0  0  0  0  0  0  0  0  0  0
   49.2453    3.1793   18.3916 O   0  0  0  0  0  0  0  0  0  0  0  0
   47.1335    3.1580   16.6267 O   0  0  0  0  0  0  0  0  0  0  0  0
   47.6218    5.2547   16.0197 O   0  0  0  0  0  0  0  0  0  0  0  0
   48.7490    5.1743   20.4088 C   0  0  0  0  0  0  0  0  0  0  0  0
   47.8474    5.0190   19.1922 C   0  0  2  0  0  0  0  0  0  0  0  0
   48.6554    4.4369   18.0329 C   0  0  2  0  0  0  0  0  0  0  0  0
   47.7300    4.2024   16.8509 C   0  0  0  0  0  0  0  0  0  0  0  0
   48.2432    2.8276   16.9132 O   0  0  0  0  0  0  0  0  0  0  0  0
   46.6673    4.1843   17.7261 O   0  0  0  0  0  0  0  0  0  0  0  0
   50.2477    4.2294   17.8300 O   0  0  0  0  0  0  0  0  0  0  0  0
   48.1872    7.1185   18.3737 O   0  0  0  0  0  0  0  0  0  0  0  0
   47.1993    5.9679   20.6548 O   0  0  0  0  0  0  0  0  0  0  0  0
   48.3929    4.1036   20.3878 O   0  0  0  0  0  0  0  0  0  0  0  0
   47.8447    3.9958   17.4763 C   0  0  0  0  0  0  0  0  0  0  0  0
   49.0187    4.9561   17.6671 C   0  0  1  0  0  0  0  0  0  0  0  0
   48.8280    5.9177   18.8421 C   0  0  2  0  0  0  0  0  0  0  0  0
   48.0403    5.3471   20.0183 C   0  0  0  0  0  0  0  0  0  0  0  0
   48.4248    4.4528   18.5478 O   0  0  0  0  0  0  0  0  0  0  0  0
   48.7004    5.1043   19.2073 H   0  0  0  0  0  0  0  0  0  0  0  0
   48.1376    4.9906   17.7924 H   0  0  0  0  0  0  0  0  0  0  0  0
   48.3524    5.7587   22.8554 H   0  0  0  0  0  0  0  0  0  0  0  0
   50.7920    5.2476   22.7201 H   0  0  0  0  0  0  0  0  0  0  0  0
   50.5486    4.3723   18.7063 H   0  0  0  0  0  0  0  0  0  0  0  0
   46.9735    5.5486   20.7975 H   0  0  0  0  0  0  0  0  0  0  0  0
   46.8685    5.2902   18.4159 H   0  0  0  0  0  0  0  0  0  0  0  0
   46.9291    4.8767   15.7294 H   0  0  0  0  0  0  0  0  0  0  0  0
   48.5650    4.6166   15.0686 H   0  0  0  0  0  0  0  0  0  0  0  0
   47.2093    2.4894   15.9820 H   0  0  0  0  0  0  0  0  0  0  0  0
   48.9140    2.6711   16.4326 H   0  0  0  0  0  0  0  0  0  0  0  0
   46.4862    3.0921   18.1250 H   0  0  0  0  0  0  0  0  0  0  0  0
   48.1147    2.5953   18.6012 H   0  0  0  0  0  0  0  0  0  0  0  0
   48.8249    7.2674   17.7613 H   0  0  0  0  0  0  0  0  0  0  0  0
   48.8978    7.0579   16.0173 H   0  0  0  0  0  0  0  0  0  0  0  0
   47.3249    7.0383   16.8391 H   0  0  0  0  0  0  0  0  0  0  0  0
   49.9673    6.3094   21.2122 H   0  0  0  0  0  0  0  0  0  0  0  0
   48.0143    6.9443   18.9409 H   0  0  0  0  0  0  0  0  0  0  0  0
   48.5486    2.4970   18.3049 H   0  0  0  0  0  0  0  0  0  0  0  0
   46.9911    4.9630   15.3285 H   0  0  0  0  0  0  0  0  0  0  0  0
   47.0186    4.3610   19.4759 H   0  0  0  0  0  0  0  0  0  0  0  0
   49.4667    5.1033   17.7204 H   0  0  0  0  0  0  0  0  0  0  0  0
   47.4107    2.3129   16.8331 H   0  0  0  0  0  0  0  0  0  0  0  0
   50.1724    3.4539   17.2380 H   0  0  0  0  0  0  0  0  0  0  0  0
   47.7437    7.5165   19.1498 H   0  0  0  0  0  0  0  0  0  0  0  0
   47.8195    3.9100   21.1600 H   0  0  0  0  0  0  0  0  0  0  0  0
   49.1134    5.5196   16.7313 H   0  0  0  0  0  0  0  0  0  0  0  0
   49.8015    6.2261   19.2405 H   0  0  0  0  0  0  0  0  0  0  0  0
   48.1373    4.9863   17.7917 H   0  0  0  0  0  0  0  0  0  0  0  0
   48.7000    5.1085   19.2059 H   0  0  0  0  0  0  0  0  0  0  0  0
  7  2  2  0
  2  3  1  0
  8  6  1  0
  8  9  1  0
  4  5  1  0
  5  6  2  0
  3  4  2  0
  9 10  1  0
 10 11  1  0
 11 12  1  0
  8 12  1  0
  6  7  1  0
  9 13  1  0
 20 15  2  0
 21 16  1  0
 22 17  1  0
 20 14  1  0
 22 23  1  0
 21 22  1  0
 23 19  1  0
 20 21  1  0
 23 18  2  0
 30 25  2  0
 31 26  1  0
 32 27  1  0
 30 24  1  0
 32 33  1  0
 31 32  1  0
 33 29  1  0
 30 31  1  0
 33 28  2  0
  1 35  1  0
  1 36  1  0
  2 37  1  0
  3 38  1  0
  5 39  1  0
  7 40  1  0
  8 41  1  6
 10 42  1  0
 10 43  1  0
 11 44  1  0
 11 45  1  0
 12 46  1  0
 12 47  1  0
 13 48  1  0
 13 49  1  0
 13 50  1  0
 14 51  1  0
 16 52  1  0
 17 53  1  0
 19 54  1  0
 21 55  1  6
 22 56  1  1
 24 57  1  0
 26 58  1  0
 27 59  1  0
 29 60  1  0
 31 61  1  1
 32 62  1  1
 34 63  1  0
 34 64  1  0
M  END
> <Uni-Dock RESULT> 
ENERGY=   -5.365  LOWER_BOUND=    7.263  UPPER_BOUND=    9.905
INTER + INTRA:          -5.365
INTER:                  -5.365
INTRA:                   0.000
UNBOUND:                 0.000

$$$$

     RDKit          3D

 64 61  0  0  0  0  0  0  0  0999 V2000
   45.3878    5.6745   12.0723 O   0  0  0  0  0  0  0  0  0  0  0  0
   44.1507    2.8338   10.3652 C   0  0  0  0  0  0  0  0  0  0  0  0
   43.5015    2.4300   11.5195 C   0  0  0  0  0  0  0  0  0  0  0  0
   43.4714    3.1564   12.6554 N   0  0  0  0  0  0  0  0  0  0  0  0
   44.1183    4.3464   12.6325 C   0  0  0  0  0  0  0  0  0  0  0  0
   44.8013    4.8502   11.5275 C   0  0  0  0  0  0  0  0  0  0  0  0
   44.8113    4.0594   10.3733 C   0  0  0  0  0  0  0  0  0  0  0  0
   45.5323    6.1684   11.5722 C   0  0  1  0  0  0  0  0  0  0  0  0
   44.7907    7.2318   12.2755 N   0  0  0  0  0  0  0  0  0  0  0  0
   45.8015    8.1708   12.7606 C   0  0  0  0  0  0  0  0  0  0  0  0
   46.8598    7.2355   13.3107 C   0  0  0  0  0  0  0  0  0  0  0  0
   46.8633    6.0646   12.3360 C   0  0  0  0  0  0  0  0  0  0  0  0
   43.7952    7.8839   11.4338 C   0  0  0  0  0  0  0  0  0  0  0  0
   43.1695    4.3249   10.9600 O   0  0  0  0  0  0  0  0  0  0  0  0
   44.9466    3.0003   11.2634 O   0  0  0  0  0  0  0  0  0  0  0  0
   44.6932    6.2951   10.0910 O   0  0  0  0  0  0  0  0  0  0  0  0
   45.8407    5.1784   13.4391 O   0  0  0  0  0  0  0  0  0  0  0  0
   47.3361    7.3629   12.6863 O   0  0  0  0  0  0  0  0  0  0  0  0
   45.4646    8.4422   12.1069 O   0  0  0  0  0  0  0  0  0  0  0  0
   44.5012    4.1256   11.1169 C   0  0  0  0  0  0  0  0  0  0  0  0
   45.2827    5.4312   11.0718 C   0  0  2  0  0  0  0  0  0  0  0  0
   45.2858    6.0689   12.4607 C   0  0  2  0  0  0  0  0  0  0  0  0
   46.1407    7.3245   12.4288 C   0  0  0  0  0  0  0  0  0  0  0  0
   46.8546    6.6867   13.5428 O   0  0  0  0  0  0  0  0  0  0  0  0
   46.7785    6.8248   11.3157 O   0  0  0  0  0  0  0  0  0  0  0  0
   44.4335    5.7394   13.7966 O   0  0  0  0  0  0  0  0  0  0  0  0
   43.5191    6.7446   10.4737 O   0  0  0  0  0  0  0  0  0  0  0  0
   44.8764    4.5905    9.4631 O   0  0  0  0  0  0  0  0  0  0  0  0
   45.5481    3.9042   11.4754 O   0  0  0  0  0  0  0  0  0  0  0  0
   46.1817    6.6603   12.3649 C   0  0  0  0  0  0  0  0  0  0  0  0
   44.6812    6.4632   12.5801 C   0  0  1  0  0  0  0  0  0  0  0  0
   43.9905    5.7586   11.4105 C   0  0  2  0  0  0  0  0  0  0  0  0
   44.8520    4.7333   10.6784 C   0  0  0  0  0  0  0  0  0  0  0  0
   45.3870    5.6724   12.0719 O   0  0  0  0  0  0  0  0  0  0  0  0
   44.6678    5.2051   11.6249 H   0  0  0  0  0  0  0  0  0  0  0  0
   45.2131    6.6082   11.8807 H   0  0  0  0  0  0  0  0  0  0  0  0
   44.1438    2.2075    9.4806 H   0  0  0  0  0  0  0  0  0  0  0  0
   42.9732    1.4822   11.5627 H   0  0  0  0  0  0  0  0  0  0  0  0
   44.0711    4.9068   13.5634 H   0  0  0  0  0  0  0  0  0  0  0  0
   45.3316    4.3914    9.4788 H   0  0  0  0  0  0  0  0  0  0  0  0
   45.7587    6.4953   10.5470 H   0  0  0  0  0  0  0  0  0  0  0  0
   46.2184    8.7795   11.9481 H   0  0  0  0  0  0  0  0  0  0  0  0
   45.4093    8.8356   13.5365 H   0  0  0  0  0  0  0  0  0  0  0  0
   47.8412    7.7128   13.3870 H   0  0  0  0  0  0  0  0  0  0  0  0
   46.5751    6.8837   14.3099 H   0  0  0  0  0  0  0  0  0  0  0  0
   47.7006    6.1671   11.6350 H   0  0  0  0  0  0  0  0  0  0  0  0
   46.9991    5.1204   12.8753 H   0  0  0  0  0  0  0  0  0  0  0  0
   43.0370    7.1674   11.1004 H   0  0  0  0  0  0  0  0  0  0  0  0
   43.2689    8.6595   12.0008 H   0  0  0  0  0  0  0  0  0  0  0  0
   44.2397    8.3509   10.5475 H   0  0  0  0  0  0  0  0  0  0  0  0
   42.7970    3.4170   11.0086 H   0  0  0  0  0  0  0  0  0  0  0  0
   43.7244    6.2241   10.2112 H   0  0  0  0  0  0  0  0  0  0  0  0
   46.8152    5.2356   13.3637 H   0  0  0  0  0  0  0  0  0  0  0  0
   46.1400    9.1525   12.1116 H   0  0  0  0  0  0  0  0  0  0  0  0
   46.2983    5.1978   10.7334 H   0  0  0  0  0  0  0  0  0  0  0  0
   44.2771    6.3359   12.7939 H   0  0  0  0  0  0  0  0  0  0  0  0
   47.7881    6.8294   13.2734 H   0  0  0  0  0  0  0  0  0  0  0  0
   45.1136    6.0500   14.4278 H   0  0  0  0  0  0  0  0  0  0  0  0
   43.4479    6.2930    9.6086 H   0  0  0  0  0  0  0  0  0  0  0  0
   46.0120    3.3045   10.8527 H   0  0  0  0  0  0  0  0  0  0  0  0
   44.2544    7.4632   12.7219 H   0  0  0  0  0  0  0  0  0  0  0  0
   43.1018    5.2225   11.7631 H   0  0  0  0  0  0  0  0  0  0  0  0
   45.2167    6.6075   11.8832 H   0  0  0  0  0  0  0  0  0  0  0  0
   44.6650    5.2078   11.6228 H   0  0  0  0  0  0  0  0  0  0  0  0
  7  2  2  0
  2  3  1  0
  8  6  1  0
  8  9  1  0
  4  5  1  0
  5  6  2  0
  3  4  2  0
  9 10  1  0
 10 11  1  0
 11 12  1  0
  8 12  1  0
  6  7  1  0
  9 13  1  0
 20 15  2  0
 21 16  1  0
 22 17  1  0
 20 14  1  0
 22 23  1  0
 21 22  1  0
 23 19  1  0
 20 21  1  0
 23 18  2  0
 30 25  2  0
 31 26  1  0
 32 27  1  0
 30 24  1  0
 32 33  1  0
 31 32  1  0
 33 29  1  0
 30 31  1  0
 33 28  2  0
  1 35  1  0
  1 36  1  0
  2 37  1  0
  3 38  1  0
  5 39  1  0
  7 40  1  0
  8 41  1  6
 10 42  1  0
 10 43  1  0
 11 44  1  0
 11 45  1  0
 12 46  1  0
 12 47  1  0
 13 48  1  0
 13 49  1  0
 13 50  1  0
 14 51  1  0
 16 52  1  0
 17 53  1  0
 19 54  1  0
 21 55  1  6
 22 56  1  1
 24 57  1  0
 26 58  1  0
 27 59  1  0
 29 60  1  0
 31 61  1  1
 32 62  1  1
 34 63  1  0
 34 64  1  0
M  END
> <Uni-Dock RESULT> 
ENERGY=   -5.018  LOWER_BOUND=    1.874  UPPER_BOUND=    3.577
INTER + INTRA:          -5.018
INTER:                  -5.018
INTRA:                   0.000
UNBOUND:                 0.000

$$$$

     RDKit          3D

 64 61  0  0  0  0  0  0  0  0999 V2000
   45.4649    6.5580   12.2634 O   0  0  0  0  0  0  0  0  0  0  0  0
   48.2671    8.4076   13.3775 C   0  0  0  0  0  0  0  0  0  0  0  0
   48.9943    7.9483   12.2924 C   0  0  0  0  0  0  0  0  0  0  0  0
   48.4729    7.1867   11.3092 N   0  0  0  0  0  0  0  0  0  0  0  0
   47.1590    6.8741   11.4153 C   0  0  0  0  0  0  0  0  0  0  0  0
   46.3344    7.2827   12.4613 C   0  0  0  0  0  0  0  0  0  0  0  0
   46.9200    8.0658   13.4620 C   0  0  0  0  0  0  0  0  0  0  0  0
   44.8849    6.8749   12.5429 C   0  0  1  0  0  0  0  0  0  0  0  0
   44.1802    6.9358   11.2486 N   0  0  0  0  0  0  0  0  0  0  0  0
   43.0752    5.9830   11.3495 C   0  0  0  0  0  0  0  0  0  0  0  0
   43.7470    4.7921   12.0037 C   0  0  0  0  0  0  0  0  0  0  0  0
   44.7209    5.4144   12.9963 C   0  0  0  0  0  0  0  0  0  0  0  0
   43.7188    8.2774   10.9141 C   0  0  0  0  0  0  0  0  0  0  0  0
   47.2074    8.7444   11.8597 O   0  0  0  0  0  0  0  0  0  0  0  0
   48.0142    7.2258   13.2907 O   0  0  0  0  0  0  0  0  0  0  0  0
   44.7889    8.5427   12.8935 O   0  0  0  0  0  0  0  0  0  0  0  0
   46.0031    5.2005   11.8309 O   0  0  0  0  0  0  0  0  0  0  0  0
   43.4053    4.9497   12.7047 O   0  0  0  0  0  0  0  0  0  0  0  0
   42.8189    6.7151   11.4626 O   0  0  0  0  0  0  0  0  0  0  0  0
   47.0484    7.7257   12.7399 C   0  0  0  0  0  0  0  0  0  0  0  0
   45.5841    7.3499   12.9191 C   0  0  2  0  0  0  0  0  0  0  0  0
   45.1734    6.3709   11.8198 C   0  0  2  0  0  0  0  0  0  0  0  0
   43.7381    5.9323   12.0562 C   0  0  0  0  0  0  0  0  0  0  0  0
   44.3026    4.5770   12.0128 O   0  0  0  0  0  0  0  0  0  0  0  0
   43.8783    6.2922   13.3777 O   0  0  0  0  0  0  0  0  0  0  0  0
   45.9122    5.9182   10.4526 O   0  0  0  0  0  0  0  0  0  0  0  0
   44.7427    9.0773   11.6939 O   0  0  0  0  0  0  0  0  0  0  0  0
   46.2689    8.7430   13.9439 O   0  0  0  0  0  0  0  0  0  0  0  0
   47.0180    6.7449   13.2973 O   0  0  0  0  0  0  0  0  0  0  0  0
   44.3487    5.8963   12.3260 C   0  0  0  0  0  0  0  0  0  0  0  0
   44.9839    6.7176   11.2040 C   0  0  1  0  0  0  0  0  0  0  0  0
   45.6805    7.9853   11.7031 C   0  0  2  0  0  0  0  0  0  0  0  0
   46.3115    7.8692   13.0879 C   0  0  0  0  0  0  0  0  0  0  0  0
   45.4670    6.5587   12.2637 O   0  0  0  0  0  0  0  0  0  0  0  0
   46.0481    7.3291   12.1984 H   0  0  0  0  0  0  0  0  0  0  0  0
   44.5994    6.8952   11.9874 H   0  0  0  0  0  0  0  0  0  0  0  0
   48.7393    9.0157   14.1403 H   0  0  0  0  0  0  0  0  0  0  0  0
   50.0479    8.1875   12.1826 H   0  0  0  0  0  0  0  0  0  0  0  0
   46.7711    6.2619   10.6043 H   0  0  0  0  0  0  0  0  0  0  0  0
   46.3336    8.4119   14.3090 H   0  0  0  0  0  0  0  0  0  0  0  0
   44.3666    7.5129   13.2733 H   0  0  0  0  0  0  0  0  0  0  0  0
   42.2663    6.3603   11.9879 H   0  0  0  0  0  0  0  0  0  0  0  0
   42.6623    5.7241   10.3696 H   0  0  0  0  0  0  0  0  0  0  0  0
   43.0312    4.1234   12.4906 H   0  0  0  0  0  0  0  0  0  0  0  0
   44.3015    4.2101   11.2572 H   0  0  0  0  0  0  0  0  0  0  0  0
   44.2916    5.3866   14.0053 H   0  0  0  0  0  0  0  0  0  0  0  0
   45.6563    4.8440   13.0208 H   0  0  0  0  0  0  0  0  0  0  0  0
   44.5635    8.9684   10.8221 H   0  0  0  0  0  0  0  0  0  0  0  0
   43.2084    8.2720    9.9448 H   0  0  0  0  0  0  0  0  0  0  0  0
   43.0264    8.6791   11.6627 H   0  0  0  0  0  0  0  0  0  0  0  0
   48.1806    8.8793   11.8424 H   0  0  0  0  0  0  0  0  0  0  0  0
   45.1429    9.0917   12.1645 H   0  0  0  0  0  0  0  0  0  0  0  0
   45.6670    4.6135   12.5386 H   0  0  0  0  0  0  0  0  0  0  0  0
   41.9568    6.3226   11.7145 H   0  0  0  0  0  0  0  0  0  0  0  0
   45.4755    6.9061   13.9150 H   0  0  0  0  0  0  0  0  0  0  0  0
   45.2474    6.8168   10.8220 H   0  0  0  0  0  0  0  0  0  0  0  0
   43.8693    4.1684   12.7936 H   0  0  0  0  0  0  0  0  0  0  0  0
   45.5169    5.0238   10.4173 H   0  0  0  0  0  0  0  0  0  0  0  0
   45.0694    9.7285   12.3470 H   0  0  0  0  0  0  0  0  0  0  0  0
   47.3708    6.8480   14.2070 H   0  0  0  0  0  0  0  0  0  0  0  0
   44.1726    6.9805   10.5149 H   0  0  0  0  0  0  0  0  0  0  0  0
   46.4868    8.2692   11.0170 H   0  0  0  0  0  0  0  0  0  0  0  0
   44.5994    6.8910   11.9885 H   0  0  0  0  0  0  0  0  0  0  0  0
   46.0460    7.3328   12.1970 H   0  0  0  0  0  0  0  0  0  0  0  0
  7  2  2  0
  2  3  1  0
  8  6  1  0
  8  9  1  0
  4  5  1  0
  5  6  2  0
  3  4  2  0
  9 10  1  0
 10 11  1  0
 11 12  1  0
  8 12  1  0
  6  7  1  0
  9 13  1  0
 20 15  2  0
 21 16  1  0
 22 17  1  0
 20 14  1  0
 22 23  1  0
 21 22  1  0
 23 19  1  0
 20 21  1  0
 23 18  2  0
 30 25  2  0
 31 26  1  0
 32 27  1  0
 30 24  1  0
 32 33  1  0
 31 32  1  0
 33 29  1  0
 30 31  1  0
 33 28  2  0
  1 35  1  0
  1 36  1  0
  2 37  1  0
  3 38  1  0
  5 39  1  0
  7 40  1  0
  8 41  1  6
 10 42  1  0
 10 43  1  0
 11 44  1  0
 11 45  1  0
 12 46  1  0
 12 47  1  0
 13 48  1  0
 13 49  1  0
 13 50  1  0
 14 51  1  0
 16 52  1  0
 17 53  1  0
 19 54  1  0
 21 55  1  6
 22 56  1  1
 24 57  1  0
 26 58  1  0
 27 59  1  0
 29 60  1  0
 31 61  1  1
 32 62  1  1
 34 63  1  0
 34 64  1  0
M  END
> <Uni-Dock RESULT> 
ENERGY=   -4.979  LOWER_BOUND=    2.796  UPPER_BOUND=    4.638
INTER + INTRA:          -4.979
INTER:                  -4.979
INTRA:                   0.000
UNBOUND:                 0.000

$$$$

     RDKit          3D

 64 61  0  0  0  0  0  0  0  0999 V2000
   54.3806    6.4179    9.1189 O   0  0  0  0  0  0  0  0  0  0  0  0
   52.7916    8.0099    6.3885 C   0  0  0  0  0  0  0  0  0  0  0  0
   53.9084    8.8090    6.2120 C   0  0  0  0  0  0  0  0  0  0  0  0
   55.0455    8.6754    6.9245 N   0  0  0  0  0  0  0  0  0  0  0  0
   55.0669    7.6912    7.8551 C   0  0  0  0  0  0  0  0  0  0  0  0
   54.0029    6.8300    8.1149 C   0  0  0  0  0  0  0  0  0  0  0  0
   52.8414    7.0098    7.3560 C   0  0  0  0  0  0  0  0  0  0  0  0
   54.0734    5.7731    9.1882 C   0  0  1  0  0  0  0  0  0  0  0  0
   55.3640    5.0602    9.2316 N   0  0  0  0  0  0  0  0  0  0  0  0
   55.5050    4.5712   10.6027 C   0  0  0  0  0  0  0  0  0  0  0  0
   55.0633    5.7745   11.4117 C   0  0  0  0  0  0  0  0  0  0  0  0
   53.9220    6.3706   10.5974 C   0  0  0  0  0  0  0  0  0  0  0  0
   55.4527    3.9834    8.2533 C   0  0  0  0  0  0  0  0  0  0  0  0
   54.2646    6.8409    6.3283 O   0  0  0  0  0  0  0  0  0  0  0  0
   53.1193    8.3642    7.4998 O   0  0  0  0  0  0  0  0  0  0  0  0
   53.4095    4.8913    7.8861 O   0  0  0  0  0  0  0  0  0  0  0  0
   55.0425    7.5279    9.9245 O   0  0  0  0  0  0  0  0  0  0  0  0
   54.3627    5.4378   11.5811 O   0  0  0  0  0  0  0  0  0  0  0  0
   55.2639    3.9955   10.1283 O   0  0  0  0  0  0  0  0  0  0  0  0
   53.6087    7.2492    7.4422 C   0  0  0  0  0  0  0  0  0  0  0  0
   53.5781    6.1691    8.5145 C   0  0  2  0  0  0  0  0  0  0  0  0
   54.8659    6.2320    9.3350 C   0  0  2  0  0  0  0  0  0  0  0  0
   54.7901    5.2109   10.4575 C   0  0  0  0  0  0  0  0  0  0  0  0
   55.0692    6.3638   11.3237 O   0  0  0  0  0  0  0  0  0  0  0  0
   53.4185    5.2279   10.3386 O   0  0  0  0  0  0  0  0  0  0  0  0
   56.2572    7.0228    9.0926 O   0  0  0  0  0  0  0  0  0  0  0  0
   54.4828    4.5243    7.2224 O   0  0  0  0  0  0  0  0  0  0  0  0
   52.2691    6.1375    7.1933 O   0  0  0  0  0  0  0  0  0  0  0  0
   53.2553    7.7334    8.3983 O   0  0  0  0  0  0  0  0  0  0  0  0
   54.5029    5.7744   10.2407 C   0  0  0  0  0  0  0  0  0  0  0  0
   55.4108    5.8640    9.0142 C   0  0  1  0  0  0  0  0  0  0  0  0
   54.6407    5.8758    7.6919 C   0  0  2  0  0  0  0  0  0  0  0  0
   53.2759    6.5565    7.7491 C   0  0  0  0  0  0  0  0  0  0  0  0
   54.3801    6.4194    9.1173 O   0  0  0  0  0  0  0  0  0  0  0  0
   54.2654    6.5440    8.1650 H   0  0  0  0  0  0  0  0  0  0  0  0
   54.6276    5.4847    9.2035 H   0  0  0  0  0  0  0  0  0  0  0  0
   51.9026    8.1639    5.7878 H   0  0  0  0  0  0  0  0  0  0  0  0
   53.9178    9.6026    5.4707 H   0  0  0  0  0  0  0  0  0  0  0  0
   55.9996    7.6099    8.4086 H   0  0  0  0  0  0  0  0  0  0  0  0
   51.9729    6.3758    7.5136 H   0  0  0  0  0  0  0  0  0  0  0  0
   53.2589    5.0490    9.0418 H   0  0  0  0  0  0  0  0  0  0  0  0
   54.8456    3.7169   10.8025 H   0  0  0  0  0  0  0  0  0  0  0  0
   56.5355    4.2858   10.8356 H   0  0  0  0  0  0  0  0  0  0  0  0
   54.7517    5.5057   12.4252 H   0  0  0  0  0  0  0  0  0  0  0  0
   55.8808    6.5018   11.4897 H   0  0  0  0  0  0  0  0  0  0  0  0
   52.9600    6.0652   11.0268 H   0  0  0  0  0  0  0  0  0  0  0  0
   53.9634    7.4652   10.6279 H   0  0  0  0  0  0  0  0  0  0  0  0
   55.3668    4.3748    7.2341 H   0  0  0  0  0  0  0  0  0  0  0  0
   56.4282    3.4896    8.3206 H   0  0  0  0  0  0  0  0  0  0  0  0
   54.6750    3.2245    8.3965 H   0  0  0  0  0  0  0  0  0  0  0  0
   54.2076    7.6205    5.7330 H   0  0  0  0  0  0  0  0  0  0  0  0
   53.9994    4.8910    7.1049 H   0  0  0  0  0  0  0  0  0  0  0  0
   54.4801    7.5614   10.7252 H   0  0  0  0  0  0  0  0  0  0  0  0
   55.1359    3.4514   10.9335 H   0  0  0  0  0  0  0  0  0  0  0  0
   52.6944    6.3458    9.1376 H   0  0  0  0  0  0  0  0  0  0  0  0
   55.7528    6.0241    8.7267 H   0  0  0  0  0  0  0  0  0  0  0  0
   54.4051    6.2292   12.0346 H   0  0  0  0  0  0  0  0  0  0  0  0
   56.4855    7.1152   10.0396 H   0  0  0  0  0  0  0  0  0  0  0  0
   53.7001    4.5248    6.6352 H   0  0  0  0  0  0  0  0  0  0  0  0
   52.3268    8.0390    8.3138 H   0  0  0  0  0  0  0  0  0  0  0  0
   56.0744    4.9921    9.0553 H   0  0  0  0  0  0  0  0  0  0  0  0
   55.2180    6.4013    6.9224 H   0  0  0  0  0  0  0  0  0  0  0  0
   54.6274    5.4868    9.2073 H   0  0  0  0  0  0  0  0  0  0  0  0
   54.2662    6.5403    8.1627 H   0  0  0  0  0  0  0  0  0  0  0  0
  7  2  2  0
  2  3  1  0
  8  6  1  0
  8  9  1  0
  4  5  1  0
  5  6  2  0
  3  4  2  0
  9 10  1  0
 10 11  1  0
 11 12  1  0
  8 12  1  0
  6  7  1  0
  9 13  1  0
 20 15  2  0
 21 16  1  0
 22 17  1  0
 20 14  1  0
 22 23  1  0
 21 22  1  0
 23 19  1  0
 20 21  1  0
 23 18  2  0
 30 25  2  0
 31 26  1  0
 32 27  1  0
 30 24  1  0
 32 33  1  0
 31 32  1  0
 33 29  1  0
 30 31  1  0
 33 28  2  0
  1 35  1  0
  1 36  1  0
  2 37  1  0
  3 38  1  0
  5 39  1  0
  7 40  1  0
  8 41  1  6
 10 42  1  0
 10 43  1  0
 11 44  1  0
 11 45  1  0
 12 46  1  0
 12 47  1  0
 13 48  1  0
 13 49  1  0
 13 50  1  0
 14 51  1  0
 16 52  1  0
 17 53  1  0
 19 54  1  0
 21 55  1  6
 22 56  1  1
 24 57  1  0
 26 58  1  0
 27 59  1  0
 29 60  1  0
 31 61  1  1
 32 62  1  1
 34 63  1  0
 34 64  1  0
M  END
> <Uni-Dock RESULT> 
ENERGY=   -4.855  LOWER_BOUND=    9.487  UPPER_BOUND=   10.604
INTER + INTRA:          -4.855
INTER:                  -4.855
INTRA:                   0.000
UNBOUND:                 0.000

$$$$

     RDKit          3D

 64 61  0  0  0  0  0  0  0  0999 V2000
   40.0566   11.0965   10.7960 O   0  0  0  0  0  0  0  0  0  0  0  0
   43.3775   11.0631    9.5772 C   0  0  0  0  0  0  0  0  0  0  0  0
   43.0591   12.0847    8.6985 C   0  0  0  0  0  0  0  0  0  0  0  0
   41.8617   12.7045    8.6724 N   0  0  0  0  0  0  0  0  0  0  0  0
   40.9406   12.2844    9.5726 C   0  0  0  0  0  0  0  0  0  0  0  0
   41.1540   11.2680   10.5014 C   0  0  0  0  0  0  0  0  0  0  0  0
   42.4087   10.6492   10.4876 C   0  0  0  0  0  0  0  0  0  0  0  0
   40.0777   10.8202   11.4579 C   0  0  1  0  0  0  0  0  0  0  0  0
   39.3101   11.9334   12.0471 N   0  0  0  0  0  0  0  0  0  0  0  0
   38.0083   11.3741   12.4095 C   0  0  0  0  0  0  0  0  0  0  0  0
   37.6751   10.5393   11.1891 C   0  0  0  0  0  0  0  0  0  0  0  0
   39.0148    9.9510   10.7646 C   0  0  0  0  0  0  0  0  0  0  0  0
   39.9803   12.5464   13.1871 C   0  0  0  0  0  0  0  0  0  0  0  0
   42.5547   12.4024   10.6113 O   0  0  0  0  0  0  0  0  0  0  0  0
   42.3011   10.7664    9.1067 O   0  0  0  0  0  0  0  0  0  0  0  0
   41.4260   10.9439   12.4974 O   0  0  0  0  0  0  0  0  0  0  0  0
   39.1609   11.2157    9.5700 O   0  0  0  0  0  0  0  0  0  0  0  0
   37.8434    9.8625   11.5721 O   0  0  0  0  0  0  0  0  0  0  0  0
   38.4699   11.4290   13.0407 O   0  0  0  0  0  0  0  0  0  0  0  0
   41.9766   11.2565   10.1746 C   0  0  0  0  0  0  0  0  0  0  0  0
   40.9494   10.7231   11.1632 C   0  0  2  0  0  0  0  0  0  0  0  0
   39.6062   11.4104   10.9198 C   0  0  2  0  0  0  0  0  0  0  0  0
   38.5654   10.8103   11.8498 C   0  0  0  0  0  0  0  0  0  0  0  0
   37.8151   10.5679   10.6106 O   0  0  0  0  0  0  0  0  0  0  0  0
   39.3585    9.6908   11.9648 O   0  0  0  0  0  0  0  0  0  0  0  0
   39.2054   12.7019   10.0303 O   0  0  0  0  0  0  0  0  0  0  0  0
   41.4132   12.2179   12.8195 O   0  0  0  0  0  0  0  0  0  0  0  0
   42.7357   10.2713   11.4177 O   0  0  0  0  0  0  0  0  0  0  0  0
   41.3905   10.4485    9.6483 O   0  0  0  0  0  0  0  0  0  0  0  0
   38.9600   10.6536   11.3335 C   0  0  0  0  0  0  0  0  0  0  0  0
   39.5650   12.0556   11.2625 C   0  0  1  0  0  0  0  0  0  0  0  0
   41.0865   12.0662   11.4259 C   0  0  2  0  0  0  0  0  0  0  0  0
   41.8015   10.8390   10.8672 C   0  0  0  0  0  0  0  0  0  0  0  0
   40.0585   11.0968   10.7946 O   0  0  0  0  0  0  0  0  0  0  0  0
   40.9463   11.4786   10.7579 H   0  0  0  0  0  0  0  0  0  0  0  0
   39.7530   11.2993   11.6935 H   0  0  0  0  0  0  0  0  0  0  0  0
   44.3566   10.5990    9.5519 H   0  0  0  0  0  0  0  0  0  0  0  0
   43.7806   12.4418    7.9696 H   0  0  0  0  0  0  0  0  0  0  0  0
   39.9883   12.8076    9.5256 H   0  0  0  0  0  0  0  0  0  0  0  0
   42.6375    9.8449   11.1818 H   0  0  0  0  0  0  0  0  0  0  0  0
   40.5294   10.2202   12.2611 H   0  0  0  0  0  0  0  0  0  0  0  0
   38.0705   10.7360   13.3002 H   0  0  0  0  0  0  0  0  0  0  0  0
   37.2581   12.1520   12.5822 H   0  0  0  0  0  0  0  0  0  0  0  0
   36.9324    9.7648   11.4020 H   0  0  0  0  0  0  0  0  0  0  0  0
   37.2807   11.1764   10.3879 H   0  0  0  0  0  0  0  0  0  0  0  0
   39.0952    8.9161   11.1190 H   0  0  0  0  0  0  0  0  0  0  0  0
   39.0933    9.9318    9.6718 H   0  0  0  0  0  0  0  0  0  0  0  0
   40.9418   12.9775   12.8883 H   0  0  0  0  0  0  0  0  0  0  0  0
   39.3758   13.3688   13.5849 H   0  0  0  0  0  0  0  0  0  0  0  0
   40.1615   11.8320   13.9982 H   0  0  0  0  0  0  0  0  0  0  0  0
   43.1828   12.6285    9.8903 H   0  0  0  0  0  0  0  0  0  0  0  0
   41.7989   11.8488   12.5081 H   0  0  0  0  0  0  0  0  0  0  0  0
   38.7613   10.3232    9.5224 H   0  0  0  0  0  0  0  0  0  0  0  0
   37.7819   10.9285   13.5274 H   0  0  0  0  0  0  0  0  0  0  0  0
   40.8798    9.6395   11.0163 H   0  0  0  0  0  0  0  0  0  0  0  0
   39.6579   12.4903   11.0962 H   0  0  0  0  0  0  0  0  0  0  0  0
   37.5242    9.6398   10.7462 H   0  0  0  0  0  0  0  0  0  0  0  0
   38.2898   12.4127    9.8419 H   0  0  0  0  0  0  0  0  0  0  0  0
   42.3098   11.8438   12.9361 H   0  0  0  0  0  0  0  0  0  0  0  0
   41.9647    9.6821    9.4345 H   0  0  0  0  0  0  0  0  0  0  0  0
   39.0963   12.6365   12.0656 H   0  0  0  0  0  0  0  0  0  0  0  0
   41.5160   12.9355   10.9149 H   0  0  0  0  0  0  0  0  0  0  0  0
   39.7501   11.2971   11.6911 H   0  0  0  0  0  0  0  0  0  0  0  0
   40.9476   11.4805   10.7617 H   0  0  0  0  0  0  0  0  0  0  0  0
  7  2  2  0
  2  3  1  0
  8  6  1  0
  8  9  1  0
  4  5  1  0
  5  6  2  0
  3  4  2  0
  9 10  1  0
 10 11  1  0
 11 12  1  0
  8 12  1  0
  6  7  1  0
  9 13  1  0
 20 15  2  0
 21 16  1  0
 22 17  1  0
 20 14  1  0
 22 23  1  0
 21 22  1  0
 23 19  1  0
 20 21  1  0
 23 18  2  0
 30 25  2  0
 31 26  1  0
 32 27  1  0
 30 24  1  0
 32 33  1  0
 31 32  1  0
 33 29  1  0
 30 31  1  0
 33 28  2  0
  1 35  1  0
  1 36  1  0
  2 37  1  0
  3 38  1  0
  5 39  1  0
  7 40  1  0
  8 41  1  6
 10 42  1  0
 10 43  1  0
 11 44  1  0
 11 45  1  0
 12 46  1  0
 12 47  1  0
 13 48  1  0
 13 49  1  0
 13 50  1  0
 14 51  1  0
 16 52  1  0
 17 53  1  0
 19 54  1  0
 21 55  1  6
 22 56  1  1
 24 57  1  0
 26 58  1  0
 27 59  1  0
 29 60  1  0
 31 61  1  1
 32 62  1  1
 34 63  1  0
 34 64  1  0
M  END
> <Uni-Dock RESULT> 
ENERGY=   -4.700  LOWER_BOUND=    6.879  UPPER_BOUND=    8.165
INTER + INTRA:          -4.700
INTER:                  -4.700
INTRA:                   0.000
UNBOUND:                 0.000

$$$$
