
     RDKit          3D

 51 55  0  0  0  0  0  0  0  0999 V2000
    6.6842   -0.8141    1.3799 O   0  0  0  0  0  0  0  0  0  0  0  0
    7.1392   -2.0096    0.7320 C   0  0  0  0  0  0  0  0  0  0  0  0
    6.3567   -2.4201   -0.3981 O   0  0  0  0  0  0  0  0  0  0  0  0
    5.4218   -1.4339   -0.4069 C   0  0  0  0  0  0  0  0  0  0  0  0
    5.6076   -0.5205    0.6031 C   0  0  0  0  0  0  0  0  0  0  0  0
    8.4179   -1.8183    0.3228 F   0  0  0  0  0  0  0  0  0  0  0  0
    7.1469   -3.0169    1.6395 F   0  0  0  0  0  0  0  0  0  0  0  0
    4.7643    0.5587    0.7705 C   0  0  0  0  0  0  0  0  0  0  0  0
    4.3831   -1.3178   -1.3013 C   0  0  0  0  0  0  0  0  0  0  0  0
    3.5153   -0.2297   -1.1507 C   0  0  0  0  0  0  0  0  0  0  0  0
    3.6873    0.7317   -0.1214 C   0  0  0  0  0  0  0  0  0  0  0  0
    2.7247    1.9065    0.0414 C   0  0  0  0  0  0  0  0  0  0  0  0
    2.4099    2.7736   -1.1770 C   0  0  0  0  0  0  0  0  0  0  0  0
    3.3092    3.3109   -0.1113 C   0  0  0  0  0  0  0  0  0  0  0  0
    1.6431    1.7251    1.0835 C   0  0  0  0  0  0  0  0  0  0  0  0
    1.8354    2.1207    2.2247 O   0  0  0  0  0  0  0  0  0  0  0  0
    0.5279    1.0996    0.5922 N   0  0  0  0  0  0  0  0  0  0  0  0
   -0.6427    0.7618    1.2658 C   0  0  0  0  0  0  0  0  0  0  0  0
   -1.5474    0.1449    0.4792 N   0  0  0  0  0  0  0  0  0  0  0  0
   -0.8739    1.0201    2.6048 C   0  0  0  0  0  0  0  0  0  0  0  0
   -2.0923    0.6337    3.1580 C   0  0  0  0  0  0  0  0  0  0  0  0
   -3.0553    0.0017    2.3662 C   0  0  0  0  0  0  0  0  0  0  0  0
   -2.7299   -0.2422    1.0270 C   0  0  0  0  0  0  0  0  0  0  0  0
   -4.3665   -0.4012    2.9740 C   0  0  0  0  0  0  0  0  0  0  0  0
   -3.6237   -0.9252    0.0797 C   0  0  0  0  0  0  0  0  0  0  0  0
   -4.8364   -2.9129   -0.6469 C   0  0  0  0  0  0  0  0  0  0  0  0
   -3.9919   -2.2693    0.2605 C   0  0  0  0  0  0  0  0  0  0  0  0
   -4.1098   -0.2467   -1.0516 C   0  0  0  0  0  0  0  0  0  0  0  0
   -4.9574   -0.8872   -1.9654 C   0  0  0  0  0  0  0  0  0  0  0  0
   -5.3209   -2.2222   -1.7565 C   0  0  0  0  0  0  0  0  0  0  0  0
   -5.4897   -0.1950   -3.1634 C   0  0  0  0  0  0  0  0  0  0  0  0
   -5.0907    1.0860   -3.2501 O   0  0  0  0  0  0  0  0  0  0  0  0
   -6.2173   -0.6874   -4.0059 O   0  0  0  0  0  0  0  0  0  0  0  0
    4.9257    1.2610    1.5841 H   0  0  0  0  0  0  0  0  0  0  0  0
    4.2400   -2.0444   -2.0938 H   0  0  0  0  0  0  0  0  0  0  0  0
    2.6862   -0.1257   -1.8489 H   0  0  0  0  0  0  0  0  0  0  0  0
    1.4220    3.2139   -1.2633 H   0  0  0  0  0  0  0  0  0  0  0  0
    2.8613    2.5294   -2.1321 H   0  0  0  0  0  0  0  0  0  0  0  0
    2.9276    4.0932    0.5370 H   0  0  0  0  0  0  0  0  0  0  0  0
    4.3634    3.4165   -0.3419 H   0  0  0  0  0  0  0  0  0  0  0  0
    0.5126    0.8160   -0.3766 H   0  0  0  0  0  0  0  0  0  0  0  0
   -0.1429    1.5121    3.2350 H   0  0  0  0  0  0  0  0  0  0  0  0
   -2.2828    0.8365    4.2095 H   0  0  0  0  0  0  0  0  0  0  0  0
   -4.3735   -1.4746    3.1860 H   0  0  0  0  0  0  0  0  0  0  0  0
   -5.2005   -0.1537    2.3094 H   0  0  0  0  0  0  0  0  0  0  0  0
   -4.5453    0.1303    3.9151 H   0  0  0  0  0  0  0  0  0  0  0  0
   -5.1100   -3.9538   -0.4920 H   0  0  0  0  0  0  0  0  0  0  0  0
   -3.6068   -2.8296    1.1108 H   0  0  0  0  0  0  0  0  0  0  0  0
   -3.8156    0.7892   -1.2122 H   0  0  0  0  0  0  0  0  0  0  0  0
   -5.9767   -2.7296   -2.4616 H   0  0  0  0  0  0  0  0  0  0  0  0
   -5.5132    1.4084   -4.0735 H   0  0  0  0  0  0  0  0  0  0  0  0
  1  2  1  0
  1  5  1  0
  2  3  1  0
  3  4  1  0
  2  6  1  0
  2  7  1  0
  8  5  1  0
  5  4  2  0
  4  9  1  0
  8 11  2  0
  9 10  2  0
 10 11  1  0
 11 12  1  0
 12 13  1  0
 13 14  1  0
 14 12  1  0
 12 15  1  0
 15 16  2  0
 15 17  1  0
 17 18  1  0
 19 18  2  0
 18 20  1  0
 19 23  1  0
 20 21  2  0
 21 22  1  0
 22 23  2  0
 22 24  1  0
 23 25  1  0
 27 25  1  0
 25 28  2  0
 26 27  2  0
 26 30  1  0
 28 29  1  0
 29 30  2  0
 29 31  1  0
 31 32  1  0
 31 33  2  0
  8 34  1  0
  9 35  1  0
 10 36  1  0
 13 37  1  0
 13 38  1  0
 14 39  1  0
 14 40  1  0
 17 41  1  0
 20 42  1  0
 21 43  1  0
 24 44  1  0
 24 45  1  0
 24 46  1  0
 26 47  1  0
 27 48  1  0
 28 49  1  0
 30 50  1  0
 32 51  1  0
M  END
$$$$
