
     RDKit          3D

 51 55  0  0  0  0  0  0  0  0999 V2000
   -4.9227   -1.2144    2.3199 O   0  0  0  0  0  0  0  0  0  0  0  0
   -6.1382   -1.8957    1.9776 C   0  0  0  0  0  0  0  0  0  0  0  0
   -6.7279   -1.4917    0.7345 O   0  0  0  0  0  0  0  0  0  0  0  0
   -5.8311   -0.5483    0.3442 C   0  0  0  0  0  0  0  0  0  0  0  0
   -4.8047   -0.3898    1.2449 C   0  0  0  0  0  0  0  0  0  0  0  0
   -7.0398   -1.6909    2.9694 F   0  0  0  0  0  0  0  0  0  0  0  0
   -5.8850   -3.2266    1.9231 F   0  0  0  0  0  0  0  0  0  0  0  0
   -3.7857    0.5183    1.0378 C   0  0  0  0  0  0  0  0  0  0  0  0
   -5.8928    0.1915   -0.8133 C   0  0  0  0  0  0  0  0  0  0  0  0
   -4.8704    1.1189   -1.0437 C   0  0  0  0  0  0  0  0  0  0  0  0
   -3.8026    1.3081   -0.1279 C   0  0  0  0  0  0  0  0  0  0  0  0
   -2.6989    2.3211   -0.4254 C   0  0  0  0  0  0  0  0  0  0  0  0
   -2.2940    3.3122    0.6650 C   0  0  0  0  0  0  0  0  0  0  0  0
   -3.1074    3.7927   -0.4929 C   0  0  0  0  0  0  0  0  0  0  0  0
   -1.6345    1.8608   -1.3971 C   0  0  0  0  0  0  0  0  0  0  0  0
   -1.7583    2.1126   -2.5876 O   0  0  0  0  0  0  0  0  0  0  0  0
   -0.6169    1.1750   -0.7886 N   0  0  0  0  0  0  0  0  0  0  0  0
    0.5139    0.6080   -1.3702 C   0  0  0  0  0  0  0  0  0  0  0  0
    1.3161   -0.0079   -0.4787 N   0  0  0  0  0  0  0  0  0  0  0  0
    0.8066    0.6629   -2.7208 C   0  0  0  0  0  0  0  0  0  0  0  0
    1.9709    0.0495   -3.1764 C   0  0  0  0  0  0  0  0  0  0  0  0
    2.8173   -0.6079   -2.2789 C   0  0  0  0  0  0  0  0  0  0  0  0
    2.4583   -0.5945   -0.9260 C   0  0  0  0  0  0  0  0  0  0  0  0
    4.0631   -1.2718   -2.7874 C   0  0  0  0  0  0  0  0  0  0  0  0
    3.2615   -1.2124    0.1403 C   0  0  0  0  0  0  0  0  0  0  0  0
    3.4784   -2.8600    1.9277 C   0  0  0  0  0  0  0  0  0  0  0  0
    2.7328   -2.2640    0.9085 C   0  0  0  0  0  0  0  0  0  0  0  0
    4.5574   -0.7571    0.4380 C   0  0  0  0  0  0  0  0  0  0  0  0
    5.3113   -1.3521    1.4595 C   0  0  0  0  0  0  0  0  0  0  0  0
    4.7676   -2.4066    2.2012 C   0  0  0  0  0  0  0  0  0  0  0  0
    6.6825   -0.8959    1.7909 C   0  0  0  0  0  0  0  0  0  0  0  0
    7.1130    0.0926    0.9871 O   0  0  0  0  0  0  0  0  0  0  0  0
    7.3871   -1.3392    2.6786 O   0  0  0  0  0  0  0  0  0  0  0  0
   -2.9890    0.6154    1.7685 H   0  0  0  0  0  0  0  0  0  0  0  0
   -6.7004    0.0599   -1.5252 H   0  0  0  0  0  0  0  0  0  0  0  0
   -4.8917    1.7094   -1.9602 H   0  0  0  0  0  0  0  0  0  0  0  0
   -2.7831    3.2671    1.6317 H   0  0  0  0  0  0  0  0  0  0  0  0
   -1.2602    3.6375    0.7168 H   0  0  0  0  0  0  0  0  0  0  0  0
   -4.1434    4.0563   -0.3113 H   0  0  0  0  0  0  0  0  0  0  0  0
   -2.6242    4.4208   -1.2344 H   0  0  0  0  0  0  0  0  0  0  0  0
   -0.6539    1.0277    0.2097 H   0  0  0  0  0  0  0  0  0  0  0  0
    0.1620    1.1624   -3.4339 H   0  0  0  0  0  0  0  0  0  0  0  0
    2.2058    0.0846   -4.2379 H   0  0  0  0  0  0  0  0  0  0  0  0
    4.0072   -1.4401   -3.8685 H   0  0  0  0  0  0  0  0  0  0  0  0
    4.9369   -0.6441   -2.5882 H   0  0  0  0  0  0  0  0  0  0  0  0
    4.2036   -2.2533   -2.3233 H   0  0  0  0  0  0  0  0  0  0  0  0
    3.0514   -3.6734    2.5093 H   0  0  0  0  0  0  0  0  0  0  0  0
    1.7229   -2.6207    0.7097 H   0  0  0  0  0  0  0  0  0  0  0  0
    4.9719    0.0768   -0.1251 H   0  0  0  0  0  0  0  0  0  0  0  0
    5.3439   -2.8731    2.9980 H   0  0  0  0  0  0  0  0  0  0  0  0
    8.0136    0.2894    1.3209 H   0  0  0  0  0  0  0  0  0  0  0  0
  1  2  1  0
  1  5  1  0
  2  3  1  0
  3  4  1  0
  2  6  1  0
  2  7  1  0
  8  5  1  0
  5  4  2  0
  4  9  1  0
  8 11  2  0
  9 10  2  0
 10 11  1  0
 11 12  1  0
 12 13  1  0
 13 14  1  0
 14 12  1  0
 12 15  1  0
 15 16  2  0
 15 17  1  0
 17 18  1  0
 19 18  2  0
 18 20  1  0
 19 23  1  0
 20 21  2  0
 21 22  1  0
 22 23  2  0
 22 24  1  0
 23 25  1  0
 27 25  1  0
 25 28  2  0
 26 27  2  0
 26 30  1  0
 28 29  1  0
 29 30  2  0
 29 31  1  0
 31 32  1  0
 31 33  2  0
  8 34  1  0
  9 35  1  0
 10 36  1  0
 13 37  1  0
 13 38  1  0
 14 39  1  0
 14 40  1  0
 17 41  1  0
 20 42  1  0
 21 43  1  0
 24 44  1  0
 24 45  1  0
 24 46  1  0
 26 47  1  0
 27 48  1  0
 28 49  1  0
 30 50  1  0
 32 51  1  0
M  END
$$$$
