
     RDKit          3D

 51 55  0  0  0  0  0  0  0  0999 V2000
   -6.5111    1.7861    0.0126 O   0  0  0  0  0  0  0  0  0  0  0  0
   -6.7808    2.4057    1.2773 C   0  0  0  0  0  0  0  0  0  0  0  0
   -5.9480    1.9619    2.3577 O   0  0  0  0  0  0  0  0  0  0  0  0
   -5.1739    1.0580    1.7015 C   0  0  0  0  0  0  0  0  0  0  0  0
   -5.4937    0.9573    0.3687 C   0  0  0  0  0  0  0  0  0  0  0  0
   -6.6328    3.7467    1.1420 F   0  0  0  0  0  0  0  0  0  0  0  0
   -8.0747    2.1682    1.6063 F   0  0  0  0  0  0  0  0  0  0  0  0
   -4.8238    0.0959   -0.4758 C   0  0  0  0  0  0  0  0  0  0  0  0
   -4.1674    0.3048    2.2599 C   0  0  0  0  0  0  0  0  0  0  0  0
   -3.4747   -0.5767    1.4216 C   0  0  0  0  0  0  0  0  0  0  0  0
   -3.7881   -0.7058    0.0437 C   0  0  0  0  0  0  0  0  0  0  0  0
   -3.0148   -1.6604   -0.8639 C   0  0  0  0  0  0  0  0  0  0  0  0
   -3.8065   -2.7936   -1.5169 C   0  0  0  0  0  0  0  0  0  0  0  0
   -2.8392   -3.1133   -0.4237 C   0  0  0  0  0  0  0  0  0  0  0  0
   -1.9148   -1.0300   -1.6894 C   0  0  0  0  0  0  0  0  0  0  0  0
   -2.1608   -0.6431   -2.8232 O   0  0  0  0  0  0  0  0  0  0  0  0
   -0.7196   -0.9623   -1.0237 N   0  0  0  0  0  0  0  0  0  0  0  0
    0.4897   -0.4337   -1.4673 C   0  0  0  0  0  0  0  0  0  0  0  0
    1.4751   -0.5235   -0.5514 N   0  0  0  0  0  0  0  0  0  0  0  0
    0.6815    0.1342   -2.7136 C   0  0  0  0  0  0  0  0  0  0  0  0
    1.9440    0.6267   -3.0351 C   0  0  0  0  0  0  0  0  0  0  0  0
    2.9889    0.5407   -2.1106 C   0  0  0  0  0  0  0  0  0  0  0  0
    2.7021   -0.0285   -0.8644 C   0  0  0  0  0  0  0  0  0  0  0  0
    4.3445    1.0711   -2.4741 C   0  0  0  0  0  0  0  0  0  0  0  0
    3.6858   -0.1571    0.2216 C   0  0  0  0  0  0  0  0  0  0  0  0
    4.9897   -1.5681    1.7264 C   0  0  0  0  0  0  0  0  0  0  0  0
    4.0606   -1.4269    0.6936 C   0  0  0  0  0  0  0  0  0  0  0  0
    4.2544    0.9744    0.8312 C   0  0  0  0  0  0  0  0  0  0  0  0
    5.1884    0.8389    1.8680 C   0  0  0  0  0  0  0  0  0  0  0  0
    5.5553   -0.4366    2.3112 C   0  0  0  0  0  0  0  0  0  0  0  0
    5.8083    2.0147    2.5249 C   0  0  0  0  0  0  0  0  0  0  0  0
    5.4105    3.1824    1.9897 O   0  0  0  0  0  0  0  0  0  0  0  0
    6.6020    1.9806    3.4470 O   0  0  0  0  0  0  0  0  0  0  0  0
   -5.0878    0.0430   -1.5288 H   0  0  0  0  0  0  0  0  0  0  0  0
   -3.9176    0.3923    3.3118 H   0  0  0  0  0  0  0  0  0  0  0  0
   -2.6729   -1.1774    1.8480 H   0  0  0  0  0  0  0  0  0  0  0  0
   -4.8653   -2.8840   -1.3011 H   0  0  0  0  0  0  0  0  0  0  0  0
   -3.5463   -3.0755   -2.5322 H   0  0  0  0  0  0  0  0  0  0  0  0
   -1.9303   -3.6368   -0.7011 H   0  0  0  0  0  0  0  0  0  0  0  0
   -3.2513   -3.4324    0.5271 H   0  0  0  0  0  0  0  0  0  0  0  0
   -0.6650   -1.3141   -0.0790 H   0  0  0  0  0  0  0  0  0  0  0  0
   -0.1136    0.2088   -3.4456 H   0  0  0  0  0  0  0  0  0  0  0  0
    2.1033    1.0730   -4.0142 H   0  0  0  0  0  0  0  0  0  0  0  0
    4.4462    1.1840   -3.5591 H   0  0  0  0  0  0  0  0  0  0  0  0
    4.5043    2.0519   -2.0161 H   0  0  0  0  0  0  0  0  0  0  0  0
    5.1347    0.3844   -2.1539 H   0  0  0  0  0  0  0  0  0  0  0  0
    5.2678   -2.5593    2.0759 H   0  0  0  0  0  0  0  0  0  0  0  0
    3.6184   -2.3178    0.2498 H   0  0  0  0  0  0  0  0  0  0  0  0
    3.9531    1.9663    0.4998 H   0  0  0  0  0  0  0  0  0  0  0  0
    6.2777   -0.5517    3.1172 H   0  0  0  0  0  0  0  0  0  0  0  0
    5.8886    3.8566    2.5169 H   0  0  0  0  0  0  0  0  0  0  0  0
  1  2  1  0
  1  5  1  0
  2  3  1  0
  3  4  1  0
  2  6  1  0
  2  7  1  0
  8  5  1  0
  5  4  2  0
  4  9  1  0
  8 11  2  0
  9 10  2  0
 10 11  1  0
 11 12  1  0
 12 13  1  0
 13 14  1  0
 14 12  1  0
 12 15  1  0
 15 16  2  0
 15 17  1  0
 17 18  1  0
 19 18  2  0
 18 20  1  0
 19 23  1  0
 20 21  2  0
 21 22  1  0
 22 23  2  0
 22 24  1  0
 23 25  1  0
 27 25  1  0
 25 28  2  0
 26 27  2  0
 26 30  1  0
 28 29  1  0
 29 30  2  0
 29 31  1  0
 31 32  1  0
 31 33  2  0
  8 34  1  0
  9 35  1  0
 10 36  1  0
 13 37  1  0
 13 38  1  0
 14 39  1  0
 14 40  1  0
 17 41  1  0
 20 42  1  0
 21 43  1  0
 24 44  1  0
 24 45  1  0
 24 46  1  0
 26 47  1  0
 27 48  1  0
 28 49  1  0
 30 50  1  0
 32 51  1  0
M  END
$$$$
