
     RDKit          3D

 51 55  0  0  0  0  0  0  0  0999 V2000
    6.5330    1.0173   -1.2983 O   0  0  0  0  0  0  0  0  0  0  0  0
    6.8235    2.3943   -1.0230 C   0  0  0  0  0  0  0  0  0  0  0  0
    5.9972    2.9971   -0.0172 O   0  0  0  0  0  0  0  0  0  0  0  0
    5.2059    1.9392    0.3015 C   0  0  0  0  0  0  0  0  0  0  0  0
    5.5102    0.8136   -0.4260 C   0  0  0  0  0  0  0  0  0  0  0  0
    6.6900    3.1022   -2.1717 F   0  0  0  0  0  0  0  0  0  0  0  0
    8.1181    2.4916   -0.6310 F   0  0  0  0  0  0  0  0  0  0  0  0
    4.8213   -0.3697   -0.2550 C   0  0  0  0  0  0  0  0  0  0  0  0
    4.1967    1.9422    1.2363 C   0  0  0  0  0  0  0  0  0  0  0  0
    3.4850    0.7519    1.4269 C   0  0  0  0  0  0  0  0  0  0  0  0
    3.7820   -0.4267    0.6948 C   0  0  0  0  0  0  0  0  0  0  0  0
    2.9881   -1.7151    0.9013 C   0  0  0  0  0  0  0  0  0  0  0  0
    3.7597   -2.9340    1.4076 C   0  0  0  0  0  0  0  0  0  0  0  0
    2.8012   -2.2438    2.3230 C   0  0  0  0  0  0  0  0  0  0  0  0
    1.8861   -1.9717   -0.1031 C   0  0  0  0  0  0  0  0  0  0  0  0
    2.1243   -2.6405   -1.0989 O   0  0  0  0  0  0  0  0  0  0  0  0
    0.6988   -1.3842    0.2454 N   0  0  0  0  0  0  0  0  0  0  0  0
   -0.5098   -1.3984   -0.4458 C   0  0  0  0  0  0  0  0  0  0  0  0
   -1.4864   -0.7112    0.1804 N   0  0  0  0  0  0  0  0  0  0  0  0
   -0.7092   -2.0412   -1.6540 C   0  0  0  0  0  0  0  0  0  0  0  0
   -1.9702   -1.9801   -2.2420 C   0  0  0  0  0  0  0  0  0  0  0  0
   -3.0063   -1.2832   -1.6136 C   0  0  0  0  0  0  0  0  0  0  0  0
   -2.7119   -0.6422   -0.4046 C   0  0  0  0  0  0  0  0  0  0  0  0
   -4.3607   -1.2315   -2.2572 C   0  0  0  0  0  0  0  0  0  0  0  0
   -3.6852    0.1569    0.3555 C   0  0  0  0  0  0  0  0  0  0  0  0
   -4.9850    0.5167    2.3894 C   0  0  0  0  0  0  0  0  0  0  0  0
   -4.0660   -0.2321    1.6514 C   0  0  0  0  0  0  0  0  0  0  0  0
   -4.2372    1.3355   -0.1751 C   0  0  0  0  0  0  0  0  0  0  0  0
   -5.1611    2.0909    0.5607 C   0  0  0  0  0  0  0  0  0  0  0  0
   -5.5343    1.6754    1.8437 C   0  0  0  0  0  0  0  0  0  0  0  0
   -5.7631    3.3349    0.0238 C   0  0  0  0  0  0  0  0  0  0  0  0
   -5.3613    3.6112   -1.2294 O   0  0  0  0  0  0  0  0  0  0  0  0
   -6.5462    4.0591    0.6099 O   0  0  0  0  0  0  0  0  0  0  0  0
    5.0735   -1.2431   -0.8507 H   0  0  0  0  0  0  0  0  0  0  0  0
    3.9591    2.8354    1.8040 H   0  0  0  0  0  0  0  0  0  0  0  0
    2.6808    0.7392    2.1609 H   0  0  0  0  0  0  0  0  0  0  0  0
    3.4851   -3.9079    1.0152 H   0  0  0  0  0  0  0  0  0  0  0  0
    4.8198   -2.8338    1.6126 H   0  0  0  0  0  0  0  0  0  0  0  0
    3.2204   -1.6880    3.1543 H   0  0  0  0  0  0  0  0  0  0  0  0
    1.8834   -2.7673    2.5691 H   0  0  0  0  0  0  0  0  0  0  0  0
    0.6504   -0.8469    1.0987 H   0  0  0  0  0  0  0  0  0  0  0  0
    0.0790   -2.5887   -2.1566 H   0  0  0  0  0  0  0  0  0  0  0  0
   -2.1355   -2.4850   -3.1911 H   0  0  0  0  0  0  0  0  0  0  0  0
   -4.4725   -2.0242   -3.0052 H   0  0  0  0  0  0  0  0  0  0  0  0
   -4.5067   -0.2703   -2.7593 H   0  0  0  0  0  0  0  0  0  0  0  0
   -5.1538   -1.3827   -1.5179 H   0  0  0  0  0  0  0  0  0  0  0  0
   -5.2678    0.1978    3.3897 H   0  0  0  0  0  0  0  0  0  0  0  0
   -3.6363   -1.1311    2.0912 H   0  0  0  0  0  0  0  0  0  0  0  0
   -3.9306    1.6691   -1.1646 H   0  0  0  0  0  0  0  0  0  0  0  0
   -6.2488    2.2568    2.4236 H   0  0  0  0  0  0  0  0  0  0  0  0
   -5.8271    4.4462   -1.4460 H   0  0  0  0  0  0  0  0  0  0  0  0
  1  2  1  0
  1  5  1  0
  2  3  1  0
  3  4  1  0
  2  6  1  0
  2  7  1  0
  8  5  1  0
  5  4  2  0
  4  9  1  0
  8 11  2  0
  9 10  2  0
 10 11  1  0
 11 12  1  0
 12 13  1  0
 13 14  1  0
 14 12  1  0
 12 15  1  0
 15 16  2  0
 15 17  1  0
 17 18  1  0
 19 18  2  0
 18 20  1  0
 19 23  1  0
 20 21  2  0
 21 22  1  0
 22 23  2  0
 22 24  1  0
 23 25  1  0
 27 25  1  0
 25 28  2  0
 26 27  2  0
 26 30  1  0
 28 29  1  0
 29 30  2  0
 29 31  1  0
 31 32  1  0
 31 33  2  0
  8 34  1  0
  9 35  1  0
 10 36  1  0
 13 37  1  0
 13 38  1  0
 14 39  1  0
 14 40  1  0
 17 41  1  0
 20 42  1  0
 21 43  1  0
 24 44  1  0
 24 45  1  0
 24 46  1  0
 26 47  1  0
 27 48  1  0
 28 49  1  0
 30 50  1  0
 32 51  1  0
M  END
$$$$
