
     RDKit          3D

 33 37  0  0  0  0  0  0  0  0999 V2000
    6.5975   -0.5174   -0.1062 O   0  0  0  0  0  0  0  0  0  0  0  0
    7.2327    0.0501    1.0060 C   0  0  0  0  0  0  0  0  0  0  0  0
    6.3268    0.9046    1.6402 O   0  0  0  0  0  0  0  0  0  0  0  0
    5.1439    0.8364    0.9152 C   0  0  0  0  0  0  0  0  0  0  0  0
    5.2962   -0.0347   -0.1620 C   0  0  0  0  0  0  0  0  0  0  0  0
    8.3669    0.7760    0.6715 F   0  0  0  0  0  0  0  0  0  0  0  0
    7.5798   -0.9695    1.8684 F   0  0  0  0  0  0  0  0  0  0  0  0
    4.2314   -0.2633   -1.0373 C   0  0  0  0  0  0  0  0  0  0  0  0
    3.9203    1.4782    1.1126 C   0  0  0  0  0  0  0  0  0  0  0  0
    2.9053    1.2293    0.2371 C   0  0  0  0  0  0  0  0  0  0  0  0
    3.0477    0.3697   -0.8301 C   0  0  0  0  0  0  0  0  0  0  0  0
    1.8442    0.1971   -1.7049 C   0  0  0  0  0  0  0  0  0  0  0  0
    2.0602   -0.6697   -2.9689 C   0  0  0  0  0  0  0  0  0  0  0  0
    1.9733    0.8075   -3.0547 C   0  0  0  0  0  0  0  0  0  0  0  0
    0.5380    0.0057   -1.0501 C   0  0  0  0  0  0  0  0  0  0  0  0
   -0.5424   -0.1498   -1.6660 O   0  0  0  0  0  0  0  0  0  0  0  0
    0.4876   -0.0052    0.3685 N   0  0  0  0  0  0  0  0  0  0  0  0
   -0.7155   -0.1819    1.1137 C   0  0  0  0  0  0  0  0  0  0  0  0
   -1.9172   -0.3552    0.5497 N   0  0  0  0  0  0  0  0  0  0  0  0
   -0.5791   -0.1655    2.4969 C   0  0  0  0  0  0  0  0  0  0  0  0
   -1.6683   -0.3259    3.3460 C   0  0  0  0  0  0  0  0  0  0  0  0
   -2.9027   -0.5038    2.7176 C   0  0  0  0  0  0  0  0  0  0  0  0
   -3.0175   -0.5171    1.3372 C   0  0  0  0  0  0  0  0  0  0  0  0
   -4.0808   -0.6771    3.6095 C   0  0  0  0  0  0  0  0  0  0  0  0
   -4.3249   -0.7056    0.7208 C   0  0  0  0  0  0  0  0  0  0  0  0
   -6.4448   -1.7646    0.4895 C   0  0  0  0  0  0  0  0  0  0  0  0
   -5.2272   -1.6617    1.1375 C   0  0  0  0  0  0  0  0  0  0  0  0
   -4.6680    0.1192   -0.3322 C   0  0  0  0  0  0  0  0  0  0  0  0
   -5.8823    0.0190   -0.9809 C   0  0  0  0  0  0  0  0  0  0  0  0
   -6.7810   -0.9382   -0.5609 C   0  0  0  0  0  0  0  0  0  0  0  0
   -6.2080    0.9049   -2.0854 C   0  0  0  0  0  0  0  0  0  0  0  0
   -5.2851    1.8632   -2.4915 O   0  0  0  0  0  0  0  0  0  0  0  0
   -7.3071    0.8453   -2.7044 O   0  0  0  0  0  0  0  0  0  0  0  0
  1  2  1  0
  1  5  1  0
  2  3  1  0
  3  4  1  0
  2  6  1  0
  2  7  1  0
  8  5  1  0
  5  4  2  0
  4  9  1  0
  8 11  2  0
  9 10  2  0
 10 11  1  0
 11 12  1  0
 12 13  1  0
 13 14  1  0
 14 12  1  0
 12 15  1  0
 15 16  2  0
 15 17  1  0
 17 18  1  0
 19 18  2  0
 18 20  1  0
 19 23  1  0
 20 21  2  0
 21 22  1  0
 22 23  2  0
 22 24  1  0
 23 25  1  0
 27 25  1  0
 25 28  2  0
 26 27  2  0
 26 30  1  0
 28 29  1  0
 29 30  2  0
 29 31  1  0
 31 32  1  0
 31 33  2  0
M  END
