
     RDKit          3D

 51 55  0  0  0  0  0  0  0  0999 V2000
    4.4699    1.5179   -2.2577 O   0  0  0  0  0  0  0  0  0  0  0  0
    4.6859    2.8814   -1.8648 C   0  0  0  0  0  0  0  0  0  0  0  0
    4.5188    3.1390   -0.4622 O   0  0  0  0  0  0  0  0  0  0  0  0
    4.1891    1.8924   -0.0314 C   0  0  0  0  0  0  0  0  0  0  0  0
    4.1624    0.9699   -1.0510 C   0  0  0  0  0  0  0  0  0  0  0  0
    5.9449    3.2383   -2.2211 F   0  0  0  0  0  0  0  0  0  0  0  0
    3.8245    3.6714   -2.5530 F   0  0  0  0  0  0  0  0  0  0  0  0
    3.8540   -0.3567   -0.8230 C   0  0  0  0  0  0  0  0  0  0  0  0
    3.9083    1.5397    1.2688 C   0  0  0  0  0  0  0  0  0  0  0  0
    3.5967    0.1992    1.5244 C   0  0  0  0  0  0  0  0  0  0  0  0
    3.5644   -0.7758    0.4916 C   0  0  0  0  0  0  0  0  0  0  0  0
    3.2047   -2.2388    0.7896 C   0  0  0  0  0  0  0  0  0  0  0  0
    4.3120   -3.2632    0.5038 C   0  0  0  0  0  0  0  0  0  0  0  0
    3.9634   -2.9383    1.9225 C   0  0  0  0  0  0  0  0  0  0  0  0
    1.7588   -2.6910    0.5632 C   0  0  0  0  0  0  0  0  0  0  0  0
    1.5216   -3.8828    0.3929 O   0  0  0  0  0  0  0  0  0  0  0  0
    0.8248   -1.6855    0.6055 N   0  0  0  0  0  0  0  0  0  0  0  0
   -0.5552   -1.7756    0.4292 C   0  0  0  0  0  0  0  0  0  0  0  0
   -1.1732   -0.5794    0.5012 N   0  0  0  0  0  0  0  0  0  0  0  0
   -1.2425   -2.9533    0.1947 C   0  0  0  0  0  0  0  0  0  0  0  0
   -2.6256   -2.8988    0.0385 C   0  0  0  0  0  0  0  0  0  0  0  0
   -3.2963   -1.6743    0.1180 C   0  0  0  0  0  0  0  0  0  0  0  0
   -2.5210   -0.5266    0.3259 C   0  0  0  0  0  0  0  0  0  0  0  0
   -4.7882   -1.6425   -0.0396 C   0  0  0  0  0  0  0  0  0  0  0  0
   -3.0642    0.8414    0.3729 C   0  0  0  0  0  0  0  0  0  0  0  0
   -3.3377    2.9606    1.5562 C   0  0  0  0  0  0  0  0  0  0  0  0
   -2.8536    1.6512    1.5026 C   0  0  0  0  0  0  0  0  0  0  0  0
   -3.7615    1.3930   -0.7161 C   0  0  0  0  0  0  0  0  0  0  0  0
   -4.2512    2.7064   -0.6674 C   0  0  0  0  0  0  0  0  0  0  0  0
   -4.0360    3.4882    0.4732 C   0  0  0  0  0  0  0  0  0  0  0  0
   -4.9895    3.3106   -1.8011 C   0  0  0  0  0  0  0  0  0  0  0  0
   -5.2078    2.4406   -2.8034 O   0  0  0  0  0  0  0  0  0  0  0  0
   -5.3880    4.4584   -1.8615 O   0  0  0  0  0  0  0  0  0  0  0  0
    3.8400   -1.0648   -1.6476 H   0  0  0  0  0  0  0  0  0  0  0  0
    3.9318    2.2742    2.0684 H   0  0  0  0  0  0  0  0  0  0  0  0
    3.3767   -0.0989    2.5493 H   0  0  0  0  0  0  0  0  0  0  0  0
    5.2683   -2.9156    0.1275 H   0  0  0  0  0  0  0  0  0  0  0  0
    4.0287   -4.2390    0.1209 H   0  0  0  0  0  0  0  0  0  0  0  0
    4.6935   -2.3826    2.5003 H   0  0  0  0  0  0  0  0  0  0  0  0
    3.4405   -3.6967    2.4971 H   0  0  0  0  0  0  0  0  0  0  0  0
    1.1209   -0.7307    0.7551 H   0  0  0  0  0  0  0  0  0  0  0  0
   -0.7457   -3.9139    0.1318 H   0  0  0  0  0  0  0  0  0  0  0  0
   -3.1731   -3.8223   -0.1411 H   0  0  0  0  0  0  0  0  0  0  0  0
   -5.2258   -2.6263    0.1664 H   0  0  0  0  0  0  0  0  0  0  0  0
   -5.0588   -1.3581   -1.0604 H   0  0  0  0  0  0  0  0  0  0  0  0
   -5.2448   -0.9446    0.6699 H   0  0  0  0  0  0  0  0  0  0  0  0
   -3.1595    3.5708    2.4384 H   0  0  0  0  0  0  0  0  0  0  0  0
   -2.2946    1.2568    2.3504 H   0  0  0  0  0  0  0  0  0  0  0  0
   -3.9037    0.7974   -1.6156 H   0  0  0  0  0  0  0  0  0  0  0  0
   -4.4052    4.5111    0.5177 H   0  0  0  0  0  0  0  0  0  0  0  0
   -5.7020    2.9656   -3.4687 H   0  0  0  0  0  0  0  0  0  0  0  0
  1  2  1  0
  1  5  1  0
  2  3  1  0
  3  4  1  0
  2  6  1  0
  2  7  1  0
  8  5  1  0
  5  4  2  0
  4  9  1  0
  8 11  2  0
  9 10  2  0
 10 11  1  0
 11 12  1  0
 12 13  1  0
 13 14  1  0
 14 12  1  0
 12 15  1  0
 15 16  2  0
 15 17  1  0
 17 18  1  0
 19 18  2  0
 18 20  1  0
 19 23  1  0
 20 21  2  0
 21 22  1  0
 22 23  2  0
 22 24  1  0
 23 25  1  0
 27 25  1  0
 25 28  2  0
 26 27  2  0
 26 30  1  0
 28 29  1  0
 29 30  2  0
 29 31  1  0
 31 32  1  0
 31 33  2  0
  8 34  1  0
  9 35  1  0
 10 36  1  0
 13 37  1  0
 13 38  1  0
 14 39  1  0
 14 40  1  0
 17 41  1  0
 20 42  1  0
 21 43  1  0
 24 44  1  0
 24 45  1  0
 24 46  1  0
 26 47  1  0
 27 48  1  0
 28 49  1  0
 30 50  1  0
 32 51  1  0
M  END
$$$$
