
     RDKit          3D

 43 45  0  0  0  0  0  0  0  0999 V2000
    3.2318   -1.6757   -1.1870 C   0  0  0  0  0  0  0  0  0  0  0  0
    2.8995   -2.5106   -0.1163 C   0  0  0  0  0  0  0  0  0  0  0  0
    2.5678   -1.9576    1.1233 C   0  0  0  0  0  0  0  0  0  0  0  0
    2.5626   -0.5697    1.2961 C   0  0  0  0  0  0  0  0  0  0  0  0
    2.8873    0.2793    0.2202 C   0  0  0  0  0  0  0  0  0  0  0  0
    3.2329   -0.2877   -1.0188 C   0  0  0  0  0  0  0  0  0  0  0  0
    2.9013    1.7791    0.3998 C   0  0  0  0  0  0  0  0  0  0  0  0
    1.4834    2.3843    0.5754 C   0  0  1  0  0  0  0  0  0  0  0  0
    1.5785    3.7168    1.1776 N   0  0  0  0  0  0  0  0  0  0  0  0
    0.7087    2.5038   -0.7569 C   0  0  0  0  0  0  0  0  0  0  0  0
    0.2635    1.1777   -1.3258 C   0  0  0  0  0  0  0  0  0  0  0  0
    0.7506    0.8256   -2.4349 O   0  0  0  0  0  0  0  0  0  0  0  0
   -0.6962    0.3148   -0.6665 N   0  0  0  0  0  0  0  0  0  0  0  0
   -0.6991   -1.1203   -1.0213 C   0  0  0  0  0  0  0  0  0  0  0  0
   -1.4961    0.7712    0.4905 C   0  0  0  0  0  0  0  0  0  0  0  0
   -2.9456    0.2843    0.3772 C   0  0  0  0  0  0  0  0  0  0  0  0
   -2.9567   -1.1313    0.0316 N   0  0  0  0  0  0  0  0  0  0  0  0
   -1.9876   -1.7722   -0.6317 C   0  0  0  0  0  0  0  0  0  0  0  0
   -3.9295   -2.0547    0.1439 C   0  0  0  0  0  0  0  0  0  0  0  0
   -3.5458   -3.2271   -0.4046 N   0  0  0  0  0  0  0  0  0  0  0  0
   -2.3243   -3.0493   -0.8935 N   0  0  0  0  0  0  0  0  0  0  0  0
    3.5551   -2.2104   -2.3905 F   0  0  0  0  0  0  0  0  0  0  0  0
    2.8980   -3.8568   -0.2784 F   0  0  0  0  0  0  0  0  0  0  0  0
    2.2550   -0.0563    2.5142 F   0  0  0  0  0  0  0  0  0  0  0  0
   -5.2593   -1.8283    0.7951 C   0  0  0  0  0  0  0  0  0  0  0  0
   -6.0605   -2.9459    0.6454 F   0  0  0  0  0  0  0  0  0  0  0  0
   -5.8866   -0.7441    0.2101 F   0  0  0  0  0  0  0  0  0  0  0  0
   -5.0780   -1.5809    2.1428 F   0  0  0  0  0  0  0  0  0  0  0  0
    2.3148   -2.6056    1.9525 H   0  0  0  0  0  0  0  0  0  0  0  0
    3.4974    0.3455   -1.8566 H   0  0  0  0  0  0  0  0  0  0  0  0
    3.4192    2.2746   -0.4507 H   0  0  0  0  0  0  0  0  0  0  0  0
    3.5118    2.0014    1.3021 H   0  0  0  0  0  0  0  0  0  0  0  0
    0.9042    1.7502    1.2768 H   0  0  0  0  0  0  0  0  0  0  0  0
    1.9746    3.6267    2.1418 H   0  0  0  0  0  0  0  0  0  0  0  0
    2.2400    4.3045    0.6184 H   0  0  0  0  0  0  0  0  0  0  0  0
    1.3507    3.0267   -1.5003 H   0  0  0  0  0  0  0  0  0  0  0  0
   -0.1796    3.1562   -0.6261 H   0  0  0  0  0  0  0  0  0  0  0  0
   -0.5758   -1.2504   -2.1174 H   0  0  0  0  0  0  0  0  0  0  0  0
    0.1381   -1.6295   -0.5030 H   0  0  0  0  0  0  0  0  0  0  0  0
   -1.5186    1.8749    0.5729 H   0  0  0  0  0  0  0  0  0  0  0  0
   -1.0490    0.3617    1.4222 H   0  0  0  0  0  0  0  0  0  0  0  0
   -3.4694    0.8570   -0.4181 H   0  0  0  0  0  0  0  0  0  0  0  0
   -3.4684    0.4479    1.3436 H   0  0  0  0  0  0  0  0  0  0  0  0
  1  2  2  0
  2  3  1  0
  3  4  2  0
  4  5  1  0
  5  6  2  0
  1  6  1  0
  7  8  1  0
  8  9  1  0
  5  7  1  0
 10 11  1  0
 11 12  2  0
  8 10  1  0
 13 14  1  0
 11 13  1  0
 15 16  1  0
 16 17  1  0
 17 18  1  0
 14 18  1  0
 13 15  1  0
 19 20  2  0
 20 21  1  0
 17 19  1  0
 18 21  2  0
  1 22  1  0
  2 23  1  0
  4 24  1  0
 19 25  1  0
 25 26  1  0
 25 27  1  0
 25 28  1  0
  3 29  1  0
  6 30  1  0
  7 31  1  0
  7 32  1  0
  8 33  1  1
  9 34  1  0
  9 35  1  0
 10 36  1  0
 10 37  1  0
 14 38  1  0
 14 39  1  0
 15 40  1  0
 15 41  1  0
 16 42  1  0
 16 43  1  0
M  END
$$$$
