
     RDKit          3D

 43 45  0  0  0  0  0  0  0  0999 V2000
   -5.3680   -0.6042   -1.8984 C   0  0  0  0  0  0  0  0  0  0  0  0
   -6.0764    0.1792   -0.9829 C   0  0  0  0  0  0  0  0  0  0  0  0
   -5.5285    0.4527    0.2730 C   0  0  0  0  0  0  0  0  0  0  0  0
   -4.2709   -0.0531    0.6182 C   0  0  0  0  0  0  0  0  0  0  0  0
   -3.5480   -0.8396   -0.3000 C   0  0  0  0  0  0  0  0  0  0  0  0
   -4.1106   -1.1126   -1.5591 C   0  0  0  0  0  0  0  0  0  0  0  0
   -2.1795   -1.3814    0.0479 C   0  0  0  0  0  0  0  0  0  0  0  0
   -1.0181   -0.4805   -0.4240 C   0  0  1  0  0  0  0  0  0  0  0  0
   -1.0222   -0.3631   -1.8866 N   0  0  0  0  0  0  0  0  0  0  0  0
   -1.0378    0.9058    0.2628 C   0  0  0  0  0  0  0  0  0  0  0  0
    0.2041    1.7027   -0.0464 C   0  0  0  0  0  0  0  0  0  0  0  0
    0.0751    2.7741   -0.7001 O   0  0  0  0  0  0  0  0  0  0  0  0
    1.5255    1.2538    0.3322 N   0  0  0  0  0  0  0  0  0  0  0  0
    2.6889    1.8604   -0.3419 C   0  0  0  0  0  0  0  0  0  0  0  0
    1.7505    0.4653    1.5615 C   0  0  0  0  0  0  0  0  0  0  0  0
    2.7801   -0.6447    1.3102 C   0  0  0  0  0  0  0  0  0  0  0  0
    3.9169   -0.1045    0.5723 N   0  0  0  0  0  0  0  0  0  0  0  0
    3.8894    0.9775   -0.2159 C   0  0  0  0  0  0  0  0  0  0  0  0
    5.1522   -0.6039    0.3811 C   0  0  0  0  0  0  0  0  0  0  0  0
    5.8599    0.1722   -0.4672 N   0  0  0  0  0  0  0  0  0  0  0  0
    5.0659    1.1680   -0.8420 N   0  0  0  0  0  0  0  0  0  0  0  0
   -5.8986   -0.8719   -3.1173 F   0  0  0  0  0  0  0  0  0  0  0  0
   -7.2959    0.6733   -1.3107 F   0  0  0  0  0  0  0  0  0  0  0  0
   -3.7633    0.2227    1.8462 F   0  0  0  0  0  0  0  0  0  0  0  0
    5.6852   -1.8485    1.0222 C   0  0  0  0  0  0  0  0  0  0  0  0
    4.8471   -2.9121    0.7439 F   0  0  0  0  0  0  0  0  0  0  0  0
    5.7589   -1.6686    2.3906 F   0  0  0  0  0  0  0  0  0  0  0  0
    6.9486   -2.1325    0.5360 F   0  0  0  0  0  0  0  0  0  0  0  0
   -6.0797    1.0577    0.9815 H   0  0  0  0  0  0  0  0  0  0  0  0
   -3.5725   -1.7175   -2.2786 H   0  0  0  0  0  0  0  0  0  0  0  0
   -2.0989   -1.5375    1.1459 H   0  0  0  0  0  0  0  0  0  0  0  0
   -2.0586   -2.3878   -0.4100 H   0  0  0  0  0  0  0  0  0  0  0  0
   -0.0840   -1.0052   -0.1255 H   0  0  0  0  0  0  0  0  0  0  0  0
   -1.7373    0.3399   -2.1838 H   0  0  0  0  0  0  0  0  0  0  0  0
   -0.0905   -0.0045   -2.1984 H   0  0  0  0  0  0  0  0  0  0  0  0
   -1.1458    0.7976    1.3614 H   0  0  0  0  0  0  0  0  0  0  0  0
   -1.9290    1.4758   -0.0800 H   0  0  0  0  0  0  0  0  0  0  0  0
    2.9093    2.8480    0.1158 H   0  0  0  0  0  0  0  0  0  0  0  0
    2.4740    2.0002   -1.4235 H   0  0  0  0  0  0  0  0  0  0  0  0
    2.1288    1.1427    2.3573 H   0  0  0  0  0  0  0  0  0  0  0  0
    0.8227   -0.0055    1.9383 H   0  0  0  0  0  0  0  0  0  0  0  0
    3.1182   -1.0639    2.2818 H   0  0  0  0  0  0  0  0  0  0  0  0
    2.3127   -1.4562    0.7123 H   0  0  0  0  0  0  0  0  0  0  0  0
  1  2  2  0
  2  3  1  0
  3  4  2  0
  4  5  1  0
  5  6  2  0
  1  6  1  0
  7  8  1  0
  8  9  1  0
  5  7  1  0
 10 11  1  0
 11 12  2  0
  8 10  1  0
 13 14  1  0
 11 13  1  0
 15 16  1  0
 16 17  1  0
 17 18  1  0
 14 18  1  0
 13 15  1  0
 19 20  2  0
 20 21  1  0
 17 19  1  0
 18 21  2  0
  1 22  1  0
  2 23  1  0
  4 24  1  0
 19 25  1  0
 25 26  1  0
 25 27  1  0
 25 28  1  0
  3 29  1  0
  6 30  1  0
  7 31  1  0
  7 32  1  0
  8 33  1  6
  9 34  1  0
  9 35  1  0
 10 36  1  0
 10 37  1  0
 14 38  1  0
 14 39  1  0
 15 40  1  0
 15 41  1  0
 16 42  1  0
 16 43  1  0
M  END
$$$$
