
     RDKit          3D

 43 45  0  0  0  0  0  0  0  0999 V2000
   -5.4053   -0.2570   -1.3367 C   0  0  0  0  0  0  0  0  0  0  0  0
   -4.8242   -0.9650   -2.3931 C   0  0  0  0  0  0  0  0  0  0  0  0
   -3.4866   -1.3611   -2.3166 C   0  0  0  0  0  0  0  0  0  0  0  0
   -2.7261   -1.0535   -1.1843 C   0  0  0  0  0  0  0  0  0  0  0  0
   -3.3058   -0.3471   -0.1135 C   0  0  0  0  0  0  0  0  0  0  0  0
   -4.6497    0.0535   -0.2023 C   0  0  0  0  0  0  0  0  0  0  0  0
   -2.4880    0.0106    1.1028 C   0  0  0  0  0  0  0  0  0  0  0  0
   -1.5703    1.2308    0.8438 C   0  0  1  0  0  0  0  0  0  0  0  0
   -2.3539    2.4363    0.5564 N   0  0  0  0  0  0  0  0  0  0  0  0
   -0.6528    1.5111    2.0498 C   0  0  0  0  0  0  0  0  0  0  0  0
    0.3325    0.3933    2.2909 C   0  0  0  0  0  0  0  0  0  0  0  0
    0.1973   -0.3103    3.3299 O   0  0  0  0  0  0  0  0  0  0  0  0
    1.3698    0.0638    1.3429 N   0  0  0  0  0  0  0  0  0  0  0  0
    1.6371   -1.3660    1.0938 C   0  0  0  0  0  0  0  0  0  0  0  0
    1.9437    1.0969    0.4558 C   0  0  0  0  0  0  0  0  0  0  0  0
    3.4430    0.8629    0.2347 C   0  0  0  0  0  0  0  0  0  0  0  0
    3.6780   -0.5414   -0.0719 N   0  0  0  0  0  0  0  0  0  0  0  0
    2.9108   -1.5589    0.3342 C   0  0  0  0  0  0  0  0  0  0  0  0
    4.7305   -1.1478   -0.6515 C   0  0  0  0  0  0  0  0  0  0  0  0
    4.5862   -2.4897   -0.6263 N   0  0  0  0  0  0  0  0  0  0  0  0
    3.4427   -2.7485   -0.0036 N   0  0  0  0  0  0  0  0  0  0  0  0
   -6.7017    0.1317   -1.4111 F   0  0  0  0  0  0  0  0  0  0  0  0
   -5.5558   -1.2657   -3.4941 F   0  0  0  0  0  0  0  0  0  0  0  0
   -1.4274   -1.4433   -1.1327 F   0  0  0  0  0  0  0  0  0  0  0  0
    5.9049   -0.4419   -1.2562 C   0  0  0  0  0  0  0  0  0  0  0  0
    6.4650    0.4120   -0.3260 F   0  0  0  0  0  0  0  0  0  0  0  0
    6.8595   -1.3587   -1.6565 F   0  0  0  0  0  0  0  0  0  0  0  0
    5.4907    0.2853   -2.3551 F   0  0  0  0  0  0  0  0  0  0  0  0
   -3.0374   -1.9065   -3.1369 H   0  0  0  0  0  0  0  0  0  0  0  0
   -5.1103    0.6091    0.6055 H   0  0  0  0  0  0  0  0  0  0  0  0
   -1.8744   -0.8729    1.3818 H   0  0  0  0  0  0  0  0  0  0  0  0
   -3.1535    0.2165    1.9697 H   0  0  0  0  0  0  0  0  0  0  0  0
   -0.9307    1.0160   -0.0394 H   0  0  0  0  0  0  0  0  0  0  0  0
   -3.0955    2.5555    1.2843 H   0  0  0  0  0  0  0  0  0  0  0  0
   -2.8279    2.3275   -0.3692 H   0  0  0  0  0  0  0  0  0  0  0  0
   -1.2784    1.6556    2.9586 H   0  0  0  0  0  0  0  0  0  0  0  0
   -0.1107    2.4664    1.8967 H   0  0  0  0  0  0  0  0  0  0  0  0
    1.7321   -1.9085    2.0580 H   0  0  0  0  0  0  0  0  0  0  0  0
    0.7954   -1.8041    0.5184 H   0  0  0  0  0  0  0  0  0  0  0  0
    1.4208    1.0681   -0.5248 H   0  0  0  0  0  0  0  0  0  0  0  0
    1.8263    2.1109    0.8907 H   0  0  0  0  0  0  0  0  0  0  0  0
    3.7988    1.5029   -0.6005 H   0  0  0  0  0  0  0  0  0  0  0  0
    4.0013    1.1313    1.1570 H   0  0  0  0  0  0  0  0  0  0  0  0
  1  2  2  0
  2  3  1  0
  3  4  2  0
  4  5  1  0
  5  6  2  0
  1  6  1  0
  7  8  1  0
  8  9  1  0
  5  7  1  0
 10 11  1  0
 11 12  2  0
  8 10  1  0
 13 14  1  0
 11 13  1  0
 15 16  1  0
 16 17  1  0
 17 18  1  0
 14 18  1  0
 13 15  1  0
 19 20  2  0
 20 21  1  0
 17 19  1  0
 18 21  2  0
  1 22  1  0
  2 23  1  0
  4 24  1  0
 19 25  1  0
 25 26  1  0
 25 27  1  0
 25 28  1  0
  3 29  1  0
  6 30  1  0
  7 31  1  0
  7 32  1  0
  8 33  1  6
  9 34  1  0
  9 35  1  0
 10 36  1  0
 10 37  1  0
 14 38  1  0
 14 39  1  0
 15 40  1  0
 15 41  1  0
 16 42  1  0
 16 43  1  0
M  END
$$$$
