
     RDKit          3D

 43 45  0  0  0  0  0  0  0  0999 V2000
    2.3489    2.0265   -4.4191 C   0  0  0  0  0  0  0  0  0  0  0  0
    3.3696    1.2444   -4.9679 C   0  0  0  0  0  0  0  0  0  0  0  0
    4.2697    0.5817   -4.1289 C   0  0  0  0  0  0  0  0  0  0  0  0
    4.1536    0.6982   -2.7399 C   0  0  0  0  0  0  0  0  0  0  0  0
    3.1310    1.4866   -2.1795 C   0  0  0  0  0  0  0  0  0  0  0  0
    2.2286    2.1473   -3.0311 C   0  0  0  0  0  0  0  0  0  0  0  0
    2.9817    1.6018   -0.6812 C   0  0  0  0  0  0  0  0  0  0  0  0
    2.3095    0.3603   -0.0614 C   0  0  1  0  0  0  0  0  0  0  0  0
    2.4145    0.4473    1.3990 N   0  0  0  0  0  0  0  0  0  0  0  0
    0.8333    0.2299   -0.5095 C   0  0  0  0  0  0  0  0  0  0  0  0
    0.1908   -1.0169    0.0441 C   0  0  0  0  0  0  0  0  0  0  0  0
    0.6752   -2.1380   -0.2699 O   0  0  0  0  0  0  0  0  0  0  0  0
   -0.9319   -0.9580    0.9452 N   0  0  0  0  0  0  0  0  0  0  0  0
   -0.9071   -1.8335    2.1329 C   0  0  0  0  0  0  0  0  0  0  0  0
   -1.9333    0.1195    0.8202 C   0  0  0  0  0  0  0  0  0  0  0  0
   -3.3416   -0.3928    1.1460 C   0  0  0  0  0  0  0  0  0  0  0  0
   -3.3019   -1.1873    2.3668 N   0  0  0  0  0  0  0  0  0  0  0  0
   -2.2415   -1.8741    2.8069 C   0  0  0  0  0  0  0  0  0  0  0  0
   -4.2865   -1.5465    3.2115 C   0  0  0  0  0  0  0  0  0  0  0  0
   -3.8266   -2.3985    4.1522 N   0  0  0  0  0  0  0  0  0  0  0  0
   -2.5404   -2.6064    3.8966 N   0  0  0  0  0  0  0  0  0  0  0  0
    1.4724    2.6673   -5.2315 F   0  0  0  0  0  0  0  0  0  0  0  0
    3.4876    1.1267   -6.3136 F   0  0  0  0  0  0  0  0  0  0  0  0
    5.0375    0.0452   -1.9434 F   0  0  0  0  0  0  0  0  0  0  0  0
   -5.7052   -1.0721    3.1307 C   0  0  0  0  0  0  0  0  0  0  0  0
   -6.4772   -1.7108    4.0847 F   0  0  0  0  0  0  0  0  0  0  0  0
   -5.7501    0.2913    3.3536 F   0  0  0  0  0  0  0  0  0  0  0  0
   -6.2191   -1.3494    1.8775 F   0  0  0  0  0  0  0  0  0  0  0  0
    5.0589   -0.0240   -4.5555 H   0  0  0  0  0  0  0  0  0  0  0  0
    1.4287    2.7505   -2.6194 H   0  0  0  0  0  0  0  0  0  0  0  0
    2.4017    2.5138   -0.4173 H   0  0  0  0  0  0  0  0  0  0  0  0
    3.9910    1.7322   -0.2326 H   0  0  0  0  0  0  0  0  0  0  0  0
    2.8695   -0.5412   -0.3982 H   0  0  0  0  0  0  0  0  0  0  0  0
    1.7436    1.1659    1.7574 H   0  0  0  0  0  0  0  0  0  0  0  0
    2.1500   -0.4729    1.8193 H   0  0  0  0  0  0  0  0  0  0  0  0
    0.2832    1.1409   -0.1960 H   0  0  0  0  0  0  0  0  0  0  0  0
    0.7774    0.1704   -1.6167 H   0  0  0  0  0  0  0  0  0  0  0  0
   -0.6444   -2.8707    1.8341 H   0  0  0  0  0  0  0  0  0  0  0  0
   -0.1443   -1.4623    2.8496 H   0  0  0  0  0  0  0  0  0  0  0  0
   -1.9501    0.5228   -0.2157 H   0  0  0  0  0  0  0  0  0  0  0  0
   -1.6681    0.9435    1.5175 H   0  0  0  0  0  0  0  0  0  0  0  0
   -4.0299    0.4701    1.2708 H   0  0  0  0  0  0  0  0  0  0  0  0
   -3.7083   -1.0284    0.3115 H   0  0  0  0  0  0  0  0  0  0  0  0
  1  2  2  0
  2  3  1  0
  3  4  2  0
  4  5  1  0
  5  6  2  0
  1  6  1  0
  7  8  1  0
  8  9  1  0
  5  7  1  0
 10 11  1  0
 11 12  2  0
  8 10  1  0
 13 14  1  0
 11 13  1  0
 15 16  1  0
 16 17  1  0
 17 18  1  0
 14 18  1  0
 13 15  1  0
 19 20  2  0
 20 21  1  0
 17 19  1  0
 18 21  2  0
  1 22  1  0
  2 23  1  0
  4 24  1  0
 19 25  1  0
 25 26  1  0
 25 27  1  0
 25 28  1  0
  3 29  1  0
  6 30  1  0
  7 31  1  0
  7 32  1  0
  8 33  1  6
  9 34  1  0
  9 35  1  0
 10 36  1  0
 10 37  1  0
 14 38  1  0
 14 39  1  0
 15 40  1  0
 15 41  1  0
 16 42  1  0
 16 43  1  0
M  END
$$$$
