
     RDKit          3D

 43 45  0  0  0  0  0  0  0  0999 V2000
    5.5276   -1.3850    0.6569 C   0  0  0  0  0  0  0  0  0  0  0  0
    6.1553   -0.2334    0.1739 C   0  0  0  0  0  0  0  0  0  0  0  0
    5.4596    0.6416   -0.6645 C   0  0  0  0  0  0  0  0  0  0  0  0
    4.1346    0.3710   -1.0214 C   0  0  0  0  0  0  0  0  0  0  0  0
    3.4926   -0.7848   -0.5354 C   0  0  0  0  0  0  0  0  0  0  0  0
    4.2033   -1.6610    0.3035 C   0  0  0  0  0  0  0  0  0  0  0  0
    2.0551   -1.0863   -0.8960 C   0  0  0  0  0  0  0  0  0  0  0  0
    1.0350   -0.5715    0.1420 C   0  0  1  0  0  0  0  0  0  0  0  0
    1.2488   -1.2247    1.4383 N   0  0  0  0  0  0  0  0  0  0  0  0
    1.0554    0.9706    0.2662 C   0  0  0  0  0  0  0  0  0  0  0  0
   -0.0739    1.4791    1.1258 C   0  0  0  0  0  0  0  0  0  0  0  0
    0.2177    2.0618    2.2062 O   0  0  0  0  0  0  0  0  0  0  0  0
   -1.4627    1.2737    0.7795 N   0  0  0  0  0  0  0  0  0  0  0  0
   -2.4774    1.4320    1.8385 C   0  0  0  0  0  0  0  0  0  0  0  0
   -1.9090    1.2288   -0.6285 C   0  0  0  0  0  0  0  0  0  0  0  0
   -2.9683    0.1357   -0.8247 C   0  0  0  0  0  0  0  0  0  0  0  0
   -3.9525    0.2047    0.2502 N   0  0  0  0  0  0  0  0  0  0  0  0
   -3.7418    0.7259    1.4654 C   0  0  0  0  0  0  0  0  0  0  0  0
   -5.1811   -0.3368    0.3468 C   0  0  0  0  0  0  0  0  0  0  0  0
   -5.7097   -0.1174    1.5696 N   0  0  0  0  0  0  0  0  0  0  0  0
   -4.8048    0.5523    2.2732 N   0  0  0  0  0  0  0  0  0  0  0  0
    6.2014   -2.2362    1.4695 F   0  0  0  0  0  0  0  0  0  0  0  0
    7.4396    0.0357    0.5160 F   0  0  0  0  0  0  0  0  0  0  0  0
    3.4828    1.2341   -1.8411 F   0  0  0  0  0  0  0  0  0  0  0  0
   -5.8820   -1.0793   -0.7493 C   0  0  0  0  0  0  0  0  0  0  0  0
   -6.1312   -0.2208   -1.8034 F   0  0  0  0  0  0  0  0  0  0  0  0
   -7.0829   -1.5884   -0.2888 F   0  0  0  0  0  0  0  0  0  0  0  0
   -5.0890   -2.1239   -1.1861 F   0  0  0  0  0  0  0  0  0  0  0  0
    5.9484    1.5318   -1.0394 H   0  0  0  0  0  0  0  0  0  0  0  0
    3.7291   -2.5565    0.6858 H   0  0  0  0  0  0  0  0  0  0  0  0
    1.9294   -2.1861   -1.0043 H   0  0  0  0  0  0  0  0  0  0  0  0
    1.8133   -0.6552   -1.8921 H   0  0  0  0  0  0  0  0  0  0  0  0
    0.0346   -0.8786   -0.2350 H   0  0  0  0  0  0  0  0  0  0  0  0
    0.3960   -1.0893    2.0285 H   0  0  0  0  0  0  0  0  0  0  0  0
    2.0450   -0.7668    1.9389 H   0  0  0  0  0  0  0  0  0  0  0  0
    2.0226    1.2930    0.7103 H   0  0  0  0  0  0  0  0  0  0  0  0
    1.0032    1.4453   -0.7348 H   0  0  0  0  0  0  0  0  0  0  0  0
   -2.6901    2.5114    1.9897 H   0  0  0  0  0  0  0  0  0  0  0  0
   -2.1062    0.9970    2.7917 H   0  0  0  0  0  0  0  0  0  0  0  0
   -1.0768    1.0307   -1.3304 H   0  0  0  0  0  0  0  0  0  0  0  0
   -2.3459    2.2149   -0.8973 H   0  0  0  0  0  0  0  0  0  0  0  0
   -3.4653    0.2732   -1.8086 H   0  0  0  0  0  0  0  0  0  0  0  0
   -2.4801   -0.8621   -0.8053 H   0  0  0  0  0  0  0  0  0  0  0  0
  1  2  2  0
  2  3  1  0
  3  4  2  0
  4  5  1  0
  5  6  2  0
  1  6  1  0
  7  8  1  0
  8  9  1  0
  5  7  1  0
 10 11  1  0
 11 12  2  0
  8 10  1  0
 13 14  1  0
 11 13  1  0
 15 16  1  0
 16 17  1  0
 17 18  1  0
 14 18  1  0
 13 15  1  0
 19 20  2  0
 20 21  1  0
 17 19  1  0
 18 21  2  0
  1 22  1  0
  2 23  1  0
  4 24  1  0
 19 25  1  0
 25 26  1  0
 25 27  1  0
 25 28  1  0
  3 29  1  0
  6 30  1  0
  7 31  1  0
  7 32  1  0
  8 33  1  6
  9 34  1  0
  9 35  1  0
 10 36  1  0
 10 37  1  0
 14 38  1  0
 14 39  1  0
 15 40  1  0
 15 41  1  0
 16 42  1  0
 16 43  1  0
M  END
$$$$
