
     RDKit          2D

 39 41  0  0  0  0  0  0  0  0999 V2000
   -6.6868    0.3399    0.0000 C   0  0  0  0  0  0  0  0  0  0  0  0
   -6.6868    1.1649    0.0000 C   0  0  0  0  0  0  0  0  0  0  0  0
   -5.9723    1.5774    0.0000 C   0  0  0  0  0  0  0  0  0  0  0  0
   -5.2579    1.1649    0.0000 C   0  0  0  0  0  0  0  0  0  0  0  0
   -5.2579    0.3399    0.0000 C   0  0  0  0  0  0  0  0  0  0  0  0
   -5.9723   -0.0726    0.0000 C   0  0  0  0  0  0  0  0  0  0  0  0
   -4.5434   -0.0726    0.0000 C   0  0  0  0  0  0  0  0  0  0  0  0
   -3.8289    0.3399    0.0000 C   0  0  0  0  0  0  0  0  0  0  0  0
   -3.1145   -0.0726    0.0000 C   0  0  0  0  0  0  0  0  0  0  0  0
   -2.4000    0.3399    0.0000 C   0  0  0  0  0  0  0  0  0  0  0  0
   -2.4000    1.1649    0.0000 O   0  0  0  0  0  0  0  0  0  0  0  0
   -1.6855   -0.0726    0.0000 O   0  0  0  0  0  0  0  0  0  0  0  0
   -0.9710    0.3399    0.0000 C   0  0  0  0  0  0  0  0  0  0  0  0
   -0.2566   -0.0726    0.0000 C   0  0  0  0  0  0  0  0  0  0  0  0
    0.4579    0.3399    0.0000 C   0  0  0  0  0  0  0  0  0  0  0  0
    1.1724   -0.0726    0.0000 O   0  0  0  0  0  0  0  0  0  0  0  0
    1.8868    0.3399    0.0000 C   0  0  0  0  0  0  0  0  0  0  0  0
    1.8868    1.1649    0.0000 O   0  0  0  0  0  0  0  0  0  0  0  0
    2.6013   -0.0726    0.0000 C   0  0  0  0  0  0  0  0  0  0  0  0
    3.3158    0.3399    0.0000 C   0  0  0  0  0  0  0  0  0  0  0  0
    4.0303   -0.0726    0.0000 C   0  0  0  0  0  0  0  0  0  0  0  0
    4.7447    0.3399    0.0000 C   0  0  0  0  0  0  0  0  0  0  0  0
    6.1737    0.3399    0.0000 C   0  0  0  0  0  0  0  0  0  0  0  0
    5.4592   -0.0726    0.0000 C   0  0  0  0  0  0  0  0  0  0  0  0
    4.7447    1.1649    0.0000 C   0  0  0  0  0  0  0  0  0  0  0  0
    5.4592    1.5774    0.0000 C   0  0  0  0  0  0  0  0  0  0  0  0
    6.1737    1.1649    0.0000 C   0  0  0  0  0  0  0  0  0  0  0  0
   -0.2566   -0.8976    0.0000 O   0  0  0  0  0  0  0  0  0  0  0  0
   -0.9710   -1.3101    0.0000 C   0  0  0  0  0  0  0  0  0  0  0  0
   -1.6855   -0.8976    0.0000 O   0  0  0  0  0  0  0  0  0  0  0  0
   -0.9710   -2.1351    0.0000 C   0  0  0  0  0  0  0  0  0  0  0  0
   -1.6855   -2.5476    0.0000 C   0  0  0  0  0  0  0  0  0  0  0  0
   -1.6855   -3.3726    0.0000 C   0  0  0  0  0  0  0  0  0  0  0  0
   -2.4000   -3.7851    0.0000 C   0  0  0  0  0  0  0  0  0  0  0  0
   -2.4000   -4.6101    0.0000 C   0  0  0  0  0  0  0  0  0  0  0  0
   -3.1145   -5.0226    0.0000 C   0  0  0  0  0  0  0  0  0  0  0  0
   -3.8289   -4.6101    0.0000 C   0  0  0  0  0  0  0  0  0  0  0  0
   -3.8289   -3.7851    0.0000 C   0  0  0  0  0  0  0  0  0  0  0  0
   -3.1145   -3.3726    0.0000 C   0  0  0  0  0  0  0  0  0  0  0  0
  1  2  2  0
  1  6  1  0
  2  3  1  0
  3  4  2  0
  4  5  1  0
  5  6  2  0
  5  7  1  0
  7  8  1  0
  8  9  1  0
  9 10  1  0
 10 11  2  0
 10 12  1  0
 12 13  1  0
 13 14  1  0
 14 15  1  0
 15 16  1  0
 16 17  1  0
 17 18  2  0
 17 19  1  0
 19 20  1  0
 20 21  1  0
 21 22  1  0
 24 22  2  0
 22 25  1  0
 23 24  1  0
 23 27  2  0
 25 26  2  0
 26 27  1  0
 14 28  1  0
 28 29  1  0
 29 30  2  0
 29 31  1  0
 31 32  1  0
 32 33  1  0
 33 34  1  0
 39 34  2  0
 35 34  1  0
 35 36  2  0
 36 37  1  0
 37 38  2  0
 38 39  1  0
M  END
> <chembl_id>
CHEMBL2105745

> <chembl_pref_name>
GLYCEROL PHENYLBUTYRATE
