
     RDKit          3D

 81 84  0  0  0  0  0  0  0  0999 V2000
   -0.0003    0.3699   -0.0000 O   0  0  0  0  0  0  0  0  0  0  0  0
    0.6902    0.0000    0.0000 Cl  0  0  0  0  0  0  0  0  0  0  0  0
    0.6842    0.0000    0.0000 Cl  0  0  0  0  0  0  0  0  0  0  0  0
    3.4909    0.9695    1.2017 O   0  0  0  0  0  0  0  0  0  0  0  0
    5.1689   -1.0170    0.4683 O   0  0  0  0  0  0  0  0  0  0  0  0
   -2.3691   -0.6678   -0.3493 N   0  0  0  0  0  0  0  0  0  0  0  0
   -1.1469   -0.2112   -0.9085 C   0  0  1  0  0  0  0  0  0  0  0  0
   -0.5914    0.8471   -0.0418 C   0  0  0  0  0  0  0  0  0  0  0  0
    0.6845    0.9542    0.4015 C   0  0  0  0  0  0  0  0  0  0  0  0
    1.6201   -0.1025    0.0565 C   0  0  0  0  0  0  0  0  0  0  0  0
    1.1555   -1.1419   -0.6890 C   0  0  0  0  0  0  0  0  0  0  0  0
   -1.5045    1.8523    0.3218 C   0  0  0  0  0  0  0  0  0  0  0  0
   -0.2316   -1.3425   -1.1503 C   0  0  0  0  0  0  0  0  0  0  0  0
    2.9349   -0.0432    0.4469 C   0  0  0  0  0  0  0  0  0  0  0  0
    1.0564    2.0244    1.1823 C   0  0  0  0  0  0  0  0  0  0  0  0
   -2.8903    1.6479   -0.2074 C   0  0  0  0  0  0  0  0  0  0  0  0
   -3.2773    0.2371    0.1848 C   0  0  0  0  0  0  0  0  0  0  0  0
   -1.1449    2.9201    1.0979 C   0  0  0  0  0  0  0  0  0  0  0  0
    2.0608   -2.1506   -1.0479 C   0  0  0  0  0  0  0  0  0  0  0  0
    3.8269   -1.0605    0.0799 C   0  0  0  0  0  0  0  0  0  0  0  0
    0.1450    3.0297    1.5454 C   0  0  0  0  0  0  0  0  0  0  0  0
    3.3806   -2.1183   -0.6727 C   0  0  0  0  0  0  0  0  0  0  0  0
   -2.8102   -1.9504   -0.7358 C   0  0  0  0  0  0  0  0  0  0  0  0
    3.4099    1.7926    0.0915 O   0  0  0  0  0  0  0  0  0  0  0  0
    5.2994   -0.0886    0.5215 O   0  0  0  0  0  0  0  0  0  0  0  0
   -2.2869   -0.9441    0.6847 N   0  0  0  0  0  0  0  0  0  0  0  0
   -1.1483   -0.7703   -0.2066 C   0  0  1  0  0  0  0  0  0  0  0  0
   -0.6885    0.6089   -0.2774 C   0  0  0  0  0  0  0  0  0  0  0  0
    0.5877    1.0884   -0.1689 C   0  0  0  0  0  0  0  0  0  0  0  0
    1.6399    0.1099    0.0792 C   0  0  0  0  0  0  0  0  0  0  0  0
    1.2596   -1.1971    0.1841 C   0  0  0  0  0  0  0  0  0  0  0  0
   -1.6962    1.5699   -0.5014 C   0  0  0  0  0  0  0  0  0  0  0  0
   -0.0891   -1.7500    0.1074 C   0  0  0  0  0  0  0  0  0  0  0  0
    2.9558    0.4926    0.1868 C   0  0  0  0  0  0  0  0  0  0  0  0
    0.8637    2.4331   -0.2742 C   0  0  0  0  0  0  0  0  0  0  0  0
   -3.0848    1.0029   -0.6141 C   0  0  0  0  0  0  0  0  0  0  0  0
   -3.2473    0.1114    0.5893 C   0  0  0  0  0  0  0  0  0  0  0  0
   -1.4312    2.9071   -0.6070 C   0  0  0  0  0  0  0  0  0  0  0  0
    2.2835   -2.1233    0.4061 C   0  0  0  0  0  0  0  0  0  0  0  0
    3.9642   -0.4586    0.4102 C   0  0  0  0  0  0  0  0  0  0  0  0
   -0.1490    3.3811   -0.4977 C   0  0  0  0  0  0  0  0  0  0  0  0
    3.6031   -1.7760    0.5179 C   0  0  0  0  0  0  0  0  0  0  0  0
   -2.8293   -2.2627    0.3975 C   0  0  0  0  0  0  0  0  0  0  0  0
   -0.8281   -0.1851   -0.0000 H   0  0  0  0  0  0  0  0  0  0  0  0
    0.8285   -0.1848    0.0000 H   0  0  0  0  0  0  0  0  0  0  0  0
   -0.6902    0.0000    0.0000 H   0  0  0  0  0  0  0  0  0  0  0  0
   -0.6842    0.0000    0.0000 H   0  0  0  0  0  0  0  0  0  0  0  0
    3.8274    0.6739    2.1310 H   0  0  0  0  0  0  0  0  0  0  0  0
    5.3749   -0.9435    1.4619 H   0  0  0  0  0  0  0  0  0  0  0  0
   -1.4109    0.2270   -1.9169 H   0  0  0  0  0  0  0  0  0  0  0  0
   -0.2291   -1.6507   -2.2274 H   0  0  0  0  0  0  0  0  0  0  0  0
   -0.6393   -2.2346   -0.5812 H   0  0  0  0  0  0  0  0  0  0  0  0
    2.0431    2.1832    1.5738 H   0  0  0  0  0  0  0  0  0  0  0  0
   -2.8915    1.6443   -1.3291 H   0  0  0  0  0  0  0  0  0  0  0  0
   -3.6004    2.3963    0.1690 H   0  0  0  0  0  0  0  0  0  0  0  0
   -4.3131   -0.0265   -0.1108 H   0  0  0  0  0  0  0  0  0  0  0  0
   -3.2478    0.1738    1.3097 H   0  0  0  0  0  0  0  0  0  0  0  0
   -1.8602    3.6714    1.3598 H   0  0  0  0  0  0  0  0  0  0  0  0
    1.7415   -3.0038   -1.6439 H   0  0  0  0  0  0  0  0  0  0  0  0
    0.4352    3.8683    2.1567 H   0  0  0  0  0  0  0  0  0  0  0  0
    4.0961   -2.8775   -0.9335 H   0  0  0  0  0  0  0  0  0  0  0  0
   -2.6143   -2.6960    0.0406 H   0  0  0  0  0  0  0  0  0  0  0  0
   -2.3505   -2.2133   -1.7125 H   0  0  0  0  0  0  0  0  0  0  0  0
   -3.9195   -1.8688   -0.9315 H   0  0  0  0  0  0  0  0  0  0  0  0
    4.2113    2.0832   -0.4170 H   0  0  0  0  0  0  0  0  0  0  0  0
    5.8270   -0.1766   -0.3530 H   0  0  0  0  0  0  0  0  0  0  0  0
   -1.5965   -1.0553   -1.2290 H   0  0  0  0  0  0  0  0  0  0  0  0
   -0.3495   -2.2660    1.0908 H   0  0  0  0  0  0  0  0  0  0  0  0
   -0.0995   -2.6331   -0.6050 H   0  0  0  0  0  0  0  0  0  0  0  0
    1.8422    2.8670   -0.1973 H   0  0  0  0  0  0  0  0  0  0  0  0
   -3.1846    0.3779   -1.5232 H   0  0  0  0  0  0  0  0  0  0  0  0
   -3.8477    1.7768   -0.5814 H   0  0  0  0  0  0  0  0  0  0  0  0
   -3.1780    0.7291    1.5025 H   0  0  0  0  0  0  0  0  0  0  0  0
   -4.2711   -0.3151    0.5584 H   0  0  0  0  0  0  0  0  0  0  0  0
   -2.2234    3.6000   -0.7766 H   0  0  0  0  0  0  0  0  0  0  0  0
    2.0551   -3.1855    0.5002 H   0  0  0  0  0  0  0  0  0  0  0  0
    0.0555    4.4262   -0.5808 H   0  0  0  0  0  0  0  0  0  0  0  0
    4.3892   -2.4971    0.6896 H   0  0  0  0  0  0  0  0  0  0  0  0
   -2.3096   -3.0381    1.0205 H   0  0  0  0  0  0  0  0  0  0  0  0
   -3.9282   -2.2935    0.5302 H   0  0  0  0  0  0  0  0  0  0  0  0
   -2.6085   -2.5271   -0.6580 H   0  0  0  0  0  0  0  0  0  0  0  0
  4 14  1  0
  5 20  1  0
  6  7  1  0
  6 17  1  0
  6 23  1  0
  7  8  1  0
  7 13  1  0
  8  9  1  0
  8 12  2  0
  9 10  1  0
  9 15  2  0
 10 11  2  0
 10 14  1  0
 11 13  1  0
 11 19  1  0
 12 16  1  0
 12 18  1  0
 14 20  2  0
 15 21  1  0
 16 17  1  0
 18 21  2  0
 19 22  2  0
 20 22  1  0
 24 34  1  0
 25 40  1  0
 26 27  1  0
 26 37  1  0
 26 43  1  0
 27 28  1  0
 27 33  1  0
 28 29  1  0
 28 32  2  0
 29 30  1  0
 29 35  2  0
 30 31  2  0
 30 34  1  0
 31 33  1  0
 31 39  1  0
 32 36  1  0
 32 38  1  0
 34 40  2  0
 35 41  1  0
 36 37  1  0
 38 41  2  0
 39 42  2  0
 40 42  1  0
  1 44  1  0
  1 45  1  0
  2 46  1  0
  3 47  1  0
  4 48  1  0
  5 49  1  0
  7 50  1  6
 13 51  1  0
 13 52  1  0
 15 53  1  0
 16 54  1  0
 16 55  1  0
 17 56  1  0
 17 57  1  0
 18 58  1  0
 19 59  1  0
 21 60  1  0
 22 61  1  0
 23 62  1  0
 23 63  1  0
 23 64  1  0
 24 65  1  0
 25 66  1  0
 27 67  1  6
 33 68  1  0
 33 69  1  0
 35 70  1  0
 36 71  1  0
 36 72  1  0
 37 73  1  0
 37 74  1  0
 38 75  1  0
 39 76  1  0
 41 77  1  0
 42 78  1  0
 43 79  1  0
 43 80  1  0
 43 81  1  0
M  END
$$$$
