
     RDKit          3D

 81 84  0  0  0  0  0  0  0  0999 V2000
   -0.0022    0.3962   -0.0000 O   0  0  0  0  0  0  0  0  0  0  0  0
    0.6874    0.0000    0.0000 Cl  0  0  0  0  0  0  0  0  0  0  0  0
    0.6892    0.0000    0.0000 Cl  0  0  0  0  0  0  0  0  0  0  0  0
    3.4100   -1.6500   -0.4977 O   0  0  0  0  0  0  0  0  0  0  0  0
    5.2485    0.3233   -0.5135 O   0  0  0  0  0  0  0  0  0  0  0  0
   -2.2143    0.9542   -0.2794 N   0  0  0  0  0  0  0  0  0  0  0  0
   -1.1332    0.6551    0.5986 C   0  0  1  0  0  0  0  0  0  0  0  0
   -0.6833   -0.7292    0.3116 C   0  0  0  0  0  0  0  0  0  0  0  0
    0.6031   -1.0911    0.0450 C   0  0  0  0  0  0  0  0  0  0  0  0
    1.6255   -0.0704    0.0212 C   0  0  0  0  0  0  0  0  0  0  0  0
    1.2815    1.2410    0.2663 C   0  0  0  0  0  0  0  0  0  0  0  0
   -1.7003   -1.6959    0.3351 C   0  0  0  0  0  0  0  0  0  0  0  0
   -0.0967    1.6969    0.5529 C   0  0  0  0  0  0  0  0  0  0  0  0
    2.9349   -0.3913   -0.2388 C   0  0  0  0  0  0  0  0  0  0  0  0
    0.8799   -2.4170   -0.1985 C   0  0  0  0  0  0  0  0  0  0  0  0
   -3.0621   -1.1910    0.6334 C   0  0  0  0  0  0  0  0  0  0  0  0
   -3.3350    0.0568   -0.1672 C   0  0  0  0  0  0  0  0  0  0  0  0
   -1.3945   -3.0034    0.0895 C   0  0  0  0  0  0  0  0  0  0  0  0
    2.2545    2.2483    0.2527 C   0  0  0  0  0  0  0  0  0  0  0  0
    3.8996    0.6273   -0.2495 C   0  0  0  0  0  0  0  0  0  0  0  0
   -0.1158   -3.4020   -0.1811 C   0  0  0  0  0  0  0  0  0  0  0  0
    3.5653    1.9264   -0.0077 C   0  0  0  0  0  0  0  0  0  0  0  0
   -2.6411    2.3424   -0.1993 C   0  0  0  0  0  0  0  0  0  0  0  0
    3.3091    1.9493    0.2443 O   0  0  0  0  0  0  0  0  0  0  0  0
    5.3010    0.1707   -0.1825 O   0  0  0  0  0  0  0  0  0  0  0  0
   -2.1518   -1.2679    0.4414 N   0  0  0  0  0  0  0  0  0  0  0  0
   -1.1000   -0.7207   -0.3829 C   0  0  1  0  0  0  0  0  0  0  0  0
   -0.7406    0.6583   -0.0201 C   0  0  0  0  0  0  0  0  0  0  0  0
    0.5293    1.1476    0.0945 C   0  0  0  0  0  0  0  0  0  0  0  0
    1.6250    0.2124   -0.0970 C   0  0  0  0  0  0  0  0  0  0  0  0
    1.3199   -1.0875   -0.3715 C   0  0  0  0  0  0  0  0  0  0  0  0
   -1.8210    1.5277    0.1915 C   0  0  0  0  0  0  0  0  0  0  0  0
   -0.0051   -1.7159   -0.4479 C   0  0  0  0  0  0  0  0  0  0  0  0
    2.9247    0.6590   -0.0272 C   0  0  0  0  0  0  0  0  0  0  0  0
    0.7137    2.4712    0.4104 C   0  0  0  0  0  0  0  0  0  0  0  0
   -3.1741    0.8926    0.0456 C   0  0  0  0  0  0  0  0  0  0  0  0
   -3.1142   -0.3394    0.9188 C   0  0  0  0  0  0  0  0  0  0  0  0
   -1.6252    2.8297    0.5027 C   0  0  0  0  0  0  0  0  0  0  0  0
    2.4035   -1.9614   -0.5841 C   0  0  0  0  0  0  0  0  0  0  0  0
    3.9772   -0.2378   -0.2436 C   0  0  0  0  0  0  0  0  0  0  0  0
   -0.3614    3.3474    0.6229 C   0  0  0  0  0  0  0  0  0  0  0  0
    3.7063   -1.5505   -0.5226 C   0  0  0  0  0  0  0  0  0  0  0  0
   -2.7727   -2.3467   -0.3390 C   0  0  0  0  0  0  0  0  0  0  0  0
   -0.7962   -0.1990   -0.0000 H   0  0  0  0  0  0  0  0  0  0  0  0
    0.7984   -0.1973    0.0000 H   0  0  0  0  0  0  0  0  0  0  0  0
   -0.6874    0.0000    0.0000 H   0  0  0  0  0  0  0  0  0  0  0  0
   -0.6892    0.0000    0.0000 H   0  0  0  0  0  0  0  0  0  0  0  0
    4.0325   -1.9305   -1.2326 H   0  0  0  0  0  0  0  0  0  0  0  0
    5.6628   -0.3588    0.1285 H   0  0  0  0  0  0  0  0  0  0  0  0
   -1.5390    0.6079    1.6530 H   0  0  0  0  0  0  0  0  0  0  0  0
   -0.0518    2.3081    1.4935 H   0  0  0  0  0  0  0  0  0  0  0  0
   -0.3229    2.4682   -0.2394 H   0  0  0  0  0  0  0  0  0  0  0  0
    1.8595   -2.7946   -0.4169 H   0  0  0  0  0  0  0  0  0  0  0  0
   -3.8280   -1.9345    0.3305 H   0  0  0  0  0  0  0  0  0  0  0  0
   -3.1591   -1.0088    1.7341 H   0  0  0  0  0  0  0  0  0  0  0  0
   -3.6671   -0.2564   -1.1668 H   0  0  0  0  0  0  0  0  0  0  0  0
   -4.1889    0.6098    0.3040 H   0  0  0  0  0  0  0  0  0  0  0  0
   -2.1749   -3.7478    0.1072 H   0  0  0  0  0  0  0  0  0  0  0  0
    1.9990    3.2780    0.4428 H   0  0  0  0  0  0  0  0  0  0  0  0
    0.1145   -4.4430   -0.3744 H   0  0  0  0  0  0  0  0  0  0  0  0
    4.3483    2.6695   -0.0283 H   0  0  0  0  0  0  0  0  0  0  0  0
   -2.1283    2.8911    0.6261 H   0  0  0  0  0  0  0  0  0  0  0  0
   -2.5547    2.8564   -1.1806 H   0  0  0  0  0  0  0  0  0  0  0  0
   -3.7286    2.3546    0.0736 H   0  0  0  0  0  0  0  0  0  0  0  0
    4.1257    2.1441    0.8331 H   0  0  0  0  0  0  0  0  0  0  0  0
    5.9433   -0.4788    0.2865 H   0  0  0  0  0  0  0  0  0  0  0  0
   -1.5237   -0.6256   -1.4404 H   0  0  0  0  0  0  0  0  0  0  0  0
   -0.0981   -2.4604    0.4225 H   0  0  0  0  0  0  0  0  0  0  0  0
   -0.1228   -2.3176   -1.3886 H   0  0  0  0  0  0  0  0  0  0  0  0
    1.6755    2.9314    0.5197 H   0  0  0  0  0  0  0  0  0  0  0  0
   -3.9688    1.5816    0.3317 H   0  0  0  0  0  0  0  0  0  0  0  0
   -3.2854    0.5673   -1.0176 H   0  0  0  0  0  0  0  0  0  0  0  0
   -2.8822   -0.0367    1.9649 H   0  0  0  0  0  0  0  0  0  0  0  0
   -4.1195   -0.8276    0.9104 H   0  0  0  0  0  0  0  0  0  0  0  0
   -2.4674    3.4851    0.6622 H   0  0  0  0  0  0  0  0  0  0  0  0
    2.2346   -3.0145   -0.8090 H   0  0  0  0  0  0  0  0  0  0  0  0
   -0.1958    4.3933    0.8725 H   0  0  0  0  0  0  0  0  0  0  0  0
    4.5245   -2.2209   -0.6854 H   0  0  0  0  0  0  0  0  0  0  0  0
   -3.8585   -2.4486   -0.1012 H   0  0  0  0  0  0  0  0  0  0  0  0
   -2.1953   -3.2664   -0.2066 H   0  0  0  0  0  0  0  0  0  0  0  0
   -2.7296   -2.0438   -1.4086 H   0  0  0  0  0  0  0  0  0  0  0  0
  4 14  1  0
  5 20  1  0
  6  7  1  0
  6 17  1  0
  6 23  1  0
  7  8  1  0
  7 13  1  0
  8  9  1  0
  8 12  2  0
  9 10  1  0
  9 15  2  0
 10 11  2  0
 10 14  1  0
 11 13  1  0
 11 19  1  0
 12 16  1  0
 12 18  1  0
 14 20  2  0
 15 21  1  0
 16 17  1  0
 18 21  2  0
 19 22  2  0
 20 22  1  0
 24 34  1  0
 25 40  1  0
 26 27  1  0
 26 37  1  0
 26 43  1  0
 27 28  1  0
 27 33  1  0
 28 29  1  0
 28 32  2  0
 29 30  1  0
 29 35  2  0
 30 31  2  0
 30 34  1  0
 31 33  1  0
 31 39  1  0
 32 36  1  0
 32 38  1  0
 34 40  2  0
 35 41  1  0
 36 37  1  0
 38 41  2  0
 39 42  2  0
 40 42  1  0
  1 44  1  0
  1 45  1  0
  2 46  1  0
  3 47  1  0
  4 48  1  0
  5 49  1  0
  7 50  1  1
 13 51  1  0
 13 52  1  0
 15 53  1  0
 16 54  1  0
 16 55  1  0
 17 56  1  0
 17 57  1  0
 18 58  1  0
 19 59  1  0
 21 60  1  0
 22 61  1  0
 23 62  1  0
 23 63  1  0
 23 64  1  0
 24 65  1  0
 25 66  1  0
 27 67  1  6
 33 68  1  0
 33 69  1  0
 35 70  1  0
 36 71  1  0
 36 72  1  0
 37 73  1  0
 37 74  1  0
 38 75  1  0
 39 76  1  0
 41 77  1  0
 42 78  1  0
 43 79  1  0
 43 80  1  0
 43 81  1  0
M  END
$$$$
