
     RDKit          3D

 81 84  0  0  0  0  0  0  0  0999 V2000
   -0.0016    0.3698   -0.0000 O   0  0  0  0  0  0  0  0  0  0  0  0
    0.6856    0.0000    0.0000 Cl  0  0  0  0  0  0  0  0  0  0  0  0
    0.6853    0.0000    0.0000 Cl  0  0  0  0  0  0  0  0  0  0  0  0
    3.1431    1.5996    0.8250 O   0  0  0  0  0  0  0  0  0  0  0  0
    5.1451   -0.1884    0.5663 O   0  0  0  0  0  0  0  0  0  0  0  0
   -2.2230   -1.3359   -0.1352 N   0  0  0  0  0  0  0  0  0  0  0  0
   -1.1337   -0.8097   -0.9402 C   0  0  1  0  0  0  0  0  0  0  0  0
   -0.8139    0.5215   -0.3703 C   0  0  0  0  0  0  0  0  0  0  0  0
    0.4170    0.9304    0.0308 C   0  0  0  0  0  0  0  0  0  0  0  0
    1.5314    0.0094   -0.0811 C   0  0  0  0  0  0  0  0  0  0  0  0
    1.3074   -1.2555   -0.5910 C   0  0  0  0  0  0  0  0  0  0  0  0
   -1.9065    1.3944   -0.2631 C   0  0  0  0  0  0  0  0  0  0  0  0
   -0.0037   -1.7557   -1.0317 C   0  0  0  0  0  0  0  0  0  0  0  0
    2.7934    0.3721    0.3038 C   0  0  0  0  0  0  0  0  0  0  0  0
    0.5701    2.2007    0.5372 C   0  0  0  0  0  0  0  0  0  0  0  0
   -3.2074    0.8561   -0.7242 C   0  0  0  0  0  0  0  0  0  0  0  0
   -3.4040   -0.5966   -0.4667 C   0  0  0  0  0  0  0  0  0  0  0  0
   -1.7395    2.6588    0.2440 C   0  0  0  0  0  0  0  0  0  0  0  0
    2.3753   -2.1424   -0.7045 C   0  0  0  0  0  0  0  0  0  0  0  0
    3.8504   -0.5370    0.1800 C   0  0  0  0  0  0  0  0  0  0  0  0
   -0.5062    3.0916    0.6541 C   0  0  0  0  0  0  0  0  0  0  0  0
    3.6460   -1.7900   -0.3217 C   0  0  0  0  0  0  0  0  0  0  0  0
   -1.8884   -1.2176    1.2711 C   0  0  0  0  0  0  0  0  0  0  0  0
    3.3922    1.6864    0.4930 O   0  0  0  0  0  0  0  0  0  0  0  0
    5.2689   -0.2554    0.3885 O   0  0  0  0  0  0  0  0  0  0  0  0
   -2.2603   -0.9992    0.2868 N   0  0  0  0  0  0  0  0  0  0  0  0
   -1.1618   -0.6737   -0.5451 C   0  0  1  0  0  0  0  0  0  0  0  0
   -0.7124    0.6891   -0.2267 C   0  0  0  0  0  0  0  0  0  0  0  0
    0.5739    1.0846    0.0165 C   0  0  0  0  0  0  0  0  0  0  0  0
    1.6198    0.0901   -0.0193 C   0  0  0  0  0  0  0  0  0  0  0  0
    1.2744   -1.2069   -0.2946 C   0  0  0  0  0  0  0  0  0  0  0  0
   -1.7159    1.6626   -0.1799 C   0  0  0  0  0  0  0  0  0  0  0  0
   -0.0864   -1.6967   -0.5502 C   0  0  0  0  0  0  0  0  0  0  0  0
    2.9329    0.4151    0.2075 C   0  0  0  0  0  0  0  0  0  0  0  0
    0.8422    2.4076    0.2957 C   0  0  0  0  0  0  0  0  0  0  0  0
   -3.0969    1.1633   -0.4531 C   0  0  0  0  0  0  0  0  0  0  0  0
   -3.3104   -0.0716    0.3828 C   0  0  0  0  0  0  0  0  0  0  0  0
   -1.4573    2.9808    0.0972 C   0  0  0  0  0  0  0  0  0  0  0  0
    2.2892   -2.1716   -0.3361 C   0  0  0  0  0  0  0  0  0  0  0  0
    3.9321   -0.5694    0.1606 C   0  0  0  0  0  0  0  0  0  0  0  0
   -0.1686    3.3751    0.3402 C   0  0  0  0  0  0  0  0  0  0  0  0
    3.5910   -1.8631   -0.1138 C   0  0  0  0  0  0  0  0  0  0  0  0
   -2.5881   -2.3677    0.4231 C   0  0  0  0  0  0  0  0  0  0  0  0
    0.8227   -0.1844    0.0000 H   0  0  0  0  0  0  0  0  0  0  0  0
   -0.8211   -0.1854   -0.0000 H   0  0  0  0  0  0  0  0  0  0  0  0
   -0.6856    0.0000    0.0000 H   0  0  0  0  0  0  0  0  0  0  0  0
   -0.6853    0.0000    0.0000 H   0  0  0  0  0  0  0  0  0  0  0  0
    3.8373    1.6919    1.5558 H   0  0  0  0  0  0  0  0  0  0  0  0
    5.3687    0.0986    1.4988 H   0  0  0  0  0  0  0  0  0  0  0  0
   -1.5845   -0.6012   -1.9434 H   0  0  0  0  0  0  0  0  0  0  0  0
    0.1163   -2.1086   -2.0953 H   0  0  0  0  0  0  0  0  0  0  0  0
   -0.2413   -2.6869   -0.4516 H   0  0  0  0  0  0  0  0  0  0  0  0
    1.5029    2.6055    0.8768 H   0  0  0  0  0  0  0  0  0  0  0  0
   -3.9995    1.4724   -0.2237 H   0  0  0  0  0  0  0  0  0  0  0  0
   -3.3074    1.1240   -1.8163 H   0  0  0  0  0  0  0  0  0  0  0  0
   -3.7908   -1.0438   -1.4279 H   0  0  0  0  0  0  0  0  0  0  0  0
   -4.2231   -0.7957    0.2762 H   0  0  0  0  0  0  0  0  0  0  0  0
   -2.5771    3.3271    0.3257 H   0  0  0  0  0  0  0  0  0  0  0  0
    2.2286   -3.1549   -1.1063 H   0  0  0  0  0  0  0  0  0  0  0  0
   -0.3770    4.0907    1.0541 H   0  0  0  0  0  0  0  0  0  0  0  0
    4.4867   -2.4612   -0.4011 H   0  0  0  0  0  0  0  0  0  0  0  0
   -0.8001   -1.0614    1.4257 H   0  0  0  0  0  0  0  0  0  0  0  0
   -2.1678   -2.1660    1.7667 H   0  0  0  0  0  0  0  0  0  0  0  0
   -2.4246   -0.3366    1.7033 H   0  0  0  0  0  0  0  0  0  0  0  0
    4.0013    1.7751    1.3053 H   0  0  0  0  0  0  0  0  0  0  0  0
    5.7788    0.4072   -0.1858 H   0  0  0  0  0  0  0  0  0  0  0  0
   -1.5777   -0.6035   -1.5994 H   0  0  0  0  0  0  0  0  0  0  0  0
   -0.0772   -2.2120   -1.5603 H   0  0  0  0  0  0  0  0  0  0  0  0
   -0.2988   -2.5396    0.1721 H   0  0  0  0  0  0  0  0  0  0  0  0
    1.8216    2.8014    0.4981 H   0  0  0  0  0  0  0  0  0  0  0  0
   -3.8522    1.9163   -0.1476 H   0  0  0  0  0  0  0  0  0  0  0  0
   -3.2357    0.9732   -1.5363 H   0  0  0  0  0  0  0  0  0  0  0  0
   -3.4649    0.2625    1.4263 H   0  0  0  0  0  0  0  0  0  0  0  0
   -4.2587   -0.5493    0.0493 H   0  0  0  0  0  0  0  0  0  0  0  0
   -2.2309    3.7039    0.1282 H   0  0  0  0  0  0  0  0  0  0  0  0
    2.0499   -3.2132   -0.5525 H   0  0  0  0  0  0  0  0  0  0  0  0
    0.0337    4.4108    0.5577 H   0  0  0  0  0  0  0  0  0  0  0  0
    4.3731   -2.5990   -0.1444 H   0  0  0  0  0  0  0  0  0  0  0  0
   -2.4757   -2.8264   -0.6026 H   0  0  0  0  0  0  0  0  0  0  0  0
   -3.6783   -2.4478    0.6263 H   0  0  0  0  0  0  0  0  0  0  0  0
   -2.0667   -2.9391    1.1923 H   0  0  0  0  0  0  0  0  0  0  0  0
  4 14  1  0
  5 20  1  0
  6  7  1  0
  6 17  1  0
  6 23  1  0
  7  8  1  0
  7 13  1  0
  8  9  1  0
  8 12  2  0
  9 10  1  0
  9 15  2  0
 10 11  2  0
 10 14  1  0
 11 13  1  0
 11 19  1  0
 12 16  1  0
 12 18  1  0
 14 20  2  0
 15 21  1  0
 16 17  1  0
 18 21  2  0
 19 22  2  0
 20 22  1  0
 24 34  1  0
 25 40  1  0
 26 27  1  0
 26 37  1  0
 26 43  1  0
 27 28  1  0
 27 33  1  0
 28 29  1  0
 28 32  2  0
 29 30  1  0
 29 35  2  0
 30 31  2  0
 30 34  1  0
 31 33  1  0
 31 39  1  0
 32 36  1  0
 32 38  1  0
 34 40  2  0
 35 41  1  0
 36 37  1  0
 38 41  2  0
 39 42  2  0
 40 42  1  0
  1 44  1  0
  1 45  1  0
  2 46  1  0
  3 47  1  0
  4 48  1  0
  5 49  1  0
  7 50  1  6
 13 51  1  0
 13 52  1  0
 15 53  1  0
 16 54  1  0
 16 55  1  0
 17 56  1  0
 17 57  1  0
 18 58  1  0
 19 59  1  0
 21 60  1  0
 22 61  1  0
 23 62  1  0
 23 63  1  0
 23 64  1  0
 24 65  1  0
 25 66  1  0
 27 67  1  6
 33 68  1  0
 33 69  1  0
 35 70  1  0
 36 71  1  0
 36 72  1  0
 37 73  1  0
 37 74  1  0
 38 75  1  0
 39 76  1  0
 41 77  1  0
 42 78  1  0
 43 79  1  0
 43 80  1  0
 43 81  1  0
M  END
$$$$
