
     RDKit          2D

 45 48  0  0  0  0  0  0  0  0999 V2000
    6.0666   -5.0050    0.0000 O   0  0  0  0  0  0  0  0  0  0  0  0
    2.8491   -5.0050    0.0000 Cl  0  0  0  0  0  0  0  0  0  0  0  0
    4.0733   -5.0050    0.0000 Cl  0  0  0  0  0  0  0  0  0  0  0  0
    1.4300   -0.4875    0.0000 O   0  0  0  0  0  0  0  0  0  0  0  0
    0.0000   -1.3000    0.0000 O   0  0  0  0  0  0  0  0  0  0  0  0
    4.2900   -2.9683    0.0000 N   0  0  0  0  0  0  0  0  0  0  0  0
    3.5750   -2.5458    0.0000 C   0  0  0  0  0  0  0  0  0  0  0  0
    3.5750   -1.7333    0.0000 C   0  0  0  0  0  0  0  0  0  0  0  0
    2.8491   -1.3108    0.0000 C   0  0  0  0  0  0  0  0  0  0  0  0
    2.1558   -1.7333    0.0000 C   0  0  0  0  0  0  0  0  0  0  0  0
    2.1558   -2.5458    0.0000 C   0  0  0  0  0  0  0  0  0  0  0  0
    4.2900   -1.3108    0.0000 C   0  0  0  0  0  0  0  0  0  0  0  0
    2.8708   -2.9683    0.0000 C   0  0  0  0  0  0  0  0  0  0  0  0
    1.4300   -1.3108    0.0000 C   0  0  0  0  0  0  0  0  0  0  0  0
    2.8491   -0.4767    0.0000 C   0  0  0  0  0  0  0  0  0  0  0  0
    5.0050   -1.7333    0.0000 C   0  0  0  0  0  0  0  0  0  0  0  0
    5.0050   -2.5458    0.0000 C   0  0  0  0  0  0  0  0  0  0  0  0
    4.2900   -0.4767    0.0000 C   0  0  0  0  0  0  0  0  0  0  0  0
    1.4300   -2.9683    0.0000 C   0  0  0  0  0  0  0  0  0  0  0  0
    0.7258   -1.7333    0.0000 C   0  0  0  0  0  0  0  0  0  0  0  0
    3.5750   -0.0650    0.0000 C   0  0  0  0  0  0  0  0  0  0  0  0
    0.7258   -2.5458    0.0000 C   0  0  0  0  0  0  0  0  0  0  0  0
    4.2900   -3.7808    0.0000 C   0  0  0  0  0  0  0  0  0  0  0  0
    3.5750   -3.5317    0.0000 H   0  0  0  0  0  0  0  0  0  0  0  0
    7.2583   -0.4009    0.0000 O   0  0  0  0  0  0  0  0  0  0  0  0
    5.8283   -1.2242    0.0000 O   0  0  0  0  0  0  0  0  0  0  0  0
   10.1074   -2.8816    0.0000 N   0  0  0  0  0  0  0  0  0  0  0  0
    9.4033   -2.4700    0.0000 C   0  0  0  0  0  0  0  0  0  0  0  0
    9.4033   -1.6466    0.0000 C   0  0  0  0  0  0  0  0  0  0  0  0
    8.6775   -1.2350    0.0000 C   0  0  0  0  0  0  0  0  0  0  0  0
    7.9841   -1.6466    0.0000 C   0  0  0  0  0  0  0  0  0  0  0  0
    7.9841   -2.4700    0.0000 C   0  0  0  0  0  0  0  0  0  0  0  0
   10.1074   -1.2350    0.0000 C   0  0  0  0  0  0  0  0  0  0  0  0
    8.6775   -2.8816    0.0000 C   0  0  0  0  0  0  0  0  0  0  0  0
    7.2583   -1.2350    0.0000 C   0  0  0  0  0  0  0  0  0  0  0  0
    8.6775   -0.3900    0.0000 C   0  0  0  0  0  0  0  0  0  0  0  0
   10.8333   -1.6466    0.0000 C   0  0  0  0  0  0  0  0  0  0  0  0
   10.8333   -2.4700    0.0000 C   0  0  0  0  0  0  0  0  0  0  0  0
   10.1074   -0.3900    0.0000 C   0  0  0  0  0  0  0  0  0  0  0  0
    7.2583   -2.8816    0.0000 C   0  0  0  0  0  0  0  0  0  0  0  0
    6.5433   -1.6466    0.0000 C   0  0  0  0  0  0  0  0  0  0  0  0
    9.4033    0.0000    0.0000 C   0  0  0  0  0  0  0  0  0  0  0  0
    6.5433   -2.4700    0.0000 C   0  0  0  0  0  0  0  0  0  0  0  0
   10.1074   -3.7049    0.0000 C   0  0  0  0  0  0  0  0  0  0  0  0
    9.4033   -3.4558    0.0000 H   0  0  0  0  0  0  0  0  0  0  0  0
  4 14  1  0
  5 20  1  0
  6  7  1  0
  6 17  1  0
  6 23  1  0
  7  8  1  0
  7 13  1  0
  7 24  1  1
  8  9  2  0
  8 12  1  0
  9 10  1  0
  9 15  1  0
 10 11  2  0
 10 14  1  0
 11 13  1  0
 11 19  1  0
 12 16  1  0
 12 18  2  0
 14 20  2  0
 15 21  2  0
 16 17  1  0
 18 21  1  0
 19 22  2  0
 20 22  1  0
 25 35  1  0
 26 41  1  0
 27 28  1  0
 27 38  1  0
 27 44  1  0
 28 29  1  0
 28 34  1  0
 28 45  1  1
 29 30  2  0
 29 33  1  0
 30 31  1  0
 30 36  1  0
 31 32  2  0
 31 35  1  0
 32 34  1  0
 32 40  1  0
 33 37  1  0
 33 39  2  0
 35 41  2  0
 36 42  2  0
 37 38  1  0
 39 42  1  0
 40 43  2  0
 41 43  1  0
M  END
> <chembl_id>
CHEMBL3187985

> <chembl_pref_name>
APOMORPHINE HYDROCHLORIDE
