
     RDKit          3D

 81 84  0  0  0  0  0  0  0  0999 V2000
   -0.0003    0.3740   -0.0000 O   0  0  0  0  0  0  0  0  0  0  0  0
    0.6861    0.0000    0.0000 Cl  0  0  0  0  0  0  0  0  0  0  0  0
    0.6837    0.0000    0.0000 Cl  0  0  0  0  0  0  0  0  0  0  0  0
   -3.6504    1.1723   -0.1660 O   0  0  0  0  0  0  0  0  0  0  0  0
   -5.1877   -1.0497   -0.3469 O   0  0  0  0  0  0  0  0  0  0  0  0
    2.3955   -0.6423   -0.6274 N   0  0  0  0  0  0  0  0  0  0  0  0
    1.2703   -0.5425    0.2875 C   0  0  1  0  0  0  0  0  0  0  0  0
    0.5875    0.7346    0.2230 C   0  0  0  0  0  0  0  0  0  0  0  0
   -0.7507    0.9829    0.0951 C   0  0  0  0  0  0  0  0  0  0  0  0
   -1.6224   -0.1801   -0.0268 C   0  0  0  0  0  0  0  0  0  0  0  0
   -1.0198   -1.4056   -0.0050 C   0  0  0  0  0  0  0  0  0  0  0  0
    1.4086    1.8680    0.3238 C   0  0  0  0  0  0  0  0  0  0  0  0
    0.4039   -1.7188    0.0873 C   0  0  0  0  0  0  0  0  0  0  0  0
   -2.9838   -0.0352   -0.1380 C   0  0  0  0  0  0  0  0  0  0  0  0
   -1.2468    2.2648    0.0692 C   0  0  0  0  0  0  0  0  0  0  0  0
    2.8750    1.5367    0.4610 C   0  0  0  0  0  0  0  0  0  0  0  0
    3.1367    0.5580   -0.6613 C   0  0  0  0  0  0  0  0  0  0  0  0
    0.9363    3.1460    0.3000 C   0  0  0  0  0  0  0  0  0  0  0  0
   -1.8780   -2.5137   -0.1025 C   0  0  0  0  0  0  0  0  0  0  0  0
   -3.8124   -1.1615   -0.2338 C   0  0  0  0  0  0  0  0  0  0  0  0
   -0.4056    3.3874    0.1722 C   0  0  0  0  0  0  0  0  0  0  0  0
   -3.2341   -2.4021   -0.2137 C   0  0  0  0  0  0  0  0  0  0  0  0
    3.1739   -1.8269   -0.3529 C   0  0  0  0  0  0  0  0  0  0  0  0
    3.6212    1.2088   -0.0258 O   0  0  0  0  0  0  0  0  0  0  0  0
    5.1652   -0.8770    0.7316 O   0  0  0  0  0  0  0  0  0  0  0  0
   -2.3886   -0.3952    0.6218 N   0  0  0  0  0  0  0  0  0  0  0  0
   -1.2691   -0.6429   -0.2438 C   0  0  1  0  0  0  0  0  0  0  0  0
   -0.5921    0.6313   -0.4750 C   0  0  0  0  0  0  0  0  0  0  0  0
    0.7400    0.9144   -0.3589 C   0  0  0  0  0  0  0  0  0  0  0  0
    1.6124   -0.1777    0.0470 C   0  0  0  0  0  0  0  0  0  0  0  0
    1.0199   -1.3875    0.2752 C   0  0  0  0  0  0  0  0  0  0  0  0
   -1.4160    1.6871   -0.8652 C   0  0  0  0  0  0  0  0  0  0  0  0
   -0.3934   -1.7306    0.1634 C   0  0  0  0  0  0  0  0  0  0  0  0
    2.9629    0.0149    0.1889 C   0  0  0  0  0  0  0  0  0  0  0  0
    1.2251    2.1765   -0.6164 C   0  0  0  0  0  0  0  0  0  0  0  0
   -2.8735    1.3207   -0.9752 C   0  0  0  0  0  0  0  0  0  0  0  0
   -3.2252    0.6926    0.3502 C   0  0  0  0  0  0  0  0  0  0  0  0
   -0.9546    2.9489   -1.1261 C   0  0  0  0  0  0  0  0  0  0  0  0
    1.8699   -2.4240    0.6634 C   0  0  0  0  0  0  0  0  0  0  0  0
    3.7952   -1.0452    0.5807 C   0  0  0  0  0  0  0  0  0  0  0  0
    0.3815    3.2298   -1.0088 C   0  0  0  0  0  0  0  0  0  0  0  0
    3.2246   -2.2698    0.8158 C   0  0  0  0  0  0  0  0  0  0  0  0
   -2.9863   -1.5520    1.1890 C   0  0  0  0  0  0  0  0  0  0  0  0
    0.8197   -0.1869    0.0000 H   0  0  0  0  0  0  0  0  0  0  0  0
   -0.8193   -0.1871   -0.0000 H   0  0  0  0  0  0  0  0  0  0  0  0
   -0.6861    0.0000    0.0000 H   0  0  0  0  0  0  0  0  0  0  0  0
   -0.6837    0.0000    0.0000 H   0  0  0  0  0  0  0  0  0  0  0  0
   -4.4337    1.2662    0.4780 H   0  0  0  0  0  0  0  0  0  0  0  0
   -5.7409   -0.7067    0.4194 H   0  0  0  0  0  0  0  0  0  0  0  0
    1.7562   -0.6499    1.3248 H   0  0  0  0  0  0  0  0  0  0  0  0
    0.5978   -2.5287    0.8583 H   0  0  0  0  0  0  0  0  0  0  0  0
    0.6646   -2.1643   -0.9354 H   0  0  0  0  0  0  0  0  0  0  0  0
   -2.2845    2.5214   -0.0295 H   0  0  0  0  0  0  0  0  0  0  0  0
    3.5117    2.4089    0.3229 H   0  0  0  0  0  0  0  0  0  0  0  0
    3.0076    1.0893    1.4584 H   0  0  0  0  0  0  0  0  0  0  0  0
    4.2251    0.4110   -0.8372 H   0  0  0  0  0  0  0  0  0  0  0  0
    2.7964    1.1101   -1.5897 H   0  0  0  0  0  0  0  0  0  0  0  0
    1.6111    3.9846    0.3814 H   0  0  0  0  0  0  0  0  0  0  0  0
   -1.4739   -3.5330   -0.0920 H   0  0  0  0  0  0  0  0  0  0  0  0
   -0.7997    4.3937    0.1514 H   0  0  0  0  0  0  0  0  0  0  0  0
   -3.8734   -3.2617   -0.2872 H   0  0  0  0  0  0  0  0  0  0  0  0
    3.7574   -2.1645   -1.2169 H   0  0  0  0  0  0  0  0  0  0  0  0
    2.4610   -2.6370   -0.0928 H   0  0  0  0  0  0  0  0  0  0  0  0
    3.8213   -1.7117    0.5412 H   0  0  0  0  0  0  0  0  0  0  0  0
    4.3860    1.3552   -0.6698 H   0  0  0  0  0  0  0  0  0  0  0  0
    5.7899   -0.9603   -0.0739 H   0  0  0  0  0  0  0  0  0  0  0  0
   -1.7313   -0.9676   -1.2480 H   0  0  0  0  0  0  0  0  0  0  0  0
   -0.5418   -2.6877   -0.4205 H   0  0  0  0  0  0  0  0  0  0  0  0
   -0.7271   -2.0394    1.2198 H   0  0  0  0  0  0  0  0  0  0  0  0
    2.2562    2.4624   -0.5438 H   0  0  0  0  0  0  0  0  0  0  0  0
   -2.9632    0.5574   -1.7691 H   0  0  0  0  0  0  0  0  0  0  0  0
   -3.4824    2.2197   -1.1951 H   0  0  0  0  0  0  0  0  0  0  0  0
   -3.0745    1.5177    1.1084 H   0  0  0  0  0  0  0  0  0  0  0  0
   -4.2923    0.3858    0.3949 H   0  0  0  0  0  0  0  0  0  0  0  0
   -1.6273    3.7379   -1.4258 H   0  0  0  0  0  0  0  0  0  0  0  0
    1.4724   -3.4145    0.8626 H   0  0  0  0  0  0  0  0  0  0  0  0
    0.7677    4.2200   -1.2101 H   0  0  0  0  0  0  0  0  0  0  0  0
    3.8809   -3.0743    1.1165 H   0  0  0  0  0  0  0  0  0  0  0  0
   -2.5619   -1.9457    2.1076 H   0  0  0  0  0  0  0  0  0  0  0  0
   -4.0714   -1.3125    1.3788 H   0  0  0  0  0  0  0  0  0  0  0  0
   -2.9990   -2.3772    0.4358 H   0  0  0  0  0  0  0  0  0  0  0  0
  4 14  1  0
  5 20  1  0
  6  7  1  0
  6 17  1  0
  6 23  1  0
  7  8  1  0
  7 13  1  0
  8  9  1  0
  8 12  2  0
  9 10  1  0
  9 15  2  0
 10 11  2  0
 10 14  1  0
 11 13  1  0
 11 19  1  0
 12 16  1  0
 12 18  1  0
 14 20  2  0
 15 21  1  0
 16 17  1  0
 18 21  2  0
 19 22  2  0
 20 22  1  0
 24 34  1  0
 25 40  1  0
 26 27  1  0
 26 37  1  0
 26 43  1  0
 27 28  1  0
 27 33  1  0
 28 29  1  0
 28 32  2  0
 29 30  1  0
 29 35  2  0
 30 31  2  0
 30 34  1  0
 31 33  1  0
 31 39  1  0
 32 36  1  0
 32 38  1  0
 34 40  2  0
 35 41  1  0
 36 37  1  0
 38 41  2  0
 39 42  2  0
 40 42  1  0
  1 44  1  0
  1 45  1  0
  2 46  1  0
  3 47  1  0
  4 48  1  0
  5 49  1  0
  7 50  1  1
 13 51  1  0
 13 52  1  0
 15 53  1  0
 16 54  1  0
 16 55  1  0
 17 56  1  0
 17 57  1  0
 18 58  1  0
 19 59  1  0
 21 60  1  0
 22 61  1  0
 23 62  1  0
 23 63  1  0
 23 64  1  0
 24 65  1  0
 25 66  1  0
 27 67  1  6
 33 68  1  0
 33 69  1  0
 35 70  1  0
 36 71  1  0
 36 72  1  0
 37 73  1  0
 37 74  1  0
 38 75  1  0
 39 76  1  0
 41 77  1  0
 42 78  1  0
 43 79  1  0
 43 80  1  0
 43 81  1  0
M  END
$$$$
