
     RDKit          3D

 81 84  0  0  0  0  0  0  0  0999 V2000
   -0.0075    0.3814   -0.0000 O   0  0  0  0  0  0  0  0  0  0  0  0
    0.6883    0.0000    0.0000 Cl  0  0  0  0  0  0  0  0  0  0  0  0
    0.6855    0.0000    0.0000 Cl  0  0  0  0  0  0  0  0  0  0  0  0
    3.5005    1.5882    0.0286 O   0  0  0  0  0  0  0  0  0  0  0  0
    5.2880   -0.3535   -0.5534 O   0  0  0  0  0  0  0  0  0  0  0  0
   -2.2505   -1.0639    0.4256 N   0  0  0  0  0  0  0  0  0  0  0  0
   -1.2235   -0.6078   -0.4659 C   0  0  1  0  0  0  0  0  0  0  0  0
   -0.6952    0.6926   -0.0700 C   0  0  0  0  0  0  0  0  0  0  0  0
    0.6249    1.0610   -0.0037 C   0  0  0  0  0  0  0  0  0  0  0  0
    1.6319    0.0511   -0.2792 C   0  0  0  0  0  0  0  0  0  0  0  0
    1.2148   -1.2100   -0.5831 C   0  0  0  0  0  0  0  0  0  0  0  0
   -1.6500    1.6735    0.2423 C   0  0  0  0  0  0  0  0  0  0  0  0
   -0.1888   -1.6685   -0.6054 C   0  0  0  0  0  0  0  0  0  0  0  0
    2.9734    0.3522   -0.2643 C   0  0  0  0  0  0  0  0  0  0  0  0
    0.9767    2.3412    0.3529 C   0  0  0  0  0  0  0  0  0  0  0  0
   -3.0646    1.2525    0.1754 C   0  0  0  0  0  0  0  0  0  0  0  0
   -3.2965   -0.1364    0.6809 C   0  0  0  0  0  0  0  0  0  0  0  0
   -1.3072    2.9505    0.5986 C   0  0  0  0  0  0  0  0  0  0  0  0
    2.1735   -2.1790   -0.8775 C   0  0  0  0  0  0  0  0  0  0  0  0
    3.9188   -0.6398   -0.5633 C   0  0  0  0  0  0  0  0  0  0  0  0
    0.0114    3.3160    0.6625 C   0  0  0  0  0  0  0  0  0  0  0  0
    3.5007   -1.9105   -0.8707 C   0  0  0  0  0  0  0  0  0  0  0  0
   -2.7042   -2.3848    0.0696 C   0  0  0  0  0  0  0  0  0  0  0  0
    3.3488    1.3644    0.5444 O   0  0  0  0  0  0  0  0  0  0  0  0
    5.1320   -0.6523    0.3936 O   0  0  0  0  0  0  0  0  0  0  0  0
   -2.3699   -1.0380    0.0486 N   0  0  0  0  0  0  0  0  0  0  0  0
   -1.2441   -0.7181   -0.7740 C   0  0  1  0  0  0  0  0  0  0  0  0
   -0.7603    0.6241   -0.3658 C   0  0  0  0  0  0  0  0  0  0  0  0
    0.5284    0.9323   -0.0614 C   0  0  0  0  0  0  0  0  0  0  0  0
    1.5285   -0.1142   -0.1234 C   0  0  0  0  0  0  0  0  0  0  0  0
    1.1536   -1.3893   -0.4864 C   0  0  0  0  0  0  0  0  0  0  0  0
   -1.7444    1.6173   -0.3082 C   0  0  0  0  0  0  0  0  0  0  0  0
   -0.2310   -1.7843   -0.8221 C   0  0  0  0  0  0  0  0  0  0  0  0
    2.8401    0.1461    0.1707 C   0  0  0  0  0  0  0  0  0  0  0  0
    0.8420    2.2194    0.2986 C   0  0  0  0  0  0  0  0  0  0  0  0
   -3.1224    1.1972   -0.6533 C   0  0  0  0  0  0  0  0  0  0  0  0
   -3.4809   -0.1509   -0.0982 C   0  0  0  0  0  0  0  0  0  0  0  0
   -1.4190    2.8994    0.0527 C   0  0  0  0  0  0  0  0  0  0  0  0
    2.1052   -2.4119   -0.5545 C   0  0  0  0  0  0  0  0  0  0  0  0
    3.7767   -0.8952    0.0957 C   0  0  0  0  0  0  0  0  0  0  0  0
   -0.1268    3.2340    0.3638 C   0  0  0  0  0  0  0  0  0  0  0  0
    3.4231   -2.1537   -0.2597 C   0  0  0  0  0  0  0  0  0  0  0  0
   -2.0326   -1.3686    1.4054 C   0  0  0  0  0  0  0  0  0  0  0  0
   -0.8046   -0.1934   -0.0000 H   0  0  0  0  0  0  0  0  0  0  0  0
    0.8121   -0.1880    0.0000 H   0  0  0  0  0  0  0  0  0  0  0  0
   -0.6883    0.0000    0.0000 H   0  0  0  0  0  0  0  0  0  0  0  0
   -0.6855    0.0000    0.0000 H   0  0  0  0  0  0  0  0  0  0  0  0
    4.1942    2.0712   -0.5150 H   0  0  0  0  0  0  0  0  0  0  0  0
    5.6312    0.5549   -0.3145 H   0  0  0  0  0  0  0  0  0  0  0  0
   -1.6961   -0.4382   -1.4898 H   0  0  0  0  0  0  0  0  0  0  0  0
   -0.3466   -2.4587    0.1808 H   0  0  0  0  0  0  0  0  0  0  0  0
   -0.3548   -2.1888   -1.5948 H   0  0  0  0  0  0  0  0  0  0  0  0
    1.9841    2.7060    0.4283 H   0  0  0  0  0  0  0  0  0  0  0  0
   -3.4131    1.3740   -0.8701 H   0  0  0  0  0  0  0  0  0  0  0  0
   -3.6526    1.9672    0.7881 H   0  0  0  0  0  0  0  0  0  0  0  0
   -4.2223   -0.5159    0.2020 H   0  0  0  0  0  0  0  0  0  0  0  0
   -3.4925   -0.1251    1.7720 H   0  0  0  0  0  0  0  0  0  0  0  0
   -2.0402    3.7076    0.8392 H   0  0  0  0  0  0  0  0  0  0  0  0
    1.8694   -3.1998   -1.1259 H   0  0  0  0  0  0  0  0  0  0  0  0
    0.2796    4.3166    0.9412 H   0  0  0  0  0  0  0  0  0  0  0  0
    4.2610   -2.6411   -1.0943 H   0  0  0  0  0  0  0  0  0  0  0  0
   -3.8066   -2.4728    0.2530 H   0  0  0  0  0  0  0  0  0  0  0  0
   -2.4310   -2.6765   -0.9755 H   0  0  0  0  0  0  0  0  0  0  0  0
   -2.1976   -3.1052    0.7447 H   0  0  0  0  0  0  0  0  0  0  0  0
    4.1577    1.7987    0.1166 H   0  0  0  0  0  0  0  0  0  0  0  0
    5.3005   -0.0871    1.2241 H   0  0  0  0  0  0  0  0  0  0  0  0
   -1.6604   -0.5764   -1.8152 H   0  0  0  0  0  0  0  0  0  0  0  0
   -0.1642   -2.2586   -1.8399 H   0  0  0  0  0  0  0  0  0  0  0  0
   -0.4624   -2.6602   -0.1517 H   0  0  0  0  0  0  0  0  0  0  0  0
    1.8290    2.5529    0.5548 H   0  0  0  0  0  0  0  0  0  0  0  0
   -3.8086    1.9785   -0.2455 H   0  0  0  0  0  0  0  0  0  0  0  0
   -3.2177    1.2526   -1.7605 H   0  0  0  0  0  0  0  0  0  0  0  0
   -4.0081   -0.0506    0.8674 H   0  0  0  0  0  0  0  0  0  0  0  0
   -4.1974   -0.6209   -0.8203 H   0  0  0  0  0  0  0  0  0  0  0  0
   -2.1655    3.6640    0.0990 H   0  0  0  0  0  0  0  0  0  0  0  0
    1.8266   -3.4155   -0.8373 H   0  0  0  0  0  0  0  0  0  0  0  0
    0.1150    4.2405    0.6447 H   0  0  0  0  0  0  0  0  0  0  0  0
    4.1728   -2.9205   -0.3044 H   0  0  0  0  0  0  0  0  0  0  0  0
   -1.0090   -1.0684    1.7134 H   0  0  0  0  0  0  0  0  0  0  0  0
   -2.7142   -0.9166    2.1677 H   0  0  0  0  0  0  0  0  0  0  0  0
   -2.1412   -2.4704    1.5206 H   0  0  0  0  0  0  0  0  0  0  0  0
  4 14  1  0
  5 20  1  0
  6  7  1  0
  6 17  1  0
  6 23  1  0
  7  8  1  0
  7 13  1  0
  8  9  1  0
  8 12  2  0
  9 10  1  0
  9 15  2  0
 10 11  2  0
 10 14  1  0
 11 13  1  0
 11 19  1  0
 12 16  1  0
 12 18  1  0
 14 20  2  0
 15 21  1  0
 16 17  1  0
 18 21  2  0
 19 22  2  0
 20 22  1  0
 24 34  1  0
 25 40  1  0
 26 27  1  0
 26 37  1  0
 26 43  1  0
 27 28  1  0
 27 33  1  0
 28 29  1  0
 28 32  2  0
 29 30  1  0
 29 35  2  0
 30 31  2  0
 30 34  1  0
 31 33  1  0
 31 39  1  0
 32 36  1  0
 32 38  1  0
 34 40  2  0
 35 41  1  0
 36 37  1  0
 38 41  2  0
 39 42  2  0
 40 42  1  0
  1 44  1  0
  1 45  1  0
  2 46  1  0
  3 47  1  0
  4 48  1  0
  5 49  1  0
  7 50  1  6
 13 51  1  0
 13 52  1  0
 15 53  1  0
 16 54  1  0
 16 55  1  0
 17 56  1  0
 17 57  1  0
 18 58  1  0
 19 59  1  0
 21 60  1  0
 22 61  1  0
 23 62  1  0
 23 63  1  0
 23 64  1  0
 24 65  1  0
 25 66  1  0
 27 67  1  6
 33 68  1  0
 33 69  1  0
 35 70  1  0
 36 71  1  0
 36 72  1  0
 37 73  1  0
 37 74  1  0
 38 75  1  0
 39 76  1  0
 41 77  1  0
 42 78  1  0
 43 79  1  0
 43 80  1  0
 43 81  1  0
M  END
$$$$
