
     RDKit          3D

 81 84  0  0  0  0  0  0  0  0999 V2000
   -0.0041    0.3807   -0.0000 O   0  0  0  0  0  0  0  0  0  0  0  0
    0.6876    0.0000    0.0000 Cl  0  0  0  0  0  0  0  0  0  0  0  0
    0.6865    0.0000    0.0000 Cl  0  0  0  0  0  0  0  0  0  0  0  0
    3.5420    1.5634   -0.2996 O   0  0  0  0  0  0  0  0  0  0  0  0
    5.3222   -0.4663   -0.2371 O   0  0  0  0  0  0  0  0  0  0  0  0
   -2.3823   -0.7859    0.6626 N   0  0  0  0  0  0  0  0  0  0  0  0
   -1.1559   -0.6726   -0.1413 C   0  0  1  0  0  0  0  0  0  0  0  0
   -0.6888    0.7388   -0.1355 C   0  0  0  0  0  0  0  0  0  0  0  0
    0.6618    1.0767   -0.1781 C   0  0  0  0  0  0  0  0  0  0  0  0
    1.6624    0.0200   -0.1180 C   0  0  0  0  0  0  0  0  0  0  0  0
    1.2686   -1.2990   -0.0127 C   0  0  0  0  0  0  0  0  0  0  0  0
   -1.6807    1.6956   -0.1286 C   0  0  0  0  0  0  0  0  0  0  0  0
   -0.1601   -1.7090    0.1073 C   0  0  0  0  0  0  0  0  0  0  0  0
    3.0074    0.2948   -0.1921 C   0  0  0  0  0  0  0  0  0  0  0  0
    1.0356    2.4005   -0.2183 C   0  0  0  0  0  0  0  0  0  0  0  0
   -3.1292    1.4528   -0.0708 C   0  0  0  0  0  0  0  0  0  0  0  0
   -3.4108   -0.0109    0.0148 C   0  0  0  0  0  0  0  0  0  0  0  0
   -1.2643    3.0157   -0.1693 C   0  0  0  0  0  0  0  0  0  0  0  0
    2.1908   -2.3481    0.0185 C   0  0  0  0  0  0  0  0  0  0  0  0
    3.9549   -0.7405   -0.1622 C   0  0  0  0  0  0  0  0  0  0  0  0
    0.0502    3.4018   -0.2141 C   0  0  0  0  0  0  0  0  0  0  0  0
    3.5288   -2.0429   -0.0577 C   0  0  0  0  0  0  0  0  0  0  0  0
   -2.8156   -2.1713    0.6261 C   0  0  0  0  0  0  0  0  0  0  0  0
    3.6127    1.1221    0.6766 O   0  0  0  0  0  0  0  0  0  0  0  0
    5.2351   -0.8834   -0.1397 O   0  0  0  0  0  0  0  0  0  0  0  0
   -2.3299   -0.8703    0.1872 N   0  0  0  0  0  0  0  0  0  0  0  0
   -1.2241   -0.3708   -0.5802 C   0  0  1  0  0  0  0  0  0  0  0  0
   -0.6140    0.7995    0.0834 C   0  0  0  0  0  0  0  0  0  0  0  0
    0.7328    0.9609    0.3051 C   0  0  0  0  0  0  0  0  0  0  0  0
    1.6475   -0.0902   -0.1070 C   0  0  0  0  0  0  0  0  0  0  0  0
    1.1365   -1.2214   -0.7076 C   0  0  0  0  0  0  0  0  0  0  0  0
   -1.5213    1.7943    0.4855 C   0  0  0  0  0  0  0  0  0  0  0  0
   -0.3050   -1.4493   -0.9512 C   0  0  0  0  0  0  0  0  0  0  0  0
    2.9983    0.0536    0.0961 C   0  0  0  0  0  0  0  0  0  0  0  0
    1.1628    2.1121    0.9245 C   0  0  0  0  0  0  0  0  0  0  0  0
   -2.9468    1.5000    0.1960 C   0  0  0  0  0  0  0  0  0  0  0  0
   -3.1823    0.1143    0.7586 C   0  0  0  0  0  0  0  0  0  0  0  0
   -1.0706    2.9314    1.1002 C   0  0  0  0  0  0  0  0  0  0  0  0
    1.9847   -2.2576   -1.1287 C   0  0  0  0  0  0  0  0  0  0  0  0
    3.8420   -0.9843   -0.3260 C   0  0  0  0  0  0  0  0  0  0  0  0
    0.2686    3.1175    1.3328 C   0  0  0  0  0  0  0  0  0  0  0  0
    3.3374   -2.1121   -0.9247 C   0  0  0  0  0  0  0  0  0  0  0  0
   -3.0092   -1.9681   -0.4216 C   0  0  0  0  0  0  0  0  0  0  0  0
   -0.8084   -0.1918   -0.0000 H   0  0  0  0  0  0  0  0  0  0  0  0
    0.8125   -0.1889    0.0000 H   0  0  0  0  0  0  0  0  0  0  0  0
   -0.6876    0.0000    0.0000 H   0  0  0  0  0  0  0  0  0  0  0  0
   -0.6865    0.0000    0.0000 H   0  0  0  0  0  0  0  0  0  0  0  0
    4.4090    1.8574    0.0902 H   0  0  0  0  0  0  0  0  0  0  0  0
    5.7641   -0.0658    0.5860 H   0  0  0  0  0  0  0  0  0  0  0  0
   -1.5390   -0.8230   -1.2014 H   0  0  0  0  0  0  0  0  0  0  0  0
   -0.3177   -2.1305    1.1284 H   0  0  0  0  0  0  0  0  0  0  0  0
   -0.2643   -2.6047   -0.5773 H   0  0  0  0  0  0  0  0  0  0  0  0
    2.0278    2.7564   -0.2512 H   0  0  0  0  0  0  0  0  0  0  0  0
   -3.5743    1.8957    0.8779 H   0  0  0  0  0  0  0  0  0  0  0  0
   -3.6702    1.8889   -0.9405 H   0  0  0  0  0  0  0  0  0  0  0  0
   -4.3430   -0.2094    0.6237 H   0  0  0  0  0  0  0  0  0  0  0  0
   -3.5836   -0.3805   -1.0228 H   0  0  0  0  0  0  0  0  0  0  0  0
   -2.0026    3.8192   -0.1666 H   0  0  0  0  0  0  0  0  0  0  0  0
    1.8747   -3.3833    0.1006 H   0  0  0  0  0  0  0  0  0  0  0  0
    0.3183    4.4487   -0.2454 H   0  0  0  0  0  0  0  0  0  0  0  0
    4.2937   -2.8064   -0.0387 H   0  0  0  0  0  0  0  0  0  0  0  0
   -2.7432   -2.6462   -0.3517 H   0  0  0  0  0  0  0  0  0  0  0  0
   -2.2863   -2.8096    1.3596 H   0  0  0  0  0  0  0  0  0  0  0  0
   -3.9001   -2.2201    0.9354 H   0  0  0  0  0  0  0  0  0  0  0  0
    4.3192    1.6533    0.2151 H   0  0  0  0  0  0  0  0  0  0  0  0
    5.5048   -0.7072    0.8400 H   0  0  0  0  0  0  0  0  0  0  0  0
   -1.6901    0.0545   -1.5218 H   0  0  0  0  0  0  0  0  0  0  0  0
   -0.5486   -2.4313   -0.4503 H   0  0  0  0  0  0  0  0  0  0  0  0
   -0.3812   -1.7048   -2.0487 H   0  0  0  0  0  0  0  0  0  0  0  0
    2.1878    2.3351    1.1435 H   0  0  0  0  0  0  0  0  0  0  0  0
   -3.1787    1.5451   -0.8862 H   0  0  0  0  0  0  0  0  0  0  0  0
   -3.6521    2.1643    0.7214 H   0  0  0  0  0  0  0  0  0  0  0  0
   -4.2319   -0.2136    0.6298 H   0  0  0  0  0  0  0  0  0  0  0  0
   -2.9078    0.1926    1.8439 H   0  0  0  0  0  0  0  0  0  0  0  0
   -1.7686    3.6873    1.4047 H   0  0  0  0  0  0  0  0  0  0  0  0
    1.5899   -3.1468   -1.6004 H   0  0  0  0  0  0  0  0  0  0  0  0
    0.6072    4.0167    1.8168 H   0  0  0  0  0  0  0  0  0  0  0  0
    4.0270   -2.8695   -1.2256 H   0  0  0  0  0  0  0  0  0  0  0  0
   -2.5817   -2.2614   -1.4022 H   0  0  0  0  0  0  0  0  0  0  0  0
   -2.9649   -2.8384    0.2740 H   0  0  0  0  0  0  0  0  0  0  0  0
   -4.0856   -1.7742   -0.6132 H   0  0  0  0  0  0  0  0  0  0  0  0
  4 14  1  0
  5 20  1  0
  6  7  1  0
  6 17  1  0
  6 23  1  0
  7  8  1  0
  7 13  1  0
  8  9  1  0
  8 12  2  0
  9 10  1  0
  9 15  2  0
 10 11  2  0
 10 14  1  0
 11 13  1  0
 11 19  1  0
 12 16  1  0
 12 18  1  0
 14 20  2  0
 15 21  1  0
 16 17  1  0
 18 21  2  0
 19 22  2  0
 20 22  1  0
 24 34  1  0
 25 40  1  0
 26 27  1  0
 26 37  1  0
 26 43  1  0
 27 28  1  0
 27 33  1  0
 28 29  1  0
 28 32  2  0
 29 30  1  0
 29 35  2  0
 30 31  2  0
 30 34  1  0
 31 33  1  0
 31 39  1  0
 32 36  1  0
 32 38  1  0
 34 40  2  0
 35 41  1  0
 36 37  1  0
 38 41  2  0
 39 42  2  0
 40 42  1  0
  1 44  1  0
  1 45  1  0
  2 46  1  0
  3 47  1  0
  4 48  1  0
  5 49  1  0
  7 50  1  6
 13 51  1  0
 13 52  1  0
 15 53  1  0
 16 54  1  0
 16 55  1  0
 17 56  1  0
 17 57  1  0
 18 58  1  0
 19 59  1  0
 21 60  1  0
 22 61  1  0
 23 62  1  0
 23 63  1  0
 23 64  1  0
 24 65  1  0
 25 66  1  0
 27 67  1  6
 33 68  1  0
 33 69  1  0
 35 70  1  0
 36 71  1  0
 36 72  1  0
 37 73  1  0
 37 74  1  0
 38 75  1  0
 39 76  1  0
 41 77  1  0
 42 78  1  0
 43 79  1  0
 43 80  1  0
 43 81  1  0
M  END
$$$$
