
     RDKit          3D

 43 46  0  0  0  0  0  0  0  0999 V2000
    0.0000    0.0000    0.0000 O   0  0  0  0  0  0  0  0  0  0  0  0
    0.0000    0.0000    0.0000 Cl  0  0  0  0  0  0  0  0  0  0  0  0
    0.0000    0.0000    0.0000 Cl  0  0  0  0  0  0  0  0  0  0  0  0
   -2.4002    2.0263    0.4800 O   0  0  0  0  0  0  0  0  0  0  0  0
   -4.7371    0.7898   -0.2325 O   0  0  0  0  0  0  0  0  0  0  0  0
    2.4974   -1.5525   -0.9191 N   0  0  0  0  0  0  0  0  0  0  0  0
    1.3509   -1.4346   -0.0754 C   0  0  1  0  0  0  0  0  0  0  0  0
    1.2220   -0.0382    0.3388 C   0  0  0  0  0  0  0  0  0  0  0  0
    0.0608    0.6879    0.4034 C   0  0  0  0  0  0  0  0  0  0  0  0
   -1.1680    0.0110    0.0180 C   0  0  0  0  0  0  0  0  0  0  0  0
   -1.0756   -1.2961   -0.3797 C   0  0  0  0  0  0  0  0  0  0  0  0
    2.4005    0.6235    0.7086 C   0  0  0  0  0  0  0  0  0  0  0  0
    0.1289   -2.1131   -0.4715 C   0  0  0  0  0  0  0  0  0  0  0  0
   -2.3649    0.7042    0.0697 C   0  0  0  0  0  0  0  0  0  0  0  0
   -0.0160    2.0022    0.8020 C   0  0  0  0  0  0  0  0  0  0  0  0
    3.7044   -0.0874    0.6680 C   0  0  0  0  0  0  0  0  0  0  0  0
    3.6651   -1.3802   -0.0754 C   0  0  0  0  0  0  0  0  0  0  0  0
    2.3697    1.9415    1.1147 C   0  0  0  0  0  0  0  0  0  0  0  0
   -2.2852   -1.9063   -0.7391 C   0  0  0  0  0  0  0  0  0  0  0  0
   -3.5438    0.0820   -0.2893 C   0  0  0  0  0  0  0  0  0  0  0  0
    1.1563    2.6320    1.1610 C   0  0  0  0  0  0  0  0  0  0  0  0
   -3.4821   -1.2354   -0.6945 C   0  0  0  0  0  0  0  0  0  0  0  0
    2.5169   -0.4566   -1.8876 C   0  0  0  0  0  0  0  0  0  0  0  0
    2.7231    1.5643    0.4596 O   0  0  0  0  0  0  0  0  0  0  0  0
    4.7677   -0.3136    0.0990 O   0  0  0  0  0  0  0  0  0  0  0  0
   -2.7016   -1.3547    0.2163 N   0  0  0  0  0  0  0  0  0  0  0  0
   -1.6291   -0.9239   -0.6232 C   0  0  1  0  0  0  0  0  0  0  0  0
   -1.2187    0.4077   -0.2061 C   0  0  0  0  0  0  0  0  0  0  0  0
    0.0676    0.8327    0.0251 C   0  0  0  0  0  0  0  0  0  0  0  0
    1.1278   -0.1480   -0.1625 C   0  0  0  0  0  0  0  0  0  0  0  0
    0.7675   -1.4078   -0.5513 C   0  0  0  0  0  0  0  0  0  0  0  0
   -2.2247    1.3649   -0.0184 C   0  0  0  0  0  0  0  0  0  0  0  0
   -0.5736   -1.9114   -0.8070 C   0  0  0  0  0  0  0  0  0  0  0  0
    2.4257    0.2553    0.0622 C   0  0  0  0  0  0  0  0  0  0  0  0
    0.3915    2.1119    0.4182 C   0  0  0  0  0  0  0  0  0  0  0  0
   -3.6108    0.9003   -0.2690 C   0  0  0  0  0  0  0  0  0  0  0  0
   -3.8666   -0.5162    0.1343 C   0  0  0  0  0  0  0  0  0  0  0  0
   -1.9548    2.6492    0.3716 C   0  0  0  0  0  0  0  0  0  0  0  0
    1.8285   -2.3146   -0.7192 C   0  0  0  0  0  0  0  0  0  0  0  0
    3.4518   -0.6755   -0.1155 C   0  0  0  0  0  0  0  0  0  0  0  0
   -0.6356    3.0314    0.5933 C   0  0  0  0  0  0  0  0  0  0  0  0
    3.1399   -1.9645   -0.5084 C   0  0  0  0  0  0  0  0  0  0  0  0
   -2.2756   -1.5875    1.6010 C   0  0  0  0  0  0  0  0  0  0  0  0
  4 14  1  0
  5 20  1  0
  6  7  1  0
  6 17  1  0
  6 23  1  0
  7  8  1  0
  7 13  1  6
  8  9  1  0
  8 12  2  0
  9 10  1  0
  9 15  2  0
 10 11  2  0
 10 14  1  0
 11 13  1  0
 11 19  1  0
 12 16  1  0
 12 18  1  0
 14 20  2  0
 15 21  1  0
 16 17  1  0
 18 21  2  0
 19 22  2  0
 20 22  1  0
 24 34  1  0
 25 40  1  0
 26 27  1  0
 26 37  1  0
 26 43  1  0
 27 28  1  0
 27 33  1  1
 28 29  1  0
 28 32  2  0
 29 30  1  0
 29 35  2  0
 30 31  2  0
 30 34  1  0
 31 33  1  0
 31 39  1  0
 32 36  1  0
 32 38  1  0
 34 40  2  0
 35 41  1  0
 36 37  1  0
 38 41  2  0
 39 42  2  0
 40 42  1  0
M  END
