
     RDKit          3D

 21 12  0  0  0  0  0  0  0  0999 V2000
   38.7225    3.4807    5.7635 O   0  0  0  0  0  0  0  0  0  0  0  0
   38.8185    3.8238    5.5866 Mg  0  0  0  0  0 15  0  0  0  0  0  0
   38.7231    3.4803    5.7631 O   0  0  0  0  0  0  0  0  0  0  0  0
   38.7239    3.4797    5.7623 O   0  0  0  0  0  0  0  0  0  0  0  0
   38.7220    3.4811    5.7640 O   0  0  0  0  0  0  0  0  0  0  0  0
   38.8185    3.8238    5.5866 Cl  0  0  0  0  0  0  0  0  0  0  0  0
   38.8185    3.8238    5.5866 Cl  0  0  0  0  0  0  0  0  0  0  0  0
   38.7217    3.4813    5.7643 O   0  0  0  0  0  0  0  0  0  0  0  0
   38.7206    3.4820    5.7651 O   0  0  0  0  0  0  0  0  0  0  0  0
   39.3764    3.6288    5.0640 H   0  0  0  0  0  0  0  0  0  0  0  0
   38.3566    4.3620    5.9323 H   0  0  0  0  0  0  0  0  0  0  0  0
   38.3560    4.3608    5.9332 H   0  0  0  0  0  0  0  0  0  0  0  0
   39.3765    3.6303    5.0635 H   0  0  0  0  0  0  0  0  0  0  0  0
   39.3766    3.6329    5.0627 H   0  0  0  0  0  0  0  0  0  0  0  0
   38.3549    4.3588    5.9348 H   0  0  0  0  0  0  0  0  0  0  0  0
   38.3572    4.3630    5.9314 H   0  0  0  0  0  0  0  0  0  0  0  0
   39.3763    3.6274    5.0644 H   0  0  0  0  0  0  0  0  0  0  0  0
   38.3576    4.3637    5.9309 H   0  0  0  0  0  0  0  0  0  0  0  0
   39.3762    3.6264    5.0647 H   0  0  0  0  0  0  0  0  0  0  0  0
   39.3760    3.6237    5.0655 H   0  0  0  0  0  0  0  0  0  0  0  0
   38.3588    4.3658    5.9292 H   0  0  0  0  0  0  0  0  0  0  0  0
  1 10  1  0
  1 11  1  0
  3 12  1  0
  3 13  1  0
  4 14  1  0
  4 15  1  0
  5 16  1  0
  5 17  1  0
  8 18  1  0
  8 19  1  0
  9 20  1  0
  9 21  1  0
M  CHG  3   2   2   6  -1   7  -1
M  END
> <Uni-Dock RESULT> 
ENERGY=   -6.291  LOWER_BOUND=    0.000  UPPER_BOUND=    0.000
INTER + INTRA:          -6.291
INTER:                  -6.291
INTRA:                   0.000
UNBOUND:                 0.000

$$$$

     RDKit          3D

 21 12  0  0  0  0  0  0  0  0999 V2000
   46.7458   -0.2398    7.7528 O   0  0  0  0  0  0  0  0  0  0  0  0
   46.8131    0.1339    7.6343 Mg  0  0  0  0  0 15  0  0  0  0  0  0
   46.7459   -0.2401    7.7520 O   0  0  0  0  0  0  0  0  0  0  0  0
   46.7461   -0.2405    7.7508 O   0  0  0  0  0  0  0  0  0  0  0  0
   46.7457   -0.2396    7.7535 O   0  0  0  0  0  0  0  0  0  0  0  0
   46.8131    0.1339    7.6343 Cl  0  0  0  0  0  0  0  0  0  0  0  0
   46.8131    0.1339    7.6343 Cl  0  0  0  0  0  0  0  0  0  0  0  0
   46.7456   -0.2394    7.7540 O   0  0  0  0  0  0  0  0  0  0  0  0
   46.7454   -0.2390    7.7554 O   0  0  0  0  0  0  0  0  0  0  0  0
   46.9528    0.0749    6.8600 H   0  0  0  0  0  0  0  0  0  0  0  0
   46.7407    0.5666    8.2900 H   0  0  0  0  0  0  0  0  0  0  0  0
   46.7404    0.5653    8.2908 H   0  0  0  0  0  0  0  0  0  0  0  0
   46.9530    0.0765    6.8599 H   0  0  0  0  0  0  0  0  0  0  0  0
   46.9534    0.0792    6.8598 H   0  0  0  0  0  0  0  0  0  0  0  0
   46.7398    0.5630    8.2922 H   0  0  0  0  0  0  0  0  0  0  0  0
   46.7410    0.5678    8.2892 H   0  0  0  0  0  0  0  0  0  0  0  0
   46.9526    0.0735    6.8602 H   0  0  0  0  0  0  0  0  0  0  0  0
   46.7412    0.5687    8.2887 H   0  0  0  0  0  0  0  0  0  0  0  0
   46.9525    0.0724    6.8602 H   0  0  0  0  0  0  0  0  0  0  0  0
   46.9521    0.0696    6.8603 H   0  0  0  0  0  0  0  0  0  0  0  0
   46.7418    0.5711    8.2871 H   0  0  0  0  0  0  0  0  0  0  0  0
  1 10  1  0
  1 11  1  0
  3 12  1  0
  3 13  1  0
  4 14  1  0
  4 15  1  0
  5 16  1  0
  5 17  1  0
  8 18  1  0
  8 19  1  0
  9 20  1  0
  9 21  1  0
M  CHG  3   2   2   6  -1   7  -1
M  END
> <Uni-Dock RESULT> 
ENERGY=   -6.172  LOWER_BOUND=    9.057  UPPER_BOUND=    9.057
INTER + INTRA:          -6.172
INTER:                  -6.172
INTRA:                   0.000
UNBOUND:                 0.000

$$$$

     RDKit          3D

 21 12  0  0  0  0  0  0  0  0999 V2000
   48.0622    1.5302    7.0703 O   0  0  0  0  0  0  0  0  0  0  0  0
   47.6818    1.4473    6.9884 Mg  0  0  0  0  0 15  0  0  0  0  0  0
   48.0622    1.5295    7.0708 O   0  0  0  0  0  0  0  0  0  0  0  0
   48.0623    1.5285    7.0716 O   0  0  0  0  0  0  0  0  0  0  0  0
   48.0622    1.5308    7.0698 O   0  0  0  0  0  0  0  0  0  0  0  0
   47.6818    1.4473    6.9884 Cl  0  0  0  0  0  0  0  0  0  0  0  0
   47.6818    1.4473    6.9884 Cl  0  0  0  0  0  0  0  0  0  0  0  0
   48.0622    1.5312    7.0694 O   0  0  0  0  0  0  0  0  0  0  0  0
   48.0621    1.5323    7.0685 O   0  0  0  0  0  0  0  0  0  0  0  0
   47.5158    0.8167    7.4325 H   0  0  0  0  0  0  0  0  0  0  0  0
   47.4675    1.9950    6.4625 H   0  0  0  0  0  0  0  0  0  0  0  0
   47.4691    1.9956    6.4626 H   0  0  0  0  0  0  0  0  0  0  0  0
   47.5142    0.8166    7.4319 H   0  0  0  0  0  0  0  0  0  0  0  0
   47.5117    0.8167    7.4309 H   0  0  0  0  0  0  0  0  0  0  0  0
   47.4715    1.9967    6.4627 H   0  0  0  0  0  0  0  0  0  0  0  0
   47.4662    1.9944    6.4625 H   0  0  0  0  0  0  0  0  0  0  0  0
   47.5171    0.8167    7.4330 H   0  0  0  0  0  0  0  0  0  0  0  0
   47.4653    1.9940    6.4624 H   0  0  0  0  0  0  0  0  0  0  0  0
   47.5181    0.8167    7.4334 H   0  0  0  0  0  0  0  0  0  0  0  0
   47.5208    0.8167    7.4344 H   0  0  0  0  0  0  0  0  0  0  0  0
   47.4626    1.9928    6.4623 H   0  0  0  0  0  0  0  0  0  0  0  0
  1 10  1  0
  1 11  1  0
  3 12  1  0
  3 13  1  0
  4 14  1  0
  4 15  1  0
  5 16  1  0
  5 17  1  0
  8 18  1  0
  8 19  1  0
  9 20  1  0
  9 21  1  0
M  CHG  3   2   2   6  -1   7  -1
M  END
> <Uni-Dock RESULT> 
ENERGY=   -5.363  LOWER_BOUND=    9.516  UPPER_BOUND=    9.516
INTER + INTRA:          -5.363
INTER:                  -5.363
INTRA:                   0.000
UNBOUND:                 0.000

$$$$

     RDKit          3D

 21 12  0  0  0  0  0  0  0  0999 V2000
   48.2563    1.9588    5.7124 O   0  0  0  0  0  0  0  0  0  0  0  0
   48.0598    2.1905    5.9691 Mg  0  0  0  0  0 15  0  0  0  0  0  0
   48.2561    1.9593    5.7118 O   0  0  0  0  0  0  0  0  0  0  0  0
   48.2559    1.9601    5.7109 O   0  0  0  0  0  0  0  0  0  0  0  0
   48.2564    1.9582    5.7130 O   0  0  0  0  0  0  0  0  0  0  0  0
   48.0598    2.1905    5.9691 Cl  0  0  0  0  0  0  0  0  0  0  0  0
   48.0598    2.1905    5.9691 Cl  0  0  0  0  0  0  0  0  0  0  0  0
   48.2565    1.9579    5.7133 O   0  0  0  0  0  0  0  0  0  0  0  0
   48.2568    1.9569    5.7144 O   0  0  0  0  0  0  0  0  0  0  0  0
   47.8274    2.8103    5.5397 H   0  0  0  0  0  0  0  0  0  0  0  0
   48.0956    1.8026    6.6551 H   0  0  0  0  0  0  0  0  0  0  0  0
   48.0964    1.8014    6.6544 H   0  0  0  0  0  0  0  0  0  0  0  0
   47.8267    2.8110    5.5411 H   0  0  0  0  0  0  0  0  0  0  0  0
   47.8256    2.8120    5.5433 H   0  0  0  0  0  0  0  0  0  0  0  0
   48.0978    1.7994    6.6532 H   0  0  0  0  0  0  0  0  0  0  0  0
   48.0948    1.8037    6.6558 H   0  0  0  0  0  0  0  0  0  0  0  0
   47.8281    2.8097    5.5386 H   0  0  0  0  0  0  0  0  0  0  0  0
   48.0943    1.8044    6.6563 H   0  0  0  0  0  0  0  0  0  0  0  0
   47.8285    2.8093    5.5377 H   0  0  0  0  0  0  0  0  0  0  0  0
   47.8298    2.8082    5.5354 H   0  0  0  0  0  0  0  0  0  0  0  0
   48.0927    1.8065    6.6575 H   0  0  0  0  0  0  0  0  0  0  0  0
  1 10  1  0
  1 11  1  0
  3 12  1  0
  3 13  1  0
  4 14  1  0
  4 15  1  0
  5 16  1  0
  5 17  1  0
  8 18  1  0
  8 19  1  0
  9 20  1  0
  9 21  1  0
M  CHG  3   2   2   6  -1   7  -1
M  END
> <Uni-Dock RESULT> 
ENERGY=   -5.289  LOWER_BOUND=    9.568  UPPER_BOUND=    9.568
INTER + INTRA:          -5.289
INTER:                  -5.289
INTRA:                   0.000
UNBOUND:                 0.000

$$$$

     RDKit          3D

 21 12  0  0  0  0  0  0  0  0999 V2000
   40.6415   12.0922   15.8691 O   0  0  0  0  0  0  0  0  0  0  0  0
   40.3677   12.3232   15.6962 Mg  0  0  0  0  0 15  0  0  0  0  0  0
   40.6414   12.0926   15.8698 O   0  0  0  0  0  0  0  0  0  0  0  0
   40.6411   12.0932   15.8709 O   0  0  0  0  0  0  0  0  0  0  0  0
   40.6416   12.0918   15.8684 O   0  0  0  0  0  0  0  0  0  0  0  0
   40.3677   12.3232   15.6962 Cl  0  0  0  0  0  0  0  0  0  0  0  0
   40.3677   12.3232   15.6962 Cl  0  0  0  0  0  0  0  0  0  0  0  0
   40.6417   12.0916   15.8680 O   0  0  0  0  0  0  0  0  0  0  0  0
   40.6420   12.0909   15.8667 O   0  0  0  0  0  0  0  0  0  0  0  0
   40.1039   12.7875   16.2771 H   0  0  0  0  0  0  0  0  0  0  0  0
   40.3576   12.0901   14.9426 H   0  0  0  0  0  0  0  0  0  0  0  0
   40.3587   12.0890   14.9430 H   0  0  0  0  0  0  0  0  0  0  0  0
   40.1029   12.7882   16.2760 H   0  0  0  0  0  0  0  0  0  0  0  0
   40.1012   12.7894   16.2743 H   0  0  0  0  0  0  0  0  0  0  0  0
   40.3607   12.0872   14.9435 H   0  0  0  0  0  0  0  0  0  0  0  0
   40.3565   12.0911   14.9423 H   0  0  0  0  0  0  0  0  0  0  0  0
   40.1048   12.7868   16.2780 H   0  0  0  0  0  0  0  0  0  0  0  0
   40.3558   12.0917   14.9421 H   0  0  0  0  0  0  0  0  0  0  0  0
   40.1054   12.7864   16.2787 H   0  0  0  0  0  0  0  0  0  0  0  0
   40.1073   12.7851   16.2805 H   0  0  0  0  0  0  0  0  0  0  0  0
   40.3538   12.0937   14.9415 H   0  0  0  0  0  0  0  0  0  0  0  0
  1 10  1  0
  1 11  1  0
  3 12  1  0
  3 13  1  0
  4 14  1  0
  4 15  1  0
  5 16  1  0
  5 17  1  0
  8 18  1  0
  8 19  1  0
  9 20  1  0
  9 21  1  0
M  CHG  3   2   2   6  -1   7  -1
M  END
> <Uni-Dock RESULT> 
ENERGY=   -5.080  LOWER_BOUND=   13.375  UPPER_BOUND=   13.376
INTER + INTRA:          -5.080
INTER:                  -5.080
INTRA:                   0.000
UNBOUND:                 0.000

$$$$

     RDKit          3D

 21 12  0  0  0  0  0  0  0  0999 V2000
   40.8104    1.9001   21.9645 O   0  0  0  0  0  0  0  0  0  0  0  0
   40.7847    1.8249   22.3542 Mg  0  0  0  0  0 15  0  0  0  0  0  0
   40.8106    1.9008   21.9646 O   0  0  0  0  0  0  0  0  0  0  0  0
   40.8109    1.9021   21.9649 O   0  0  0  0  0  0  0  0  0  0  0  0
   40.8102    1.8993   21.9643 O   0  0  0  0  0  0  0  0  0  0  0  0
   40.7847    1.8249   22.3542 Cl  0  0  0  0  0  0  0  0  0  0  0  0
   40.7847    1.8249   22.3542 Cl  0  0  0  0  0  0  0  0  0  0  0  0
   40.8101    1.8989   21.9642 O   0  0  0  0  0  0  0  0  0  0  0  0
   40.8097    1.8974   21.9639 O   0  0  0  0  0  0  0  0  0  0  0  0
   40.9693    2.5089   22.7013 H   0  0  0  0  0  0  0  0  0  0  0  0
   40.5743    1.0657   22.3970 H   0  0  0  0  0  0  0  0  0  0  0  0
   40.5743    1.0656   22.3953 H   0  0  0  0  0  0  0  0  0  0  0  0
   40.9691    2.5082   22.7028 H   0  0  0  0  0  0  0  0  0  0  0  0
   40.9687    2.5071   22.7052 H   0  0  0  0  0  0  0  0  0  0  0  0
   40.5743    1.0655   22.3926 H   0  0  0  0  0  0  0  0  0  0  0  0
   40.5743    1.0658   22.3984 H   0  0  0  0  0  0  0  0  0  0  0  0
   40.9694    2.5095   22.7000 H   0  0  0  0  0  0  0  0  0  0  0  0
   40.5743    1.0658   22.3994 H   0  0  0  0  0  0  0  0  0  0  0  0
   40.9696    2.5099   22.6991 H   0  0  0  0  0  0  0  0  0  0  0  0
   40.9700    2.5112   22.6965 H   0  0  0  0  0  0  0  0  0  0  0  0
   40.5743    1.0660   22.4023 H   0  0  0  0  0  0  0  0  0  0  0  0
  1 10  1  0
  1 11  1  0
  3 12  1  0
  3 13  1  0
  4 14  1  0
  4 15  1  0
  5 16  1  0
  5 17  1  0
  8 18  1  0
  8 19  1  0
  9 20  1  0
  9 21  1  0
M  CHG  3   2   2   6  -1   7  -1
M  END
> <Uni-Dock RESULT> 
ENERGY=   -4.774  LOWER_BOUND=   16.610  UPPER_BOUND=   16.610
INTER + INTRA:          -4.774
INTER:                  -4.774
INTRA:                   0.000
UNBOUND:                 0.000

$$$$

     RDKit          3D

 21 12  0  0  0  0  0  0  0  0999 V2000
   42.0427    5.9048   11.7625 O   0  0  0  0  0  0  0  0  0  0  0  0
   42.3244    5.6424   11.8629 Mg  0  0  0  0  0 15  0  0  0  0  0  0
   42.0422    5.9042   11.7623 O   0  0  0  0  0  0  0  0  0  0  0  0
   42.0414    5.9032   11.7621 O   0  0  0  0  0  0  0  0  0  0  0  0
   42.0432    5.9054   11.7627 O   0  0  0  0  0  0  0  0  0  0  0  0
   42.3244    5.6424   11.8629 Cl  0  0  0  0  0  0  0  0  0  0  0  0
   42.3244    5.6424   11.8629 Cl  0  0  0  0  0  0  0  0  0  0  0  0
   42.0435    5.9057   11.7628 O   0  0  0  0  0  0  0  0  0  0  0  0
   42.0444    5.9069   11.7631 O   0  0  0  0  0  0  0  0  0  0  0  0
   41.9883    4.9374   11.7513 H   0  0  0  0  0  0  0  0  0  0  0  0
   42.9421    6.0850   12.0748 H   0  0  0  0  0  0  0  0  0  0  0  0
   42.9412    6.0864   12.0744 H   0  0  0  0  0  0  0  0  0  0  0  0
   41.9897    4.9366   11.7518 H   0  0  0  0  0  0  0  0  0  0  0  0
   41.9920    4.9355   11.7526 H   0  0  0  0  0  0  0  0  0  0  0  0
   42.9398    6.0886   12.0739 H   0  0  0  0  0  0  0  0  0  0  0  0
   42.9429    6.0838   12.0750 H   0  0  0  0  0  0  0  0  0  0  0  0
   41.9871    4.9381   11.7509 H   0  0  0  0  0  0  0  0  0  0  0  0
   42.9434    6.0830   12.0752 H   0  0  0  0  0  0  0  0  0  0  0  0
   41.9862    4.9385   11.7505 H   0  0  0  0  0  0  0  0  0  0  0  0
   41.9838    4.9398   11.7497 H   0  0  0  0  0  0  0  0  0  0  0  0
   42.9449    6.0806   12.0758 H   0  0  0  0  0  0  0  0  0  0  0  0
  1 10  1  0
  1 11  1  0
  3 12  1  0
  3 13  1  0
  4 14  1  0
  4 15  1  0
  5 16  1  0
  5 17  1  0
  8 18  1  0
  8 19  1  0
  9 20  1  0
  9 21  1  0
M  CHG  3   2   2   6  -1   7  -1
M  END
> <Uni-Dock RESULT> 
ENERGY=   -4.650  LOWER_BOUND=    7.320  UPPER_BOUND=    7.320
INTER + INTRA:          -4.650
INTER:                  -4.650
INTRA:                   0.000
UNBOUND:                 0.000

$$$$

     RDKit          3D

 21 12  0  0  0  0  0  0  0  0999 V2000
   47.1586    3.0440    5.1344 O   0  0  0  0  0  0  0  0  0  0  0  0
   47.1028    2.9153    5.5066 Mg  0  0  0  0  0 15  0  0  0  0  0  0
   47.1586    3.0433    5.1341 O   0  0  0  0  0  0  0  0  0  0  0  0
   47.1586    3.0420    5.1337 O   0  0  0  0  0  0  0  0  0  0  0  0
   47.1587    3.0448    5.1346 O   0  0  0  0  0  0  0  0  0  0  0  0
   47.1028    2.9153    5.5066 Cl  0  0  0  0  0  0  0  0  0  0  0  0
   47.1028    2.9153    5.5066 Cl  0  0  0  0  0  0  0  0  0  0  0  0
   47.1587    3.0453    5.1348 O   0  0  0  0  0  0  0  0  0  0  0  0
   47.1587    3.0467    5.1353 O   0  0  0  0  0  0  0  0  0  0  0  0
   47.0567    2.1305    5.4408 H   0  0  0  0  0  0  0  0  0  0  0  0
   47.0931    3.5714    5.9447 H   0  0  0  0  0  0  0  0  0  0  0  0
   47.0933    3.5723    5.9433 H   0  0  0  0  0  0  0  0  0  0  0  0
   47.0565    2.1303    5.4424 H   0  0  0  0  0  0  0  0  0  0  0  0
   47.0561    2.1302    5.4451 H   0  0  0  0  0  0  0  0  0  0  0  0
   47.0937    3.5738    5.9411 H   0  0  0  0  0  0  0  0  0  0  0  0
   47.0929    3.5706    5.9459 H   0  0  0  0  0  0  0  0  0  0  0  0
   47.0569    2.1306    5.4394 H   0  0  0  0  0  0  0  0  0  0  0  0
   47.0928    3.5701    5.9468 H   0  0  0  0  0  0  0  0  0  0  0  0
   47.0570    2.1307    5.4383 H   0  0  0  0  0  0  0  0  0  0  0  0
   47.0574    2.1309    5.4355 H   0  0  0  0  0  0  0  0  0  0  0  0
   47.0924    3.5684    5.9491 H   0  0  0  0  0  0  0  0  0  0  0  0
  1 10  1  0
  1 11  1  0
  3 12  1  0
  3 13  1  0
  4 14  1  0
  4 15  1  0
  5 16  1  0
  5 17  1  0
  8 18  1  0
  8 19  1  0
  9 20  1  0
  9 21  1  0
M  CHG  3   2   2   6  -1   7  -1
M  END
> <Uni-Dock RESULT> 
ENERGY=   -4.616  LOWER_BOUND=    8.426  UPPER_BOUND=    8.426
INTER + INTRA:          -4.616
INTER:                  -4.616
INTRA:                   0.000
UNBOUND:                 0.000

$$$$

     RDKit          3D

 21 12  0  0  0  0  0  0  0  0999 V2000
   46.8913    4.2893    7.3028 O   0  0  0  0  0  0  0  0  0  0  0  0
   46.7577    3.9676    7.1106 Mg  0  0  0  0  0 15  0  0  0  0  0  0
   46.8919    4.2888    7.3032 O   0  0  0  0  0  0  0  0  0  0  0  0
   46.8928    4.2881    7.3037 O   0  0  0  0  0  0  0  0  0  0  0  0
   46.8907    4.2897    7.3025 O   0  0  0  0  0  0  0  0  0  0  0  0
   46.7577    3.9676    7.1106 Cl  0  0  0  0  0  0  0  0  0  0  0  0
   46.7577    3.9676    7.1106 Cl  0  0  0  0  0  0  0  0  0  0  0  0
   46.8904    4.2900    7.3023 O   0  0  0  0  0  0  0  0  0  0  0  0
   46.8893    4.2908    7.3016 O   0  0  0  0  0  0  0  0  0  0  0  0
   47.2358    3.3845    7.3426 H   0  0  0  0  0  0  0  0  0  0  0  0
   46.1461    4.2291    6.6864 H   0  0  0  0  0  0  0  0  0  0  0  0
   46.1463    4.2306    6.6870 H   0  0  0  0  0  0  0  0  0  0  0  0
   47.2350    3.3834    7.3416 H   0  0  0  0  0  0  0  0  0  0  0  0
   47.2336    3.3817    7.3401 H   0  0  0  0  0  0  0  0  0  0  0  0
   46.1467    4.2331    6.6880 H   0  0  0  0  0  0  0  0  0  0  0  0
   46.1459    4.2277    6.6859 H   0  0  0  0  0  0  0  0  0  0  0  0
   47.2365    3.3855    7.3434 H   0  0  0  0  0  0  0  0  0  0  0  0
   46.1457    4.2268    6.6855 H   0  0  0  0  0  0  0  0  0  0  0  0
   47.2371    3.3861    7.3440 H   0  0  0  0  0  0  0  0  0  0  0  0
   47.2385    3.3880    7.3457 H   0  0  0  0  0  0  0  0  0  0  0  0
   46.1453    4.2241    6.6844 H   0  0  0  0  0  0  0  0  0  0  0  0
  1 10  1  0
  1 11  1  0
  3 12  1  0
  3 13  1  0
  4 14  1  0
  4 15  1  0
  5 16  1  0
  5 17  1  0
  8 18  1  0
  8 19  1  0
  9 20  1  0
  9 21  1  0
M  CHG  3   2   2   6  -1   7  -1
M  END
> <Uni-Dock RESULT> 
ENERGY=   -4.551  LOWER_BOUND=    8.263  UPPER_BOUND=    8.264
INTER + INTRA:          -4.551
INTER:                  -4.551
INTRA:                   0.000
UNBOUND:                 0.000

$$$$
