
     RDKit          3D

 21 12  0  0  0  0  0  0  0  0999 V2000
   38.7218    3.4803    5.7660 O   0  0  0  0  0  0  0  0  0  0  0  0
   38.8180    3.8231    5.5886 Mg  0  0  0  0  0 15  0  0  0  0  0  0
   38.7217    3.4802    5.7656 O   0  0  0  0  0  0  0  0  0  0  0  0
   38.7218    3.4802    5.7658 O   0  0  0  0  0  0  0  0  0  0  0  0
   38.7221    3.4808    5.7671 O   0  0  0  0  0  0  0  0  0  0  0  0
   38.8180    3.8231    5.5886 Cl  0  0  0  0  0  0  0  0  0  0  0  0
   38.8180    3.8231    5.5886 Cl  0  0  0  0  0  0  0  0  0  0  0  0
   38.7223    3.4810    5.7675 O   0  0  0  0  0  0  0  0  0  0  0  0
   38.7219    3.4804    5.7663 O   0  0  0  0  0  0  0  0  0  0  0  0
   39.0574    4.2912    6.1769 H   0  0  0  0  0  0  0  0  0  0  0  0
   38.6749    3.6979    4.8229 H   0  0  0  0  0  0  0  0  0  0  0  0
   38.6752    3.6987    4.8227 H   0  0  0  0  0  0  0  0  0  0  0  0
   39.0572    4.2905    6.1775 H   0  0  0  0  0  0  0  0  0  0  0  0
   39.0573    4.2909    6.1772 H   0  0  0  0  0  0  0  0  0  0  0  0
   38.6750    3.6983    4.8228 H   0  0  0  0  0  0  0  0  0  0  0  0
   38.6742    3.6956    4.8234 H   0  0  0  0  0  0  0  0  0  0  0  0
   39.0578    4.2930    6.1754 H   0  0  0  0  0  0  0  0  0  0  0  0
   39.0580    4.2937    6.1746 H   0  0  0  0  0  0  0  0  0  0  0  0
   38.6739    3.6947    4.8237 H   0  0  0  0  0  0  0  0  0  0  0  0
   38.6747    3.6973    4.8231 H   0  0  0  0  0  0  0  0  0  0  0  0
   39.0575    4.2917    6.1765 H   0  0  0  0  0  0  0  0  0  0  0  0
  1 10  1  0
  1 11  1  0
  3 12  1  0
  3 13  1  0
  4 14  1  0
  4 15  1  0
  5 16  1  0
  5 17  1  0
  8 18  1  0
  8 19  1  0
  9 20  1  0
  9 21  1  0
M  CHG  3   2   2   6  -1   7  -1
M  END
> <Uni-Dock RESULT> 
ENERGY=   -6.296  LOWER_BOUND=    0.000  UPPER_BOUND=    0.000
INTER + INTRA:          -6.296
INTER:                  -6.296
INTRA:                   0.000
UNBOUND:                 0.000

$$$$

     RDKit          3D

 21 12  0  0  0  0  0  0  0  0999 V2000
   46.7229   -0.0922    7.7810 O   0  0  0  0  0  0  0  0  0  0  0  0
   46.9219    0.1821    7.5728 Mg  0  0  0  0  0 15  0  0  0  0  0  0
   46.7229   -0.0925    7.7807 O   0  0  0  0  0  0  0  0  0  0  0  0
   46.7229   -0.0924    7.7808 O   0  0  0  0  0  0  0  0  0  0  0  0
   46.7228   -0.0915    7.7819 O   0  0  0  0  0  0  0  0  0  0  0  0
   46.9219    0.1821    7.5728 Cl  0  0  0  0  0  0  0  0  0  0  0  0
   46.9219    0.1821    7.5728 Cl  0  0  0  0  0  0  0  0  0  0  0  0
   46.7228   -0.0912    7.7823 O   0  0  0  0  0  0  0  0  0  0  0  0
   46.7228   -0.0920    7.7812 O   0  0  0  0  0  0  0  0  0  0  0  0
   46.9958    0.7923    8.0674 H   0  0  0  0  0  0  0  0  0  0  0  0
   47.0471   -0.1537    6.8699 H   0  0  0  0  0  0  0  0  0  0  0  0
   47.0475   -0.1530    6.8696 H   0  0  0  0  0  0  0  0  0  0  0  0
   46.9954    0.7918    8.0680 H   0  0  0  0  0  0  0  0  0  0  0  0
   46.9956    0.7921    8.0677 H   0  0  0  0  0  0  0  0  0  0  0  0
   47.0473   -0.1534    6.8697 H   0  0  0  0  0  0  0  0  0  0  0  0
   47.0459   -0.1557    6.8706 H   0  0  0  0  0  0  0  0  0  0  0  0
   46.9970    0.7936    8.0657 H   0  0  0  0  0  0  0  0  0  0  0  0
   46.9975    0.7941    8.0650 H   0  0  0  0  0  0  0  0  0  0  0  0
   47.0454   -0.1566    6.8710 H   0  0  0  0  0  0  0  0  0  0  0  0
   47.0467   -0.1543    6.8702 H   0  0  0  0  0  0  0  0  0  0  0  0
   46.9961    0.7926    8.0669 H   0  0  0  0  0  0  0  0  0  0  0  0
  1 10  1  0
  1 11  1  0
  3 12  1  0
  3 13  1  0
  4 14  1  0
  4 15  1  0
  5 16  1  0
  5 17  1  0
  8 18  1  0
  8 19  1  0
  9 20  1  0
  9 21  1  0
M  CHG  3   2   2   6  -1   7  -1
M  END
> <Uni-Dock RESULT> 
ENERGY=   -6.105  LOWER_BOUND=    9.028  UPPER_BOUND=    9.028
INTER + INTRA:          -6.105
INTER:                  -6.105
INTRA:                   0.000
UNBOUND:                 0.000

$$$$

     RDKit          3D

 21 12  0  0  0  0  0  0  0  0999 V2000
   40.0078    5.1504    5.1921 O   0  0  0  0  0  0  0  0  0  0  0  0
   39.7883    4.8193    5.2116 Mg  0  0  0  0  0 15  0  0  0  0  0  0
   40.0077    5.1505    5.1924 O   0  0  0  0  0  0  0  0  0  0  0  0
   40.0077    5.1505    5.1922 O   0  0  0  0  0  0  0  0  0  0  0  0
   40.0082    5.1501    5.1910 O   0  0  0  0  0  0  0  0  0  0  0  0
   39.7883    4.8193    5.2116 Cl  0  0  0  0  0  0  0  0  0  0  0  0
   39.7883    4.8193    5.2116 Cl  0  0  0  0  0  0  0  0  0  0  0  0
   40.0084    5.1500    5.1905 O   0  0  0  0  0  0  0  0  0  0  0  0
   40.0079    5.1504    5.1918 O   0  0  0  0  0  0  0  0  0  0  0  0
   39.9411    4.4391    4.5374 H   0  0  0  0  0  0  0  0  0  0  0  0
   39.4159    4.8682    5.9055 H   0  0  0  0  0  0  0  0  0  0  0  0
   39.4155    4.8675    5.9054 H   0  0  0  0  0  0  0  0  0  0  0  0
   39.9417    4.4398    4.5372 H   0  0  0  0  0  0  0  0  0  0  0  0
   39.9414    4.4394    4.5373 H   0  0  0  0  0  0  0  0  0  0  0  0
   39.4157    4.8678    5.9054 H   0  0  0  0  0  0  0  0  0  0  0  0
   39.4170    4.8703    5.9059 H   0  0  0  0  0  0  0  0  0  0  0  0
   39.9396    4.4374    4.5380 H   0  0  0  0  0  0  0  0  0  0  0  0
   39.9390    4.4366    4.5383 H   0  0  0  0  0  0  0  0  0  0  0  0
   39.4174    4.8712    5.9061 H   0  0  0  0  0  0  0  0  0  0  0  0
   39.4162    4.8688    5.9056 H   0  0  0  0  0  0  0  0  0  0  0  0
   39.9407    4.4387    4.5376 H   0  0  0  0  0  0  0  0  0  0  0  0
  1 10  1  0
  1 11  1  0
  3 12  1  0
  3 13  1  0
  4 14  1  0
  4 15  1  0
  5 16  1  0
  5 17  1  0
  8 18  1  0
  8 19  1  0
  9 20  1  0
  9 21  1  0
M  CHG  3   2   2   6  -1   7  -1
M  END
> <Uni-Dock RESULT> 
ENERGY=   -5.499  LOWER_BOUND=    1.968  UPPER_BOUND=    1.968
INTER + INTRA:          -5.499
INTER:                  -5.499
INTRA:                   0.000
UNBOUND:                 0.000

$$$$

     RDKit          3D

 21 12  0  0  0  0  0  0  0  0999 V2000
   48.0602    1.5292    7.0720 O   0  0  0  0  0  0  0  0  0  0  0  0
   47.6795    1.4541    6.9847 Mg  0  0  0  0  0 15  0  0  0  0  0  0
   48.0602    1.5290    7.0724 O   0  0  0  0  0  0  0  0  0  0  0  0
   48.0602    1.5291    7.0722 O   0  0  0  0  0  0  0  0  0  0  0  0
   48.0603    1.5298    7.0710 O   0  0  0  0  0  0  0  0  0  0  0  0
   47.6795    1.4541    6.9847 Cl  0  0  0  0  0  0  0  0  0  0  0  0
   47.6795    1.4541    6.9847 Cl  0  0  0  0  0  0  0  0  0  0  0  0
   48.0604    1.5300    7.0706 O   0  0  0  0  0  0  0  0  0  0  0  0
   48.0603    1.5293    7.0718 O   0  0  0  0  0  0  0  0  0  0  0  0
   47.5615    1.8072    6.2891 H   0  0  0  0  0  0  0  0  0  0  0  0
   47.4166    1.0259    7.5931 H   0  0  0  0  0  0  0  0  0  0  0  0
   47.4158    1.0258    7.5927 H   0  0  0  0  0  0  0  0  0  0  0  0
   47.5624    1.8075    6.2892 H   0  0  0  0  0  0  0  0  0  0  0  0
   47.5619    1.8073    6.2891 H   0  0  0  0  0  0  0  0  0  0  0  0
   47.4162    1.0259    7.5929 H   0  0  0  0  0  0  0  0  0  0  0  0
   47.4188    1.0260    7.5941 H   0  0  0  0  0  0  0  0  0  0  0  0
   47.5592    1.8065    6.2891 H   0  0  0  0  0  0  0  0  0  0  0  0
   47.5582    1.8061    6.2892 H   0  0  0  0  0  0  0  0  0  0  0  0
   47.4197    1.0261    7.5945 H   0  0  0  0  0  0  0  0  0  0  0  0
   47.4172    1.0260    7.5933 H   0  0  0  0  0  0  0  0  0  0  0  0
   47.5609    1.8070    6.2892 H   0  0  0  0  0  0  0  0  0  0  0  0
  1 10  1  0
  1 11  1  0
  3 12  1  0
  3 13  1  0
  4 14  1  0
  4 15  1  0
  5 16  1  0
  5 17  1  0
  8 18  1  0
  8 19  1  0
  9 20  1  0
  9 21  1  0
M  CHG  3   2   2   6  -1   7  -1
M  END
> <Uni-Dock RESULT> 
ENERGY=   -5.365  LOWER_BOUND=    9.513  UPPER_BOUND=    9.513
INTER + INTRA:          -5.365
INTER:                  -5.365
INTRA:                   0.000
UNBOUND:                 0.000

$$$$

     RDKit          3D

 21 12  0  0  0  0  0  0  0  0999 V2000
   48.2375    1.9529    5.7562 O   0  0  0  0  0  0  0  0  0  0  0  0
   48.0494    2.2966    5.6873 Mg  0  0  0  0  0 15  0  0  0  0  0  0
   48.2374    1.9528    5.7558 O   0  0  0  0  0  0  0  0  0  0  0  0
   48.2375    1.9529    5.7560 O   0  0  0  0  0  0  0  0  0  0  0  0
   48.2380    1.9534    5.7572 O   0  0  0  0  0  0  0  0  0  0  0  0
   48.0494    2.2966    5.6873 Cl  0  0  0  0  0  0  0  0  0  0  0  0
   48.0494    2.2966    5.6873 Cl  0  0  0  0  0  0  0  0  0  0  0  0
   48.2382    1.9536    5.7576 O   0  0  0  0  0  0  0  0  0  0  0  0
   48.2377    1.9530    5.7564 O   0  0  0  0  0  0  0  0  0  0  0  0
   48.2317    2.7506    6.3064 H   0  0  0  0  0  0  0  0  0  0  0  0
   47.6791    2.1864    4.9994 H   0  0  0  0  0  0  0  0  0  0  0  0
   47.6787    2.1872    4.9995 H   0  0  0  0  0  0  0  0  0  0  0  0
   48.2322    2.7499    6.3067 H   0  0  0  0  0  0  0  0  0  0  0  0
   48.2319    2.7503    6.3065 H   0  0  0  0  0  0  0  0  0  0  0  0
   47.6789    2.1868    4.9995 H   0  0  0  0  0  0  0  0  0  0  0  0
   47.6800    2.1841    4.9993 H   0  0  0  0  0  0  0  0  0  0  0  0
   48.2304    2.7524    6.3054 H   0  0  0  0  0  0  0  0  0  0  0  0
   48.2298    2.7531    6.3050 H   0  0  0  0  0  0  0  0  0  0  0  0
   47.6804    2.1832    4.9993 H   0  0  0  0  0  0  0  0  0  0  0  0
   47.6793    2.1858    4.9995 H   0  0  0  0  0  0  0  0  0  0  0  0
   48.2313    2.7510    6.3061 H   0  0  0  0  0  0  0  0  0  0  0  0
  1 10  1  0
  1 11  1  0
  3 12  1  0
  3 13  1  0
  4 14  1  0
  4 15  1  0
  5 16  1  0
  5 17  1  0
  8 18  1  0
  8 19  1  0
  9 20  1  0
  9 21  1  0
M  CHG  3   2   2   6  -1   7  -1
M  END
> <Uni-Dock RESULT> 
ENERGY=   -5.287  LOWER_BOUND=    9.545  UPPER_BOUND=    9.545
INTER + INTRA:          -5.287
INTER:                  -5.287
INTRA:                   0.000
UNBOUND:                 0.000

$$$$

     RDKit          3D

 21 12  0  0  0  0  0  0  0  0999 V2000
   40.6416   12.0923   15.8691 O   0  0  0  0  0  0  0  0  0  0  0  0
   40.3677   12.3232   15.6963 Mg  0  0  0  0  0 15  0  0  0  0  0  0
   40.6417   12.0925   15.8694 O   0  0  0  0  0  0  0  0  0  0  0  0
   40.6416   12.0924   15.8692 O   0  0  0  0  0  0  0  0  0  0  0  0
   40.6415   12.0914   15.8682 O   0  0  0  0  0  0  0  0  0  0  0  0
   40.3677   12.3232   15.6963 Cl  0  0  0  0  0  0  0  0  0  0  0  0
   40.3677   12.3232   15.6963 Cl  0  0  0  0  0  0  0  0  0  0  0  0
   40.6414   12.0911   15.8679 O   0  0  0  0  0  0  0  0  0  0  0  0
   40.6416   12.0921   15.8689 O   0  0  0  0  0  0  0  0  0  0  0  0
   40.1301   11.9125   15.0659 H   0  0  0  0  0  0  0  0  0  0  0  0
   40.3312   12.9649   16.1539 H   0  0  0  0  0  0  0  0  0  0  0  0
   40.3306   12.9653   16.1534 H   0  0  0  0  0  0  0  0  0  0  0  0
   40.1307   11.9119   15.0661 H   0  0  0  0  0  0  0  0  0  0  0  0
   40.1304   11.9122   15.0660 H   0  0  0  0  0  0  0  0  0  0  0  0
   40.3309   12.9651   16.1537 H   0  0  0  0  0  0  0  0  0  0  0  0
   40.3329   12.9640   16.1554 H   0  0  0  0  0  0  0  0  0  0  0  0
   40.1286   11.9143   15.0653 H   0  0  0  0  0  0  0  0  0  0  0  0
   40.1280   11.9151   15.0651 H   0  0  0  0  0  0  0  0  0  0  0  0
   40.3336   12.9635   16.1560 H   0  0  0  0  0  0  0  0  0  0  0  0
   40.3317   12.9646   16.1543 H   0  0  0  0  0  0  0  0  0  0  0  0
   40.1297   11.9130   15.0658 H   0  0  0  0  0  0  0  0  0  0  0  0
  1 10  1  0
  1 11  1  0
  3 12  1  0
  3 13  1  0
  4 14  1  0
  4 15  1  0
  5 16  1  0
  5 17  1  0
  8 18  1  0
  8 19  1  0
  9 20  1  0
  9 21  1  0
M  CHG  3   2   2   6  -1   7  -1
M  END
> <Uni-Dock RESULT> 
ENERGY=   -5.083  LOWER_BOUND=   13.374  UPPER_BOUND=   13.374
INTER + INTRA:          -5.083
INTER:                  -5.083
INTRA:                   0.000
UNBOUND:                 0.000

$$$$

     RDKit          3D

 21 12  0  0  0  0  0  0  0  0999 V2000
   40.8097    1.8998   21.9641 O   0  0  0  0  0  0  0  0  0  0  0  0
   40.7857    1.8226   22.3535 Mg  0  0  0  0  0 15  0  0  0  0  0  0
   40.8101    1.8999   21.9641 O   0  0  0  0  0  0  0  0  0  0  0  0
   40.8099    1.8998   21.9641 O   0  0  0  0  0  0  0  0  0  0  0  0
   40.8085    1.8996   21.9639 O   0  0  0  0  0  0  0  0  0  0  0  0
   40.7857    1.8226   22.3535 Cl  0  0  0  0  0  0  0  0  0  0  0  0
   40.7857    1.8226   22.3535 Cl  0  0  0  0  0  0  0  0  0  0  0  0
   40.8080    1.8995   21.9639 O   0  0  0  0  0  0  0  0  0  0  0  0
   40.8094    1.8997   21.9640 O   0  0  0  0  0  0  0  0  0  0  0  0
   40.0248    1.6536   22.4763 H   0  0  0  0  0  0  0  0  0  0  0  0
   41.5225    1.9144   22.6204 H   0  0  0  0  0  0  0  0  0  0  0  0
   41.5222    1.9143   22.6212 H   0  0  0  0  0  0  0  0  0  0  0  0
   40.0247    1.6537   22.4754 H   0  0  0  0  0  0  0  0  0  0  0  0
   40.0248    1.6536   22.4759 H   0  0  0  0  0  0  0  0  0  0  0  0
   41.5223    1.9143   22.6208 H   0  0  0  0  0  0  0  0  0  0  0  0
   41.5232    1.9150   22.6181 H   0  0  0  0  0  0  0  0  0  0  0  0
   40.0253    1.6532   22.4786 H   0  0  0  0  0  0  0  0  0  0  0  0
   40.0255    1.6531   22.4796 H   0  0  0  0  0  0  0  0  0  0  0  0
   41.5235    1.9152   22.6171 H   0  0  0  0  0  0  0  0  0  0  0  0
   41.5226    1.9146   22.6197 H   0  0  0  0  0  0  0  0  0  0  0  0
   40.0250    1.6535   22.4769 H   0  0  0  0  0  0  0  0  0  0  0  0
  1 10  1  0
  1 11  1  0
  3 12  1  0
  3 13  1  0
  4 14  1  0
  4 15  1  0
  5 16  1  0
  5 17  1  0
  8 18  1  0
  8 19  1  0
  9 20  1  0
  9 21  1  0
M  CHG  3   2   2   6  -1   7  -1
M  END
> <Uni-Dock RESULT> 
ENERGY=   -4.771  LOWER_BOUND=   16.607  UPPER_BOUND=   16.607
INTER + INTRA:          -4.771
INTER:                  -4.771
INTRA:                   0.000
UNBOUND:                 0.000

$$$$

     RDKit          3D

 21 12  0  0  0  0  0  0  0  0999 V2000
   42.0335    5.9030   11.7586 O   0  0  0  0  0  0  0  0  0  0  0  0
   42.3354    5.6587   11.8447 Mg  0  0  0  0  0 15  0  0  0  0  0  0
   42.0337    5.9034   11.7587 O   0  0  0  0  0  0  0  0  0  0  0  0
   42.0336    5.9032   11.7586 O   0  0  0  0  0  0  0  0  0  0  0  0
   42.0328    5.9021   11.7585 O   0  0  0  0  0  0  0  0  0  0  0  0
   42.3354    5.6587   11.8447 Cl  0  0  0  0  0  0  0  0  0  0  0  0
   42.3354    5.6587   11.8447 Cl  0  0  0  0  0  0  0  0  0  0  0  0
   42.0325    5.9017   11.7584 O   0  0  0  0  0  0  0  0  0  0  0  0
   42.0333    5.9028   11.7586 O   0  0  0  0  0  0  0  0  0  0  0  0
   42.0268    4.9346   11.7908 H   0  0  0  0  0  0  0  0  0  0  0  0
   42.9459    6.1385   11.9847 H   0  0  0  0  0  0  0  0  0  0  0  0
   42.9464    6.1378   11.9849 H   0  0  0  0  0  0  0  0  0  0  0  0
   42.0260    4.9350   11.7906 H   0  0  0  0  0  0  0  0  0  0  0  0
   42.0265    4.9347   11.7907 H   0  0  0  0  0  0  0  0  0  0  0  0
   42.9462    6.1382   11.9848 H   0  0  0  0  0  0  0  0  0  0  0  0
   42.9445    6.1404   11.9843 H   0  0  0  0  0  0  0  0  0  0  0  0
   42.0290    4.9336   11.7914 H   0  0  0  0  0  0  0  0  0  0  0  0
   42.0299    4.9332   11.7916 H   0  0  0  0  0  0  0  0  0  0  0  0
   42.9438    6.1412   11.9841 H   0  0  0  0  0  0  0  0  0  0  0  0
   42.9454    6.1390   11.9846 H   0  0  0  0  0  0  0  0  0  0  0  0
   42.0274    4.9344   11.7910 H   0  0  0  0  0  0  0  0  0  0  0  0
  1 10  1  0
  1 11  1  0
  3 12  1  0
  3 13  1  0
  4 14  1  0
  4 15  1  0
  5 16  1  0
  5 17  1  0
  8 18  1  0
  8 19  1  0
  9 20  1  0
  9 21  1  0
M  CHG  3   2   2   6  -1   7  -1
M  END
> <Uni-Dock RESULT> 
ENERGY=   -4.647  LOWER_BOUND=    7.311  UPPER_BOUND=    7.311
INTER + INTRA:          -4.647
INTER:                  -4.647
INTRA:                   0.000
UNBOUND:                 0.000

$$$$

     RDKit          3D

 21 12  0  0  0  0  0  0  0  0999 V2000
   42.7538    5.2313   13.2156 O   0  0  0  0  0  0  0  0  0  0  0  0
   42.8263    5.3174   12.8341 Mg  0  0  0  0  0 15  0  0  0  0  0  0
   42.7542    5.2312   13.2157 O   0  0  0  0  0  0  0  0  0  0  0  0
   42.7540    5.2312   13.2157 O   0  0  0  0  0  0  0  0  0  0  0  0
   42.7527    5.2314   13.2154 O   0  0  0  0  0  0  0  0  0  0  0  0
   42.8263    5.3174   12.8341 Cl  0  0  0  0  0  0  0  0  0  0  0  0
   42.8263    5.3174   12.8341 Cl  0  0  0  0  0  0  0  0  0  0  0  0
   42.7522    5.2314   13.2153 O   0  0  0  0  0  0  0  0  0  0  0  0
   42.7535    5.2313   13.2156 O   0  0  0  0  0  0  0  0  0  0  0  0
   42.1126    5.4239   12.5151 H   0  0  0  0  0  0  0  0  0  0  0  0
   43.6126    5.2970   12.7714 H   0  0  0  0  0  0  0  0  0  0  0  0
   43.6125    5.2972   12.7706 H   0  0  0  0  0  0  0  0  0  0  0  0
   42.1122    5.4237   12.5159 H   0  0  0  0  0  0  0  0  0  0  0  0
   42.1124    5.4238   12.5155 H   0  0  0  0  0  0  0  0  0  0  0  0
   43.6125    5.2971   12.7710 H   0  0  0  0  0  0  0  0  0  0  0  0
   43.6127    5.2964   12.7738 H   0  0  0  0  0  0  0  0  0  0  0  0
   42.1136    5.4244   12.5130 H   0  0  0  0  0  0  0  0  0  0  0  0
   42.1141    5.4246   12.5121 H   0  0  0  0  0  0  0  0  0  0  0  0
   43.6127    5.2962   12.7748 H   0  0  0  0  0  0  0  0  0  0  0  0
   43.6125    5.2968   12.7721 H   0  0  0  0  0  0  0  0  0  0  0  0
   42.1129    5.4240   12.5146 H   0  0  0  0  0  0  0  0  0  0  0  0
  1 10  1  0
  1 11  1  0
  3 12  1  0
  3 13  1  0
  4 14  1  0
  4 15  1  0
  5 16  1  0
  5 17  1  0
  8 18  1  0
  8 19  1  0
  9 20  1  0
  9 21  1  0
M  CHG  3   2   2   6  -1   7  -1
M  END
> <Uni-Dock RESULT> 
ENERGY=   -4.338  LOWER_BOUND=    8.571  UPPER_BOUND=    8.572
INTER + INTRA:          -4.338
INTER:                  -4.338
INTRA:                   0.000
UNBOUND:                 0.000

$$$$
