
     RDKit          3D

 21 12  0  0  0  0  0  0  0  0999 V2000
   38.7229    3.4799    5.7677 O   0  0  0  0  0  0  0  0  0  0  0  0
   38.8158    3.8234    5.5900 Mg  0  0  0  0  0 15  0  0  0  0  0  0
   38.7231    3.4802    5.7684 O   0  0  0  0  0  0  0  0  0  0  0  0
   38.7222    3.4788    5.7653 O   0  0  0  0  0  0  0  0  0  0  0  0
   38.7220    3.4786    5.7649 O   0  0  0  0  0  0  0  0  0  0  0  0
   38.8158    3.8234    5.5900 Cl  0  0  0  0  0  0  0  0  0  0  0  0
   38.8158    3.8234    5.5900 Cl  0  0  0  0  0  0  0  0  0  0  0  0
   38.7230    3.4801    5.7683 O   0  0  0  0  0  0  0  0  0  0  0  0
   38.7234    3.4808    5.7697 O   0  0  0  0  0  0  0  0  0  0  0  0
   38.6679    3.6980    4.8252 H   0  0  0  0  0  0  0  0  0  0  0  0
   39.0567    4.2923    6.1769 H   0  0  0  0  0  0  0  0  0  0  0  0
   39.0569    4.2935    6.1758 H   0  0  0  0  0  0  0  0  0  0  0  0
   38.6674    3.6965    4.8255 H   0  0  0  0  0  0  0  0  0  0  0  0
   38.6694    3.7030    4.8241 H   0  0  0  0  0  0  0  0  0  0  0  0
   39.0558    4.2884    6.1804 H   0  0  0  0  0  0  0  0  0  0  0  0
   39.0556    4.2876    6.1811 H   0  0  0  0  0  0  0  0  0  0  0  0
   38.6697    3.7040    4.8239 H   0  0  0  0  0  0  0  0  0  0  0  0
   39.0569    4.2932    6.1762 H   0  0  0  0  0  0  0  0  0  0  0  0
   38.6675    3.6970    4.8254 H   0  0  0  0  0  0  0  0  0  0  0  0
   38.6666    3.6939    4.8261 H   0  0  0  0  0  0  0  0  0  0  0  0
   39.0574    4.2956    6.1741 H   0  0  0  0  0  0  0  0  0  0  0  0
  1 10  1  0
  1 11  1  0
  3 12  1  0
  3 13  1  0
  4 14  1  0
  4 15  1  0
  5 16  1  0
  5 17  1  0
  8 18  1  0
  8 19  1  0
  9 20  1  0
  9 21  1  0
M  CHG  3   2   2   6  -1   7  -1
M  END
> <Uni-Dock RESULT> 
ENERGY=   -6.290  LOWER_BOUND=    0.000  UPPER_BOUND=    0.000
INTER + INTRA:          -6.290
INTER:                  -6.290
INTRA:                   0.000
UNBOUND:                 0.000

$$$$

     RDKit          3D

 21 12  0  0  0  0  0  0  0  0999 V2000
   46.7459   -0.2400    7.7527 O   0  0  0  0  0  0  0  0  0  0  0  0
   46.8127    0.1339    7.6344 Mg  0  0  0  0  0 15  0  0  0  0  0  0
   46.7456   -0.2402    7.7519 O   0  0  0  0  0  0  0  0  0  0  0  0
   46.7466   -0.2393    7.7552 O   0  0  0  0  0  0  0  0  0  0  0  0
   46.7468   -0.2392    7.7557 O   0  0  0  0  0  0  0  0  0  0  0  0
   46.8127    0.1339    7.6344 Cl  0  0  0  0  0  0  0  0  0  0  0  0
   46.8127    0.1339    7.6344 Cl  0  0  0  0  0  0  0  0  0  0  0  0
   46.7457   -0.2401    7.7521 O   0  0  0  0  0  0  0  0  0  0  0  0
   46.7452   -0.2405    7.7506 O   0  0  0  0  0  0  0  0  0  0  0  0
   47.0643    0.5058    8.2831 H   0  0  0  0  0  0  0  0  0  0  0  0
   46.6278    0.1359    6.8675 H   0  0  0  0  0  0  0  0  0  0  0  0
   46.6282    0.1375    6.8674 H   0  0  0  0  0  0  0  0  0  0  0  0
   47.0642    0.5044    8.2840 H   0  0  0  0  0  0  0  0  0  0  0  0
   47.0648    0.5103    8.2803 H   0  0  0  0  0  0  0  0  0  0  0  0
   46.6266    0.1308    6.8677 H   0  0  0  0  0  0  0  0  0  0  0  0
   46.6263    0.1297    6.8678 H   0  0  0  0  0  0  0  0  0  0  0  0
   47.0649    0.5112    8.2798 H   0  0  0  0  0  0  0  0  0  0  0  0
   46.6281    0.1370    6.8673 H   0  0  0  0  0  0  0  0  0  0  0  0
   47.0642    0.5049    8.2837 H   0  0  0  0  0  0  0  0  0  0  0  0
   47.0639    0.5021    8.2854 H   0  0  0  0  0  0  0  0  0  0  0  0
   46.6288    0.1402    6.8671 H   0  0  0  0  0  0  0  0  0  0  0  0
  1 10  1  0
  1 11  1  0
  3 12  1  0
  3 13  1  0
  4 14  1  0
  4 15  1  0
  5 16  1  0
  5 17  1  0
  8 18  1  0
  8 19  1  0
  9 20  1  0
  9 21  1  0
M  CHG  3   2   2   6  -1   7  -1
M  END
> <Uni-Dock RESULT> 
ENERGY=   -6.172  LOWER_BOUND=    9.056  UPPER_BOUND=    9.056
INTER + INTRA:          -6.172
INTER:                  -6.172
INTRA:                   0.000
UNBOUND:                 0.000

$$$$

     RDKit          3D

 21 12  0  0  0  0  0  0  0  0999 V2000
   48.0603    1.5318    7.0725 O   0  0  0  0  0  0  0  0  0  0  0  0
   47.6826    1.4516    6.9768 Mg  0  0  0  0  0 15  0  0  0  0  0  0
   48.0601    1.5325    7.0729 O   0  0  0  0  0  0  0  0  0  0  0  0
   48.0611    1.5296    7.0711 O   0  0  0  0  0  0  0  0  0  0  0  0
   48.0613    1.5292    7.0709 O   0  0  0  0  0  0  0  0  0  0  0  0
   47.6826    1.4516    6.9768 Cl  0  0  0  0  0  0  0  0  0  0  0  0
   47.6826    1.4516    6.9768 Cl  0  0  0  0  0  0  0  0  0  0  0  0
   48.0601    1.5323    7.0728 O   0  0  0  0  0  0  0  0  0  0  0  0
   48.0597    1.5336    7.0736 O   0  0  0  0  0  0  0  0  0  0  0  0
   47.7227    0.7932    6.5438 H   0  0  0  0  0  0  0  0  0  0  0  0
   47.2649    2.0296    7.3140 H   0  0  0  0  0  0  0  0  0  0  0  0
   47.2635    2.0290    7.3134 H   0  0  0  0  0  0  0  0  0  0  0  0
   47.7243    0.7932    6.5440 H   0  0  0  0  0  0  0  0  0  0  0  0
   47.7174    0.7933    6.5433 H   0  0  0  0  0  0  0  0  0  0  0  0
   47.2693    2.0317    7.3159 H   0  0  0  0  0  0  0  0  0  0  0  0
   47.2703    2.0322    7.3163 H   0  0  0  0  0  0  0  0  0  0  0  0
   47.7164    0.7933    6.5432 H   0  0  0  0  0  0  0  0  0  0  0  0
   47.2639    2.0292    7.3137 H   0  0  0  0  0  0  0  0  0  0  0  0
   47.7238    0.7932    6.5439 H   0  0  0  0  0  0  0  0  0  0  0  0
   47.7271    0.7932    6.5443 H   0  0  0  0  0  0  0  0  0  0  0  0
   47.2611    2.0279    7.3125 H   0  0  0  0  0  0  0  0  0  0  0  0
  1 10  1  0
  1 11  1  0
  3 12  1  0
  3 13  1  0
  4 14  1  0
  4 15  1  0
  5 16  1  0
  5 17  1  0
  8 18  1  0
  8 19  1  0
  9 20  1  0
  9 21  1  0
M  CHG  3   2   2   6  -1   7  -1
M  END
> <Uni-Dock RESULT> 
ENERGY=   -5.365  LOWER_BOUND=    9.514  UPPER_BOUND=    9.514
INTER + INTRA:          -5.365
INTER:                  -5.365
INTRA:                   0.000
UNBOUND:                 0.000

$$$$

     RDKit          3D

 21 12  0  0  0  0  0  0  0  0999 V2000
   40.6413   12.0918   15.8687 O   0  0  0  0  0  0  0  0  0  0  0  0
   40.3676   12.3233   15.6963 Mg  0  0  0  0  0 15  0  0  0  0  0  0
   40.6409   12.0911   15.8684 O   0  0  0  0  0  0  0  0  0  0  0  0
   40.6427   12.0939   15.8695 O   0  0  0  0  0  0  0  0  0  0  0  0
   40.6430   12.0943   15.8696 O   0  0  0  0  0  0  0  0  0  0  0  0
   40.3676   12.3233   15.6963 Cl  0  0  0  0  0  0  0  0  0  0  0  0
   40.3676   12.3233   15.6963 Cl  0  0  0  0  0  0  0  0  0  0  0  0
   40.6410   12.0913   15.8685 O   0  0  0  0  0  0  0  0  0  0  0  0
   40.6402   12.0900   15.8680 O   0  0  0  0  0  0  0  0  0  0  0  0
   40.6145   13.0598   15.8344 H   0  0  0  0  0  0  0  0  0  0  0  0
   39.8470   11.8183   15.3858 H   0  0  0  0  0  0  0  0  0  0  0  0
   39.8461   11.8196   15.3853 H   0  0  0  0  0  0  0  0  0  0  0  0
   40.6158   13.0592   15.8352 H   0  0  0  0  0  0  0  0  0  0  0  0
   40.6103   13.0617   15.8318 H   0  0  0  0  0  0  0  0  0  0  0  0
   39.8499   11.8142   15.3877 H   0  0  0  0  0  0  0  0  0  0  0  0
   39.8505   11.8134   15.3880 H   0  0  0  0  0  0  0  0  0  0  0  0
   40.6094   13.0620   15.8312 H   0  0  0  0  0  0  0  0  0  0  0  0
   39.8464   11.8191   15.3854 H   0  0  0  0  0  0  0  0  0  0  0  0
   40.6154   13.0594   15.8349 H   0  0  0  0  0  0  0  0  0  0  0  0
   40.6180   13.0582   15.8366 H   0  0  0  0  0  0  0  0  0  0  0  0
   39.8446   11.8216   15.3843 H   0  0  0  0  0  0  0  0  0  0  0  0
  1 10  1  0
  1 11  1  0
  3 12  1  0
  3 13  1  0
  4 14  1  0
  4 15  1  0
  5 16  1  0
  5 17  1  0
  8 18  1  0
  8 19  1  0
  9 20  1  0
  9 21  1  0
M  CHG  3   2   2   6  -1   7  -1
M  END
> <Uni-Dock RESULT> 
ENERGY=   -5.083  LOWER_BOUND=   13.372  UPPER_BOUND=   13.374
INTER + INTRA:          -5.083
INTER:                  -5.083
INTRA:                   0.000
UNBOUND:                 0.000

$$$$

     RDKit          3D

 21 12  0  0  0  0  0  0  0  0999 V2000
   40.8072    1.8955   21.9636 O   0  0  0  0  0  0  0  0  0  0  0  0
   40.7841    1.8189   22.3533 Mg  0  0  0  0  0 15  0  0  0  0  0  0
   40.8075    1.8948   21.9635 O   0  0  0  0  0  0  0  0  0  0  0  0
   40.8063    1.8980   21.9640 O   0  0  0  0  0  0  0  0  0  0  0  0
   40.8061    1.8984   21.9641 O   0  0  0  0  0  0  0  0  0  0  0  0
   40.7841    1.8189   22.3533 Cl  0  0  0  0  0  0  0  0  0  0  0  0
   40.7841    1.8189   22.3533 Cl  0  0  0  0  0  0  0  0  0  0  0  0
   40.8075    1.8949   21.9635 O   0  0  0  0  0  0  0  0  0  0  0  0
   40.8080    1.8935   21.9632 O   0  0  0  0  0  0  0  0  0  0  0  0
   40.4971    2.4823   22.6696 H   0  0  0  0  0  0  0  0  0  0  0  0
   41.0479    1.0791   22.4266 H   0  0  0  0  0  0  0  0  0  0  0  0
   41.0477    1.0792   22.4283 H   0  0  0  0  0  0  0  0  0  0  0  0
   40.4970    2.4830   22.6681 H   0  0  0  0  0  0  0  0  0  0  0  0
   40.4973    2.4801   22.6744 H   0  0  0  0  0  0  0  0  0  0  0  0
   41.0487    1.0788   22.4214 H   0  0  0  0  0  0  0  0  0  0  0  0
   41.0489    1.0788   22.4203 H   0  0  0  0  0  0  0  0  0  0  0  0
   40.4973    2.4796   22.6753 H   0  0  0  0  0  0  0  0  0  0  0  0
   41.0478    1.0791   22.4277 H   0  0  0  0  0  0  0  0  0  0  0  0
   40.4970    2.4828   22.6686 H   0  0  0  0  0  0  0  0  0  0  0  0
   40.4969    2.4841   22.6656 H   0  0  0  0  0  0  0  0  0  0  0  0
   41.0473    1.0792   22.4310 H   0  0  0  0  0  0  0  0  0  0  0  0
  1 10  1  0
  1 11  1  0
  3 12  1  0
  3 13  1  0
  4 14  1  0
  4 15  1  0
  5 16  1  0
  5 17  1  0
  8 18  1  0
  8 19  1  0
  9 20  1  0
  9 21  1  0
M  CHG  3   2   2   6  -1   7  -1
M  END
> <Uni-Dock RESULT> 
ENERGY=   -4.770  LOWER_BOUND=   16.606  UPPER_BOUND=   16.606
INTER + INTRA:          -4.770
INTER:                  -4.770
INTRA:                   0.000
UNBOUND:                 0.000

$$$$

     RDKit          3D

 21 12  0  0  0  0  0  0  0  0999 V2000
   46.8908    4.2902    7.3032 O   0  0  0  0  0  0  0  0  0  0  0  0
   46.7578    3.9683    7.1111 Mg  0  0  0  0  0 15  0  0  0  0  0  0
   46.8901    4.2906    7.3031 O   0  0  0  0  0  0  0  0  0  0  0  0
   46.8931    4.2889    7.3038 O   0  0  0  0  0  0  0  0  0  0  0  0
   46.8936    4.2887    7.3039 O   0  0  0  0  0  0  0  0  0  0  0  0
   46.7578    3.9683    7.1111 Cl  0  0  0  0  0  0  0  0  0  0  0  0
   46.7578    3.9683    7.1111 Cl  0  0  0  0  0  0  0  0  0  0  0  0
   46.8903    4.2905    7.3031 O   0  0  0  0  0  0  0  0  0  0  0  0
   46.8889    4.2912    7.3028 O   0  0  0  0  0  0  0  0  0  0  0  0
   47.3439    3.4436    7.1724 H   0  0  0  0  0  0  0  0  0  0  0  0
   46.0387    4.1709    6.8578 H   0  0  0  0  0  0  0  0  0  0  0  0
   46.0385    4.1694    6.8571 H   0  0  0  0  0  0  0  0  0  0  0  0
   47.3448    3.4448    7.1733 H   0  0  0  0  0  0  0  0  0  0  0  0
   47.3410    3.4402    7.1697 H   0  0  0  0  0  0  0  0  0  0  0  0
   46.0392    4.1756    6.8600 H   0  0  0  0  0  0  0  0  0  0  0  0
   46.0393    4.1767    6.8604 H   0  0  0  0  0  0  0  0  0  0  0  0
   47.3404    3.4395    7.1691 H   0  0  0  0  0  0  0  0  0  0  0  0
   46.0385    4.1699    6.8573 H   0  0  0  0  0  0  0  0  0  0  0  0
   47.3445    3.4444    7.1730 H   0  0  0  0  0  0  0  0  0  0  0  0
   47.3463    3.4466    7.1747 H   0  0  0  0  0  0  0  0  0  0  0  0
   46.0381    4.1669    6.8559 H   0  0  0  0  0  0  0  0  0  0  0  0
  1 10  1  0
  1 11  1  0
  3 12  1  0
  3 13  1  0
  4 14  1  0
  4 15  1  0
  5 16  1  0
  5 17  1  0
  8 18  1  0
  8 19  1  0
  9 20  1  0
  9 21  1  0
M  CHG  3   2   2   6  -1   7  -1
M  END
> <Uni-Dock RESULT> 
ENERGY=   -4.552  LOWER_BOUND=    8.263  UPPER_BOUND=    8.264
INTER + INTRA:          -4.552
INTER:                  -4.552
INTRA:                   0.000
UNBOUND:                 0.000

$$$$

     RDKit          3D

 21 12  0  0  0  0  0  0  0  0999 V2000
   46.8216    2.7556   17.6596 O   0  0  0  0  0  0  0  0  0  0  0  0
   47.0909    3.0243   17.5431 Mg  0  0  0  0  0 15  0  0  0  0  0  0
   46.8217    2.7553   17.6589 O   0  0  0  0  0  0  0  0  0  0  0  0
   46.8216    2.7567   17.6621 O   0  0  0  0  0  0  0  0  0  0  0  0
   46.8216    2.7569   17.6625 O   0  0  0  0  0  0  0  0  0  0  0  0
   47.0909    3.0243   17.5431 Cl  0  0  0  0  0  0  0  0  0  0  0  0
   47.0909    3.0243   17.5431 Cl  0  0  0  0  0  0  0  0  0  0  0  0
   46.8217    2.7554   17.6591 O   0  0  0  0  0  0  0  0  0  0  0  0
   46.8217    2.7547   17.6576 O   0  0  0  0  0  0  0  0  0  0  0  0
   47.2177    3.4690   18.1824 H   0  0  0  0  0  0  0  0  0  0  0  0
   47.2334    2.8483   16.7874 H   0  0  0  0  0  0  0  0  0  0  0  0
   47.2344    2.8496   16.7873 H   0  0  0  0  0  0  0  0  0  0  0  0
   47.2166    3.4681   18.1832 H   0  0  0  0  0  0  0  0  0  0  0  0
   47.2211    3.4719   18.1797 H   0  0  0  0  0  0  0  0  0  0  0  0
   47.2299    2.8443   16.7877 H   0  0  0  0  0  0  0  0  0  0  0  0
   47.2292    2.8435   16.7877 H   0  0  0  0  0  0  0  0  0  0  0  0
   47.2218    3.4724   18.1791 H   0  0  0  0  0  0  0  0  0  0  0  0
   47.2341    2.8491   16.7873 H   0  0  0  0  0  0  0  0  0  0  0  0
   47.2169    3.4684   18.1830 H   0  0  0  0  0  0  0  0  0  0  0  0
   47.2147    3.4665   18.1846 H   0  0  0  0  0  0  0  0  0  0  0  0
   47.2363    2.8516   16.7871 H   0  0  0  0  0  0  0  0  0  0  0  0
  1 10  1  0
  1 11  1  0
  3 12  1  0
  3 13  1  0
  4 14  1  0
  4 15  1  0
  5 16  1  0
  5 17  1  0
  8 18  1  0
  8 19  1  0
  9 20  1  0
  9 21  1  0
M  CHG  3   2   2   6  -1   7  -1
M  END
> <Uni-Dock RESULT> 
ENERGY=   -4.260  LOWER_BOUND=   14.457  UPPER_BOUND=   14.458
INTER + INTRA:          -4.260
INTER:                  -4.260
INTRA:                   0.000
UNBOUND:                 0.000

$$$$

     RDKit          3D

 21 12  0  0  0  0  0  0  0  0999 V2000
   44.1682    4.2659    8.5126 O   0  0  0  0  0  0  0  0  0  0  0  0
   44.5492    4.1534    8.5331 Mg  0  0  0  0  0 15  0  0  0  0  0  0
   44.1684    4.2666    8.5130 O   0  0  0  0  0  0  0  0  0  0  0  0
   44.1676    4.2637    8.5113 O   0  0  0  0  0  0  0  0  0  0  0  0
   44.1675    4.2633    8.5110 O   0  0  0  0  0  0  0  0  0  0  0  0
   44.5492    4.1534    8.5331 Cl  0  0  0  0  0  0  0  0  0  0  0  0
   44.5492    4.1534    8.5331 Cl  0  0  0  0  0  0  0  0  0  0  0  0
   44.1683    4.2664    8.5129 O   0  0  0  0  0  0  0  0  0  0  0  0
   44.1687    4.2678    8.5137 O   0  0  0  0  0  0  0  0  0  0  0  0
   44.5726    3.4608    8.1559 H   0  0  0  0  0  0  0  0  0  0  0  0
   44.9068    4.7335    8.9307 H   0  0  0  0  0  0  0  0  0  0  0  0
   44.9082    4.7327    8.9306 H   0  0  0  0  0  0  0  0  0  0  0  0
   44.5710    3.4610    8.1557 H   0  0  0  0  0  0  0  0  0  0  0  0
   44.5778    3.4605    8.1569 H   0  0  0  0  0  0  0  0  0  0  0  0
   44.9022    4.7360    8.9311 H   0  0  0  0  0  0  0  0  0  0  0  0
   44.9012    4.7366    8.9312 H   0  0  0  0  0  0  0  0  0  0  0  0
   44.5789    3.4605    8.1571 H   0  0  0  0  0  0  0  0  0  0  0  0
   44.9078    4.7330    8.9306 H   0  0  0  0  0  0  0  0  0  0  0  0
   44.5715    3.4609    8.1557 H   0  0  0  0  0  0  0  0  0  0  0  0
   44.5683    3.4611    8.1552 H   0  0  0  0  0  0  0  0  0  0  0  0
   44.9107    4.7314    8.9304 H   0  0  0  0  0  0  0  0  0  0  0  0
  1 10  1  0
  1 11  1  0
  3 12  1  0
  3 13  1  0
  4 14  1  0
  4 15  1  0
  5 16  1  0
  5 17  1  0
  8 18  1  0
  8 19  1  0
  9 20  1  0
  9 21  1  0
M  CHG  3   2   2   6  -1   7  -1
M  END
> <Uni-Dock RESULT> 
ENERGY=   -4.048  LOWER_BOUND=    6.251  UPPER_BOUND=    6.252
INTER + INTRA:          -4.048
INTER:                  -4.048
INTRA:                   0.000
UNBOUND:                 0.000

$$$$

     RDKit          3D

 21 12  0  0  0  0  0  0  0  0999 V2000
   43.1417    2.1802   11.6887 O   0  0  0  0  0  0  0  0  0  0  0  0
   43.2984    2.5448   11.6610 Mg  0  0  0  0  0 15  0  0  0  0  0  0
   43.1410    2.1805   11.6886 O   0  0  0  0  0  0  0  0  0  0  0  0
   43.1442    2.1792   11.6893 O   0  0  0  0  0  0  0  0  0  0  0  0
   43.1446    2.1790   11.6894 O   0  0  0  0  0  0  0  0  0  0  0  0
   43.2984    2.5448   11.6610 Cl  0  0  0  0  0  0  0  0  0  0  0  0
   43.2984    2.5448   11.6610 Cl  0  0  0  0  0  0  0  0  0  0  0  0
   43.1412    2.1805   11.6886 O   0  0  0  0  0  0  0  0  0  0  0  0
   43.1397    2.1811   11.6883 O   0  0  0  0  0  0  0  0  0  0  0  0
   44.0692    2.4407   11.7938 H   0  0  0  0  0  0  0  0  0  0  0  0
   42.6844    3.0135   11.5004 H   0  0  0  0  0  0  0  0  0  0  0  0
   42.6855    3.0148   11.5003 H   0  0  0  0  0  0  0  0  0  0  0  0
   44.0689    2.4391   11.7940 H   0  0  0  0  0  0  0  0  0  0  0  0
   44.0699    2.4459   11.7932 H   0  0  0  0  0  0  0  0  0  0  0  0
   42.6812    3.0093   11.5005 H   0  0  0  0  0  0  0  0  0  0  0  0
   42.6805    3.0084   11.5005 H   0  0  0  0  0  0  0  0  0  0  0  0
   44.0701    2.4470   11.7931 H   0  0  0  0  0  0  0  0  0  0  0  0
   42.6851    3.0144   11.5003 H   0  0  0  0  0  0  0  0  0  0  0  0
   44.0690    2.4396   11.7939 H   0  0  0  0  0  0  0  0  0  0  0  0
   44.0684    2.4364   11.7943 H   0  0  0  0  0  0  0  0  0  0  0  0
   42.6871    3.0170   11.5003 H   0  0  0  0  0  0  0  0  0  0  0  0
  1 10  1  0
  1 11  1  0
  3 12  1  0
  3 13  1  0
  4 14  1  0
  4 15  1  0
  5 16  1  0
  5 17  1  0
  8 18  1  0
  8 19  1  0
  9 20  1  0
  9 21  1  0
M  CHG  3   2   2   6  -1   7  -1
M  END
> <Uni-Dock RESULT> 
ENERGY=   -3.986  LOWER_BOUND=    7.552  UPPER_BOUND=    7.553
INTER + INTRA:          -3.986
INTER:                  -3.986
INTRA:                   0.000
UNBOUND:                 0.000

$$$$
