
     RDKit          3D

 21 12  0  0  0  0  0  0  0  0999 V2000
   46.7470   -0.2368    7.7520 O   0  0  0  0  0  0  0  0  0  0  0  0
   46.8146    0.1365    7.6322 Mg  0  0  0  0  0 15  0  0  0  0  0  0
   46.7478   -0.2352    7.7573 O   0  0  0  0  0  0  0  0  0  0  0  0
   46.7463   -0.2380    7.7478 O   0  0  0  0  0  0  0  0  0  0  0  0
   46.7445   -0.2410    7.7365 O   0  0  0  0  0  0  0  0  0  0  0  0
   46.8146    0.1365    7.6322 Cl  0  0  0  0  0  0  0  0  0  0  0  0
   46.8146    0.1365    7.6322 Cl  0  0  0  0  0  0  0  0  0  0  0  0
   46.7468   -0.2371    7.7509 O   0  0  0  0  0  0  0  0  0  0  0  0
   46.7471   -0.2365    7.7531 O   0  0  0  0  0  0  0  0  0  0  0  0
   46.9683    0.5336    8.2964 H   0  0  0  0  0  0  0  0  0  0  0  0
   46.7286    0.1127    6.8484 H   0  0  0  0  0  0  0  0  0  0  0  0
   46.7263    0.1018    6.8490 H   0  0  0  0  0  0  0  0  0  0  0  0
   46.9696    0.5429    8.2904 H   0  0  0  0  0  0  0  0  0  0  0  0
   46.7304    0.1213    6.8480 H   0  0  0  0  0  0  0  0  0  0  0  0
   46.9672    0.5262    8.3010 H   0  0  0  0  0  0  0  0  0  0  0  0
   46.7352    0.1441    6.8474 H   0  0  0  0  0  0  0  0  0  0  0  0
   46.9641    0.5063    8.3129 H   0  0  0  0  0  0  0  0  0  0  0  0
   46.9680    0.5319    8.2975 H   0  0  0  0  0  0  0  0  0  0  0  0
   46.7290    0.1147    6.8482 H   0  0  0  0  0  0  0  0  0  0  0  0
   46.9686    0.5356    8.2951 H   0  0  0  0  0  0  0  0  0  0  0  0
   46.7281    0.1103    6.8485 H   0  0  0  0  0  0  0  0  0  0  0  0
  1 10  1  0
  1 11  1  0
  3 12  1  0
  3 13  1  0
  4 14  1  0
  4 15  1  0
  5 16  1  0
  5 17  1  0
  8 18  1  0
  8 19  1  0
  9 20  1  0
  9 21  1  0
M  CHG  3   2   2   6  -1   7  -1
M  END
> <Uni-Dock RESULT> 
ENERGY=   -6.176  LOWER_BOUND=    0.000  UPPER_BOUND=    0.000
INTER + INTRA:          -6.176
INTER:                  -6.176
INTRA:                   0.000
UNBOUND:                 0.000

$$$$

     RDKit          3D

 21 12  0  0  0  0  0  0  0  0999 V2000
   38.6513    3.4989    5.6569 O   0  0  0  0  0  0  0  0  0  0  0  0
   38.8358    3.8449    5.7238 Mg  0  0  0  0  0 15  0  0  0  0  0  0
   38.6474    3.5002    5.6607 O   0  0  0  0  0  0  0  0  0  0  0  0
   38.6543    3.4978    5.6539 O   0  0  0  0  0  0  0  0  0  0  0  0
   38.6627    3.4953    5.6459 O   0  0  0  0  0  0  0  0  0  0  0  0
   38.8358    3.8449    5.7238 Cl  0  0  0  0  0  0  0  0  0  0  0  0
   38.8358    3.8449    5.7238 Cl  0  0  0  0  0  0  0  0  0  0  0  0
   38.6520    3.4986    5.6561 O   0  0  0  0  0  0  0  0  0  0  0  0
   38.6505    3.4992    5.6577 O   0  0  0  0  0  0  0  0  0  0  0  0
   38.3988    4.1995    6.2767 H   0  0  0  0  0  0  0  0  0  0  0  0
   39.4572    3.8363    5.2379 H   0  0  0  0  0  0  0  0  0  0  0  0
   39.4541    3.8262    5.2342 H   0  0  0  0  0  0  0  0  0  0  0  0
   38.4058    4.2082    6.2765 H   0  0  0  0  0  0  0  0  0  0  0  0
   39.4596    3.8442    5.2409 H   0  0  0  0  0  0  0  0  0  0  0  0
   38.3933    4.1927    6.2767 H   0  0  0  0  0  0  0  0  0  0  0  0
   39.4655    3.8653    5.2491 H   0  0  0  0  0  0  0  0  0  0  0  0
   38.3791    4.1741    6.2765 H   0  0  0  0  0  0  0  0  0  0  0  0
   38.3975    4.1979    6.2767 H   0  0  0  0  0  0  0  0  0  0  0  0
   39.4578    3.8381    5.2386 H   0  0  0  0  0  0  0  0  0  0  0  0
   38.4003    4.2014    6.2767 H   0  0  0  0  0  0  0  0  0  0  0  0
   39.4566    3.8341    5.2371 H   0  0  0  0  0  0  0  0  0  0  0  0
  1 10  1  0
  1 11  1  0
  3 12  1  0
  3 13  1  0
  4 14  1  0
  4 15  1  0
  5 16  1  0
  5 17  1  0
  8 18  1  0
  8 19  1  0
  9 20  1  0
  9 21  1  0
M  CHG  3   2   2   6  -1   7  -1
M  END
> <Uni-Dock RESULT> 
ENERGY=   -6.059  LOWER_BOUND=    9.104  UPPER_BOUND=    9.106
INTER + INTRA:          -6.059
INTER:                  -6.059
INTRA:                   0.000
UNBOUND:                 0.000

$$$$

     RDKit          3D

 21 12  0  0  0  0  0  0  0  0999 V2000
   48.0595    1.5285    7.0730 O   0  0  0  0  0  0  0  0  0  0  0  0
   47.6788    1.4561    6.9830 Mg  0  0  0  0  0 15  0  0  0  0  0  0
   48.0589    1.5256    7.0777 O   0  0  0  0  0  0  0  0  0  0  0  0
   48.0599    1.5308    7.0693 O   0  0  0  0  0  0  0  0  0  0  0  0
   48.0608    1.5370    7.0592 O   0  0  0  0  0  0  0  0  0  0  0  0
   47.6788    1.4561    6.9830 Cl  0  0  0  0  0  0  0  0  0  0  0  0
   47.6788    1.4561    6.9830 Cl  0  0  0  0  0  0  0  0  0  0  0  0
   48.0596    1.5291    7.0721 O   0  0  0  0  0  0  0  0  0  0  0  0
   48.0594    1.5279    7.0740 O   0  0  0  0  0  0  0  0  0  0  0  0
   47.4123    1.0189    7.5832 H   0  0  0  0  0  0  0  0  0  0  0  0
   47.5646    1.8209    6.2929 H   0  0  0  0  0  0  0  0  0  0  0  0
   47.5753    1.8243    6.2930 H   0  0  0  0  0  0  0  0  0  0  0  0
   47.4023    1.0185    7.5783 H   0  0  0  0  0  0  0  0  0  0  0  0
   47.5563    1.8182    6.2929 H   0  0  0  0  0  0  0  0  0  0  0  0
   47.4202    1.0193    7.5870 H   0  0  0  0  0  0  0  0  0  0  0  0
   47.5342    1.8107    6.2933 H   0  0  0  0  0  0  0  0  0  0  0  0
   47.4415    1.0206    7.5966 H   0  0  0  0  0  0  0  0  0  0  0  0
   47.4141    1.0190    7.5841 H   0  0  0  0  0  0  0  0  0  0  0  0
   47.5627    1.8203    6.2928 H   0  0  0  0  0  0  0  0  0  0  0  0
   47.4101    1.0188    7.5822 H   0  0  0  0  0  0  0  0  0  0  0  0
   47.5669    1.8217    6.2929 H   0  0  0  0  0  0  0  0  0  0  0  0
  1 10  1  0
  1 11  1  0
  3 12  1  0
  3 13  1  0
  4 14  1  0
  4 15  1  0
  5 16  1  0
  5 17  1  0
  8 18  1  0
  8 19  1  0
  9 20  1  0
  9 21  1  0
M  CHG  3   2   2   6  -1   7  -1
M  END
> <Uni-Dock RESULT> 
ENERGY=   -5.364  LOWER_BOUND=    2.123  UPPER_BOUND=    2.123
INTER + INTRA:          -5.364
INTER:                  -5.364
INTRA:                   0.000
UNBOUND:                 0.000

$$$$

     RDKit          3D

 21 12  0  0  0  0  0  0  0  0999 V2000
   40.6398   12.0902   15.8685 O   0  0  0  0  0  0  0  0  0  0  0  0
   40.3675   12.3235   15.6963 Mg  0  0  0  0  0 15  0  0  0  0  0  0
   40.6364   12.0858   15.8678 O   0  0  0  0  0  0  0  0  0  0  0  0
   40.6425   12.0937   15.8690 O   0  0  0  0  0  0  0  0  0  0  0  0
   40.6494   12.1032   15.8702 O   0  0  0  0  0  0  0  0  0  0  0  0
   40.3675   12.3235   15.6963 Cl  0  0  0  0  0  0  0  0  0  0  0  0
   40.3675   12.3235   15.6963 Cl  0  0  0  0  0  0  0  0  0  0  0  0
   40.6405   12.0911   15.8686 O   0  0  0  0  0  0  0  0  0  0  0  0
   40.6391   12.0893   15.8684 O   0  0  0  0  0  0  0  0  0  0  0  0
   39.7704   11.8377   15.5231 H   0  0  0  0  0  0  0  0  0  0  0  0
   40.6921   13.0425   15.6973 H   0  0  0  0  0  0  0  0  0  0  0  0
   40.7012   13.0383   15.7023 H   0  0  0  0  0  0  0  0  0  0  0  0
   39.7648   11.8464   15.5188 H   0  0  0  0  0  0  0  0  0  0  0  0
   40.6850   13.0457   15.6934 H   0  0  0  0  0  0  0  0  0  0  0  0
   39.7749   11.8311   15.5266 H   0  0  0  0  0  0  0  0  0  0  0  0
   40.6657   13.0538   15.6830 H   0  0  0  0  0  0  0  0  0  0  0  0
   39.7873   11.8135   15.5358 H   0  0  0  0  0  0  0  0  0  0  0  0
   39.7714   11.8362   15.5239 H   0  0  0  0  0  0  0  0  0  0  0  0
   40.6905   13.0433   15.6964 H   0  0  0  0  0  0  0  0  0  0  0  0
   39.7692   11.8396   15.5222 H   0  0  0  0  0  0  0  0  0  0  0  0
   40.6941   13.0416   15.6984 H   0  0  0  0  0  0  0  0  0  0  0  0
  1 10  1  0
  1 11  1  0
  3 12  1  0
  3 13  1  0
  4 14  1  0
  4 15  1  0
  5 16  1  0
  5 17  1  0
  8 18  1  0
  8 19  1  0
  9 20  1  0
  9 21  1  0
M  CHG  3   2   2   6  -1   7  -1
M  END
> <Uni-Dock RESULT> 
ENERGY=   -5.081  LOWER_BOUND=   15.972  UPPER_BOUND=   15.974
INTER + INTRA:          -5.081
INTER:                  -5.081
INTRA:                   0.000
UNBOUND:                 0.000

$$$$

     RDKit          3D

 21 12  0  0  0  0  0  0  0  0999 V2000
   40.8112    1.9024   21.9647 O   0  0  0  0  0  0  0  0  0  0  0  0
   40.7849    1.8234   22.3537 Mg  0  0  0  0  0 15  0  0  0  0  0  0
   40.8150    1.9064   21.9658 O   0  0  0  0  0  0  0  0  0  0  0  0
   40.8083    1.8993   21.9638 O   0  0  0  0  0  0  0  0  0  0  0  0
   40.8003    1.8908   21.9619 O   0  0  0  0  0  0  0  0  0  0  0  0
   40.7849    1.8234   22.3537 Cl  0  0  0  0  0  0  0  0  0  0  0  0
   40.7849    1.8234   22.3537 Cl  0  0  0  0  0  0  0  0  0  0  0  0
   40.8105    1.9016   21.9645 O   0  0  0  0  0  0  0  0  0  0  0  0
   40.8120    1.9033   21.9649 O   0  0  0  0  0  0  0  0  0  0  0  0
   41.2845    2.3305   22.6939 H   0  0  0  0  0  0  0  0  0  0  0  0
   40.2590    1.2373   22.4024 H   0  0  0  0  0  0  0  0  0  0  0  0
   40.2579    1.2375   22.3913 H   0  0  0  0  0  0  0  0  0  0  0  0
   41.2818    2.3262   22.7039 H   0  0  0  0  0  0  0  0  0  0  0  0
   40.2600    1.2373   22.4112 H   0  0  0  0  0  0  0  0  0  0  0  0
   41.2865    2.3337   22.6860 H   0  0  0  0  0  0  0  0  0  0  0  0
   40.2628    1.2374   22.4343 H   0  0  0  0  0  0  0  0  0  0  0  0
   41.2915    2.3420   22.6648 H   0  0  0  0  0  0  0  0  0  0  0  0
   41.2849    2.3312   22.6921 H   0  0  0  0  0  0  0  0  0  0  0  0
   40.2592    1.2373   22.4045 H   0  0  0  0  0  0  0  0  0  0  0  0
   41.2839    2.3296   22.6961 H   0  0  0  0  0  0  0  0  0  0  0  0
   40.2588    1.2374   22.4001 H   0  0  0  0  0  0  0  0  0  0  0  0
  1 10  1  0
  1 11  1  0
  3 12  1  0
  3 13  1  0
  4 14  1  0
  4 15  1  0
  5 16  1  0
  5 17  1  0
  8 18  1  0
  8 19  1  0
  9 20  1  0
  9 21  1  0
M  CHG  3   2   2   6  -1   7  -1
M  END
> <Uni-Dock RESULT> 
ENERGY=   -4.769  LOWER_BOUND=   15.702  UPPER_BOUND=   15.702
INTER + INTRA:          -4.769
INTER:                  -4.769
INTRA:                   0.000
UNBOUND:                 0.000

$$$$

     RDKit          3D

 21 12  0  0  0  0  0  0  0  0999 V2000
   42.0348    5.9170   11.7720 O   0  0  0  0  0  0  0  0  0  0  0  0
   42.3371    5.6655   11.8320 Mg  0  0  0  0  0 15  0  0  0  0  0  0
   42.0372    5.9207   11.7754 O   0  0  0  0  0  0  0  0  0  0  0  0
   42.0329    5.9141   11.7693 O   0  0  0  0  0  0  0  0  0  0  0  0
   42.0280    5.9060   11.7622 O   0  0  0  0  0  0  0  0  0  0  0  0
   42.3371    5.6655   11.8320 Cl  0  0  0  0  0  0  0  0  0  0  0  0
   42.3371    5.6655   11.8320 Cl  0  0  0  0  0  0  0  0  0  0  0  0
   42.0343    5.9163   11.7713 O   0  0  0  0  0  0  0  0  0  0  0  0
   42.0353    5.9178   11.7727 O   0  0  0  0  0  0  0  0  0  0  0  0
   42.8196    6.0487   12.3248 H   0  0  0  0  0  0  0  0  0  0  0  0
   42.1569    5.0309   11.3993 H   0  0  0  0  0  0  0  0  0  0  0  0
   42.1475    5.0359   11.3960 H   0  0  0  0  0  0  0  0  0  0  0  0
   42.8265    6.0399   12.3246 H   0  0  0  0  0  0  0  0  0  0  0  0
   42.1644    5.0270   11.4020 H   0  0  0  0  0  0  0  0  0  0  0  0
   42.8141    6.0555   12.3248 H   0  0  0  0  0  0  0  0  0  0  0  0
   42.1842    5.0172   11.4093 H   0  0  0  0  0  0  0  0  0  0  0  0
   42.7991    6.0734   12.3246 H   0  0  0  0  0  0  0  0  0  0  0  0
   42.8183    6.0503   12.3248 H   0  0  0  0  0  0  0  0  0  0  0  0
   42.1587    5.0300   11.3999 H   0  0  0  0  0  0  0  0  0  0  0  0
   42.8211    6.0468   12.3248 H   0  0  0  0  0  0  0  0  0  0  0  0
   42.1549    5.0320   11.3986 H   0  0  0  0  0  0  0  0  0  0  0  0
  1 10  1  0
  1 11  1  0
  3 12  1  0
  3 13  1  0
  4 14  1  0
  4 15  1  0
  5 16  1  0
  5 17  1  0
  8 18  1  0
  8 19  1  0
  9 20  1  0
  9 21  1  0
M  CHG  3   2   2   6  -1   7  -1
M  END
> <Uni-Dock RESULT> 
ENERGY=   -4.647  LOWER_BOUND=    8.575  UPPER_BOUND=    8.578
INTER + INTRA:          -4.647
INTER:                  -4.647
INTRA:                   0.000
UNBOUND:                 0.000

$$$$

     RDKit          3D

 21 12  0  0  0  0  0  0  0  0999 V2000
   46.8892    4.3018    7.2914 O   0  0  0  0  0  0  0  0  0  0  0  0
   46.7751    3.9376    7.1791 Mg  0  0  0  0  0 15  0  0  0  0  0  0
   46.8935    4.3015    7.2878 O   0  0  0  0  0  0  0  0  0  0  0  0
   46.8858    4.3020    7.2942 O   0  0  0  0  0  0  0  0  0  0  0  0
   46.8767    4.3022    7.3017 O   0  0  0  0  0  0  0  0  0  0  0  0
   46.7751    3.9376    7.1791 Cl  0  0  0  0  0  0  0  0  0  0  0  0
   46.7751    3.9376    7.1791 Cl  0  0  0  0  0  0  0  0  0  0  0  0
   46.8884    4.3018    7.2921 O   0  0  0  0  0  0  0  0  0  0  0  0
   46.8901    4.3017    7.2906 O   0  0  0  0  0  0  0  0  0  0  0  0
   47.3038    3.7229    6.6341 H   0  0  0  0  0  0  0  0  0  0  0  0
   46.1325    3.7881    7.6116 H   0  0  0  0  0  0  0  0  0  0  0  0
   46.1335    3.7981    7.6164 H   0  0  0  0  0  0  0  0  0  0  0  0
   47.2984    3.7131    6.6330 H   0  0  0  0  0  0  0  0  0  0  0  0
   46.1318    3.7802    7.6078 H   0  0  0  0  0  0  0  0  0  0  0  0
   47.3078    3.7306    6.6351 H   0  0  0  0  0  0  0  0  0  0  0  0
   46.1304    3.7594    7.5973 H   0  0  0  0  0  0  0  0  0  0  0  0
   47.3184    3.7512    6.6382 H   0  0  0  0  0  0  0  0  0  0  0  0
   47.3047    3.7247    6.6344 H   0  0  0  0  0  0  0  0  0  0  0  0
   46.1323    3.7863    7.6107 H   0  0  0  0  0  0  0  0  0  0  0  0
   47.3026    3.7208    6.6339 H   0  0  0  0  0  0  0  0  0  0  0  0
   46.1328    3.7902    7.6126 H   0  0  0  0  0  0  0  0  0  0  0  0
  1 10  1  0
  1 11  1  0
  3 12  1  0
  3 13  1  0
  4 14  1  0
  4 15  1  0
  5 16  1  0
  5 17  1  0
  8 18  1  0
  8 19  1  0
  9 20  1  0
  9 21  1  0
M  CHG  3   2   2   6  -1   7  -1
M  END
> <Uni-Dock RESULT> 
ENERGY=   -4.537  LOWER_BOUND=    4.332  UPPER_BOUND=    4.333
INTER + INTRA:          -4.537
INTER:                  -4.537
INTRA:                   0.000
UNBOUND:                 0.000

$$$$

     RDKit          3D

 21 12  0  0  0  0  0  0  0  0999 V2000
   42.7588    5.2109   13.2284 O   0  0  0  0  0  0  0  0  0  0  0  0
   42.8358    5.3140   12.8520 Mg  0  0  0  0  0 15  0  0  0  0  0  0
   42.7619    5.2153   13.2302 O   0  0  0  0  0  0  0  0  0  0  0  0
   42.7564    5.2075   13.2270 O   0  0  0  0  0  0  0  0  0  0  0  0
   42.7501    5.1985   13.2229 O   0  0  0  0  0  0  0  0  0  0  0  0
   42.8358    5.3140   12.8520 Cl  0  0  0  0  0  0  0  0  0  0  0  0
   42.8358    5.3140   12.8520 Cl  0  0  0  0  0  0  0  0  0  0  0  0
   42.7582    5.2101   13.2280 O   0  0  0  0  0  0  0  0  0  0  0  0
   42.7595    5.2119   13.2288 O   0  0  0  0  0  0  0  0  0  0  0  0
   43.2895    5.9568   12.9106 H   0  0  0  0  0  0  0  0  0  0  0  0
   42.4592    4.7743   12.4169 H   0  0  0  0  0  0  0  0  0  0  0  0
   42.4556    4.7694   12.4262 H   0  0  0  0  0  0  0  0  0  0  0  0
   43.2900    5.9573   12.8995 H   0  0  0  0  0  0  0  0  0  0  0  0
   42.4621    4.7783   12.4096 H   0  0  0  0  0  0  0  0  0  0  0  0
   43.2890    5.9563   12.9194 H   0  0  0  0  0  0  0  0  0  0  0  0
   42.4700    4.7891   12.3904 H   0  0  0  0  0  0  0  0  0  0  0  0
   43.2875    5.9545   12.9426 H   0  0  0  0  0  0  0  0  0  0  0  0
   43.2894    5.9567   12.9127 H   0  0  0  0  0  0  0  0  0  0  0  0
   42.4599    4.7752   12.4152 H   0  0  0  0  0  0  0  0  0  0  0  0
   43.2896    5.9569   12.9083 H   0  0  0  0  0  0  0  0  0  0  0  0
   42.4584    4.7733   12.4189 H   0  0  0  0  0  0  0  0  0  0  0  0
  1 10  1  0
  1 11  1  0
  3 12  1  0
  3 13  1  0
  4 14  1  0
  4 15  1  0
  5 16  1  0
  5 17  1  0
  8 18  1  0
  8 19  1  0
  9 20  1  0
  9 21  1  0
M  CHG  3   2   2   6  -1   7  -1
M  END
> <Uni-Dock RESULT> 
ENERGY=   -4.338  LOWER_BOUND=    8.580  UPPER_BOUND=    8.584
INTER + INTRA:          -4.338
INTER:                  -4.338
INTRA:                   0.000
UNBOUND:                 0.000

$$$$

     RDKit          3D

 21 12  0  0  0  0  0  0  0  0999 V2000
   46.8174    2.7431   17.6573 O   0  0  0  0  0  0  0  0  0  0  0  0
   47.0770    3.0275   17.5574 Mg  0  0  0  0  0 15  0  0  0  0  0  0
   46.8212    2.7392   17.6559 O   0  0  0  0  0  0  0  0  0  0  0  0
   46.8145    2.7461   17.6584 O   0  0  0  0  0  0  0  0  0  0  0  0
   46.8067    2.7546   17.6611 O   0  0  0  0  0  0  0  0  0  0  0  0
   47.0770    3.0275   17.5574 Cl  0  0  0  0  0  0  0  0  0  0  0  0
   47.0770    3.0275   17.5574 Cl  0  0  0  0  0  0  0  0  0  0  0  0
   46.8167    2.7438   17.6576 O   0  0  0  0  0  0  0  0  0  0  0  0
   46.8183    2.7422   17.6570 O   0  0  0  0  0  0  0  0  0  0  0  0
   47.7206    2.6360   17.3229 H   0  0  0  0  0  0  0  0  0  0  0  0
   46.6930    3.7034   17.6920 H   0  0  0  0  0  0  0  0  0  0  0  0
   46.6841    3.6976   17.6954 H   0  0  0  0  0  0  0  0  0  0  0  0
   47.7256    2.6457   17.3209 H   0  0  0  0  0  0  0  0  0  0  0  0
   46.7001    3.7079   17.6893 H   0  0  0  0  0  0  0  0  0  0  0  0
   47.7165    2.6284   17.3245 H   0  0  0  0  0  0  0  0  0  0  0  0
   46.7191    3.7194   17.6821 H   0  0  0  0  0  0  0  0  0  0  0  0
   47.7052    2.6084   17.3289 H   0  0  0  0  0  0  0  0  0  0  0  0
   47.7196    2.6342   17.3233 H   0  0  0  0  0  0  0  0  0  0  0  0
   46.6947    3.7045   17.6914 H   0  0  0  0  0  0  0  0  0  0  0  0
   47.7216    2.6380   17.3224 H   0  0  0  0  0  0  0  0  0  0  0  0
   46.6911    3.7022   17.6927 H   0  0  0  0  0  0  0  0  0  0  0  0
  1 10  1  0
  1 11  1  0
  3 12  1  0
  3 13  1  0
  4 14  1  0
  4 15  1  0
  5 16  1  0
  5 17  1  0
  8 18  1  0
  8 19  1  0
  9 20  1  0
  9 21  1  0
M  CHG  3   2   2   6  -1   7  -1
M  END
> <Uni-Dock RESULT> 
ENERGY=   -4.261  LOWER_BOUND=   10.343  UPPER_BOUND=   10.345
INTER + INTRA:          -4.261
INTER:                  -4.261
INTRA:                   0.000
UNBOUND:                 0.000

$$$$
