
     RDKit          3D

 21 12  0  0  0  0  0  0  0  0999 V2000
   38.7205    3.4884    5.7782 O   0  0  0  0  0  0  0  0  0  0  0  0
   38.8191    3.8238    5.5885 Mg  0  0  0  0  0 15  0  0  0  0  0  0
   38.7217    3.4842    5.7713 O   0  0  0  0  0  0  0  0  0  0  0  0
   38.7253    3.4735    5.7520 O   0  0  0  0  0  0  0  0  0  0  0  0
   38.7267    3.4700    5.7450 O   0  0  0  0  0  0  0  0  0  0  0  0
   38.8191    3.8238    5.5885 Cl  0  0  0  0  0  0  0  0  0  0  0  0
   38.8191    3.8238    5.5885 Cl  0  0  0  0  0  0  0  0  0  0  0  0
   38.7208    3.4875    5.7769 O   0  0  0  0  0  0  0  0  0  0  0  0
   38.7228    3.4807    5.7653 O   0  0  0  0  0  0  0  0  0  0  0  0
   38.9819    3.5950    4.8513 H   0  0  0  0  0  0  0  0  0  0  0  0
   38.7550    4.3882    6.1362 H   0  0  0  0  0  0  0  0  0  0  0  0
   38.9851    3.6103    4.8475 H   0  0  0  0  0  0  0  0  0  0  0  0
   38.7506    4.3770    6.1468 H   0  0  0  0  0  0  0  0  0  0  0  0
   38.9937    3.6530    4.8383 H   0  0  0  0  0  0  0  0  0  0  0  0
   38.7384    4.3450    6.1753 H   0  0  0  0  0  0  0  0  0  0  0  0
   38.7342    4.3334    6.1849 H   0  0  0  0  0  0  0  0  0  0  0  0
   38.9966    3.6682    4.8358 H   0  0  0  0  0  0  0  0  0  0  0  0
   38.7541    4.3859    6.1384 H   0  0  0  0  0  0  0  0  0  0  0  0
   38.9826    3.5981    4.8505 H   0  0  0  0  0  0  0  0  0  0  0  0
   38.7467    4.3672    6.1561 H   0  0  0  0  0  0  0  0  0  0  0  0
   38.9879    3.6237    4.8443 H   0  0  0  0  0  0  0  0  0  0  0  0
  1 10  1  0
  1 11  1  0
  3 12  1  0
  3 13  1  0
  4 14  1  0
  4 15  1  0
  5 16  1  0
  5 17  1  0
  8 18  1  0
  8 19  1  0
  9 20  1  0
  9 21  1  0
M  CHG  3   2   2   6  -1   7  -1
M  END
> <Uni-Dock RESULT> 
ENERGY=   -6.296  LOWER_BOUND=    0.000  UPPER_BOUND=    0.000
INTER + INTRA:          -6.296
INTER:                  -6.296
INTRA:                   0.000
UNBOUND:                 0.000

$$$$

     RDKit          3D

 21 12  0  0  0  0  0  0  0  0999 V2000
   46.7306   -0.2388    7.7478 O   0  0  0  0  0  0  0  0  0  0  0  0
   46.8137    0.1333    7.6342 Mg  0  0  0  0  0 15  0  0  0  0  0  0
   46.7382   -0.2395    7.7507 O   0  0  0  0  0  0  0  0  0  0  0  0
   46.7592   -0.2407    7.7584 O   0  0  0  0  0  0  0  0  0  0  0  0
   46.7667   -0.2408    7.7610 O   0  0  0  0  0  0  0  0  0  0  0  0
   46.8137    0.1333    7.6342 Cl  0  0  0  0  0  0  0  0  0  0  0  0
   46.8137    0.1333    7.6342 Cl  0  0  0  0  0  0  0  0  0  0  0  0
   46.7321   -0.2389    7.7484 O   0  0  0  0  0  0  0  0  0  0  0  0
   46.7448   -0.2400    7.7532 O   0  0  0  0  0  0  0  0  0  0  0  0
   47.5640    0.2446    7.8516 H   0  0  0  0  0  0  0  0  0  0  0  0
   46.1466    0.3941    7.3034 H   0  0  0  0  0  0  0  0  0  0  0  0
   47.5632    0.2595    7.8456 H   0  0  0  0  0  0  0  0  0  0  0  0
   46.1398    0.3798    7.3064 H   0  0  0  0  0  0  0  0  0  0  0  0
   47.5598    0.3006    7.8287 H   0  0  0  0  0  0  0  0  0  0  0  0
   46.1222    0.3400    7.3156 H   0  0  0  0  0  0  0  0  0  0  0  0
   46.1166    0.3258    7.3190 H   0  0  0  0  0  0  0  0  0  0  0  0
   47.5580    0.3149    7.8226 H   0  0  0  0  0  0  0  0  0  0  0  0
   46.1452    0.3911    7.3040 H   0  0  0  0  0  0  0  0  0  0  0  0
   47.5638    0.2477    7.8503 H   0  0  0  0  0  0  0  0  0  0  0  0
   46.1340    0.3674    7.3092 H   0  0  0  0  0  0  0  0  0  0  0  0
   47.5625    0.2725    7.8404 H   0  0  0  0  0  0  0  0  0  0  0  0
  1 10  1  0
  1 11  1  0
  3 12  1  0
  3 13  1  0
  4 14  1  0
  4 15  1  0
  5 16  1  0
  5 17  1  0
  8 18  1  0
  8 19  1  0
  9 20  1  0
  9 21  1  0
M  CHG  3   2   2   6  -1   7  -1
M  END
> <Uni-Dock RESULT> 
ENERGY=   -6.175  LOWER_BOUND=    9.054  UPPER_BOUND=    9.056
INTER + INTRA:          -6.175
INTER:                  -6.175
INTRA:                   0.000
UNBOUND:                 0.000

$$$$

     RDKit          3D

 21 12  0  0  0  0  0  0  0  0999 V2000
   46.8210    0.0483    7.7033 O   0  0  0  0  0  0  0  0  0  0  0  0
   46.7227   -0.3291    7.6245 Mg  0  0  0  0  0 15  0  0  0  0  0  0
   46.8249    0.0486    7.6962 O   0  0  0  0  0  0  0  0  0  0  0  0
   46.8353    0.0489    7.6764 O   0  0  0  0  0  0  0  0  0  0  0  0
   46.8390    0.0487    7.6693 O   0  0  0  0  0  0  0  0  0  0  0  0
   46.7227   -0.3291    7.6245 Cl  0  0  0  0  0  0  0  0  0  0  0  0
   46.7227   -0.3291    7.6245 Cl  0  0  0  0  0  0  0  0  0  0  0  0
   46.8218    0.0483    7.7019 O   0  0  0  0  0  0  0  0  0  0  0  0
   46.8282    0.0489    7.6899 O   0  0  0  0  0  0  0  0  0  0  0  0
   47.0401   -0.4736    6.9168 H   0  0  0  0  0  0  0  0  0  0  0  0
   46.3069   -0.5618    8.2534 H   0  0  0  0  0  0  0  0  0  0  0  0
   47.0342   -0.4886    6.9175 H   0  0  0  0  0  0  0  0  0  0  0  0
   46.3090   -0.5473    8.2598 H   0  0  0  0  0  0  0  0  0  0  0  0
   47.0174   -0.5297    6.9206 H   0  0  0  0  0  0  0  0  0  0  0  0
   46.3153   -0.5065    8.2765 H   0  0  0  0  0  0  0  0  0  0  0  0
   46.3179   -0.4920    8.2818 H   0  0  0  0  0  0  0  0  0  0  0  0
   47.0112   -0.5439    6.9223 H   0  0  0  0  0  0  0  0  0  0  0  0
   46.3073   -0.5589    8.2547 H   0  0  0  0  0  0  0  0  0  0  0  0
   47.0389   -0.4767    6.9170 H   0  0  0  0  0  0  0  0  0  0  0  0
   46.3108   -0.5345    8.2653 H   0  0  0  0  0  0  0  0  0  0  0  0
   47.0290   -0.5016    6.9182 H   0  0  0  0  0  0  0  0  0  0  0  0
  1 10  1  0
  1 11  1  0
  3 12  1  0
  3 13  1  0
  4 14  1  0
  4 15  1  0
  5 16  1  0
  5 17  1  0
  8 18  1  0
  8 19  1  0
  9 20  1  0
  9 21  1  0
M  CHG  3   2   2   6  -1   7  -1
M  END
> <Uni-Dock RESULT> 
ENERGY=   -5.916  LOWER_BOUND=    9.057  UPPER_BOUND=    9.059
INTER + INTRA:          -5.916
INTER:                  -5.916
INTRA:                   0.000
UNBOUND:                 0.000

$$$$

     RDKit          3D

 21 12  0  0  0  0  0  0  0  0999 V2000
   48.0559    1.5438    7.0753 O   0  0  0  0  0  0  0  0  0  0  0  0
   47.6799    1.4526    6.9829 Mg  0  0  0  0  0 15  0  0  0  0  0  0
   48.0581    1.5362    7.0736 O   0  0  0  0  0  0  0  0  0  0  0  0
   48.0633    1.5149    7.0688 O   0  0  0  0  0  0  0  0  0  0  0  0
   48.0648    1.5074    7.0670 O   0  0  0  0  0  0  0  0  0  0  0  0
   47.6799    1.4526    6.9829 Cl  0  0  0  0  0  0  0  0  0  0  0  0
   47.6799    1.4526    6.9829 Cl  0  0  0  0  0  0  0  0  0  0  0  0
   48.0563    1.5423    7.0750 O   0  0  0  0  0  0  0  0  0  0  0  0
   48.0599    1.5295    7.0721 O   0  0  0  0  0  0  0  0  0  0  0  0
   47.7043    0.6905    6.7802 H   0  0  0  0  0  0  0  0  0  0  0  0
   47.2795    2.1234    7.0930 H   0  0  0  0  0  0  0  0  0  0  0  0
   47.6885    0.6909    6.7775 H   0  0  0  0  0  0  0  0  0  0  0  0
   47.2932    2.1306    7.0974 H   0  0  0  0  0  0  0  0  0  0  0  0
   47.6446    0.6936    6.7703 H   0  0  0  0  0  0  0  0  0  0  0  0
   47.3318    2.1492    7.1094 H   0  0  0  0  0  0  0  0  0  0  0  0
   47.3456    2.1552    7.1136 H   0  0  0  0  0  0  0  0  0  0  0  0
   47.6293    0.6952    6.7680 H   0  0  0  0  0  0  0  0  0  0  0  0
   47.2823    2.1249    7.0939 H   0  0  0  0  0  0  0  0  0  0  0  0
   47.7011    0.6906    6.7796 H   0  0  0  0  0  0  0  0  0  0  0  0
   47.3052    2.1367    7.1013 H   0  0  0  0  0  0  0  0  0  0  0  0
   47.6747    0.6915    6.7751 H   0  0  0  0  0  0  0  0  0  0  0  0
  1 10  1  0
  1 11  1  0
  3 12  1  0
  3 13  1  0
  4 14  1  0
  4 15  1  0
  5 16  1  0
  5 17  1  0
  8 18  1  0
  8 19  1  0
  9 20  1  0
  9 21  1  0
M  CHG  3   2   2   6  -1   7  -1
M  END
> <Uni-Dock RESULT> 
ENERGY=   -5.364  LOWER_BOUND=    9.510  UPPER_BOUND=    9.513
INTER + INTRA:          -5.364
INTER:                  -5.364
INTRA:                   0.000
UNBOUND:                 0.000

$$$$

     RDKit          3D

 21 12  0  0  0  0  0  0  0  0999 V2000
   40.6360   12.0800   15.8599 O   0  0  0  0  0  0  0  0  0  0  0  0
   40.3676   12.3241   15.6966 Mg  0  0  0  0  0 15  0  0  0  0  0  0
   40.6387   12.0861   15.8643 O   0  0  0  0  0  0  0  0  0  0  0  0
   40.6457   12.1037   15.8764 O   0  0  0  0  0  0  0  0  0  0  0  0
   40.6480   12.1101   15.8806 O   0  0  0  0  0  0  0  0  0  0  0  0
   40.3676   12.3241   15.6966 Cl  0  0  0  0  0  0  0  0  0  0  0  0
   40.3676   12.3241   15.6966 Cl  0  0  0  0  0  0  0  0  0  0  0  0
   40.6365   12.0812   15.8608 O   0  0  0  0  0  0  0  0  0  0  0  0
   40.6410   12.0916   15.8682 O   0  0  0  0  0  0  0  0  0  0  0  0
   40.4974   13.0216   16.0417 H   0  0  0  0  0  0  0  0  0  0  0  0
   39.9696   11.8707   15.1882 H   0  0  0  0  0  0  0  0  0  0  0  0
   40.4854   13.0279   16.0330 H   0  0  0  0  0  0  0  0  0  0  0  0
   39.9788   11.8582   15.1924 H   0  0  0  0  0  0  0  0  0  0  0  0
   40.4522   13.0440   16.0081 H   0  0  0  0  0  0  0  0  0  0  0  0
   40.0050   11.8246   15.2052 H   0  0  0  0  0  0  0  0  0  0  0  0
   40.0145   11.8132   15.2101 H   0  0  0  0  0  0  0  0  0  0  0  0
   40.4404   13.0491   15.9991 H   0  0  0  0  0  0  0  0  0  0  0  0
   39.9714   11.8681   15.1890 H   0  0  0  0  0  0  0  0  0  0  0  0
   40.4949   13.0229   16.0399 H   0  0  0  0  0  0  0  0  0  0  0  0
   39.9869   11.8474   15.1963 H   0  0  0  0  0  0  0  0  0  0  0  0
   40.4750   13.0333   16.0253 H   0  0  0  0  0  0  0  0  0  0  0  0
  1 10  1  0
  1 11  1  0
  3 12  1  0
  3 13  1  0
  4 14  1  0
  4 15  1  0
  5 16  1  0
  5 17  1  0
  8 18  1  0
  8 19  1  0
  9 20  1  0
  9 21  1  0
M  CHG  3   2   2   6  -1   7  -1
M  END
> <Uni-Dock RESULT> 
ENERGY=   -5.078  LOWER_BOUND=   13.365  UPPER_BOUND=   13.375
INTER + INTRA:          -5.078
INTER:                  -5.078
INTRA:                   0.000
UNBOUND:                 0.000

$$$$

     RDKit          3D

 21 12  0  0  0  0  0  0  0  0999 V2000
   40.7959    1.9068   21.9643 O   0  0  0  0  0  0  0  0  0  0  0  0
   40.7836    1.8191   22.3521 Mg  0  0  0  0  0 15  0  0  0  0  0  0
   40.8017    1.9012   21.9633 O   0  0  0  0  0  0  0  0  0  0  0  0
   40.8177    1.8857   21.9614 O   0  0  0  0  0  0  0  0  0  0  0  0
   40.8234    1.8801   21.9610 O   0  0  0  0  0  0  0  0  0  0  0  0
   40.7836    1.8191   22.3521 Cl  0  0  0  0  0  0  0  0  0  0  0  0
   40.7836    1.8191   22.3521 Cl  0  0  0  0  0  0  0  0  0  0  0  0
   40.7970    1.9057   21.9641 O   0  0  0  0  0  0  0  0  0  0  0  0
   40.8068    1.8963   21.9626 O   0  0  0  0  0  0  0  0  0  0  0  0
   41.3261    1.2539   22.4455 H   0  0  0  0  0  0  0  0  0  0  0  0
   40.2289    2.2968   22.6466 H   0  0  0  0  0  0  0  0  0  0  0  0
   41.3226    1.2534   22.4612 H   0  0  0  0  0  0  0  0  0  0  0  0
   40.2267    2.3028   22.6319 H   0  0  0  0  0  0  0  0  0  0  0  0
   41.3117    1.2531   22.5044 H   0  0  0  0  0  0  0  0  0  0  0  0
   40.2214    2.3187   22.5906 H   0  0  0  0  0  0  0  0  0  0  0  0
   40.2200    2.3238   22.5760 H   0  0  0  0  0  0  0  0  0  0  0  0
   41.3075    1.2535   22.5194 H   0  0  0  0  0  0  0  0  0  0  0  0
   40.2285    2.2980   22.6436 H   0  0  0  0  0  0  0  0  0  0  0  0
   41.3254    1.2538   22.4487 H   0  0  0  0  0  0  0  0  0  0  0  0
   40.2248    2.3080   22.6190 H   0  0  0  0  0  0  0  0  0  0  0  0
   41.3194    1.2531   22.4748 H   0  0  0  0  0  0  0  0  0  0  0  0
  1 10  1  0
  1 11  1  0
  3 12  1  0
  3 13  1  0
  4 14  1  0
  4 15  1  0
  5 16  1  0
  5 17  1  0
  8 18  1  0
  8 19  1  0
  9 20  1  0
  9 21  1  0
M  CHG  3   2   2   6  -1   7  -1
M  END
> <Uni-Dock RESULT> 
ENERGY=   -4.767  LOWER_BOUND=   16.606  UPPER_BOUND=   16.607
INTER + INTRA:          -4.767
INTER:                  -4.767
INTRA:                   0.000
UNBOUND:                 0.000

$$$$

     RDKit          3D

 21 12  0  0  0  0  0  0  0  0999 V2000
   42.0533    5.9081   11.7506 O   0  0  0  0  0  0  0  0  0  0  0  0
   42.3282    5.6431   11.8621 Mg  0  0  0  0  0 15  0  0  0  0  0  0
   42.0479    5.9044   11.7554 O   0  0  0  0  0  0  0  0  0  0  0  0
   42.0336    5.8937   11.7690 O   0  0  0  0  0  0  0  0  0  0  0  0
   42.0288    5.8897   11.7738 O   0  0  0  0  0  0  0  0  0  0  0  0
   42.3282    5.6431   11.8621 Cl  0  0  0  0  0  0  0  0  0  0  0  0
   42.3282    5.6431   11.8621 Cl  0  0  0  0  0  0  0  0  0  0  0  0
   42.0522    5.9074   11.7515 O   0  0  0  0  0  0  0  0  0  0  0  0
   42.0433    5.9011   11.7597 O   0  0  0  0  0  0  0  0  0  0  0  0
   41.9535    5.1693   12.3695 H   0  0  0  0  0  0  0  0  0  0  0  0
   42.9779    5.8521   11.4661 H   0  0  0  0  0  0  0  0  0  0  0  0
   41.9671    5.1608   12.3713 H   0  0  0  0  0  0  0  0  0  0  0  0
   42.9697    5.8642   11.4595 H   0  0  0  0  0  0  0  0  0  0  0  0
   42.0054    5.1384   12.3754 H   0  0  0  0  0  0  0  0  0  0  0  0
   42.9457    5.8973   11.4418 H   0  0  0  0  0  0  0  0  0  0  0  0
   42.9368    5.9087   11.4360 H   0  0  0  0  0  0  0  0  0  0  0  0
   42.0191    5.1310   12.3764 H   0  0  0  0  0  0  0  0  0  0  0  0
   42.9763    5.8546   11.4647 H   0  0  0  0  0  0  0  0  0  0  0  0
   41.9564    5.1675   12.3699 H   0  0  0  0  0  0  0  0  0  0  0  0
   42.9624    5.8747   11.4537 H   0  0  0  0  0  0  0  0  0  0  0  0
   41.9791    5.1536   12.3728 H   0  0  0  0  0  0  0  0  0  0  0  0
  1 10  1  0
  1 11  1  0
  3 12  1  0
  3 13  1  0
  4 14  1  0
  4 15  1  0
  5 16  1  0
  5 17  1  0
  8 18  1  0
  8 19  1  0
  9 20  1  0
  9 21  1  0
M  CHG  3   2   2   6  -1   7  -1
M  END
> <Uni-Dock RESULT> 
ENERGY=   -4.647  LOWER_BOUND=    7.317  UPPER_BOUND=    7.317
INTER + INTRA:          -4.647
INTER:                  -4.647
INTRA:                   0.000
UNBOUND:                 0.000

$$$$

     RDKit          3D

 21 12  0  0  0  0  0  0  0  0999 V2000
   46.9064    4.2883    7.3005 O   0  0  0  0  0  0  0  0  0  0  0  0
   46.7585    3.9670    7.1184 Mg  0  0  0  0  0 15  0  0  0  0  0  0
   46.8989    4.2907    7.3023 O   0  0  0  0  0  0  0  0  0  0  0  0
   46.8777    4.2965    7.3068 O   0  0  0  0  0  0  0  0  0  0  0  0
   46.8701    4.2983    7.3083 O   0  0  0  0  0  0  0  0  0  0  0  0
   46.7585    3.9670    7.1184 Cl  0  0  0  0  0  0  0  0  0  0  0  0
   46.7585    3.9670    7.1184 Cl  0  0  0  0  0  0  0  0  0  0  0  0
   46.9049    4.2888    7.3009 O   0  0  0  0  0  0  0  0  0  0  0  0
   46.8922    4.2926    7.3038 O   0  0  0  0  0  0  0  0  0  0  0  0
   45.9766    4.0357    7.1977 H   0  0  0  0  0  0  0  0  0  0  0  0
   47.3927    3.5770    6.8570 H   0  0  0  0  0  0  0  0  0  0  0  0
   45.9748    4.0219    7.1896 H   0  0  0  0  0  0  0  0  0  0  0  0
   47.4020    3.5885    6.8633 H   0  0  0  0  0  0  0  0  0  0  0  0
   45.9713    3.9836    7.1672 H   0  0  0  0  0  0  0  0  0  0  0  0
   47.4267    3.6209    6.8812 H   0  0  0  0  0  0  0  0  0  0  0  0
   47.4349    3.6326    6.8877 H   0  0  0  0  0  0  0  0  0  0  0  0
   45.9707    3.9702    7.1593 H   0  0  0  0  0  0  0  0  0  0  0  0
   47.3946    3.5794    6.8583 H   0  0  0  0  0  0  0  0  0  0  0  0
   45.9762    4.0329    7.1960 H   0  0  0  0  0  0  0  0  0  0  0  0
   47.4101    3.5986    6.8689 H   0  0  0  0  0  0  0  0  0  0  0  0
   45.9734    4.0099    7.1826 H   0  0  0  0  0  0  0  0  0  0  0  0
  1 10  1  0
  1 11  1  0
  3 12  1  0
  3 13  1  0
  4 14  1  0
  4 15  1  0
  5 16  1  0
  5 17  1  0
  8 18  1  0
  8 19  1  0
  9 20  1  0
  9 21  1  0
M  CHG  3   2   2   6  -1   7  -1
M  END
> <Uni-Dock RESULT> 
ENERGY=   -4.548  LOWER_BOUND=    8.264  UPPER_BOUND=    8.265
INTER + INTRA:          -4.548
INTER:                  -4.548
INTRA:                   0.000
UNBOUND:                 0.000

$$$$

     RDKit          3D

 21 12  0  0  0  0  0  0  0  0999 V2000
   46.8068    2.7733   17.6721 O   0  0  0  0  0  0  0  0  0  0  0  0
   47.0452    3.0568   17.5271 Mg  0  0  0  0  0 15  0  0  0  0  0  0
   46.8102    2.7679   17.6670 O   0  0  0  0  0  0  0  0  0  0  0  0
   46.8200    2.7538   17.6526 O   0  0  0  0  0  0  0  0  0  0  0  0
   46.8236    2.7491   17.6474 O   0  0  0  0  0  0  0  0  0  0  0  0
   47.0452    3.0568   17.5271 Cl  0  0  0  0  0  0  0  0  0  0  0  0
   47.0452    3.0568   17.5271 Cl  0  0  0  0  0  0  0  0  0  0  0  0
   46.8075    2.7722   17.6711 O   0  0  0  0  0  0  0  0  0  0  0  0
   46.8132    2.7634   17.6625 O   0  0  0  0  0  0  0  0  0  0  0  0
   47.4768    2.6915   16.9769 H   0  0  0  0  0  0  0  0  0  0  0  0
   46.8518    3.7056   17.9322 H   0  0  0  0  0  0  0  0  0  0  0  0
   47.4844    2.7054   16.9739 H   0  0  0  0  0  0  0  0  0  0  0  0
   46.8409    3.6971   17.9403 H   0  0  0  0  0  0  0  0  0  0  0  0
   47.5044    2.7445   16.9667 H   0  0  0  0  0  0  0  0  0  0  0  0
   46.8111    3.6721   17.9619 H   0  0  0  0  0  0  0  0  0  0  0  0
   46.8008    3.6629   17.9692 H   0  0  0  0  0  0  0  0  0  0  0  0
   47.5111    2.7585   16.9646 H   0  0  0  0  0  0  0  0  0  0  0  0
   46.8496    3.7039   17.9339 H   0  0  0  0  0  0  0  0  0  0  0  0
   47.4784    2.6944   16.9763 H   0  0  0  0  0  0  0  0  0  0  0  0
   46.8314    3.6894   17.9473 H   0  0  0  0  0  0  0  0  0  0  0  0
   47.4909    2.7176   16.9714 H   0  0  0  0  0  0  0  0  0  0  0  0
  1 10  1  0
  1 11  1  0
  3 12  1  0
  3 13  1  0
  4 14  1  0
  4 15  1  0
  5 16  1  0
  5 17  1  0
  8 18  1  0
  8 19  1  0
  9 20  1  0
  9 21  1  0
M  CHG  3   2   2   6  -1   7  -1
M  END
> <Uni-Dock RESULT> 
ENERGY=   -4.265  LOWER_BOUND=   14.439  UPPER_BOUND=   14.443
INTER + INTRA:          -4.265
INTER:                  -4.265
INTRA:                   0.000
UNBOUND:                 0.000

$$$$
