
     RDKit          3D

 21 12  0  0  0  0  0  0  0  0999 V2000
   38.7163    3.4778    5.7558 O   0  0  0  0  0  0  0  0  0  0  0  0
   38.8195    3.8233    5.5877 Mg  0  0  0  0  0 15  0  0  0  0  0  0
   38.7237    3.4808    5.7659 O   0  0  0  0  0  0  0  0  0  0  0  0
   38.7172    3.4781    5.7570 O   0  0  0  0  0  0  0  0  0  0  0  0
   38.7280    3.4826    5.7716 O   0  0  0  0  0  0  0  0  0  0  0  0
   38.8195    3.8233    5.5877 Cl  0  0  0  0  0  0  0  0  0  0  0  0
   38.8195    3.8233    5.5877 Cl  0  0  0  0  0  0  0  0  0  0  0  0
   38.7192    3.4789    5.7599 O   0  0  0  0  0  0  0  0  0  0  0  0
   38.7317    3.4843    5.7766 O   0  0  0  0  0  0  0  0  0  0  0  0
   38.4367    3.8311    4.8980 H   0  0  0  0  0  0  0  0  0  0  0  0
   39.3057    4.1609    6.1094 H   0  0  0  0  0  0  0  0  0  0  0  0
   39.3081    4.1806    6.0937 H   0  0  0  0  0  0  0  0  0  0  0  0
   38.4268    3.8085    4.9036 H   0  0  0  0  0  0  0  0  0  0  0  0
   39.3060    4.1632    6.1076 H   0  0  0  0  0  0  0  0  0  0  0  0
   38.4355    3.8285    4.8986 H   0  0  0  0  0  0  0  0  0  0  0  0
   39.3093    4.1919    6.0844 H   0  0  0  0  0  0  0  0  0  0  0  0
   38.4213    3.7953    4.9072 H   0  0  0  0  0  0  0  0  0  0  0  0
   39.3067    4.1688    6.1032 H   0  0  0  0  0  0  0  0  0  0  0  0
   38.4327    3.8220    4.9002 H   0  0  0  0  0  0  0  0  0  0  0  0
   38.4166    3.7837    4.9106 H   0  0  0  0  0  0  0  0  0  0  0  0
   39.3103    4.2018    6.0760 H   0  0  0  0  0  0  0  0  0  0  0  0
  1 10  1  0
  1 11  1  0
  3 12  1  0
  3 13  1  0
  4 14  1  0
  4 15  1  0
  5 16  1  0
  5 17  1  0
  8 18  1  0
  8 19  1  0
  9 20  1  0
  9 21  1  0
M  CHG  3   2   2   6  -1   7  -1
M  END
> <Uni-Dock RESULT> 
ENERGY=   -6.295  LOWER_BOUND=    0.000  UPPER_BOUND=    0.000
INTER + INTRA:          -6.295
INTER:                  -6.295
INTRA:                   0.000
UNBOUND:                 0.000

$$$$

     RDKit          3D

 21 12  0  0  0  0  0  0  0  0999 V2000
   46.7551   -0.2389    7.7596 O   0  0  0  0  0  0  0  0  0  0  0  0
   46.8126    0.1342    7.6342 Mg  0  0  0  0  0 15  0  0  0  0  0  0
   46.7448   -0.2397    7.7520 O   0  0  0  0  0  0  0  0  0  0  0  0
   46.7539   -0.2390    7.7587 O   0  0  0  0  0  0  0  0  0  0  0  0
   46.7389   -0.2399    7.7476 O   0  0  0  0  0  0  0  0  0  0  0  0
   46.8126    0.1342    7.6342 Cl  0  0  0  0  0  0  0  0  0  0  0  0
   46.8126    0.1342    7.6342 Cl  0  0  0  0  0  0  0  0  0  0  0  0
   46.7510   -0.2393    7.7566 O   0  0  0  0  0  0  0  0  0  0  0  0
   46.7337   -0.2401    7.7436 O   0  0  0  0  0  0  0  0  0  0  0  0
   47.4569    0.3765    8.0195 H   0  0  0  0  0  0  0  0  0  0  0  0
   46.2257    0.2650    7.1234 H   0  0  0  0  0  0  0  0  0  0  0  0
   46.2347    0.2884    7.1196 H   0  0  0  0  0  0  0  0  0  0  0  0
   47.4582    0.3539    8.0308 H   0  0  0  0  0  0  0  0  0  0  0  0
   46.2267    0.2677    7.1229 H   0  0  0  0  0  0  0  0  0  0  0  0
   47.4571    0.3739    8.0209 H   0  0  0  0  0  0  0  0  0  0  0  0
   46.2402    0.3018    7.1177 H   0  0  0  0  0  0  0  0  0  0  0  0
   47.4587    0.3406    8.0372 H   0  0  0  0  0  0  0  0  0  0  0  0
   46.2292    0.2744    7.1218 H   0  0  0  0  0  0  0  0  0  0  0  0
   47.4575    0.3674    8.0241 H   0  0  0  0  0  0  0  0  0  0  0  0
   47.4588    0.3288    8.0427 H   0  0  0  0  0  0  0  0  0  0  0  0
   46.2452    0.3137    7.1162 H   0  0  0  0  0  0  0  0  0  0  0  0
  1 10  1  0
  1 11  1  0
  3 12  1  0
  3 13  1  0
  4 14  1  0
  4 15  1  0
  5 16  1  0
  5 17  1  0
  8 18  1  0
  8 19  1  0
  9 20  1  0
  9 21  1  0
M  CHG  3   2   2   6  -1   7  -1
M  END
> <Uni-Dock RESULT> 
ENERGY=   -6.174  LOWER_BOUND=    9.050  UPPER_BOUND=    9.056
INTER + INTRA:          -6.174
INTER:                  -6.174
INTRA:                   0.000
UNBOUND:                 0.000

$$$$

     RDKit          3D

 21 12  0  0  0  0  0  0  0  0999 V2000
   40.0432    4.7812    5.1915 O   0  0  0  0  0  0  0  0  0  0  0  0
   39.8784    5.1336    5.1085 Mg  0  0  0  0  0 15  0  0  0  0  0  0
   40.0540    4.7853    5.1861 O   0  0  0  0  0  0  0  0  0  0  0  0
   40.0444    4.7817    5.1909 O   0  0  0  0  0  0  0  0  0  0  0  0
   40.0602    4.7878    5.1829 O   0  0  0  0  0  0  0  0  0  0  0  0
   39.8784    5.1336    5.1085 Cl  0  0  0  0  0  0  0  0  0  0  0  0
   39.8784    5.1336    5.1085 Cl  0  0  0  0  0  0  0  0  0  0  0  0
   40.0475    4.7828    5.1894 O   0  0  0  0  0  0  0  0  0  0  0  0
   40.0657    4.7900    5.1801 O   0  0  0  0  0  0  0  0  0  0  0  0
   39.1422    5.0795    5.3869 H   0  0  0  0  0  0  0  0  0  0  0  0
   40.4498    5.5402    4.7471 H   0  0  0  0  0  0  0  0  0  0  0  0
   40.4339    5.5598    4.7449 H   0  0  0  0  0  0  0  0  0  0  0  0
   39.1472    5.0559    5.3946 H   0  0  0  0  0  0  0  0  0  0  0  0
   40.4480    5.5425    4.7468 H   0  0  0  0  0  0  0  0  0  0  0  0
   39.1427    5.0768    5.3878 H   0  0  0  0  0  0  0  0  0  0  0  0
   40.4244    5.5709    4.7437 H   0  0  0  0  0  0  0  0  0  0  0  0
   39.1505    5.0422    5.3989 H   0  0  0  0  0  0  0  0  0  0  0  0
   40.4435    5.5481    4.7462 H   0  0  0  0  0  0  0  0  0  0  0  0
   39.1442    5.0700    5.3900 H   0  0  0  0  0  0  0  0  0  0  0  0
   39.1537    5.0302    5.4026 H   0  0  0  0  0  0  0  0  0  0  0  0
   40.4158    5.5807    4.7428 H   0  0  0  0  0  0  0  0  0  0  0  0
  1 10  1  0
  1 11  1  0
  3 12  1  0
  3 13  1  0
  4 14  1  0
  4 15  1  0
  5 16  1  0
  5 17  1  0
  8 18  1  0
  8 19  1  0
  9 20  1  0
  9 21  1  0
M  CHG  3   2   2   6  -1   7  -1
M  END
> <Uni-Dock RESULT> 
ENERGY=   -5.446  LOWER_BOUND=    1.883  UPPER_BOUND=    1.886
INTER + INTRA:          -5.446
INTER:                  -5.446
INTRA:                   0.000
UNBOUND:                 0.000

$$$$

     RDKit          3D

 21 12  0  0  0  0  0  0  0  0999 V2000
   48.0605    1.5385    7.0798 O   0  0  0  0  0  0  0  0  0  0  0  0
   47.6851    1.4507    6.9818 Mg  0  0  0  0  0 15  0  0  0  0  0  0
   48.0642    1.5348    7.0681 O   0  0  0  0  0  0  0  0  0  0  0  0
   48.0609    1.5381    7.0784 O   0  0  0  0  0  0  0  0  0  0  0  0
   48.0661    1.5325    7.0613 O   0  0  0  0  0  0  0  0  0  0  0  0
   47.6851    1.4507    6.9818 Cl  0  0  0  0  0  0  0  0  0  0  0  0
   47.6851    1.4507    6.9818 Cl  0  0  0  0  0  0  0  0  0  0  0  0
   48.0620    1.5371    7.0751 O   0  0  0  0  0  0  0  0  0  0  0  0
   48.0678    1.5306    7.0553 O   0  0  0  0  0  0  0  0  0  0  0  0
   47.2647    1.6297    7.6250 H   0  0  0  0  0  0  0  0  0  0  0  0
   47.7300    1.1839    6.2408 H   0  0  0  0  0  0  0  0  0  0  0  0
   47.7049    1.1805    6.2409 H   0  0  0  0  0  0  0  0  0  0  0  0
   47.2861    1.6369    7.6365 H   0  0  0  0  0  0  0  0  0  0  0  0
   47.7271    1.1835    6.2407 H   0  0  0  0  0  0  0  0  0  0  0  0
   47.2671    1.6306    7.6264 H   0  0  0  0  0  0  0  0  0  0  0  0
   47.6903    1.1786    6.2413 H   0  0  0  0  0  0  0  0  0  0  0  0
   47.2987    1.6410    7.6429 H   0  0  0  0  0  0  0  0  0  0  0  0
   47.7199    1.1825    6.2407 H   0  0  0  0  0  0  0  0  0  0  0  0
   47.2732    1.6326    7.6297 H   0  0  0  0  0  0  0  0  0  0  0  0
   47.3100    1.6446    7.6483 H   0  0  0  0  0  0  0  0  0  0  0  0
   47.6774    1.1771    6.2419 H   0  0  0  0  0  0  0  0  0  0  0  0
  1 10  1  0
  1 11  1  0
  3 12  1  0
  3 13  1  0
  4 14  1  0
  4 15  1  0
  5 16  1  0
  5 17  1  0
  8 18  1  0
  8 19  1  0
  9 20  1  0
  9 21  1  0
M  CHG  3   2   2   6  -1   7  -1
M  END
> <Uni-Dock RESULT> 
ENERGY=   -5.363  LOWER_BOUND=    9.514  UPPER_BOUND=    9.516
INTER + INTRA:          -5.363
INTER:                  -5.363
INTRA:                   0.000
UNBOUND:                 0.000

$$$$

     RDKit          3D

 21 12  0  0  0  0  0  0  0  0999 V2000
   48.2580    1.9708    5.7055 O   0  0  0  0  0  0  0  0  0  0  0  0
   48.0758    2.0917    6.0378 Mg  0  0  0  0  0 15  0  0  0  0  0  0
   48.2514    1.9598    5.7062 O   0  0  0  0  0  0  0  0  0  0  0  0
   48.2572    1.9695    5.7056 O   0  0  0  0  0  0  0  0  0  0  0  0
   48.2476    1.9535    5.7067 O   0  0  0  0  0  0  0  0  0  0  0  0
   48.0758    2.0917    6.0378 Cl  0  0  0  0  0  0  0  0  0  0  0  0
   48.0758    2.0917    6.0378 Cl  0  0  0  0  0  0  0  0  0  0  0  0
   48.2554    1.9664    5.7057 O   0  0  0  0  0  0  0  0  0  0  0  0
   48.2441    1.9480    5.7072 O   0  0  0  0  0  0  0  0  0  0  0  0
   48.3688    2.8113    6.1747 H   0  0  0  0  0  0  0  0  0  0  0  0
   47.6007    1.4930    6.2333 H   0  0  0  0  0  0  0  0  0  0  0  0
   47.5929    1.5063    6.2534 H   0  0  0  0  0  0  0  0  0  0  0  0
   48.3831    2.8090    6.1539 H   0  0  0  0  0  0  0  0  0  0  0  0
   47.5997    1.4945    6.2356 H   0  0  0  0  0  0  0  0  0  0  0  0
   48.3705    2.8111    6.1723 H   0  0  0  0  0  0  0  0  0  0  0  0
   47.5886    1.5142    6.2650 H   0  0  0  0  0  0  0  0  0  0  0  0
   48.3913    2.8074    6.1418 H   0  0  0  0  0  0  0  0  0  0  0  0
   47.5975    1.4982    6.2414 H   0  0  0  0  0  0  0  0  0  0  0  0
   48.3746    2.8105    6.1664 H   0  0  0  0  0  0  0  0  0  0  0  0
   48.3983    2.8056    6.1310 H   0  0  0  0  0  0  0  0  0  0  0  0
   47.5849    1.5214    6.2752 H   0  0  0  0  0  0  0  0  0  0  0  0
  1 10  1  0
  1 11  1  0
  3 12  1  0
  3 13  1  0
  4 14  1  0
  4 15  1  0
  5 16  1  0
  5 17  1  0
  8 18  1  0
  8 19  1  0
  9 20  1  0
  9 21  1  0
M  CHG  3   2   2   6  -1   7  -1
M  END
> <Uni-Dock RESULT> 
ENERGY=   -5.293  LOWER_BOUND=    9.573  UPPER_BOUND=    9.576
INTER + INTRA:          -5.293
INTER:                  -5.293
INTRA:                   0.000
UNBOUND:                 0.000

$$$$

     RDKit          3D

 21 12  0  0  0  0  0  0  0  0999 V2000
   40.6350   12.0915   15.8777 O   0  0  0  0  0  0  0  0  0  0  0  0
   40.3675   12.3233   15.6963 Mg  0  0  0  0  0 15  0  0  0  0  0  0
   40.6424   12.0922   15.8673 O   0  0  0  0  0  0  0  0  0  0  0  0
   40.6359   12.0916   15.8765 O   0  0  0  0  0  0  0  0  0  0  0  0
   40.6465   12.0927   15.8611 O   0  0  0  0  0  0  0  0  0  0  0  0
   40.3675   12.3233   15.6963 Cl  0  0  0  0  0  0  0  0  0  0  0  0
   40.3675   12.3233   15.6963 Cl  0  0  0  0  0  0  0  0  0  0  0  0
   40.6380   12.0917   15.8736 O   0  0  0  0  0  0  0  0  0  0  0  0
   40.6501   12.0932   15.8557 O   0  0  0  0  0  0  0  0  0  0  0  0
   39.7866   12.4067   16.2235 H   0  0  0  0  0  0  0  0  0  0  0  0
   40.6809   12.4718   14.9877 H   0  0  0  0  0  0  0  0  0  0  0  0
   40.6605   12.4857   14.9820 H   0  0  0  0  0  0  0  0  0  0  0  0
   39.7995   12.3921   16.2396 H   0  0  0  0  0  0  0  0  0  0  0  0
   40.6786   12.4734   14.9870 H   0  0  0  0  0  0  0  0  0  0  0  0
   39.7880   12.4050   16.2254 H   0  0  0  0  0  0  0  0  0  0  0  0
   40.6486   12.4937   14.9791 H   0  0  0  0  0  0  0  0  0  0  0  0
   39.8074   12.3836   16.2487 H   0  0  0  0  0  0  0  0  0  0  0  0
   40.6728   12.4774   14.9853 H   0  0  0  0  0  0  0  0  0  0  0  0
   39.7917   12.4009   16.2300 H   0  0  0  0  0  0  0  0  0  0  0  0
   39.8145   12.3761   16.2565 H   0  0  0  0  0  0  0  0  0  0  0  0
   40.6379   12.5008   14.9767 H   0  0  0  0  0  0  0  0  0  0  0  0
  1 10  1  0
  1 11  1  0
  3 12  1  0
  3 13  1  0
  4 14  1  0
  4 15  1  0
  5 16  1  0
  5 17  1  0
  8 18  1  0
  8 19  1  0
  9 20  1  0
  9 21  1  0
M  CHG  3   2   2   6  -1   7  -1
M  END
> <Uni-Dock RESULT> 
ENERGY=   -5.078  LOWER_BOUND=   13.370  UPPER_BOUND=   13.375
INTER + INTRA:          -5.078
INTER:                  -5.078
INTRA:                   0.000
UNBOUND:                 0.000

$$$$

     RDKit          3D

 21 12  0  0  0  0  0  0  0  0999 V2000
   42.0298    5.9174   11.7650 O   0  0  0  0  0  0  0  0  0  0  0  0
   42.3238    5.6590   11.8359 Mg  0  0  0  0  0 15  0  0  0  0  0  0
   42.0385    5.9269   11.7649 O   0  0  0  0  0  0  0  0  0  0  0  0
   42.0308    5.9186   11.7650 O   0  0  0  0  0  0  0  0  0  0  0  0
   42.0436    5.9323   11.7648 O   0  0  0  0  0  0  0  0  0  0  0  0
   42.3238    5.6590   11.8359 Cl  0  0  0  0  0  0  0  0  0  0  0  0
   42.3238    5.6590   11.8359 Cl  0  0  0  0  0  0  0  0  0  0  0  0
   42.0332    5.9213   11.7649 O   0  0  0  0  0  0  0  0  0  0  0  0
   42.0481    5.9369   11.7648 O   0  0  0  0  0  0  0  0  0  0  0  0
   41.9655    4.9577   11.8814 H   0  0  0  0  0  0  0  0  0  0  0  0
   42.9762    6.1019   11.8611 H   0  0  0  0  0  0  0  0  0  0  0  0
   42.9898    6.0810   11.8656 H   0  0  0  0  0  0  0  0  0  0  0  0
   41.9433    4.9691   11.8771 H   0  0  0  0  0  0  0  0  0  0  0  0
   42.9778    6.0995   11.8617 H   0  0  0  0  0  0  0  0  0  0  0  0
   41.9629    4.9589   11.8809 H   0  0  0  0  0  0  0  0  0  0  0  0
   42.9973    6.0687   11.8681 H   0  0  0  0  0  0  0  0  0  0  0  0
   41.9306    4.9761   11.8746 H   0  0  0  0  0  0  0  0  0  0  0  0
   42.9818    6.0936   11.8629 H   0  0  0  0  0  0  0  0  0  0  0  0
   41.9565    4.9622   11.8797 H   0  0  0  0  0  0  0  0  0  0  0  0
   41.9195    4.9825   11.8724 H   0  0  0  0  0  0  0  0  0  0  0  0
   43.0038    6.0576   11.8704 H   0  0  0  0  0  0  0  0  0  0  0  0
  1 10  1  0
  1 11  1  0
  3 12  1  0
  3 13  1  0
  4 14  1  0
  4 15  1  0
  5 16  1  0
  5 17  1  0
  8 18  1  0
  8 19  1  0
  9 20  1  0
  9 21  1  0
M  CHG  3   2   2   6  -1   7  -1
M  END
> <Uni-Dock RESULT> 
ENERGY=   -4.648  LOWER_BOUND=    7.313  UPPER_BOUND=    7.317
INTER + INTRA:          -4.648
INTER:                  -4.648
INTRA:                   0.000
UNBOUND:                 0.000

$$$$

     RDKit          3D

 21 12  0  0  0  0  0  0  0  0999 V2000
   40.8960    1.9182   22.2855 O   0  0  0  0  0  0  0  0  0  0  0  0
   40.5897    1.7206   22.1260 Mg  0  0  0  0  0 15  0  0  0  0  0  0
   40.8883    1.9283   22.2872 O   0  0  0  0  0  0  0  0  0  0  0  0
   40.8951    1.9194   22.2857 O   0  0  0  0  0  0  0  0  0  0  0  0
   40.8837    1.9340   22.2881 O   0  0  0  0  0  0  0  0  0  0  0  0
   40.5897    1.7206   22.1260 Cl  0  0  0  0  0  0  0  0  0  0  0  0
   40.5897    1.7206   22.1260 Cl  0  0  0  0  0  0  0  0  0  0  0  0
   40.8930    1.9222   22.2862 O   0  0  0  0  0  0  0  0  0  0  0  0
   40.8796    1.9390   22.2889 O   0  0  0  0  0  0  0  0  0  0  0  0
   40.8849    1.0133   21.9392 H   0  0  0  0  0  0  0  0  0  0  0  0
   39.9882    2.2304   22.1534 H   0  0  0  0  0  0  0  0  0  0  0  0
   39.9734    2.2129   22.1427 H   0  0  0  0  0  0  0  0  0  0  0  0
   40.9073    1.0207   21.9482 H   0  0  0  0  0  0  0  0  0  0  0  0
   39.9865    2.2284   22.1522 H   0  0  0  0  0  0  0  0  0  0  0  0
   40.8875    1.0141   21.9402 H   0  0  0  0  0  0  0  0  0  0  0  0
   39.9651    2.2026   22.1365 H   0  0  0  0  0  0  0  0  0  0  0  0
   40.9203    1.0253   21.9535 H   0  0  0  0  0  0  0  0  0  0  0  0
   39.9822    2.2235   22.1491 H   0  0  0  0  0  0  0  0  0  0  0  0
   40.8939    1.0162   21.9428 H   0  0  0  0  0  0  0  0  0  0  0  0
   40.9315    1.0297   21.9583 H   0  0  0  0  0  0  0  0  0  0  0  0
   39.9579    2.1932   22.1309 H   0  0  0  0  0  0  0  0  0  0  0  0
  1 10  1  0
  1 11  1  0
  3 12  1  0
  3 13  1  0
  4 14  1  0
  4 15  1  0
  5 16  1  0
  5 17  1  0
  8 18  1  0
  8 19  1  0
  9 20  1  0
  9 21  1  0
M  CHG  3   2   2   6  -1   7  -1
M  END
> <Uni-Dock RESULT> 
ENERGY=   -4.604  LOWER_BOUND=   16.746  UPPER_BOUND=   16.746
INTER + INTRA:          -4.604
INTER:                  -4.604
INTRA:                   0.000
UNBOUND:                 0.000

$$$$

     RDKit          3D

 21 12  0  0  0  0  0  0  0  0999 V2000
   46.7466    4.0394    6.8564 O   0  0  0  0  0  0  0  0  0  0  0  0
   46.7108    4.0237    7.2523 Mg  0  0  0  0  0 15  0  0  0  0  0  0
   46.7565    4.0475    6.8579 O   0  0  0  0  0  0  0  0  0  0  0  0
   46.7478    4.0404    6.8566 O   0  0  0  0  0  0  0  0  0  0  0  0
   46.7621    4.0522    6.8589 O   0  0  0  0  0  0  0  0  0  0  0  0
   46.7108    4.0237    7.2523 Cl  0  0  0  0  0  0  0  0  0  0  0  0
   46.7108    4.0237    7.2523 Cl  0  0  0  0  0  0  0  0  0  0  0  0
   46.7505    4.0426    6.8569 O   0  0  0  0  0  0  0  0  0  0  0  0
   46.7671    4.0562    6.8598 O   0  0  0  0  0  0  0  0  0  0  0  0
   46.1050    3.5343    7.3779 H   0  0  0  0  0  0  0  0  0  0  0  0
   47.2808    4.4975    7.5225 H   0  0  0  0  0  0  0  0  0  0  0  0
   47.2734    4.4923    7.5462 H   0  0  0  0  0  0  0  0  0  0  0  0
   46.1025    3.5314    7.3529 H   0  0  0  0  0  0  0  0  0  0  0  0
   47.2800    4.4970    7.5253 H   0  0  0  0  0  0  0  0  0  0  0  0
   46.1046    3.5339    7.3751 H   0  0  0  0  0  0  0  0  0  0  0  0
   47.2688    4.4891    7.5597 H   0  0  0  0  0  0  0  0  0  0  0  0
   46.1014    3.5300    7.3383 H   0  0  0  0  0  0  0  0  0  0  0  0
   47.2779    4.4955    7.5321 H   0  0  0  0  0  0  0  0  0  0  0  0
   46.1039    3.5331    7.3679 H   0  0  0  0  0  0  0  0  0  0  0  0
   46.1007    3.5289    7.3254 H   0  0  0  0  0  0  0  0  0  0  0  0
   47.2646    4.4860    7.5717 H   0  0  0  0  0  0  0  0  0  0  0  0
  1 10  1  0
  1 11  1  0
  3 12  1  0
  3 13  1  0
  4 14  1  0
  4 15  1  0
  5 16  1  0
  5 17  1  0
  8 18  1  0
  8 19  1  0
  9 20  1  0
  9 21  1  0
M  CHG  3   2   2   6  -1   7  -1
M  END
> <Uni-Dock RESULT> 
ENERGY=   -4.401  LOWER_BOUND=    8.101  UPPER_BOUND=    8.107
INTER + INTRA:          -4.401
INTER:                  -4.401
INTRA:                   0.000
UNBOUND:                 0.000

$$$$
