
     RDKit          3D

 21 12  0  0  0  0  0  0  0  0999 V2000
   46.7412   -0.2379    7.7556 O   0  0  0  0  0  0  0  0  0  0  0  0
   46.8137    0.1339    7.6341 Mg  0  0  0  0  0 15  0  0  0  0  0  0
   46.7509   -0.2415    7.7499 O   0  0  0  0  0  0  0  0  0  0  0  0
   46.7396   -0.2373    7.7565 O   0  0  0  0  0  0  0  0  0  0  0  0
   46.7487   -0.2407    7.7512 O   0  0  0  0  0  0  0  0  0  0  0  0
   46.8137    0.1339    7.6341 Cl  0  0  0  0  0  0  0  0  0  0  0  0
   46.8137    0.1339    7.6341 Cl  0  0  0  0  0  0  0  0  0  0  0  0
   46.7505   -0.2414    7.7502 O   0  0  0  0  0  0  0  0  0  0  0  0
   46.7426   -0.2385    7.7548 O   0  0  0  0  0  0  0  0  0  0  0  0
   47.4767    0.0789    7.2100 H   0  0  0  0  0  0  0  0  0  0  0  0
   46.2231    0.5607    7.9368 H   0  0  0  0  0  0  0  0  0  0  0  0
   46.2144    0.5412    7.9463 H   0  0  0  0  0  0  0  0  0  0  0  0
   47.4757    0.1020    7.2061 H   0  0  0  0  0  0  0  0  0  0  0  0
   46.2246    0.5638    7.9352 H   0  0  0  0  0  0  0  0  0  0  0  0
   47.4768    0.0752    7.2107 H   0  0  0  0  0  0  0  0  0  0  0  0
   47.4759    0.0969    7.2070 H   0  0  0  0  0  0  0  0  0  0  0  0
   46.2163    0.5455    7.9443 H   0  0  0  0  0  0  0  0  0  0  0  0
   46.2147    0.5420    7.9460 H   0  0  0  0  0  0  0  0  0  0  0  0
   47.4757    0.1011    7.2063 H   0  0  0  0  0  0  0  0  0  0  0  0
   46.2218    0.5578    7.9382 H   0  0  0  0  0  0  0  0  0  0  0  0
   47.4766    0.0823    7.2094 H   0  0  0  0  0  0  0  0  0  0  0  0
  1 10  1  0
  1 11  1  0
  3 12  1  0
  3 13  1  0
  4 14  1  0
  4 15  1  0
  5 16  1  0
  5 17  1  0
  8 18  1  0
  8 19  1  0
  9 20  1  0
  9 21  1  0
M  CHG  3   2   2   6  -1   7  -1
M  END
> <Uni-Dock RESULT> 
ENERGY=   -6.178  LOWER_BOUND=    0.000  UPPER_BOUND=    0.000
INTER + INTRA:          -6.178
INTER:                  -6.178
INTRA:                   0.000
UNBOUND:                 0.000

$$$$

     RDKit          3D

 21 12  0  0  0  0  0  0  0  0999 V2000
   40.0753    5.0064    5.1771 O   0  0  0  0  0  0  0  0  0  0  0  0
   39.7189    4.8381    5.2314 Mg  0  0  0  0  0 15  0  0  0  0  0  0
   40.0704    5.0170    5.1785 O   0  0  0  0  0  0  0  0  0  0  0  0
   40.0761    5.0046    5.1768 O   0  0  0  0  0  0  0  0  0  0  0  0
   40.0715    5.0146    5.1782 O   0  0  0  0  0  0  0  0  0  0  0  0
   39.7189    4.8381    5.2314 Cl  0  0  0  0  0  0  0  0  0  0  0  0
   39.7189    4.8381    5.2314 Cl  0  0  0  0  0  0  0  0  0  0  0  0
   40.0706    5.0165    5.1784 O   0  0  0  0  0  0  0  0  0  0  0  0
   40.0747    5.0079    5.1772 O   0  0  0  0  0  0  0  0  0  0  0  0
   39.2285    5.4449    5.3490 H   0  0  0  0  0  0  0  0  0  0  0  0
   39.8530    4.0632    5.1682 H   0  0  0  0  0  0  0  0  0  0  0  0
   39.8757    4.0678    5.1644 H   0  0  0  0  0  0  0  0  0  0  0  0
   39.2109    5.4297    5.3513 H   0  0  0  0  0  0  0  0  0  0  0  0
   39.8493    4.0625    5.1688 H   0  0  0  0  0  0  0  0  0  0  0  0
   39.2314    5.4473    5.3486 H   0  0  0  0  0  0  0  0  0  0  0  0
   39.2147    5.4331    5.3508 H   0  0  0  0  0  0  0  0  0  0  0  0
   39.8707    4.0668    5.1652 H   0  0  0  0  0  0  0  0  0  0  0  0
   39.8748    4.0676    5.1646 H   0  0  0  0  0  0  0  0  0  0  0  0
   39.2116    5.4303    5.3512 H   0  0  0  0  0  0  0  0  0  0  0  0
   39.8563    4.0639    5.1676 H   0  0  0  0  0  0  0  0  0  0  0  0
   39.2259    5.4427    5.3493 H   0  0  0  0  0  0  0  0  0  0  0  0
  1 10  1  0
  1 11  1  0
  3 12  1  0
  3 13  1  0
  4 14  1  0
  4 15  1  0
  5 16  1  0
  5 17  1  0
  8 18  1  0
  8 19  1  0
  9 20  1  0
  9 21  1  0
M  CHG  3   2   2   6  -1   7  -1
M  END
> <Uni-Dock RESULT> 
ENERGY=   -5.513  LOWER_BOUND=    8.860  UPPER_BOUND=    8.864
INTER + INTRA:          -5.513
INTER:                  -5.513
INTRA:                   0.000
UNBOUND:                 0.000

$$$$

     RDKit          3D

 21 12  0  0  0  0  0  0  0  0999 V2000
   48.2410    1.9447    5.7589 O   0  0  0  0  0  0  0  0  0  0  0  0
   48.0483    2.2908    5.7228 Mg  0  0  0  0  0 15  0  0  0  0  0  0
   48.2512    1.9502    5.7564 O   0  0  0  0  0  0  0  0  0  0  0  0
   48.2394    1.9438    5.7593 O   0  0  0  0  0  0  0  0  0  0  0  0
   48.2489    1.9490    5.7570 O   0  0  0  0  0  0  0  0  0  0  0  0
   48.0483    2.2908    5.7228 Cl  0  0  0  0  0  0  0  0  0  0  0  0
   48.0483    2.2908    5.7228 Cl  0  0  0  0  0  0  0  0  0  0  0  0
   48.2507    1.9500    5.7565 O   0  0  0  0  0  0  0  0  0  0  0  0
   48.2425    1.9454    5.7586 O   0  0  0  0  0  0  0  0  0  0  0  0
   48.6109    2.8138    5.5426 H   0  0  0  0  0  0  0  0  0  0  0  0
   47.2931    2.1140    5.8669 H   0  0  0  0  0  0  0  0  0  0  0  0
   47.2993    2.0916    5.8701 H   0  0  0  0  0  0  0  0  0  0  0  0
   48.5945    2.8306    5.5419 H   0  0  0  0  0  0  0  0  0  0  0  0
   47.2921    2.1176    5.8664 H   0  0  0  0  0  0  0  0  0  0  0  0
   48.6135    2.8111    5.5427 H   0  0  0  0  0  0  0  0  0  0  0  0
   48.5982    2.8269    5.5420 H   0  0  0  0  0  0  0  0  0  0  0  0
   47.2979    2.0965    5.8694 H   0  0  0  0  0  0  0  0  0  0  0  0
   47.2990    2.0925    5.8700 H   0  0  0  0  0  0  0  0  0  0  0  0
   48.5952    2.8299    5.5419 H   0  0  0  0  0  0  0  0  0  0  0  0
   47.2939    2.1107    5.8674 H   0  0  0  0  0  0  0  0  0  0  0  0
   48.6085    2.8163    5.5425 H   0  0  0  0  0  0  0  0  0  0  0  0
  1 10  1  0
  1 11  1  0
  3 12  1  0
  3 13  1  0
  4 14  1  0
  4 15  1  0
  5 16  1  0
  5 17  1  0
  8 18  1  0
  8 19  1  0
  9 20  1  0
  9 21  1  0
M  CHG  3   2   2   6  -1   7  -1
M  END
> <Uni-Dock RESULT> 
ENERGY=   -5.291  LOWER_BOUND=    3.257  UPPER_BOUND=    3.259
INTER + INTRA:          -5.291
INTER:                  -5.291
INTRA:                   0.000
UNBOUND:                 0.000

$$$$

     RDKit          3D

 21 12  0  0  0  0  0  0  0  0999 V2000
   40.6433   12.0963   15.8716 O   0  0  0  0  0  0  0  0  0  0  0  0
   40.3676   12.3233   15.6963 Mg  0  0  0  0  0 15  0  0  0  0  0  0
   40.6394   12.0870   15.8654 O   0  0  0  0  0  0  0  0  0  0  0  0
   40.6439   12.0978   15.8726 O   0  0  0  0  0  0  0  0  0  0  0  0
   40.6402   12.0891   15.8667 O   0  0  0  0  0  0  0  0  0  0  0  0
   40.3676   12.3233   15.6963 Cl  0  0  0  0  0  0  0  0  0  0  0  0
   40.3676   12.3233   15.6963 Cl  0  0  0  0  0  0  0  0  0  0  0  0
   40.6396   12.0874   15.8657 O   0  0  0  0  0  0  0  0  0  0  0  0
   40.6428   12.0949   15.8707 O   0  0  0  0  0  0  0  0  0  0  0  0
   39.9838   11.8322   15.2125 H   0  0  0  0  0  0  0  0  0  0  0  0
   40.4756   13.0413   16.0048 H   0  0  0  0  0  0  0  0  0  0  0  0
   40.4932   13.0327   16.0177 H   0  0  0  0  0  0  0  0  0  0  0  0
   39.9702   11.8500   15.2058 H   0  0  0  0  0  0  0  0  0  0  0  0
   40.4728   13.0427   16.0027 H   0  0  0  0  0  0  0  0  0  0  0  0
   39.9860   11.8293   15.2136 H   0  0  0  0  0  0  0  0  0  0  0  0
   39.9732   11.8461   15.2073 H   0  0  0  0  0  0  0  0  0  0  0  0
   40.4893   13.0347   16.0149 H   0  0  0  0  0  0  0  0  0  0  0  0
   40.4925   13.0331   16.0172 H   0  0  0  0  0  0  0  0  0  0  0  0
   39.9707   11.8493   15.2061 H   0  0  0  0  0  0  0  0  0  0  0  0
   40.4782   13.0401   16.0067 H   0  0  0  0  0  0  0  0  0  0  0  0
   39.9818   11.8347   15.2115 H   0  0  0  0  0  0  0  0  0  0  0  0
  1 10  1  0
  1 11  1  0
  3 12  1  0
  3 13  1  0
  4 14  1  0
  4 15  1  0
  5 16  1  0
  5 17  1  0
  8 18  1  0
  8 19  1  0
  9 20  1  0
  9 21  1  0
M  CHG  3   2   2   6  -1   7  -1
M  END
> <Uni-Dock RESULT> 
ENERGY=   -5.080  LOWER_BOUND=   15.971  UPPER_BOUND=   15.974
INTER + INTRA:          -5.080
INTER:                  -5.080
INTRA:                   0.000
UNBOUND:                 0.000

$$$$

     RDKit          3D

 21 12  0  0  0  0  0  0  0  0999 V2000
   40.8042    1.9001   21.9637 O   0  0  0  0  0  0  0  0  0  0  0  0
   40.7838    1.8191   22.3527 Mg  0  0  0  0  0 15  0  0  0  0  0  0
   40.8106    1.8903   21.9621 O   0  0  0  0  0  0  0  0  0  0  0  0
   40.8032    1.9017   21.9640 O   0  0  0  0  0  0  0  0  0  0  0  0
   40.8092    1.8924   21.9625 O   0  0  0  0  0  0  0  0  0  0  0  0
   40.7838    1.8191   22.3527 Cl  0  0  0  0  0  0  0  0  0  0  0  0
   40.7838    1.8191   22.3527 Cl  0  0  0  0  0  0  0  0  0  0  0  0
   40.8103    1.8907   21.9622 O   0  0  0  0  0  0  0  0  0  0  0  0
   40.8051    1.8987   21.9634 O   0  0  0  0  0  0  0  0  0  0  0  0
   41.1879    1.1468   22.4374 H   0  0  0  0  0  0  0  0  0  0  0  0
   40.3593    2.4105   22.6569 H   0  0  0  0  0  0  0  0  0  0  0  0
   40.3575    2.4197   22.6355 H   0  0  0  0  0  0  0  0  0  0  0  0
   41.1834    1.1474   22.4603 H   0  0  0  0  0  0  0  0  0  0  0  0
   40.3596    2.4089   22.6604 H   0  0  0  0  0  0  0  0  0  0  0  0
   41.1886    1.1468   22.4336 H   0  0  0  0  0  0  0  0  0  0  0  0
   41.1844    1.1472   22.4553 H   0  0  0  0  0  0  0  0  0  0  0  0
   40.3578    2.4177   22.6402 H   0  0  0  0  0  0  0  0  0  0  0  0
   40.3575    2.4194   22.6363 H   0  0  0  0  0  0  0  0  0  0  0  0
   41.1836    1.1474   22.4594 H   0  0  0  0  0  0  0  0  0  0  0  0
   40.3590    2.4118   22.6538 H   0  0  0  0  0  0  0  0  0  0  0  0
   41.1873    1.1469   22.4407 H   0  0  0  0  0  0  0  0  0  0  0  0
  1 10  1  0
  1 11  1  0
  3 12  1  0
  3 13  1  0
  4 14  1  0
  4 15  1  0
  5 16  1  0
  5 17  1  0
  8 18  1  0
  8 19  1  0
  9 20  1  0
  9 21  1  0
M  CHG  3   2   2   6  -1   7  -1
M  END
> <Uni-Dock RESULT> 
ENERGY=   -4.769  LOWER_BOUND=   15.697  UPPER_BOUND=   15.699
INTER + INTRA:          -4.769
INTER:                  -4.769
INTRA:                   0.000
UNBOUND:                 0.000

$$$$

     RDKit          3D

 21 12  0  0  0  0  0  0  0  0999 V2000
   42.0367    5.9255   11.7652 O   0  0  0  0  0  0  0  0  0  0  0  0
   42.3284    5.6623   11.8274 Mg  0  0  0  0  0 15  0  0  0  0  0  0
   42.0448    5.9338   11.7629 O   0  0  0  0  0  0  0  0  0  0  0  0
   42.0354    5.9241   11.7655 O   0  0  0  0  0  0  0  0  0  0  0  0
   42.0430    5.9319   11.7634 O   0  0  0  0  0  0  0  0  0  0  0  0
   42.3284    5.6623   11.8274 Cl  0  0  0  0  0  0  0  0  0  0  0  0
   42.3284    5.6623   11.8274 Cl  0  0  0  0  0  0  0  0  0  0  0  0
   42.0444    5.9334   11.7630 O   0  0  0  0  0  0  0  0  0  0  0  0
   42.0378    5.9267   11.7648 O   0  0  0  0  0  0  0  0  0  0  0  0
   42.9932    6.0714   11.7127 H   0  0  0  0  0  0  0  0  0  0  0  0
   41.9554    4.9900   12.0043 H   0  0  0  0  0  0  0  0  0  0  0  0
   41.9349    5.0011   12.0017 H   0  0  0  0  0  0  0  0  0  0  0  0
   43.0055    6.0521   11.7175 H   0  0  0  0  0  0  0  0  0  0  0  0
   41.9587    4.9882   12.0046 H   0  0  0  0  0  0  0  0  0  0  0  0
   42.9912    6.0745   11.7120 H   0  0  0  0  0  0  0  0  0  0  0  0
   43.0028    6.0564   11.7164 H   0  0  0  0  0  0  0  0  0  0  0  0
   41.9394    4.9986   12.0023 H   0  0  0  0  0  0  0  0  0  0  0  0
   41.9357    5.0006   12.0019 H   0  0  0  0  0  0  0  0  0  0  0  0
   43.0050    6.0529   11.7173 H   0  0  0  0  0  0  0  0  0  0  0  0
   41.9524    4.9916   12.0039 H   0  0  0  0  0  0  0  0  0  0  0  0
   42.9950    6.0687   11.7134 H   0  0  0  0  0  0  0  0  0  0  0  0
  1 10  1  0
  1 11  1  0
  3 12  1  0
  3 13  1  0
  4 14  1  0
  4 15  1  0
  5 16  1  0
  5 17  1  0
  8 18  1  0
  8 19  1  0
  9 20  1  0
  9 21  1  0
M  CHG  3   2   2   6  -1   7  -1
M  END
> <Uni-Dock RESULT> 
ENERGY=   -4.648  LOWER_BOUND=    8.579  UPPER_BOUND=    8.580
INTER + INTRA:          -4.648
INTER:                  -4.648
INTRA:                   0.000
UNBOUND:                 0.000

$$$$

     RDKit          3D

 21 12  0  0  0  0  0  0  0  0999 V2000
   46.8876    4.2954    7.3018 O   0  0  0  0  0  0  0  0  0  0  0  0
   46.7604    3.9671    7.1167 Mg  0  0  0  0  0 15  0  0  0  0  0  0
   46.8945    4.2887    7.3086 O   0  0  0  0  0  0  0  0  0  0  0  0
   46.8865    4.2965    7.3006 O   0  0  0  0  0  0  0  0  0  0  0  0
   46.8930    4.2902    7.3071 O   0  0  0  0  0  0  0  0  0  0  0  0
   46.7604    3.9671    7.1167 Cl  0  0  0  0  0  0  0  0  0  0  0  0
   46.7604    3.9671    7.1167 Cl  0  0  0  0  0  0  0  0  0  0  0  0
   46.8942    4.2890    7.3083 O   0  0  0  0  0  0  0  0  0  0  0  0
   46.8886    4.2945    7.3028 O   0  0  0  0  0  0  0  0  0  0  0  0
   47.1449    3.3768    7.4720 H   0  0  0  0  0  0  0  0  0  0  0  0
   46.2487    4.2289    6.5763 H   0  0  0  0  0  0  0  0  0  0  0  0
   46.2527    4.2508    6.5836 H   0  0  0  0  0  0  0  0  0  0  0  0
   47.1340    3.3617    7.4579 H   0  0  0  0  0  0  0  0  0  0  0  0
   46.2480    4.2254    6.5751 H   0  0  0  0  0  0  0  0  0  0  0  0
   47.1466    3.3793    7.4743 H   0  0  0  0  0  0  0  0  0  0  0  0
   47.1364    3.3650    7.4610 H   0  0  0  0  0  0  0  0  0  0  0  0
   46.2518    4.2460    6.5819 H   0  0  0  0  0  0  0  0  0  0  0  0
   46.2525    4.2500    6.5833 H   0  0  0  0  0  0  0  0  0  0  0  0
   47.1344    3.3623    7.4584 H   0  0  0  0  0  0  0  0  0  0  0  0
   46.2492    4.2322    6.5773 H   0  0  0  0  0  0  0  0  0  0  0  0
   47.1433    3.3746    7.4700 H   0  0  0  0  0  0  0  0  0  0  0  0
  1 10  1  0
  1 11  1  0
  3 12  1  0
  3 13  1  0
  4 14  1  0
  4 15  1  0
  5 16  1  0
  5 17  1  0
  8 18  1  0
  8 19  1  0
  9 20  1  0
  9 21  1  0
M  CHG  3   2   2   6  -1   7  -1
M  END
> <Uni-Dock RESULT> 
ENERGY=   -4.550  LOWER_BOUND=    4.338  UPPER_BOUND=    4.339
INTER + INTRA:          -4.550
INTER:                  -4.550
INTRA:                   0.000
UNBOUND:                 0.000

$$$$

     RDKit          3D

 21 12  0  0  0  0  0  0  0  0999 V2000
   46.8041    2.7814   17.6424 O   0  0  0  0  0  0  0  0  0  0  0  0
   47.1009    3.0371   17.5732 Mg  0  0  0  0  0 15  0  0  0  0  0  0
   46.7970    2.7905   17.6450 O   0  0  0  0  0  0  0  0  0  0  0  0
   46.8053    2.7799   17.6420 O   0  0  0  0  0  0  0  0  0  0  0  0
   46.7986    2.7885   17.6444 O   0  0  0  0  0  0  0  0  0  0  0  0
   47.1009    3.0371   17.5732 Cl  0  0  0  0  0  0  0  0  0  0  0  0
   47.1009    3.0371   17.5732 Cl  0  0  0  0  0  0  0  0  0  0  0  0
   46.7973    2.7901   17.6449 O   0  0  0  0  0  0  0  0  0  0  0  0
   46.8031    2.7827   17.6428 O   0  0  0  0  0  0  0  0  0  0  0  0
   46.7850    3.7483   17.7029 H   0  0  0  0  0  0  0  0  0  0  0  0
   47.7136    2.5816   17.3742 H   0  0  0  0  0  0  0  0  0  0  0  0
   47.7000    2.5627   17.3770 H   0  0  0  0  0  0  0  0  0  0  0  0
   46.8056    3.7580   17.6976 H   0  0  0  0  0  0  0  0  0  0  0  0
   47.7157    2.5847   17.3738 H   0  0  0  0  0  0  0  0  0  0  0  0
   46.7817    3.7467   17.7037 H   0  0  0  0  0  0  0  0  0  0  0  0
   46.8010    3.7560   17.6988 H   0  0  0  0  0  0  0  0  0  0  0  0
   47.7030    2.5669   17.3764 H   0  0  0  0  0  0  0  0  0  0  0  0
   47.7005    2.5634   17.3769 H   0  0  0  0  0  0  0  0  0  0  0  0
   46.8048    3.7577   17.6978 H   0  0  0  0  0  0  0  0  0  0  0  0
   47.7116    2.5788   17.3746 H   0  0  0  0  0  0  0  0  0  0  0  0
   46.7879    3.7498   17.7021 H   0  0  0  0  0  0  0  0  0  0  0  0
  1 10  1  0
  1 11  1  0
  3 12  1  0
  3 13  1  0
  4 14  1  0
  4 15  1  0
  5 16  1  0
  5 17  1  0
  8 18  1  0
  8 19  1  0
  9 20  1  0
  9 21  1  0
M  CHG  3   2   2   6  -1   7  -1
M  END
> <Uni-Dock RESULT> 
ENERGY=   -4.255  LOWER_BOUND=   10.346  UPPER_BOUND=   10.348
INTER + INTRA:          -4.255
INTER:                  -4.255
INTRA:                   0.000
UNBOUND:                 0.000

$$$$

     RDKit          3D

 21 12  0  0  0  0  0  0  0  0999 V2000
   44.6599    1.6120    9.0891 O   0  0  0  0  0  0  0  0  0  0  0  0
   44.9943    1.8239    9.0495 Mg  0  0  0  0  0 15  0  0  0  0  0  0
   44.6548    1.6189    9.0811 O   0  0  0  0  0  0  0  0  0  0  0  0
   44.6608    1.6109    9.0904 O   0  0  0  0  0  0  0  0  0  0  0  0
   44.6559    1.6174    9.0829 O   0  0  0  0  0  0  0  0  0  0  0  0
   44.9943    1.8239    9.0495 Cl  0  0  0  0  0  0  0  0  0  0  0  0
   44.9943    1.8239    9.0495 Cl  0  0  0  0  0  0  0  0  0  0  0  0
   44.6550    1.6186    9.0814 O   0  0  0  0  0  0  0  0  0  0  0  0
   44.6591    1.6129    9.0880 O   0  0  0  0  0  0  0  0  0  0  0  0
   44.8194    2.3723    8.5100 H   0  0  0  0  0  0  0  0  0  0  0  0
   45.5035    1.4873    9.5493 H   0  0  0  0  0  0  0  0  0  0  0  0
   45.4869    1.4719    9.5554 H   0  0  0  0  0  0  0  0  0  0  0  0
   44.8412    2.3807    8.5120 H   0  0  0  0  0  0  0  0  0  0  0  0
   45.5062    1.4898    9.5483 H   0  0  0  0  0  0  0  0  0  0  0  0
   44.8159    2.3709    8.5097 H   0  0  0  0  0  0  0  0  0  0  0  0
   44.8364    2.3789    8.5115 H   0  0  0  0  0  0  0  0  0  0  0  0
   45.4906    1.4753    9.5541 H   0  0  0  0  0  0  0  0  0  0  0  0
   45.4876    1.4725    9.5552 H   0  0  0  0  0  0  0  0  0  0  0  0
   44.8403    2.3804    8.5119 H   0  0  0  0  0  0  0  0  0  0  0  0
   45.5011    1.4850    9.5502 H   0  0  0  0  0  0  0  0  0  0  0  0
   44.8226    2.3736    8.5102 H   0  0  0  0  0  0  0  0  0  0  0  0
  1 10  1  0
  1 11  1  0
  3 12  1  0
  3 13  1  0
  4 14  1  0
  4 15  1  0
  5 16  1  0
  5 17  1  0
  8 18  1  0
  8 19  1  0
  9 20  1  0
  9 21  1  0
M  CHG  3   2   2   6  -1   7  -1
M  END
> <Uni-Dock RESULT> 
ENERGY=   -4.088  LOWER_BOUND=    3.016  UPPER_BOUND=    3.018
INTER + INTRA:          -4.088
INTER:                  -4.088
INTRA:                   0.000
UNBOUND:                 0.000

$$$$
