
     RDKit          3D

 21 12  0  0  0  0  0  0  0  0999 V2000
   38.7191    3.4836    5.7686 O   0  0  0  0  0  0  0  0  0  0  0  0
   38.8194    3.8231    5.5872 Mg  0  0  0  0  0 15  0  0  0  0  0  0
   38.7272    3.4750    5.7562 O   0  0  0  0  0  0  0  0  0  0  0  0
   38.7177    3.4852    5.7707 O   0  0  0  0  0  0  0  0  0  0  0  0
   38.7229    3.4794    5.7627 O   0  0  0  0  0  0  0  0  0  0  0  0
   38.8194    3.8231    5.5872 Cl  0  0  0  0  0  0  0  0  0  0  0  0
   38.8194    3.8231    5.5872 Cl  0  0  0  0  0  0  0  0  0  0  0  0
   38.7255    3.4767    5.7588 O   0  0  0  0  0  0  0  0  0  0  0  0
   38.7190    3.4836    5.7687 O   0  0  0  0  0  0  0  0  0  0  0  0
   38.5105    4.3898    6.0410 H   0  0  0  0  0  0  0  0  0  0  0  0
   39.2286    3.5960    4.9521 H   0  0  0  0  0  0  0  0  0  0  0  0
   38.4985    4.3657    6.0616 H   0  0  0  0  0  0  0  0  0  0  0  0
   39.2325    3.6287    4.9438 H   0  0  0  0  0  0  0  0  0  0  0  0
   39.2278    3.5903    4.9536 H   0  0  0  0  0  0  0  0  0  0  0  0
   38.5127    4.3939    6.0372 H   0  0  0  0  0  0  0  0  0  0  0  0
   39.2305    3.6116    4.9479 H   0  0  0  0  0  0  0  0  0  0  0  0
   38.5047    4.3784    6.0509 H   0  0  0  0  0  0  0  0  0  0  0  0
   38.5009    4.3707    6.0575 H   0  0  0  0  0  0  0  0  0  0  0  0
   39.2317    3.6220    4.9454 H   0  0  0  0  0  0  0  0  0  0  0  0
   38.5105    4.3900    6.0409 H   0  0  0  0  0  0  0  0  0  0  0  0
   39.2286    3.5958    4.9521 H   0  0  0  0  0  0  0  0  0  0  0  0
  1 10  1  0
  1 11  1  0
  3 12  1  0
  3 13  1  0
  4 14  1  0
  4 15  1  0
  5 16  1  0
  5 17  1  0
  8 18  1  0
  8 19  1  0
  9 20  1  0
  9 21  1  0
M  CHG  3   2   2   6  -1   7  -1
M  END
> <Uni-Dock RESULT> 
ENERGY=   -6.296  LOWER_BOUND=    0.000  UPPER_BOUND=    0.000
INTER + INTRA:          -6.296
INTER:                  -6.296
INTRA:                   0.000
UNBOUND:                 0.000

$$$$

     RDKit          3D

 21 12  0  0  0  0  0  0  0  0999 V2000
   46.7473   -0.2411    7.7467 O   0  0  0  0  0  0  0  0  0  0  0  0
   46.8121    0.1349    7.6341 Mg  0  0  0  0  0 15  0  0  0  0  0  0
   46.7463   -0.2357    7.7629 O   0  0  0  0  0  0  0  0  0  0  0  0
   46.7475   -0.2420    7.7438 O   0  0  0  0  0  0  0  0  0  0  0  0
   46.7468   -0.2386    7.7545 O   0  0  0  0  0  0  0  0  0  0  0  0
   46.8121    0.1349    7.6341 Cl  0  0  0  0  0  0  0  0  0  0  0  0
   46.8121    0.1349    7.6341 Cl  0  0  0  0  0  0  0  0  0  0  0  0
   46.7465   -0.2369    7.7596 O   0  0  0  0  0  0  0  0  0  0  0  0
   46.7473   -0.2412    7.7466 O   0  0  0  0  0  0  0  0  0  0  0  0
   46.8930    0.0968    6.8503 H   0  0  0  0  0  0  0  0  0  0  0  0
   46.7959    0.5490    8.3055 H   0  0  0  0  0  0  0  0  0  0  0  0
   46.8881    0.0633    6.8522 H   0  0  0  0  0  0  0  0  0  0  0  0
   46.8018    0.5772    8.2875 H   0  0  0  0  0  0  0  0  0  0  0  0
   46.7949    0.5440    8.3086 H   0  0  0  0  0  0  0  0  0  0  0  0
   46.8938    0.1027    6.8501 H   0  0  0  0  0  0  0  0  0  0  0  0
   46.7987    0.5626    8.2970 H   0  0  0  0  0  0  0  0  0  0  0  0
   46.8906    0.0808    6.8510 H   0  0  0  0  0  0  0  0  0  0  0  0
   46.8891    0.0701    6.8517 H   0  0  0  0  0  0  0  0  0  0  0  0
   46.8006    0.5715    8.2912 H   0  0  0  0  0  0  0  0  0  0  0  0
   46.8930    0.0970    6.8502 H   0  0  0  0  0  0  0  0  0  0  0  0
   46.7959    0.5489    8.3056 H   0  0  0  0  0  0  0  0  0  0  0  0
  1 10  1  0
  1 11  1  0
  3 12  1  0
  3 13  1  0
  4 14  1  0
  4 15  1  0
  5 16  1  0
  5 17  1  0
  8 18  1  0
  8 19  1  0
  9 20  1  0
  9 21  1  0
M  CHG  3   2   2   6  -1   7  -1
M  END
> <Uni-Dock RESULT> 
ENERGY=   -6.174  LOWER_BOUND=    9.056  UPPER_BOUND=    9.056
INTER + INTRA:          -6.174
INTER:                  -6.174
INTRA:                   0.000
UNBOUND:                 0.000

$$$$

     RDKit          3D

 21 12  0  0  0  0  0  0  0  0999 V2000
   46.8613    0.1572    7.7314 O   0  0  0  0  0  0  0  0  0  0  0  0
   46.6627   -0.1862    7.7011 Mg  0  0  0  0  0 15  0  0  0  0  0  0
   46.8667    0.1550    7.7153 O   0  0  0  0  0  0  0  0  0  0  0  0
   46.8603    0.1574    7.7342 O   0  0  0  0  0  0  0  0  0  0  0  0
   46.8639    0.1562    7.7237 O   0  0  0  0  0  0  0  0  0  0  0  0
   46.6627   -0.1862    7.7011 Cl  0  0  0  0  0  0  0  0  0  0  0  0
   46.6627   -0.1862    7.7011 Cl  0  0  0  0  0  0  0  0  0  0  0  0
   46.8656    0.1555    7.7186 O   0  0  0  0  0  0  0  0  0  0  0  0
   46.8613    0.1572    7.7315 O   0  0  0  0  0  0  0  0  0  0  0  0
   46.3146   -0.2774    8.4031 H   0  0  0  0  0  0  0  0  0  0  0  0
   46.8123   -0.4385    6.9687 H   0  0  0  0  0  0  0  0  0  0  0  0
   46.3285   -0.2481    8.4130 H   0  0  0  0  0  0  0  0  0  0  0  0
   46.7931   -0.4657    6.9748 H   0  0  0  0  0  0  0  0  0  0  0  0
   46.8158   -0.4337    6.9677 H   0  0  0  0  0  0  0  0  0  0  0  0
   46.3122   -0.2825    8.4012 H   0  0  0  0  0  0  0  0  0  0  0  0
   46.8032   -0.4516    6.9714 H   0  0  0  0  0  0  0  0  0  0  0  0
   46.3211   -0.2634    8.4080 H   0  0  0  0  0  0  0  0  0  0  0  0
   46.3256   -0.2541    8.4111 H   0  0  0  0  0  0  0  0  0  0  0  0
   46.7970   -0.4602    6.9735 H   0  0  0  0  0  0  0  0  0  0  0  0
   46.3145   -0.2775    8.4031 H   0  0  0  0  0  0  0  0  0  0  0  0
   46.8125   -0.4384    6.9686 H   0  0  0  0  0  0  0  0  0  0  0  0
  1 10  1  0
  1 11  1  0
  3 12  1  0
  3 13  1  0
  4 14  1  0
  4 15  1  0
  5 16  1  0
  5 17  1  0
  8 18  1  0
  8 19  1  0
  9 20  1  0
  9 21  1  0
M  CHG  3   2   2   6  -1   7  -1
M  END
> <Uni-Dock RESULT> 
ENERGY=   -5.886  LOWER_BOUND=    9.025  UPPER_BOUND=    9.026
INTER + INTRA:          -5.886
INTER:                  -5.886
INTRA:                   0.000
UNBOUND:                 0.000

$$$$

     RDKit          3D

 21 12  0  0  0  0  0  0  0  0999 V2000
   48.0615    1.5391    7.0751 O   0  0  0  0  0  0  0  0  0  0  0  0
   47.6857    1.4440    6.9857 Mg  0  0  0  0  0 15  0  0  0  0  0  0
   48.0663    1.5328    7.0599 O   0  0  0  0  0  0  0  0  0  0  0  0
   48.0606    1.5402    7.0777 O   0  0  0  0  0  0  0  0  0  0  0  0
   48.0639    1.5361    7.0678 O   0  0  0  0  0  0  0  0  0  0  0  0
   47.6857    1.4440    6.9857 Cl  0  0  0  0  0  0  0  0  0  0  0  0
   47.6857    1.4440    6.9857 Cl  0  0  0  0  0  0  0  0  0  0  0  0
   48.0654    1.5341    7.0630 O   0  0  0  0  0  0  0  0  0  0  0  0
   48.0615    1.5392    7.0752 O   0  0  0  0  0  0  0  0  0  0  0  0
   47.2674    1.6740    7.6138 H   0  0  0  0  0  0  0  0  0  0  0  0
   47.7282    1.1187    6.2682 H   0  0  0  0  0  0  0  0  0  0  0  0
   47.2962    1.6848    7.6281 H   0  0  0  0  0  0  0  0  0  0  0  0
   47.6946    1.1142    6.2689 H   0  0  0  0  0  0  0  0  0  0  0  0
   47.7342    1.1195    6.2681 H   0  0  0  0  0  0  0  0  0  0  0  0
   47.2624    1.6721    7.6111 H   0  0  0  0  0  0  0  0  0  0  0  0
   47.7122    1.1165    6.2683 H   0  0  0  0  0  0  0  0  0  0  0  0
   47.2811    1.6792    7.6208 H   0  0  0  0  0  0  0  0  0  0  0  0
   47.2903    1.6826    7.6253 H   0  0  0  0  0  0  0  0  0  0  0  0
   47.7015    1.1151    6.2687 H   0  0  0  0  0  0  0  0  0  0  0  0
   47.2672    1.6740    7.6137 H   0  0  0  0  0  0  0  0  0  0  0  0
   47.7284    1.1187    6.2681 H   0  0  0  0  0  0  0  0  0  0  0  0
  1 10  1  0
  1 11  1  0
  3 12  1  0
  3 13  1  0
  4 14  1  0
  4 15  1  0
  5 16  1  0
  5 17  1  0
  8 18  1  0
  8 19  1  0
  9 20  1  0
  9 21  1  0
M  CHG  3   2   2   6  -1   7  -1
M  END
> <Uni-Dock RESULT> 
ENERGY=   -5.364  LOWER_BOUND=    9.515  UPPER_BOUND=    9.517
INTER + INTRA:          -5.364
INTER:                  -5.364
INTRA:                   0.000
UNBOUND:                 0.000

$$$$

     RDKit          3D

 21 12  0  0  0  0  0  0  0  0999 V2000
   40.6453   12.0936   15.8645 O   0  0  0  0  0  0  0  0  0  0  0  0
   40.3675   12.3233   15.6962 Mg  0  0  0  0  0 15  0  0  0  0  0  0
   40.6340   12.0895   15.8767 O   0  0  0  0  0  0  0  0  0  0  0  0
   40.6472   12.0943   15.8623 O   0  0  0  0  0  0  0  0  0  0  0  0
   40.6399   12.0916   15.8704 O   0  0  0  0  0  0  0  0  0  0  0  0
   40.3675   12.3233   15.6962 Cl  0  0  0  0  0  0  0  0  0  0  0  0
   40.3675   12.3233   15.6962 Cl  0  0  0  0  0  0  0  0  0  0  0  0
   40.6364   12.0903   15.8742 O   0  0  0  0  0  0  0  0  0  0  0  0
   40.6454   12.0936   15.8644 O   0  0  0  0  0  0  0  0  0  0  0  0
   40.7206   12.6290   15.0604 H   0  0  0  0  0  0  0  0  0  0  0  0
   39.7366   12.2474   16.1638 H   0  0  0  0  0  0  0  0  0  0  0  0
   40.7487   12.6119   15.0687 H   0  0  0  0  0  0  0  0  0  0  0  0
   39.7197   12.2685   16.1434 H   0  0  0  0  0  0  0  0  0  0  0  0
   39.7397   12.2436   16.1674 H   0  0  0  0  0  0  0  0  0  0  0  0
   40.7156   12.6320   15.0591 H   0  0  0  0  0  0  0  0  0  0  0  0
   39.7284   12.2575   16.1541 H   0  0  0  0  0  0  0  0  0  0  0  0
   40.7341   12.6209   15.0642 H   0  0  0  0  0  0  0  0  0  0  0  0
   40.7430   12.6155   15.0669 H   0  0  0  0  0  0  0  0  0  0  0  0
   39.7231   12.2642   16.1475 H   0  0  0  0  0  0  0  0  0  0  0  0
   40.7205   12.6292   15.0603 H   0  0  0  0  0  0  0  0  0  0  0  0
   39.7367   12.2472   16.1639 H   0  0  0  0  0  0  0  0  0  0  0  0
  1 10  1  0
  1 11  1  0
  3 12  1  0
  3 13  1  0
  4 14  1  0
  4 15  1  0
  5 16  1  0
  5 17  1  0
  8 18  1  0
  8 19  1  0
  9 20  1  0
  9 21  1  0
M  CHG  3   2   2   6  -1   7  -1
M  END
> <Uni-Dock RESULT> 
ENERGY=   -5.080  LOWER_BOUND=   13.374  UPPER_BOUND=   13.376
INTER + INTRA:          -5.080
INTER:                  -5.080
INTRA:                   0.000
UNBOUND:                 0.000

$$$$

     RDKit          3D

 21 12  0  0  0  0  0  0  0  0999 V2000
   40.8078    1.9015   21.9646 O   0  0  0  0  0  0  0  0  0  0  0  0
   40.7840    1.8194   22.3531 Mg  0  0  0  0  0 15  0  0  0  0  0  0
   40.8064    1.8848   21.9613 O   0  0  0  0  0  0  0  0  0  0  0  0
   40.8080    1.9044   21.9652 O   0  0  0  0  0  0  0  0  0  0  0  0
   40.8071    1.8935   21.9629 O   0  0  0  0  0  0  0  0  0  0  0  0
   40.7840    1.8194   22.3531 Cl  0  0  0  0  0  0  0  0  0  0  0  0
   40.7840    1.8194   22.3531 Cl  0  0  0  0  0  0  0  0  0  0  0  0
   40.8067    1.8882   21.9619 O   0  0  0  0  0  0  0  0  0  0  0  0
   40.8078    1.9016   21.9646 O   0  0  0  0  0  0  0  0  0  0  0  0
   40.8326    2.5223   22.7082 H   0  0  0  0  0  0  0  0  0  0  0  0
   40.7116    1.0345   22.3865 H   0  0  0  0  0  0  0  0  0  0  0  0
   40.8352    2.5367   22.6776 H   0  0  0  0  0  0  0  0  0  0  0  0
   40.7104    1.0368   22.4203 H   0  0  0  0  0  0  0  0  0  0  0  0
   40.7119    1.0342   22.3805 H   0  0  0  0  0  0  0  0  0  0  0  0
   40.8321    2.5195   22.7135 H   0  0  0  0  0  0  0  0  0  0  0  0
   40.7110    1.0354   22.4027 H   0  0  0  0  0  0  0  0  0  0  0  0
   40.8339    2.5293   22.6936 H   0  0  0  0  0  0  0  0  0  0  0  0
   40.8347    2.5339   22.6839 H   0  0  0  0  0  0  0  0  0  0  0  0
   40.7107    1.0363   22.4134 H   0  0  0  0  0  0  0  0  0  0  0  0
   40.8326    2.5222   22.7084 H   0  0  0  0  0  0  0  0  0  0  0  0
   40.7116    1.0345   22.3863 H   0  0  0  0  0  0  0  0  0  0  0  0
  1 10  1  0
  1 11  1  0
  3 12  1  0
  3 13  1  0
  4 14  1  0
  4 15  1  0
  5 16  1  0
  5 17  1  0
  8 18  1  0
  8 19  1  0
  9 20  1  0
  9 21  1  0
M  CHG  3   2   2   6  -1   7  -1
M  END
> <Uni-Dock RESULT> 
ENERGY=   -4.770  LOWER_BOUND=   16.608  UPPER_BOUND=   16.608
INTER + INTRA:          -4.770
INTER:                  -4.770
INTRA:                   0.000
UNBOUND:                 0.000

$$$$

     RDKit          3D

 21 12  0  0  0  0  0  0  0  0999 V2000
   42.0404    5.8924   11.7656 O   0  0  0  0  0  0  0  0  0  0  0  0
   42.3269    5.6370   11.8703 Mg  0  0  0  0  0 15  0  0  0  0  0  0
   42.0496    5.8965   11.7518 O   0  0  0  0  0  0  0  0  0  0  0  0
   42.0388    5.8916   11.7681 O   0  0  0  0  0  0  0  0  0  0  0  0
   42.0447    5.8944   11.7590 O   0  0  0  0  0  0  0  0  0  0  0  0
   42.3269    5.6370   11.8703 Cl  0  0  0  0  0  0  0  0  0  0  0  0
   42.3269    5.6370   11.8703 Cl  0  0  0  0  0  0  0  0  0  0  0  0
   42.0476    5.8957   11.7546 O   0  0  0  0  0  0  0  0  0  0  0  0
   42.0403    5.8923   11.7657 O   0  0  0  0  0  0  0  0  0  0  0  0
   42.0706    5.3154   12.5435 H   0  0  0  0  0  0  0  0  0  0  0  0
   42.8698    5.7033   11.3017 H   0  0  0  0  0  0  0  0  0  0  0  0
   42.0427    5.3346   12.5412 H   0  0  0  0  0  0  0  0  0  0  0  0
   42.8885    5.6801   11.3177 H   0  0  0  0  0  0  0  0  0  0  0  0
   42.8664    5.7075   11.2989 H   0  0  0  0  0  0  0  0  0  0  0  0
   42.0755    5.3121   12.5437 H   0  0  0  0  0  0  0  0  0  0  0  0
   42.8789    5.6922   11.3092 H   0  0  0  0  0  0  0  0  0  0  0  0
   42.0572    5.3245   12.5425 H   0  0  0  0  0  0  0  0  0  0  0  0
   42.0484    5.3306   12.5417 H   0  0  0  0  0  0  0  0  0  0  0  0
   42.8848    5.6848   11.3144 H   0  0  0  0  0  0  0  0  0  0  0  0
   42.0707    5.3152   12.5435 H   0  0  0  0  0  0  0  0  0  0  0  0
   42.8697    5.7035   11.3015 H   0  0  0  0  0  0  0  0  0  0  0  0
  1 10  1  0
  1 11  1  0
  3 12  1  0
  3 13  1  0
  4 14  1  0
  4 15  1  0
  5 16  1  0
  5 17  1  0
  8 18  1  0
  8 19  1  0
  9 20  1  0
  9 21  1  0
M  CHG  3   2   2   6  -1   7  -1
M  END
> <Uni-Dock RESULT> 
ENERGY=   -4.648  LOWER_BOUND=    7.316  UPPER_BOUND=    7.319
INTER + INTRA:          -4.648
INTER:                  -4.648
INTRA:                   0.000
UNBOUND:                 0.000

$$$$

     RDKit          3D

 21 12  0  0  0  0  0  0  0  0999 V2000
   42.7448    5.2380   13.2233 O   0  0  0  0  0  0  0  0  0  0  0  0
   42.8323    5.2964   12.8396 Mg  0  0  0  0  0 15  0  0  0  0  0  0
   42.7531    5.2526   13.2270 O   0  0  0  0  0  0  0  0  0  0  0  0
   42.7434    5.2355   13.2225 O   0  0  0  0  0  0  0  0  0  0  0  0
   42.7487    5.2450   13.2251 O   0  0  0  0  0  0  0  0  0  0  0  0
   42.8323    5.2964   12.8396 Cl  0  0  0  0  0  0  0  0  0  0  0  0
   42.8323    5.2964   12.8396 Cl  0  0  0  0  0  0  0  0  0  0  0  0
   42.7514    5.2496   13.2263 O   0  0  0  0  0  0  0  0  0  0  0  0
   42.7448    5.2380   13.2232 O   0  0  0  0  0  0  0  0  0  0  0  0
   42.5108    4.6801   12.4663 H   0  0  0  0  0  0  0  0  0  0  0  0
   43.2413    5.9710   12.8292 H   0  0  0  0  0  0  0  0  0  0  0  0
   42.4999    4.6687   12.4963 H   0  0  0  0  0  0  0  0  0  0  0  0
   43.2440    5.9680   12.7955 H   0  0  0  0  0  0  0  0  0  0  0  0
   43.2407    5.9714   12.8352 H   0  0  0  0  0  0  0  0  0  0  0  0
   42.5129    4.6823   12.4611 H   0  0  0  0  0  0  0  0  0  0  0  0
   43.2427    5.9697   12.8131 H   0  0  0  0  0  0  0  0  0  0  0  0
   42.5055    4.6745   12.4806 H   0  0  0  0  0  0  0  0  0  0  0  0
   42.5021    4.6709   12.4901 H   0  0  0  0  0  0  0  0  0  0  0  0
   43.2435    5.9686   12.8024 H   0  0  0  0  0  0  0  0  0  0  0  0
   42.5109    4.6802   12.4661 H   0  0  0  0  0  0  0  0  0  0  0  0
   43.2413    5.9710   12.8294 H   0  0  0  0  0  0  0  0  0  0  0  0
  1 10  1  0
  1 11  1  0
  3 12  1  0
  3 13  1  0
  4 14  1  0
  4 15  1  0
  5 16  1  0
  5 17  1  0
  8 18  1  0
  8 19  1  0
  9 20  1  0
  9 21  1  0
M  CHG  3   2   2   6  -1   7  -1
M  END
> <Uni-Dock RESULT> 
ENERGY=   -4.337  LOWER_BOUND=    8.576  UPPER_BOUND=    8.579
INTER + INTRA:          -4.337
INTER:                  -4.337
INTRA:                   0.000
UNBOUND:                 0.000

$$$$

     RDKit          3D

 21 12  0  0  0  0  0  0  0  0999 V2000
   46.8142    2.7661   17.6472 O   0  0  0  0  0  0  0  0  0  0  0  0
   47.0918    3.0384   17.5636 Mg  0  0  0  0  0 15  0  0  0  0  0  0
   46.8026    2.7787   17.6481 O   0  0  0  0  0  0  0  0  0  0  0  0
   46.8163    2.7639   17.6470 O   0  0  0  0  0  0  0  0  0  0  0  0
   46.8086    2.7721   17.6477 O   0  0  0  0  0  0  0  0  0  0  0  0
   47.0918    3.0384   17.5636 Cl  0  0  0  0  0  0  0  0  0  0  0  0
   47.0918    3.0384   17.5636 Cl  0  0  0  0  0  0  0  0  0  0  0  0
   46.8049    2.7760   17.6479 O   0  0  0  0  0  0  0  0  0  0  0  0
   46.8142    2.7660   17.6472 O   0  0  0  0  0  0  0  0  0  0  0  0
   47.7575    2.6238   17.4771 H   0  0  0  0  0  0  0  0  0  0  0  0
   46.7039    3.7254   17.5666 H   0  0  0  0  0  0  0  0  0  0  0  0
   47.7398    2.5956   17.4836 H   0  0  0  0  0  0  0  0  0  0  0  0
   46.7330    3.7411   17.5592 H   0  0  0  0  0  0  0  0  0  0  0  0
   46.6988    3.7225   17.5679 H   0  0  0  0  0  0  0  0  0  0  0  0
   47.7604    2.6289   17.4760 H   0  0  0  0  0  0  0  0  0  0  0  0
   46.7177    3.7331   17.5630 H   0  0  0  0  0  0  0  0  0  0  0  0
   47.7492    2.6102   17.4802 H   0  0  0  0  0  0  0  0  0  0  0  0
   47.7435    2.6013   17.4822 H   0  0  0  0  0  0  0  0  0  0  0  0
   46.7271    3.7380   17.5607 H   0  0  0  0  0  0  0  0  0  0  0  0
   47.7576    2.6240   17.4770 H   0  0  0  0  0  0  0  0  0  0  0  0
   46.7037    3.7253   17.5666 H   0  0  0  0  0  0  0  0  0  0  0  0
  1 10  1  0
  1 11  1  0
  3 12  1  0
  3 13  1  0
  4 14  1  0
  4 15  1  0
  5 16  1  0
  5 17  1  0
  8 18  1  0
  8 19  1  0
  9 20  1  0
  9 21  1  0
M  CHG  3   2   2   6  -1   7  -1
M  END
> <Uni-Dock RESULT> 
ENERGY=   -4.257  LOWER_BOUND=   14.452  UPPER_BOUND=   14.454
INTER + INTRA:          -4.257
INTER:                  -4.257
INTRA:                   0.000
UNBOUND:                 0.000

$$$$
