
     RDKit          3D

 21 12  0  0  0  0  0  0  0  0999 V2000
   38.7244    3.4781    5.7619 O   0  0  0  0  0  0  0  0  0  0  0  0
   38.8191    3.8229    5.5876 Mg  0  0  0  0  0 15  0  0  0  0  0  0
   38.7233    3.4791    5.7634 O   0  0  0  0  0  0  0  0  0  0  0  0
   38.7202    3.4821    5.7676 O   0  0  0  0  0  0  0  0  0  0  0  0
   38.7213    3.4811    5.7661 O   0  0  0  0  0  0  0  0  0  0  0  0
   38.8191    3.8229    5.5876 Cl  0  0  0  0  0  0  0  0  0  0  0  0
   38.8191    3.8229    5.5876 Cl  0  0  0  0  0  0  0  0  0  0  0  0
   38.7183    3.4840    5.7701 O   0  0  0  0  0  0  0  0  0  0  0  0
   38.7237    3.4787    5.7628 O   0  0  0  0  0  0  0  0  0  0  0  0
   39.2582    3.6171    4.9653 H   0  0  0  0  0  0  0  0  0  0  0  0
   38.4747    4.3735    6.0357 H   0  0  0  0  0  0  0  0  0  0  0  0
   39.2577    3.6133    4.9663 H   0  0  0  0  0  0  0  0  0  0  0  0
   38.4762    4.3763    6.0332 H   0  0  0  0  0  0  0  0  0  0  0  0
   39.2565    3.6019    4.9693 H   0  0  0  0  0  0  0  0  0  0  0  0
   38.4805    4.3847    6.0259 H   0  0  0  0  0  0  0  0  0  0  0  0
   39.2569    3.6057    4.9683 H   0  0  0  0  0  0  0  0  0  0  0  0
   38.4790    4.3819    6.0284 H   0  0  0  0  0  0  0  0  0  0  0  0
   38.4833    4.3899    6.0214 H   0  0  0  0  0  0  0  0  0  0  0  0
   39.2556    3.5947    4.9713 H   0  0  0  0  0  0  0  0  0  0  0  0
   39.2579    3.6148    4.9659 H   0  0  0  0  0  0  0  0  0  0  0  0
   38.4756    4.3752    6.0341 H   0  0  0  0  0  0  0  0  0  0  0  0
  1 10  1  0
  1 11  1  0
  3 12  1  0
  3 13  1  0
  4 14  1  0
  4 15  1  0
  5 16  1  0
  5 17  1  0
  8 18  1  0
  8 19  1  0
  9 20  1  0
  9 21  1  0
M  CHG  3   2   2   6  -1   7  -1
M  END
> <Uni-Dock RESULT> 
ENERGY=   -6.295  LOWER_BOUND=    0.000  UPPER_BOUND=    0.000
INTER + INTRA:          -6.295
INTER:                  -6.295
INTRA:                   0.000
UNBOUND:                 0.000

$$$$

     RDKit          3D

 21 12  0  0  0  0  0  0  0  0999 V2000
   40.0412    4.9191    5.1925 O   0  0  0  0  0  0  0  0  0  0  0  0
   39.6549    4.8483    5.2559 Mg  0  0  0  0  0 15  0  0  0  0  0  0
   40.0412    4.9204    5.1941 O   0  0  0  0  0  0  0  0  0  0  0  0
   40.0412    4.9242    5.1988 O   0  0  0  0  0  0  0  0  0  0  0  0
   40.0412    4.9229    5.1972 O   0  0  0  0  0  0  0  0  0  0  0  0
   39.6549    4.8483    5.2559 Cl  0  0  0  0  0  0  0  0  0  0  0  0
   39.6549    4.8483    5.2559 Cl  0  0  0  0  0  0  0  0  0  0  0  0
   40.0412    4.9265    5.2017 O   0  0  0  0  0  0  0  0  0  0  0  0
   40.0412    4.9199    5.1935 O   0  0  0  0  0  0  0  0  0  0  0  0
   39.4526    4.3320    4.6946 H   0  0  0  0  0  0  0  0  0  0  0  0
   39.4709    5.2937    5.8806 H   0  0  0  0  0  0  0  0  0  0  0  0
   39.4564    4.3321    4.6933 H   0  0  0  0  0  0  0  0  0  0  0  0
   39.4671    5.2923    5.8804 H   0  0  0  0  0  0  0  0  0  0  0  0
   39.4676    4.3323    4.6892 H   0  0  0  0  0  0  0  0  0  0  0  0
   39.4559    5.2883    5.8798 H   0  0  0  0  0  0  0  0  0  0  0  0
   39.4638    4.3323    4.6906 H   0  0  0  0  0  0  0  0  0  0  0  0
   39.4597    5.2897    5.8800 H   0  0  0  0  0  0  0  0  0  0  0  0
   39.4489    5.2857    5.8793 H   0  0  0  0  0  0  0  0  0  0  0  0
   39.4746    4.3326    4.6867 H   0  0  0  0  0  0  0  0  0  0  0  0
   39.4550    4.3321    4.6938 H   0  0  0  0  0  0  0  0  0  0  0  0
   39.4685    5.2928    5.8804 H   0  0  0  0  0  0  0  0  0  0  0  0
  1 10  1  0
  1 11  1  0
  3 12  1  0
  3 13  1  0
  4 14  1  0
  4 15  1  0
  5 16  1  0
  5 17  1  0
  8 18  1  0
  8 19  1  0
  9 20  1  0
  9 21  1  0
M  CHG  3   2   2   6  -1   7  -1
M  END
> <Uni-Dock RESULT> 
ENERGY=   -5.526  LOWER_BOUND=    1.838  UPPER_BOUND=    1.839
INTER + INTRA:          -5.526
INTER:                  -5.526
INTRA:                   0.000
UNBOUND:                 0.000

$$$$

     RDKit          3D

 21 12  0  0  0  0  0  0  0  0999 V2000
   48.0619    1.5330    7.0655 O   0  0  0  0  0  0  0  0  0  0  0  0
   47.6820    1.4462    6.9853 Mg  0  0  0  0  0 15  0  0  0  0  0  0
   48.0614    1.5331    7.0676 O   0  0  0  0  0  0  0  0  0  0  0  0
   48.0601    1.5335    7.0734 O   0  0  0  0  0  0  0  0  0  0  0  0
   48.0605    1.5334    7.0713 O   0  0  0  0  0  0  0  0  0  0  0  0
   47.6820    1.4462    6.9853 Cl  0  0  0  0  0  0  0  0  0  0  0  0
   47.6820    1.4462    6.9853 Cl  0  0  0  0  0  0  0  0  0  0  0  0
   48.0591    1.5338    7.0770 O   0  0  0  0  0  0  0  0  0  0  0  0
   48.0616    1.5331    7.0668 O   0  0  0  0  0  0  0  0  0  0  0  0
   47.6608    1.3508    6.2024 H   0  0  0  0  0  0  0  0  0  0  0  0
   47.3234    1.4548    7.6881 H   0  0  0  0  0  0  0  0  0  0  0  0
   47.6648    1.3516    6.2023 H   0  0  0  0  0  0  0  0  0  0  0  0
   47.3199    1.4539    7.6862 H   0  0  0  0  0  0  0  0  0  0  0  0
   47.6764    1.3539    6.2018 H   0  0  0  0  0  0  0  0  0  0  0  0
   47.3096    1.4512    7.6808 H   0  0  0  0  0  0  0  0  0  0  0  0
   47.6725    1.3531    6.2020 H   0  0  0  0  0  0  0  0  0  0  0  0
   47.3131    1.4521    7.6827 H   0  0  0  0  0  0  0  0  0  0  0  0
   47.3032    1.4495    7.6774 H   0  0  0  0  0  0  0  0  0  0  0  0
   47.6838    1.3554    6.2017 H   0  0  0  0  0  0  0  0  0  0  0  0
   47.6633    1.3513    6.2024 H   0  0  0  0  0  0  0  0  0  0  0  0
   47.3212    1.4543    7.6869 H   0  0  0  0  0  0  0  0  0  0  0  0
  1 10  1  0
  1 11  1  0
  3 12  1  0
  3 13  1  0
  4 14  1  0
  4 15  1  0
  5 16  1  0
  5 17  1  0
  8 18  1  0
  8 19  1  0
  9 20  1  0
  9 21  1  0
M  CHG  3   2   2   6  -1   7  -1
M  END
> <Uni-Dock RESULT> 
ENERGY=   -5.365  LOWER_BOUND=    9.514  UPPER_BOUND=    9.514
INTER + INTRA:          -5.365
INTER:                  -5.365
INTRA:                   0.000
UNBOUND:                 0.000

$$$$

     RDKit          3D

 21 12  0  0  0  0  0  0  0  0999 V2000
   48.2553    1.9651    5.7060 O   0  0  0  0  0  0  0  0  0  0  0  0
   48.0763    2.0910    6.0382 Mg  0  0  0  0  0 15  0  0  0  0  0  0
   48.2539    1.9635    5.7059 O   0  0  0  0  0  0  0  0  0  0  0  0
   48.2500    1.9590    5.7055 O   0  0  0  0  0  0  0  0  0  0  0  0
   48.2514    1.9606    5.7056 O   0  0  0  0  0  0  0  0  0  0  0  0
   48.0763    2.0910    6.0382 Cl  0  0  0  0  0  0  0  0  0  0  0  0
   48.0763    2.0910    6.0382 Cl  0  0  0  0  0  0  0  0  0  0  0  0
   48.2475    1.9563    5.7053 O   0  0  0  0  0  0  0  0  0  0  0  0
   48.2545    1.9641    5.7060 O   0  0  0  0  0  0  0  0  0  0  0  0
   48.4901    2.7254    6.2590 H   0  0  0  0  0  0  0  0  0  0  0  0
   47.4835    1.5824    6.1497 H   0  0  0  0  0  0  0  0  0  0  0  0
   48.4925    2.7249    6.2558 H   0  0  0  0  0  0  0  0  0  0  0  0
   47.4824    1.5844    6.1530 H   0  0  0  0  0  0  0  0  0  0  0  0
   48.4995    2.7234    6.2464 H   0  0  0  0  0  0  0  0  0  0  0  0
   47.4793    1.5904    6.1628 H   0  0  0  0  0  0  0  0  0  0  0  0
   48.4971    2.7239    6.2496 H   0  0  0  0  0  0  0  0  0  0  0  0
   47.4804    1.5883    6.1595 H   0  0  0  0  0  0  0  0  0  0  0  0
   47.4774    1.5942    6.1690 H   0  0  0  0  0  0  0  0  0  0  0  0
   48.5039    2.7223    6.2404 H   0  0  0  0  0  0  0  0  0  0  0  0
   48.4915    2.7251    6.2570 H   0  0  0  0  0  0  0  0  0  0  0  0
   47.4828    1.5836    6.1517 H   0  0  0  0  0  0  0  0  0  0  0  0
  1 10  1  0
  1 11  1  0
  3 12  1  0
  3 13  1  0
  4 14  1  0
  4 15  1  0
  5 16  1  0
  5 17  1  0
  8 18  1  0
  8 19  1  0
  9 20  1  0
  9 21  1  0
M  CHG  3   2   2   6  -1   7  -1
M  END
> <Uni-Dock RESULT> 
ENERGY=   -5.293  LOWER_BOUND=    9.575  UPPER_BOUND=    9.577
INTER + INTRA:          -5.293
INTER:                  -5.293
INTRA:                   0.000
UNBOUND:                 0.000

$$$$

     RDKit          3D

 21 12  0  0  0  0  0  0  0  0999 V2000
   40.6383   12.0886   15.8687 O   0  0  0  0  0  0  0  0  0  0  0  0
   40.3675   12.3237   15.6964 Mg  0  0  0  0  0 15  0  0  0  0  0  0
   40.6397   12.0902   15.8687 O   0  0  0  0  0  0  0  0  0  0  0  0
   40.6436   12.0947   15.8687 O   0  0  0  0  0  0  0  0  0  0  0  0
   40.6422   12.0931   15.8687 O   0  0  0  0  0  0  0  0  0  0  0  0
   40.3675   12.3237   15.6964 Cl  0  0  0  0  0  0  0  0  0  0  0  0
   40.3675   12.3237   15.6964 Cl  0  0  0  0  0  0  0  0  0  0  0  0
   40.6459   12.0976   15.8686 O   0  0  0  0  0  0  0  0  0  0  0  0
   40.6391   12.0896   15.8687 O   0  0  0  0  0  0  0  0  0  0  0  0
   39.7316   11.8647   15.6105 H   0  0  0  0  0  0  0  0  0  0  0  0
   40.7327   13.0177   15.6101 H   0  0  0  0  0  0  0  0  0  0  0  0
   39.7336   11.8616   15.6122 H   0  0  0  0  0  0  0  0  0  0  0  0
   40.7293   13.0192   15.6084 H   0  0  0  0  0  0  0  0  0  0  0  0
   39.7395   11.8527   15.6172 H   0  0  0  0  0  0  0  0  0  0  0  0
   40.7194   13.0236   15.6034 H   0  0  0  0  0  0  0  0  0  0  0  0
   39.7375   11.8557   15.6155 H   0  0  0  0  0  0  0  0  0  0  0  0
   40.7228   13.0221   15.6051 H   0  0  0  0  0  0  0  0  0  0  0  0
   40.7132   13.0263   15.6003 H   0  0  0  0  0  0  0  0  0  0  0  0
   39.7434   11.8471   15.6204 H   0  0  0  0  0  0  0  0  0  0  0  0
   39.7328   11.8628   15.6116 H   0  0  0  0  0  0  0  0  0  0  0  0
   40.7306   13.0186   15.6091 H   0  0  0  0  0  0  0  0  0  0  0  0
  1 10  1  0
  1 11  1  0
  3 12  1  0
  3 13  1  0
  4 14  1  0
  4 15  1  0
  5 16  1  0
  5 17  1  0
  8 18  1  0
  8 19  1  0
  9 20  1  0
  9 21  1  0
M  CHG  3   2   2   6  -1   7  -1
M  END
> <Uni-Dock RESULT> 
ENERGY=   -5.081  LOWER_BOUND=   13.373  UPPER_BOUND=   13.375
INTER + INTRA:          -5.081
INTER:                  -5.081
INTRA:                   0.000
UNBOUND:                 0.000

$$$$

     RDKit          3D

 21 12  0  0  0  0  0  0  0  0999 V2000
   40.8027    1.8973   21.9636 O   0  0  0  0  0  0  0  0  0  0  0  0
   40.7844    1.8199   22.3534 Mg  0  0  0  0  0 15  0  0  0  0  0  0
   40.8047    1.8965   21.9636 O   0  0  0  0  0  0  0  0  0  0  0  0
   40.8103    1.8944   21.9635 O   0  0  0  0  0  0  0  0  0  0  0  0
   40.8083    1.8951   21.9635 O   0  0  0  0  0  0  0  0  0  0  0  0
   40.7844    1.8199   22.3534 Cl  0  0  0  0  0  0  0  0  0  0  0  0
   40.7844    1.8199   22.3534 Cl  0  0  0  0  0  0  0  0  0  0  0  0
   40.8138    1.8931   21.9635 O   0  0  0  0  0  0  0  0  0  0  0  0
   40.8039    1.8968   21.9636 O   0  0  0  0  0  0  0  0  0  0  0  0
   40.0609    2.0499   22.5680 H   0  0  0  0  0  0  0  0  0  0  0  0
   41.4897    1.5126   22.5287 H   0  0  0  0  0  0  0  0  0  0  0  0
   40.0601    2.0510   22.5642 H   0  0  0  0  0  0  0  0  0  0  0  0
   41.4884    1.5122   22.5325 H   0  0  0  0  0  0  0  0  0  0  0  0
   40.0580    2.0543   22.5530 H   0  0  0  0  0  0  0  0  0  0  0  0
   41.4850    1.5111   22.5438 H   0  0  0  0  0  0  0  0  0  0  0  0
   40.0587    2.0532   22.5568 H   0  0  0  0  0  0  0  0  0  0  0  0
   41.4862    1.5115   22.5400 H   0  0  0  0  0  0  0  0  0  0  0  0
   41.4827    1.5104   22.5509 H   0  0  0  0  0  0  0  0  0  0  0  0
   40.0568    2.0563   22.5459 H   0  0  0  0  0  0  0  0  0  0  0  0
   40.0604    2.0506   22.5657 H   0  0  0  0  0  0  0  0  0  0  0  0
   41.4889    1.5124   22.5310 H   0  0  0  0  0  0  0  0  0  0  0  0
  1 10  1  0
  1 11  1  0
  3 12  1  0
  3 13  1  0
  4 14  1  0
  4 15  1  0
  5 16  1  0
  5 17  1  0
  8 18  1  0
  8 19  1  0
  9 20  1  0
  9 21  1  0
M  CHG  3   2   2   6  -1   7  -1
M  END
> <Uni-Dock RESULT> 
ENERGY=   -4.771  LOWER_BOUND=   16.607  UPPER_BOUND=   16.608
INTER + INTRA:          -4.771
INTER:                  -4.771
INTRA:                   0.000
UNBOUND:                 0.000

$$$$

     RDKit          3D

 21 12  0  0  0  0  0  0  0  0999 V2000
   42.0424    5.9062   11.7665 O   0  0  0  0  0  0  0  0  0  0  0  0
   42.3237    5.6417   11.8621 Mg  0  0  0  0  0 15  0  0  0  0  0  0
   42.0426    5.9056   11.7645 O   0  0  0  0  0  0  0  0  0  0  0  0
   42.0431    5.9040   11.7587 O   0  0  0  0  0  0  0  0  0  0  0  0
   42.0429    5.9046   11.7607 O   0  0  0  0  0  0  0  0  0  0  0  0
   42.3237    5.6417   11.8621 Cl  0  0  0  0  0  0  0  0  0  0  0  0
   42.3237    5.6417   11.8621 Cl  0  0  0  0  0  0  0  0  0  0  0  0
   42.0435    5.9030   11.7552 O   0  0  0  0  0  0  0  0  0  0  0  0
   42.0425    5.9058   11.7652 O   0  0  0  0  0  0  0  0  0  0  0  0
   42.4006    5.7071   12.6446 H   0  0  0  0  0  0  0  0  0  0  0  0
   42.5282    5.3117   11.1751 H   0  0  0  0  0  0  0  0  0  0  0  0
   42.3977    5.7099   12.6446 H   0  0  0  0  0  0  0  0  0  0  0  0
   42.5309    5.3094   11.1772 H   0  0  0  0  0  0  0  0  0  0  0  0
   42.3893    5.7183   12.6445 H   0  0  0  0  0  0  0  0  0  0  0  0
   42.5388    5.3026   11.1829 H   0  0  0  0  0  0  0  0  0  0  0  0
   42.3922    5.7155   12.6445 H   0  0  0  0  0  0  0  0  0  0  0  0
   42.5361    5.3049   11.1809 H   0  0  0  0  0  0  0  0  0  0  0  0
   42.5437    5.2983   11.1866 H   0  0  0  0  0  0  0  0  0  0  0  0
   42.3840    5.7236   12.6444 H   0  0  0  0  0  0  0  0  0  0  0  0
   42.3988    5.7088   12.6445 H   0  0  0  0  0  0  0  0  0  0  0  0
   42.5299    5.3103   11.1764 H   0  0  0  0  0  0  0  0  0  0  0  0
  1 10  1  0
  1 11  1  0
  3 12  1  0
  3 13  1  0
  4 14  1  0
  4 15  1  0
  5 16  1  0
  5 17  1  0
  8 18  1  0
  8 19  1  0
  9 20  1  0
  9 21  1  0
M  CHG  3   2   2   6  -1   7  -1
M  END
> <Uni-Dock RESULT> 
ENERGY=   -4.648  LOWER_BOUND=    7.316  UPPER_BOUND=    7.319
INTER + INTRA:          -4.648
INTER:                  -4.648
INTRA:                   0.000
UNBOUND:                 0.000

$$$$

     RDKit          3D

 21 12  0  0  0  0  0  0  0  0999 V2000
   46.8993    4.2917    7.2672 O   0  0  0  0  0  0  0  0  0  0  0  0
   46.7420    3.9326    7.1994 Mg  0  0  0  0  0 15  0  0  0  0  0  0
   46.8988    4.2915    7.2692 O   0  0  0  0  0  0  0  0  0  0  0  0
   46.8975    4.2910    7.2750 O   0  0  0  0  0  0  0  0  0  0  0  0
   46.8979    4.2911    7.2730 O   0  0  0  0  0  0  0  0  0  0  0  0
   46.7420    3.9326    7.1994 Cl  0  0  0  0  0  0  0  0  0  0  0  0
   46.7420    3.9326    7.1994 Cl  0  0  0  0  0  0  0  0  0  0  0  0
   46.8966    4.2906    7.2786 O   0  0  0  0  0  0  0  0  0  0  0  0
   46.8990    4.2916    7.2684 O   0  0  0  0  0  0  0  0  0  0  0  0
   46.8375    3.8167    6.4248 H   0  0  0  0  0  0  0  0  0  0  0  0
   46.4891    3.6895    7.9061 H   0  0  0  0  0  0  0  0  0  0  0  0
   46.8393    3.8204    6.4246 H   0  0  0  0  0  0  0  0  0  0  0  0
   46.4879    3.6861    7.9044 H   0  0  0  0  0  0  0  0  0  0  0  0
   46.8445    3.8310    6.4237 H   0  0  0  0  0  0  0  0  0  0  0  0
   46.4840    3.6760    7.8994 H   0  0  0  0  0  0  0  0  0  0  0  0
   46.8427    3.8274    6.4240 H   0  0  0  0  0  0  0  0  0  0  0  0
   46.4853    3.6794    7.9011 H   0  0  0  0  0  0  0  0  0  0  0  0
   46.4816    3.6697    7.8962 H   0  0  0  0  0  0  0  0  0  0  0  0
   46.8477    3.8377    6.4234 H   0  0  0  0  0  0  0  0  0  0  0  0
   46.8386    3.8190    6.4247 H   0  0  0  0  0  0  0  0  0  0  0  0
   46.4884    3.6874    7.9050 H   0  0  0  0  0  0  0  0  0  0  0  0
  1 10  1  0
  1 11  1  0
  3 12  1  0
  3 13  1  0
  4 14  1  0
  4 15  1  0
  5 16  1  0
  5 17  1  0
  8 18  1  0
  8 19  1  0
  9 20  1  0
  9 21  1  0
M  CHG  3   2   2   6  -1   7  -1
M  END
> <Uni-Dock RESULT> 
ENERGY=   -4.531  LOWER_BOUND=    8.265  UPPER_BOUND=    8.265
INTER + INTRA:          -4.531
INTER:                  -4.531
INTRA:                   0.000
UNBOUND:                 0.000

$$$$

     RDKit          3D

 21 12  0  0  0  0  0  0  0  0999 V2000
   46.8055    2.7826   17.6487 O   0  0  0  0  0  0  0  0  0  0  0  0
   47.1208    3.0176   17.5882 Mg  0  0  0  0  0 15  0  0  0  0  0  0
   46.8052    2.7825   17.6466 O   0  0  0  0  0  0  0  0  0  0  0  0
   46.8042    2.7824   17.6407 O   0  0  0  0  0  0  0  0  0  0  0  0
   46.8045    2.7824   17.6428 O   0  0  0  0  0  0  0  0  0  0  0  0
   47.1208    3.0176   17.5882 Cl  0  0  0  0  0  0  0  0  0  0  0  0
   47.1208    3.0176   17.5882 Cl  0  0  0  0  0  0  0  0  0  0  0  0
   46.8036    2.7824   17.6370 O   0  0  0  0  0  0  0  0  0  0  0  0
   46.8053    2.7826   17.6474 O   0  0  0  0  0  0  0  0  0  0  0  0
   47.4087    3.1536   18.3101 H   0  0  0  0  0  0  0  0  0  0  0  0
   47.1481    3.1165   16.8059 H   0  0  0  0  0  0  0  0  0  0  0  0
   47.4057    3.1513   18.3117 H   0  0  0  0  0  0  0  0  0  0  0  0
   47.1514    3.1188   16.8064 H   0  0  0  0  0  0  0  0  0  0  0  0
   47.3971    3.1446   18.3162 H   0  0  0  0  0  0  0  0  0  0  0  0
   47.1610    3.1257   16.8078 H   0  0  0  0  0  0  0  0  0  0  0  0
   47.4000    3.1469   18.3147 H   0  0  0  0  0  0  0  0  0  0  0  0
   47.1577    3.1234   16.8073 H   0  0  0  0  0  0  0  0  0  0  0  0
   47.1671    3.1300   16.8087 H   0  0  0  0  0  0  0  0  0  0  0  0
   47.3916    3.1403   18.3190 H   0  0  0  0  0  0  0  0  0  0  0  0
   47.4069    3.1522   18.3110 H   0  0  0  0  0  0  0  0  0  0  0  0
   47.1501    3.1179   16.8063 H   0  0  0  0  0  0  0  0  0  0  0  0
  1 10  1  0
  1 11  1  0
  3 12  1  0
  3 13  1  0
  4 14  1  0
  4 15  1  0
  5 16  1  0
  5 17  1  0
  8 18  1  0
  8 19  1  0
  9 20  1  0
  9 21  1  0
M  CHG  3   2   2   6  -1   7  -1
M  END
> <Uni-Dock RESULT> 
ENERGY=   -4.247  LOWER_BOUND=   14.460  UPPER_BOUND=   14.462
INTER + INTRA:          -4.247
INTER:                  -4.247
INTRA:                   0.000
UNBOUND:                 0.000

$$$$
