
     RDKit          3D

 21 12  0  0  0  0  0  0  0  0999 V2000
   38.7265    3.4814    5.7582 O   0  0  0  0  0  0  0  0  0  0  0  0
   38.8124    3.8275    5.5819 Mg  0  0  0  0  0 15  0  0  0  0  0  0
   38.7262    3.4815    5.7583 O   0  0  0  0  0  0  0  0  0  0  0  0
   38.7268    3.4812    5.7580 O   0  0  0  0  0  0  0  0  0  0  0  0
   38.7254    3.4819    5.7587 O   0  0  0  0  0  0  0  0  0  0  0  0
   38.8124    3.8275    5.5819 Cl  0  0  0  0  0  0  0  0  0  0  0  0
   38.8124    3.8275    5.5819 Cl  0  0  0  0  0  0  0  0  0  0  0  0
   38.7266    3.4813    5.7581 O   0  0  0  0  0  0  0  0  0  0  0  0
   38.7260    3.4816    5.7584 O   0  0  0  0  0  0  0  0  0  0  0  0
   38.2329    4.3138    5.8058 H   0  0  0  0  0  0  0  0  0  0  0  0
   39.4777    3.6873    5.1816 H   0  0  0  0  0  0  0  0  0  0  0  0
   38.2333    4.3144    5.8054 H   0  0  0  0  0  0  0  0  0  0  0  0
   39.4777    3.6865    5.1819 H   0  0  0  0  0  0  0  0  0  0  0  0
   39.4776    3.6879    5.1814 H   0  0  0  0  0  0  0  0  0  0  0  0
   38.2326    4.3133    5.8062 H   0  0  0  0  0  0  0  0  0  0  0  0
   39.4777    3.6847    5.1825 H   0  0  0  0  0  0  0  0  0  0  0  0
   38.2340    4.3158    5.8044 H   0  0  0  0  0  0  0  0  0  0  0  0
   38.2328    4.3136    5.8060 H   0  0  0  0  0  0  0  0  0  0  0  0
   39.4776    3.6875    5.1816 H   0  0  0  0  0  0  0  0  0  0  0  0
   39.4776    3.6860    5.1821 H   0  0  0  0  0  0  0  0  0  0  0  0
   38.2335    4.3148    5.8051 H   0  0  0  0  0  0  0  0  0  0  0  0
  1 10  1  0
  1 11  1  0
  3 12  1  0
  3 13  1  0
  4 14  1  0
  4 15  1  0
  5 16  1  0
  5 17  1  0
  8 18  1  0
  8 19  1  0
  9 20  1  0
  9 21  1  0
M  CHG  3   2   2   6  -1   7  -1
M  END
> <Uni-Dock RESULT> 
ENERGY=   -6.300  LOWER_BOUND=    0.000  UPPER_BOUND=    0.000
INTER + INTRA:          -6.300
INTER:                  -6.300
INTRA:                   0.000
UNBOUND:                 0.000

$$$$

     RDKit          3D

 21 12  0  0  0  0  0  0  0  0999 V2000
   46.7459   -0.2397    7.7529 O   0  0  0  0  0  0  0  0  0  0  0  0
   46.8132    0.1340    7.6342 Mg  0  0  0  0  0 15  0  0  0  0  0  0
   46.7457   -0.2396    7.7531 O   0  0  0  0  0  0  0  0  0  0  0  0
   46.7462   -0.2398    7.7527 O   0  0  0  0  0  0  0  0  0  0  0  0
   46.7450   -0.2393    7.7537 O   0  0  0  0  0  0  0  0  0  0  0  0
   46.8132    0.1340    7.6342 Cl  0  0  0  0  0  0  0  0  0  0  0  0
   46.8132    0.1340    7.6342 Cl  0  0  0  0  0  0  0  0  0  0  0  0
   46.7461   -0.2398    7.7528 O   0  0  0  0  0  0  0  0  0  0  0  0
   46.7455   -0.2395    7.7533 O   0  0  0  0  0  0  0  0  0  0  0  0
   46.3083    0.5702    8.0552 H   0  0  0  0  0  0  0  0  0  0  0  0
   47.3853    0.0714    7.0945 H   0  0  0  0  0  0  0  0  0  0  0  0
   46.3086    0.5709    8.0548 H   0  0  0  0  0  0  0  0  0  0  0  0
   47.3853    0.0706    7.0946 H   0  0  0  0  0  0  0  0  0  0  0  0
   47.3853    0.0720    7.0944 H   0  0  0  0  0  0  0  0  0  0  0  0
   46.3081    0.5697    8.0555 H   0  0  0  0  0  0  0  0  0  0  0  0
   47.3853    0.0687    7.0949 H   0  0  0  0  0  0  0  0  0  0  0  0
   46.3092    0.5725    8.0540 H   0  0  0  0  0  0  0  0  0  0  0  0
   46.3082    0.5701    8.0553 H   0  0  0  0  0  0  0  0  0  0  0  0
   47.3853    0.0716    7.0945 H   0  0  0  0  0  0  0  0  0  0  0  0
   47.3853    0.0701    7.0947 H   0  0  0  0  0  0  0  0  0  0  0  0
   46.3088    0.5713    8.0546 H   0  0  0  0  0  0  0  0  0  0  0  0
  1 10  1  0
  1 11  1  0
  3 12  1  0
  3 13  1  0
  4 14  1  0
  4 15  1  0
  5 16  1  0
  5 17  1  0
  8 18  1  0
  8 19  1  0
  9 20  1  0
  9 21  1  0
M  CHG  3   2   2   6  -1   7  -1
M  END
> <Uni-Dock RESULT> 
ENERGY=   -6.169  LOWER_BOUND=    9.058  UPPER_BOUND=    9.058
INTER + INTRA:          -6.169
INTER:                  -6.169
INTRA:                   0.000
UNBOUND:                 0.000

$$$$

     RDKit          3D

 21 12  0  0  0  0  0  0  0  0999 V2000
   46.7579   -0.2440    7.7516 O   0  0  0  0  0  0  0  0  0  0  0  0
   46.7744    0.1419    7.6564 Mg  0  0  0  0  0 15  0  0  0  0  0  0
   46.7578   -0.2440    7.7519 O   0  0  0  0  0  0  0  0  0  0  0  0
   46.7580   -0.2441    7.7512 O   0  0  0  0  0  0  0  0  0  0  0  0
   46.7575   -0.2437    7.7528 O   0  0  0  0  0  0  0  0  0  0  0  0
   46.7744    0.1419    7.6564 Cl  0  0  0  0  0  0  0  0  0  0  0  0
   46.7744    0.1419    7.6564 Cl  0  0  0  0  0  0  0  0  0  0  0  0
   46.7579   -0.2441    7.7514 O   0  0  0  0  0  0  0  0  0  0  0  0
   46.7577   -0.2439    7.7521 O   0  0  0  0  0  0  0  0  0  0  0  0
   46.5475    0.5181    8.3116 H   0  0  0  0  0  0  0  0  0  0  0  0
   47.0179    0.1515    6.9060 H   0  0  0  0  0  0  0  0  0  0  0  0
   46.5476    0.5189    8.3112 H   0  0  0  0  0  0  0  0  0  0  0  0
   47.0179    0.1507    6.9060 H   0  0  0  0  0  0  0  0  0  0  0  0
   47.0179    0.1521    6.9060 H   0  0  0  0  0  0  0  0  0  0  0  0
   46.5474    0.5176    8.3120 H   0  0  0  0  0  0  0  0  0  0  0  0
   47.0180    0.1488    6.9060 H   0  0  0  0  0  0  0  0  0  0  0  0
   46.5478    0.5205    8.3104 H   0  0  0  0  0  0  0  0  0  0  0  0
   46.5475    0.5180    8.3118 H   0  0  0  0  0  0  0  0  0  0  0  0
   47.0179    0.1517    6.9060 H   0  0  0  0  0  0  0  0  0  0  0  0
   47.0179    0.1501    6.9060 H   0  0  0  0  0  0  0  0  0  0  0  0
   46.5477    0.5193    8.3110 H   0  0  0  0  0  0  0  0  0  0  0  0
  1 10  1  0
  1 11  1  0
  3 12  1  0
  3 13  1  0
  4 14  1  0
  4 15  1  0
  5 16  1  0
  5 17  1  0
  8 18  1  0
  8 19  1  0
  9 20  1  0
  9 21  1  0
M  CHG  3   2   2   6  -1   7  -1
M  END
> <Uni-Dock RESULT> 
ENERGY=   -6.164  LOWER_BOUND=    9.055  UPPER_BOUND=    9.055
INTER + INTRA:          -6.164
INTER:                  -6.164
INTRA:                   0.000
UNBOUND:                 0.000

$$$$

     RDKit          3D

 21 12  0  0  0  0  0  0  0  0999 V2000
   46.9170   -0.1968    7.6128 O   0  0  0  0  0  0  0  0  0  0  0  0
   46.6902    0.1164    7.7063 Mg  0  0  0  0  0 15  0  0  0  0  0  0
   46.9168   -0.1969    7.6129 O   0  0  0  0  0  0  0  0  0  0  0  0
   46.9173   -0.1965    7.6126 O   0  0  0  0  0  0  0  0  0  0  0  0
   46.9161   -0.1975    7.6133 O   0  0  0  0  0  0  0  0  0  0  0  0
   46.6902    0.1164    7.7063 Cl  0  0  0  0  0  0  0  0  0  0  0  0
   46.6902    0.1164    7.7063 Cl  0  0  0  0  0  0  0  0  0  0  0  0
   46.9171   -0.1966    7.6127 O   0  0  0  0  0  0  0  0  0  0  0  0
   46.9166   -0.1971    7.6130 O   0  0  0  0  0  0  0  0  0  0  0  0
   46.0513   -0.1960    8.0479 H   0  0  0  0  0  0  0  0  0  0  0  0
   47.1022    0.7418    7.4583 H   0  0  0  0  0  0  0  0  0  0  0  0
   46.0510   -0.1952    8.0480 H   0  0  0  0  0  0  0  0  0  0  0  0
   47.1028    0.7413    7.4581 H   0  0  0  0  0  0  0  0  0  0  0  0
   47.1017    0.7422    7.4585 H   0  0  0  0  0  0  0  0  0  0  0  0
   46.0515   -0.1966    8.0478 H   0  0  0  0  0  0  0  0  0  0  0  0
   47.1041    0.7402    7.4575 H   0  0  0  0  0  0  0  0  0  0  0  0
   46.0502   -0.1936    8.0483 H   0  0  0  0  0  0  0  0  0  0  0  0
   46.0513   -0.1962    8.0479 H   0  0  0  0  0  0  0  0  0  0  0  0
   47.1020    0.7419    7.4584 H   0  0  0  0  0  0  0  0  0  0  0  0
   47.1031    0.7410    7.4579 H   0  0  0  0  0  0  0  0  0  0  0  0
   46.0508   -0.1948    8.0481 H   0  0  0  0  0  0  0  0  0  0  0  0
  1 10  1  0
  1 11  1  0
  3 12  1  0
  3 13  1  0
  4 14  1  0
  4 15  1  0
  5 16  1  0
  5 17  1  0
  8 18  1  0
  8 19  1  0
  9 20  1  0
  9 21  1  0
M  CHG  3   2   2   6  -1   7  -1
M  END
> <Uni-Dock RESULT> 
ENERGY=   -5.850  LOWER_BOUND=    9.100  UPPER_BOUND=    9.100
INTER + INTRA:          -5.850
INTER:                  -5.850
INTRA:                   0.000
UNBOUND:                 0.000

$$$$

     RDKit          3D

 21 12  0  0  0  0  0  0  0  0999 V2000
   48.0605    1.5333    7.0728 O   0  0  0  0  0  0  0  0  0  0  0  0
   47.6840    1.4496    6.9755 Mg  0  0  0  0  0 15  0  0  0  0  0  0
   48.0605    1.5330    7.0729 O   0  0  0  0  0  0  0  0  0  0  0  0
   48.0605    1.5336    7.0725 O   0  0  0  0  0  0  0  0  0  0  0  0
   48.0606    1.5322    7.0735 O   0  0  0  0  0  0  0  0  0  0  0  0
   47.6840    1.4496    6.9755 Cl  0  0  0  0  0  0  0  0  0  0  0  0
   47.6840    1.4496    6.9755 Cl  0  0  0  0  0  0  0  0  0  0  0  0
   48.0605    1.5335    7.0726 O   0  0  0  0  0  0  0  0  0  0  0  0
   48.0606    1.5328    7.0731 O   0  0  0  0  0  0  0  0  0  0  0  0
   47.5239    0.7791    7.3592 H   0  0  0  0  0  0  0  0  0  0  0  0
   47.4675    2.0364    6.4946 H   0  0  0  0  0  0  0  0  0  0  0  0
   47.5231    0.7791    7.3589 H   0  0  0  0  0  0  0  0  0  0  0  0
   47.4683    2.0367    6.4947 H   0  0  0  0  0  0  0  0  0  0  0  0
   47.4669    2.0361    6.4945 H   0  0  0  0  0  0  0  0  0  0  0  0
   47.5245    0.7791    7.3595 H   0  0  0  0  0  0  0  0  0  0  0  0
   47.4699    2.0375    6.4948 H   0  0  0  0  0  0  0  0  0  0  0  0
   47.5214    0.7791    7.3583 H   0  0  0  0  0  0  0  0  0  0  0  0
   47.5241    0.7791    7.3593 H   0  0  0  0  0  0  0  0  0  0  0  0
   47.4673    2.0363    6.4946 H   0  0  0  0  0  0  0  0  0  0  0  0
   47.4687    2.0369    6.4947 H   0  0  0  0  0  0  0  0  0  0  0  0
   47.5227    0.7791    7.3587 H   0  0  0  0  0  0  0  0  0  0  0  0
  1 10  1  0
  1 11  1  0
  3 12  1  0
  3 13  1  0
  4 14  1  0
  4 15  1  0
  5 16  1  0
  5 17  1  0
  8 18  1  0
  8 19  1  0
  9 20  1  0
  9 21  1  0
M  CHG  3   2   2   6  -1   7  -1
M  END
> <Uni-Dock RESULT> 
ENERGY=   -5.365  LOWER_BOUND=    9.515  UPPER_BOUND=    9.515
INTER + INTRA:          -5.365
INTER:                  -5.365
INTRA:                   0.000
UNBOUND:                 0.000

$$$$

     RDKit          3D

 21 12  0  0  0  0  0  0  0  0999 V2000
   48.2500    1.9512    5.7311 O   0  0  0  0  0  0  0  0  0  0  0  0
   48.0531    2.2832    5.8271 Mg  0  0  0  0  0 15  0  0  0  0  0  0
   48.2500    1.9511    5.7314 O   0  0  0  0  0  0  0  0  0  0  0  0
   48.2500    1.9513    5.7307 O   0  0  0  0  0  0  0  0  0  0  0  0
   48.2500    1.9508    5.7323 O   0  0  0  0  0  0  0  0  0  0  0  0
   48.0531    2.2832    5.8271 Cl  0  0  0  0  0  0  0  0  0  0  0  0
   48.0531    2.2832    5.8271 Cl  0  0  0  0  0  0  0  0  0  0  0  0
   48.2500    1.9512    5.7309 O   0  0  0  0  0  0  0  0  0  0  0  0
   48.2500    1.9510    5.7317 O   0  0  0  0  0  0  0  0  0  0  0  0
   47.9347    2.2262    6.6050 H   0  0  0  0  0  0  0  0  0  0  0  0
   47.9747    2.6724    5.1453 H   0  0  0  0  0  0  0  0  0  0  0  0
   47.9343    2.2269    6.6050 H   0  0  0  0  0  0  0  0  0  0  0  0
   47.9751    2.6718    5.1449 H   0  0  0  0  0  0  0  0  0  0  0  0
   47.9744    2.6728    5.1456 H   0  0  0  0  0  0  0  0  0  0  0  0
   47.9350    2.2256    6.6051 H   0  0  0  0  0  0  0  0  0  0  0  0
   47.9760    2.6704    5.1440 H   0  0  0  0  0  0  0  0  0  0  0  0
   47.9334    2.2285    6.6050 H   0  0  0  0  0  0  0  0  0  0  0  0
   47.9348    2.2260    6.6051 H   0  0  0  0  0  0  0  0  0  0  0  0
   47.9746    2.6725    5.1454 H   0  0  0  0  0  0  0  0  0  0  0  0
   47.9753    2.6714    5.1447 H   0  0  0  0  0  0  0  0  0  0  0  0
   47.9340    2.2273    6.6050 H   0  0  0  0  0  0  0  0  0  0  0  0
  1 10  1  0
  1 11  1  0
  3 12  1  0
  3 13  1  0
  4 14  1  0
  4 15  1  0
  5 16  1  0
  5 17  1  0
  8 18  1  0
  8 19  1  0
  9 20  1  0
  9 21  1  0
M  CHG  3   2   2   6  -1   7  -1
M  END
> <Uni-Dock RESULT> 
ENERGY=   -5.285  LOWER_BOUND=    9.556  UPPER_BOUND=    9.556
INTER + INTRA:          -5.285
INTER:                  -5.285
INTRA:                   0.000
UNBOUND:                 0.000

$$$$

     RDKit          3D

 21 12  0  0  0  0  0  0  0  0999 V2000
   40.6411   12.0920   15.8690 O   0  0  0  0  0  0  0  0  0  0  0  0
   40.3679   12.3236   15.6958 Mg  0  0  0  0  0 15  0  0  0  0  0  0
   40.6413   12.0921   15.8689 O   0  0  0  0  0  0  0  0  0  0  0  0
   40.6408   12.0918   15.8693 O   0  0  0  0  0  0  0  0  0  0  0  0
   40.6420   12.0925   15.8683 O   0  0  0  0  0  0  0  0  0  0  0  0
   40.3679   12.3236   15.6958 Cl  0  0  0  0  0  0  0  0  0  0  0  0
   40.3679   12.3236   15.6958 Cl  0  0  0  0  0  0  0  0  0  0  0  0
   40.6410   12.0919   15.8692 O   0  0  0  0  0  0  0  0  0  0  0  0
   40.6415   12.0922   15.8687 O   0  0  0  0  0  0  0  0  0  0  0  0
   40.7734   12.7502   15.1704 H   0  0  0  0  0  0  0  0  0  0  0  0
   39.6894   12.1285   16.0480 H   0  0  0  0  0  0  0  0  0  0  0  0
   40.7727   12.7506   15.1702 H   0  0  0  0  0  0  0  0  0  0  0  0
   39.6898   12.1280   16.0484 H   0  0  0  0  0  0  0  0  0  0  0  0
   39.6891   12.1289   16.0476 H   0  0  0  0  0  0  0  0  0  0  0  0
   40.7739   12.7499   15.1706 H   0  0  0  0  0  0  0  0  0  0  0  0
   39.6907   12.1267   16.0495 H   0  0  0  0  0  0  0  0  0  0  0  0
   40.7711   12.7515   15.1697 H   0  0  0  0  0  0  0  0  0  0  0  0
   40.7736   12.7501   15.1705 H   0  0  0  0  0  0  0  0  0  0  0  0
   39.6893   12.1287   16.0478 H   0  0  0  0  0  0  0  0  0  0  0  0
   39.6901   12.1276   16.0487 H   0  0  0  0  0  0  0  0  0  0  0  0
   40.7722   12.7508   15.1701 H   0  0  0  0  0  0  0  0  0  0  0  0
  1 10  1  0
  1 11  1  0
  3 12  1  0
  3 13  1  0
  4 14  1  0
  4 15  1  0
  5 16  1  0
  5 17  1  0
  8 18  1  0
  8 19  1  0
  9 20  1  0
  9 21  1  0
M  CHG  3   2   2   6  -1   7  -1
M  END
> <Uni-Dock RESULT> 
ENERGY=   -5.081  LOWER_BOUND=   13.379  UPPER_BOUND=   13.379
INTER + INTRA:          -5.081
INTER:                  -5.081
INTRA:                   0.000
UNBOUND:                 0.000

$$$$

     RDKit          3D

 21 12  0  0  0  0  0  0  0  0999 V2000
   40.8066    1.9004   21.9549 O   0  0  0  0  0  0  0  0  0  0  0  0
   40.7827    1.8295   22.3456 Mg  0  0  0  0  0 15  0  0  0  0  0  0
   40.8067    1.9001   21.9549 O   0  0  0  0  0  0  0  0  0  0  0  0
   40.8064    1.9008   21.9550 O   0  0  0  0  0  0  0  0  0  0  0  0
   40.8070    1.8992   21.9547 O   0  0  0  0  0  0  0  0  0  0  0  0
   40.7827    1.8295   22.3456 Cl  0  0  0  0  0  0  0  0  0  0  0  0
   40.7827    1.8295   22.3456 Cl  0  0  0  0  0  0  0  0  0  0  0  0
   40.8065    1.9006   21.9550 O   0  0  0  0  0  0  0  0  0  0  0  0
   40.8068    1.8998   21.9548 O   0  0  0  0  0  0  0  0  0  0  0  0
   41.0178    1.0808   22.4265 H   0  0  0  0  0  0  0  0  0  0  0  0
   40.5236    2.5073   22.6555 H   0  0  0  0  0  0  0  0  0  0  0  0
   41.0177    1.0808   22.4273 H   0  0  0  0  0  0  0  0  0  0  0  0
   40.5236    2.5076   22.6547 H   0  0  0  0  0  0  0  0  0  0  0  0
   40.5236    2.5070   22.6560 H   0  0  0  0  0  0  0  0  0  0  0  0
   41.0179    1.0807   22.4259 H   0  0  0  0  0  0  0  0  0  0  0  0
   40.5236    2.5084   22.6530 H   0  0  0  0  0  0  0  0  0  0  0  0
   41.0175    1.0809   22.4292 H   0  0  0  0  0  0  0  0  0  0  0  0
   41.0179    1.0807   22.4263 H   0  0  0  0  0  0  0  0  0  0  0  0
   40.5236    2.5072   22.6556 H   0  0  0  0  0  0  0  0  0  0  0  0
   40.5236    2.5078   22.6542 H   0  0  0  0  0  0  0  0  0  0  0  0
   41.0176    1.0808   22.4279 H   0  0  0  0  0  0  0  0  0  0  0  0
  1 10  1  0
  1 11  1  0
  3 12  1  0
  3 13  1  0
  4 14  1  0
  4 15  1  0
  5 16  1  0
  5 17  1  0
  8 18  1  0
  8 19  1  0
  9 20  1  0
  9 21  1  0
M  CHG  3   2   2   6  -1   7  -1
M  END
> <Uni-Dock RESULT> 
ENERGY=   -4.770  LOWER_BOUND=   16.605  UPPER_BOUND=   16.605
INTER + INTRA:          -4.770
INTER:                  -4.770
INTRA:                   0.000
UNBOUND:                 0.000

$$$$

     RDKit          3D

 21 12  0  0  0  0  0  0  0  0999 V2000
   42.0438    5.9031   11.7610 O   0  0  0  0  0  0  0  0  0  0  0  0
   42.3273    5.6428   11.8616 Mg  0  0  0  0  0 15  0  0  0  0  0  0
   42.0436    5.9030   11.7612 O   0  0  0  0  0  0  0  0  0  0  0  0
   42.0440    5.9033   11.7608 O   0  0  0  0  0  0  0  0  0  0  0  0
   42.0430    5.9025   11.7618 O   0  0  0  0  0  0  0  0  0  0  0  0
   42.3273    5.6428   11.8616 Cl  0  0  0  0  0  0  0  0  0  0  0  0
   42.3273    5.6428   11.8616 Cl  0  0  0  0  0  0  0  0  0  0  0  0
   42.0439    5.9032   11.7609 O   0  0  0  0  0  0  0  0  0  0  0  0
   42.0434    5.9028   11.7614 O   0  0  0  0  0  0  0  0  0  0  0  0
   41.9760    5.1535   12.3711 H   0  0  0  0  0  0  0  0  0  0  0  0
   42.9620    5.8719   11.4528 H   0  0  0  0  0  0  0  0  0  0  0  0
   41.9767    5.1530   12.3712 H   0  0  0  0  0  0  0  0  0  0  0  0
   42.9616    5.8725   11.4525 H   0  0  0  0  0  0  0  0  0  0  0  0
   42.9623    5.8714   11.4531 H   0  0  0  0  0  0  0  0  0  0  0  0
   41.9755    5.1538   12.3711 H   0  0  0  0  0  0  0  0  0  0  0  0
   42.9606    5.8739   11.4518 H   0  0  0  0  0  0  0  0  0  0  0  0
   41.9783    5.1521   12.3714 H   0  0  0  0  0  0  0  0  0  0  0  0
   41.9758    5.1536   12.3711 H   0  0  0  0  0  0  0  0  0  0  0  0
   42.9621    5.8717   11.4529 H   0  0  0  0  0  0  0  0  0  0  0  0
   42.9613    5.8729   11.4523 H   0  0  0  0  0  0  0  0  0  0  0  0
   41.9772    5.1528   12.3713 H   0  0  0  0  0  0  0  0  0  0  0  0
  1 10  1  0
  1 11  1  0
  3 12  1  0
  3 13  1  0
  4 14  1  0
  4 15  1  0
  5 16  1  0
  5 17  1  0
  8 18  1  0
  8 19  1  0
  9 20  1  0
  9 21  1  0
M  CHG  3   2   2   6  -1   7  -1
M  END
> <Uni-Dock RESULT> 
ENERGY=   -4.649  LOWER_BOUND=    7.323  UPPER_BOUND=    7.323
INTER + INTRA:          -4.649
INTER:                  -4.649
INTRA:                   0.000
UNBOUND:                 0.000

$$$$
