
     RDKit          3D

 44 19  0  0  0  0  0  0  0  0999 V2000
    0.0000    0.0000    0.0000 Mg  0  0  0  0  0 15  0  0  0  0  0  0
    0.0027    0.0295   -0.0003 C   0  0  0  0  0  0  0  0  0  0  0  0
   -1.1421   -0.7342    0.0356 O   0  0  0  0  0  0  0  0  0  0  0  0
    1.2391   -0.5733   -0.0285 O   0  0  0  0  0  0  0  0  0  0  0  0
   -0.0997    1.2780   -0.0068 O   0  0  0  0  0  0  0  0  0  0  0  0
    0.4924    0.0000    0.0000 O   0  0  0  0  0  0  0  0  0  0  0  0
    0.4907    0.0000    0.0000 O   0  0  0  0  0  0  0  0  0  0  0  0
    0.4913    0.0000    0.0000 O   0  0  0  0  0  0  0  0  0  0  0  0
    0.0000    0.0000    0.0000 Mg  0  0  0  0  0 15  0  0  0  0  0  0
    0.0000    0.0000    0.0000 Mg  0  0  0  0  0 15  0  0  0  0  0  0
    0.4909    0.0000    0.0000 O   0  0  0  0  0  0  0  0  0  0  0  0
    0.4941    0.0000    0.0000 O   0  0  0  0  0  0  0  0  0  0  0  0
    0.4997    0.0000    0.0000 O   0  0  0  0  0  0  0  0  0  0  0  0
    0.4974    0.0000    0.0000 O   0  0  0  0  0  0  0  0  0  0  0  0
    0.4919    0.0000    0.0000 O   0  0  0  0  0  0  0  0  0  0  0  0
    0.4933    0.0000    0.0000 O   0  0  0  0  0  0  0  0  0  0  0  0
    0.4953    0.0000    0.0000 O   0  0  0  0  0  0  0  0  0  0  0  0
    0.4983    0.0000    0.0000 O   0  0  0  0  0  0  0  0  0  0  0  0
    0.4929    0.0000    0.0000 O   0  0  0  0  0  0  0  0  0  0  0  0
    0.4979    0.0000    0.0000 O   0  0  0  0  0  0  0  0  0  0  0  0
    0.4999    0.0000    0.0000 O   0  0  0  0  0  0  0  0  0  0  0  0
    0.4980    0.0000    0.0000 O   0  0  0  0  0  0  0  0  0  0  0  0
    0.4923    0.0000    0.0000 O   0  0  0  0  0  0  0  0  0  0  0  0
    0.0000    0.0000    0.0000 Al  0  0  0  0  0 15  0  0  0  0  0  0
    0.0000    0.0000    0.0000 Al  0  0  0  0  0 15  0  0  0  0  0  0
    0.0000    0.0000    0.0000 Mg  0  0  0  0  0 15  0  0  0  0  0  0
    0.0000    0.0000    0.0000 Mg  0  0  0  0  0 15  0  0  0  0  0  0
    0.0000    0.0000    0.0000 Mg  0  0  0  0  0 15  0  0  0  0  0  0
   -0.4924    0.0000    0.0000 H   0  0  0  0  0  0  0  0  0  0  0  0
   -0.4907    0.0000    0.0000 H   0  0  0  0  0  0  0  0  0  0  0  0
   -0.4913    0.0000    0.0000 H   0  0  0  0  0  0  0  0  0  0  0  0
   -0.4909    0.0000    0.0000 H   0  0  0  0  0  0  0  0  0  0  0  0
   -0.4941    0.0000    0.0000 H   0  0  0  0  0  0  0  0  0  0  0  0
   -0.4997    0.0000    0.0000 H   0  0  0  0  0  0  0  0  0  0  0  0
   -0.4974    0.0000    0.0000 H   0  0  0  0  0  0  0  0  0  0  0  0
   -0.4919    0.0000    0.0000 H   0  0  0  0  0  0  0  0  0  0  0  0
   -0.4933    0.0000    0.0000 H   0  0  0  0  0  0  0  0  0  0  0  0
   -0.4953    0.0000    0.0000 H   0  0  0  0  0  0  0  0  0  0  0  0
   -0.4983    0.0000    0.0000 H   0  0  0  0  0  0  0  0  0  0  0  0
   -0.4929    0.0000    0.0000 H   0  0  0  0  0  0  0  0  0  0  0  0
   -0.4979    0.0000    0.0000 H   0  0  0  0  0  0  0  0  0  0  0  0
   -0.4999    0.0000    0.0000 H   0  0  0  0  0  0  0  0  0  0  0  0
   -0.4980    0.0000    0.0000 H   0  0  0  0  0  0  0  0  0  0  0  0
   -0.4923    0.0000    0.0000 H   0  0  0  0  0  0  0  0  0  0  0  0
  3  2  1  0
  4  2  1  0
  5  2  2  0
  6 29  1  0
  7 30  1  0
  8 31  1  0
 11 32  1  0
 12 33  1  0
 13 34  1  0
 14 35  1  0
 15 36  1  0
 16 37  1  0
 17 38  1  0
 18 39  1  0
 19 40  1  0
 20 41  1  0
 21 42  1  0
 22 43  1  0
 23 44  1  0
M  CHG  8   1   2   3  -1   4  -1   6  -1   7  -1   8  -1   9   2  10   2
M  CHG  8  11  -1  12  -1  13  -1  14  -1  15  -1  16  -1  17  -1  18  -1
M  CHG  8  19  -1  20  -1  21  -1  22  -1  23  -1  24   3  25   3  26   2
M  CHG  2  27   2  28   2
M  END
$$$$
