
     RDKit          3D

 44 19  0  0  0  0  0  0  0  0999 V2000
    0.0000    0.0000    0.0000 Mg  0  0  0  0  0 15  0  0  0  0  0  0
   -0.0086    0.0376    0.0092 C   0  0  0  0  0  0  0  0  0  0  0  0
    1.1919   -0.6306   -0.1286 O   0  0  0  0  0  0  0  0  0  0  0  0
   -1.1749   -0.6758   -0.1986 O   0  0  0  0  0  0  0  0  0  0  0  0
   -0.0084    1.2688    0.3180 O   0  0  0  0  0  0  0  0  0  0  0  0
    0.5001    0.0000    0.0000 O   0  0  0  0  0  0  0  0  0  0  0  0
    0.4912    0.0000    0.0000 O   0  0  0  0  0  0  0  0  0  0  0  0
    0.4998    0.0000    0.0000 O   0  0  0  0  0  0  0  0  0  0  0  0
    0.0000    0.0000    0.0000 Mg  0  0  0  0  0 15  0  0  0  0  0  0
    0.0000    0.0000    0.0000 Mg  0  0  0  0  0 15  0  0  0  0  0  0
    0.4913    0.0000    0.0000 O   0  0  0  0  0  0  0  0  0  0  0  0
    0.4909    0.0000    0.0000 O   0  0  0  0  0  0  0  0  0  0  0  0
    0.4974    0.0000    0.0000 O   0  0  0  0  0  0  0  0  0  0  0  0
    0.4946    0.0000    0.0000 O   0  0  0  0  0  0  0  0  0  0  0  0
    0.4992    0.0000    0.0000 O   0  0  0  0  0  0  0  0  0  0  0  0
    0.4973    0.0000    0.0000 O   0  0  0  0  0  0  0  0  0  0  0  0
    0.4995    0.0000    0.0000 O   0  0  0  0  0  0  0  0  0  0  0  0
    0.4937    0.0000    0.0000 O   0  0  0  0  0  0  0  0  0  0  0  0
    0.4902    0.0000    0.0000 O   0  0  0  0  0  0  0  0  0  0  0  0
    0.4985    0.0000    0.0000 O   0  0  0  0  0  0  0  0  0  0  0  0
    0.4927    0.0000    0.0000 O   0  0  0  0  0  0  0  0  0  0  0  0
    0.4941    0.0000    0.0000 O   0  0  0  0  0  0  0  0  0  0  0  0
    0.4953    0.0000    0.0000 O   0  0  0  0  0  0  0  0  0  0  0  0
    0.0000    0.0000    0.0000 Al  0  0  0  0  0 15  0  0  0  0  0  0
    0.0000    0.0000    0.0000 Al  0  0  0  0  0 15  0  0  0  0  0  0
    0.0000    0.0000    0.0000 Mg  0  0  0  0  0 15  0  0  0  0  0  0
    0.0000    0.0000    0.0000 Mg  0  0  0  0  0 15  0  0  0  0  0  0
    0.0000    0.0000    0.0000 Mg  0  0  0  0  0 15  0  0  0  0  0  0
   -0.5001    0.0000    0.0000 H   0  0  0  0  0  0  0  0  0  0  0  0
   -0.4912    0.0000    0.0000 H   0  0  0  0  0  0  0  0  0  0  0  0
   -0.4998    0.0000    0.0000 H   0  0  0  0  0  0  0  0  0  0  0  0
   -0.4913    0.0000    0.0000 H   0  0  0  0  0  0  0  0  0  0  0  0
   -0.4909    0.0000    0.0000 H   0  0  0  0  0  0  0  0  0  0  0  0
   -0.4974    0.0000    0.0000 H   0  0  0  0  0  0  0  0  0  0  0  0
   -0.4946    0.0000    0.0000 H   0  0  0  0  0  0  0  0  0  0  0  0
   -0.4992    0.0000    0.0000 H   0  0  0  0  0  0  0  0  0  0  0  0
   -0.4973    0.0000    0.0000 H   0  0  0  0  0  0  0  0  0  0  0  0
   -0.4995    0.0000    0.0000 H   0  0  0  0  0  0  0  0  0  0  0  0
   -0.4937    0.0000    0.0000 H   0  0  0  0  0  0  0  0  0  0  0  0
   -0.4902    0.0000    0.0000 H   0  0  0  0  0  0  0  0  0  0  0  0
   -0.4985    0.0000    0.0000 H   0  0  0  0  0  0  0  0  0  0  0  0
   -0.4927    0.0000    0.0000 H   0  0  0  0  0  0  0  0  0  0  0  0
   -0.4941    0.0000    0.0000 H   0  0  0  0  0  0  0  0  0  0  0  0
   -0.4953    0.0000    0.0000 H   0  0  0  0  0  0  0  0  0  0  0  0
  3  2  1  0
  4  2  1  0
  5  2  2  0
  6 29  1  0
  7 30  1  0
  8 31  1  0
 11 32  1  0
 12 33  1  0
 13 34  1  0
 14 35  1  0
 15 36  1  0
 16 37  1  0
 17 38  1  0
 18 39  1  0
 19 40  1  0
 20 41  1  0
 21 42  1  0
 22 43  1  0
 23 44  1  0
M  CHG  8   1   2   3  -1   4  -1   6  -1   7  -1   8  -1   9   2  10   2
M  CHG  8  11  -1  12  -1  13  -1  14  -1  15  -1  16  -1  17  -1  18  -1
M  CHG  8  19  -1  20  -1  21  -1  22  -1  23  -1  24   3  25   3  26   2
M  CHG  2  27   2  28   2
M  END
$$$$
