
     RDKit          3D

 61 64  0  0  0  0  0  0  0  0999 V2000
   -6.6825    2.6716   -1.9574 C   0  0  0  0  0  0  0  0  0  0  0  0
   -8.0127    2.7068   -2.4932 O   0  0  0  0  0  0  0  0  0  0  0  0
   -8.8875    1.7493   -1.8800 C   0  0  0  0  0  0  0  0  0  0  0  0
   -8.4318    1.3048   -0.4849 C   0  0  0  0  0  0  0  0  0  0  0  0
   -7.1043    0.6476   -0.5105 N   0  0  0  0  0  0  0  0  0  0  0  0
   -6.2456    1.2581   -1.5504 C   0  0  0  0  0  0  0  0  0  0  0  0
   -6.5032    0.6626    0.8388 C   0  0  0  0  0  0  0  0  0  0  0  0
   -5.2776   -0.2527    1.0043 C   0  0  0  0  0  0  0  0  0  0  0  0
   -4.0916    0.4908    0.7301 O   0  0  0  0  0  0  0  0  0  0  0  0
   -2.8944   -0.1496    0.8724 C   0  0  0  0  0  0  0  0  0  0  0  0
   -2.7107   -1.4726    1.2702 C   0  0  0  0  0  0  0  0  0  0  0  0
   -1.7761    0.6376    0.5794 C   0  0  0  0  0  0  0  0  0  0  0  0
   -0.4848    0.1116    0.6844 C   0  0  0  0  0  0  0  0  0  0  0  0
   -0.2807   -1.2203    1.0851 C   0  0  0  0  0  0  0  0  0  0  0  0
   -1.4151   -1.9999    1.3747 C   0  0  0  0  0  0  0  0  0  0  0  0
    1.0731   -1.7837    1.1862 C   0  0  0  0  0  0  0  0  0  0  0  0
    1.4249   -2.9814    0.5551 C   0  0  0  0  0  0  0  0  0  0  0  0
    2.0845   -1.1491    1.9047 C   0  0  0  0  0  0  0  0  0  0  0  0
    3.3598   -1.5994    2.0170 N   0  0  0  0  0  0  0  0  0  0  0  0
    3.6636   -2.7595    1.3881 C   0  0  0  0  0  0  0  0  0  0  0  0
    2.7261   -3.4752    0.6523 C   0  0  0  0  0  0  0  0  0  0  0  0
    5.9787   -3.7233   -0.7133 O   0  0  0  0  0  0  0  0  0  0  0  0
    5.8346   -2.9030    0.1936 C   0  0  0  0  0  0  0  0  0  0  0  0
    5.0916   -3.2247    1.4691 C   0  0  0  0  0  0  0  0  0  0  0  0
    7.0285   -1.1253   -1.0193 C   0  0  0  0  0  0  0  0  0  0  0  0
    6.3115   -1.6164    0.1332 N   0  0  0  0  0  0  0  0  0  0  0  0
    8.4074    0.9523   -0.6092 C   0  0  0  0  0  0  0  0  0  0  0  0
    7.1781    0.3708   -0.9507 C   0  0  0  0  0  0  0  0  0  0  0  0
    6.0637    1.2027   -1.1739 C   0  0  0  0  0  0  0  0  0  0  0  0
    6.1783    2.5838   -1.0560 C   0  0  0  0  0  0  0  0  0  0  0  0
    7.4050    3.1522   -0.7140 C   0  0  0  0  0  0  0  0  0  0  0  0
    8.5183    2.3392   -0.4908 C   0  0  0  0  0  0  0  0  0  0  0  0
   -6.0075    3.0668   -2.7268 H   0  0  0  0  0  0  0  0  0  0  0  0
   -6.6378    3.3550   -1.1034 H   0  0  0  0  0  0  0  0  0  0  0  0
   -9.8805    2.2082   -1.8186 H   0  0  0  0  0  0  0  0  0  0  0  0
   -8.9677    0.8873   -2.5526 H   0  0  0  0  0  0  0  0  0  0  0  0
   -8.4150    2.1895    0.1699 H   0  0  0  0  0  0  0  0  0  0  0  0
   -9.1637    0.6057   -0.0718 H   0  0  0  0  0  0  0  0  0  0  0  0
   -6.3189    0.6113   -2.4329 H   0  0  0  0  0  0  0  0  0  0  0  0
   -5.1900    1.2739   -1.2769 H   0  0  0  0  0  0  0  0  0  0  0  0
   -6.2534    1.6862    1.1355 H   0  0  0  0  0  0  0  0  0  0  0  0
   -7.2573    0.2903    1.5410 H   0  0  0  0  0  0  0  0  0  0  0  0
   -5.3540   -1.1196    0.3420 H   0  0  0  0  0  0  0  0  0  0  0  0
   -5.2546   -0.5957    2.0443 H   0  0  0  0  0  0  0  0  0  0  0  0
   -3.5480   -2.1242    1.5084 H   0  0  0  0  0  0  0  0  0  0  0  0
   -1.9109    1.6704    0.2613 H   0  0  0  0  0  0  0  0  0  0  0  0
    0.3609    0.7513    0.4316 H   0  0  0  0  0  0  0  0  0  0  0  0
   -1.2994   -3.0341    1.6992 H   0  0  0  0  0  0  0  0  0  0  0  0
    0.6944   -3.5256   -0.0371 H   0  0  0  0  0  0  0  0  0  0  0  0
    1.8918   -0.2197    2.4372 H   0  0  0  0  0  0  0  0  0  0  0  0
    3.0063   -4.3921    0.1434 H   0  0  0  0  0  0  0  0  0  0  0  0
    5.1358   -4.3060    1.6476 H   0  0  0  0  0  0  0  0  0  0  0  0
    5.6024   -2.7450    2.3168 H   0  0  0  0  0  0  0  0  0  0  0  0
    6.5008   -1.4215   -1.9330 H   0  0  0  0  0  0  0  0  0  0  0  0
    8.0060   -1.6209   -1.0352 H   0  0  0  0  0  0  0  0  0  0  0  0
    6.0805   -0.9648    0.8792 H   0  0  0  0  0  0  0  0  0  0  0  0
    9.2773    0.3231   -0.4202 H   0  0  0  0  0  0  0  0  0  0  0  0
    5.0978    0.7640   -1.4229 H   0  0  0  0  0  0  0  0  0  0  0  0
    5.3103    3.2201   -1.2188 H   0  0  0  0  0  0  0  0  0  0  0  0
    7.4933    4.2256   -0.6205 H   0  0  0  0  0  0  0  0  0  0  0  0
    9.4722    2.7905   -0.2217 H   0  0  0  0  0  0  0  0  0  0  0  0
  1  2  1  0
  2  3  1  0
  3  4  1  0
  4  5  1  0
  5  6  1  0
  1  6  1  0
  7  8  1  0
  5  7  1  0
  9 10  1  0
 10 11  2  0
  8  9  1  0
 12 13  2  0
 13 14  1  0
 14 15  2  0
 10 12  1  0
 11 15  1  0
 16 17  2  0
 16 14  1  0
 18 19  2  0
 19 20  1  0
 20 21  2  0
 17 21  1  0
 16 18  1  0
 22 23  2  0
 23 24  1  0
 20 24  1  0
 25 26  1  0
 23 26  1  0
 27 28  2  0
 25 28  1  0
 29 30  2  0
 30 31  1  0
 31 32  2  0
 27 32  1  0
 28 29  1  0
  1 33  1  0
  1 34  1  0
  3 35  1  0
  3 36  1  0
  4 37  1  0
  4 38  1  0
  6 39  1  0
  6 40  1  0
  7 41  1  0
  7 42  1  0
  8 43  1  0
  8 44  1  0
 11 45  1  0
 12 46  1  0
 13 47  1  0
 15 48  1  0
 17 49  1  0
 18 50  1  0
 21 51  1  0
 24 52  1  0
 24 53  1  0
 25 54  1  0
 25 55  1  0
 26 56  1  0
 27 57  1  0
 29 58  1  0
 30 59  1  0
 31 60  1  0
 32 61  1  0
M  END
$$$$
