
     RDKit          3D

 61 64  0  0  0  0  0  0  0  0999 V2000
   -8.0448    1.6280    1.1090 C   0  0  0  0  0  0  0  0  0  0  0  0
   -9.0028    2.2140    0.2180 O   0  0  0  0  0  0  0  0  0  0  0  0
   -9.0592    1.5506   -1.0552 C   0  0  0  0  0  0  0  0  0  0  0  0
   -8.6251    0.0783   -1.0024 C   0  0  0  0  0  0  0  0  0  0  0  0
   -7.2571   -0.1270   -0.4803 N   0  0  0  0  0  0  0  0  0  0  0  0
   -6.8479    1.0165    0.3673 C   0  0  0  0  0  0  0  0  0  0  0  0
   -6.2818   -0.3859   -1.5634 C   0  0  0  0  0  0  0  0  0  0  0  0
   -4.9041   -0.8505   -1.0503 C   0  0  0  0  0  0  0  0  0  0  0  0
   -4.1024    0.2888   -0.7077 O   0  0  0  0  0  0  0  0  0  0  0  0
   -2.8424    0.0380   -0.2361 C   0  0  0  0  0  0  0  0  0  0  0  0
   -2.3059   -1.2162    0.0420 C   0  0  0  0  0  0  0  0  0  0  0  0
   -2.0573    1.1718   -0.0168 C   0  0  0  0  0  0  0  0  0  0  0  0
   -0.7486    1.0552    0.4715 C   0  0  0  0  0  0  0  0  0  0  0  0
   -0.1938   -0.2014    0.7553 C   0  0  0  0  0  0  0  0  0  0  0  0
   -0.9974   -1.3335    0.5315 C   0  0  0  0  0  0  0  0  0  0  0  0
    1.1714   -0.3412    1.2860 C   0  0  0  0  0  0  0  0  0  0  0  0
    1.6137    0.3800    2.3977 C   0  0  0  0  0  0  0  0  0  0  0  0
    2.0883   -1.2344    0.7358 C   0  0  0  0  0  0  0  0  0  0  0  0
    3.3380   -1.4636    1.2130 N   0  0  0  0  0  0  0  0  0  0  0  0
    3.7306   -0.7573    2.3033 C   0  0  0  0  0  0  0  0  0  0  0  0
    2.8930    0.1701    2.9146 C   0  0  0  0  0  0  0  0  0  0  0  0
    7.4108   -1.0096    2.4470 O   0  0  0  0  0  0  0  0  0  0  0  0
    6.2635   -1.2091    2.0132 C   0  0  0  0  0  0  0  0  0  0  0  0
    5.0569   -1.1040    2.9341 C   0  0  0  0  0  0  0  0  0  0  0  0
    7.0584   -1.8119   -0.2490 C   0  0  0  0  0  0  0  0  0  0  0  0
    6.0178   -1.6292    0.7314 N   0  0  0  0  0  0  0  0  0  0  0  0
    6.7386   -0.2770   -2.2346 C   0  0  0  0  0  0  0  0  0  0  0  0
    7.3553   -0.5433   -1.0038 C   0  0  0  0  0  0  0  0  0  0  0  0
    8.2409    0.4037   -0.4729 C   0  0  0  0  0  0  0  0  0  0  0  0
    8.5189    1.5804   -1.1664 C   0  0  0  0  0  0  0  0  0  0  0  0
    7.9089    1.8274   -2.3973 C   0  0  0  0  0  0  0  0  0  0  0  0
    7.0188    0.9001   -2.9299 C   0  0  0  0  0  0  0  0  0  0  0  0
   -8.5540    0.8747    1.7150 H   0  0  0  0  0  0  0  0  0  0  0  0
   -7.7065    2.4120    1.7864 H   0  0  0  0  0  0  0  0  0  0  0  0
  -10.0924    1.6206   -1.4145 H   0  0  0  0  0  0  0  0  0  0  0  0
   -8.4302    2.1107   -1.7594 H   0  0  0  0  0  0  0  0  0  0  0  0
   -9.3032   -0.4543   -0.3288 H   0  0  0  0  0  0  0  0  0  0  0  0
   -8.7560   -0.3779   -1.9854 H   0  0  0  0  0  0  0  0  0  0  0  0
   -6.3934    1.8054   -0.2477 H   0  0  0  0  0  0  0  0  0  0  0  0
   -6.1044    0.6790    1.0981 H   0  0  0  0  0  0  0  0  0  0  0  0
   -6.6737   -1.2055   -2.1854 H   0  0  0  0  0  0  0  0  0  0  0  0
   -6.1735    0.5032   -2.2073 H   0  0  0  0  0  0  0  0  0  0  0  0
   -4.4083   -1.4078   -1.8593 H   0  0  0  0  0  0  0  0  0  0  0  0
   -5.0379   -1.5133   -0.1798 H   0  0  0  0  0  0  0  0  0  0  0  0
   -2.8786   -2.1276   -0.0958 H   0  0  0  0  0  0  0  0  0  0  0  0
   -2.4643    2.1578   -0.2273 H   0  0  0  0  0  0  0  0  0  0  0  0
   -0.1646    1.9624    0.6162 H   0  0  0  0  0  0  0  0  0  0  0  0
   -0.6181   -2.3299    0.7567 H   0  0  0  0  0  0  0  0  0  0  0  0
    0.9519    1.0843    2.8971 H   0  0  0  0  0  0  0  0  0  0  0  0
    1.8319   -1.8279   -0.1389 H   0  0  0  0  0  0  0  0  0  0  0  0
    3.2079    0.7102    3.8006 H   0  0  0  0  0  0  0  0  0  0  0  0
    5.3028   -0.3454    3.6864 H   0  0  0  0  0  0  0  0  0  0  0  0
    4.9515   -2.0613    3.4543 H   0  0  0  0  0  0  0  0  0  0  0  0
    6.7158   -2.5918   -0.9389 H   0  0  0  0  0  0  0  0  0  0  0  0
    7.9652   -2.1862    0.2367 H   0  0  0  0  0  0  0  0  0  0  0  0
    5.0445   -1.6828    0.4344 H   0  0  0  0  0  0  0  0  0  0  0  0
    6.0399   -0.9903   -2.6593 H   0  0  0  0  0  0  0  0  0  0  0  0
    8.7162    0.2252    0.4924 H   0  0  0  0  0  0  0  0  0  0  0  0
    9.2064    2.3098   -0.7416 H   0  0  0  0  0  0  0  0  0  0  0  0
    8.1323    2.7425   -2.9368 H   0  0  0  0  0  0  0  0  0  0  0  0
    6.5394    1.0965   -3.8848 H   0  0  0  0  0  0  0  0  0  0  0  0
  1  2  1  0
  2  3  1  0
  3  4  1  0
  4  5  1  0
  5  6  1  0
  1  6  1  0
  7  8  1  0
  5  7  1  0
  9 10  1  0
 10 11  2  0
  8  9  1  0
 12 13  2  0
 13 14  1  0
 14 15  2  0
 10 12  1  0
 11 15  1  0
 16 17  2  0
 16 14  1  0
 18 19  2  0
 19 20  1  0
 20 21  2  0
 17 21  1  0
 16 18  1  0
 22 23  2  0
 23 24  1  0
 20 24  1  0
 25 26  1  0
 23 26  1  0
 27 28  2  0
 25 28  1  0
 29 30  2  0
 30 31  1  0
 31 32  2  0
 27 32  1  0
 28 29  1  0
  1 33  1  0
  1 34  1  0
  3 35  1  0
  3 36  1  0
  4 37  1  0
  4 38  1  0
  6 39  1  0
  6 40  1  0
  7 41  1  0
  7 42  1  0
  8 43  1  0
  8 44  1  0
 11 45  1  0
 12 46  1  0
 13 47  1  0
 15 48  1  0
 17 49  1  0
 18 50  1  0
 21 51  1  0
 24 52  1  0
 24 53  1  0
 25 54  1  0
 25 55  1  0
 26 56  1  0
 27 57  1  0
 29 58  1  0
 30 59  1  0
 31 60  1  0
 32 61  1  0
M  END
$$$$
