
     RDKit          3D

 61 64  0  0  0  0  0  0  0  0999 V2000
    8.7632    2.0674   -0.4672 C   0  0  0  0  0  0  0  0  0  0  0  0
    9.0962    1.5972   -1.7799 O   0  0  0  0  0  0  0  0  0  0  0  0
    7.9187    1.1004   -2.4279 C   0  0  0  0  0  0  0  0  0  0  0  0
    7.2920   -0.0497   -1.6246 C   0  0  0  0  0  0  0  0  0  0  0  0
    6.9481    0.3694   -0.2477 N   0  0  0  0  0  0  0  0  0  0  0  0
    8.1506    0.9456    0.3892 C   0  0  0  0  0  0  0  0  0  0  0  0
    6.3987   -0.7726    0.5119 C   0  0  0  0  0  0  0  0  0  0  0  0
    5.8023   -0.4200    1.8902 C   0  0  0  0  0  0  0  0  0  0  0  0
    4.7100    0.4957    1.7937 O   0  0  0  0  0  0  0  0  0  0  0  0
    3.4536    0.0140    1.5631 C   0  0  0  0  0  0  0  0  0  0  0  0
    3.0914   -1.3184    1.3865 C   0  0  0  0  0  0  0  0  0  0  0  0
    2.4622    0.9946    1.5044 C   0  0  0  0  0  0  0  0  0  0  0  0
    1.1248    0.6527    1.2764 C   0  0  0  0  0  0  0  0  0  0  0  0
    0.7446   -0.6851    1.0993 C   0  0  0  0  0  0  0  0  0  0  0  0
    1.7515   -1.6620    1.1571 C   0  0  0  0  0  0  0  0  0  0  0  0
   -0.6572   -1.0538    0.8581 C   0  0  0  0  0  0  0  0  0  0  0  0
   -1.0337   -1.8631   -0.2194 C   0  0  0  0  0  0  0  0  0  0  0  0
   -1.6904   -0.6175    1.6877 C   0  0  0  0  0  0  0  0  0  0  0  0
   -3.0037   -0.9175    1.5205 N   0  0  0  0  0  0  0  0  0  0  0  0
   -3.3275   -1.7102    0.4699 C   0  0  0  0  0  0  0  0  0  0  0  0
   -2.3736   -2.1947   -0.4198 C   0  0  0  0  0  0  0  0  0  0  0  0
   -5.6010   -1.6832   -1.9522 O   0  0  0  0  0  0  0  0  0  0  0  0
   -5.3884   -1.2106   -0.8386 C   0  0  0  0  0  0  0  0  0  0  0  0
   -4.7834   -2.0301    0.2791 C   0  0  0  0  0  0  0  0  0  0  0  0
   -6.3277    1.0081   -1.3921 C   0  0  0  0  0  0  0  0  0  0  0  0
   -5.6691    0.0911   -0.4938 N   0  0  0  0  0  0  0  0  0  0  0  0
   -8.6920    0.1621   -1.6190 C   0  0  0  0  0  0  0  0  0  0  0  0
   -7.7986    1.0996   -1.0798 C   0  0  0  0  0  0  0  0  0  0  0  0
   -8.2921    2.0915   -0.2204 C   0  0  0  0  0  0  0  0  0  0  0  0
   -9.6550    2.1544    0.0775 C   0  0  0  0  0  0  0  0  0  0  0  0
  -10.5350    1.2245   -0.4744 C   0  0  0  0  0  0  0  0  0  0  0  0
  -10.0537    0.2272   -1.3206 C   0  0  0  0  0  0  0  0  0  0  0  0
    8.0811    2.9222   -0.5506 H   0  0  0  0  0  0  0  0  0  0  0  0
    9.6867    2.4247   -0.0008 H   0  0  0  0  0  0  0  0  0  0  0  0
    8.2135    0.7420   -3.4193 H   0  0  0  0  0  0  0  0  0  0  0  0
    7.2074    1.9227   -2.5694 H   0  0  0  0  0  0  0  0  0  0  0  0
    6.3911   -0.3904   -2.1480 H   0  0  0  0  0  0  0  0  0  0  0  0
    8.0024   -0.8866   -1.5912 H   0  0  0  0  0  0  0  0  0  0  0  0
    7.9037    1.3684    1.3680 H   0  0  0  0  0  0  0  0  0  0  0  0
    8.9047    0.1617    0.5360 H   0  0  0  0  0  0  0  0  0  0  0  0
    5.6011   -1.2249   -0.0893 H   0  0  0  0  0  0  0  0  0  0  0  0
    7.1705   -1.5409    0.6489 H   0  0  0  0  0  0  0  0  0  0  0  0
    6.5618    0.0613    2.5153 H   0  0  0  0  0  0  0  0  0  0  0  0
    5.5230   -1.3250    2.4421 H   0  0  0  0  0  0  0  0  0  0  0  0
    3.8174   -2.1225    1.4171 H   0  0  0  0  0  0  0  0  0  0  0  0
    2.7344    2.0398    1.6327 H   0  0  0  0  0  0  0  0  0  0  0  0
    0.3857    1.4497    1.2234 H   0  0  0  0  0  0  0  0  0  0  0  0
    1.4982   -2.7139    1.0337 H   0  0  0  0  0  0  0  0  0  0  0  0
   -0.2880   -2.2294   -0.9217 H   0  0  0  0  0  0  0  0  0  0  0  0
   -1.4839    0.0059    2.5549 H   0  0  0  0  0  0  0  0  0  0  0  0
   -2.6630   -2.8134   -1.2649 H   0  0  0  0  0  0  0  0  0  0  0  0
   -5.3407   -1.8410    1.2048 H   0  0  0  0  0  0  0  0  0  0  0  0
   -4.9122   -3.0951    0.0531 H   0  0  0  0  0  0  0  0  0  0  0  0
   -6.1788    0.7021   -2.4338 H   0  0  0  0  0  0  0  0  0  0  0  0
   -5.8497    1.9863   -1.2712 H   0  0  0  0  0  0  0  0  0  0  0  0
   -5.4865    0.3947    0.4563 H   0  0  0  0  0  0  0  0  0  0  0  0
   -8.3238   -0.6275   -2.2729 H   0  0  0  0  0  0  0  0  0  0  0  0
   -7.6186    2.8222    0.2219 H   0  0  0  0  0  0  0  0  0  0  0  0
  -10.0311    2.9284    0.7417 H   0  0  0  0  0  0  0  0  0  0  0  0
  -11.5957    1.2740   -0.2423 H   0  0  0  0  0  0  0  0  0  0  0  0
  -10.7366   -0.5026   -1.7476 H   0  0  0  0  0  0  0  0  0  0  0  0
  1  2  1  0
  2  3  1  0
  3  4  1  0
  4  5  1  0
  5  6  1  0
  1  6  1  0
  7  8  1  0
  5  7  1  0
  9 10  1  0
 10 11  2  0
  8  9  1  0
 12 13  2  0
 13 14  1  0
 14 15  2  0
 10 12  1  0
 11 15  1  0
 16 17  2  0
 16 14  1  0
 18 19  2  0
 19 20  1  0
 20 21  2  0
 17 21  1  0
 16 18  1  0
 22 23  2  0
 23 24  1  0
 20 24  1  0
 25 26  1  0
 23 26  1  0
 27 28  2  0
 25 28  1  0
 29 30  2  0
 30 31  1  0
 31 32  2  0
 27 32  1  0
 28 29  1  0
  1 33  1  0
  1 34  1  0
  3 35  1  0
  3 36  1  0
  4 37  1  0
  4 38  1  0
  6 39  1  0
  6 40  1  0
  7 41  1  0
  7 42  1  0
  8 43  1  0
  8 44  1  0
 11 45  1  0
 12 46  1  0
 13 47  1  0
 15 48  1  0
 17 49  1  0
 18 50  1  0
 21 51  1  0
 24 52  1  0
 24 53  1  0
 25 54  1  0
 25 55  1  0
 26 56  1  0
 27 57  1  0
 29 58  1  0
 30 59  1  0
 31 60  1  0
 32 61  1  0
M  END
$$$$
