
     RDKit          3D

 61 64  0  0  0  0  0  0  0  0999 V2000
    7.7984    0.1033    1.8175 C   0  0  0  0  0  0  0  0  0  0  0  0
    7.8277    1.3445    2.5354 O   0  0  0  0  0  0  0  0  0  0  0  0
    7.6639    2.4888    1.6836 C   0  0  0  0  0  0  0  0  0  0  0  0
    6.8415    2.1799    0.4218 C   0  0  0  0  0  0  0  0  0  0  0  0
    7.5186    1.1891   -0.4490 N   0  0  0  0  0  0  0  0  0  0  0  0
    8.3008    0.2329    0.3679 C   0  0  0  0  0  0  0  0  0  0  0  0
    6.5663    0.4974   -1.3432 C   0  0  0  0  0  0  0  0  0  0  0  0
    5.8110    1.4265   -2.3179 C   0  0  0  0  0  0  0  0  0  0  0  0
    4.6996    2.0844   -1.7042 O   0  0  0  0  0  0  0  0  0  0  0  0
    3.5283    1.4002   -1.5486 C   0  0  0  0  0  0  0  0  0  0  0  0
    3.2415    0.1244   -2.0265 C   0  0  0  0  0  0  0  0  0  0  0  0
    2.5477    2.0869   -0.8316 C   0  0  0  0  0  0  0  0  0  0  0  0
    1.2989    1.5056   -0.5848 C   0  0  0  0  0  0  0  0  0  0  0  0
    0.9918    0.2199   -1.0570 C   0  0  0  0  0  0  0  0  0  0  0  0
    1.9878   -0.4556   -1.7837 C   0  0  0  0  0  0  0  0  0  0  0  0
   -0.3223   -0.3955   -0.8023 C   0  0  0  0  0  0  0  0  0  0  0  0
   -1.5174    0.3195   -0.9378 C   0  0  0  0  0  0  0  0  0  0  0  0
   -0.4558   -1.7280   -0.4094 C   0  0  0  0  0  0  0  0  0  0  0  0
   -1.6324   -2.3601   -0.1679 N   0  0  0  0  0  0  0  0  0  0  0  0
   -2.7666   -1.6291   -0.2893 C   0  0  0  0  0  0  0  0  0  0  0  0
   -2.7448   -0.2939   -0.6826 C   0  0  0  0  0  0  0  0  0  0  0  0
   -4.6203   -0.7986    1.7399 O   0  0  0  0  0  0  0  0  0  0  0  0
   -4.9259   -1.7693    1.0559 C   0  0  0  0  0  0  0  0  0  0  0  0
   -4.0674   -2.3492   -0.0526 C   0  0  0  0  0  0  0  0  0  0  0  0
   -7.1454   -1.9798    2.1181 C   0  0  0  0  0  0  0  0  0  0  0  0
   -6.1198   -2.4489    1.2141 N   0  0  0  0  0  0  0  0  0  0  0  0
   -9.3336   -1.7168    0.8688 C   0  0  0  0  0  0  0  0  0  0  0  0
   -8.1614   -1.1414    1.3832 C   0  0  0  0  0  0  0  0  0  0  0  0
   -7.9254    0.2264    1.1707 C   0  0  0  0  0  0  0  0  0  0  0  0
   -8.8497    1.0063    0.4736 C   0  0  0  0  0  0  0  0  0  0  0  0
  -10.0166    0.4261   -0.0229 C   0  0  0  0  0  0  0  0  0  0  0  0
  -10.2576   -0.9344    0.1721 C   0  0  0  0  0  0  0  0  0  0  0  0
    8.4225   -0.6078    2.3695 H   0  0  0  0  0  0  0  0  0  0  0  0
    6.7708   -0.2805    1.8413 H   0  0  0  0  0  0  0  0  0  0  0  0
    7.1691    3.2679    2.2749 H   0  0  0  0  0  0  0  0  0  0  0  0
    8.6596    2.8647    1.4183 H   0  0  0  0  0  0  0  0  0  0  0  0
    5.8628    1.8007    0.7461 H   0  0  0  0  0  0  0  0  0  0  0  0
    6.6850    3.1072   -0.1407 H   0  0  0  0  0  0  0  0  0  0  0  0
    9.3316    0.6105    0.3944 H   0  0  0  0  0  0  0  0  0  0  0  0
    8.3513   -0.7567   -0.1018 H   0  0  0  0  0  0  0  0  0  0  0  0
    7.1452   -0.1974   -1.9653 H   0  0  0  0  0  0  0  0  0  0  0  0
    5.8621   -0.0993   -0.7517 H   0  0  0  0  0  0  0  0  0  0  0  0
    6.4904    2.2120   -2.6705 H   0  0  0  0  0  0  0  0  0  0  0  0
    5.5025    0.8912   -3.2236 H   0  0  0  0  0  0  0  0  0  0  0  0
    3.9625   -0.4559   -2.5934 H   0  0  0  0  0  0  0  0  0  0  0  0
    2.7579    3.0832   -0.4506 H   0  0  0  0  0  0  0  0  0  0  0  0
    0.5715    2.0694   -0.0027 H   0  0  0  0  0  0  0  0  0  0  0  0
    1.7940   -1.4486   -2.1872 H   0  0  0  0  0  0  0  0  0  0  0  0
   -1.5076    1.3613   -1.2493 H   0  0  0  0  0  0  0  0  0  0  0  0
    0.4178   -2.3582   -0.2615 H   0  0  0  0  0  0  0  0  0  0  0  0
   -3.6657    0.2731   -0.7812 H   0  0  0  0  0  0  0  0  0  0  0  0
   -4.6444   -2.3406   -0.9852 H   0  0  0  0  0  0  0  0  0  0  0  0
   -3.8628   -3.3974    0.1996 H   0  0  0  0  0  0  0  0  0  0  0  0
   -7.6237   -2.8646    2.5537 H   0  0  0  0  0  0  0  0  0  0  0  0
   -6.7045   -1.4098    2.9447 H   0  0  0  0  0  0  0  0  0  0  0  0
   -6.3964   -3.1204    0.5111 H   0  0  0  0  0  0  0  0  0  0  0  0
   -9.5369   -2.7768    1.0115 H   0  0  0  0  0  0  0  0  0  0  0  0
   -7.0129    0.6868    1.5498 H   0  0  0  0  0  0  0  0  0  0  0  0
   -8.6574    2.0659    0.3189 H   0  0  0  0  0  0  0  0  0  0  0  0
  -10.7382    1.0345   -0.5620 H   0  0  0  0  0  0  0  0  0  0  0  0
  -11.1676   -1.3856   -0.2180 H   0  0  0  0  0  0  0  0  0  0  0  0
  1  2  1  0
  2  3  1  0
  3  4  1  0
  4  5  1  0
  5  6  1  0
  1  6  1  0
  7  8  1  0
  5  7  1  0
  9 10  1  0
 10 11  2  0
  8  9  1  0
 12 13  2  0
 13 14  1  0
 14 15  2  0
 10 12  1  0
 11 15  1  0
 16 17  2  0
 16 14  1  0
 18 19  2  0
 19 20  1  0
 20 21  2  0
 17 21  1  0
 16 18  1  0
 22 23  2  0
 23 24  1  0
 20 24  1  0
 25 26  1  0
 23 26  1  0
 27 28  2  0
 25 28  1  0
 29 30  2  0
 30 31  1  0
 31 32  2  0
 27 32  1  0
 28 29  1  0
  1 33  1  0
  1 34  1  0
  3 35  1  0
  3 36  1  0
  4 37  1  0
  4 38  1  0
  6 39  1  0
  6 40  1  0
  7 41  1  0
  7 42  1  0
  8 43  1  0
  8 44  1  0
 11 45  1  0
 12 46  1  0
 13 47  1  0
 15 48  1  0
 17 49  1  0
 18 50  1  0
 21 51  1  0
 24 52  1  0
 24 53  1  0
 25 54  1  0
 25 55  1  0
 26 56  1  0
 27 57  1  0
 29 58  1  0
 30 59  1  0
 31 60  1  0
 32 61  1  0
M  END
$$$$
