
     RDKit          3D

 61 64  0  0  0  0  0  0  0  0999 V2000
   -7.4802    1.3159    2.8267 C   0  0  0  0  0  0  0  0  0  0  0  0
   -8.7770    1.9178    2.7094 O   0  0  0  0  0  0  0  0  0  0  0  0
   -9.4320    1.6006    1.4771 C   0  0  0  0  0  0  0  0  0  0  0  0
   -8.8972    0.3184    0.8151 C   0  0  0  0  0  0  0  0  0  0  0  0
   -7.4710    0.4529    0.4485 N   0  0  0  0  0  0  0  0  0  0  0  0
   -6.7392    1.2198    1.4799 C   0  0  0  0  0  0  0  0  0  0  0  0
   -6.8718   -0.8614    0.1526 C   0  0  0  0  0  0  0  0  0  0  0  0
   -5.5562   -0.7774   -0.6494 C   0  0  0  0  0  0  0  0  0  0  0  0
   -4.4486   -0.6255    0.2405 O   0  0  0  0  0  0  0  0  0  0  0  0
   -3.2016   -0.5733   -0.3169 C   0  0  0  0  0  0  0  0  0  0  0  0
   -2.9082   -0.5963   -1.6781 C   0  0  0  0  0  0  0  0  0  0  0  0
   -2.1544   -0.4879    0.6010 C   0  0  0  0  0  0  0  0  0  0  0  0
   -0.8259   -0.4293    0.1673 C   0  0  0  0  0  0  0  0  0  0  0  0
   -0.5148   -0.4579   -1.1991 C   0  0  0  0  0  0  0  0  0  0  0  0
   -1.5768   -0.5420   -2.1133 C   0  0  0  0  0  0  0  0  0  0  0  0
    0.8774   -0.4075   -1.6596 C   0  0  0  0  0  0  0  0  0  0  0  0
    1.4260   -1.4178   -2.4569 C   0  0  0  0  0  0  0  0  0  0  0  0
    1.7300    0.6437   -1.3237 C   0  0  0  0  0  0  0  0  0  0  0  0
    3.0272    0.7475   -1.7104 N   0  0  0  0  0  0  0  0  0  0  0  0
    3.5262   -0.2519   -2.4783 C   0  0  0  0  0  0  0  0  0  0  0  0
    2.7580   -1.3462   -2.8673 C   0  0  0  0  0  0  0  0  0  0  0  0
    5.9111   -2.2562   -2.2244 O   0  0  0  0  0  0  0  0  0  0  0  0
    5.8463   -1.0418   -2.0376 C   0  0  0  0  0  0  0  0  0  0  0  0
    4.9693   -0.1449   -2.8850 C   0  0  0  0  0  0  0  0  0  0  0  0
    7.4423   -1.1106   -0.1653 C   0  0  0  0  0  0  0  0  0  0  0  0
    6.5506   -0.3936   -1.0443 N   0  0  0  0  0  0  0  0  0  0  0  0
    9.2514    0.3052    0.8907 C   0  0  0  0  0  0  0  0  0  0  0  0
    7.9497   -0.2158    0.9339 C   0  0  0  0  0  0  0  0  0  0  0  0
    7.1113    0.1354    2.0042 C   0  0  0  0  0  0  0  0  0  0  0  0
    7.5713    0.9763    3.0187 C   0  0  0  0  0  0  0  0  0  0  0  0
    8.8700    1.4820    2.9711 C   0  0  0  0  0  0  0  0  0  0  0  0
    9.7082    1.1496    1.9064 C   0  0  0  0  0  0  0  0  0  0  0  0
   -6.9018    1.9251    3.5260 H   0  0  0  0  0  0  0  0  0  0  0  0
   -7.5982    0.3232    3.2792 H   0  0  0  0  0  0  0  0  0  0  0  0
   -9.3137    2.4532    0.8003 H   0  0  0  0  0  0  0  0  0  0  0  0
  -10.5020    1.4993    1.6906 H   0  0  0  0  0  0  0  0  0  0  0  0
   -9.0365   -0.5263    1.5048 H   0  0  0  0  0  0  0  0  0  0  0  0
   -9.4814    0.1139   -0.0903 H   0  0  0  0  0  0  0  0  0  0  0  0
   -5.7344    0.8360    1.6594 H   0  0  0  0  0  0  0  0  0  0  0  0
   -6.6181    2.2371    1.0849 H   0  0  0  0  0  0  0  0  0  0  0  0
   -6.7277   -1.4392    1.0740 H   0  0  0  0  0  0  0  0  0  0  0  0
   -7.5767   -1.4154   -0.4799 H   0  0  0  0  0  0  0  0  0  0  0  0
   -5.4413   -1.7181   -1.2019 H   0  0  0  0  0  0  0  0  0  0  0  0
   -5.6043    0.0563   -1.3608 H   0  0  0  0  0  0  0  0  0  0  0  0
   -3.6869   -0.6497   -2.4314 H   0  0  0  0  0  0  0  0  0  0  0  0
   -2.3737   -0.4704    1.6654 H   0  0  0  0  0  0  0  0  0  0  0  0
   -0.0333   -0.3770    0.9104 H   0  0  0  0  0  0  0  0  0  0  0  0
   -1.3763   -0.5537   -3.1834 H   0  0  0  0  0  0  0  0  0  0  0  0
    0.8253   -2.2774   -2.7467 H   0  0  0  0  0  0  0  0  0  0  0  0
    1.3795    1.4737   -0.7135 H   0  0  0  0  0  0  0  0  0  0  0  0
    3.1892   -2.1422   -3.4695 H   0  0  0  0  0  0  0  0  0  0  0  0
    5.3050    0.8975   -2.8095 H   0  0  0  0  0  0  0  0  0  0  0  0
    5.0926   -0.4294   -3.9375 H   0  0  0  0  0  0  0  0  0  0  0  0
    6.9163   -1.9767    0.2589 H   0  0  0  0  0  0  0  0  0  0  0  0
    8.2695   -1.5047   -0.7697 H   0  0  0  0  0  0  0  0  0  0  0  0
    6.4858    0.6179   -0.9468 H   0  0  0  0  0  0  0  0  0  0  0  0
    9.9192    0.0514    0.0660 H   0  0  0  0  0  0  0  0  0  0  0  0
    6.0919   -0.2480    2.0542 H   0  0  0  0  0  0  0  0  0  0  0  0
    6.9125    1.2328    3.8436 H   0  0  0  0  0  0  0  0  0  0  0  0
    9.2280    2.1362    3.7629 H   0  0  0  0  0  0  0  0  0  0  0  0
   10.7201    1.5465    1.8665 H   0  0  0  0  0  0  0  0  0  0  0  0
  1  2  1  0
  2  3  1  0
  3  4  1  0
  4  5  1  0
  5  6  1  0
  1  6  1  0
  7  8  1  0
  5  7  1  0
  9 10  1  0
 10 11  2  0
  8  9  1  0
 12 13  2  0
 13 14  1  0
 14 15  2  0
 10 12  1  0
 11 15  1  0
 16 17  2  0
 16 14  1  0
 18 19  2  0
 19 20  1  0
 20 21  2  0
 17 21  1  0
 16 18  1  0
 22 23  2  0
 23 24  1  0
 20 24  1  0
 25 26  1  0
 23 26  1  0
 27 28  2  0
 25 28  1  0
 29 30  2  0
 30 31  1  0
 31 32  2  0
 27 32  1  0
 28 29  1  0
  1 33  1  0
  1 34  1  0
  3 35  1  0
  3 36  1  0
  4 37  1  0
  4 38  1  0
  6 39  1  0
  6 40  1  0
  7 41  1  0
  7 42  1  0
  8 43  1  0
  8 44  1  0
 11 45  1  0
 12 46  1  0
 13 47  1  0
 15 48  1  0
 17 49  1  0
 18 50  1  0
 21 51  1  0
 24 52  1  0
 24 53  1  0
 25 54  1  0
 25 55  1  0
 26 56  1  0
 27 57  1  0
 29 58  1  0
 30 59  1  0
 31 60  1  0
 32 61  1  0
M  END
$$$$
