
     RDKit          3D

 61 64  0  0  0  0  0  0  0  0999 V2000
    6.3640    2.2259    2.3696 C   0  0  0  0  0  0  0  0  0  0  0  0
    7.0836    3.2666    1.6958 O   0  0  0  0  0  0  0  0  0  0  0  0
    7.4487    2.9233    0.3564 C   0  0  0  0  0  0  0  0  0  0  0  0
    7.6923    1.4174    0.1896 C   0  0  0  0  0  0  0  0  0  0  0  0
    6.4607    0.6261    0.4141 N   0  0  0  0  0  0  0  0  0  0  0  0
    5.6006    1.2931    1.4169 C   0  0  0  0  0  0  0  0  0  0  0  0
    6.7958   -0.7642    0.7823 C   0  0  0  0  0  0  0  0  0  0  0  0
    5.7092   -1.7866    0.3986 C   0  0  0  0  0  0  0  0  0  0  0  0
    4.6025   -1.7468    1.3058 O   0  0  0  0  0  0  0  0  0  0  0  0
    3.3714   -1.6926    0.7151 C   0  0  0  0  0  0  0  0  0  0  0  0
    2.3833   -2.5007    1.2693 C   0  0  0  0  0  0  0  0  0  0  0  0
    3.0492   -0.8323   -0.3321 C   0  0  0  0  0  0  0  0  0  0  0  0
    1.7516   -0.8202   -0.8561 C   0  0  0  0  0  0  0  0  0  0  0  0
    0.7482   -1.6538   -0.3329 C   0  0  0  0  0  0  0  0  0  0  0  0
    1.0870   -2.4891    0.7445 C   0  0  0  0  0  0  0  0  0  0  0  0
   -0.6103   -1.6529   -0.8957 C   0  0  0  0  0  0  0  0  0  0  0  0
   -1.2693   -2.8396   -1.2365 C   0  0  0  0  0  0  0  0  0  0  0  0
   -1.3148   -0.4718   -1.1311 C   0  0  0  0  0  0  0  0  0  0  0  0
   -2.5596   -0.4008   -1.6680 N   0  0  0  0  0  0  0  0  0  0  0  0
   -3.1539   -1.5709   -2.0056 C   0  0  0  0  0  0  0  0  0  0  0  0
   -2.5488   -2.8045   -1.7914 C   0  0  0  0  0  0  0  0  0  0  0  0
   -6.2018   -2.6729   -1.3671 O   0  0  0  0  0  0  0  0  0  0  0  0
   -5.6024   -1.6171   -1.5644 C   0  0  0  0  0  0  0  0  0  0  0  0
   -4.5239   -1.4850   -2.6141 C   0  0  0  0  0  0  0  0  0  0  0  0
   -6.7752   -0.4353    0.2407 C   0  0  0  0  0  0  0  0  0  0  0  0
   -5.8601   -0.4499   -0.8746 N   0  0  0  0  0  0  0  0  0  0  0  0
   -6.5760    1.7946    1.4196 C   0  0  0  0  0  0  0  0  0  0  0  0
   -7.2563    0.9646    0.5163 C   0  0  0  0  0  0  0  0  0  0  0  0
   -8.3758    1.4715   -0.1614 C   0  0  0  0  0  0  0  0  0  0  0  0
   -8.8187    2.7743    0.0756 C   0  0  0  0  0  0  0  0  0  0  0  0
   -8.1406    3.5866    0.9822 C   0  0  0  0  0  0  0  0  0  0  0  0
   -7.0190    3.0984    1.6528 C   0  0  0  0  0  0  0  0  0  0  0  0
    7.0768    1.6590    2.9792 H   0  0  0  0  0  0  0  0  0  0  0  0
    5.6622    2.7079    3.0583 H   0  0  0  0  0  0  0  0  0  0  0  0
    8.3599    3.4808    0.1112 H   0  0  0  0  0  0  0  0  0  0  0  0
    6.6638    3.2763   -0.3270 H   0  0  0  0  0  0  0  0  0  0  0  0
    8.4755    1.1188    0.8990 H   0  0  0  0  0  0  0  0  0  0  0  0
    8.0620    1.2167   -0.8227 H   0  0  0  0  0  0  0  0  0  0  0  0
    5.0190    0.5810    2.0084 H   0  0  0  0  0  0  0  0  0  0  0  0
    4.8749    1.8969    0.8617 H   0  0  0  0  0  0  0  0  0  0  0  0
    7.6938   -1.0676    0.2307 H   0  0  0  0  0  0  0  0  0  0  0  0
    7.0336   -0.8352    1.8498 H   0  0  0  0  0  0  0  0  0  0  0  0
    5.4348   -1.6805   -0.6575 H   0  0  0  0  0  0  0  0  0  0  0  0
    6.1428   -2.7894    0.4967 H   0  0  0  0  0  0  0  0  0  0  0  0
    2.6210   -3.1475    2.1091 H   0  0  0  0  0  0  0  0  0  0  0  0
    3.7894   -0.1533   -0.7469 H   0  0  0  0  0  0  0  0  0  0  0  0
    1.5355   -0.1542   -1.6893 H   0  0  0  0  0  0  0  0  0  0  0  0
    0.3364   -3.1331    1.1989 H   0  0  0  0  0  0  0  0  0  0  0  0
   -0.7847   -3.8020   -1.0883 H   0  0  0  0  0  0  0  0  0  0  0  0
   -0.8845    0.4944   -0.8792 H   0  0  0  0  0  0  0  0  0  0  0  0
   -3.0554   -3.7282   -2.0568 H   0  0  0  0  0  0  0  0  0  0  0  0
   -4.6425   -0.5284   -3.1378 H   0  0  0  0  0  0  0  0  0  0  0  0
   -4.6626   -2.2675   -3.3687 H   0  0  0  0  0  0  0  0  0  0  0  0
   -6.2497   -0.8449    1.1134 H   0  0  0  0  0  0  0  0  0  0  0  0
   -7.6236   -1.1027    0.0387 H   0  0  0  0  0  0  0  0  0  0  0  0
   -5.1509    0.2757   -0.9107 H   0  0  0  0  0  0  0  0  0  0  0  0
   -5.6968    1.4314    1.9481 H   0  0  0  0  0  0  0  0  0  0  0  0
   -8.9076    0.8497   -0.8796 H   0  0  0  0  0  0  0  0  0  0  0  0
   -9.6916    3.1569   -0.4486 H   0  0  0  0  0  0  0  0  0  0  0  0
   -8.4866    4.6002    1.1629 H   0  0  0  0  0  0  0  0  0  0  0  0
   -6.4866    3.7335    2.3583 H   0  0  0  0  0  0  0  0  0  0  0  0
  1  2  1  0
  2  3  1  0
  3  4  1  0
  4  5  1  0
  5  6  1  0
  1  6  1  0
  7  8  1  0
  5  7  1  0
  9 10  1  0
 10 11  2  0
  8  9  1  0
 12 13  2  0
 13 14  1  0
 14 15  2  0
 10 12  1  0
 11 15  1  0
 16 17  2  0
 16 14  1  0
 18 19  2  0
 19 20  1  0
 20 21  2  0
 17 21  1  0
 16 18  1  0
 22 23  2  0
 23 24  1  0
 20 24  1  0
 25 26  1  0
 23 26  1  0
 27 28  2  0
 25 28  1  0
 29 30  2  0
 30 31  1  0
 31 32  2  0
 27 32  1  0
 28 29  1  0
  1 33  1  0
  1 34  1  0
  3 35  1  0
  3 36  1  0
  4 37  1  0
  4 38  1  0
  6 39  1  0
  6 40  1  0
  7 41  1  0
  7 42  1  0
  8 43  1  0
  8 44  1  0
 11 45  1  0
 12 46  1  0
 13 47  1  0
 15 48  1  0
 17 49  1  0
 18 50  1  0
 21 51  1  0
 24 52  1  0
 24 53  1  0
 25 54  1  0
 25 55  1  0
 26 56  1  0
 27 57  1  0
 29 58  1  0
 30 59  1  0
 31 60  1  0
 32 61  1  0
M  END
$$$$
