
     RDKit          3D

 32 35  0  0  0  0  0  0  0  0999 V2000
    7.1238   -0.7972   -4.1535 C   0  0  0  0  0  0  0  0  0  0  0  0
    8.0060    0.2856   -4.0957 O   0  0  0  0  0  0  0  0  0  0  0  0
    7.3219    1.4368   -3.7861 C   0  0  0  0  0  0  0  0  0  0  0  0
    6.8316    1.3715   -2.3797 C   0  0  0  0  0  0  0  0  0  0  0  0
    6.7816    0.0389   -1.8810 N   0  0  0  0  0  0  0  0  0  0  0  0
    6.3635   -0.9554   -2.8539 C   0  0  0  0  0  0  0  0  0  0  0  0
    6.0328   -0.0837   -0.6504 C   0  0  0  0  0  0  0  0  0  0  0  0
    6.0586   -1.5384   -0.2509 C   0  0  0  0  0  0  0  0  0  0  0  0
    5.3494   -1.7102    0.9453 O   0  0  0  0  0  0  0  0  0  0  0  0
    4.0185   -1.4242    1.1553 C   0  0  0  0  0  0  0  0  0  0  0  0
    3.4863   -1.6556    2.4173 C   0  0  0  0  0  0  0  0  0  0  0  0
    3.2501   -0.9183    0.1127 C   0  0  0  0  0  0  0  0  0  0  0  0
    1.9106   -0.6289    0.3127 C   0  0  0  0  0  0  0  0  0  0  0  0
    1.3502   -0.8568    1.5885 C   0  0  0  0  0  0  0  0  0  0  0  0
    2.1277   -1.3587    2.6076 C   0  0  0  0  0  0  0  0  0  0  0  0
   -0.0380   -0.4885    1.7977 C   0  0  0  0  0  0  0  0  0  0  0  0
   -0.4012   -0.0926    3.0904 C   0  0  0  0  0  0  0  0  0  0  0  0
   -0.9811   -0.4292    0.7752 C   0  0  0  0  0  0  0  0  0  0  0  0
   -2.2404    0.0107    1.0177 N   0  0  0  0  0  0  0  0  0  0  0  0
   -2.6105    0.4053    2.2763 C   0  0  0  0  0  0  0  0  0  0  0  0
   -1.7096    0.3636    3.3425 C   0  0  0  0  0  0  0  0  0  0  0  0
   -6.1599    0.3151    2.1679 O   0  0  0  0  0  0  0  0  0  0  0  0
   -4.9841    0.3547    1.7270 C   0  0  0  0  0  0  0  0  0  0  0  0
   -3.9411    1.0139    2.5262 C   0  0  0  0  0  0  0  0  0  0  0  0
   -5.8243   -0.8437   -0.2860 C   0  0  0  0  0  0  0  0  0  0  0  0
   -4.6978   -0.2369    0.4545 N   0  0  0  0  0  0  0  0  0  0  0  0
   -7.5127    1.0377   -0.2651 C   0  0  0  0  0  0  0  0  0  0  0  0
   -6.5134    0.3434   -0.9152 C   0  0  0  0  0  0  0  0  0  0  0  0
   -6.0501    0.6794   -2.1723 C   0  0  0  0  0  0  0  0  0  0  0  0
   -6.6374    1.7677   -2.7721 C   0  0  0  0  0  0  0  0  0  0  0  0
   -7.6273    2.4678   -2.1447 C   0  0  0  0  0  0  0  0  0  0  0  0
   -8.0837    2.1261   -0.8957 C   0  0  0  0  0  0  0  0  0  0  0  0
  1  2  1  0
  2  3  1  0
  3  4  1  0
  4  5  1  0
  5  6  1  0
  1  6  1  0
  7  8  1  0
  5  7  1  0
  9 10  1  0
 10 11  2  0
  8  9  1  0
 12 13  2  0
 13 14  1  0
 14 15  2  0
 10 12  1  0
 11 15  1  0
 16 17  2  0
 16 14  1  0
 18 19  2  0
 19 20  1  0
 20 21  2  0
 17 21  1  0
 16 18  1  0
 22 23  2  0
 23 24  1  0
 20 24  1  0
 25 26  1  0
 23 26  1  0
 27 28  2  0
 25 28  1  0
 29 30  2  0
 30 31  1  0
 31 32  2  0
 27 32  1  0
 28 29  1  0
M  END
