
     RDKit          3D

 61 64  0  0  0  0  0  0  0  0999 V2000
   -7.3939    1.2964    1.2940 C   0  0  0  0  0  0  0  0  0  0  0  0
   -8.3330    0.8905    2.3025 O   0  0  0  0  0  0  0  0  0  0  0  0
   -9.2451   -0.1230    1.8529 C   0  0  0  0  0  0  0  0  0  0  0  0
   -8.6412   -1.0264    0.7663 C   0  0  0  0  0  0  0  0  0  0  0  0
   -8.3228   -0.2607   -0.4518 N   0  0  0  0  0  0  0  0  0  0  0  0
   -7.9300    1.1252   -0.1373 C   0  0  0  0  0  0  0  0  0  0  0  0
   -7.4159   -0.9635   -1.3742 C   0  0  0  0  0  0  0  0  0  0  0  0
   -5.9537   -1.2006   -0.9389 C   0  0  0  0  0  0  0  0  0  0  0  0
   -5.2207    0.0245   -1.0082 O   0  0  0  0  0  0  0  0  0  0  0  0
   -3.8870   -0.0276   -0.7154 C   0  0  0  0  0  0  0  0  0  0  0  0
   -3.1900   -1.1391   -0.2468 C   0  0  0  0  0  0  0  0  0  0  0  0
   -3.1999    1.1703   -0.9142 C   0  0  0  0  0  0  0  0  0  0  0  0
   -1.8289    1.2585   -0.6528 C   0  0  0  0  0  0  0  0  0  0  0  0
   -1.1126    0.1491   -0.1799 C   0  0  0  0  0  0  0  0  0  0  0  0
   -1.8167   -1.0495    0.0180 C   0  0  0  0  0  0  0  0  0  0  0  0
    0.3257    0.2384    0.1015 C   0  0  0  0  0  0  0  0  0  0  0  0
    1.2417    0.6846   -0.8559 C   0  0  0  0  0  0  0  0  0  0  0  0
    0.8577   -0.1142    1.3409 C   0  0  0  0  0  0  0  0  0  0  0  0
    2.1729   -0.0563    1.6674 N   0  0  0  0  0  0  0  0  0  0  0  0
    3.0380    0.3535    0.7081 C   0  0  0  0  0  0  0  0  0  0  0  0
    2.6031    0.7488   -0.5552 C   0  0  0  0  0  0  0  0  0  0  0  0
    5.2935   -1.2574   -0.4006 O   0  0  0  0  0  0  0  0  0  0  0  0
    5.4455   -0.1442    0.0955 C   0  0  0  0  0  0  0  0  0  0  0  0
    4.4869    0.4560    1.1064 C   0  0  0  0  0  0  0  0  0  0  0  0
    7.5926    0.2285   -1.0687 C   0  0  0  0  0  0  0  0  0  0  0  0
    6.5090    0.6781   -0.2218 N   0  0  0  0  0  0  0  0  0  0  0  0
    9.8638    0.8854   -0.1663 C   0  0  0  0  0  0  0  0  0  0  0  0
    8.8232   -0.0516   -0.2455 C   0  0  0  0  0  0  0  0  0  0  0  0
    8.9260   -1.2451    0.4848 C   0  0  0  0  0  0  0  0  0  0  0  0
   10.0515   -1.5011    1.2689 C   0  0  0  0  0  0  0  0  0  0  0  0
   11.0838   -0.5671    1.3335 C   0  0  0  0  0  0  0  0  0  0  0  0
   10.9904    0.6260    0.6173 C   0  0  0  0  0  0  0  0  0  0  0  0
   -7.1509    2.3481    1.4802 H   0  0  0  0  0  0  0  0  0  0  0  0
   -6.4740    0.7199    1.4409 H   0  0  0  0  0  0  0  0  0  0  0  0
  -10.1556    0.3699    1.4922 H   0  0  0  0  0  0  0  0  0  0  0  0
   -9.5251   -0.7211    2.7268 H   0  0  0  0  0  0  0  0  0  0  0  0
   -9.3500   -1.8231    0.5153 H   0  0  0  0  0  0  0  0  0  0  0  0
   -7.7451   -1.4963    1.1855 H   0  0  0  0  0  0  0  0  0  0  0  0
   -7.2256    1.5357   -0.8688 H   0  0  0  0  0  0  0  0  0  0  0  0
   -8.8379    1.7349   -0.2300 H   0  0  0  0  0  0  0  0  0  0  0  0
   -7.8646   -1.9401   -1.6001 H   0  0  0  0  0  0  0  0  0  0  0  0
   -7.4118   -0.4112   -2.3239 H   0  0  0  0  0  0  0  0  0  0  0  0
   -5.5110   -1.9221   -1.6385 H   0  0  0  0  0  0  0  0  0  0  0  0
   -5.9128   -1.6179    0.0727 H   0  0  0  0  0  0  0  0  0  0  0  0
   -3.6775   -2.0928   -0.0736 H   0  0  0  0  0  0  0  0  0  0  0  0
   -3.7349    2.0451   -1.2752 H   0  0  0  0  0  0  0  0  0  0  0  0
   -1.3271    2.2107   -0.8117 H   0  0  0  0  0  0  0  0  0  0  0  0
   -1.2949   -1.9383    0.3719 H   0  0  0  0  0  0  0  0  0  0  0  0
    0.9038    0.9732   -1.8494 H   0  0  0  0  0  0  0  0  0  0  0  0
    0.2146   -0.4583    2.1479 H   0  0  0  0  0  0  0  0  0  0  0  0
    3.3044    1.0917   -1.3091 H   0  0  0  0  0  0  0  0  0  0  0  0
    4.6546   -0.0687    2.0546 H   0  0  0  0  0  0  0  0  0  0  0  0
    4.7175    1.5135    1.2771 H   0  0  0  0  0  0  0  0  0  0  0  0
    7.3089   -0.6619   -1.6411 H   0  0  0  0  0  0  0  0  0  0  0  0
    7.7891    1.0289   -1.7910 H   0  0  0  0  0  0  0  0  0  0  0  0
    6.6853    1.4985    0.3435 H   0  0  0  0  0  0  0  0  0  0  0  0
    9.8048    1.8216   -0.7170 H   0  0  0  0  0  0  0  0  0  0  0  0
    8.1235   -1.9808    0.4458 H   0  0  0  0  0  0  0  0  0  0  0  0
   10.1207   -2.4297    1.8300 H   0  0  0  0  0  0  0  0  0  0  0  0
   11.9610   -0.7696    1.9434 H   0  0  0  0  0  0  0  0  0  0  0  0
   11.7968    1.3537    0.6706 H   0  0  0  0  0  0  0  0  0  0  0  0
  1  2  1  0
  2  3  1  0
  3  4  1  0
  4  5  1  0
  5  6  1  0
  1  6  1  0
  7  8  1  0
  5  7  1  0
  9 10  1  0
 10 11  2  0
  8  9  1  0
 12 13  2  0
 13 14  1  0
 14 15  2  0
 10 12  1  0
 11 15  1  0
 16 17  2  0
 16 14  1  0
 18 19  2  0
 19 20  1  0
 20 21  2  0
 17 21  1  0
 16 18  1  0
 22 23  2  0
 23 24  1  0
 20 24  1  0
 25 26  1  0
 23 26  1  0
 27 28  2  0
 25 28  1  0
 29 30  2  0
 30 31  1  0
 31 32  2  0
 27 32  1  0
 28 29  1  0
  1 33  1  0
  1 34  1  0
  3 35  1  0
  3 36  1  0
  4 37  1  0
  4 38  1  0
  6 39  1  0
  6 40  1  0
  7 41  1  0
  7 42  1  0
  8 43  1  0
  8 44  1  0
 11 45  1  0
 12 46  1  0
 13 47  1  0
 15 48  1  0
 17 49  1  0
 18 50  1  0
 21 51  1  0
 24 52  1  0
 24 53  1  0
 25 54  1  0
 25 55  1  0
 26 56  1  0
 27 57  1  0
 29 58  1  0
 30 59  1  0
 31 60  1  0
 32 61  1  0
M  END
$$$$
