
     RDKit          3D

 90 88  0  0  0  0  0  0  0  0999 V2000
   43.7357    6.0556   12.8130 N   0  0  0  0  0  0  0  0  0  0  0  0
   45.1598    4.8281   10.5138 N   0  0  0  0  0  0  0  0  0  0  0  0
   44.5641    6.8482   11.8863 C   0  0  0  0  0  0  0  0  0  0  0  0
   45.6772    6.0157   11.2154 C   0  0  0  0  0  0  0  0  0  0  0  0
   43.2182    4.8660   12.1113 C   0  0  0  0  0  0  0  0  0  0  0  0
   44.3296    4.0332   11.4357 C   0  0  0  0  0  0  0  0  0  0  0  0
   44.0334    5.4171   11.7827 C   0  0  0  0  0  0  0  0  0  0  0  0
   43.3699    4.4543   10.7899 C   0  0  0  0  0  0  0  0  0  0  0  0
   43.6779    6.8630   11.3896 C   0  0  0  0  0  0  0  0  0  0  0  0
   45.5582    5.2130   11.7870 C   0  0  0  0  0  0  0  0  0  0  0  0
   44.4149    7.8625   12.2323 C   0  0  0  0  0  0  0  0  0  0  0  0
   43.6879    3.0132   11.0784 C   0  0  0  0  0  0  0  0  0  0  0  0
   46.2186    4.7314   12.6949 O   0  0  0  0  0  0  0  0  0  0  0  0
   42.9280    2.1765   11.5390 O   0  0  0  0  0  0  0  0  0  0  0  0
   44.9020    7.6686   13.3328 O   0  0  0  0  0  0  0  0  0  0  0  0
   43.4628    5.1551   13.0721 O   0  0  0  0  0  0  0  0  0  0  0  0
   46.1631    5.6421   10.6663 O   0  0  0  0  0  0  0  0  0  0  0  0
   44.9413    2.6705   10.7208 O   0  0  0  0  0  0  0  0  0  0  0  0
   44.4882    9.0748   11.6522 O   0  0  0  0  0  0  0  0  0  0  0  0
   44.5409    4.9693   10.2539 N   0  0  0  0  0  0  0  0  0  0  0  0
   44.3561    5.9157   13.0665 N   0  0  0  0  0  0  0  0  0  0  0  0
   43.8516    4.1937   11.3008 C   0  0  0  0  0  0  0  0  0  0  0  0
   43.3165    5.0705   12.4555 C   0  0  0  0  0  0  0  0  0  0  0  0
   45.5836    5.8056   10.8732 C   0  0  0  0  0  0  0  0  0  0  0  0
   45.0424    6.6892   12.0174 C   0  0  0  0  0  0  0  0  0  0  0  0
   44.4463    5.4755   12.2199 C   0  0  0  0  0  0  0  0  0  0  0  0
   44.6229    7.0020   12.3155 C   0  0  0  0  0  0  0  0  0  0  0  0
   44.6762    4.9185   10.8069 C   0  0  0  0  0  0  0  0  0  0  0  0
   42.9841    5.1972   12.6271 C   0  0  0  0  0  0  0  0  0  0  0  0
   44.3394    3.4539   10.7045 C   0  0  0  0  0  0  0  0  0  0  0  0
   45.7263    7.5878   11.4845 C   0  0  0  0  0  0  0  0  0  0  0  0
   41.9887    5.5044   11.9930 O   0  0  0  0  0  0  0  0  0  0  0  0
   45.6231    8.5806   10.7787 O   0  0  0  0  0  0  0  0  0  0  0  0
   43.9655    2.7141   11.5976 O   0  0  0  0  0  0  0  0  0  0  0  0
   45.3732    4.8690   13.1309 O   0  0  0  0  0  0  0  0  0  0  0  0
   42.8819    4.5479   13.8070 O   0  0  0  0  0  0  0  0  0  0  0  0
   46.9169    6.9794   11.6232 O   0  0  0  0  0  0  0  0  0  0  0  0
   44.5117    2.9866    9.4533 O   0  0  0  0  0  0  0  0  0  0  0  0
   44.1762    5.8493   13.0637 N   0  0  0  0  0  0  0  0  0  0  0  0
   44.7200    5.0312   10.2587 N   0  0  0  0  0  0  0  0  0  0  0  0
   44.8729    6.7292   12.1075 C   0  0  0  0  0  0  0  0  0  0  0  0
   45.6060    5.9484   10.9965 C   0  0  0  0  0  0  0  0  0  0  0  0
   43.2900    4.9331   12.3251 C   0  0  0  0  0  0  0  0  0  0  0  0
   44.0236    4.1519   11.2145 C   0  0  0  0  0  0  0  0  0  0  0  0
   44.3462    5.7269   13.5618 H   0  0  0  0  0  0  0  0  0  0  0  0
   44.5604    5.1503    9.7519 H   0  0  0  0  0  0  0  0  0  0  0  0
   45.0167    7.6769   12.4426 H   0  0  0  0  0  0  0  0  0  0  0  0
   43.9209    7.2962   11.1195 H   0  0  0  0  0  0  0  0  0  0  0  0
   46.4104    5.7012   11.9683 H   0  0  0  0  0  0  0  0  0  0  0  0
   46.2166    6.6424   10.4970 H   0  0  0  0  0  0  0  0  0  0  0  0
   42.6861    4.2373   12.8330 H   0  0  0  0  0  0  0  0  0  0  0  0
   42.4840    5.1809   11.3593 H   0  0  0  0  0  0  0  0  0  0  0  0
   43.8758    3.2092   10.8741 H   0  0  0  0  0  0  0  0  0  0  0  0
   44.9707    3.5734   12.1982 H   0  0  0  0  0  0  0  0  0  0  0  0
   42.2751    4.5577   10.8465 H   0  0  0  0  0  0  0  0  0  0  0  0
   43.6575    4.6647    9.7511 H   0  0  0  0  0  0  0  0  0  0  0  0
   42.6080    7.0505   11.5198 H   0  0  0  0  0  0  0  0  0  0  0  0
   43.9430    7.0468   10.3420 H   0  0  0  0  0  0  0  0  0  0  0  0
   44.0734    5.5370   13.7371 H   0  0  0  0  0  0  0  0  0  0  0  0
   47.1071    5.4141   10.8107 H   0  0  0  0  0  0  0  0  0  0  0  0
   45.0230    1.7396   11.0166 H   0  0  0  0  0  0  0  0  0  0  0  0
   44.9897    9.6278   12.2913 H   0  0  0  0  0  0  0  0  0  0  0  0
   43.8552    5.5920    9.8242 H   0  0  0  0  0  0  0  0  0  0  0  0
   45.0452    5.2969   13.4982 H   0  0  0  0  0  0  0  0  0  0  0  0
   43.0198    3.6479   10.8417 H   0  0  0  0  0  0  0  0  0  0  0  0
   44.5400    3.4391   11.7007 H   0  0  0  0  0  0  0  0  0  0  0  0
   42.8845    4.4267   13.2308 H   0  0  0  0  0  0  0  0  0  0  0  0
   42.5034    5.7105   12.0889 H   0  0  0  0  0  0  0  0  0  0  0  0
   46.0260    6.4439   10.1008 H   0  0  0  0  0  0  0  0  0  0  0  0
   46.3871    5.1597   11.2470 H   0  0  0  0  0  0  0  0  0  0  0  0
   44.3495    7.4363   11.6114 H   0  0  0  0  0  0  0  0  0  0  0  0
   45.8704    7.2445   12.4705 H   0  0  0  0  0  0  0  0  0  0  0  0
   44.7986    7.3142   13.3551 H   0  0  0  0  0  0  0  0  0  0  0  0
   43.7028    7.5088   11.9828 H   0  0  0  0  0  0  0  0  0  0  0  0
   44.0577    5.4557   10.0774 H   0  0  0  0  0  0  0  0  0  0  0  0
   45.7310    5.0044   10.5253 H   0  0  0  0  0  0  0  0  0  0  0  0
   44.9488    4.0440   13.4470 H   0  0  0  0  0  0  0  0  0  0  0  0
   41.9197    4.3958   13.9340 H   0  0  0  0  0  0  0  0  0  0  0  0
   47.5322    7.5228   11.0886 H   0  0  0  0  0  0  0  0  0  0  0  0
   44.2858    2.0328    9.5084 H   0  0  0  0  0  0  0  0  0  0  0  0
   44.8811    5.2847   13.5403 H   0  0  0  0  0  0  0  0  0  0  0  0
   44.0147    5.5962    9.7838 H   0  0  0  0  0  0  0  0  0  0  0  0
   44.1485    7.4208   11.6588 H   0  0  0  0  0  0  0  0  0  0  0  0
   45.5967    7.3389   12.6590 H   0  0  0  0  0  0  0  0  0  0  0  0
   46.4346    5.3747   11.4279 H   0  0  0  0  0  0  0  0  0  0  0  0
   46.0502    6.6555   10.2874 H   0  0  0  0  0  0  0  0  0  0  0  0
   42.8495    4.2252   13.0350 H   0  0  0  0  0  0  0  0  0  0  0  0
   42.4572    5.5037   11.8955 H   0  0  0  0  0  0  0  0  0  0  0  0
   44.7490    3.4612   11.6621 H   0  0  0  0  0  0  0  0  0  0  0  0
   43.3022    3.5374   10.6656 H   0  0  0  0  0  0  0  0  0  0  0  0
  2  6  1  0
  3  1  1  0
  4  3  1  0
  5  1  1  0
  6  5  1  0
  2  4  1  0
  8  7  1  0
  9  7  1  0
 10  7  1  0
 11  9  1  0
 12  8  1  0
 13 10  2  0
 14 12  2  0
 15 11  2  0
 16  7  1  0
 17 10  1  0
 18 12  1  0
 19 11  1  0
 21 25  1  0
 22 20  1  0
 23 22  1  0
 24 20  1  0
 25 24  1  0
 21 23  1  0
 27 26  1  0
 28 26  1  0
 29 26  1  0
 30 28  1  0
 31 27  1  0
 32 29  2  0
 33 31  2  0
 34 30  2  0
 35 26  1  0
 36 29  1  0
 37 31  1  0
 38 30  1  0
 40 44  1  0
 41 39  1  0
 42 41  1  0
 43 39  1  0
 44 43  1  0
 40 42  1  0
  1 45  1  0
  2 46  1  0
  3 47  1  0
  3 48  1  0
  4 49  1  0
  4 50  1  0
  5 51  1  0
  5 52  1  0
  6 53  1  0
  6 54  1  0
  8 55  1  0
  8 56  1  0
  9 57  1  0
  9 58  1  0
 16 59  1  0
 17 60  1  0
 18 61  1  0
 19 62  1  0
 20 63  1  0
 21 64  1  0
 22 65  1  0
 22 66  1  0
 23 67  1  0
 23 68  1  0
 24 69  1  0
 24 70  1  0
 25 71  1  0
 25 72  1  0
 27 73  1  0
 27 74  1  0
 28 75  1  0
 28 76  1  0
 35 77  1  0
 36 78  1  0
 37 79  1  0
 38 80  1  0
 39 81  1  0
 40 82  1  0
 41 83  1  0
 41 84  1  0
 42 85  1  0
 42 86  1  0
 43 87  1  0
 43 88  1  0
 44 89  1  0
 44 90  1  0
M  END
> <Uni-Dock RESULT> 
ENERGY=   -9.101  LOWER_BOUND=    0.000  UPPER_BOUND=    0.000
INTER + INTRA:          -9.101
INTER:                  -9.101
INTRA:                   0.000
UNBOUND:                 0.000

$$$$

     RDKit          3D

 90 88  0  0  0  0  0  0  0  0999 V2000
   44.2810    2.7986   10.9972 N   0  0  0  0  0  0  0  0  0  0  0  0
   45.3034    5.4444   10.1162 N   0  0  0  0  0  0  0  0  0  0  0  0
   44.9740    2.9855    9.7095 C   0  0  0  0  0  0  0  0  0  0  0  0
   44.8424    4.4221    9.1608 C   0  0  0  0  0  0  0  0  0  0  0  0
   44.7415    3.8224   11.9538 C   0  0  0  0  0  0  0  0  0  0  0  0
   44.6145    5.2607   11.4058 C   0  0  0  0  0  0  0  0  0  0  0  0
   44.8531    3.9057   10.9258 C   0  0  0  0  0  0  0  0  0  0  0  0
   45.6922    4.8305   11.8166 C   0  0  0  0  0  0  0  0  0  0  0  0
   45.7714    2.8283   10.3193 C   0  0  0  0  0  0  0  0  0  0  0  0
   44.1592    4.7165    9.8179 C   0  0  0  0  0  0  0  0  0  0  0  0
   45.0421    1.9782    9.3205 C   0  0  0  0  0  0  0  0  0  0  0  0
   44.8809    5.9375   12.4308 C   0  0  0  0  0  0  0  0  0  0  0  0
   42.9614    4.9402    9.7306 O   0  0  0  0  0  0  0  0  0  0  0  0
   44.5473    6.0348   13.6008 O   0  0  0  0  0  0  0  0  0  0  0  0
   43.8363    1.8151    9.2459 O   0  0  0  0  0  0  0  0  0  0  0  0
   43.9008    3.2501   11.7744 O   0  0  0  0  0  0  0  0  0  0  0  0
   45.0023    5.1785    8.8788 O   0  0  0  0  0  0  0  0  0  0  0  0
   44.5686    6.9096   11.5511 O   0  0  0  0  0  0  0  0  0  0  0  0
   45.8742    1.3535    8.4668 O   0  0  0  0  0  0  0  0  0  0  0  0
   45.8245    5.1928   10.4844 N   0  0  0  0  0  0  0  0  0  0  0  0
   43.7651    3.0529   10.6259 N   0  0  0  0  0  0  0  0  0  0  0  0
   44.9759    4.9957   11.6733 C   0  0  0  0  0  0  0  0  0  0  0  0
   44.4663    3.5445   11.8239 C   0  0  0  0  0  0  0  0  0  0  0  0
   45.1124    4.7054    9.2905 C   0  0  0  0  0  0  0  0  0  0  0  0
   44.6162    3.2514    9.4401 C   0  0  0  0  0  0  0  0  0  0  0  0
   44.3242    3.8312   10.6434 C   0  0  0  0  0  0  0  0  0  0  0  0
   44.6268    2.6893    9.6560 C   0  0  0  0  0  0  0  0  0  0  0  0
   45.2778    5.0279   10.5084 C   0  0  0  0  0  0  0  0  0  0  0  0
   44.4938    3.2227   12.0514 C   0  0  0  0  0  0  0  0  0  0  0  0
   45.0658    6.0566   11.5882 C   0  0  0  0  0  0  0  0  0  0  0  0
   45.0619    3.1081    8.2825 C   0  0  0  0  0  0  0  0  0  0  0  0
   45.5419    2.8591   12.5576 O   0  0  0  0  0  0  0  0  0  0  0  0
   46.0093    2.6356    7.6711 O   0  0  0  0  0  0  0  0  0  0  0  0
   44.2300    6.0405   12.4747 O   0  0  0  0  0  0  0  0  0  0  0  0
   42.9764    4.2641   10.4135 O   0  0  0  0  0  0  0  0  0  0  0  0
   43.3264    3.1182   12.7225 O   0  0  0  0  0  0  0  0  0  0  0  0
   44.2690    4.0220    7.6969 O   0  0  0  0  0  0  0  0  0  0  0  0
   45.9309    7.0828   11.4790 O   0  0  0  0  0  0  0  0  0  0  0  0
   43.8218    3.0278   10.8074 N   0  0  0  0  0  0  0  0  0  0  0  0
   45.7651    5.2201   10.3065 N   0  0  0  0  0  0  0  0  0  0  0  0
   44.6207    3.1050    9.5705 C   0  0  0  0  0  0  0  0  0  0  0  0
   45.0398    4.5470    9.2149 C   0  0  0  0  0  0  0  0  0  0  0  0
   44.5482    3.7004   11.8984 C   0  0  0  0  0  0  0  0  0  0  0  0
   44.9666    5.1427   11.5427 C   0  0  0  0  0  0  0  0  0  0  0  0
   43.2866    2.9588   10.8338 H   0  0  0  0  0  0  0  0  0  0  0  0
   46.3026    5.3001   10.2720 H   0  0  0  0  0  0  0  0  0  0  0  0
   44.5572    2.2800    8.9819 H   0  0  0  0  0  0  0  0  0  0  0  0
   46.0333    2.7281    9.8284 H   0  0  0  0  0  0  0  0  0  0  0  0
   43.7979    4.6223    8.8915 H   0  0  0  0  0  0  0  0  0  0  0  0
   45.4256    4.5134    8.2382 H   0  0  0  0  0  0  0  0  0  0  0  0
   44.1518    3.7342   12.8723 H   0  0  0  0  0  0  0  0  0  0  0  0
   45.7857    3.6211   12.2238 H   0  0  0  0  0  0  0  0  0  0  0  0
   45.0378    5.9646   12.1307 H   0  0  0  0  0  0  0  0  0  0  0  0
   43.5563    5.5283   11.2944 H   0  0  0  0  0  0  0  0  0  0  0  0
   46.1262    4.2530   12.6478 H   0  0  0  0  0  0  0  0  0  0  0  0
   46.5302    5.2850   11.2714 H   0  0  0  0  0  0  0  0  0  0  0  0
   46.1570    2.1622   11.0968 H   0  0  0  0  0  0  0  0  0  0  0  0
   46.6182    3.2979    9.8057 H   0  0  0  0  0  0  0  0  0  0  0  0
   43.1914    2.9042   11.1932 H   0  0  0  0  0  0  0  0  0  0  0  0
   44.4202    5.6914    8.2770 H   0  0  0  0  0  0  0  0  0  0  0  0
   44.0014    7.5196   12.0678 H   0  0  0  0  0  0  0  0  0  0  0  0
   45.2834    0.8415    7.8714 H   0  0  0  0  0  0  0  0  0  0  0  0
   46.6637    4.6231   10.6019 H   0  0  0  0  0  0  0  0  0  0  0  0
   42.9239    3.6201   10.5038 H   0  0  0  0  0  0  0  0  0  0  0  0
   45.5504    5.2747   12.5637 H   0  0  0  0  0  0  0  0  0  0  0  0
   44.1216    5.6820   11.6227 H   0  0  0  0  0  0  0  0  0  0  0  0
   43.7846    3.4855   12.6807 H   0  0  0  0  0  0  0  0  0  0  0  0
   45.3089    2.8767   12.0458 H   0  0  0  0  0  0  0  0  0  0  0  0
   45.7856    4.7717    8.4290 H   0  0  0  0  0  0  0  0  0  0  0  0
   44.2657    5.3702    9.0810 H   0  0  0  0  0  0  0  0  0  0  0  0
   45.4754    2.5718    9.4975 H   0  0  0  0  0  0  0  0  0  0  0  0
   44.0514    2.9662    8.5463 H   0  0  0  0  0  0  0  0  0  0  0  0
   43.7536    2.0322    9.5336 H   0  0  0  0  0  0  0  0  0  0  0  0
   45.4445    2.0617   10.0455 H   0  0  0  0  0  0  0  0  0  0  0  0
   46.3215    4.6949   10.5640 H   0  0  0  0  0  0  0  0  0  0  0  0
   45.1106    5.5493    9.5600 H   0  0  0  0  0  0  0  0  0  0  0  0
   42.6322    4.5653   11.2803 H   0  0  0  0  0  0  0  0  0  0  0  0
   43.5684    2.7607   13.6049 H   0  0  0  0  0  0  0  0  0  0  0  0
   44.6379    4.1228    6.7950 H   0  0  0  0  0  0  0  0  0  0  0  0
   45.6908    7.6922   12.2104 H   0  0  0  0  0  0  0  0  0  0  0  0
   42.9518    3.5389   10.6503 H   0  0  0  0  0  0  0  0  0  0  0  0
   46.6340    4.7077   10.4638 H   0  0  0  0  0  0  0  0  0  0  0  0
   45.5129    2.4747    9.6766 H   0  0  0  0  0  0  0  0  0  0  0  0
   44.0304    2.6866    8.7480 H   0  0  0  0  0  0  0  0  0  0  0  0
   44.1550    5.1397    8.9552 H   0  0  0  0  0  0  0  0  0  0  0  0
   45.6786    4.5311    8.3250 H   0  0  0  0  0  0  0  0  0  0  0  0
   43.9070    3.7181   12.7859 H   0  0  0  0  0  0  0  0  0  0  0  0
   45.4323    3.1074   12.1635 H   0  0  0  0  0  0  0  0  0  0  0  0
   44.0753    5.7732   11.4351 H   0  0  0  0  0  0  0  0  0  0  0  0
   45.5522    5.5645   12.3664 H   0  0  0  0  0  0  0  0  0  0  0  0
  2  6  1  0
  3  1  1  0
  4  3  1  0
  5  1  1  0
  6  5  1  0
  2  4  1  0
  8  7  1  0
  9  7  1  0
 10  7  1  0
 11  9  1  0
 12  8  1  0
 13 10  2  0
 14 12  2  0
 15 11  2  0
 16  7  1  0
 17 10  1  0
 18 12  1  0
 19 11  1  0
 21 25  1  0
 22 20  1  0
 23 22  1  0
 24 20  1  0
 25 24  1  0
 21 23  1  0
 27 26  1  0
 28 26  1  0
 29 26  1  0
 30 28  1  0
 31 27  1  0
 32 29  2  0
 33 31  2  0
 34 30  2  0
 35 26  1  0
 36 29  1  0
 37 31  1  0
 38 30  1  0
 40 44  1  0
 41 39  1  0
 42 41  1  0
 43 39  1  0
 44 43  1  0
 40 42  1  0
  1 45  1  0
  2 46  1  0
  3 47  1  0
  3 48  1  0
  4 49  1  0
  4 50  1  0
  5 51  1  0
  5 52  1  0
  6 53  1  0
  6 54  1  0
  8 55  1  0
  8 56  1  0
  9 57  1  0
  9 58  1  0
 16 59  1  0
 17 60  1  0
 18 61  1  0
 19 62  1  0
 20 63  1  0
 21 64  1  0
 22 65  1  0
 22 66  1  0
 23 67  1  0
 23 68  1  0
 24 69  1  0
 24 70  1  0
 25 71  1  0
 25 72  1  0
 27 73  1  0
 27 74  1  0
 28 75  1  0
 28 76  1  0
 35 77  1  0
 36 78  1  0
 37 79  1  0
 38 80  1  0
 39 81  1  0
 40 82  1  0
 41 83  1  0
 41 84  1  0
 42 85  1  0
 42 86  1  0
 43 87  1  0
 43 88  1  0
 44 89  1  0
 44 90  1  0
M  END
> <Uni-Dock RESULT> 
ENERGY=   -8.539  LOWER_BOUND=    1.521  UPPER_BOUND=    3.840
INTER + INTRA:          -8.539
INTER:                  -8.539
INTRA:                   0.000
UNBOUND:                 0.000

$$$$

     RDKit          3D

 90 88  0  0  0  0  0  0  0  0999 V2000
   45.4887    4.5268   12.8982 N   0  0  0  0  0  0  0  0  0  0  0  0
   44.2367    6.7119   11.3235 N   0  0  0  0  0  0  0  0  0  0  0  0
   44.7190    4.2688   11.6677 C   0  0  0  0  0  0  0  0  0  0  0  0
   43.6619    5.3566   11.3824 C   0  0  0  0  0  0  0  0  0  0  0  0
   46.0636    5.8838   12.8402 C   0  0  0  0  0  0  0  0  0  0  0  0
   45.0086    6.9741   12.5510 C   0  0  0  0  0  0  0  0  0  0  0  0
   45.2681    5.5717   12.2520 C   0  0  0  0  0  0  0  0  0  0  0  0
   46.0065    6.8517   11.8408 C   0  0  0  0  0  0  0  0  0  0  0  0
   45.6370    4.4447   11.2695 C   0  0  0  0  0  0  0  0  0  0  0  0
   43.7485    5.8110   12.2606 C   0  0  0  0  0  0  0  0  0  0  0  0
   44.8352    3.2024   11.5263 C   0  0  0  0  0  0  0  0  0  0  0  0
   45.6821    8.0200   12.7301 C   0  0  0  0  0  0  0  0  0  0  0  0
   43.0315    5.8578   13.2485 O   0  0  0  0  0  0  0  0  0  0  0  0
   46.4159    8.5297   13.5617 O   0  0  0  0  0  0  0  0  0  0  0  0
   44.2753    2.8991   12.5658 O   0  0  0  0  0  0  0  0  0  0  0  0
   45.7510    5.2032   13.5511 O   0  0  0  0  0  0  0  0  0  0  0  0
   43.2182    5.9559   11.0343 O   0  0  0  0  0  0  0  0  0  0  0  0
   44.4593    8.5352   12.4946 O   0  0  0  0  0  0  0  0  0  0  0  0
   44.7912    2.3846   10.4582 O   0  0  0  0  0  0  0  0  0  0  0  0
   44.8707    6.6788   11.0639 N   0  0  0  0  0  0  0  0  0  0  0  0
   44.8536    4.5617   13.1515 N   0  0  0  0  0  0  0  0  0  0  0  0
   45.4932    6.8730   12.3857 C   0  0  0  0  0  0  0  0  0  0  0  0
   45.9401    5.5504   13.0487 C   0  0  0  0  0  0  0  0  0  0  0  0
   43.7807    5.6944   11.1779 C   0  0  0  0  0  0  0  0  0  0  0  0
   44.2342    4.3702   11.8288 C   0  0  0  0  0  0  0  0  0  0  0  0
   44.8256    5.3389   12.5912 C   0  0  0  0  0  0  0  0  0  0  0  0
   44.6295    3.9408   11.9770 C   0  0  0  0  0  0  0  0  0  0  0  0
   44.6982    6.4805   11.5714 C   0  0  0  0  0  0  0  0  0  0  0  0
   46.2588    5.3472   13.1634 C   0  0  0  0  0  0  0  0  0  0  0  0
   45.0540    7.8203   12.1609 C   0  0  0  0  0  0  0  0  0  0  0  0
   43.5806    3.8348   10.9093 C   0  0  0  0  0  0  0  0  0  0  0  0
   47.2926    5.3198   12.5171 O   0  0  0  0  0  0  0  0  0  0  0  0
   43.7234    3.2626    9.8385 O   0  0  0  0  0  0  0  0  0  0  0  0
   45.3722    8.0640   13.3116 O   0  0  0  0  0  0  0  0  0  0  0  0
   43.8436    5.5061   13.6231 O   0  0  0  0  0  0  0  0  0  0  0  0
   46.2854    5.3917   14.5129 O   0  0  0  0  0  0  0  0  0  0  0  0
   42.3887    4.3615   11.2393 O   0  0  0  0  0  0  0  0  0  0  0  0
   44.9722    8.8068   11.2479 O   0  0  0  0  0  0  0  0  0  0  0  0
   45.0338    4.6152   13.1894 N   0  0  0  0  0  0  0  0  0  0  0  0
   44.6912    6.6284   11.0300 N   0  0  0  0  0  0  0  0  0  0  0  0
   44.3968    4.2874   11.9007 C   0  0  0  0  0  0  0  0  0  0  0  0
   43.7486    5.5125   11.2219 C   0  0  0  0  0  0  0  0  0  0  0  0
   45.9766    5.7306   12.9961 C   0  0  0  0  0  0  0  0  0  0  0  0
   45.3279    6.9558   12.3180 C   0  0  0  0  0  0  0  0  0  0  0  0
   44.8311    4.5069   13.6784 H   0  0  0  0  0  0  0  0  0  0  0  0
   44.8841    6.7439   10.5340 H   0  0  0  0  0  0  0  0  0  0  0  0
   44.2220    3.2967   11.7629 H   0  0  0  0  0  0  0  0  0  0  0  0
   45.4094    4.1891   10.8195 H   0  0  0  0  0  0  0  0  0  0  0  0
   42.8815    5.3270   12.1528 H   0  0  0  0  0  0  0  0  0  0  0  0
   43.1677    5.1417   10.4288 H   0  0  0  0  0  0  0  0  0  0  0  0
   46.5503    6.0994   13.7972 H   0  0  0  0  0  0  0  0  0  0  0  0
   46.8449    5.9128   12.0705 H   0  0  0  0  0  0  0  0  0  0  0  0
   45.5070    7.9443   12.4490 H   0  0  0  0  0  0  0  0  0  0  0  0
   44.3206    7.0661   13.4008 H   0  0  0  0  0  0  0  0  0  0  0  0
   47.0940    6.6914   11.9073 H   0  0  0  0  0  0  0  0  0  0  0  0
   45.7891    7.1425   10.8043 H   0  0  0  0  0  0  0  0  0  0  0  0
   46.6938    4.1773   11.3621 H   0  0  0  0  0  0  0  0  0  0  0  0
   45.4429    4.7623   10.2385 H   0  0  0  0  0  0  0  0  0  0  0  0
   45.0929    4.5869   13.9358 H   0  0  0  0  0  0  0  0  0  0  0  0
   42.2685    6.1310   11.2117 H   0  0  0  0  0  0  0  0  0  0  0  0
   44.3657    9.2359   13.1737 H   0  0  0  0  0  0  0  0  0  0  0  0
   44.2422    1.6231   10.7488 H   0  0  0  0  0  0  0  0  0  0  0  0
   45.5788    6.2899   10.4394 H   0  0  0  0  0  0  0  0  0  0  0  0
   44.1419    4.9463   13.7758 H   0  0  0  0  0  0  0  0  0  0  0  0
   46.3593    7.5343   12.2711 H   0  0  0  0  0  0  0  0  0  0  0  0
   44.7856    7.3930   13.0431 H   0  0  0  0  0  0  0  0  0  0  0  0
   46.3234    5.7592   14.0545 H   0  0  0  0  0  0  0  0  0  0  0  0
   46.7708    5.1127   12.4799 H   0  0  0  0  0  0  0  0  0  0  0  0
   43.3867    5.4897   10.1766 H   0  0  0  0  0  0  0  0  0  0  0  0
   42.9591    6.1337   11.7564 H   0  0  0  0  0  0  0  0  0  0  0  0
   44.9468    3.8595   11.1696 H   0  0  0  0  0  0  0  0  0  0  0  0
   43.3722    3.7030   11.9340 H   0  0  0  0  0  0  0  0  0  0  0  0
   44.3800    3.2012   12.7516 H   0  0  0  0  0  0  0  0  0  0  0  0
   45.5658    3.6025   11.5047 H   0  0  0  0  0  0  0  0  0  0  0  0
   45.3606    6.3055   10.7148 H   0  0  0  0  0  0  0  0  0  0  0  0
   43.6645    6.5716   11.2214 H   0  0  0  0  0  0  0  0  0  0  0  0
   44.2525    6.0834   14.3014 H   0  0  0  0  0  0  0  0  0  0  0  0
   47.2378    5.4328   14.7499 H   0  0  0  0  0  0  0  0  0  0  0  0
   41.8069    4.1411   10.4826 H   0  0  0  0  0  0  0  0  0  0  0  0
   45.2021    9.6243   11.7406 H   0  0  0  0  0  0  0  0  0  0  0  0
   44.3028    4.9319   13.8282 H   0  0  0  0  0  0  0  0  0  0  0  0
   45.4224    6.3106   10.3923 H   0  0  0  0  0  0  0  0  0  0  0  0
   45.1442    3.8441   11.2304 H   0  0  0  0  0  0  0  0  0  0  0  0
   43.6315    3.5234   12.0749 H   0  0  0  0  0  0  0  0  0  0  0  0
   42.8974    5.8623   11.8176 H   0  0  0  0  0  0  0  0  0  0  0  0
   43.3480    5.2178   10.2458 H   0  0  0  0  0  0  0  0  0  0  0  0
   46.3735    6.0257   13.9732 H   0  0  0  0  0  0  0  0  0  0  0  0
   46.8320    5.3825   12.4038 H   0  0  0  0  0  0  0  0  0  0  0  0
   44.5796    7.3988   12.9867 H   0  0  0  0  0  0  0  0  0  0  0  0
   46.0907    7.7230   12.1480 H   0  0  0  0  0  0  0  0  0  0  0  0
  2  6  1  0
  3  1  1  0
  4  3  1  0
  5  1  1  0
  6  5  1  0
  2  4  1  0
  8  7  1  0
  9  7  1  0
 10  7  1  0
 11  9  1  0
 12  8  1  0
 13 10  2  0
 14 12  2  0
 15 11  2  0
 16  7  1  0
 17 10  1  0
 18 12  1  0
 19 11  1  0
 21 25  1  0
 22 20  1  0
 23 22  1  0
 24 20  1  0
 25 24  1  0
 21 23  1  0
 27 26  1  0
 28 26  1  0
 29 26  1  0
 30 28  1  0
 31 27  1  0
 32 29  2  0
 33 31  2  0
 34 30  2  0
 35 26  1  0
 36 29  1  0
 37 31  1  0
 38 30  1  0
 40 44  1  0
 41 39  1  0
 42 41  1  0
 43 39  1  0
 44 43  1  0
 40 42  1  0
  1 45  1  0
  2 46  1  0
  3 47  1  0
  3 48  1  0
  4 49  1  0
  4 50  1  0
  5 51  1  0
  5 52  1  0
  6 53  1  0
  6 54  1  0
  8 55  1  0
  8 56  1  0
  9 57  1  0
  9 58  1  0
 16 59  1  0
 17 60  1  0
 18 61  1  0
 19 62  1  0
 20 63  1  0
 21 64  1  0
 22 65  1  0
 22 66  1  0
 23 67  1  0
 23 68  1  0
 24 69  1  0
 24 70  1  0
 25 71  1  0
 25 72  1  0
 27 73  1  0
 27 74  1  0
 28 75  1  0
 28 76  1  0
 35 77  1  0
 36 78  1  0
 37 79  1  0
 38 80  1  0
 39 81  1  0
 40 82  1  0
 41 83  1  0
 41 84  1  0
 42 85  1  0
 42 86  1  0
 43 87  1  0
 43 88  1  0
 44 89  1  0
 44 90  1  0
M  END
> <Uni-Dock RESULT> 
ENERGY=   -8.417  LOWER_BOUND=    1.125  UPPER_BOUND=    3.765
INTER + INTRA:          -8.417
INTER:                  -8.417
INTRA:                   0.000
UNBOUND:                 0.000

$$$$

     RDKit          3D

 90 88  0  0  0  0  0  0  0  0999 V2000
   45.1112    3.5783   12.9549 N   0  0  0  0  0  0  0  0  0  0  0  0
   44.6934    6.4654   12.3966 N   0  0  0  0  0  0  0  0  0  0  0  0
   45.9947    4.6222   13.5053 C   0  0  0  0  0  0  0  0  0  0  0  0
   46.0313    5.8966   12.6355 C   0  0  0  0  0  0  0  0  0  0  0  0
   43.7719    4.1474   12.7148 C   0  0  0  0  0  0  0  0  0  0  0  0
   43.8060    5.4251   11.8478 C   0  0  0  0  0  0  0  0  0  0  0  0
   44.6288    4.7220   12.8234 C   0  0  0  0  0  0  0  0  0  0  0  0
   43.2716    5.4241   12.9567 C   0  0  0  0  0  0  0  0  0  0  0  0
   45.2711    4.6076   14.2185 C   0  0  0  0  0  0  0  0  0  0  0  0
   45.5433    5.5044   11.8653 C   0  0  0  0  0  0  0  0  0  0  0  0
   46.6671    4.0622   14.1416 C   0  0  0  0  0  0  0  0  0  0  0  0
   42.5811    5.6083   11.6337 C   0  0  0  0  0  0  0  0  0  0  0  0
   45.8944    5.1473   10.7511 O   0  0  0  0  0  0  0  0  0  0  0  0
   41.6003    5.0028   11.2322 O   0  0  0  0  0  0  0  0  0  0  0  0
   47.1417    3.4016   13.2337 O   0  0  0  0  0  0  0  0  0  0  0  0
   44.3735    3.3952   12.3426 O   0  0  0  0  0  0  0  0  0  0  0  0
   45.9775    6.6729   12.3676 O   0  0  0  0  0  0  0  0  0  0  0  0
   43.1250    6.5919   10.8901 O   0  0  0  0  0  0  0  0  0  0  0  0
   47.4003    4.3614   15.2299 O   0  0  0  0  0  0  0  0  0  0  0  0
   44.2986    6.3563   12.9468 N   0  0  0  0  0  0  0  0  0  0  0  0
   45.5064    3.6933   12.4078 N   0  0  0  0  0  0  0  0  0  0  0  0
   43.5522    5.2751   12.2785 C   0  0  0  0  0  0  0  0  0  0  0  0
   44.0635    3.8640   12.6472 C   0  0  0  0  0  0  0  0  0  0  0  0
   45.7396    6.1817   12.6957 C   0  0  0  0  0  0  0  0  0  0  0  0
   46.2487    4.7753   13.0772 C   0  0  0  0  0  0  0  0  0  0  0  0
   45.0610    4.5414   12.4418 C   0  0  0  0  0  0  0  0  0  0  0  0
   46.2454    4.2568   13.3834 C   0  0  0  0  0  0  0  0  0  0  0  0
   44.4933    5.9619   12.5819 C   0  0  0  0  0  0  0  0  0  0  0  0
   43.9624    3.5310   12.8341 C   0  0  0  0  0  0  0  0  0  0  0  0
   43.2388    6.1620   11.7724 C   0  0  0  0  0  0  0  0  0  0  0  0
   47.2014    5.3933   13.5966 C   0  0  0  0  0  0  0  0  0  0  0  0
   43.3288    3.5242   13.8760 O   0  0  0  0  0  0  0  0  0  0  0  0
   47.6325    5.7546   14.6821 O   0  0  0  0  0  0  0  0  0  0  0  0
   42.6966    5.3594   11.0330 O   0  0  0  0  0  0  0  0  0  0  0  0
   45.5117    4.3359   11.0958 O   0  0  0  0  0  0  0  0  0  0  0  0
   43.7399    2.6005   11.8808 O   0  0  0  0  0  0  0  0  0  0  0  0
   47.6431    5.9744   12.4678 O   0  0  0  0  0  0  0  0  0  0  0  0
   42.7322    7.3995   11.9315 O   0  0  0  0  0  0  0  0  0  0  0  0
   45.3363    3.6201   12.4579 N   0  0  0  0  0  0  0  0  0  0  0  0
   44.4655    6.4282   12.8930 N   0  0  0  0  0  0  0  0  0  0  0  0
   46.1811    4.6080   13.1539 C   0  0  0  0  0  0  0  0  0  0  0  0
   45.8826    6.0607   12.7274 C   0  0  0  0  0  0  0  0  0  0  0  0
   43.9197    3.9881   12.6247 C   0  0  0  0  0  0  0  0  0  0  0  0
   43.6213    5.4407   12.1974 C   0  0  0  0  0  0  0  0  0  0  0  0
   45.4928    3.3029   12.0494 H   0  0  0  0  0  0  0  0  0  0  0  0
   44.3119    6.7585   13.2978 H   0  0  0  0  0  0  0  0  0  0  0  0
   47.0078    4.2134   13.5922 H   0  0  0  0  0  0  0  0  0  0  0  0
   45.6673    4.8741   14.5211 H   0  0  0  0  0  0  0  0  0  0  0  0
   46.5083    5.6753   11.6727 H   0  0  0  0  0  0  0  0  0  0  0  0
   46.6536    6.6531   13.1255 H   0  0  0  0  0  0  0  0  0  0  0  0
   43.1541    3.3921   12.2179 H   0  0  0  0  0  0  0  0  0  0  0  0
   43.2947    4.3675   13.6779 H   0  0  0  0  0  0  0  0  0  0  0  0
   42.7940    5.8369   11.7673 H   0  0  0  0  0  0  0  0  0  0  0  0
   44.1229    5.1780   10.8268 H   0  0  0  0  0  0  0  0  0  0  0  0
   42.6003    4.8197   13.5865 H   0  0  0  0  0  0  0  0  0  0  0  0
   43.3581    6.4089   13.4352 H   0  0  0  0  0  0  0  0  0  0  0  0
   44.6922    3.9368   14.8602 H   0  0  0  0  0  0  0  0  0  0  0  0
   45.3217    5.5938   14.6941 H   0  0  0  0  0  0  0  0  0  0  0  0
   45.2183    3.0562   11.9787 H   0  0  0  0  0  0  0  0  0  0  0  0
   46.5093    7.0560   11.6366 H   0  0  0  0  0  0  0  0  0  0  0  0
   42.6204    6.5570   10.0505 H   0  0  0  0  0  0  0  0  0  0  0  0
   48.2799    3.9585   15.0573 H   0  0  0  0  0  0  0  0  0  0  0  0
   44.1436    6.2675   13.9521 H   0  0  0  0  0  0  0  0  0  0  0  0
   45.6669    3.7814   11.4025 H   0  0  0  0  0  0  0  0  0  0  0  0
   42.4938    5.3616   12.5485 H   0  0  0  0  0  0  0  0  0  0  0  0
   43.6120    5.4156   11.1922 H   0  0  0  0  0  0  0  0  0  0  0  0
   43.5176    3.1150   12.0614 H   0  0  0  0  0  0  0  0  0  0  0  0
   43.8479    3.6558   13.7033 H   0  0  0  0  0  0  0  0  0  0  0  0
   46.2897    6.9345   13.2707 H   0  0  0  0  0  0  0  0  0  0  0  0
   45.9464    6.3802   11.6371 H   0  0  0  0  0  0  0  0  0  0  0  0
   46.1792    4.6392   14.1635 H   0  0  0  0  0  0  0  0  0  0  0  0
   47.3095    4.6902   12.8188 H   0  0  0  0  0  0  0  0  0  0  0  0
   46.8347    3.3992   13.0277 H   0  0  0  0  0  0  0  0  0  0  0  0
   45.8736    3.9925   14.3865 H   0  0  0  0  0  0  0  0  0  0  0  0
   44.2528    6.1772   13.6302 H   0  0  0  0  0  0  0  0  0  0  0  0
   45.2105    6.7021   12.2119 H   0  0  0  0  0  0  0  0  0  0  0  0
   44.7350    4.0156   10.5912 H   0  0  0  0  0  0  0  0  0  0  0  0
   43.0036    2.0497   12.2264 H   0  0  0  0  0  0  0  0  0  0  0  0
   48.3062    6.6276   12.7732 H   0  0  0  0  0  0  0  0  0  0  0  0
   41.9406    7.4230   11.3513 H   0  0  0  0  0  0  0  0  0  0  0  0
   45.5557    3.6674   11.4617 H   0  0  0  0  0  0  0  0  0  0  0  0
   44.2466    6.3793   13.8890 H   0  0  0  0  0  0  0  0  0  0  0  0
   46.0416    4.5033   14.2375 H   0  0  0  0  0  0  0  0  0  0  0  0
   47.2312    4.3778   12.9437 H   0  0  0  0  0  0  0  0  0  0  0  0
   46.1700    6.2088   11.6800 H   0  0  0  0  0  0  0  0  0  0  0  0
   46.4962    6.7474   13.3208 H   0  0  0  0  0  0  0  0  0  0  0  0
   43.3082    3.3026   12.0284 H   0  0  0  0  0  0  0  0  0  0  0  0
   43.6276    3.8369   13.6714 H   0  0  0  0  0  0  0  0  0  0  0  0
   43.7618    5.5467   11.1146 H   0  0  0  0  0  0  0  0  0  0  0  0
   42.5702    5.6708   12.4018 H   0  0  0  0  0  0  0  0  0  0  0  0
  2  6  1  0
  3  1  1  0
  4  3  1  0
  5  1  1  0
  6  5  1  0
  2  4  1  0
  8  7  1  0
  9  7  1  0
 10  7  1  0
 11  9  1  0
 12  8  1  0
 13 10  2  0
 14 12  2  0
 15 11  2  0
 16  7  1  0
 17 10  1  0
 18 12  1  0
 19 11  1  0
 21 25  1  0
 22 20  1  0
 23 22  1  0
 24 20  1  0
 25 24  1  0
 21 23  1  0
 27 26  1  0
 28 26  1  0
 29 26  1  0
 30 28  1  0
 31 27  1  0
 32 29  2  0
 33 31  2  0
 34 30  2  0
 35 26  1  0
 36 29  1  0
 37 31  1  0
 38 30  1  0
 40 44  1  0
 41 39  1  0
 42 41  1  0
 43 39  1  0
 44 43  1  0
 40 42  1  0
  1 45  1  0
  2 46  1  0
  3 47  1  0
  3 48  1  0
  4 49  1  0
  4 50  1  0
  5 51  1  0
  5 52  1  0
  6 53  1  0
  6 54  1  0
  8 55  1  0
  8 56  1  0
  9 57  1  0
  9 58  1  0
 16 59  1  0
 17 60  1  0
 18 61  1  0
 19 62  1  0
 20 63  1  0
 21 64  1  0
 22 65  1  0
 22 66  1  0
 23 67  1  0
 23 68  1  0
 24 69  1  0
 24 70  1  0
 25 71  1  0
 25 72  1  0
 27 73  1  0
 27 74  1  0
 28 75  1  0
 28 76  1  0
 35 77  1  0
 36 78  1  0
 37 79  1  0
 38 80  1  0
 39 81  1  0
 40 82  1  0
 41 83  1  0
 41 84  1  0
 42 85  1  0
 42 86  1  0
 43 87  1  0
 43 88  1  0
 44 89  1  0
 44 90  1  0
M  END
> <Uni-Dock RESULT> 
ENERGY=   -8.124  LOWER_BOUND=    1.527  UPPER_BOUND=    2.952
INTER + INTRA:          -8.124
INTER:                  -8.124
INTRA:                   0.000
UNBOUND:                 0.000

$$$$

     RDKit          3D

 90 88  0  0  0  0  0  0  0  0999 V2000
   47.2666    4.6176   17.5889 N   0  0  0  0  0  0  0  0  0  0  0  0
   49.8640    3.8855   18.8295 N   0  0  0  0  0  0  0  0  0  0  0  0
   47.8641    5.4018   18.6849 C   0  0  0  0  0  0  0  0  0  0  0  0
   48.7951    4.5618   19.5848 C   0  0  0  0  0  0  0  0  0  0  0  0
   48.3362    3.9395   16.8329 C   0  0  0  0  0  0  0  0  0  0  0  0
   49.2718    3.1014   17.7315 C   0  0  0  0  0  0  0  0  0  0  0  0
   48.4584    4.3087   17.7946 C   0  0  0  0  0  0  0  0  0  0  0  0
   49.7195    3.9744   16.9881 C   0  0  0  0  0  0  0  0  0  0  0  0
   48.3155    5.8394   17.8868 C   0  0  0  0  0  0  0  0  0  0  0  0
   48.5405    3.6839   19.1980 C   0  0  0  0  0  0  0  0  0  0  0  0
   47.1827    6.2360   18.7877 C   0  0  0  0  0  0  0  0  0  0  0  0
   49.9583    2.4945   16.8711 C   0  0  0  0  0  0  0  0  0  0  0  0
   47.8658    2.7544   19.6141 O   0  0  0  0  0  0  0  0  0  0  0  0
   49.8134    1.8088   15.8718 O   0  0  0  0  0  0  0  0  0  0  0  0
   46.2250    5.5489   19.0987 O   0  0  0  0  0  0  0  0  0  0  0  0
   47.3376    3.8023   17.0570 O   0  0  0  0  0  0  0  0  0  0  0  0
   49.4450    4.2729   19.9987 O   0  0  0  0  0  0  0  0  0  0  0  0
   50.4254    1.9465   18.0104 O   0  0  0  0  0  0  0  0  0  0  0  0
   47.3010    7.4967   19.2437 O   0  0  0  0  0  0  0  0  0  0  0  0
   50.0518    4.2788   18.2999 N   0  0  0  0  0  0  0  0  0  0  0  0
   47.0844    4.2272   18.1209 N   0  0  0  0  0  0  0  0  0  0  0  0
   49.3372    3.4289   17.3304 C   0  0  0  0  0  0  0  0  0  0  0  0
   47.9432    3.9777   16.9510 C   0  0  0  0  0  0  0  0  0  0  0  0
   49.1884    4.5167   19.4695 C   0  0  0  0  0  0  0  0  0  0  0  0
   47.8017    5.0768   19.0871 C   0  0  0  0  0  0  0  0  0  0  0  0
   48.0324    4.0937   18.1653 C   0  0  0  0  0  0  0  0  0  0  0  0
   47.4088    5.3772   18.7435 C   0  0  0  0  0  0  0  0  0  0  0  0
   49.5532    4.0070   18.3641 C   0  0  0  0  0  0  0  0  0  0  0  0
   47.7348    4.1291   16.6515 C   0  0  0  0  0  0  0  0  0  0  0  0
   50.1599    2.8274   17.6502 C   0  0  0  0  0  0  0  0  0  0  0  0
   47.9918    5.8642   20.0373 C   0  0  0  0  0  0  0  0  0  0  0  0
   48.2112    4.9065   15.8417 O   0  0  0  0  0  0  0  0  0  0  0  0
   48.3032    7.0221   20.2759 O   0  0  0  0  0  0  0  0  0  0  0  0
   49.5797    1.9706   17.0068 O   0  0  0  0  0  0  0  0  0  0  0  0
   47.4012    2.9742   18.8020 O   0  0  0  0  0  0  0  0  0  0  0  0
   46.8570    3.1777   16.2664 O   0  0  0  0  0  0  0  0  0  0  0  0
   48.0869    4.9284   20.9976 O   0  0  0  0  0  0  0  0  0  0  0  0
   51.4971    2.7829   17.8034 O   0  0  0  0  0  0  0  0  0  0  0  0
   47.1085    4.2207   17.9307 N   0  0  0  0  0  0  0  0  0  0  0  0
   50.0273    4.2808   18.4878 N   0  0  0  0  0  0  0  0  0  0  0  0
   47.7017    5.1311   18.9274 C   0  0  0  0  0  0  0  0  0  0  0  0
   49.0230    4.5962   19.5186 C   0  0  0  0  0  0  0  0  0  0  0  0
   48.1133    3.9065   16.9002 C   0  0  0  0  0  0  0  0  0  0  0  0
   49.4343    3.3710   17.4917 C   0  0  0  0  0  0  0  0  0  0  0  0
   46.6867    3.8933   18.0137 H   0  0  0  0  0  0  0  0  0  0  0  0
   50.4585    4.6052   18.4147 H   0  0  0  0  0  0  0  0  0  0  0  0
   47.0566    5.8247   19.2934 H   0  0  0  0  0  0  0  0  0  0  0  0
   48.4186    6.2485   18.2630 H   0  0  0  0  0  0  0  0  0  0  0  0
   48.2076    3.8133   20.1307 H   0  0  0  0  0  0  0  0  0  0  0  0
   49.2530    5.2104   20.3395 H   0  0  0  0  0  0  0  0  0  0  0  0
   47.8761    3.2860   16.0844 H   0  0  0  0  0  0  0  0  0  0  0  0
   48.9228    4.6883   16.2861 H   0  0  0  0  0  0  0  0  0  0  0  0
   50.0825    2.6849   17.1236 H   0  0  0  0  0  0  0  0  0  0  0  0
   48.7254    2.2462   18.1485 H   0  0  0  0  0  0  0  0  0  0  0  0
   49.6197    4.3643   15.9631 H   0  0  0  0  0  0  0  0  0  0  0  0
   50.6211    4.4316   17.4175 H   0  0  0  0  0  0  0  0  0  0  0  0
   48.1176    6.2723   16.9018 H   0  0  0  0  0  0  0  0  0  0  0  0
   49.2344    6.2820   18.2881 H   0  0  0  0  0  0  0  0  0  0  0  0
   46.5867    3.7427   17.6843 H   0  0  0  0  0  0  0  0  0  0  0  0
   49.3989    3.7470   20.8265 H   0  0  0  0  0  0  0  0  0  0  0  0
   50.4759    0.9892   17.8063 H   0  0  0  0  0  0  0  0  0  0  0  0
   46.5133    7.6307   19.8158 H   0  0  0  0  0  0  0  0  0  0  0  0
   50.2290    5.1800   17.8539 H   0  0  0  0  0  0  0  0  0  0  0  0
   46.9039    3.3278   18.5711 H   0  0  0  0  0  0  0  0  0  0  0  0
   49.9507    3.3360   16.4274 H   0  0  0  0  0  0  0  0  0  0  0  0
   49.2342    2.4189   17.7457 H   0  0  0  0  0  0  0  0  0  0  0  0
   47.4391    3.2635   16.2892 H   0  0  0  0  0  0  0  0  0  0  0  0
   48.0540    4.9099   16.3819 H   0  0  0  0  0  0  0  0  0  0  0  0
   49.6918    5.2219   20.1395 H   0  0  0  0  0  0  0  0  0  0  0  0
   49.0728    3.5795   20.0271 H   0  0  0  0  0  0  0  0  0  0  0  0
   47.9131    6.0835   18.6660 H   0  0  0  0  0  0  0  0  0  0  0  0
   47.1904    5.1814   19.9897 H   0  0  0  0  0  0  0  0  0  0  0  0
   46.3275    5.2539   18.9007 H   0  0  0  0  0  0  0  0  0  0  0  0
   47.5336    6.2096   18.0323 H   0  0  0  0  0  0  0  0  0  0  0  0
   50.0417    4.9137   17.9868 H   0  0  0  0  0  0  0  0  0  0  0  0
   49.7968    3.8744   19.4235 H   0  0  0  0  0  0  0  0  0  0  0  0
   47.3907    2.2511   18.1405 H   0  0  0  0  0  0  0  0  0  0  0  0
   46.7822    3.2765   15.2919 H   0  0  0  0  0  0  0  0  0  0  0  0
   48.4026    5.4183   21.7850 H   0  0  0  0  0  0  0  0  0  0  0  0
   51.7781    1.9755   17.3209 H   0  0  0  0  0  0  0  0  0  0  0  0
   46.8672    3.3500   18.4068 H   0  0  0  0  0  0  0  0  0  0  0  0
   50.2670    5.1514   18.0114 H   0  0  0  0  0  0  0  0  0  0  0  0
   47.8721    6.1117   18.4649 H   0  0  0  0  0  0  0  0  0  0  0  0
   46.9782    5.2811   19.7361 H   0  0  0  0  0  0  0  0  0  0  0  0
   48.8284    3.6971   20.1147 H   0  0  0  0  0  0  0  0  0  0  0  0
   49.4430    5.3412   20.2032 H   0  0  0  0  0  0  0  0  0  0  0  0
   47.6928    3.1595   16.2187 H   0  0  0  0  0  0  0  0  0  0  0  0
   48.3072    4.8035   16.2990 H   0  0  0  0  0  0  0  0  0  0  0  0
   49.2646    2.3914   17.9554 H   0  0  0  0  0  0  0  0  0  0  0  0
   50.1571    3.2151   16.6838 H   0  0  0  0  0  0  0  0  0  0  0  0
  2  6  1  0
  3  1  1  0
  4  3  1  0
  5  1  1  0
  6  5  1  0
  2  4  1  0
  8  7  1  0
  9  7  1  0
 10  7  1  0
 11  9  1  0
 12  8  1  0
 13 10  2  0
 14 12  2  0
 15 11  2  0
 16  7  1  0
 17 10  1  0
 18 12  1  0
 19 11  1  0
 21 25  1  0
 22 20  1  0
 23 22  1  0
 24 20  1  0
 25 24  1  0
 21 23  1  0
 27 26  1  0
 28 26  1  0
 29 26  1  0
 30 28  1  0
 31 27  1  0
 32 29  2  0
 33 31  2  0
 34 30  2  0
 35 26  1  0
 36 29  1  0
 37 31  1  0
 38 30  1  0
 40 44  1  0
 41 39  1  0
 42 41  1  0
 43 39  1  0
 44 43  1  0
 40 42  1  0
  1 45  1  0
  2 46  1  0
  3 47  1  0
  3 48  1  0
  4 49  1  0
  4 50  1  0
  5 51  1  0
  5 52  1  0
  6 53  1  0
  6 54  1  0
  8 55  1  0
  8 56  1  0
  9 57  1  0
  9 58  1  0
 16 59  1  0
 17 60  1  0
 18 61  1  0
 19 62  1  0
 20 63  1  0
 21 64  1  0
 22 65  1  0
 22 66  1  0
 23 67  1  0
 23 68  1  0
 24 69  1  0
 24 70  1  0
 25 71  1  0
 25 72  1  0
 27 73  1  0
 27 74  1  0
 28 75  1  0
 28 76  1  0
 35 77  1  0
 36 78  1  0
 37 79  1  0
 38 80  1  0
 39 81  1  0
 40 82  1  0
 41 83  1  0
 41 84  1  0
 42 85  1  0
 42 86  1  0
 43 87  1  0
 43 88  1  0
 44 89  1  0
 44 90  1  0
M  END
> <Uni-Dock RESULT> 
ENERGY=   -7.556  LOWER_BOUND=    6.998  UPPER_BOUND=    8.090
INTER + INTRA:          -7.556
INTER:                  -7.556
INTRA:                   0.000
UNBOUND:                 0.000

$$$$

     RDKit          3D

 90 88  0  0  0  0  0  0  0  0999 V2000
   46.3337    4.8231   12.7284 N   0  0  0  0  0  0  0  0  0  0  0  0
   44.1212    6.7133   12.1335 N   0  0  0  0  0  0  0  0  0  0  0  0
   46.3986    6.2503   13.0921 C   0  0  0  0  0  0  0  0  0  0  0  0
   45.5301    7.1417   12.1794 C   0  0  0  0  0  0  0  0  0  0  0  0
   44.9234    4.3939   12.6815 C   0  0  0  0  0  0  0  0  0  0  0  0
   44.0511    5.2866   11.7719 C   0  0  0  0  0  0  0  0  0  0  0  0
   45.2236    5.3856   12.6313 C   0  0  0  0  0  0  0  0  0  0  0  0
   43.7515    5.0961   12.9505 C   0  0  0  0  0  0  0  0  0  0  0  0
   45.9243    5.8797   13.9106 C   0  0  0  0  0  0  0  0  0  0  0  0
   45.3311    6.4349   11.5115 C   0  0  0  0  0  0  0  0  0  0  0  0
   47.3318    6.3215   13.6350 C   0  0  0  0  0  0  0  0  0  0  0  0
   42.9766    4.6349   11.7473 C   0  0  0  0  0  0  0  0  0  0  0  0
   45.7179    6.2345   10.3703 O   0  0  0  0  0  0  0  0  0  0  0  0
   42.5727    3.5039   11.5292 O   0  0  0  0  0  0  0  0  0  0  0  0
   48.0265    5.9913   12.6894 O   0  0  0  0  0  0  0  0  0  0  0  0
   45.8261    4.1419   12.2479 O   0  0  0  0  0  0  0  0  0  0  0  0
   44.9684    7.6712   11.8940 O   0  0  0  0  0  0  0  0  0  0  0  0
   42.6936    5.6356   10.8901 O   0  0  0  0  0  0  0  0  0  0  0  0
   47.8086    7.1511   14.5815 O   0  0  0  0  0  0  0  0  0  0  0  0
   43.9426    6.4541   12.7429 N   0  0  0  0  0  0  0  0  0  0  0  0
   46.5091    5.0875   12.1218 N   0  0  0  0  0  0  0  0  0  0  0  0
   43.9946    5.0685   12.2427 C   0  0  0  0  0  0  0  0  0  0  0  0
   45.3202    4.3489   12.5795 C   0  0  0  0  0  0  0  0  0  0  0  0
   45.1313    7.1870   12.2740 C   0  0  0  0  0  0  0  0  0  0  0  0
   46.4535    6.4713   12.6237 C   0  0  0  0  0  0  0  0  0  0  0  0
   45.6318    5.4669   12.1933 C   0  0  0  0  0  0  0  0  0  0  0  0
   46.8111    6.1096   12.9461 C   0  0  0  0  0  0  0  0  0  0  0  0
   44.3069    6.2245   12.3671 C   0  0  0  0  0  0  0  0  0  0  0  0
   45.4733    4.0536   12.7926 C   0  0  0  0  0  0  0  0  0  0  0  0
   43.1407    5.4901   11.7591 C   0  0  0  0  0  0  0  0  0  0  0  0
   46.8396    7.6096   12.9620 C   0  0  0  0  0  0  0  0  0  0  0  0
   45.0950    3.7879   13.9210 O   0  0  0  0  0  0  0  0  0  0  0  0
   47.0455    8.2980   13.9511 O   0  0  0  0  0  0  0  0  0  0  0  0
   43.1647    4.4374   11.1458 O   0  0  0  0  0  0  0  0  0  0  0  0
   45.9756    5.4154   10.8019 O   0  0  0  0  0  0  0  0  0  0  0  0
   45.8022    3.0743   11.9227 O   0  0  0  0  0  0  0  0  0  0  0  0
   46.6969    8.1864   11.7563 O   0  0  0  0  0  0  0  0  0  0  0  0
   41.9808    6.1475   11.9489 O   0  0  0  0  0  0  0  0  0  0  0  0
   46.4306    4.9314   12.2009 N   0  0  0  0  0  0  0  0  0  0  0  0
   44.0191    6.6067   12.6607 N   0  0  0  0  0  0  0  0  0  0  0  0
   46.5159    6.3102   12.7164 C   0  0  0  0  0  0  0  0  0  0  0  0
   45.3208    7.1872   12.2874 C   0  0  0  0  0  0  0  0  0  0  0  0
   45.1291    4.3517   12.5753 C   0  0  0  0  0  0  0  0  0  0  0  0
   43.9341    5.2287   12.1454 C   0  0  0  0  0  0  0  0  0  0  0  0
   46.7122    4.7318   11.7852 H   0  0  0  0  0  0  0  0  0  0  0  0
   43.7310    6.8178   13.0717 H   0  0  0  0  0  0  0  0  0  0  0  0
   47.4423    6.5795   13.0333 H   0  0  0  0  0  0  0  0  0  0  0  0
   46.0872    6.3717   14.1365 H   0  0  0  0  0  0  0  0  0  0  0  0
   45.9416    7.1442   11.1624 H   0  0  0  0  0  0  0  0  0  0  0  0
   45.5723    8.1766   12.5357 H   0  0  0  0  0  0  0  0  0  0  0  0
   44.8832    3.3618   12.3177 H   0  0  0  0  0  0  0  0  0  0  0  0
   44.5126    4.3904   13.6988 H   0  0  0  0  0  0  0  0  0  0  0  0
   43.0070    4.9613   11.8367 H   0  0  0  0  0  0  0  0  0  0  0  0
   44.3508    5.1617   10.7238 H   0  0  0  0  0  0  0  0  0  0  0  0
   43.6847    4.2931   13.7011 H   0  0  0  0  0  0  0  0  0  0  0  0
   43.2375    5.9706   13.3715 H   0  0  0  0  0  0  0  0  0  0  0  0
   45.9715    5.0849   14.6609 H   0  0  0  0  0  0  0  0  0  0  0  0
   45.3816    6.7326   14.3344 H   0  0  0  0  0  0  0  0  0  0  0  0
   46.6524    4.3612   11.7683 H   0  0  0  0  0  0  0  0  0  0  0  0
   45.0596    8.2035   11.0740 H   0  0  0  0  0  0  0  0  0  0  0  0
   42.2477    5.1846   10.1427 H   0  0  0  0  0  0  0  0  0  0  0  0
   48.7210    7.3678   14.2876 H   0  0  0  0  0  0  0  0  0  0  0  0
   43.9790    6.4194   13.7627 H   0  0  0  0  0  0  0  0  0  0  0  0
   46.4774    5.1250   11.1011 H   0  0  0  0  0  0  0  0  0  0  0  0
   43.1565    4.5092   12.6730 H   0  0  0  0  0  0  0  0  0  0  0  0
   43.8446    5.0730   11.1560 H   0  0  0  0  0  0  0  0  0  0  0  0
   45.3223    3.3551   12.1164 H   0  0  0  0  0  0  0  0  0  0  0  0
   45.3913    4.1910   13.6636 H   0  0  0  0  0  0  0  0  0  0  0  0
   45.1290    8.1849   12.7257 H   0  0  0  0  0  0  0  0  0  0  0  0
   45.0594    7.3315   11.1893 H   0  0  0  0  0  0  0  0  0  0  0  0
   46.5933    6.4641   13.7116 H   0  0  0  0  0  0  0  0  0  0  0  0
   47.2938    7.0347   12.2043 H   0  0  0  0  0  0  0  0  0  0  0  0
   47.7730    5.7710   12.5347 H   0  0  0  0  0  0  0  0  0  0  0  0
   46.7932    5.8041   14.0047 H   0  0  0  0  0  0  0  0  0  0  0  0
   44.0885    6.3763   13.4313 H   0  0  0  0  0  0  0  0  0  0  0  0
   44.3479    7.1945   11.8604 H   0  0  0  0  0  0  0  0  0  0  0  0
   45.5361    4.6181   10.4389 H   0  0  0  0  0  0  0  0  0  0  0  0
   45.6236    2.2351   12.4010 H   0  0  0  0  0  0  0  0  0  0  0  0
   46.8181    9.1433   11.9278 H   0  0  0  0  0  0  0  0  0  0  0  0
   41.3036    5.5959   11.5006 H   0  0  0  0  0  0  0  0  0  0  0  0
   46.4707    4.9755   11.1814 H   0  0  0  0  0  0  0  0  0  0  0  0
   43.9804    6.5616   13.6799 H   0  0  0  0  0  0  0  0  0  0  0  0
   46.5819    6.2831   13.8116 H   0  0  0  0  0  0  0  0  0  0  0  0
   47.4450    6.7614   12.3518 H   0  0  0  0  0  0  0  0  0  0  0  0
   45.3438    7.3448   11.2028 H   0  0  0  0  0  0  0  0  0  0  0  0
   45.4110    8.1763   12.7497 H   0  0  0  0  0  0  0  0  0  0  0  0
   45.0395    3.3646   12.1098 H   0  0  0  0  0  0  0  0  0  0  0  0
   45.1044    4.1888   13.6600 H   0  0  0  0  0  0  0  0  0  0  0  0
   43.8681    5.2575   11.0508 H   0  0  0  0  0  0  0  0  0  0  0  0
   43.0037    4.7760   12.5044 H   0  0  0  0  0  0  0  0  0  0  0  0
  2  6  1  0
  3  1  1  0
  4  3  1  0
  5  1  1  0
  6  5  1  0
  2  4  1  0
  8  7  1  0
  9  7  1  0
 10  7  1  0
 11  9  1  0
 12  8  1  0
 13 10  2  0
 14 12  2  0
 15 11  2  0
 16  7  1  0
 17 10  1  0
 18 12  1  0
 19 11  1  0
 21 25  1  0
 22 20  1  0
 23 22  1  0
 24 20  1  0
 25 24  1  0
 21 23  1  0
 27 26  1  0
 28 26  1  0
 29 26  1  0
 30 28  1  0
 31 27  1  0
 32 29  2  0
 33 31  2  0
 34 30  2  0
 35 26  1  0
 36 29  1  0
 37 31  1  0
 38 30  1  0
 40 44  1  0
 41 39  1  0
 42 41  1  0
 43 39  1  0
 44 43  1  0
 40 42  1  0
  1 45  1  0
  2 46  1  0
  3 47  1  0
  3 48  1  0
  4 49  1  0
  4 50  1  0
  5 51  1  0
  5 52  1  0
  6 53  1  0
  6 54  1  0
  8 55  1  0
  8 56  1  0
  9 57  1  0
  9 58  1  0
 16 59  1  0
 17 60  1  0
 18 61  1  0
 19 62  1  0
 20 63  1  0
 21 64  1  0
 22 65  1  0
 22 66  1  0
 23 67  1  0
 23 68  1  0
 24 69  1  0
 24 70  1  0
 25 71  1  0
 25 72  1  0
 27 73  1  0
 27 74  1  0
 28 75  1  0
 28 76  1  0
 35 77  1  0
 36 78  1  0
 37 79  1  0
 38 80  1  0
 39 81  1  0
 40 82  1  0
 41 83  1  0
 41 84  1  0
 42 85  1  0
 42 86  1  0
 43 87  1  0
 43 88  1  0
 44 89  1  0
 44 90  1  0
M  END
> <Uni-Dock RESULT> 
ENERGY=   -7.345  LOWER_BOUND=    1.437  UPPER_BOUND=    2.619
INTER + INTRA:          -7.345
INTER:                  -7.345
INTRA:                   0.000
UNBOUND:                 0.000

$$$$

     RDKit          3D

 90 88  0  0  0  0  0  0  0  0999 V2000
   49.5417    4.0312   18.8863 N   0  0  0  0  0  0  0  0  0  0  0  0
   46.9422    4.9278   17.7639 N   0  0  0  0  0  0  0  0  0  0  0  0
   48.5107    4.6842   19.7133 C   0  0  0  0  0  0  0  0  0  0  0  0
   47.5873    5.6134   18.8971 C   0  0  0  0  0  0  0  0  0  0  0  0
   48.8965    3.3455   17.7511 C   0  0  0  0  0  0  0  0  0  0  0  0
   47.9688    4.2720   16.9349 C   0  0  0  0  0  0  0  0  0  0  0  0
   48.4405    4.0966   18.3025 C   0  0  0  0  0  0  0  0  0  0  0  0
   47.5517    3.2175   17.4137 C   0  0  0  0  0  0  0  0  0  0  0  0
   48.2033    3.7178   19.7762 C   0  0  0  0  0  0  0  0  0  0  0  0
   48.1281    5.5842   18.0654 C   0  0  0  0  0  0  0  0  0  0  0  0
   48.9325    4.6403   20.7087 C   0  0  0  0  0  0  0  0  0  0  0  0
   47.6942    3.5389   15.9516 C   0  0  0  0  0  0  0  0  0  0  0  0
   48.8584    6.3959   17.5176 O   0  0  0  0  0  0  0  0  0  0  0  0
   48.2533    2.8587   15.1063 O   0  0  0  0  0  0  0  0  0  0  0  0
   49.9011    5.3301   20.4406 O   0  0  0  0  0  0  0  0  0  0  0  0
   49.8025    3.7859   17.9784 O   0  0  0  0  0  0  0  0  0  0  0  0
   46.9330    5.9677   18.5457 O   0  0  0  0  0  0  0  0  0  0  0  0
   47.0750    4.6840   15.6032 O   0  0  0  0  0  0  0  0  0  0  0  0
   48.4141    4.6367   21.9508 O   0  0  0  0  0  0  0  0  0  0  0  0
   46.8195    4.2746   17.9334 N   0  0  0  0  0  0  0  0  0  0  0  0
   49.6579    4.6847   18.7184 N   0  0  0  0  0  0  0  0  0  0  0  0
   47.9411    3.7824   17.1134 C   0  0  0  0  0  0  0  0  0  0  0  0
   49.2242    3.5170   17.9330 C   0  0  0  0  0  0  0  0  0  0  0  0
   47.2602    5.4467   18.7094 C   0  0  0  0  0  0  0  0  0  0  0  0
   48.5347    5.1735   19.5365 C   0  0  0  0  0  0  0  0  0  0  0  0
   48.7884    4.5900   18.3264 C   0  0  0  0  0  0  0  0  0  0  0  0
   48.9268    4.8323   19.8405 C   0  0  0  0  0  0  0  0  0  0  0  0
   47.3307    4.5155   17.8476 C   0  0  0  0  0  0  0  0  0  0  0  0
   49.4655    3.2297   18.0567 C   0  0  0  0  0  0  0  0  0  0  0  0
   47.2210    4.1170   16.3991 C   0  0  0  0  0  0  0  0  0  0  0  0
   47.9234    5.7669   20.4495 C   0  0  0  0  0  0  0  0  0  0  0  0
   49.0610    2.1388   18.4218 O   0  0  0  0  0  0  0  0  0  0  0  0
   47.3059    5.5580   21.4837 O   0  0  0  0  0  0  0  0  0  0  0  0
   48.1308    3.9042   15.6169 O   0  0  0  0  0  0  0  0  0  0  0  0
   49.4617    5.6592   17.6479 O   0  0  0  0  0  0  0  0  0  0  0  0
   50.6060    3.3431   17.3423 O   0  0  0  0  0  0  0  0  0  0  0  0
   47.7883    6.9405   19.8083 O   0  0  0  0  0  0  0  0  0  0  0  0
   45.9378    4.0213   16.0018 O   0  0  0  0  0  0  0  0  0  0  0  0
   49.6878    4.5057   18.6562 N   0  0  0  0  0  0  0  0  0  0  0  0
   46.7916    4.4530   17.9910 N   0  0  0  0  0  0  0  0  0  0  0  0
   48.6589    5.0267   19.5749 C   0  0  0  0  0  0  0  0  0  0  0  0
   47.3839    5.4979   18.8442 C   0  0  0  0  0  0  0  0  0  0  0  0
   49.0947    3.4606   17.8041 C   0  0  0  0  0  0  0  0  0  0  0  0
   47.8200    3.9323   17.0729 C   0  0  0  0  0  0  0  0  0  0  0  0
   50.1345    4.7673   18.5014 H   0  0  0  0  0  0  0  0  0  0  0  0
   46.3341    4.1998   18.1429 H   0  0  0  0  0  0  0  0  0  0  0  0
   49.0078    5.2655   20.4982 H   0  0  0  0  0  0  0  0  0  0  0  0
   47.9132    3.9163   20.2190 H   0  0  0  0  0  0  0  0  0  0  0  0
   48.1602    6.4711   18.5235 H   0  0  0  0  0  0  0  0  0  0  0  0
   46.8093    6.0193   19.5527 H   0  0  0  0  0  0  0  0  0  0  0  0
   49.6761    2.9473   17.0932 H   0  0  0  0  0  0  0  0  0  0  0  0
   48.3247    2.4870   18.1251 H   0  0  0  0  0  0  0  0  0  0  0  0
   47.4670    3.6887   16.1551 H   0  0  0  0  0  0  0  0  0  0  0  0
   48.5619    5.0366   16.4178 H   0  0  0  0  0  0  0  0  0  0  0  0
   47.8321    2.1598   17.5375 H   0  0  0  0  0  0  0  0  0  0  0  0
   46.4888    3.2993   17.6779 H   0  0  0  0  0  0  0  0  0  0  0  0
   48.5552    2.7020   19.9790 H   0  0  0  0  0  0  0  0  0  0  0  0
   47.1350    3.7750   20.0148 H   0  0  0  0  0  0  0  0  0  0  0  0
   50.3507    4.5288   18.3076 H   0  0  0  0  0  0  0  0  0  0  0  0
   46.8729    6.9135   18.2892 H   0  0  0  0  0  0  0  0  0  0  0  0
   47.2990    4.7923   14.6551 H   0  0  0  0  0  0  0  0  0  0  0  0
   48.9678    5.2733   22.4547 H   0  0  0  0  0  0  0  0  0  0  0  0
   46.5695    3.5380   18.5948 H   0  0  0  0  0  0  0  0  0  0  0  0
   49.9094    5.4252   18.0607 H   0  0  0  0  0  0  0  0  0  0  0  0
   47.6301    2.8583   16.6134 H   0  0  0  0  0  0  0  0  0  0  0  0
   48.1546    4.5114   16.3220 H   0  0  0  0  0  0  0  0  0  0  0  0
   50.0354    3.2270   17.2547 H   0  0  0  0  0  0  0  0  0  0  0  0
   49.0624    2.6687   18.6108 H   0  0  0  0  0  0  0  0  0  0  0  0
   46.4494    5.7473   19.3818 H   0  0  0  0  0  0  0  0  0  0  0  0
   47.4308    6.2868   18.0255 H   0  0  0  0  0  0  0  0  0  0  0  0
   48.3157    4.4386   20.3208 H   0  0  0  0  0  0  0  0  0  0  0  0
   48.8411    6.0930   20.0464 H   0  0  0  0  0  0  0  0  0  0  0  0
   49.9250    5.2216   20.0879 H   0  0  0  0  0  0  0  0  0  0  0  0
   48.8126    3.8816   20.3857 H   0  0  0  0  0  0  0  0  0  0  0  0
   46.7694    3.7822   18.4397 H   0  0  0  0  0  0  0  0  0  0  0  0
   46.8481    5.4954   17.9267 H   0  0  0  0  0  0  0  0  0  0  0  0
   49.8127    5.2793   16.8153 H   0  0  0  0  0  0  0  0  0  0  0  0
   50.9153    2.4211   17.2040 H   0  0  0  0  0  0  0  0  0  0  0  0
   47.1704    7.4547   20.3684 H   0  0  0  0  0  0  0  0  0  0  0  0
   45.9869    3.7796   15.0515 H   0  0  0  0  0  0  0  0  0  0  0  0
   49.9829    5.2725   18.0497 H   0  0  0  0  0  0  0  0  0  0  0  0
   46.4982    3.6863   18.5979 H   0  0  0  0  0  0  0  0  0  0  0  0
   48.4017    4.2507   20.3070 H   0  0  0  0  0  0  0  0  0  0  0  0
   49.0853    5.8656   20.1356 H   0  0  0  0  0  0  0  0  0  0  0  0
   47.6095    6.3764   18.2286 H   0  0  0  0  0  0  0  0  0  0  0  0
   46.6383    5.8150   19.5816 H   0  0  0  0  0  0  0  0  0  0  0  0
   49.8403    3.1471   17.0658 H   0  0  0  0  0  0  0  0  0  0  0  0
   48.8716    2.5781   18.4166 H   0  0  0  0  0  0  0  0  0  0  0  0
   48.0760    4.7091   16.3418 H   0  0  0  0  0  0  0  0  0  0  0  0
   47.3954    3.0962   16.5073 H   0  0  0  0  0  0  0  0  0  0  0  0
  2  6  1  0
  3  1  1  0
  4  3  1  0
  5  1  1  0
  6  5  1  0
  2  4  1  0
  8  7  1  0
  9  7  1  0
 10  7  1  0
 11  9  1  0
 12  8  1  0
 13 10  2  0
 14 12  2  0
 15 11  2  0
 16  7  1  0
 17 10  1  0
 18 12  1  0
 19 11  1  0
 21 25  1  0
 22 20  1  0
 23 22  1  0
 24 20  1  0
 25 24  1  0
 21 23  1  0
 27 26  1  0
 28 26  1  0
 29 26  1  0
 30 28  1  0
 31 27  1  0
 32 29  2  0
 33 31  2  0
 34 30  2  0
 35 26  1  0
 36 29  1  0
 37 31  1  0
 38 30  1  0
 40 44  1  0
 41 39  1  0
 42 41  1  0
 43 39  1  0
 44 43  1  0
 40 42  1  0
  1 45  1  0
  2 46  1  0
  3 47  1  0
  3 48  1  0
  4 49  1  0
  4 50  1  0
  5 51  1  0
  5 52  1  0
  6 53  1  0
  6 54  1  0
  8 55  1  0
  8 56  1  0
  9 57  1  0
  9 58  1  0
 16 59  1  0
 17 60  1  0
 18 61  1  0
 19 62  1  0
 20 63  1  0
 21 64  1  0
 22 65  1  0
 22 66  1  0
 23 67  1  0
 23 68  1  0
 24 69  1  0
 24 70  1  0
 25 71  1  0
 25 72  1  0
 27 73  1  0
 27 74  1  0
 28 75  1  0
 28 76  1  0
 35 77  1  0
 36 78  1  0
 37 79  1  0
 38 80  1  0
 39 81  1  0
 40 82  1  0
 41 83  1  0
 41 84  1  0
 42 85  1  0
 42 86  1  0
 43 87  1  0
 43 88  1  0
 44 89  1  0
 44 90  1  0
M  END
> <Uni-Dock RESULT> 
ENERGY=   -7.263  LOWER_BOUND=    6.963  UPPER_BOUND=    8.128
INTER + INTRA:          -7.263
INTER:                  -7.263
INTRA:                   0.000
UNBOUND:                 0.000

$$$$

     RDKit          3D

 90 88  0  0  0  0  0  0  0  0999 V2000
   46.5516   11.6456   19.2592 N   0  0  0  0  0  0  0  0  0  0  0  0
   48.8787   12.2706   20.9957 N   0  0  0  0  0  0  0  0  0  0  0  0
   47.6704   12.4898   18.8021 C   0  0  0  0  0  0  0  0  0  0  0  0
   48.3961   13.2034   19.9625 C   0  0  0  0  0  0  0  0  0  0  0  0
   47.0341   10.7122   20.2943 C   0  0  0  0  0  0  0  0  0  0  0  0
   47.7641   11.4233   21.4548 C   0  0  0  0  0  0  0  0  0  0  0  0
   47.5358   11.5791   20.0241 C   0  0  0  0  0  0  0  0  0  0  0  0
   48.3090   10.5202   20.8201 C   0  0  0  0  0  0  0  0  0  0  0  0
   48.0337   11.5706   18.5667 C   0  0  0  0  0  0  0  0  0  0  0  0
   47.7270   12.9682   20.6568 C   0  0  0  0  0  0  0  0  0  0  0  0
   47.4226   12.6837   17.7669 C   0  0  0  0  0  0  0  0  0  0  0  0
   47.9092   10.4768   22.2690 C   0  0  0  0  0  0  0  0  0  0  0  0
   46.8748   13.6157   21.2457 O   0  0  0  0  0  0  0  0  0  0  0  0
   47.2536    9.6067   22.8192 O   0  0  0  0  0  0  0  0  0  0  0  0
   46.3885   13.2782   18.0182 O   0  0  0  0  0  0  0  0  0  0  0  0
   46.1568   11.1852   20.0239 O   0  0  0  0  0  0  0  0  0  0  0  0
   48.9638   13.4688   20.4959 O   0  0  0  0  0  0  0  0  0  0  0  0
   48.4019   11.5100   22.9805 O   0  0  0  0  0  0  0  0  0  0  0  0
   48.1395   12.9860   16.6686 O   0  0  0  0  0  0  0  0  0  0  0  0
   49.0615   11.6791   20.7004 N   0  0  0  0  0  0  0  0  0  0  0  0
   46.3755   12.2378   19.5541 N   0  0  0  0  0  0  0  0  0  0  0  0
   47.8464   10.9916   21.1731 C   0  0  0  0  0  0  0  0  0  0  0  0
   46.7327   10.9193   20.1041 C   0  0  0  0  0  0  0  0  0  0  0  0
   48.6957   12.9995   20.1593 C   0  0  0  0  0  0  0  0  0  0  0  0
   47.5921   12.9215   19.0827 C   0  0  0  0  0  0  0  0  0  0  0  0
   47.1716   12.0600   20.0575 C   0  0  0  0  0  0  0  0  0  0  0  0
   47.2741   12.6600   18.6433 C   0  0  0  0  0  0  0  0  0  0  0  0
   48.5314   11.8869   20.7507 C   0  0  0  0  0  0  0  0  0  0  0  0
   46.5305   10.6680   19.8760 C   0  0  0  0  0  0  0  0  0  0  0  0
   48.4196   11.1509   22.0602 C   0  0  0  0  0  0  0  0  0  0  0  0
   48.3149   13.7244   18.4564 C   0  0  0  0  0  0  0  0  0  0  0  0
   47.0460    9.7020   19.3391 O   0  0  0  0  0  0  0  0  0  0  0  0
   49.1055   13.7782   17.5255 O   0  0  0  0  0  0  0  0  0  0  0  0
   47.4048   10.7459   22.5996 O   0  0  0  0  0  0  0  0  0  0  0  0
   46.3405   12.9264   20.8421 O   0  0  0  0  0  0  0  0  0  0  0  0
   45.2829   10.5935   20.3877 O   0  0  0  0  0  0  0  0  0  0  0  0
   48.2807   14.7094   19.3705 O   0  0  0  0  0  0  0  0  0  0  0  0
   49.6222   10.9751   22.6402 O   0  0  0  0  0  0  0  0  0  0  0  0
   46.3450   12.0488   19.5661 N   0  0  0  0  0  0  0  0  0  0  0  0
   49.0894   11.8664   20.6924 N   0  0  0  0  0  0  0  0  0  0  0  0
   47.4838   12.7871   18.9897 C   0  0  0  0  0  0  0  0  0  0  0  0
   48.5936   13.0806   20.0211 C   0  0  0  0  0  0  0  0  0  0  0  0
   46.8417   10.8347   20.2365 C   0  0  0  0  0  0  0  0  0  0  0  0
   47.9511   11.1285   21.2683 C   0  0  0  0  0  0  0  0  0  0  0  0
   45.8658   12.2606   19.6984 H   0  0  0  0  0  0  0  0  0  0  0  0
   49.5782   11.6621   20.5668 H   0  0  0  0  0  0  0  0  0  0  0  0
   47.2812   13.2386   18.1030 H   0  0  0  0  0  0  0  0  0  0  0  0
   48.3826   11.8732   18.2408 H   0  0  0  0  0  0  0  0  0  0  0  0
   47.7255   13.9393   20.4231 H   0  0  0  0  0  0  0  0  0  0  0  0
   49.2501   13.7638   19.5669 H   0  0  0  0  0  0  0  0  0  0  0  0
   46.1777   10.1587   20.6936 H   0  0  0  0  0  0  0  0  0  0  0  0
   47.7037    9.9757   19.8330 H   0  0  0  0  0  0  0  0  0  0  0  0
   48.1590   10.6737   22.1494 H   0  0  0  0  0  0  0  0  0  0  0  0
   47.0546   12.0339   22.0270 H   0  0  0  0  0  0  0  0  0  0  0  0
   48.1082    9.5211   20.4029 H   0  0  0  0  0  0  0  0  0  0  0  0
   49.3953   10.6744   20.7714 H   0  0  0  0  0  0  0  0  0  0  0  0
   47.7735   10.6304   18.0715 H   0  0  0  0  0  0  0  0  0  0  0  0
   49.1223   11.6947   18.5377 H   0  0  0  0  0  0  0  0  0  0  0  0
   45.6331   11.9801   19.7897 H   0  0  0  0  0  0  0  0  0  0  0  0
   48.9313   14.3250   20.9753 H   0  0  0  0  0  0  0  0  0  0  0  0
   48.0182   11.3833   23.8736 H   0  0  0  0  0  0  0  0  0  0  0  0
   47.6450   13.7199   16.2414 H   0  0  0  0  0  0  0  0  0  0  0  0
   49.4557   11.1270   19.9373 H   0  0  0  0  0  0  0  0  0  0  0  0
   45.9803   12.7946   20.3144 H   0  0  0  0  0  0  0  0  0  0  0  0
   48.1175    9.9773   21.4865 H   0  0  0  0  0  0  0  0  0  0  0  0
   47.4670   11.5053   22.0651 H   0  0  0  0  0  0  0  0  0  0  0  0
   45.8362   10.4655   20.5430 H   0  0  0  0  0  0  0  0  0  0  0  0
   47.0485   10.2619   19.2836 H   0  0  0  0  0  0  0  0  0  0  0  0
   49.5901   13.4622   19.7284 H   0  0  0  0  0  0  0  0  0  0  0  0
   48.3706   13.6474   20.9822 H   0  0  0  0  0  0  0  0  0  0  0  0
   47.9760   12.4005   18.1971 H   0  0  0  0  0  0  0  0  0  0  0  0
   47.3274   13.9338   18.7595 H   0  0  0  0  0  0  0  0  0  0  0  0
   46.3120   13.0874   18.3256 H   0  0  0  0  0  0  0  0  0  0  0  0
   47.5264   11.8707   17.9170 H   0  0  0  0  0  0  0  0  0  0  0  0
   49.2204   11.3244   20.1087 H   0  0  0  0  0  0  0  0  0  0  0  0
   48.9690   12.8617   20.9906 H   0  0  0  0  0  0  0  0  0  0  0  0
   45.8763   12.3527   21.4872 H   0  0  0  0  0  0  0  0  0  0  0  0
   45.0031    9.6623   20.2481 H   0  0  0  0  0  0  0  0  0  0  0  0
   48.9555   15.3500   19.0640 H   0  0  0  0  0  0  0  0  0  0  0  0
   49.4286   10.5102   23.4830 H   0  0  0  0  0  0  0  0  0  0  0  0
   45.9140   12.6430   20.2760 H   0  0  0  0  0  0  0  0  0  0  0  0
   49.5188   11.2724   19.9818 H   0  0  0  0  0  0  0  0  0  0  0  0
   47.8989   12.2139   18.1509 H   0  0  0  0  0  0  0  0  0  0  0  0
   47.1135   13.7323   18.5781 H   0  0  0  0  0  0  0  0  0  0  0  0
   48.2238   13.7817   20.7783 H   0  0  0  0  0  0  0  0  0  0  0  0
   49.4338   13.5743   19.5206 H   0  0  0  0  0  0  0  0  0  0  0  0
   46.0011   10.3443   20.7386 H   0  0  0  0  0  0  0  0  0  0  0  0
   47.2089   10.1290   19.4809 H   0  0  0  0  0  0  0  0  0  0  0  0
   47.5374   11.7027   22.1065 H   0  0  0  0  0  0  0  0  0  0  0  0
   48.3187   10.1848   21.6850 H   0  0  0  0  0  0  0  0  0  0  0  0
  2  6  1  0
  3  1  1  0
  4  3  1  0
  5  1  1  0
  6  5  1  0
  2  4  1  0
  8  7  1  0
  9  7  1  0
 10  7  1  0
 11  9  1  0
 12  8  1  0
 13 10  2  0
 14 12  2  0
 15 11  2  0
 16  7  1  0
 17 10  1  0
 18 12  1  0
 19 11  1  0
 21 25  1  0
 22 20  1  0
 23 22  1  0
 24 20  1  0
 25 24  1  0
 21 23  1  0
 27 26  1  0
 28 26  1  0
 29 26  1  0
 30 28  1  0
 31 27  1  0
 32 29  2  0
 33 31  2  0
 34 30  2  0
 35 26  1  0
 36 29  1  0
 37 31  1  0
 38 30  1  0
 40 44  1  0
 41 39  1  0
 42 41  1  0
 43 39  1  0
 44 43  1  0
 40 42  1  0
  1 45  1  0
  2 46  1  0
  3 47  1  0
  3 48  1  0
  4 49  1  0
  4 50  1  0
  5 51  1  0
  5 52  1  0
  6 53  1  0
  6 54  1  0
  8 55  1  0
  8 56  1  0
  9 57  1  0
  9 58  1  0
 16 59  1  0
 17 60  1  0
 18 61  1  0
 19 62  1  0
 20 63  1  0
 21 64  1  0
 22 65  1  0
 22 66  1  0
 23 67  1  0
 23 68  1  0
 24 69  1  0
 24 70  1  0
 25 71  1  0
 25 72  1  0
 27 73  1  0
 27 74  1  0
 28 75  1  0
 28 76  1  0
 35 77  1  0
 36 78  1  0
 37 79  1  0
 38 80  1  0
 39 81  1  0
 40 82  1  0
 41 83  1  0
 41 84  1  0
 42 85  1  0
 42 86  1  0
 43 87  1  0
 43 88  1  0
 44 89  1  0
 44 90  1  0
M  END
> <Uni-Dock RESULT> 
ENERGY=   -6.795  LOWER_BOUND=    9.789  UPPER_BOUND=   11.445
INTER + INTRA:          -6.795
INTER:                  -6.795
INTRA:                   0.000
UNBOUND:                 0.000

$$$$

     RDKit          3D

 90 88  0  0  0  0  0  0  0  0999 V2000
   53.3333    6.3278    7.0804 N   0  0  0  0  0  0  0  0  0  0  0  0
   54.2910    7.5391    9.6176 N   0  0  0  0  0  0  0  0  0  0  0  0
   53.6054    7.7709    7.2101 C   0  0  0  0  0  0  0  0  0  0  0  0
   53.4546    8.2817    8.6587 C   0  0  0  0  0  0  0  0  0  0  0  0
   54.1697    5.5840    8.0409 C   0  0  0  0  0  0  0  0  0  0  0  0
   54.0237    6.0957    9.4907 C   0  0  0  0  0  0  0  0  0  0  0  0
   53.9630    6.5972    8.1239 C   0  0  0  0  0  0  0  0  0  0  0  0
   55.1266    6.0316    8.9479 C   0  0  0  0  0  0  0  0  0  0  0  0
   54.5330    7.4364    6.9652 C   0  0  0  0  0  0  0  0  0  0  0  0
   53.0436    7.4510    9.0140 C   0  0  0  0  0  0  0  0  0  0  0  0
   53.4469    8.1402    6.2055 C   0  0  0  0  0  0  0  0  0  0  0  0
   54.6631    5.2190   10.1251 C   0  0  0  0  0  0  0  0  0  0  0  0
   51.9073    7.1658    9.3600 O   0  0  0  0  0  0  0  0  0  0  0  0
   54.7225    4.0056   10.2428 O   0  0  0  0  0  0  0  0  0  0  0  0
   52.2681    7.8324    6.1674 O   0  0  0  0  0  0  0  0  0  0  0  0
   53.2619    5.4806    7.5597 O   0  0  0  0  0  0  0  0  0  0  0  0
   53.5939    8.6154    9.3979 O   0  0  0  0  0  0  0  0  0  0  0  0
   54.1917    5.9783   11.1339 O   0  0  0  0  0  0  0  0  0  0  0  0
   53.9040    9.1971    5.5087 O   0  0  0  0  0  0  0  0  0  0  0  0
   54.8728    7.3463    9.3098 N   0  0  0  0  0  0  0  0  0  0  0  0
   52.7557    6.5254    7.3904 N   0  0  0  0  0  0  0  0  0  0  0  0
   54.4219    5.9483    9.1871 C   0  0  0  0  0  0  0  0  0  0  0  0
   53.8412    5.6158    7.7940 C   0  0  0  0  0  0  0  0  0  0  0  0
   53.7787    8.2486    8.9114 C   0  0  0  0  0  0  0  0  0  0  0  0
   53.2101    7.9211    7.5141 C   0  0  0  0  0  0  0  0  0  0  0  0
   53.3678    6.6993    8.1071 C   0  0  0  0  0  0  0  0  0  0  0  0
   53.2307    7.7074    6.9515 C   0  0  0  0  0  0  0  0  0  0  0  0
   54.3472    7.1498    9.2014 C   0  0  0  0  0  0  0  0  0  0  0  0
   53.9056    5.4014    7.4686 C   0  0  0  0  0  0  0  0  0  0  0  0
   54.5871    6.0797   10.2342 C   0  0  0  0  0  0  0  0  0  0  0  0
   53.2558    9.1566    7.3391 C   0  0  0  0  0  0  0  0  0  0  0  0
   55.0171    5.2391    6.9940 O   0  0  0  0  0  0  0  0  0  0  0  0
   53.9127   10.0224    6.7791 O   0  0  0  0  0  0  0  0  0  0  0  0
   54.0723    4.9769   10.2937 O   0  0  0  0  0  0  0  0  0  0  0  0
   52.0662    6.5074    8.6782 O   0  0  0  0  0  0  0  0  0  0  0  0
   53.0014    4.3983    7.4765 O   0  0  0  0  0  0  0  0  0  0  0  0
   52.4161    9.4856    8.3359 O   0  0  0  0  0  0  0  0  0  0  0  0
   55.4738    6.4744   11.1677 O   0  0  0  0  0  0  0  0  0  0  0  0
   52.8633    6.3701    7.3575 N   0  0  0  0  0  0  0  0  0  0  0  0
   54.7639    7.4973    9.3450 N   0  0  0  0  0  0  0  0  0  0  0  0
   53.2402    7.7955    7.3666 C   0  0  0  0  0  0  0  0  0  0  0  0
   53.6706    8.2945    8.7621 C   0  0  0  0  0  0  0  0  0  0  0  0
   53.9575    5.5739    7.9399 C   0  0  0  0  0  0  0  0  0  0  0  0
   54.3871    6.0727    9.3358 C   0  0  0  0  0  0  0  0  0  0  0  0
   52.3589    6.1769    7.3434 H   0  0  0  0  0  0  0  0  0  0  0  0
   55.2691    7.6991    9.3701 H   0  0  0  0  0  0  0  0  0  0  0  0
   52.9136    8.3175    6.5591 H   0  0  0  0  0  0  0  0  0  0  0  0
   54.6173    7.9822    6.8443 H   0  0  0  0  0  0  0  0  0  0  0  0
   52.4040    8.2167    8.9677 H   0  0  0  0  0  0  0  0  0  0  0  0
   53.7272    9.3418    8.7002 H   0  0  0  0  0  0  0  0  0  0  0  0
   53.8901    4.5259    8.0031 H   0  0  0  0  0  0  0  0  0  0  0  0
   55.2202    5.6482    7.7308 H   0  0  0  0  0  0  0  0  0  0  0  0
   54.7206    5.5536   10.1394 H   0  0  0  0  0  0  0  0  0  0  0  0
   53.0161    5.8778    9.8664 H   0  0  0  0  0  0  0  0  0  0  0  0
   55.7377    5.3648    8.3197 H   0  0  0  0  0  0  0  0  0  0  0  0
   55.7942    6.8201    9.3205 H   0  0  0  0  0  0  0  0  0  0  0  0
   55.0727    6.8036    6.2544 H   0  0  0  0  0  0  0  0  0  0  0  0
   55.2202    8.1979    7.3514 H   0  0  0  0  0  0  0  0  0  0  0  0
   52.3755    5.8047    7.2948 H   0  0  0  0  0  0  0  0  0  0  0  0
   52.9080    9.0169    9.9744 H   0  0  0  0  0  0  0  0  0  0  0  0
   53.8783    5.3238   11.7929 H   0  0  0  0  0  0  0  0  0  0  0  0
   53.1086    9.5681    5.0666 H   0  0  0  0  0  0  0  0  0  0  0  0
   55.6450    7.4838    8.6560 H   0  0  0  0  0  0  0  0  0  0  0  0
   51.9800    6.3916    8.0420 H   0  0  0  0  0  0  0  0  0  0  0  0
   55.2703    5.2872    9.3958 H   0  0  0  0  0  0  0  0  0  0  0  0
   53.6681    5.7451    9.9577 H   0  0  0  0  0  0  0  0  0  0  0  0
   53.4583    4.5884    7.7955 H   0  0  0  0  0  0  0  0  0  0  0  0
   54.6392    5.6532    7.0411 H   0  0  0  0  0  0  0  0  0  0  0  0
   54.1528    9.2780    8.9182 H   0  0  0  0  0  0  0  0  0  0  0  0
   52.9803    8.1981    9.6616 H   0  0  0  0  0  0  0  0  0  0  0  0
   53.9713    8.1196    6.7496 H   0  0  0  0  0  0  0  0  0  0  0  0
   52.3691    8.5884    7.2984 H   0  0  0  0  0  0  0  0  0  0  0  0
   52.3014    7.5379    6.3886 H   0  0  0  0  0  0  0  0  0  0  0  0
   54.0615    7.5785    6.2392 H   0  0  0  0  0  0  0  0  0  0  0  0
   55.3171    7.4147    8.7628 H   0  0  0  0  0  0  0  0  0  0  0  0
   53.9460    8.0098    9.7479 H   0  0  0  0  0  0  0  0  0  0  0  0
   52.0417    5.5830    9.0032 H   0  0  0  0  0  0  0  0  0  0  0  0
   53.4692    3.6277    7.0862 H   0  0  0  0  0  0  0  0  0  0  0  0
   52.4937   10.4595    8.4086 H   0  0  0  0  0  0  0  0  0  0  0  0
   55.5363    5.7178   11.7901 H   0  0  0  0  0  0  0  0  0  0  0  0
   52.0438    6.2593    7.9567 H   0  0  0  0  0  0  0  0  0  0  0  0
   55.5823    7.6074    8.7447 H   0  0  0  0  0  0  0  0  0  0  0  0
   54.0528    7.9591    6.6472 H   0  0  0  0  0  0  0  0  0  0  0  0
   52.3840    8.3843    7.0201 H   0  0  0  0  0  0  0  0  0  0  0  0
   52.8133    8.2783    9.4451 H   0  0  0  0  0  0  0  0  0  0  0  0
   53.9950    9.3384    8.6910 H   0  0  0  0  0  0  0  0  0  0  0  0
   53.6302    4.5314    8.0131 H   0  0  0  0  0  0  0  0  0  0  0  0
   54.8158    5.5846    7.2567 H   0  0  0  0  0  0  0  0  0  0  0  0
   53.5750    5.9108   10.0553 H   0  0  0  0  0  0  0  0  0  0  0  0
   55.2397    5.4813    9.6862 H   0  0  0  0  0  0  0  0  0  0  0  0
  2  6  1  0
  3  1  1  0
  4  3  1  0
  5  1  1  0
  6  5  1  0
  2  4  1  0
  8  7  1  0
  9  7  1  0
 10  7  1  0
 11  9  1  0
 12  8  1  0
 13 10  2  0
 14 12  2  0
 15 11  2  0
 16  7  1  0
 17 10  1  0
 18 12  1  0
 19 11  1  0
 21 25  1  0
 22 20  1  0
 23 22  1  0
 24 20  1  0
 25 24  1  0
 21 23  1  0
 27 26  1  0
 28 26  1  0
 29 26  1  0
 30 28  1  0
 31 27  1  0
 32 29  2  0
 33 31  2  0
 34 30  2  0
 35 26  1  0
 36 29  1  0
 37 31  1  0
 38 30  1  0
 40 44  1  0
 41 39  1  0
 42 41  1  0
 43 39  1  0
 44 43  1  0
 40 42  1  0
  1 45  1  0
  2 46  1  0
  3 47  1  0
  3 48  1  0
  4 49  1  0
  4 50  1  0
  5 51  1  0
  5 52  1  0
  6 53  1  0
  6 54  1  0
  8 55  1  0
  8 56  1  0
  9 57  1  0
  9 58  1  0
 16 59  1  0
 17 60  1  0
 18 61  1  0
 19 62  1  0
 20 63  1  0
 21 64  1  0
 22 65  1  0
 22 66  1  0
 23 67  1  0
 23 68  1  0
 24 69  1  0
 24 70  1  0
 25 71  1  0
 25 72  1  0
 27 73  1  0
 27 74  1  0
 28 75  1  0
 28 76  1  0
 35 77  1  0
 36 78  1  0
 37 79  1  0
 38 80  1  0
 39 81  1  0
 40 82  1  0
 41 83  1  0
 41 84  1  0
 42 85  1  0
 42 86  1  0
 43 87  1  0
 43 88  1  0
 44 89  1  0
 44 90  1  0
M  END
> <Uni-Dock RESULT> 
ENERGY=   -6.737  LOWER_BOUND=    9.124  UPPER_BOUND=   10.381
INTER + INTRA:          -6.737
INTER:                  -6.737
INTRA:                   0.000
UNBOUND:                 0.000

$$$$
