
     RDKit          3D

 90 88  0  0  0  0  0  0  0  0999 V2000
   45.6511    4.9399   10.4347 N   0  0  0  0  0  0  0  0  0  0  0  0
   43.7619    5.3346   12.4390 N   0  0  0  0  0  0  0  0  0  0  0  0
   45.5078    6.3253   10.9308 C   0  0  0  0  0  0  0  0  0  0  0  0
   44.2646    6.5684   11.8230 C   0  0  0  0  0  0  0  0  0  0  0  0
   44.3138    4.3946   10.1442 C   0  0  0  0  0  0  0  0  0  0  0  0
   43.4052    4.3548   11.3985 C   0  0  0  0  0  0  0  0  0  0  0  0
   43.7243    5.3855   11.3693 C   0  0  0  0  0  0  0  0  0  0  0  0
   43.2624    4.4948   10.2131 C   0  0  0  0  0  0  0  0  0  0  0  0
   44.5042    6.6149   10.8925 C   0  0  0  0  0  0  0  0  0  0  0  0
   44.5113    4.5271   12.3711 C   0  0  0  0  0  0  0  0  0  0  0  0
   44.9276    7.4962   12.0340 C   0  0  0  0  0  0  0  0  0  0  0  0
   44.3901    3.9131    9.4160 C   0  0  0  0  0  0  0  0  0  0  0  0
   44.0405    4.0472   13.3919 O   0  0  0  0  0  0  0  0  0  0  0  0
   45.0709    4.5030    8.5954 O   0  0  0  0  0  0  0  0  0  0  0  0
   45.0497    7.1873   13.2066 O   0  0  0  0  0  0  0  0  0  0  0  0
   42.5035    5.8547   11.9883 O   0  0  0  0  0  0  0  0  0  0  0  0
   45.7953    4.3110   12.0352 O   0  0  0  0  0  0  0  0  0  0  0  0
   44.6140    2.6167    9.6934 O   0  0  0  0  0  0  0  0  0  0  0  0
   45.2362    8.7431   11.6228 O   0  0  0  0  0  0  0  0  0  0  0  0
   45.8335    5.4593   10.9729 N   0  0  0  0  0  0  0  0  0  0  0  0
   42.8962    5.2871   11.3880 N   0  0  0  0  0  0  0  0  0  0  0  0
   45.0056    4.4325   10.3158 C   0  0  0  0  0  0  0  0  0  0  0  0
   43.7212    4.0991   11.1045 C   0  0  0  0  0  0  0  0  0  0  0  0
   45.0087    6.6476   11.2538 C   0  0  0  0  0  0  0  0  0  0  0  0
   43.7240    6.3157   12.0427 C   0  0  0  0  0  0  0  0  0  0  0  0
   44.2217    4.9885   11.3655 C   0  0  0  0  0  0  0  0  0  0  0  0
   43.7668    4.4116   10.0180 C   0  0  0  0  0  0  0  0  0  0  0  0
   44.9663    6.3238   11.2343 C   0  0  0  0  0  0  0  0  0  0  0  0
   42.9471    5.1487   12.2138 C   0  0  0  0  0  0  0  0  0  0  0  0
   45.1707    6.9874   12.5667 C   0  0  0  0  0  0  0  0  0  0  0  0
   44.8992    4.1928    9.0592 C   0  0  0  0  0  0  0  0  0  0  0  0
   42.6487    4.4864   13.1959 O   0  0  0  0  0  0  0  0  0  0  0  0
   45.6049    5.0591    8.5690 O   0  0  0  0  0  0  0  0  0  0  0  0
   45.1073    6.4575   13.6630 O   0  0  0  0  0  0  0  0  0  0  0  0
   45.0903    4.0210   11.9741 O   0  0  0  0  0  0  0  0  0  0  0  0
   42.1262    6.1252   11.7793 O   0  0  0  0  0  0  0  0  0  0  0  0
   45.0676    2.9007    8.7232 O   0  0  0  0  0  0  0  0  0  0  0  0
   45.4874    8.2905   12.4495 O   0  0  0  0  0  0  0  0  0  0  0  0
   43.9462    4.4574   10.0260 N   0  0  0  0  0  0  0  0  0  0  0  0
   44.8387    6.1211   12.3146 N   0  0  0  0  0  0  0  0  0  0  0  0
   43.4348    4.2536   11.3943 C   0  0  0  0  0  0  0  0  0  0  0  0
   43.4936    5.5337   12.2547 C   0  0  0  0  0  0  0  0  0  0  0  0
   45.3099    5.0115   10.1115 C   0  0  0  0  0  0  0  0  0  0  0  0
   45.3830    6.2980   10.9616 C   0  0  0  0  0  0  0  0  0  0  0  0
   46.0053    4.3978   11.2266 H   0  0  0  0  0  0  0  0  0  0  0  0
   42.9481    5.5334   13.0176 H   0  0  0  0  0  0  0  0  0  0  0  0
   46.4119    6.5630   11.5010 H   0  0  0  0  0  0  0  0  0  0  0  0
   45.4845    7.0144   10.0803 H   0  0  0  0  0  0  0  0  0  0  0  0
   44.5181    7.2881   12.6089 H   0  0  0  0  0  0  0  0  0  0  0  0
   43.4656    7.0206   11.2216 H   0  0  0  0  0  0  0  0  0  0  0  0
   44.4199    3.3814    9.7410 H   0  0  0  0  0  0  0  0  0  0  0  0
   43.8436    4.9999    9.3600 H   0  0  0  0  0  0  0  0  0  0  0  0
   42.3623    4.5001   11.0929 H   0  0  0  0  0  0  0  0  0  0  0  0
   43.4707    3.3616   11.8548 H   0  0  0  0  0  0  0  0  0  0  0  0
   42.6134    5.0512    9.5238 H   0  0  0  0  0  0  0  0  0  0  0  0
   42.6330    3.6767   10.5873 H   0  0  0  0  0  0  0  0  0  0  0  0
   43.8633    7.2138   10.2337 H   0  0  0  0  0  0  0  0  0  0  0  0
   45.4148    6.3411   10.3504 H   0  0  0  0  0  0  0  0  0  0  0  0
   42.4870    5.4851   12.8961 H   0  0  0  0  0  0  0  0  0  0  0  0
   46.1545    3.8018   12.7950 H   0  0  0  0  0  0  0  0  0  0  0  0
   45.3650    2.3719    9.1133 H   0  0  0  0  0  0  0  0  0  0  0  0
   45.4964    9.2099   12.4441 H   0  0  0  0  0  0  0  0  0  0  0  0
   46.1411    5.0795   11.8694 H   0  0  0  0  0  0  0  0  0  0  0  0
   42.5802    5.6658   10.4942 H   0  0  0  0  0  0  0  0  0  0  0  0
   44.7445    4.7722    9.3059 H   0  0  0  0  0  0  0  0  0  0  0  0
   45.6037    3.5225   10.1969 H   0  0  0  0  0  0  0  0  0  0  0  0
   43.9828    3.6100   12.0509 H   0  0  0  0  0  0  0  0  0  0  0  0
   43.1209    3.3811   10.5343 H   0  0  0  0  0  0  0  0  0  0  0  0
   44.7495    7.1385   10.3079 H   0  0  0  0  0  0  0  0  0  0  0  0
   45.6093    7.3644   11.8245 H   0  0  0  0  0  0  0  0  0  0  0  0
   43.1258    7.2263   12.1614 H   0  0  0  0  0  0  0  0  0  0  0  0
   43.9871    5.9766   13.0521 H   0  0  0  0  0  0  0  0  0  0  0  0
   43.2646    3.4476   10.1791 H   0  0  0  0  0  0  0  0  0  0  0  0
   43.0364    5.0598    9.5181 H   0  0  0  0  0  0  0  0  0  0  0  0
   45.9654    6.1775   10.8101 H   0  0  0  0  0  0  0  0  0  0  0  0
   44.3975    7.0120   10.5982 H   0  0  0  0  0  0  0  0  0  0  0  0
   45.0307    4.1560   12.9441 H   0  0  0  0  0  0  0  0  0  0  0  0
   41.3792    6.1077   12.4182 H   0  0  0  0  0  0  0  0  0  0  0  0
   45.8439    2.8989    8.1244 H   0  0  0  0  0  0  0  0  0  0  0  0
   45.6356    8.5937   13.3696 H   0  0  0  0  0  0  0  0  0  0  0  0
   43.3536    5.1493    9.5692 H   0  0  0  0  0  0  0  0  0  0  0  0
   44.7995    7.0218   12.7892 H   0  0  0  0  0  0  0  0  0  0  0  0
   44.0047    3.4517   11.8792 H   0  0  0  0  0  0  0  0  0  0  0  0
   42.3973    3.9074   11.3312 H   0  0  0  0  0  0  0  0  0  0  0  0
   42.7905    6.2757   11.8563 H   0  0  0  0  0  0  0  0  0  0  0  0
   43.1664    5.2967   13.2723 H   0  0  0  0  0  0  0  0  0  0  0  0
   45.6628    5.2281    9.0974 H   0  0  0  0  0  0  0  0  0  0  0  0
   45.9861    4.2514   10.5226 H   0  0  0  0  0  0  0  0  0  0  0  0
   46.4276    6.6159   11.0410 H   0  0  0  0  0  0  0  0  0  0  0  0
   44.8399    7.1047   10.4539 H   0  0  0  0  0  0  0  0  0  0  0  0
  2  6  1  0
  3  1  1  0
  4  3  1  0
  5  1  1  0
  6  5  1  0
  2  4  1  0
  8  7  1  0
  9  7  1  0
 10  7  1  0
 11  9  1  0
 12  8  1  0
 13 10  2  0
 14 12  2  0
 15 11  2  0
 16  7  1  0
 17 10  1  0
 18 12  1  0
 19 11  1  0
 21 25  1  0
 22 20  1  0
 23 22  1  0
 24 20  1  0
 25 24  1  0
 21 23  1  0
 27 26  1  0
 28 26  1  0
 29 26  1  0
 30 28  1  0
 31 27  1  0
 32 29  2  0
 33 31  2  0
 34 30  2  0
 35 26  1  0
 36 29  1  0
 37 31  1  0
 38 30  1  0
 40 44  1  0
 41 39  1  0
 42 41  1  0
 43 39  1  0
 44 43  1  0
 40 42  1  0
  1 45  1  0
  2 46  1  0
  3 47  1  0
  3 48  1  0
  4 49  1  0
  4 50  1  0
  5 51  1  0
  5 52  1  0
  6 53  1  0
  6 54  1  0
  8 55  1  0
  8 56  1  0
  9 57  1  0
  9 58  1  0
 16 59  1  0
 17 60  1  0
 18 61  1  0
 19 62  1  0
 20 63  1  0
 21 64  1  0
 22 65  1  0
 22 66  1  0
 23 67  1  0
 23 68  1  0
 24 69  1  0
 24 70  1  0
 25 71  1  0
 25 72  1  0
 27 73  1  0
 27 74  1  0
 28 75  1  0
 28 76  1  0
 35 77  1  0
 36 78  1  0
 37 79  1  0
 38 80  1  0
 39 81  1  0
 40 82  1  0
 41 83  1  0
 41 84  1  0
 42 85  1  0
 42 86  1  0
 43 87  1  0
 43 88  1  0
 44 89  1  0
 44 90  1  0
M  END
> <Uni-Dock RESULT> 
ENERGY=  -10.076  LOWER_BOUND=    0.000  UPPER_BOUND=    0.000
INTER + INTRA:         -10.076
INTER:                 -10.076
INTRA:                   0.000
UNBOUND:                 0.000

$$$$

     RDKit          3D

 90 88  0  0  0  0  0  0  0  0999 V2000
   44.8992    5.1838   13.5650 N   0  0  0  0  0  0  0  0  0  0  0  0
   43.6101    3.9433   11.4339 N   0  0  0  0  0  0  0  0  0  0  0  0
   44.1876    6.0765   12.6256 C   0  0  0  0  0  0  0  0  0  0  0  0
   43.7338    5.4005   11.3074 C   0  0  0  0  0  0  0  0  0  0  0  0
   45.7340    4.2456   12.7947 C   0  0  0  0  0  0  0  0  0  0  0  0
   44.8986    3.3562   11.8399 C   0  0  0  0  0  0  0  0  0  0  0  0
   44.5912    4.3537   11.5648 C   0  0  0  0  0  0  0  0  0  0  0  0
   46.0014    3.8345   11.8569 C   0  0  0  0  0  0  0  0  0  0  0  0
   44.4955    5.8805   11.6461 C   0  0  0  0  0  0  0  0  0  0  0  0
   43.5988    3.6399   12.4951 C   0  0  0  0  0  0  0  0  0  0  0  0
   43.1137    6.3802   11.3297 C   0  0  0  0  0  0  0  0  0  0  0  0
   46.4814    4.1473   13.2414 C   0  0  0  0  0  0  0  0  0  0  0  0
   42.9274    2.6691   12.1778 O   0  0  0  0  0  0  0  0  0  0  0  0
   46.8748    5.2298   13.6395 O   0  0  0  0  0  0  0  0  0  0  0  0
   42.0668    5.7591   11.3873 O   0  0  0  0  0  0  0  0  0  0  0  0
   44.3303    3.9713   10.1939 O   0  0  0  0  0  0  0  0  0  0  0  0
   43.5234    4.1559   13.7346 O   0  0  0  0  0  0  0  0  0  0  0  0
   46.4379    3.0848   14.0640 O   0  0  0  0  0  0  0  0  0  0  0  0
   43.1122    7.6878   10.9989 O   0  0  0  0  0  0  0  0  0  0  0  0
   44.2306    5.4968   13.3466 N   0  0  0  0  0  0  0  0  0  0  0  0
   44.8735    3.8973   10.9262 N   0  0  0  0  0  0  0  0  0  0  0  0
   45.3364    4.5231   13.3186 C   0  0  0  0  0  0  0  0  0  0  0  0
   45.1182    3.3935   12.2894 C   0  0  0  0  0  0  0  0  0  0  0  0
   43.9882    6.0019   11.9838 C   0  0  0  0  0  0  0  0  0  0  0  0
   43.7696    4.8733   10.9535 C   0  0  0  0  0  0  0  0  0  0  0  0
   44.5153    4.2513   12.1883 C   0  0  0  0  0  0  0  0  0  0  0  0
   46.0293    4.0613   12.3540 C   0  0  0  0  0  0  0  0  0  0  0  0
   44.0916    5.7247   12.1233 C   0  0  0  0  0  0  0  0  0  0  0  0
   44.1305    3.5090   10.8957 C   0  0  0  0  0  0  0  0  0  0  0  0
   42.6564    5.8796   11.7065 C   0  0  0  0  0  0  0  0  0  0  0  0
   46.5759    4.7320   13.5791 C   0  0  0  0  0  0  0  0  0  0  0  0
   43.4769    2.4795   10.8248 O   0  0  0  0  0  0  0  0  0  0  0  0
   46.5974    5.9330   13.7933 O   0  0  0  0  0  0  0  0  0  0  0  0
   41.7902    5.0221   11.7404 O   0  0  0  0  0  0  0  0  0  0  0  0
   43.8797    3.6261   13.3135 O   0  0  0  0  0  0  0  0  0  0  0  0
   44.5887    4.1002    9.7746 O   0  0  0  0  0  0  0  0  0  0  0  0
   47.1118    3.8691   14.4618 O   0  0  0  0  0  0  0  0  0  0  0  0
   42.3705    7.1310   11.3008 O   0  0  0  0  0  0  0  0  0  0  0  0
   45.9517    4.1759   12.4773 N   0  0  0  0  0  0  0  0  0  0  0  0
   43.1896    5.1125   11.9337 N   0  0  0  0  0  0  0  0  0  0  0  0
   44.9148    3.2881   11.9188 C   0  0  0  0  0  0  0  0  0  0  0  0
   43.8250    4.0534   11.1384 C   0  0  0  0  0  0  0  0  0  0  0  0
   45.2939    5.2068   13.3010 C   0  0  0  0  0  0  0  0  0  0  0  0
   44.2073    5.9874   12.5310 C   0  0  0  0  0  0  0  0  0  0  0  0
   44.1745    4.6120   14.0059 H   0  0  0  0  0  0  0  0  0  0  0  0
   43.3091    3.5352   10.5510 H   0  0  0  0  0  0  0  0  0  0  0  0
   43.3098    6.4688   13.1495 H   0  0  0  0  0  0  0  0  0  0  0  0
   44.8227    6.9374   12.3920 H   0  0  0  0  0  0  0  0  0  0  0  0
   42.7704    5.8201   10.9982 H   0  0  0  0  0  0  0  0  0  0  0  0
   44.4530    5.6317   10.5113 H   0  0  0  0  0  0  0  0  0  0  0  0
   46.2909    3.6078   13.4900 H   0  0  0  0  0  0  0  0  0  0  0  0
   46.4766    4.8147   12.2228 H   0  0  0  0  0  0  0  0  0  0  0  0
   45.4962    3.1208   10.9515 H   0  0  0  0  0  0  0  0  0  0  0  0
   44.6774    2.4071   12.3390 H   0  0  0  0  0  0  0  0  0  0  0  0
   46.7278    4.2496   11.1456 H   0  0  0  0  0  0  0  0  0  0  0  0
   46.0500    2.7487   11.7010 H   0  0  0  0  0  0  0  0  0  0  0  0
   45.1819    6.3232   10.9137 H   0  0  0  0  0  0  0  0  0  0  0  0
   44.7470    6.2572   12.6426 H   0  0  0  0  0  0  0  0  0  0  0  0
   43.5857    3.3339   10.2152 H   0  0  0  0  0  0  0  0  0  0  0  0
   42.8192    3.6250   14.1677 H   0  0  0  0  0  0  0  0  0  0  0  0
   46.7713    3.4276   14.9193 H   0  0  0  0  0  0  0  0  0  0  0  0
   42.1699    7.8904   10.8229 H   0  0  0  0  0  0  0  0  0  0  0  0
   43.3900    4.9995   13.6444 H   0  0  0  0  0  0  0  0  0  0  0  0
   45.7147    4.3889   10.6215 H   0  0  0  0  0  0  0  0  0  0  0  0
   46.2742    5.0491   13.1006 H   0  0  0  0  0  0  0  0  0  0  0  0
   45.4452    4.0866   14.3174 H   0  0  0  0  0  0  0  0  0  0  0  0
   44.2713    2.7682   12.5981 H   0  0  0  0  0  0  0  0  0  0  0  0
   46.0000    2.7430   12.2717 H   0  0  0  0  0  0  0  0  0  0  0  0
   44.8333    6.6296   11.6761 H   0  0  0  0  0  0  0  0  0  0  0  0
   43.1061    6.6514   12.0023 H   0  0  0  0  0  0  0  0  0  0  0  0
   43.6608    5.3103    9.9544 H   0  0  0  0  0  0  0  0  0  0  0  0
   42.8314    4.3489   11.1729 H   0  0  0  0  0  0  0  0  0  0  0  0
   46.2625    2.9895   12.4186 H   0  0  0  0  0  0  0  0  0  0  0  0
   46.5893    4.4471   11.4932 H   0  0  0  0  0  0  0  0  0  0  0  0
   44.1772    6.2028   13.1049 H   0  0  0  0  0  0  0  0  0  0  0  0
   44.7134    6.2645   11.3995 H   0  0  0  0  0  0  0  0  0  0  0  0
   42.9815    3.3607   13.0212 H   0  0  0  0  0  0  0  0  0  0  0  0
   44.2578    3.5228    9.0509 H   0  0  0  0  0  0  0  0  0  0  0  0
   47.4003    4.4292   15.2129 H   0  0  0  0  0  0  0  0  0  0  0  0
   41.4112    7.1140   11.1008 H   0  0  0  0  0  0  0  0  0  0  0  0
   46.4164    4.6435   11.7001 H   0  0  0  0  0  0  0  0  0  0  0  0
   42.5695    5.6623   11.3409 H   0  0  0  0  0  0  0  0  0  0  0  0
   44.4562    2.7100   12.7303 H   0  0  0  0  0  0  0  0  0  0  0  0
   45.3968    2.5648   11.2519 H   0  0  0  0  0  0  0  0  0  0  0  0
   44.2621    4.4918   10.2328 H   0  0  0  0  0  0  0  0  0  0  0  0
   43.0548    3.3467   10.8124 H   0  0  0  0  0  0  0  0  0  0  0  0
   46.0567    5.9070   13.6586 H   0  0  0  0  0  0  0  0  0  0  0  0
   44.8580    4.7371   14.1917 H   0  0  0  0  0  0  0  0  0  0  0  0
   43.7142    6.6849   13.2158 H   0  0  0  0  0  0  0  0  0  0  0  0
   44.6767    6.5895   11.7432 H   0  0  0  0  0  0  0  0  0  0  0  0
  2  6  1  0
  3  1  1  0
  4  3  1  0
  5  1  1  0
  6  5  1  0
  2  4  1  0
  8  7  1  0
  9  7  1  0
 10  7  1  0
 11  9  1  0
 12  8  1  0
 13 10  2  0
 14 12  2  0
 15 11  2  0
 16  7  1  0
 17 10  1  0
 18 12  1  0
 19 11  1  0
 21 25  1  0
 22 20  1  0
 23 22  1  0
 24 20  1  0
 25 24  1  0
 21 23  1  0
 27 26  1  0
 28 26  1  0
 29 26  1  0
 30 28  1  0
 31 27  1  0
 32 29  2  0
 33 31  2  0
 34 30  2  0
 35 26  1  0
 36 29  1  0
 37 31  1  0
 38 30  1  0
 40 44  1  0
 41 39  1  0
 42 41  1  0
 43 39  1  0
 44 43  1  0
 40 42  1  0
  1 45  1  0
  2 46  1  0
  3 47  1  0
  3 48  1  0
  4 49  1  0
  4 50  1  0
  5 51  1  0
  5 52  1  0
  6 53  1  0
  6 54  1  0
  8 55  1  0
  8 56  1  0
  9 57  1  0
  9 58  1  0
 16 59  1  0
 17 60  1  0
 18 61  1  0
 19 62  1  0
 20 63  1  0
 21 64  1  0
 22 65  1  0
 22 66  1  0
 23 67  1  0
 23 68  1  0
 24 69  1  0
 24 70  1  0
 25 71  1  0
 25 72  1  0
 27 73  1  0
 27 74  1  0
 28 75  1  0
 28 76  1  0
 35 77  1  0
 36 78  1  0
 37 79  1  0
 38 80  1  0
 39 81  1  0
 40 82  1  0
 41 83  1  0
 41 84  1  0
 42 85  1  0
 42 86  1  0
 43 87  1  0
 43 88  1  0
 44 89  1  0
 44 90  1  0
M  END
> <Uni-Dock RESULT> 
ENERGY=   -8.921  LOWER_BOUND=    1.394  UPPER_BOUND=    3.053
INTER + INTRA:          -8.921
INTER:                  -8.921
INTRA:                   0.000
UNBOUND:                 0.000

$$$$

     RDKit          3D

 90 88  0  0  0  0  0  0  0  0999 V2000
   46.0855    4.3521   12.3309 N   0  0  0  0  0  0  0  0  0  0  0  0
   43.6049    5.1442   11.3505 N   0  0  0  0  0  0  0  0  0  0  0  0
   45.0229    3.3243   12.3412 C   0  0  0  0  0  0  0  0  0  0  0  0
   43.5964    3.8646   12.0697 C   0  0  0  0  0  0  0  0  0  0  0  0
   45.5545    5.5957   12.9155 C   0  0  0  0  0  0  0  0  0  0  0  0
   44.3486    6.1561   12.1204 C   0  0  0  0  0  0  0  0  0  0  0  0
   44.0454    5.1410   12.3273 C   0  0  0  0  0  0  0  0  0  0  0  0
   44.7205    6.1465   13.2635 C   0  0  0  0  0  0  0  0  0  0  0  0
   44.1724    3.6965   12.8215 C   0  0  0  0  0  0  0  0  0  0  0  0
   44.5967    5.3400   10.9073 C   0  0  0  0  0  0  0  0  0  0  0  0
   43.4816    2.7218   11.9095 C   0  0  0  0  0  0  0  0  0  0  0  0
   46.1995    5.9448   13.3951 C   0  0  0  0  0  0  0  0  0  0  0  0
   44.0429    5.9922   10.0343 O   0  0  0  0  0  0  0  0  0  0  0  0
   46.7523    5.0757   14.0463 O   0  0  0  0  0  0  0  0  0  0  0  0
   43.1901    2.8788   10.7367 O   0  0  0  0  0  0  0  0  0  0  0  0
   42.6416    5.4911   12.3549 O   0  0  0  0  0  0  0  0  0  0  0  0
   45.7810    4.7457   10.6785 O   0  0  0  0  0  0  0  0  0  0  0  0
   46.9153    6.8423   12.6953 O   0  0  0  0  0  0  0  0  0  0  0  0
   43.2332    1.5457   12.5211 O   0  0  0  0  0  0  0  0  0  0  0  0
   45.6927    3.8199   11.9370 N   0  0  0  0  0  0  0  0  0  0  0  0
   43.4985    5.7171   12.5820 N   0  0  0  0  0  0  0  0  0  0  0  0
   45.9483    5.1472   12.5240 C   0  0  0  0  0  0  0  0  0  0  0  0
   44.8446    6.1745   12.1933 C   0  0  0  0  0  0  0  0  0  0  0  0
   44.3479    3.3622   12.3280 C   0  0  0  0  0  0  0  0  0  0  0  0
   43.2430    4.3884   11.9978 C   0  0  0  0  0  0  0  0  0  0  0  0
   44.6112    5.1594   12.0365 C   0  0  0  0  0  0  0  0  0  0  0  0
   45.2140    5.9126   13.2302 C   0  0  0  0  0  0  0  0  0  0  0  0
   44.4976    3.6466   12.2675 C   0  0  0  0  0  0  0  0  0  0  0  0
   43.2264    5.7856   11.7914 C   0  0  0  0  0  0  0  0  0  0  0  0
   43.6774    2.9749   11.2028 C   0  0  0  0  0  0  0  0  0  0  0  0
   46.5795    5.4203   13.6078 C   0  0  0  0  0  0  0  0  0  0  0  0
   42.9097    6.4805   10.8380 O   0  0  0  0  0  0  0  0  0  0  0  0
   46.8515    4.3108   14.0364 O   0  0  0  0  0  0  0  0  0  0  0  0
   43.4055    3.4211   10.1012 O   0  0  0  0  0  0  0  0  0  0  0  0
   45.4599    5.4021   10.9044 O   0  0  0  0  0  0  0  0  0  0  0  0
   42.3265    5.5046   12.7546 O   0  0  0  0  0  0  0  0  0  0  0  0
   47.5368    6.3563   13.4732 O   0  0  0  0  0  0  0  0  0  0  0  0
   43.2694    1.7448   11.5670 O   0  0  0  0  0  0  0  0  0  0  0  0
   45.3140    5.7681   13.1713 N   0  0  0  0  0  0  0  0  0  0  0  0
   44.0146    3.8702   11.2974 N   0  0  0  0  0  0  0  0  0  0  0  0
   44.4251    6.2191   12.0843 C   0  0  0  0  0  0  0  0  0  0  0  0
   43.3937    5.1489   11.6682 C   0  0  0  0  0  0  0  0  0  0  0  0
   45.9539    4.5045   12.7615 C   0  0  0  0  0  0  0  0  0  0  0  0
   44.9341    3.4207   12.3512 C   0  0  0  0  0  0  0  0  0  0  0  0
   46.2584    4.5614   11.3446 H   0  0  0  0  0  0  0  0  0  0  0  0
   42.6526    5.4663   11.1889 H   0  0  0  0  0  0  0  0  0  0  0  0
   45.2783    2.5829   11.5769 H   0  0  0  0  0  0  0  0  0  0  0  0
   45.0354    2.7994   13.3020 H   0  0  0  0  0  0  0  0  0  0  0  0
   43.0341    3.1262   11.4880 H   0  0  0  0  0  0  0  0  0  0  0  0
   43.0660    3.9919   13.0221 H   0  0  0  0  0  0  0  0  0  0  0  0
   46.3513    6.3472   12.9432 H   0  0  0  0  0  0  0  0  0  0  0  0
   45.2621    5.4056   13.9551 H   0  0  0  0  0  0  0  0  0  0  0  0
   43.6698    6.6710   12.8104 H   0  0  0  0  0  0  0  0  0  0  0  0
   44.7088    6.9039   11.4064 H   0  0  0  0  0  0  0  0  0  0  0  0
   44.2826    6.1016   14.2696 H   0  0  0  0  0  0  0  0  0  0  0  0
   44.5310    7.1734   12.9242 H   0  0  0  0  0  0  0  0  0  0  0  0
   43.7038    3.6123   13.8098 H   0  0  0  0  0  0  0  0  0  0  0  0
   45.2164    3.3756   12.8941 H   0  0  0  0  0  0  0  0  0  0  0  0
   42.4056    5.7837   11.4495 H   0  0  0  0  0  0  0  0  0  0  0  0
   45.9548    4.9261    9.7283 H   0  0  0  0  0  0  0  0  0  0  0  0
   47.8477    6.5948   12.8677 H   0  0  0  0  0  0  0  0  0  0  0  0
   42.7929    1.0048   11.8329 H   0  0  0  0  0  0  0  0  0  0  0  0
   45.6983    3.9261   10.9215 H   0  0  0  0  0  0  0  0  0  0  0  0
   43.4863    5.6169   13.5978 H   0  0  0  0  0  0  0  0  0  0  0  0
   46.0494    5.0468   13.6117 H   0  0  0  0  0  0  0  0  0  0  0  0
   46.9099    5.5167   12.1513 H   0  0  0  0  0  0  0  0  0  0  0  0
   44.8521    6.3949   11.1187 H   0  0  0  0  0  0  0  0  0  0  0  0
   45.0592    7.1171   12.7096 H   0  0  0  0  0  0  0  0  0  0  0  0
   44.3409    3.1388   13.4018 H   0  0  0  0  0  0  0  0  0  0  0  0
   44.1338    2.4204   11.8108 H   0  0  0  0  0  0  0  0  0  0  0  0
   42.2812    4.0186   12.3707 H   0  0  0  0  0  0  0  0  0  0  0  0
   43.1432    4.4872   10.9098 H   0  0  0  0  0  0  0  0  0  0  0  0
   45.2906    6.9825   12.9917 H   0  0  0  0  0  0  0  0  0  0  0  0
   44.5822    5.8407   14.1241 H   0  0  0  0  0  0  0  0  0  0  0  0
   45.4828    3.1690   12.2402 H   0  0  0  0  0  0  0  0  0  0  0  0
   44.0227    3.4474   13.2353 H   0  0  0  0  0  0  0  0  0  0  0  0
   44.8980    5.3164   10.1045 H   0  0  0  0  0  0  0  0  0  0  0  0
   41.5083    5.9586   12.4532 H   0  0  0  0  0  0  0  0  0  0  0  0
   48.3676    5.8996   13.7229 H   0  0  0  0  0  0  0  0  0  0  0  0
   42.7898    1.4006   10.7846 H   0  0  0  0  0  0  0  0  0  0  0  0
   44.7374    5.5777   13.9898 H   0  0  0  0  0  0  0  0  0  0  0  0
   43.2919    3.1673   11.1497 H   0  0  0  0  0  0  0  0  0  0  0  0
   45.0305    6.5107   11.2175 H   0  0  0  0  0  0  0  0  0  0  0  0
   43.8976    7.1203   12.4160 H   0  0  0  0  0  0  0  0  0  0  0  0
   42.6849    4.9840   12.4892 H   0  0  0  0  0  0  0  0  0  0  0  0
   42.8156    5.5207   10.8160 H   0  0  0  0  0  0  0  0  0  0  0  0
   46.5595    4.1335   13.5954 H   0  0  0  0  0  0  0  0  0  0  0  0
   46.6471    4.6998   11.9337 H   0  0  0  0  0  0  0  0  0  0  0  0
   45.4741    2.5377   11.9944 H   0  0  0  0  0  0  0  0  0  0  0  0
   44.3557    3.1095   13.2298 H   0  0  0  0  0  0  0  0  0  0  0  0
  2  6  1  0
  3  1  1  0
  4  3  1  0
  5  1  1  0
  6  5  1  0
  2  4  1  0
  8  7  1  0
  9  7  1  0
 10  7  1  0
 11  9  1  0
 12  8  1  0
 13 10  2  0
 14 12  2  0
 15 11  2  0
 16  7  1  0
 17 10  1  0
 18 12  1  0
 19 11  1  0
 21 25  1  0
 22 20  1  0
 23 22  1  0
 24 20  1  0
 25 24  1  0
 21 23  1  0
 27 26  1  0
 28 26  1  0
 29 26  1  0
 30 28  1  0
 31 27  1  0
 32 29  2  0
 33 31  2  0
 34 30  2  0
 35 26  1  0
 36 29  1  0
 37 31  1  0
 38 30  1  0
 40 44  1  0
 41 39  1  0
 42 41  1  0
 43 39  1  0
 44 43  1  0
 40 42  1  0
  1 45  1  0
  2 46  1  0
  3 47  1  0
  3 48  1  0
  4 49  1  0
  4 50  1  0
  5 51  1  0
  5 52  1  0
  6 53  1  0
  6 54  1  0
  8 55  1  0
  8 56  1  0
  9 57  1  0
  9 58  1  0
 16 59  1  0
 17 60  1  0
 18 61  1  0
 19 62  1  0
 20 63  1  0
 21 64  1  0
 22 65  1  0
 22 66  1  0
 23 67  1  0
 23 68  1  0
 24 69  1  0
 24 70  1  0
 25 71  1  0
 25 72  1  0
 27 73  1  0
 27 74  1  0
 28 75  1  0
 28 76  1  0
 35 77  1  0
 36 78  1  0
 37 79  1  0
 38 80  1  0
 39 81  1  0
 40 82  1  0
 41 83  1  0
 41 84  1  0
 42 85  1  0
 42 86  1  0
 43 87  1  0
 43 88  1  0
 44 89  1  0
 44 90  1  0
M  END
> <Uni-Dock RESULT> 
ENERGY=   -8.787  LOWER_BOUND=    1.466  UPPER_BOUND=    3.675
INTER + INTRA:          -8.787
INTER:                  -8.787
INTRA:                   0.000
UNBOUND:                 0.000

$$$$

     RDKit          3D

 90 88  0  0  0  0  0  0  0  0999 V2000
   45.8240    6.7274   11.5050 N   0  0  0  0  0  0  0  0  0  0  0  0
   44.1830    4.6250   12.2979 N   0  0  0  0  0  0  0  0  0  0  0  0
   45.4002    5.7946   10.4392 C   0  0  0  0  0  0  0  0  0  0  0  0
   44.7402    4.4879   10.9468 C   0  0  0  0  0  0  0  0  0  0  0  0
   46.3219    5.9491   12.6525 C   0  0  0  0  0  0  0  0  0  0  0  0
   45.2400    5.0133   13.2475 C   0  0  0  0  0  0  0  0  0  0  0  0
   45.2445    4.7374   12.2040 C   0  0  0  0  0  0  0  0  0  0  0  0
   46.4359    5.0095   13.1259 C   0  0  0  0  0  0  0  0  0  0  0  0
   45.6172    4.8113   10.7199 C   0  0  0  0  0  0  0  0  0  0  0  0
   44.0987    5.6880   12.5830 C   0  0  0  0  0  0  0  0  0  0  0  0
   44.4465    4.5146    9.8252 C   0  0  0  0  0  0  0  0  0  0  0  0
   47.0121    6.3842   12.9724 C   0  0  0  0  0  0  0  0  0  0  0  0
   43.1594    5.3873   13.3049 O   0  0  0  0  0  0  0  0  0  0  0  0
   47.7218    6.7694   12.0597 O   0  0  0  0  0  0  0  0  0  0  0  0
   43.2618    4.5929   10.1000 O   0  0  0  0  0  0  0  0  0  0  0  0
   44.8563    3.3732   12.4903 O   0  0  0  0  0  0  0  0  0  0  0  0
   44.2046    6.9254   12.0676 O   0  0  0  0  0  0  0  0  0  0  0  0
   46.6629    7.2136   13.9712 O   0  0  0  0  0  0  0  0  0  0  0  0
   44.8354    4.1763    8.5789 O   0  0  0  0  0  0  0  0  0  0  0  0
   45.2780    6.5181   11.0043 N   0  0  0  0  0  0  0  0  0  0  0  0
   45.3641    4.0969   12.7248 N   0  0  0  0  0  0  0  0  0  0  0  0
   46.0363    6.4778   12.2672 C   0  0  0  0  0  0  0  0  0  0  0  0
   45.4683    5.4590   13.2783 C   0  0  0  0  0  0  0  0  0  0  0  0
   45.1765    5.1565   10.4503 C   0  0  0  0  0  0  0  0  0  0  0  0
   44.6084    4.1366   11.4602 C   0  0  0  0  0  0  0  0  0  0  0  0
   45.1519    5.3627   12.2782 C   0  0  0  0  0  0  0  0  0  0  0  0
   46.5399    5.5048   12.9179 C   0  0  0  0  0  0  0  0  0  0  0  0
   45.1934    5.2960   10.7457 C   0  0  0  0  0  0  0  0  0  0  0  0
   44.5381    4.0809   12.8698 C   0  0  0  0  0  0  0  0  0  0  0  0
   43.8656    4.9017   10.1635 C   0  0  0  0  0  0  0  0  0  0  0  0
   47.2851    6.7169   12.4436 C   0  0  0  0  0  0  0  0  0  0  0  0
   43.6022    4.0267   13.6530 O   0  0  0  0  0  0  0  0  0  0  0  0
   47.6730    6.9236   11.3054 O   0  0  0  0  0  0  0  0  0  0  0  0
   42.7811    4.9548   10.7182 O   0  0  0  0  0  0  0  0  0  0  0  0
   44.3764    6.5017   12.6807 O   0  0  0  0  0  0  0  0  0  0  0  0
   45.1343    2.9490   12.4460 O   0  0  0  0  0  0  0  0  0  0  0  0
   47.5496    7.5957   13.4277 O   0  0  0  0  0  0  0  0  0  0  0  0
   43.9652    4.4935    8.8846 O   0  0  0  0  0  0  0  0  0  0  0  0
   46.5027    5.6286   12.7851 N   0  0  0  0  0  0  0  0  0  0  0  0
   44.1452    5.1247   11.0559 N   0  0  0  0  0  0  0  0  0  0  0  0
   45.2361    5.0923   13.3173 C   0  0  0  0  0  0  0  0  0  0  0  0
   44.4160    4.3254   12.2583 C   0  0  0  0  0  0  0  0  0  0  0  0
   46.2026    6.4569   11.6028 C   0  0  0  0  0  0  0  0  0  0  0  0
   45.3904    5.7002   10.5301 C   0  0  0  0  0  0  0  0  0  0  0  0
   44.9679    7.1834   11.8301 H   0  0  0  0  0  0  0  0  0  0  0  0
   43.7574    3.7494   12.5962 H   0  0  0  0  0  0  0  0  0  0  0  0
   44.6916    6.3304    9.7991 H   0  0  0  0  0  0  0  0  0  0  0  0
   46.2620    5.5457    9.8114 H   0  0  0  0  0  0  0  0  0  0  0  0
   43.9439    4.1921   10.2552 H   0  0  0  0  0  0  0  0  0  0  0  0
   45.4817    3.6788   10.9449 H   0  0  0  0  0  0  0  0  0  0  0  0
   46.6714    6.6390   13.4286 H   0  0  0  0  0  0  0  0  0  0  0  0
   47.1921    5.3619   12.3355 H   0  0  0  0  0  0  0  0  0  0  0  0
   45.7227    4.1166   13.6535 H   0  0  0  0  0  0  0  0  0  0  0  0
   44.7504    5.5215   14.0847 H   0  0  0  0  0  0  0  0  0  0  0  0
   47.2416    4.2840   12.9508 H   0  0  0  0  0  0  0  0  0  0  0  0
   46.1507    4.8592   14.1754 H   0  0  0  0  0  0  0  0  0  0  0  0
   46.3927    4.0653   10.5065 H   0  0  0  0  0  0  0  0  0  0  0  0
   45.9882    5.8014   10.4365 H   0  0  0  0  0  0  0  0  0  0  0  0
   43.9541    3.4104   12.8720 H   0  0  0  0  0  0  0  0  0  0  0  0
   43.3803    7.3731   12.3600 H   0  0  0  0  0  0  0  0  0  0  0  0
   47.0993    8.0613   13.7450 H   0  0  0  0  0  0  0  0  0  0  0  0
   43.9958    4.0144    8.1004 H   0  0  0  0  0  0  0  0  0  0  0  0
   44.3316    6.8325   11.2233 H   0  0  0  0  0  0  0  0  0  0  0  0
   46.3094    3.7758   12.5115 H   0  0  0  0  0  0  0  0  0  0  0  0
   47.0854    6.2415   12.0503 H   0  0  0  0  0  0  0  0  0  0  0  0
   46.0250    7.4773   12.7156 H   0  0  0  0  0  0  0  0  0  0  0  0
   44.4773    5.7851   13.6174 H   0  0  0  0  0  0  0  0  0  0  0  0
   46.1111    5.4307   14.1654 H   0  0  0  0  0  0  0  0  0  0  0  0
   46.1666    4.8314   10.1083 H   0  0  0  0  0  0  0  0  0  0  0  0
   44.5330    5.1856    9.5641 H   0  0  0  0  0  0  0  0  0  0  0  0
   44.6199    3.1368   11.0115 H   0  0  0  0  0  0  0  0  0  0  0  0
   43.5594    4.3743   11.6756 H   0  0  0  0  0  0  0  0  0  0  0  0
   46.4385    5.5718   14.0100 H   0  0  0  0  0  0  0  0  0  0  0  0
   47.1754    4.6327   12.7204 H   0  0  0  0  0  0  0  0  0  0  0  0
   45.4369    6.2732   10.3154 H   0  0  0  0  0  0  0  0  0  0  0  0
   45.9369    4.5590   10.4201 H   0  0  0  0  0  0  0  0  0  0  0  0
   43.4351    6.2257   12.6617 H   0  0  0  0  0  0  0  0  0  0  0  0
   44.6316    2.2342   12.8964 H   0  0  0  0  0  0  0  0  0  0  0  0
   48.0072    8.3387   12.9809 H   0  0  0  0  0  0  0  0  0  0  0  0
   43.0425    4.3092    8.6103 H   0  0  0  0  0  0  0  0  0  0  0  0
   47.0737    4.8412   12.4808 H   0  0  0  0  0  0  0  0  0  0  0  0
   43.7107    4.5388   10.3445 H   0  0  0  0  0  0  0  0  0  0  0  0
   44.6381    5.9146   13.7288 H   0  0  0  0  0  0  0  0  0  0  0  0
   45.4648    4.4219   14.1531 H   0  0  0  0  0  0  0  0  0  0  0  0
   44.9497    3.4101   11.9736 H   0  0  0  0  0  0  0  0  0  0  0  0
   43.4625    4.0161   12.6986 H   0  0  0  0  0  0  0  0  0  0  0  0
   47.1476    6.7979   11.1665 H   0  0  0  0  0  0  0  0  0  0  0  0
   45.6603    7.3573   11.9178 H   0  0  0  0  0  0  0  0  0  0  0  0
   45.1436    6.3889    9.7157 H   0  0  0  0  0  0  0  0  0  0  0  0
   46.0063    4.9013   10.0990 H   0  0  0  0  0  0  0  0  0  0  0  0
  2  6  1  0
  3  1  1  0
  4  3  1  0
  5  1  1  0
  6  5  1  0
  2  4  1  0
  8  7  1  0
  9  7  1  0
 10  7  1  0
 11  9  1  0
 12  8  1  0
 13 10  2  0
 14 12  2  0
 15 11  2  0
 16  7  1  0
 17 10  1  0
 18 12  1  0
 19 11  1  0
 21 25  1  0
 22 20  1  0
 23 22  1  0
 24 20  1  0
 25 24  1  0
 21 23  1  0
 27 26  1  0
 28 26  1  0
 29 26  1  0
 30 28  1  0
 31 27  1  0
 32 29  2  0
 33 31  2  0
 34 30  2  0
 35 26  1  0
 36 29  1  0
 37 31  1  0
 38 30  1  0
 40 44  1  0
 41 39  1  0
 42 41  1  0
 43 39  1  0
 44 43  1  0
 40 42  1  0
  1 45  1  0
  2 46  1  0
  3 47  1  0
  3 48  1  0
  4 49  1  0
  4 50  1  0
  5 51  1  0
  5 52  1  0
  6 53  1  0
  6 54  1  0
  8 55  1  0
  8 56  1  0
  9 57  1  0
  9 58  1  0
 16 59  1  0
 17 60  1  0
 18 61  1  0
 19 62  1  0
 20 63  1  0
 21 64  1  0
 22 65  1  0
 22 66  1  0
 23 67  1  0
 23 68  1  0
 24 69  1  0
 24 70  1  0
 25 71  1  0
 25 72  1  0
 27 73  1  0
 27 74  1  0
 28 75  1  0
 28 76  1  0
 35 77  1  0
 36 78  1  0
 37 79  1  0
 38 80  1  0
 39 81  1  0
 40 82  1  0
 41 83  1  0
 41 84  1  0
 42 85  1  0
 42 86  1  0
 43 87  1  0
 43 88  1  0
 44 89  1  0
 44 90  1  0
M  END
> <Uni-Dock RESULT> 
ENERGY=   -8.773  LOWER_BOUND=    1.412  UPPER_BOUND=    3.412
INTER + INTRA:          -8.773
INTER:                  -8.773
INTRA:                   0.000
UNBOUND:                 0.000

$$$$

     RDKit          3D

 90 88  0  0  0  0  0  0  0  0999 V2000
   45.9206    6.4696   11.7407 N   0  0  0  0  0  0  0  0  0  0  0  0
   44.0213    4.4477   11.9568 N   0  0  0  0  0  0  0  0  0  0  0  0
   46.2339    5.3807   12.6904 C   0  0  0  0  0  0  0  0  0  0  0  0
   45.0477    4.4352   13.0060 C   0  0  0  0  0  0  0  0  0  0  0  0
   44.5435    6.9339   11.9820 C   0  0  0  0  0  0  0  0  0  0  0  0
   43.4954    5.8117   11.7753 C   0  0  0  0  0  0  0  0  0  0  0  0
   44.1815    5.3685   12.4809 C   0  0  0  0  0  0  0  0  0  0  0  0
   43.6126    6.7896   12.4645 C   0  0  0  0  0  0  0  0  0  0  0  0
   45.4359    5.2446   13.3517 C   0  0  0  0  0  0  0  0  0  0  0  0
   44.4089    4.9100   11.0324 C   0  0  0  0  0  0  0  0  0  0  0  0
   45.9687    3.8396   13.3828 C   0  0  0  0  0  0  0  0  0  0  0  0
   44.5497    7.8047   11.8840 C   0  0  0  0  0  0  0  0  0  0  0  0
   43.6311    4.2145   10.3959 O   0  0  0  0  0  0  0  0  0  0  0  0
   45.5277    8.2793   12.4347 O   0  0  0  0  0  0  0  0  0  0  0  0
   45.7708    2.9509   12.5726 O   0  0  0  0  0  0  0  0  0  0  0  0
   43.1461    4.5600   13.0876 O   0  0  0  0  0  0  0  0  0  0  0  0
   45.5515    5.3524   10.4783 O   0  0  0  0  0  0  0  0  0  0  0  0
   44.2169    8.1711   10.6340 O   0  0  0  0  0  0  0  0  0  0  0  0
   46.7897    3.6331   14.4327 O   0  0  0  0  0  0  0  0  0  0  0  0
   46.1955    5.7582   11.8455 N   0  0  0  0  0  0  0  0  0  0  0  0
   43.3870    5.3689   12.7348 N   0  0  0  0  0  0  0  0  0  0  0  0
   45.1598    6.7886   11.6526 C   0  0  0  0  0  0  0  0  0  0  0  0
   43.7345    6.2017   11.5694 C   0  0  0  0  0  0  0  0  0  0  0  0
   45.8486    4.9276   13.0122 C   0  0  0  0  0  0  0  0  0  0  0  0
   44.4236    4.3398   12.9303 C   0  0  0  0  0  0  0  0  0  0  0  0
   44.4847    5.5741   11.9605 C   0  0  0  0  0  0  0  0  0  0  0  0
   44.0724    7.0185   12.2758 C   0  0  0  0  0  0  0  0  0  0  0  0
   45.6905    5.0941   12.7792 C   0  0  0  0  0  0  0  0  0  0  0  0
   43.2456    4.7050   12.2419 C   0  0  0  0  0  0  0  0  0  0  0  0
   45.9100    3.6140   12.6429 C   0  0  0  0  0  0  0  0  0  0  0  0
   45.1779    8.0077   12.0544 C   0  0  0  0  0  0  0  0  0  0  0  0
   42.5620    4.1347   11.4055 O   0  0  0  0  0  0  0  0  0  0  0  0
   46.2292    8.0622   12.6711 O   0  0  0  0  0  0  0  0  0  0  0  0
   45.4719    2.8893   11.7657 O   0  0  0  0  0  0  0  0  0  0  0  0
   44.8094    5.5170   10.5633 O   0  0  0  0  0  0  0  0  0  0  0  0
   42.9393    4.6058   13.5506 O   0  0  0  0  0  0  0  0  0  0  0  0
   44.8965    8.9124   11.0988 O   0  0  0  0  0  0  0  0  0  0  0  0
   46.7116    3.1218   13.6059 O   0  0  0  0  0  0  0  0  0  0  0  0
   44.2518    6.9963   12.2351 N   0  0  0  0  0  0  0  0  0  0  0  0
   45.3205    4.2289   12.1971 N   0  0  0  0  0  0  0  0  0  0  0  0
   43.4848    5.8636   11.6840 C   0  0  0  0  0  0  0  0  0  0  0  0
   43.8826    4.5086   12.3071 C   0  0  0  0  0  0  0  0  0  0  0  0
   45.6899    6.7102   12.0797 C   0  0  0  0  0  0  0  0  0  0  0  0
   46.1049    5.3619   12.7064 C   0  0  0  0  0  0  0  0  0  0  0  0
   45.9081    6.0343   10.8150 H   0  0  0  0  0  0  0  0  0  0  0  0
   43.2607    3.8151   12.1975 H   0  0  0  0  0  0  0  0  0  0  0  0
   47.0541    4.7973   12.2591 H   0  0  0  0  0  0  0  0  0  0  0  0
   46.6132    5.8109   13.6230 H   0  0  0  0  0  0  0  0  0  0  0  0
   45.4227    3.4139   13.1334 H   0  0  0  0  0  0  0  0  0  0  0  0
   44.5899    4.7285   13.9594 H   0  0  0  0  0  0  0  0  0  0  0  0
   44.3221    7.7660   11.3045 H   0  0  0  0  0  0  0  0  0  0  0  0
   44.4731    7.3290   13.0025 H   0  0  0  0  0  0  0  0  0  0  0  0
   42.6508    5.9778   12.4542 H   0  0  0  0  0  0  0  0  0  0  0  0
   43.1040    5.8730   10.7546 H   0  0  0  0  0  0  0  0  0  0  0  0
   43.3453    7.1173   13.4780 H   0  0  0  0  0  0  0  0  0  0  0  0
   42.6680    6.8179   11.9056 H   0  0  0  0  0  0  0  0  0  0  0  0
   45.1871    5.5258   14.3824 H   0  0  0  0  0  0  0  0  0  0  0  0
   46.2503    5.8833   12.9952 H   0  0  0  0  0  0  0  0  0  0  0  0
   42.8424    3.9289   12.4018 H   0  0  0  0  0  0  0  0  0  0  0  0
   45.5612    4.9303    9.5911 H   0  0  0  0  0  0  0  0  0  0  0  0
   44.9030    8.8242   10.3830 H   0  0  0  0  0  0  0  0  0  0  0  0
   47.0691    2.6986   14.3397 H   0  0  0  0  0  0  0  0  0  0  0  0
   46.1848    5.1532   11.0231 H   0  0  0  0  0  0  0  0  0  0  0  0
   43.3891    5.9719   13.5585 H   0  0  0  0  0  0  0  0  0  0  0  0
   45.2162    7.5143   12.4734 H   0  0  0  0  0  0  0  0  0  0  0  0
   45.3791    7.3385   10.7308 H   0  0  0  0  0  0  0  0  0  0  0  0
   43.6324    5.6019   10.6567 H   0  0  0  0  0  0  0  0  0  0  0  0
   43.0090    7.0194   11.4917 H   0  0  0  0  0  0  0  0  0  0  0  0
   45.9536    5.5262   13.9251 H   0  0  0  0  0  0  0  0  0  0  0  0
   46.5739    4.1100   13.0886 H   0  0  0  0  0  0  0  0  0  0  0  0
   44.2045    3.7899   13.8526 H   0  0  0  0  0  0  0  0  0  0  0  0
   44.3694    3.6144   12.1093 H   0  0  0  0  0  0  0  0  0  0  0  0
   43.2233    7.3075   11.6411 H   0  0  0  0  0  0  0  0  0  0  0  0
   43.7347    7.1331   13.3133 H   0  0  0  0  0  0  0  0  0  0  0  0
   46.6145    5.5722   12.4367 H   0  0  0  0  0  0  0  0  0  0  0  0
   45.5375    5.3162   13.8418 H   0  0  0  0  0  0  0  0  0  0  0  0
   44.6474    4.5943   10.2714 H   0  0  0  0  0  0  0  0  0  0  0  0
   42.1477    4.0229   13.5644 H   0  0  0  0  0  0  0  0  0  0  0  0
   45.7009    9.4698   11.0399 H   0  0  0  0  0  0  0  0  0  0  0  0
   46.8108    2.1721   13.3849 H   0  0  0  0  0  0  0  0  0  0  0  0
   44.0492    7.0572   13.2320 H   0  0  0  0  0  0  0  0  0  0  0  0
   45.5486    3.3884   12.7258 H   0  0  0  0  0  0  0  0  0  0  0  0
   43.6204    5.8282   10.5962 H   0  0  0  0  0  0  0  0  0  0  0  0
   42.4190    6.0444   11.8616 H   0  0  0  0  0  0  0  0  0  0  0  0
   43.5888    4.4907   13.3639 H   0  0  0  0  0  0  0  0  0  0  0  0
   43.3281    3.7078   11.8070 H   0  0  0  0  0  0  0  0  0  0  0  0
   46.2595    7.5182   12.5513 H   0  0  0  0  0  0  0  0  0  0  0  0
   45.9503    6.7243   11.0139 H   0  0  0  0  0  0  0  0  0  0  0  0
   47.1638    5.1800   12.4962 H   0  0  0  0  0  0  0  0  0  0  0  0
   45.9992    5.4160   13.7970 H   0  0  0  0  0  0  0  0  0  0  0  0
  2  6  1  0
  3  1  1  0
  4  3  1  0
  5  1  1  0
  6  5  1  0
  2  4  1  0
  8  7  1  0
  9  7  1  0
 10  7  1  0
 11  9  1  0
 12  8  1  0
 13 10  2  0
 14 12  2  0
 15 11  2  0
 16  7  1  0
 17 10  1  0
 18 12  1  0
 19 11  1  0
 21 25  1  0
 22 20  1  0
 23 22  1  0
 24 20  1  0
 25 24  1  0
 21 23  1  0
 27 26  1  0
 28 26  1  0
 29 26  1  0
 30 28  1  0
 31 27  1  0
 32 29  2  0
 33 31  2  0
 34 30  2  0
 35 26  1  0
 36 29  1  0
 37 31  1  0
 38 30  1  0
 40 44  1  0
 41 39  1  0
 42 41  1  0
 43 39  1  0
 44 43  1  0
 40 42  1  0
  1 45  1  0
  2 46  1  0
  3 47  1  0
  3 48  1  0
  4 49  1  0
  4 50  1  0
  5 51  1  0
  5 52  1  0
  6 53  1  0
  6 54  1  0
  8 55  1  0
  8 56  1  0
  9 57  1  0
  9 58  1  0
 16 59  1  0
 17 60  1  0
 18 61  1  0
 19 62  1  0
 20 63  1  0
 21 64  1  0
 22 65  1  0
 22 66  1  0
 23 67  1  0
 23 68  1  0
 24 69  1  0
 24 70  1  0
 25 71  1  0
 25 72  1  0
 27 73  1  0
 27 74  1  0
 28 75  1  0
 28 76  1  0
 35 77  1  0
 36 78  1  0
 37 79  1  0
 38 80  1  0
 39 81  1  0
 40 82  1  0
 41 83  1  0
 41 84  1  0
 42 85  1  0
 42 86  1  0
 43 87  1  0
 43 88  1  0
 44 89  1  0
 44 90  1  0
M  END
> <Uni-Dock RESULT> 
ENERGY=   -8.551  LOWER_BOUND=    1.303  UPPER_BOUND=    3.231
INTER + INTRA:          -8.551
INTER:                  -8.551
INTRA:                   0.000
UNBOUND:                 0.000

$$$$

     RDKit          3D

 90 88  0  0  0  0  0  0  0  0999 V2000
   44.2780    3.0368   10.6149 N   0  0  0  0  0  0  0  0  0  0  0  0
   44.5065    5.6843   11.4399 N   0  0  0  0  0  0  0  0  0  0  0  0
   44.9863    3.2617   11.8930 C   0  0  0  0  0  0  0  0  0  0  0  0
   45.3527    4.7397   12.1791 C   0  0  0  0  0  0  0  0  0  0  0  0
   44.8161    3.9595    9.6004 C   0  0  0  0  0  0  0  0  0  0  0  0
   44.6237    5.4465    9.9909 C   0  0  0  0  0  0  0  0  0  0  0  0
   45.1282    5.0380   10.8533 C   0  0  0  0  0  0  0  0  0  0  0  0
   45.4221    4.7962    9.3705 C   0  0  0  0  0  0  0  0  0  0  0  0
   45.7452    3.9681   11.7598 C   0  0  0  0  0  0  0  0  0  0  0  0
   43.6100    5.1797   11.0399 C   0  0  0  0  0  0  0  0  0  0  0  0
   45.4741    4.2316   13.2145 C   0  0  0  0  0  0  0  0  0  0  0  0
   44.8505    3.5140    8.8466 C   0  0  0  0  0  0  0  0  0  0  0  0
   43.0173    6.2464   11.1095 O   0  0  0  0  0  0  0  0  0  0  0  0
   45.2924    2.3954    9.0431 O   0  0  0  0  0  0  0  0  0  0  0  0
   44.5850    4.9134   13.6938 O   0  0  0  0  0  0  0  0  0  0  0  0
   45.7731    6.2965   11.1602 O   0  0  0  0  0  0  0  0  0  0  0  0
   42.9431    4.0140   11.1060 O   0  0  0  0  0  0  0  0  0  0  0  0
   43.7444    3.6976    8.1047 O   0  0  0  0  0  0  0  0  0  0  0  0
   46.3266    3.5622   14.0171 O   0  0  0  0  0  0  0  0  0  0  0  0
   44.2266    3.1596   11.3731 N   0  0  0  0  0  0  0  0  0  0  0  0
   45.5102    5.6997   10.5186 N   0  0  0  0  0  0  0  0  0  0  0  0
   44.3690    3.5299    9.9539 C   0  0  0  0  0  0  0  0  0  0  0  0
   44.4413    5.0561    9.7340 C   0  0  0  0  0  0  0  0  0  0  0  0
   45.2969    3.8015   12.1565 C   0  0  0  0  0  0  0  0  0  0  0  0
   45.3703    5.3278   11.9378 C   0  0  0  0  0  0  0  0  0  0  0  0
   44.6008    4.7094   10.7158 C   0  0  0  0  0  0  0  0  0  0  0  0
   45.1949    4.2986    9.3616 C   0  0  0  0  0  0  0  0  0  0  0  0
   45.1218    3.8674   11.8882 C   0  0  0  0  0  0  0  0  0  0  0  0
   44.9543    6.1958   10.9042 C   0  0  0  0  0  0  0  0  0  0  0  0
   44.7295    4.4491   13.2168 C   0  0  0  0  0  0  0  0  0  0  0  0
   44.9404    2.8606    9.0193 C   0  0  0  0  0  0  0  0  0  0  0  0
   44.1698    7.1316   10.8711 O   0  0  0  0  0  0  0  0  0  0  0  0
   45.3712    1.8905    9.6209 O   0  0  0  0  0  0  0  0  0  0  0  0
   43.8405    5.2570   13.4256 O   0  0  0  0  0  0  0  0  0  0  0  0
   43.1763    4.5583   10.6220 O   0  0  0  0  0  0  0  0  0  0  0  0
   46.2660    6.4177   11.1201 O   0  0  0  0  0  0  0  0  0  0  0  0
   44.1934    2.7033    7.9112 O   0  0  0  0  0  0  0  0  0  0  0  0
   45.4576    3.9491   14.2327 O   0  0  0  0  0  0  0  0  0  0  0  0
   45.1214    4.1593    9.4594 N   0  0  0  0  0  0  0  0  0  0  0  0
   44.4875    4.6686   12.3126 N   0  0  0  0  0  0  0  0  0  0  0  0
   44.5445    5.4353    9.9222 C   0  0  0  0  0  0  0  0  0  0  0  0
   44.8803    5.7473   11.3960 C   0  0  0  0  0  0  0  0  0  0  0  0
   44.6834    3.0870   10.3717 C   0  0  0  0  0  0  0  0  0  0  0  0
   45.0210    3.3807   11.8492 C   0  0  0  0  0  0  0  0  0  0  0  0
   43.3131    3.3354   10.7770 H   0  0  0  0  0  0  0  0  0  0  0  0
   44.7748    6.6429   11.6539 H   0  0  0  0  0  0  0  0  0  0  0  0
   44.3396    2.8897   12.6945 H   0  0  0  0  0  0  0  0  0  0  0  0
   45.8951    2.6515   11.9162 H   0  0  0  0  0  0  0  0  0  0  0  0
   45.2598    4.9345   13.2530 H   0  0  0  0  0  0  0  0  0  0  0  0
   46.4029    4.9144   11.9126 H   0  0  0  0  0  0  0  0  0  0  0  0
   44.3188    3.7688    8.6430 H   0  0  0  0  0  0  0  0  0  0  0  0
   45.8814    3.7459    9.4520 H   0  0  0  0  0  0  0  0  0  0  0  0
   45.4531    6.0364    9.5833 H   0  0  0  0  0  0  0  0  0  0  0  0
   43.7051    5.8209    9.5274 H   0  0  0  0  0  0  0  0  0  0  0  0
   46.5038    4.7861    9.1812 H   0  0  0  0  0  0  0  0  0  0  0  0
   45.0421    5.6286    8.7637 H   0  0  0  0  0  0  0  0  0  0  0  0
   46.8336    3.9648   11.6225 H   0  0  0  0  0  0  0  0  0  0  0  0
   45.3559    2.9685   11.5420 H   0  0  0  0  0  0  0  0  0  0  0  0
   45.0617    6.9280   11.3969 H   0  0  0  0  0  0  0  0  0  0  0  0
   42.0138    4.2842   11.2762 H   0  0  0  0  0  0  0  0  0  0  0  0
   43.4818    2.7929    7.8347 H   0  0  0  0  0  0  0  0  0  0  0  0
   46.0482    3.8095   14.9234 H   0  0  0  0  0  0  0  0  0  0  0  0
   43.3365    3.5366   11.7018 H   0  0  0  0  0  0  0  0  0  0  0  0
   46.4028    5.3310   10.1878 H   0  0  0  0  0  0  0  0  0  0  0  0
   45.2680    3.0520    9.5453 H   0  0  0  0  0  0  0  0  0  0  0  0
   43.5166    3.1242    9.3980 H   0  0  0  0  0  0  0  0  0  0  0  0
   43.4795    5.5149    9.9942 H   0  0  0  0  0  0  0  0  0  0  0  0
   44.6114    5.2622    8.6712 H   0  0  0  0  0  0  0  0  0  0  0  0
   46.2583    3.3408   11.8989 H   0  0  0  0  0  0  0  0  0  0  0  0
   45.1256    3.5956   13.2188 H   0  0  0  0  0  0  0  0  0  0  0  0
   46.2231    5.7334   12.4939 H   0  0  0  0  0  0  0  0  0  0  0  0
   44.4708    5.8038   12.3472 H   0  0  0  0  0  0  0  0  0  0  0  0
   44.7640    4.9207    8.5649 H   0  0  0  0  0  0  0  0  0  0  0  0
   46.2798    4.4564    9.3230 H   0  0  0  0  0  0  0  0  0  0  0  0
   44.7035    2.8556   11.8628 H   0  0  0  0  0  0  0  0  0  0  0  0
   46.2161    3.8103   11.8546 H   0  0  0  0  0  0  0  0  0  0  0  0
   42.7808    5.1908   11.2594 H   0  0  0  0  0  0  0  0  0  0  0  0
   46.3260    7.3930   11.2280 H   0  0  0  0  0  0  0  0  0  0  0  0
   44.0834    1.7332    7.8214 H   0  0  0  0  0  0  0  0  0  0  0  0
   45.0829    4.3672   15.0360 H   0  0  0  0  0  0  0  0  0  0  0  0
   46.1360    4.2320    9.5236 H   0  0  0  0  0  0  0  0  0  0  0  0
   44.8376    4.8683   13.2484 H   0  0  0  0  0  0  0  0  0  0  0  0
   43.4566    5.4132    9.7840 H   0  0  0  0  0  0  0  0  0  0  0  0
   44.9252    6.2417    9.2858 H   0  0  0  0  0  0  0  0  0  0  0  0
   45.9568    5.9342   11.4951 H   0  0  0  0  0  0  0  0  0  0  0  0
   44.3669    6.6675   11.6934 H   0  0  0  0  0  0  0  0  0  0  0  0
   45.1677    2.1521   10.0695 H   0  0  0  0  0  0  0  0  0  0  0  0
   43.6033    2.9312   10.2577 H   0  0  0  0  0  0  0  0  0  0  0  0
   44.6094    2.5830   12.4759 H   0  0  0  0  0  0  0  0  0  0  0  0
   46.1092    3.3673   11.9867 H   0  0  0  0  0  0  0  0  0  0  0  0
  2  6  1  0
  3  1  1  0
  4  3  1  0
  5  1  1  0
  6  5  1  0
  2  4  1  0
  8  7  1  0
  9  7  1  0
 10  7  1  0
 11  9  1  0
 12  8  1  0
 13 10  2  0
 14 12  2  0
 15 11  2  0
 16  7  1  0
 17 10  1  0
 18 12  1  0
 19 11  1  0
 21 25  1  0
 22 20  1  0
 23 22  1  0
 24 20  1  0
 25 24  1  0
 21 23  1  0
 27 26  1  0
 28 26  1  0
 29 26  1  0
 30 28  1  0
 31 27  1  0
 32 29  2  0
 33 31  2  0
 34 30  2  0
 35 26  1  0
 36 29  1  0
 37 31  1  0
 38 30  1  0
 40 44  1  0
 41 39  1  0
 42 41  1  0
 43 39  1  0
 44 43  1  0
 40 42  1  0
  1 45  1  0
  2 46  1  0
  3 47  1  0
  3 48  1  0
  4 49  1  0
  4 50  1  0
  5 51  1  0
  5 52  1  0
  6 53  1  0
  6 54  1  0
  8 55  1  0
  8 56  1  0
  9 57  1  0
  9 58  1  0
 16 59  1  0
 17 60  1  0
 18 61  1  0
 19 62  1  0
 20 63  1  0
 21 64  1  0
 22 65  1  0
 22 66  1  0
 23 67  1  0
 23 68  1  0
 24 69  1  0
 24 70  1  0
 25 71  1  0
 25 72  1  0
 27 73  1  0
 27 74  1  0
 28 75  1  0
 28 76  1  0
 35 77  1  0
 36 78  1  0
 37 79  1  0
 38 80  1  0
 39 81  1  0
 40 82  1  0
 41 83  1  0
 41 84  1  0
 42 85  1  0
 42 86  1  0
 43 87  1  0
 43 88  1  0
 44 89  1  0
 44 90  1  0
M  END
> <Uni-Dock RESULT> 
ENERGY=   -8.174  LOWER_BOUND=    1.281  UPPER_BOUND=    2.615
INTER + INTRA:          -8.174
INTER:                  -8.174
INTRA:                   0.000
UNBOUND:                 0.000

$$$$

     RDKit          3D

 90 88  0  0  0  0  0  0  0  0999 V2000
   43.9408    5.8728   10.8634 N   0  0  0  0  0  0  0  0  0  0  0  0
   44.2732    3.7315   12.6087 N   0  0  0  0  0  0  0  0  0  0  0  0
   44.2519    4.5681   10.2415 C   0  0  0  0  0  0  0  0  0  0  0  0
   44.7156    3.4719   11.2334 C   0  0  0  0  0  0  0  0  0  0  0  0
   44.8839    6.1132   11.9693 C   0  0  0  0  0  0  0  0  0  0  0  0
   44.7903    5.0302   13.0733 C   0  0  0  0  0  0  0  0  0  0  0  0
   44.9476    4.4453   12.1799 C   0  0  0  0  0  0  0  0  0  0  0  0
   45.6410    5.7410   12.6084 C   0  0  0  0  0  0  0  0  0  0  0  0
   45.1058    4.1578   10.6834 C   0  0  0  0  0  0  0  0  0  0  0  0
   43.4793    4.4982   12.6288 C   0  0  0  0  0  0  0  0  0  0  0  0
   44.4454    2.8693   10.2800 C   0  0  0  0  0  0  0  0  0  0  0  0
   45.0832    6.9663   11.9504 C   0  0  0  0  0  0  0  0  0  0  0  0
   43.0475    3.9792   13.6476 O   0  0  0  0  0  0  0  0  0  0  0  0
   45.2850    7.3220   10.8024 O   0  0  0  0  0  0  0  0  0  0  0  0
   43.5564    2.2745   10.8640 O   0  0  0  0  0  0  0  0  0  0  0  0
   45.6370    3.3978   12.9019 O   0  0  0  0  0  0  0  0  0  0  0  0
   42.6689    5.1929   11.8110 O   0  0  0  0  0  0  0  0  0  0  0  0
   44.2910    7.6845   12.7654 O   0  0  0  0  0  0  0  0  0  0  0  0
   44.9127    2.4087    9.1017 O   0  0  0  0  0  0  0  0  0  0  0  0
   43.6794    5.1922   10.6162 N   0  0  0  0  0  0  0  0  0  0  0  0
   45.5010    4.2949   12.7856 N   0  0  0  0  0  0  0  0  0  0  0  0
   44.2956    6.1357   11.5658 C   0  0  0  0  0  0  0  0  0  0  0  0
   44.6421    5.4849   12.9219 C   0  0  0  0  0  0  0  0  0  0  0  0
   44.5397    4.0039   10.4785 C   0  0  0  0  0  0  0  0  0  0  0  0
   44.8870    3.3519   11.8339 C   0  0  0  0  0  0  0  0  0  0  0  0
   44.4465    4.8328   12.1182 C   0  0  0  0  0  0  0  0  0  0  0  0
   45.3604    6.0575   12.2613 C   0  0  0  0  0  0  0  0  0  0  0  0
   44.4652    4.2220   10.7106 C   0  0  0  0  0  0  0  0  0  0  0  0
   44.9288    3.8149   13.1676 C   0  0  0  0  0  0  0  0  0  0  0  0
   43.7729    2.8893   10.6662 C   0  0  0  0  0  0  0  0  0  0  0  0
   45.0250    7.1577   11.2986 C   0  0  0  0  0  0  0  0  0  0  0  0
   44.3290    3.4864   14.1799 O   0  0  0  0  0  0  0  0  0  0  0  0
   45.1140    7.1024   10.0830 O   0  0  0  0  0  0  0  0  0  0  0  0
   42.9835    2.4496   11.4848 O   0  0  0  0  0  0  0  0  0  0  0  0
   43.1111    5.2562   12.4318 O   0  0  0  0  0  0  0  0  0  0  0  0
   46.1306    3.2741   12.8856 O   0  0  0  0  0  0  0  0  0  0  0  0
   44.6351    8.2934   11.9060 O   0  0  0  0  0  0  0  0  0  0  0  0
   44.0818    2.1855    9.5610 O   0  0  0  0  0  0  0  0  0  0  0  0
   45.2422    6.0653   12.1187 N   0  0  0  0  0  0  0  0  0  0  0  0
   43.8496    3.5611   11.3497 N   0  0  0  0  0  0  0  0  0  0  0  0
   44.7349    5.1075   13.1189 C   0  0  0  0  0  0  0  0  0  0  0  0
   44.6476    3.6642   12.5787 C   0  0  0  0  0  0  0  0  0  0  0  0
   44.4037    5.9706   10.9096 C   0  0  0  0  0  0  0  0  0  0  0  0
   44.3144    4.5340   10.3519 C   0  0  0  0  0  0  0  0  0  0  0  0
   43.0234    5.7587   11.3014 H   0  0  0  0  0  0  0  0  0  0  0  0
   44.5941    2.9913   13.2299 H   0  0  0  0  0  0  0  0  0  0  0  0
   43.3475    4.2280    9.7264 H   0  0  0  0  0  0  0  0  0  0  0  0
   45.0170    4.7071    9.4706 H   0  0  0  0  0  0  0  0  0  0  0  0
   44.3292    2.5005   10.9061 H   0  0  0  0  0  0  0  0  0  0  0  0
   45.8107    3.4022   11.2159 H   0  0  0  0  0  0  0  0  0  0  0  0
   44.6791    7.0962   12.4075 H   0  0  0  0  0  0  0  0  0  0  0  0
   45.9035    6.1516   11.5676 H   0  0  0  0  0  0  0  0  0  0  0  0
   45.7777    4.8951   13.5303 H   0  0  0  0  0  0  0  0  0  0  0  0
   44.1169    5.3820   13.8617 H   0  0  0  0  0  0  0  0  0  0  0  0
   46.7167    5.7010   12.3913 H   0  0  0  0  0  0  0  0  0  0  0  0
   45.5823    5.8650   13.6977 H   0  0  0  0  0  0  0  0  0  0  0  0
   46.1730    4.0701   10.4451 H   0  0  0  0  0  0  0  0  0  0  0  0
   44.6662    4.9455   10.0633 H   0  0  0  0  0  0  0  0  0  0  0  0
   44.9821    2.9966   13.5112 H   0  0  0  0  0  0  0  0  0  0  0  0
   41.7787    5.0808   12.2116 H   0  0  0  0  0  0  0  0  0  0  0  0
   43.9999    8.4408   12.2143 H   0  0  0  0  0  0  0  0  0  0  0  0
   44.4096    1.5818    8.9499 H   0  0  0  0  0  0  0  0  0  0  0  0
   42.7928    4.8851   11.0189 H   0  0  0  0  0  0  0  0  0  0  0  0
   46.3917    4.5989   12.3902 H   0  0  0  0  0  0  0  0  0  0  0  0
   45.2007    6.5611   11.1149 H   0  0  0  0  0  0  0  0  0  0  0  0
   43.6044    6.9695   11.7306 H   0  0  0  0  0  0  0  0  0  0  0  0
   43.7201    5.2037   13.4455 H   0  0  0  0  0  0  0  0  0  0  0  0
   45.1535    6.2177   13.5563 H   0  0  0  0  0  0  0  0  0  0  0  0
   45.4603    4.2841    9.9523 H   0  0  0  0  0  0  0  0  0  0  0  0
   44.0273    3.2716    9.8449 H   0  0  0  0  0  0  0  0  0  0  0  0
   45.5784    2.5179   11.6687 H   0  0  0  0  0  0  0  0  0  0  0  0
   43.9808    2.9270   12.2829 H   0  0  0  0  0  0  0  0  0  0  0  0
   45.2822    6.4601   13.2807 H   0  0  0  0  0  0  0  0  0  0  0  0
   46.4168    5.8028   12.1108 H   0  0  0  0  0  0  0  0  0  0  0  0
   43.9382    4.8633    9.9961 H   0  0  0  0  0  0  0  0  0  0  0  0
   45.4991    4.0767   10.3761 H   0  0  0  0  0  0  0  0  0  0  0  0
   42.6327    4.4658   12.7623 H   0  0  0  0  0  0  0  0  0  0  0  0
   46.2897    2.6511   13.6293 H   0  0  0  0  0  0  0  0  0  0  0  0
   44.4241    8.9079   11.1718 H   0  0  0  0  0  0  0  0  0  0  0  0
   43.5428    1.3696    9.6276 H   0  0  0  0  0  0  0  0  0  0  0  0
   46.1892    5.7847   11.8676 H   0  0  0  0  0  0  0  0  0  0  0  0
   43.9234    2.6184   10.9702 H   0  0  0  0  0  0  0  0  0  0  0  0
   43.7482    5.4355   13.4680 H   0  0  0  0  0  0  0  0  0  0  0  0
   45.3988    5.1282   13.9901 H   0  0  0  0  0  0  0  0  0  0  0  0
   45.6583    3.2821   12.3888 H   0  0  0  0  0  0  0  0  0  0  0  0
   44.2010    3.0215   13.3444 H   0  0  0  0  0  0  0  0  0  0  0  0
   44.8223    6.6306   10.1421 H   0  0  0  0  0  0  0  0  0  0  0  0
   43.3985    6.3491   11.1336 H   0  0  0  0  0  0  0  0  0  0  0  0
   43.6256    4.5222    9.5011 H   0  0  0  0  0  0  0  0  0  0  0  0
   45.2968    4.2254    9.9735 H   0  0  0  0  0  0  0  0  0  0  0  0
  2  6  1  0
  3  1  1  0
  4  3  1  0
  5  1  1  0
  6  5  1  0
  2  4  1  0
  8  7  1  0
  9  7  1  0
 10  7  1  0
 11  9  1  0
 12  8  1  0
 13 10  2  0
 14 12  2  0
 15 11  2  0
 16  7  1  0
 17 10  1  0
 18 12  1  0
 19 11  1  0
 21 25  1  0
 22 20  1  0
 23 22  1  0
 24 20  1  0
 25 24  1  0
 21 23  1  0
 27 26  1  0
 28 26  1  0
 29 26  1  0
 30 28  1  0
 31 27  1  0
 32 29  2  0
 33 31  2  0
 34 30  2  0
 35 26  1  0
 36 29  1  0
 37 31  1  0
 38 30  1  0
 40 44  1  0
 41 39  1  0
 42 41  1  0
 43 39  1  0
 44 43  1  0
 40 42  1  0
  1 45  1  0
  2 46  1  0
  3 47  1  0
  3 48  1  0
  4 49  1  0
  4 50  1  0
  5 51  1  0
  5 52  1  0
  6 53  1  0
  6 54  1  0
  8 55  1  0
  8 56  1  0
  9 57  1  0
  9 58  1  0
 16 59  1  0
 17 60  1  0
 18 61  1  0
 19 62  1  0
 20 63  1  0
 21 64  1  0
 22 65  1  0
 22 66  1  0
 23 67  1  0
 23 68  1  0
 24 69  1  0
 24 70  1  0
 25 71  1  0
 25 72  1  0
 27 73  1  0
 27 74  1  0
 28 75  1  0
 28 76  1  0
 35 77  1  0
 36 78  1  0
 37 79  1  0
 38 80  1  0
 39 81  1  0
 40 82  1  0
 41 83  1  0
 41 84  1  0
 42 85  1  0
 42 86  1  0
 43 87  1  0
 43 88  1  0
 44 89  1  0
 44 90  1  0
M  END
> <Uni-Dock RESULT> 
ENERGY=   -7.729  LOWER_BOUND=    1.132  UPPER_BOUND=    3.519
INTER + INTRA:          -7.729
INTER:                  -7.729
INTRA:                   0.000
UNBOUND:                 0.000

$$$$

     RDKit          3D

 90 88  0  0  0  0  0  0  0  0999 V2000
   44.5517    4.1350   13.0827 N   0  0  0  0  0  0  0  0  0  0  0  0
   44.3084    6.4148   11.5062 N   0  0  0  0  0  0  0  0  0  0  0  0
   45.6663    5.1031   13.1615 C   0  0  0  0  0  0  0  0  0  0  0  0
   45.6467    6.2035   12.0709 C   0  0  0  0  0  0  0  0  0  0  0  0
   44.2378    3.8803   11.6661 C   0  0  0  0  0  0  0  0  0  0  0  0
   43.8015    5.1639   10.9161 C   0  0  0  0  0  0  0  0  0  0  0  0
   44.7488    5.4510   11.3467 C   0  0  0  0  0  0  0  0  0  0  0  0
   44.3737    4.1408   10.6493 C   0  0  0  0  0  0  0  0  0  0  0  0
   46.0142    5.3241   12.2009 C   0  0  0  0  0  0  0  0  0  0  0  0
   43.5348    5.9524   12.1435 C   0  0  0  0  0  0  0  0  0  0  0  0
   46.3883    6.6233   12.8575 C   0  0  0  0  0  0  0  0  0  0  0  0
   44.0516    3.0267   11.5981 C   0  0  0  0  0  0  0  0  0  0  0  0
   42.7468    6.7980   11.7462 O   0  0  0  0  0  0  0  0  0  0  0  0
   44.8552    2.3722   12.2392 O   0  0  0  0  0  0  0  0  0  0  0  0
   45.6653    7.5781   13.0828 O   0  0  0  0  0  0  0  0  0  0  0  0
   45.0374    6.3755   10.2716 O   0  0  0  0  0  0  0  0  0  0  0  0
   43.3737    5.3687   13.3441 O   0  0  0  0  0  0  0  0  0  0  0  0
   42.7320    2.7915   11.7020 O   0  0  0  0  0  0  0  0  0  0  0  0
   47.6765    6.6356   13.2568 O   0  0  0  0  0  0  0  0  0  0  0  0
   44.8257    4.7868   13.3873 N   0  0  0  0  0  0  0  0  0  0  0  0
   44.7041    5.5610   10.5210 N   0  0  0  0  0  0  0  0  0  0  0  0
   44.1657    3.9456   12.3732 C   0  0  0  0  0  0  0  0  0  0  0  0
   43.6510    4.7538   11.1628 C   0  0  0  0  0  0  0  0  0  0  0  0
   45.8799    5.5915   12.7454 C   0  0  0  0  0  0  0  0  0  0  0  0
   45.3667    6.4004   11.5350 C   0  0  0  0  0  0  0  0  0  0  0  0
   44.3493    5.2312   11.7906 C   0  0  0  0  0  0  0  0  0  0  0  0
   44.3351    3.8538   11.1136 C   0  0  0  0  0  0  0  0  0  0  0  0
   45.5891    5.4660   12.6638 C   0  0  0  0  0  0  0  0  0  0  0  0
   44.2706    6.2667   10.6543 C   0  0  0  0  0  0  0  0  0  0  0  0
   45.7055    6.8984   13.1021 C   0  0  0  0  0  0  0  0  0  0  0  0
   44.4088    2.7175   12.0897 C   0  0  0  0  0  0  0  0  0  0  0  0
   43.3162    6.9859   10.4012 O   0  0  0  0  0  0  0  0  0  0  0  0
   45.3467    2.4617   12.8270 O   0  0  0  0  0  0  0  0  0  0  0  0
   44.8172    7.7335   13.1098 O   0  0  0  0  0  0  0  0  0  0  0  0
   43.1723    5.3185   12.6080 O   0  0  0  0  0  0  0  0  0  0  0  0
   45.3893    6.3358    9.9059 O   0  0  0  0  0  0  0  0  0  0  0  0
   43.3206    1.9262   12.0658 O   0  0  0  0  0  0  0  0  0  0  0  0
   46.9380    7.2006   13.5513 O   0  0  0  0  0  0  0  0  0  0  0  0
   44.3630    3.8498   11.2967 N   0  0  0  0  0  0  0  0  0  0  0  0
   45.0146    6.4115   12.6441 N   0  0  0  0  0  0  0  0  0  0  0  0
   43.7072    5.1198   10.9331 C   0  0  0  0  0  0  0  0  0  0  0  0
   44.5780    6.3560   11.2426 C   0  0  0  0  0  0  0  0  0  0  0  0
   44.7582    3.9143   12.7158 C   0  0  0  0  0  0  0  0  0  0  0  0
   45.6378    5.1411   13.0389 C   0  0  0  0  0  0  0  0  0  0  0  0
   43.7361    4.6205   13.4642 H   0  0  0  0  0  0  0  0  0  0  0  0
   44.3343    7.1442   10.7963 H   0  0  0  0  0  0  0  0  0  0  0  0
   45.6204    5.5742   14.1488 H   0  0  0  0  0  0  0  0  0  0  0  0
   46.6184    4.5643   13.1163 H   0  0  0  0  0  0  0  0  0  0  0  0
   46.0116    7.1436   12.4986 H   0  0  0  0  0  0  0  0  0  0  0  0
   46.3379    5.9306   11.2633 H   0  0  0  0  0  0  0  0  0  0  0  0
   43.4373    3.1348   11.6050 H   0  0  0  0  0  0  0  0  0  0  0  0
   45.1168    3.4419   11.1785 H   0  0  0  0  0  0  0  0  0  0  0  0
   44.1155    5.0933    9.8681 H   0  0  0  0  0  0  0  0  0  0  0  0
   42.7083    5.2251   10.9204 H   0  0  0  0  0  0  0  0  0  0  0  0
   45.1842    3.8004    9.9911 H   0  0  0  0  0  0  0  0  0  0  0  0
   43.5180    4.2948    9.9788 H   0  0  0  0  0  0  0  0  0  0  0  0
   46.8524    5.0255   11.5592 H   0  0  0  0  0  0  0  0  0  0  0  0
   45.8989    4.5871   13.0020 H   0  0  0  0  0  0  0  0  0  0  0  0
   44.3637    7.0859   10.3215 H   0  0  0  0  0  0  0  0  0  0  0  0
   42.6002    5.8355   13.7304 H   0  0  0  0  0  0  0  0  0  0  0  0
   42.6679    2.0543   12.3445 H   0  0  0  0  0  0  0  0  0  0  0  0
   47.7932    7.5182   13.6660 H   0  0  0  0  0  0  0  0  0  0  0  0
   44.1256    5.4332   13.7541 H   0  0  0  0  0  0  0  0  0  0  0  0
   45.4026    4.9178   10.1461 H   0  0  0  0  0  0  0  0  0  0  0  0
   44.8668    3.1732   12.0339 H   0  0  0  0  0  0  0  0  0  0  0  0
   43.3252    3.4233   12.8432 H   0  0  0  0  0  0  0  0  0  0  0  0
   42.8343    5.4149   11.4777 H   0  0  0  0  0  0  0  0  0  0  0  0
   43.2313    4.0668   10.4193 H   0  0  0  0  0  0  0  0  0  0  0  0
   46.6981    4.9312   12.4333 H   0  0  0  0  0  0  0  0  0  0  0  0
   46.2983    6.2786   13.4892 H   0  0  0  0  0  0  0  0  0  0  0  0
   46.2077    6.9228   11.0649 H   0  0  0  0  0  0  0  0  0  0  0  0
   44.6661    7.1724   11.8762 H   0  0  0  0  0  0  0  0  0  0  0  0
   43.4135    3.7402   10.5261 H   0  0  0  0  0  0  0  0  0  0  0  0
   45.1668    3.7331   10.4085 H   0  0  0  0  0  0  0  0  0  0  0  0
   45.5435    4.8693   13.5810 H   0  0  0  0  0  0  0  0  0  0  0  0
   46.4973    5.2087   12.1064 H   0  0  0  0  0  0  0  0  0  0  0  0
   42.9473    6.2708   12.6813 H   0  0  0  0  0  0  0  0  0  0  0  0
   45.1880    7.0344    9.2440 H   0  0  0  0  0  0  0  0  0  0  0  0
   43.4875    1.2534   12.7591 H   0  0  0  0  0  0  0  0  0  0  0  0
   46.8740    8.1341   13.8429 H   0  0  0  0  0  0  0  0  0  0  0  0
   45.2108    3.7631   10.7378 H   0  0  0  0  0  0  0  0  0  0  0  0
   45.6803    7.1730   12.7668 H   0  0  0  0  0  0  0  0  0  0  0  0
   42.7485    5.1973   11.4603 H   0  0  0  0  0  0  0  0  0  0  0  0
   43.4758    5.0991    9.8625 H   0  0  0  0  0  0  0  0  0  0  0  0
   45.4580    6.3579   10.5876 H   0  0  0  0  0  0  0  0  0  0  0  0
   44.0073    7.2623   11.0147 H   0  0  0  0  0  0  0  0  0  0  0  0
   45.3070    3.0002   12.9672 H   0  0  0  0  0  0  0  0  0  0  0  0
   43.8585    3.9220   13.3438 H   0  0  0  0  0  0  0  0  0  0  0  0
   45.8365    5.1657   14.1152 H   0  0  0  0  0  0  0  0  0  0  0  0
   46.6075    5.0402   12.5360 H   0  0  0  0  0  0  0  0  0  0  0  0
  2  6  1  0
  3  1  1  0
  4  3  1  0
  5  1  1  0
  6  5  1  0
  2  4  1  0
  8  7  1  0
  9  7  1  0
 10  7  1  0
 11  9  1  0
 12  8  1  0
 13 10  2  0
 14 12  2  0
 15 11  2  0
 16  7  1  0
 17 10  1  0
 18 12  1  0
 19 11  1  0
 21 25  1  0
 22 20  1  0
 23 22  1  0
 24 20  1  0
 25 24  1  0
 21 23  1  0
 27 26  1  0
 28 26  1  0
 29 26  1  0
 30 28  1  0
 31 27  1  0
 32 29  2  0
 33 31  2  0
 34 30  2  0
 35 26  1  0
 36 29  1  0
 37 31  1  0
 38 30  1  0
 40 44  1  0
 41 39  1  0
 42 41  1  0
 43 39  1  0
 44 43  1  0
 40 42  1  0
  1 45  1  0
  2 46  1  0
  3 47  1  0
  3 48  1  0
  4 49  1  0
  4 50  1  0
  5 51  1  0
  5 52  1  0
  6 53  1  0
  6 54  1  0
  8 55  1  0
  8 56  1  0
  9 57  1  0
  9 58  1  0
 16 59  1  0
 17 60  1  0
 18 61  1  0
 19 62  1  0
 20 63  1  0
 21 64  1  0
 22 65  1  0
 22 66  1  0
 23 67  1  0
 23 68  1  0
 24 69  1  0
 24 70  1  0
 25 71  1  0
 25 72  1  0
 27 73  1  0
 27 74  1  0
 28 75  1  0
 28 76  1  0
 35 77  1  0
 36 78  1  0
 37 79  1  0
 38 80  1  0
 39 81  1  0
 40 82  1  0
 41 83  1  0
 41 84  1  0
 42 85  1  0
 42 86  1  0
 43 87  1  0
 43 88  1  0
 44 89  1  0
 44 90  1  0
M  END
> <Uni-Dock RESULT> 
ENERGY=   -7.587  LOWER_BOUND=    1.344  UPPER_BOUND=    2.439
INTER + INTRA:          -7.587
INTER:                  -7.587
INTRA:                   0.000
UNBOUND:                 0.000

$$$$
