
     RDKit          3D

 90 88  0  0  0  0  0  0  0  0999 V2000
   44.9150    4.1400    9.5639 N   0  0  0  0  0  0  0  0  0  0  0  0
   43.5489    4.0414   12.2018 N   0  0  0  0  0  0  0  0  0  0  0  0
   44.8824    2.9187   10.3879 C   0  0  0  0  0  0  0  0  0  0  0  0
   44.7282    3.2130   11.8956 C   0  0  0  0  0  0  0  0  0  0  0  0
   43.7335    4.9668    9.8681 C   0  0  0  0  0  0  0  0  0  0  0  0
   43.5770    5.2610   11.3757 C   0  0  0  0  0  0  0  0  0  0  0  0
   44.4147    3.7679   10.9632 C   0  0  0  0  0  0  0  0  0  0  0  0
   43.4162    4.9217   10.7922 C   0  0  0  0  0  0  0  0  0  0  0  0
   44.6708    2.9906    9.6670 C   0  0  0  0  0  0  0  0  0  0  0  0
   43.8386    2.7376   11.9519 C   0  0  0  0  0  0  0  0  0  0  0  0
   45.1537    3.8617    8.5467 C   0  0  0  0  0  0  0  0  0  0  0  0
   42.9688    5.4860   12.1128 C   0  0  0  0  0  0  0  0  0  0  0  0
   42.7541    2.1840   11.8688 O   0  0  0  0  0  0  0  0  0  0  0  0
   43.4918    5.3142   13.2010 O   0  0  0  0  0  0  0  0  0  0  0  0
   44.5014    4.7156    7.9690 O   0  0  0  0  0  0  0  0  0  0  0  0
   45.6719    4.2937   11.4087 O   0  0  0  0  0  0  0  0  0  0  0  0
   44.6668    2.4833   12.9873 O   0  0  0  0  0  0  0  0  0  0  0  0
   41.8855    6.2744   11.9888 O   0  0  0  0  0  0  0  0  0  0  0  0
   46.4202    3.6013    8.1784 O   0  0  0  0  0  0  0  0  0  0  0  0
   43.0585    3.6667   11.7736 N   0  0  0  0  0  0  0  0  0  0  0  0
   45.4040    4.5256   10.1700 N   0  0  0  0  0  0  0  0  0  0  0  0
   44.3052    2.8808   11.7184 C   0  0  0  0  0  0  0  0  0  0  0  0
   45.1014    3.1087   10.4147 C   0  0  0  0  0  0  0  0  0  0  0  0
   43.3888    5.0882   11.5613 C   0  0  0  0  0  0  0  0  0  0  0  0
   44.1804    5.3345   10.2587 C   0  0  0  0  0  0  0  0  0  0  0  0
   44.6014    3.9381   11.1207 C   0  0  0  0  0  0  0  0  0  0  0  0
   44.5855    2.5546   10.4545 C   0  0  0  0  0  0  0  0  0  0  0  0
   43.5711    4.9106   10.5307 C   0  0  0  0  0  0  0  0  0  0  0  0
   44.3429    3.6858   12.6161 C   0  0  0  0  0  0  0  0  0  0  0  0
   43.4320    6.1614   11.3524 C   0  0  0  0  0  0  0  0  0  0  0  0
   44.7403    2.6184    8.9653 C   0  0  0  0  0  0  0  0  0  0  0  0
   45.1778    3.7521   13.5044 O   0  0  0  0  0  0  0  0  0  0  0  0
   43.9078    3.0357    8.1777 O   0  0  0  0  0  0  0  0  0  0  0  0
   44.1407    6.5194   12.2769 O   0  0  0  0  0  0  0  0  0  0  0  0
   45.9172    4.4837   10.9344 O   0  0  0  0  0  0  0  0  0  0  0  0
   43.0688    3.3544   12.9021 O   0  0  0  0  0  0  0  0  0  0  0  0
   45.9144    2.1308    8.5288 O   0  0  0  0  0  0  0  0  0  0  0  0
   42.4008    6.9234   10.9435 O   0  0  0  0  0  0  0  0  0  0  0  0
   44.9476    3.2952   11.9138 N   0  0  0  0  0  0  0  0  0  0  0  0
   43.5145    4.8845    9.8513 N   0  0  0  0  0  0  0  0  0  0  0  0
   43.7239    4.0585   12.2193 C   0  0  0  0  0  0  0  0  0  0  0  0
   43.5133    5.2619   11.2759 C   0  0  0  0  0  0  0  0  0  0  0  0
   44.9464    2.9167   10.4898 C   0  0  0  0  0  0  0  0  0  0  0  0
   44.7377    4.1210    9.5467 C   0  0  0  0  0  0  0  0  0  0  0  0
   45.7440    4.6730    9.8330 H   0  0  0  0  0  0  0  0  0  0  0  0
   42.7184    3.5087   11.9399 H   0  0  0  0  0  0  0  0  0  0  0  0
   45.8086    2.3578   10.2214 H   0  0  0  0  0  0  0  0  0  0  0  0
   44.0620    2.2745   10.0478 H   0  0  0  0  0  0  0  0  0  0  0  0
   45.6277    3.7157   12.2719 H   0  0  0  0  0  0  0  0  0  0  0  0
   44.6459    2.2673   12.4425 H   0  0  0  0  0  0  0  0  0  0  0  0
   42.8340    4.4622    9.4933 H   0  0  0  0  0  0  0  0  0  0  0  0
   43.8171    5.9130    9.3215 H   0  0  0  0  0  0  0  0  0  0  0  0
   44.3976    5.9046   11.7153 H   0  0  0  0  0  0  0  0  0  0  0  0
   42.6496    5.8204   11.5427 H   0  0  0  0  0  0  0  0  0  0  0  0
   43.8691    5.7517   10.2397 H   0  0  0  0  0  0  0  0  0  0  0  0
   42.5240    4.5690   10.2606 H   0  0  0  0  0  0  0  0  0  0  0  0
   43.7677    2.4784    9.3140 H   0  0  0  0  0  0  0  0  0  0  0  0
   45.4180    2.2064    9.8414 H   0  0  0  0  0  0  0  0  0  0  0  0
   45.6222    4.3233   12.3877 H   0  0  0  0  0  0  0  0  0  0  0  0
   44.1713    1.8561   13.5552 H   0  0  0  0  0  0  0  0  0  0  0  0
   41.6994    6.5924   12.8960 H   0  0  0  0  0  0  0  0  0  0  0  0
   46.6095    4.2512    7.4703 H   0  0  0  0  0  0  0  0  0  0  0  0
   42.4609    3.3628   11.0049 H   0  0  0  0  0  0  0  0  0  0  0  0
   45.8204    4.6334    9.2462 H   0  0  0  0  0  0  0  0  0  0  0  0
   44.0528    1.8183   11.8056 H   0  0  0  0  0  0  0  0  0  0  0  0
   44.9290    3.1286   12.5868 H   0  0  0  0  0  0  0  0  0  0  0  0
   44.5361    2.7059    9.5647 H   0  0  0  0  0  0  0  0  0  0  0  0
   46.0427    2.5511   10.4682 H   0  0  0  0  0  0  0  0  0  0  0  0
   43.9610    5.4585   12.4209 H   0  0  0  0  0  0  0  0  0  0  0  0
   42.4561    5.6630   11.5316 H   0  0  0  0  0  0  0  0  0  0  0  0
   44.4540    6.3935   10.2015 H   0  0  0  0  0  0  0  0  0  0  0  0
   43.5390    5.1189    9.3951 H   0  0  0  0  0  0  0  0  0  0  0  0
   43.6541    2.0108   10.6586 H   0  0  0  0  0  0  0  0  0  0  0  0
   45.3957    1.9325   10.8606 H   0  0  0  0  0  0  0  0  0  0  0  0
   43.8762    5.2335    9.5297 H   0  0  0  0  0  0  0  0  0  0  0  0
   42.5866    4.4329   10.4765 H   0  0  0  0  0  0  0  0  0  0  0  0
   46.1364    4.9883   11.7474 H   0  0  0  0  0  0  0  0  0  0  0  0
   43.0660    3.2441   13.8777 H   0  0  0  0  0  0  0  0  0  0  0  0
   45.8928    2.2621    7.5585 H   0  0  0  0  0  0  0  0  0  0  0  0
   42.4349    7.7152   11.5191 H   0  0  0  0  0  0  0  0  0  0  0  0
   45.7448    3.9155   12.0689 H   0  0  0  0  0  0  0  0  0  0  0  0
   42.7158    4.2689    9.6929 H   0  0  0  0  0  0  0  0  0  0  0  0
   42.8581    3.3857   12.1642 H   0  0  0  0  0  0  0  0  0  0  0  0
   43.7816    4.4154   13.2539 H   0  0  0  0  0  0  0  0  0  0  0  0
   42.5579    5.7448   11.5112 H   0  0  0  0  0  0  0  0  0  0  0  0
   44.2964    6.0107   11.4492 H   0  0  0  0  0  0  0  0  0  0  0  0
   45.9007    2.4337   10.2539 H   0  0  0  0  0  0  0  0  0  0  0  0
   44.1636    2.1678   10.3165 H   0  0  0  0  0  0  0  0  0  0  0  0
   45.6040    4.7921    9.6033 H   0  0  0  0  0  0  0  0  0  0  0  0
   44.6835    3.7658    8.5115 H   0  0  0  0  0  0  0  0  0  0  0  0
  2  6  1  0
  3  1  1  0
  4  3  1  0
  5  1  1  0
  6  5  1  0
  2  4  1  0
  8  7  1  0
  9  7  1  0
 10  7  1  0
 11  9  1  0
 12  8  1  0
 13 10  2  0
 14 12  2  0
 15 11  2  0
 16  7  1  0
 17 10  1  0
 18 12  1  0
 19 11  1  0
 21 25  1  0
 22 20  1  0
 23 22  1  0
 24 20  1  0
 25 24  1  0
 21 23  1  0
 27 26  1  0
 28 26  1  0
 29 26  1  0
 30 28  1  0
 31 27  1  0
 32 29  2  0
 33 31  2  0
 34 30  2  0
 35 26  1  0
 36 29  1  0
 37 31  1  0
 38 30  1  0
 40 44  1  0
 41 39  1  0
 42 41  1  0
 43 39  1  0
 44 43  1  0
 40 42  1  0
  1 45  1  0
  2 46  1  0
  3 47  1  0
  3 48  1  0
  4 49  1  0
  4 50  1  0
  5 51  1  0
  5 52  1  0
  6 53  1  0
  6 54  1  0
  8 55  1  0
  8 56  1  0
  9 57  1  0
  9 58  1  0
 16 59  1  0
 17 60  1  0
 18 61  1  0
 19 62  1  0
 20 63  1  0
 21 64  1  0
 22 65  1  0
 22 66  1  0
 23 67  1  0
 23 68  1  0
 24 69  1  0
 24 70  1  0
 25 71  1  0
 25 72  1  0
 27 73  1  0
 27 74  1  0
 28 75  1  0
 28 76  1  0
 35 77  1  0
 36 78  1  0
 37 79  1  0
 38 80  1  0
 39 81  1  0
 40 82  1  0
 41 83  1  0
 41 84  1  0
 42 85  1  0
 42 86  1  0
 43 87  1  0
 43 88  1  0
 44 89  1  0
 44 90  1  0
M  END
> <Uni-Dock RESULT> 
ENERGY=   -9.284  LOWER_BOUND=    0.000  UPPER_BOUND=    0.000
INTER + INTRA:          -9.284
INTER:                  -9.284
INTRA:                   0.000
UNBOUND:                 0.000

$$$$

     RDKit          3D

 90 88  0  0  0  0  0  0  0  0999 V2000
   44.4397    5.9534   11.0194 N   0  0  0  0  0  0  0  0  0  0  0  0
   44.5987    2.9885   10.8851 N   0  0  0  0  0  0  0  0  0  0  0  0
   44.3167    5.1038   12.2172 C   0  0  0  0  0  0  0  0  0  0  0  0
   43.7910    3.6873   11.8999 C   0  0  0  0  0  0  0  0  0  0  0  0
   45.2505    5.2553   10.0058 C   0  0  0  0  0  0  0  0  0  0  0  0
   44.7268    3.8381    9.6882 C   0  0  0  0  0  0  0  0  0  0  0  0
   44.3712    4.4492   11.3011 C   0  0  0  0  0  0  0  0  0  0  0  0
   45.1628    4.2812    9.9963 C   0  0  0  0  0  0  0  0  0  0  0  0
   44.7922    5.6804   12.1115 C   0  0  0  0  0  0  0  0  0  0  0  0
   44.6399    3.2426   12.2192 C   0  0  0  0  0  0  0  0  0  0  0  0
   44.6855    6.9581   11.3348 C   0  0  0  0  0  0  0  0  0  0  0  0
   44.9363    2.9354    9.3637 C   0  0  0  0  0  0  0  0  0  0  0  0
   45.7334    2.8406   12.5831 O   0  0  0  0  0  0  0  0  0  0  0  0
   44.0452    2.1432    9.6198 O   0  0  0  0  0  0  0  0  0  0  0  0
   45.3789    7.2801   10.3841 O   0  0  0  0  0  0  0  0  0  0  0  0
   42.9779    4.5888   10.9933 O   0  0  0  0  0  0  0  0  0  0  0  0
   43.5089    2.6163   12.6079 O   0  0  0  0  0  0  0  0  0  0  0  0
   45.8406    2.6649    8.4048 O   0  0  0  0  0  0  0  0  0  0  0  0
   43.7383    7.7885   11.8043 O   0  0  0  0  0  0  0  0  0  0  0  0
   45.2726    3.1541   11.1726 N   0  0  0  0  0  0  0  0  0  0  0  0
   43.6922    5.6257   10.7208 N   0  0  0  0  0  0  0  0  0  0  0  0
   44.2946    3.6545   12.1566 C   0  0  0  0  0  0  0  0  0  0  0  0
   44.0800    5.1813   12.0666 C   0  0  0  0  0  0  0  0  0  0  0  0
   44.8461    3.5805    9.8268 C   0  0  0  0  0  0  0  0  0  0  0  0
   44.6322    5.1058    9.7180 C   0  0  0  0  0  0  0  0  0  0  0  0
   44.1126    4.3930   11.1644 C   0  0  0  0  0  0  0  0  0  0  0  0
   44.6118    4.8975   12.5263 C   0  0  0  0  0  0  0  0  0  0  0  0
   45.1327    4.5816   10.0334 C   0  0  0  0  0  0  0  0  0  0  0  0
   43.7691    2.9075   11.3685 C   0  0  0  0  0  0  0  0  0  0  0  0
   44.7293    3.8634    8.7763 C   0  0  0  0  0  0  0  0  0  0  0  0
   45.0748    6.3223   12.4908 C   0  0  0  0  0  0  0  0  0  0  0  0
   42.6436    2.4403   11.4424 O   0  0  0  0  0  0  0  0  0  0  0  0
   46.0831    6.7323   11.9404 O   0  0  0  0  0  0  0  0  0  0  0  0
   43.6578    3.3325    8.5414 O   0  0  0  0  0  0  0  0  0  0  0  0
   42.9233    5.1337   10.8475 O   0  0  0  0  0  0  0  0  0  0  0  0
   44.8473    2.1077   11.4811 O   0  0  0  0  0  0  0  0  0  0  0  0
   44.2733    7.1616   13.1688 O   0  0  0  0  0  0  0  0  0  0  0  0
   45.7079    3.8717    7.8524 O   0  0  0  0  0  0  0  0  0  0  0  0
   43.5737    3.7654   11.8556 N   0  0  0  0  0  0  0  0  0  0  0  0
   45.4668    5.1763   10.0503 N   0  0  0  0  0  0  0  0  0  0  0  0
   44.4316    3.0445   10.8976 C   0  0  0  0  0  0  0  0  0  0  0  0
   44.8250    3.9033    9.6767 C   0  0  0  0  0  0  0  0  0  0  0  0
   44.2176    5.0367   12.2298 C   0  0  0  0  0  0  0  0  0  0  0  0
   44.6090    5.8961   11.0085 C   0  0  0  0  0  0  0  0  0  0  0  0
   43.5026    6.0810   10.6329 H   0  0  0  0  0  0  0  0  0  0  0  0
   45.5340    2.8538   11.2711 H   0  0  0  0  0  0  0  0  0  0  0  0
   43.6383    5.5915   12.9257 H   0  0  0  0  0  0  0  0  0  0  0  0
   45.2922    5.0367   12.7150 H   0  0  0  0  0  0  0  0  0  0  0  0
   42.7511    3.7436   11.5548 H   0  0  0  0  0  0  0  0  0  0  0  0
   43.7845    3.0895   12.8178 H   0  0  0  0  0  0  0  0  0  0  0  0
   46.2899    5.1977   10.3527 H   0  0  0  0  0  0  0  0  0  0  0  0
   45.2555    5.8535    9.0876 H   0  0  0  0  0  0  0  0  0  0  0  0
   43.7515    3.9056    9.1911 H   0  0  0  0  0  0  0  0  0  0  0  0
   45.4064    3.3493    8.9810 H   0  0  0  0  0  0  0  0  0  0  0  0
   44.8561    5.0263    9.2545 H   0  0  0  0  0  0  0  0  0  0  0  0
   46.2370    4.3800   10.1948 H   0  0  0  0  0  0  0  0  0  0  0  0
   45.8271    5.6007   12.4652 H   0  0  0  0  0  0  0  0  0  0  0  0
   44.1686    5.7693   13.0098 H   0  0  0  0  0  0  0  0  0  0  0  0
   42.6157    3.6782   10.9549 H   0  0  0  0  0  0  0  0  0  0  0  0
   43.8166    1.8542   13.1426 H   0  0  0  0  0  0  0  0  0  0  0  0
   45.5866    1.7845    8.0593 H   0  0  0  0  0  0  0  0  0  0  0  0
   43.7599    8.5561   11.1960 H   0  0  0  0  0  0  0  0  0  0  0  0
   46.1720    3.5918   11.3726 H   0  0  0  0  0  0  0  0  0  0  0  0
   43.6811    6.6441   10.6852 H   0  0  0  0  0  0  0  0  0  0  0  0
   44.6478    3.3987   13.1615 H   0  0  0  0  0  0  0  0  0  0  0  0
   43.3393    3.1326   12.0161 H   0  0  0  0  0  0  0  0  0  0  0  0
   44.9988    5.6992   12.3696 H   0  0  0  0  0  0  0  0  0  0  0  0
   43.2969    5.4748   12.7742 H   0  0  0  0  0  0  0  0  0  0  0  0
   43.9220    3.0544    9.5570 H   0  0  0  0  0  0  0  0  0  0  0  0
   45.6089    3.2700    9.1037 H   0  0  0  0  0  0  0  0  0  0  0  0
   44.2482    5.3426    8.7200 H   0  0  0  0  0  0  0  0  0  0  0  0
   45.5964    5.6184    9.8238 H   0  0  0  0  0  0  0  0  0  0  0  0
   45.4481    4.2964   12.9059 H   0  0  0  0  0  0  0  0  0  0  0  0
   43.8117    4.8119   13.2752 H   0  0  0  0  0  0  0  0  0  0  0  0
   45.2205    5.6402    9.7672 H   0  0  0  0  0  0  0  0  0  0  0  0
   46.1129    4.1990   10.3392 H   0  0  0  0  0  0  0  0  0  0  0  0
   42.3153    4.5166   10.3861 H   0  0  0  0  0  0  0  0  0  0  0  0
   44.4658    1.2094   11.5885 H   0  0  0  0  0  0  0  0  0  0  0  0
   44.6714    8.0467   13.0366 H   0  0  0  0  0  0  0  0  0  0  0  0
   45.3200    3.4160    7.0770 H   0  0  0  0  0  0  0  0  0  0  0  0
   42.6988    3.9900   11.3777 H   0  0  0  0  0  0  0  0  0  0  0  0
   46.3437    4.9543   10.5233 H   0  0  0  0  0  0  0  0  0  0  0  0
   45.3351    2.6973   11.4156 H   0  0  0  0  0  0  0  0  0  0  0  0
   43.9002    2.1495   10.5545 H   0  0  0  0  0  0  0  0  0  0  0  0
   45.5133    3.3356    9.0402 H   0  0  0  0  0  0  0  0  0  0  0  0
   43.9356    4.1146    9.0698 H   0  0  0  0  0  0  0  0  0  0  0  0
   43.5306    5.6045   12.8663 H   0  0  0  0  0  0  0  0  0  0  0  0
   45.1068    4.8254   12.8369 H   0  0  0  0  0  0  0  0  0  0  0  0
   43.7047    6.2420   10.4922 H   0  0  0  0  0  0  0  0  0  0  0  0
   45.1372    6.7930   11.3505 H   0  0  0  0  0  0  0  0  0  0  0  0
  2  6  1  0
  3  1  1  0
  4  3  1  0
  5  1  1  0
  6  5  1  0
  2  4  1  0
  8  7  1  0
  9  7  1  0
 10  7  1  0
 11  9  1  0
 12  8  1  0
 13 10  2  0
 14 12  2  0
 15 11  2  0
 16  7  1  0
 17 10  1  0
 18 12  1  0
 19 11  1  0
 21 25  1  0
 22 20  1  0
 23 22  1  0
 24 20  1  0
 25 24  1  0
 21 23  1  0
 27 26  1  0
 28 26  1  0
 29 26  1  0
 30 28  1  0
 31 27  1  0
 32 29  2  0
 33 31  2  0
 34 30  2  0
 35 26  1  0
 36 29  1  0
 37 31  1  0
 38 30  1  0
 40 44  1  0
 41 39  1  0
 42 41  1  0
 43 39  1  0
 44 43  1  0
 40 42  1  0
  1 45  1  0
  2 46  1  0
  3 47  1  0
  3 48  1  0
  4 49  1  0
  4 50  1  0
  5 51  1  0
  5 52  1  0
  6 53  1  0
  6 54  1  0
  8 55  1  0
  8 56  1  0
  9 57  1  0
  9 58  1  0
 16 59  1  0
 17 60  1  0
 18 61  1  0
 19 62  1  0
 20 63  1  0
 21 64  1  0
 22 65  1  0
 22 66  1  0
 23 67  1  0
 23 68  1  0
 24 69  1  0
 24 70  1  0
 25 71  1  0
 25 72  1  0
 27 73  1  0
 27 74  1  0
 28 75  1  0
 28 76  1  0
 35 77  1  0
 36 78  1  0
 37 79  1  0
 38 80  1  0
 39 81  1  0
 40 82  1  0
 41 83  1  0
 41 84  1  0
 42 85  1  0
 42 86  1  0
 43 87  1  0
 43 88  1  0
 44 89  1  0
 44 90  1  0
M  END
> <Uni-Dock RESULT> 
ENERGY=   -8.620  LOWER_BOUND=    1.147  UPPER_BOUND=    3.345
INTER + INTRA:          -8.620
INTER:                  -8.620
INTRA:                   0.000
UNBOUND:                 0.000

$$$$

     RDKit          3D

 90 88  0  0  0  0  0  0  0  0999 V2000
   44.5623    3.5306    9.1980 N   0  0  0  0  0  0  0  0  0  0  0  0
   44.7141    5.1493   11.6862 N   0  0  0  0  0  0  0  0  0  0  0  0
   45.3038    4.8024    9.2653 C   0  0  0  0  0  0  0  0  0  0  0  0
   44.7596    5.7607   10.3465 C   0  0  0  0  0  0  0  0  0  0  0  0
   44.5199    2.9178   10.5376 C   0  0  0  0  0  0  0  0  0  0  0  0
   43.9770    3.8752   11.6203 C   0  0  0  0  0  0  0  0  0  0  0  0
   44.7613    4.6363   10.2394 C   0  0  0  0  0  0  0  0  0  0  0  0
   44.4886    3.5466   11.2861 C   0  0  0  0  0  0  0  0  0  0  0  0
   45.5636    4.1324    9.0343 C   0  0  0  0  0  0  0  0  0  0  0  0
   45.6229    5.7453   10.8707 C   0  0  0  0  0  0  0  0  0  0  0  0
   44.9139    2.9731    8.3407 C   0  0  0  0  0  0  0  0  0  0  0  0
   43.9543    4.1152   12.5721 C   0  0  0  0  0  0  0  0  0  0  0  0
   46.6963    5.5954   11.4321 O   0  0  0  0  0  0  0  0  0  0  0  0
   43.4941    5.2308   12.7476 O   0  0  0  0  0  0  0  0  0  0  0  0
   44.7837    1.8475    8.7928 O   0  0  0  0  0  0  0  0  0  0  0  0
   43.5129    5.1418    9.7479 O   0  0  0  0  0  0  0  0  0  0  0  0
   45.0655    6.9700   10.7611 O   0  0  0  0  0  0  0  0  0  0  0  0
   44.0002    3.2253   13.5802 O   0  0  0  0  0  0  0  0  0  0  0  0
   44.4869    3.2669    7.1003 O   0  0  0  0  0  0  0  0  0  0  0  0
   45.4006    4.8447   11.6727 N   0  0  0  0  0  0  0  0  0  0  0  0
   43.8204    3.9668    9.3183 N   0  0  0  0  0  0  0  0  0  0  0  0
   45.3070    5.6515   10.4416 C   0  0  0  0  0  0  0  0  0  0  0  0
   45.0240    4.7991    9.1852 C   0  0  0  0  0  0  0  0  0  0  0  0
   44.1689    4.0447   11.8054 C   0  0  0  0  0  0  0  0  0  0  0  0
   43.8740    3.1818   10.5594 C   0  0  0  0  0  0  0  0  0  0  0  0
   44.4800    4.7335   10.2511 C   0  0  0  0  0  0  0  0  0  0  0  0
   45.7380    4.9427    9.3955 C   0  0  0  0  0  0  0  0  0  0  0  0
   44.4785    3.4039   11.0177 C   0  0  0  0  0  0  0  0  0  0  0  0
   44.4216    5.9346   11.2106 C   0  0  0  0  0  0  0  0  0  0  0  0
   43.3704    3.3312   12.0305 C   0  0  0  0  0  0  0  0  0  0  0  0
   46.0002    3.8099    8.4502 C   0  0  0  0  0  0  0  0  0  0  0  0
   43.6520    6.8784   11.1242 O   0  0  0  0  0  0  0  0  0  0  0  0
   46.3674    2.6895    8.7622 O   0  0  0  0  0  0  0  0  0  0  0  0
   42.4380    4.1049   12.1608 O   0  0  0  0  0  0  0  0  0  0  0  0
   43.3525    4.7597    9.3613 O   0  0  0  0  0  0  0  0  0  0  0  0
   45.3327    5.8871   12.2017 O   0  0  0  0  0  0  0  0  0  0  0  0
   45.8201    4.1386    7.1594 O   0  0  0  0  0  0  0  0  0  0  0  0
   43.4834    2.2527   12.8276 O   0  0  0  0  0  0  0  0  0  0  0  0
   44.5651    5.8078   10.2232 N   0  0  0  0  0  0  0  0  0  0  0  0
   44.7138    2.8719   10.6612 N   0  0  0  0  0  0  0  0  0  0  0  0
   44.5956    5.2148   11.5726 C   0  0  0  0  0  0  0  0  0  0  0  0
   44.0398    3.7752   11.6107 C   0  0  0  0  0  0  0  0  0  0  0  0
   45.2412    4.9047    9.2756 C   0  0  0  0  0  0  0  0  0  0  0  0
   44.6835    3.4655    9.3127 C   0  0  0  0  0  0  0  0  0  0  0  0
   43.6017    3.7465    8.9251 H   0  0  0  0  0  0  0  0  0  0  0  0
   45.6733    4.9384   11.9643 H   0  0  0  0  0  0  0  0  0  0  0  0
   45.2503    5.2925    8.2871 H   0  0  0  0  0  0  0  0  0  0  0  0
   46.3646    4.5933    9.4521 H   0  0  0  0  0  0  0  0  0  0  0  0
   43.7530    6.1001   10.0722 H   0  0  0  0  0  0  0  0  0  0  0  0
   45.3910    6.6549   10.3887 H   0  0  0  0  0  0  0  0  0  0  0  0
   45.5274    2.5805   10.8120 H   0  0  0  0  0  0  0  0  0  0  0  0
   43.8872    2.0239   10.4947 H   0  0  0  0  0  0  0  0  0  0  0  0
   42.9168    4.0843   11.4330 H   0  0  0  0  0  0  0  0  0  0  0  0
   44.0323    3.3859   12.5993 H   0  0  0  0  0  0  0  0  0  0  0  0
   43.7353    2.8382   10.9255 H   0  0  0  0  0  0  0  0  0  0  0  0
   45.4167    3.0103   11.5186 H   0  0  0  0  0  0  0  0  0  0  0  0
   46.5733    3.8148    9.3213 H   0  0  0  0  0  0  0  0  0  0  0  0
   45.6939    4.9420    8.3055 H   0  0  0  0  0  0  0  0  0  0  0  0
   43.2553    5.8670   10.3559 H   0  0  0  0  0  0  0  0  0  0  0  0
   45.6824    7.5683   11.2333 H   0  0  0  0  0  0  0  0  0  0  0  0
   43.6173    3.6950   14.3494 H   0  0  0  0  0  0  0  0  0  0  0  0
   44.0659    2.4413    6.7826 H   0  0  0  0  0  0  0  0  0  0  0  0
   46.1854    4.2017   11.5682 H   0  0  0  0  0  0  0  0  0  0  0  0
   43.7462    3.3396    8.5185 H   0  0  0  0  0  0  0  0  0  0  0  0
   46.2500    6.1922   10.3055 H   0  0  0  0  0  0  0  0  0  0  0  0
   44.5237    6.4104   10.5640 H   0  0  0  0  0  0  0  0  0  0  0  0
   45.8886    4.1566    8.9756 H   0  0  0  0  0  0  0  0  0  0  0  0
   44.9000    5.4631    8.3228 H   0  0  0  0  0  0  0  0  0  0  0  0
   43.3228    4.7142   12.0040 H   0  0  0  0  0  0  0  0  0  0  0  0
   44.2681    3.3931   12.6810 H   0  0  0  0  0  0  0  0  0  0  0  0
   42.9134    2.6736   10.6958 H   0  0  0  0  0  0  0  0  0  0  0  0
   44.6412    2.4034   10.4641 H   0  0  0  0  0  0  0  0  0  0  0  0
   46.6385    5.0633   10.0114 H   0  0  0  0  0  0  0  0  0  0  0  0
   45.6446    5.8681    8.8097 H   0  0  0  0  0  0  0  0  0  0  0  0
   44.3227    2.5646   10.3317 H   0  0  0  0  0  0  0  0  0  0  0  0
   45.4279    3.2711   11.5482 H   0  0  0  0  0  0  0  0  0  0  0  0
   42.6180    5.1991    9.8417 H   0  0  0  0  0  0  0  0  0  0  0  0
   45.1573    6.6998   12.7240 H   0  0  0  0  0  0  0  0  0  0  0  0
   45.9919    3.3103    6.6657 H   0  0  0  0  0  0  0  0  0  0  0  0
   42.6969    2.2921   13.4100 H   0  0  0  0  0  0  0  0  0  0  0  0
   43.5859    5.8781    9.9394 H   0  0  0  0  0  0  0  0  0  0  0  0
   45.6912    2.7960   10.9460 H   0  0  0  0  0  0  0  0  0  0  0  0
   45.6279    5.2257   11.9461 H   0  0  0  0  0  0  0  0  0  0  0  0
   44.0084    5.8476   12.2478 H   0  0  0  0  0  0  0  0  0  0  0  0
   44.1519    3.3695   12.6227 H   0  0  0  0  0  0  0  0  0  0  0  0
   42.9644    3.7870   11.3927 H   0  0  0  0  0  0  0  0  0  0  0  0
   45.1300    5.3096    8.2640 H   0  0  0  0  0  0  0  0  0  0  0  0
   46.3165    4.8931    9.4933 H   0  0  0  0  0  0  0  0  0  0  0  0
   43.6519    3.4569    8.9391 H   0  0  0  0  0  0  0  0  0  0  0  0
   45.2676    2.8327    8.6352 H   0  0  0  0  0  0  0  0  0  0  0  0
  2  6  1  0
  3  1  1  0
  4  3  1  0
  5  1  1  0
  6  5  1  0
  2  4  1  0
  8  7  1  0
  9  7  1  0
 10  7  1  0
 11  9  1  0
 12  8  1  0
 13 10  2  0
 14 12  2  0
 15 11  2  0
 16  7  1  0
 17 10  1  0
 18 12  1  0
 19 11  1  0
 21 25  1  0
 22 20  1  0
 23 22  1  0
 24 20  1  0
 25 24  1  0
 21 23  1  0
 27 26  1  0
 28 26  1  0
 29 26  1  0
 30 28  1  0
 31 27  1  0
 32 29  2  0
 33 31  2  0
 34 30  2  0
 35 26  1  0
 36 29  1  0
 37 31  1  0
 38 30  1  0
 40 44  1  0
 41 39  1  0
 42 41  1  0
 43 39  1  0
 44 43  1  0
 40 42  1  0
  1 45  1  0
  2 46  1  0
  3 47  1  0
  3 48  1  0
  4 49  1  0
  4 50  1  0
  5 51  1  0
  5 52  1  0
  6 53  1  0
  6 54  1  0
  8 55  1  0
  8 56  1  0
  9 57  1  0
  9 58  1  0
 16 59  1  0
 17 60  1  0
 18 61  1  0
 19 62  1  0
 20 63  1  0
 21 64  1  0
 22 65  1  0
 22 66  1  0
 23 67  1  0
 23 68  1  0
 24 69  1  0
 24 70  1  0
 25 71  1  0
 25 72  1  0
 27 73  1  0
 27 74  1  0
 28 75  1  0
 28 76  1  0
 35 77  1  0
 36 78  1  0
 37 79  1  0
 38 80  1  0
 39 81  1  0
 40 82  1  0
 41 83  1  0
 41 84  1  0
 42 85  1  0
 42 86  1  0
 43 87  1  0
 43 88  1  0
 44 89  1  0
 44 90  1  0
M  END
> <Uni-Dock RESULT> 
ENERGY=   -8.354  LOWER_BOUND=    1.115  UPPER_BOUND=    2.685
INTER + INTRA:          -8.354
INTER:                  -8.354
INTRA:                   0.000
UNBOUND:                 0.000

$$$$

     RDKit          3D

 90 88  0  0  0  0  0  0  0  0999 V2000
   45.2182    4.2904   10.1374 N   0  0  0  0  0  0  0  0  0  0  0  0
   43.8389    5.6532   12.3899 N   0  0  0  0  0  0  0  0  0  0  0  0
   43.9608    3.7816   10.7134 C   0  0  0  0  0  0  0  0  0  0  0  0
   43.7622    4.1960   12.1873 C   0  0  0  0  0  0  0  0  0  0  0  0
   45.2930    5.7486   10.3374 C   0  0  0  0  0  0  0  0  0  0  0  0
   45.0933    6.1648   11.8107 C   0  0  0  0  0  0  0  0  0  0  0  0
   44.3197    4.6602   11.3217 C   0  0  0  0  0  0  0  0  0  0  0  0
   44.8760    6.0818   11.1570 C   0  0  0  0  0  0  0  0  0  0  0  0
   44.1032    3.9356    9.9884 C   0  0  0  0  0  0  0  0  0  0  0  0
   42.9299    4.7298   11.9808 C   0  0  0  0  0  0  0  0  0  0  0  0
   45.3474    3.8548    9.1561 C   0  0  0  0  0  0  0  0  0  0  0  0
   44.8165    6.8670   12.4385 C   0  0  0  0  0  0  0  0  0  0  0  0
   41.9751    5.3803   11.5872 O   0  0  0  0  0  0  0  0  0  0  0  0
   44.6429    6.4275   13.5628 O   0  0  0  0  0  0  0  0  0  0  0  0
   45.9120    4.7921    8.6166 O   0  0  0  0  0  0  0  0  0  0  0  0
   45.2410    3.8794   12.0945 O   0  0  0  0  0  0  0  0  0  0  0  0
   42.8418    3.9815   13.1010 O   0  0  0  0  0  0  0  0  0  0  0  0
   45.0114    8.1833   12.2387 O   0  0  0  0  0  0  0  0  0  0  0  0
   45.8089    2.6007    9.0096 O   0  0  0  0  0  0  0  0  0  0  0  0
   43.3991    5.8504   11.8138 N   0  0  0  0  0  0  0  0  0  0  0  0
   45.6222    4.1157   10.8868 N   0  0  0  0  0  0  0  0  0  0  0  0
   43.3273    4.3786   11.8740 C   0  0  0  0  0  0  0  0  0  0  0  0
   44.2175    3.6903   10.8161 C   0  0  0  0  0  0  0  0  0  0  0  0
   44.8124    6.2572   11.9220 C   0  0  0  0  0  0  0  0  0  0  0  0
   45.7158    5.5821   10.8674 C   0  0  0  0  0  0  0  0  0  0  0  0
   44.5120    4.5984   11.5406 C   0  0  0  0  0  0  0  0  0  0  0  0
   43.4968    3.8614   10.6549 C   0  0  0  0  0  0  0  0  0  0  0  0
   45.0041    5.9195   10.9339 C   0  0  0  0  0  0  0  0  0  0  0  0
   43.8039    4.8284   12.8868 C   0  0  0  0  0  0  0  0  0  0  0  0
   45.7955    6.7376   11.9154 C   0  0  0  0  0  0  0  0  0  0  0  0
   43.9949    3.6271    9.2611 C   0  0  0  0  0  0  0  0  0  0  0  0
   44.0277    4.2214   13.9222 O   0  0  0  0  0  0  0  0  0  0  0  0
   44.1575    4.4827    8.4072 O   0  0  0  0  0  0  0  0  0  0  0  0
   46.1990    6.3883   13.0110 O   0  0  0  0  0  0  0  0  0  0  0  0
   45.6351    3.7208   11.7194 O   0  0  0  0  0  0  0  0  0  0  0  0
   42.8571    5.7860   12.8497 O   0  0  0  0  0  0  0  0  0  0  0  0
   44.2376    2.3330    8.9909 O   0  0  0  0  0  0  0  0  0  0  0  0
   46.0634    7.9704   11.4468 O   0  0  0  0  0  0  0  0  0  0  0  0
   43.9298    4.0496   12.2630 N   0  0  0  0  0  0  0  0  0  0  0  0
   45.1252    5.8946   10.2630 N   0  0  0  0  0  0  0  0  0  0  0  0
   43.9306    5.5126   12.4449 C   0  0  0  0  0  0  0  0  0  0  0  0
   45.0892    6.2113   11.7018 C   0  0  0  0  0  0  0  0  0  0  0  0
   43.9636    3.7345   10.8242 C   0  0  0  0  0  0  0  0  0  0  0  0
   45.1238    4.4320   10.0819 C   0  0  0  0  0  0  0  0  0  0  0  0
   45.9900    3.8663   10.6555 H   0  0  0  0  0  0  0  0  0  0  0  0
   43.0649    6.0793   11.8785 H   0  0  0  0  0  0  0  0  0  0  0  0
   43.9583    2.6885   10.6412 H   0  0  0  0  0  0  0  0  0  0  0  0
   43.1165    4.1363   10.1092 H   0  0  0  0  0  0  0  0  0  0  0  0
   44.5144    3.7057   12.8177 H   0  0  0  0  0  0  0  0  0  0  0  0
   42.7848    3.8430   12.5340 H   0  0  0  0  0  0  0  0  0  0  0  0
   44.5389    6.2380    9.7081 H   0  0  0  0  0  0  0  0  0  0  0  0
   46.2714    6.1006    9.9913 H   0  0  0  0  0  0  0  0  0  0  0  0
   45.9373    5.8097   12.4143 H   0  0  0  0  0  0  0  0  0  0  0  0
   45.0938    7.2583   11.8829 H   0  0  0  0  0  0  0  0  0  0  0  0
   45.9295    6.0570   10.8590 H   0  0  0  0  0  0  0  0  0  0  0  0
   44.2934    6.6269   10.4043 H   0  0  0  0  0  0  0  0  0  0  0  0
   43.3355    4.4263    9.3781 H   0  0  0  0  0  0  0  0  0  0  0  0
   43.7426    2.9155   10.1702 H   0  0  0  0  0  0  0  0  0  0  0  0
   44.9985    4.0243   13.0337 H   0  0  0  0  0  0  0  0  0  0  0  0
   41.9367    4.1457   13.4404 H   0  0  0  0  0  0  0  0  0  0  0  0
   44.9679    8.5834   13.1314 H   0  0  0  0  0  0  0  0  0  0  0  0
   46.6256    2.6992    8.4776 H   0  0  0  0  0  0  0  0  0  0  0  0
   43.0545    6.1449   10.9000 H   0  0  0  0  0  0  0  0  0  0  0  0
   46.1385    3.7284   10.0982 H   0  0  0  0  0  0  0  0  0  0  0  0
   42.2862    4.0729   11.7231 H   0  0  0  0  0  0  0  0  0  0  0  0
   43.6117    4.0424   12.8793 H   0  0  0  0  0  0  0  0  0  0  0  0
   43.8243    3.9003    9.8133 H   0  0  0  0  0  0  0  0  0  0  0  0
   44.1700    2.6053   10.9596 H   0  0  0  0  0  0  0  0  0  0  0  0
   45.1789    6.0258   12.9298 H   0  0  0  0  0  0  0  0  0  0  0  0
   44.8727    7.3454   11.8062 H   0  0  0  0  0  0  0  0  0  0  0  0
   46.7564    5.8704   11.0509 H   0  0  0  0  0  0  0  0  0  0  0  0
   45.4494    5.9499    9.8687 H   0  0  0  0  0  0  0  0  0  0  0  0
   42.5500    4.4104   10.5706 H   0  0  0  0  0  0  0  0  0  0  0  0
   43.2452    2.8887   11.1008 H   0  0  0  0  0  0  0  0  0  0  0  0
   45.6703    5.7287   10.0860 H   0  0  0  0  0  0  0  0  0  0  0  0
   44.1531    6.5242   10.6014 H   0  0  0  0  0  0  0  0  0  0  0  0
   45.9625    3.8565   12.6347 H   0  0  0  0  0  0  0  0  0  0  0  0
   42.5186    5.8204   13.7708 H   0  0  0  0  0  0  0  0  0  0  0  0
   44.5813    2.3307    8.0738 H   0  0  0  0  0  0  0  0  0  0  0  0
   46.6076    8.3880   12.1460 H   0  0  0  0  0  0  0  0  0  0  0  0
   44.7892    3.6865   12.6801 H   0  0  0  0  0  0  0  0  0  0  0  0
   44.2698    6.2610    9.8433 H   0  0  0  0  0  0  0  0  0  0  0  0
   42.9697    5.9175   12.1015 H   0  0  0  0  0  0  0  0  0  0  0  0
   44.0020    5.7335   13.5160 H   0  0  0  0  0  0  0  0  0  0  0  0
   44.9947    7.2967   11.8211 H   0  0  0  0  0  0  0  0  0  0  0  0
   46.0466    5.9261   12.1559 H   0  0  0  0  0  0  0  0  0  0  0  0
   44.0576    2.6500   10.7041 H   0  0  0  0  0  0  0  0  0  0  0  0
   43.0062    4.0194   10.3702 H   0  0  0  0  0  0  0  0  0  0  0  0
   46.0831    4.0260   10.4266 H   0  0  0  0  0  0  0  0  0  0  0  0
   45.0555    4.2089    9.0113 H   0  0  0  0  0  0  0  0  0  0  0  0
  2  6  1  0
  3  1  1  0
  4  3  1  0
  5  1  1  0
  6  5  1  0
  2  4  1  0
  8  7  1  0
  9  7  1  0
 10  7  1  0
 11  9  1  0
 12  8  1  0
 13 10  2  0
 14 12  2  0
 15 11  2  0
 16  7  1  0
 17 10  1  0
 18 12  1  0
 19 11  1  0
 21 25  1  0
 22 20  1  0
 23 22  1  0
 24 20  1  0
 25 24  1  0
 21 23  1  0
 27 26  1  0
 28 26  1  0
 29 26  1  0
 30 28  1  0
 31 27  1  0
 32 29  2  0
 33 31  2  0
 34 30  2  0
 35 26  1  0
 36 29  1  0
 37 31  1  0
 38 30  1  0
 40 44  1  0
 41 39  1  0
 42 41  1  0
 43 39  1  0
 44 43  1  0
 40 42  1  0
  1 45  1  0
  2 46  1  0
  3 47  1  0
  3 48  1  0
  4 49  1  0
  4 50  1  0
  5 51  1  0
  5 52  1  0
  6 53  1  0
  6 54  1  0
  8 55  1  0
  8 56  1  0
  9 57  1  0
  9 58  1  0
 16 59  1  0
 17 60  1  0
 18 61  1  0
 19 62  1  0
 20 63  1  0
 21 64  1  0
 22 65  1  0
 22 66  1  0
 23 67  1  0
 23 68  1  0
 24 69  1  0
 24 70  1  0
 25 71  1  0
 25 72  1  0
 27 73  1  0
 27 74  1  0
 28 75  1  0
 28 76  1  0
 35 77  1  0
 36 78  1  0
 37 79  1  0
 38 80  1  0
 39 81  1  0
 40 82  1  0
 41 83  1  0
 41 84  1  0
 42 85  1  0
 42 86  1  0
 43 87  1  0
 43 88  1  0
 44 89  1  0
 44 90  1  0
M  END
> <Uni-Dock RESULT> 
ENERGY=   -8.318  LOWER_BOUND=    1.249  UPPER_BOUND=    1.834
INTER + INTRA:          -8.318
INTER:                  -8.318
INTRA:                   0.000
UNBOUND:                 0.000

$$$$

     RDKit          3D

 90 88  0  0  0  0  0  0  0  0999 V2000
   45.5054    4.7494   13.4969 N   0  0  0  0  0  0  0  0  0  0  0  0
   43.8187    4.2949   11.0923 N   0  0  0  0  0  0  0  0  0  0  0  0
   45.5750    3.5049   12.7109 C   0  0  0  0  0  0  0  0  0  0  0  0
   44.2620    3.1912   11.9617 C   0  0  0  0  0  0  0  0  0  0  0  0
   45.0650    5.8539   12.6262 C   0  0  0  0  0  0  0  0  0  0  0  0
   43.7528    5.5414   11.8752 C   0  0  0  0  0  0  0  0  0  0  0  0
   44.7433    4.1517   12.3101 C   0  0  0  0  0  0  0  0  0  0  0  0
   44.4427    5.6044   11.9141 C   0  0  0  0  0  0  0  0  0  0  0  0
   46.1464    3.9614   12.8974 C   0  0  0  0  0  0  0  0  0  0  0  0
   44.7003    3.2617   11.0543 C   0  0  0  0  0  0  0  0  0  0  0  0
   46.4061    4.8319   14.0898 C   0  0  0  0  0  0  0  0  0  0  0  0
   43.1882    5.7211   11.0923 C   0  0  0  0  0  0  0  0  0  0  0  0
   45.3384    3.4294   10.0274 O   0  0  0  0  0  0  0  0  0  0  0  0
   42.3148    4.8803   10.9603 O   0  0  0  0  0  0  0  0  0  0  0  0
   46.5160    6.0469   14.0810 O   0  0  0  0  0  0  0  0  0  0  0  0
   43.7978    3.7271   13.3007 O   0  0  0  0  0  0  0  0  0  0  0  0
   43.8448    2.2244   11.1748 O   0  0  0  0  0  0  0  0  0  0  0  0
   43.0819    6.9211   10.4931 O   0  0  0  0  0  0  0  0  0  0  0  0
   46.5493    4.1393   15.2330 O   0  0  0  0  0  0  0  0  0  0  0  0
   44.4844    4.4359   10.7743 N   0  0  0  0  0  0  0  0  0  0  0  0
   44.6946    4.5448   13.7332 N   0  0  0  0  0  0  0  0  0  0  0  0
   44.6913    3.2276   11.5942 C   0  0  0  0  0  0  0  0  0  0  0  0
   45.3932    3.5262   12.9372 C   0  0  0  0  0  0  0  0  0  0  0  0
   43.7514    5.4307   11.5793 C   0  0  0  0  0  0  0  0  0  0  0  0
   44.4429    5.7450   12.9236 C   0  0  0  0  0  0  0  0  0  0  0  0
   44.4781    4.1212   12.4421 C   0  0  0  0  0  0  0  0  0  0  0  0
   45.8027    3.3534   12.3232 C   0  0  0  0  0  0  0  0  0  0  0  0
   44.6174    5.6237   12.1623 C   0  0  0  0  0  0  0  0  0  0  0  0
   43.5152    3.4517   11.4465 C   0  0  0  0  0  0  0  0  0  0  0  0
   43.2842    6.3066   12.0394 C   0  0  0  0  0  0  0  0  0  0  0  0
   46.8941    3.9303   13.1727 C   0  0  0  0  0  0  0  0  0  0  0  0
   42.5877    2.7138   11.7392 O   0  0  0  0  0  0  0  0  0  0  0  0
   47.4627    4.9922   12.9813 O   0  0  0  0  0  0  0  0  0  0  0  0
   42.1891    5.8392   12.2990 O   0  0  0  0  0  0  0  0  0  0  0  0
   44.0015    3.9395   13.7850 O   0  0  0  0  0  0  0  0  0  0  0  0
   43.7803    3.7337   10.1562 O   0  0  0  0  0  0  0  0  0  0  0  0
   47.2435    3.1405   14.2027 O   0  0  0  0  0  0  0  0  0  0  0  0
   43.4037    7.5764   11.6095 O   0  0  0  0  0  0  0  0  0  0  0  0
   44.1492    3.1342   12.1598 N   0  0  0  0  0  0  0  0  0  0  0  0
   45.1769    5.9100   12.4278 N   0  0  0  0  0  0  0  0  0  0  0  0
   43.7542    4.2115   11.2341 C   0  0  0  0  0  0  0  0  0  0  0  0
   43.8451    5.6153   11.8697 C   0  0  0  0  0  0  0  0  0  0  0  0
   45.4816    3.4291   12.7152 C   0  0  0  0  0  0  0  0  0  0  0  0
   45.5713    4.8324   13.3526 C   0  0  0  0  0  0  0  0  0  0  0  0
   44.7935    4.6205   14.2183 H   0  0  0  0  0  0  0  0  0  0  0  0
   44.5251    4.4218   10.3664 H   0  0  0  0  0  0  0  0  0  0  0  0
   45.8135    2.6758   13.3860 H   0  0  0  0  0  0  0  0  0  0  0  0
   46.4047    3.5741   11.9963 H   0  0  0  0  0  0  0  0  0  0  0  0
   43.4673    2.9597   12.6817 H   0  0  0  0  0  0  0  0  0  0  0  0
   44.4005    2.2938   11.3488 H   0  0  0  0  0  0  0  0  0  0  0  0
   45.8596    6.0833   11.9050 H   0  0  0  0  0  0  0  0  0  0  0  0
   44.9258    6.7508   13.2403 H   0  0  0  0  0  0  0  0  0  0  0  0
   42.9237    5.4718   12.5899 H   0  0  0  0  0  0  0  0  0  0  0  0
   43.5150    6.3697   11.1983 H   0  0  0  0  0  0  0  0  0  0  0  0
   44.2891    6.2275   12.8015 H   0  0  0  0  0  0  0  0  0  0  0  0
   45.2703    6.0091   11.3189 H   0  0  0  0  0  0  0  0  0  0  0  0
   46.9292    4.1780   12.1605 H   0  0  0  0  0  0  0  0  0  0  0  0
   46.2893    2.9153   13.1958 H   0  0  0  0  0  0  0  0  0  0  0  0
   43.0268    3.3754   12.8070 H   0  0  0  0  0  0  0  0  0  0  0  0
   43.8789    1.7704   10.3064 H   0  0  0  0  0  0  0  0  0  0  0  0
   42.2321    6.8866   10.0078 H   0  0  0  0  0  0  0  0  0  0  0  0
   46.6829    4.8239   15.9209 H   0  0  0  0  0  0  0  0  0  0  0  0
   45.4005    4.8241   10.5497 H   0  0  0  0  0  0  0  0  0  0  0  0
   45.2574    4.7911   14.5462 H   0  0  0  0  0  0  0  0  0  0  0  0
   45.2963    2.5161   11.0216 H   0  0  0  0  0  0  0  0  0  0  0  0
   43.7236    2.7429   11.7765 H   0  0  0  0  0  0  0  0  0  0  0  0
   46.4224    3.8562   12.7476 H   0  0  0  0  0  0  0  0  0  0  0  0
   45.4542    2.6021   13.5223 H   0  0  0  0  0  0  0  0  0  0  0  0
   42.7318    5.0686   11.7603 H   0  0  0  0  0  0  0  0  0  0  0  0
   43.6598    6.3536   10.9955 H   0  0  0  0  0  0  0  0  0  0  0  0
   43.8114    6.4309   13.4985 H   0  0  0  0  0  0  0  0  0  0  0  0
   45.3923    6.2612   12.7343 H   0  0  0  0  0  0  0  0  0  0  0  0
   46.1748    3.3332   11.2907 H   0  0  0  0  0  0  0  0  0  0  0  0
   45.6561    2.3034   12.6137 H   0  0  0  0  0  0  0  0  0  0  0  0
   45.1421    6.1211   12.9848 H   0  0  0  0  0  0  0  0  0  0  0  0
   45.1656    5.7861   11.2276 H   0  0  0  0  0  0  0  0  0  0  0  0
   43.0230    3.8782   13.7364 H   0  0  0  0  0  0  0  0  0  0  0  0
   43.0819    3.2536    9.6604 H   0  0  0  0  0  0  0  0  0  0  0  0
   47.9313    3.6469   14.6821 H   0  0  0  0  0  0  0  0  0  0  0  0
   42.4879    7.9238   11.6067 H   0  0  0  0  0  0  0  0  0  0  0  0
   43.4833    3.1342   12.9350 H   0  0  0  0  0  0  0  0  0  0  0  0
   45.8430    5.9157   11.6543 H   0  0  0  0  0  0  0  0  0  0  0  0
   44.3882    4.1659   10.3390 H   0  0  0  0  0  0  0  0  0  0  0  0
   42.7255    4.0303   10.9024 H   0  0  0  0  0  0  0  0  0  0  0  0
   43.6047    6.3720   11.1142 H   0  0  0  0  0  0  0  0  0  0  0  0
   43.0941    5.7122   12.6637 H   0  0  0  0  0  0  0  0  0  0  0  0
   45.7228    2.6731   13.4700 H   0  0  0  0  0  0  0  0  0  0  0  0
   46.2326    3.3319   11.9214 H   0  0  0  0  0  0  0  0  0  0  0  0
   44.9370    4.8759   14.2468 H   0  0  0  0  0  0  0  0  0  0  0  0
   46.5986    5.0134   13.6878 H   0  0  0  0  0  0  0  0  0  0  0  0
  2  6  1  0
  3  1  1  0
  4  3  1  0
  5  1  1  0
  6  5  1  0
  2  4  1  0
  8  7  1  0
  9  7  1  0
 10  7  1  0
 11  9  1  0
 12  8  1  0
 13 10  2  0
 14 12  2  0
 15 11  2  0
 16  7  1  0
 17 10  1  0
 18 12  1  0
 19 11  1  0
 21 25  1  0
 22 20  1  0
 23 22  1  0
 24 20  1  0
 25 24  1  0
 21 23  1  0
 27 26  1  0
 28 26  1  0
 29 26  1  0
 30 28  1  0
 31 27  1  0
 32 29  2  0
 33 31  2  0
 34 30  2  0
 35 26  1  0
 36 29  1  0
 37 31  1  0
 38 30  1  0
 40 44  1  0
 41 39  1  0
 42 41  1  0
 43 39  1  0
 44 43  1  0
 40 42  1  0
  1 45  1  0
  2 46  1  0
  3 47  1  0
  3 48  1  0
  4 49  1  0
  4 50  1  0
  5 51  1  0
  5 52  1  0
  6 53  1  0
  6 54  1  0
  8 55  1  0
  8 56  1  0
  9 57  1  0
  9 58  1  0
 16 59  1  0
 17 60  1  0
 18 61  1  0
 19 62  1  0
 20 63  1  0
 21 64  1  0
 22 65  1  0
 22 66  1  0
 23 67  1  0
 23 68  1  0
 24 69  1  0
 24 70  1  0
 25 71  1  0
 25 72  1  0
 27 73  1  0
 27 74  1  0
 28 75  1  0
 28 76  1  0
 35 77  1  0
 36 78  1  0
 37 79  1  0
 38 80  1  0
 39 81  1  0
 40 82  1  0
 41 83  1  0
 41 84  1  0
 42 85  1  0
 42 86  1  0
 43 87  1  0
 43 88  1  0
 44 89  1  0
 44 90  1  0
M  END
> <Uni-Dock RESULT> 
ENERGY=   -8.116  LOWER_BOUND=    1.511  UPPER_BOUND=    3.132
INTER + INTRA:          -8.116
INTER:                  -8.116
INTRA:                   0.000
UNBOUND:                 0.000

$$$$

     RDKit          3D

 90 88  0  0  0  0  0  0  0  0999 V2000
   44.0106    5.1417   12.3311 N   0  0  0  0  0  0  0  0  0  0  0  0
   46.7878    6.1224   12.7302 N   0  0  0  0  0  0  0  0  0  0  0  0
   44.5279    6.3400   11.6468 C   0  0  0  0  0  0  0  0  0  0  0  0
   45.6697    7.0311   12.4226 C   0  0  0  0  0  0  0  0  0  0  0  0
   45.1289    4.2315   12.6358 C   0  0  0  0  0  0  0  0  0  0  0  0
   46.2723    4.9214   13.4105 C   0  0  0  0  0  0  0  0  0  0  0  0
   45.3021    5.9643   12.3748 C   0  0  0  0  0  0  0  0  0  0  0  0
   45.9821    4.6665   12.8341 C   0  0  0  0  0  0  0  0  0  0  0  0
   44.2032    5.7363   11.3307 C   0  0  0  0  0  0  0  0  0  0  0  0
   46.3412    6.8679   11.6857 C   0  0  0  0  0  0  0  0  0  0  0  0
   43.1366    4.7925   11.7985 C   0  0  0  0  0  0  0  0  0  0  0  0
   47.2283    4.9306   13.6341 C   0  0  0  0  0  0  0  0  0  0  0  0
   47.0591    6.5591   10.7482 O   0  0  0  0  0  0  0  0  0  0  0  0
   47.5647    5.9859   14.1443 O   0  0  0  0  0  0  0  0  0  0  0  0
   43.2727    3.5962   11.9951 O   0  0  0  0  0  0  0  0  0  0  0  0
   44.6988    6.6068   13.5056 O   0  0  0  0  0  0  0  0  0  0  0  0
   46.4126    8.0992   12.2346 O   0  0  0  0  0  0  0  0  0  0  0  0
   47.9843    3.8269   13.7780 O   0  0  0  0  0  0  0  0  0  0  0  0
   41.9406    5.3828   11.9668 O   0  0  0  0  0  0  0  0  0  0  0  0
   46.8438    5.8101   12.0494 N   0  0  0  0  0  0  0  0  0  0  0  0
   44.0758    5.5581   13.0911 N   0  0  0  0  0  0  0  0  0  0  0  0
   45.8466    6.8870   11.9043 C   0  0  0  0  0  0  0  0  0  0  0  0
   44.3935    6.3636   11.9039 C   0  0  0  0  0  0  0  0  0  0  0  0
   46.5276    5.0369   13.2646 C   0  0  0  0  0  0  0  0  0  0  0  0
   45.0795    4.5012   13.2778 C   0  0  0  0  0  0  0  0  0  0  0  0
   45.2785    6.0639   12.6545 C   0  0  0  0  0  0  0  0  0  0  0  0
   44.7739    6.4331   11.2519 C   0  0  0  0  0  0  0  0  0  0  0  0
   45.6914    4.5916   12.7856 C   0  0  0  0  0  0  0  0  0  0  0  0
   46.4621    7.0058   12.9350 C   0  0  0  0  0  0  0  0  0  0  0  0
   46.4084    4.3135   14.0769 C   0  0  0  0  0  0  0  0  0  0  0  0
   43.6618    5.5484   10.7763 C   0  0  0  0  0  0  0  0  0  0  0  0
   46.4456    7.9648   13.6903 O   0  0  0  0  0  0  0  0  0  0  0  0
   43.7682    4.3760   10.4575 O   0  0  0  0  0  0  0  0  0  0  0  0
   46.5240    5.0609   15.0324 O   0  0  0  0  0  0  0  0  0  0  0  0
   44.2083    6.3315   13.5746 O   0  0  0  0  0  0  0  0  0  0  0  0
   47.5791    6.6997   12.2471 O   0  0  0  0  0  0  0  0  0  0  0  0
   42.4768    6.1775   10.6933 O   0  0  0  0  0  0  0  0  0  0  0  0
   46.9333    3.0746   14.1076 O   0  0  0  0  0  0  0  0  0  0  0  0
   45.5239    7.1115   12.5884 N   0  0  0  0  0  0  0  0  0  0  0  0
   45.2752    4.1522   12.4705 N   0  0  0  0  0  0  0  0  0  0  0  0
   46.6712    6.2162   12.8241 C   0  0  0  0  0  0  0  0  0  0  0  0
   46.2524    4.8248   13.3450 C   0  0  0  0  0  0  0  0  0  0  0  0
   44.5489    6.4387   11.7123 C   0  0  0  0  0  0  0  0  0  0  0  0
   44.1289    5.0480   12.2349 C   0  0  0  0  0  0  0  0  0  0  0  0
   43.6054    5.4432   13.2192 H   0  0  0  0  0  0  0  0  0  0  0  0
   47.1989    5.8245   11.8446 H   0  0  0  0  0  0  0  0  0  0  0  0
   43.7039    7.0484   11.5079 H   0  0  0  0  0  0  0  0  0  0  0  0
   44.8735    6.0625   10.6430 H   0  0  0  0  0  0  0  0  0  0  0  0
   45.2830    7.4543   13.3580 H   0  0  0  0  0  0  0  0  0  0  0  0
   46.0511    7.8718   11.8327 H   0  0  0  0  0  0  0  0  0  0  0  0
   45.5164    3.8104   11.6995 H   0  0  0  0  0  0  0  0  0  0  0  0
   44.7466    3.3914   13.2267 H   0  0  0  0  0  0  0  0  0  0  0  0
   45.9262    5.1990   14.4136 H   0  0  0  0  0  0  0  0  0  0  0  0
   47.0975    4.2135   13.5478 H   0  0  0  0  0  0  0  0  0  0  0  0
   45.3173    4.0851   13.4816 H   0  0  0  0  0  0  0  0  0  0  0  0
   46.2665    4.0642   11.9627 H   0  0  0  0  0  0  0  0  0  0  0  0
   44.6078    5.3313   10.3954 H   0  0  0  0  0  0  0  0  0  0  0  0
   43.7295    6.6910   11.0703 H   0  0  0  0  0  0  0  0  0  0  0  0
   45.3950    7.1751   13.8984 H   0  0  0  0  0  0  0  0  0  0  0  0
   47.1293    8.5513   11.7412 H   0  0  0  0  0  0  0  0  0  0  0  0
   48.7473    4.1126   14.3212 H   0  0  0  0  0  0  0  0  0  0  0  0
   41.3570    4.6678   12.2955 H   0  0  0  0  0  0  0  0  0  0  0  0
   46.7535    5.1878   11.2463 H   0  0  0  0  0  0  0  0  0  0  0  0
   43.1526    5.1398   12.9854 H   0  0  0  0  0  0  0  0  0  0  0  0
   46.0390    7.4174   10.9653 H   0  0  0  0  0  0  0  0  0  0  0  0
   45.9817    7.6177   12.7121 H   0  0  0  0  0  0  0  0  0  0  0  0
   44.2199    5.7644   11.0012 H   0  0  0  0  0  0  0  0  0  0  0  0
   43.7063    7.2157   11.8616 H   0  0  0  0  0  0  0  0  0  0  0  0
   46.7009    5.6644   14.1475 H   0  0  0  0  0  0  0  0  0  0  0  0
   47.2252    4.1944   13.3341 H   0  0  0  0  0  0  0  0  0  0  0  0
   44.8914    4.0028   14.2348 H   0  0  0  0  0  0  0  0  0  0  0  0
   44.9621    3.7457   12.4909 H   0  0  0  0  0  0  0  0  0  0  0  0
   45.5722    6.3793   10.5005 H   0  0  0  0  0  0  0  0  0  0  0  0
   44.4174    7.4729   11.2423 H   0  0  0  0  0  0  0  0  0  0  0  0
   44.8092    3.9427   12.7787 H   0  0  0  0  0  0  0  0  0  0  0  0
   46.3586    4.3103   11.9633 H   0  0  0  0  0  0  0  0  0  0  0  0
   44.6178    6.6659   14.4016 H   0  0  0  0  0  0  0  0  0  0  0  0
   48.2315    7.3708   12.5437 H   0  0  0  0  0  0  0  0  0  0  0  0
   41.8471    5.4846   10.4058 H   0  0  0  0  0  0  0  0  0  0  0  0
   47.3342    2.9978   14.9980 H   0  0  0  0  0  0  0  0  0  0  0  0
   45.0700    7.2748   13.4893 H   0  0  0  0  0  0  0  0  0  0  0  0
   45.7283    3.9834   11.5715 H   0  0  0  0  0  0  0  0  0  0  0  0
   47.2404    6.1092   11.8915 H   0  0  0  0  0  0  0  0  0  0  0  0
   47.3417    6.6882   13.5513 H   0  0  0  0  0  0  0  0  0  0  0  0
   47.1403    4.1887   13.4353 H   0  0  0  0  0  0  0  0  0  0  0  0
   45.8274    4.9183   14.3523 H   0  0  0  0  0  0  0  0  0  0  0  0
   43.6614    7.0739   11.6212 H   0  0  0  0  0  0  0  0  0  0  0  0
   44.9737    6.3454   10.7050 H   0  0  0  0  0  0  0  0  0  0  0  0
   43.5603    5.1572   13.1669 H   0  0  0  0  0  0  0  0  0  0  0  0
   43.4557    4.5765   11.5103 H   0  0  0  0  0  0  0  0  0  0  0  0
  2  6  1  0
  3  1  1  0
  4  3  1  0
  5  1  1  0
  6  5  1  0
  2  4  1  0
  8  7  1  0
  9  7  1  0
 10  7  1  0
 11  9  1  0
 12  8  1  0
 13 10  2  0
 14 12  2  0
 15 11  2  0
 16  7  1  0
 17 10  1  0
 18 12  1  0
 19 11  1  0
 21 25  1  0
 22 20  1  0
 23 22  1  0
 24 20  1  0
 25 24  1  0
 21 23  1  0
 27 26  1  0
 28 26  1  0
 29 26  1  0
 30 28  1  0
 31 27  1  0
 32 29  2  0
 33 31  2  0
 34 30  2  0
 35 26  1  0
 36 29  1  0
 37 31  1  0
 38 30  1  0
 40 44  1  0
 41 39  1  0
 42 41  1  0
 43 39  1  0
 44 43  1  0
 40 42  1  0
  1 45  1  0
  2 46  1  0
  3 47  1  0
  3 48  1  0
  4 49  1  0
  4 50  1  0
  5 51  1  0
  5 52  1  0
  6 53  1  0
  6 54  1  0
  8 55  1  0
  8 56  1  0
  9 57  1  0
  9 58  1  0
 16 59  1  0
 17 60  1  0
 18 61  1  0
 19 62  1  0
 20 63  1  0
 21 64  1  0
 22 65  1  0
 22 66  1  0
 23 67  1  0
 23 68  1  0
 24 69  1  0
 24 70  1  0
 25 71  1  0
 25 72  1  0
 27 73  1  0
 27 74  1  0
 28 75  1  0
 28 76  1  0
 35 77  1  0
 36 78  1  0
 37 79  1  0
 38 80  1  0
 39 81  1  0
 40 82  1  0
 41 83  1  0
 41 84  1  0
 42 85  1  0
 42 86  1  0
 43 87  1  0
 43 88  1  0
 44 89  1  0
 44 90  1  0
M  END
> <Uni-Dock RESULT> 
ENERGY=   -7.693  LOWER_BOUND=    2.224  UPPER_BOUND=    4.199
INTER + INTRA:          -7.693
INTER:                  -7.693
INTRA:                   0.000
UNBOUND:                 0.000

$$$$

     RDKit          3D

 90 88  0  0  0  0  0  0  0  0999 V2000
   46.7971    7.4272   12.6122 N   0  0  0  0  0  0  0  0  0  0  0  0
   45.1780    4.9476   12.8651 N   0  0  0  0  0  0  0  0  0  0  0  0
   45.4291    7.3224   12.0742 C   0  0  0  0  0  0  0  0  0  0  0  0
   45.0271    5.8725   11.7284 C   0  0  0  0  0  0  0  0  0  0  0  0
   46.9466    6.5042   13.7514 C   0  0  0  0  0  0  0  0  0  0  0  0
   46.5437    5.0539   13.4076 C   0  0  0  0  0  0  0  0  0  0  0  0
   45.7496    6.3181   12.4734 C   0  0  0  0  0  0  0  0  0  0  0  0
   46.4289    5.6765   13.6917 C   0  0  0  0  0  0  0  0  0  0  0  0
   45.6974    7.8485   12.5444 C   0  0  0  0  0  0  0  0  0  0  0  0
   44.2808    5.8604   12.4090 C   0  0  0  0  0  0  0  0  0  0  0  0
   47.0498    8.4744   12.7062 C   0  0  0  0  0  0  0  0  0  0  0  0
   46.2223    4.1873   13.7385 C   0  0  0  0  0  0  0  0  0  0  0  0
   43.4527    5.9609   13.3000 O   0  0  0  0  0  0  0  0  0  0  0  0
   45.8379    3.4694   12.8307 O   0  0  0  0  0  0  0  0  0  0  0  0
   47.7619    8.3992   13.6940 O   0  0  0  0  0  0  0  0  0  0  0  0
   46.4739    5.9638   11.2880 O   0  0  0  0  0  0  0  0  0  0  0  0
   43.9582    5.2951   11.2263 O   0  0  0  0  0  0  0  0  0  0  0  0
   46.5439    3.6660   14.9365 O   0  0  0  0  0  0  0  0  0  0  0  0
   47.4346    9.1932   11.6374 O   0  0  0  0  0  0  0  0  0  0  0  0
   44.8525    5.3833   13.3833 N   0  0  0  0  0  0  0  0  0  0  0  0
   47.0610    6.8357   12.0328 N   0  0  0  0  0  0  0  0  0  0  0  0
   44.6630    6.0908   12.1032 C   0  0  0  0  0  0  0  0  0  0  0  0
   45.6584    7.2555   11.9078 C   0  0  0  0  0  0  0  0  0  0  0  0
   46.2563    4.9402   13.4724 C   0  0  0  0  0  0  0  0  0  0  0  0
   47.2650    6.0939   13.2848 C   0  0  0  0  0  0  0  0  0  0  0  0
   45.8989    6.1433   12.2842 C   0  0  0  0  0  0  0  0  0  0  0  0
   44.9878    7.3786   12.2391 C   0  0  0  0  0  0  0  0  0  0  0  0
   46.5789    5.9368   13.6445 C   0  0  0  0  0  0  0  0  0  0  0  0
   45.0024    4.9481   11.9177 C   0  0  0  0  0  0  0  0  0  0  0  0
   47.2605    4.6010   13.7441 C   0  0  0  0  0  0  0  0  0  0  0  0
   45.6850    8.6379   12.6560 C   0  0  0  0  0  0  0  0  0  0  0  0
   45.0109    4.3515   10.8526 O   0  0  0  0  0  0  0  0  0  0  0  0
   46.0459    8.9135   13.7880 O   0  0  0  0  0  0  0  0  0  0  0  0
   47.4553    3.8031   12.8438 O   0  0  0  0  0  0  0  0  0  0  0  0
   46.9104    6.3252   11.2804 O   0  0  0  0  0  0  0  0  0  0  0  0
   44.1476    4.5865   12.8941 O   0  0  0  0  0  0  0  0  0  0  0  0
   45.8714    9.5049   11.6460 O   0  0  0  0  0  0  0  0  0  0  0  0
   47.6910    4.3444   14.9932 O   0  0  0  0  0  0  0  0  0  0  0  0
   45.1689    5.8657   11.5411 N   0  0  0  0  0  0  0  0  0  0  0  0
   46.8043    6.5101   13.9377 N   0  0  0  0  0  0  0  0  0  0  0  0
   45.2489    4.9632   12.7041 C   0  0  0  0  0  0  0  0  0  0  0  0
   46.5607    5.1236   13.5019 C   0  0  0  0  0  0  0  0  0  0  0  0
   45.4105    7.2517   11.9787 C   0  0  0  0  0  0  0  0  0  0  0  0
   46.7235    7.4118   12.7748 C   0  0  0  0  0  0  0  0  0  0  0  0
   47.4417    7.1233   11.8802 H   0  0  0  0  0  0  0  0  0  0  0  0
   44.5302    5.2449   13.5959 H   0  0  0  0  0  0  0  0  0  0  0  0
   45.3572    7.9426   11.1741 H   0  0  0  0  0  0  0  0  0  0  0  0
   44.7217    7.7426   12.8001 H   0  0  0  0  0  0  0  0  0  0  0  0
   45.6295    5.5086   10.8868 H   0  0  0  0  0  0  0  0  0  0  0  0
   43.9831    5.8557   11.3967 H   0  0  0  0  0  0  0  0  0  0  0  0
   46.3421    6.8678   14.5919 H   0  0  0  0  0  0  0  0  0  0  0  0
   47.9914    6.5209   14.0818 H   0  0  0  0  0  0  0  0  0  0  0  0
   47.2509    4.6345   12.6817 H   0  0  0  0  0  0  0  0  0  0  0  0
   46.6137    4.4338   14.3084 H   0  0  0  0  0  0  0  0  0  0  0  0
   47.5119    5.8369   13.6647 H   0  0  0  0  0  0  0  0  0  0  0  0
   46.0171    6.0996   14.6160 H   0  0  0  0  0  0  0  0  0  0  0  0
   45.0765    8.1965   13.3786 H   0  0  0  0  0  0  0  0  0  0  0  0
   45.2375    8.2507   11.6331 H   0  0  0  0  0  0  0  0  0  0  0  0
   46.0948    5.1125   10.9824 H   0  0  0  0  0  0  0  0  0  0  0  0
   43.0250    5.0130   11.3306 H   0  0  0  0  0  0  0  0  0  0  0  0
   46.3871    2.7039   14.8436 H   0  0  0  0  0  0  0  0  0  0  0  0
   48.3313    9.5145   11.8663 H   0  0  0  0  0  0  0  0  0  0  0  0
   44.6823    6.0479   14.1381 H   0  0  0  0  0  0  0  0  0  0  0  0
   47.6674    7.6546   12.0164 H   0  0  0  0  0  0  0  0  0  0  0  0
   43.6400    6.4811   12.0676 H   0  0  0  0  0  0  0  0  0  0  0  0
   44.7561    5.3754   11.2761 H   0  0  0  0  0  0  0  0  0  0  0  0
   45.4484    8.0441   12.6414 H   0  0  0  0  0  0  0  0  0  0  0  0
   45.5081    7.6918   10.9144 H   0  0  0  0  0  0  0  0  0  0  0  0
   46.4375    4.1608   12.7220 H   0  0  0  0  0  0  0  0  0  0  0  0
   46.4149    4.4772   14.4531 H   0  0  0  0  0  0  0  0  0  0  0  0
   48.2810    5.6847   13.2895 H   0  0  0  0  0  0  0  0  0  0  0  0
   47.1909    6.7857   14.1332 H   0  0  0  0  0  0  0  0  0  0  0  0
   44.1103    7.2660   12.8889 H   0  0  0  0  0  0  0  0  0  0  0  0
   44.5962    7.5201   11.2218 H   0  0  0  0  0  0  0  0  0  0  0  0
   47.3569    6.6908   13.8039 H   0  0  0  0  0  0  0  0  0  0  0  0
   45.8398    5.9980   14.4509 H   0  0  0  0  0  0  0  0  0  0  0  0
   47.0953    5.4413   10.8959 H   0  0  0  0  0  0  0  0  0  0  0  0
   43.6687    3.8168   12.5168 H   0  0  0  0  0  0  0  0  0  0  0  0
   46.3571   10.2544   12.0481 H   0  0  0  0  0  0  0  0  0  0  0  0
   48.1449    3.4791   14.9255 H   0  0  0  0  0  0  0  0  0  0  0  0
   45.9207    5.6081   10.8986 H   0  0  0  0  0  0  0  0  0  0  0  0
   46.0572    6.7679   14.5839 H   0  0  0  0  0  0  0  0  0  0  0  0
   44.3886    5.1469   13.3608 H   0  0  0  0  0  0  0  0  0  0  0  0
   45.1632    3.9287   12.3526 H   0  0  0  0  0  0  0  0  0  0  0  0
   46.5290    4.4770   14.3863 H   0  0  0  0  0  0  0  0  0  0  0  0
   47.4086    4.7847   12.8935 H   0  0  0  0  0  0  0  0  0  0  0  0
   45.4419    7.8985   11.0955 H   0  0  0  0  0  0  0  0  0  0  0  0
   44.5625    7.5907   12.5868 H   0  0  0  0  0  0  0  0  0  0  0  0
   47.5820    7.2278   12.1168 H   0  0  0  0  0  0  0  0  0  0  0  0
   46.8121    8.4467   13.1237 H   0  0  0  0  0  0  0  0  0  0  0  0
  2  6  1  0
  3  1  1  0
  4  3  1  0
  5  1  1  0
  6  5  1  0
  2  4  1  0
  8  7  1  0
  9  7  1  0
 10  7  1  0
 11  9  1  0
 12  8  1  0
 13 10  2  0
 14 12  2  0
 15 11  2  0
 16  7  1  0
 17 10  1  0
 18 12  1  0
 19 11  1  0
 21 25  1  0
 22 20  1  0
 23 22  1  0
 24 20  1  0
 25 24  1  0
 21 23  1  0
 27 26  1  0
 28 26  1  0
 29 26  1  0
 30 28  1  0
 31 27  1  0
 32 29  2  0
 33 31  2  0
 34 30  2  0
 35 26  1  0
 36 29  1  0
 37 31  1  0
 38 30  1  0
 40 44  1  0
 41 39  1  0
 42 41  1  0
 43 39  1  0
 44 43  1  0
 40 42  1  0
  1 45  1  0
  2 46  1  0
  3 47  1  0
  3 48  1  0
  4 49  1  0
  4 50  1  0
  5 51  1  0
  5 52  1  0
  6 53  1  0
  6 54  1  0
  8 55  1  0
  8 56  1  0
  9 57  1  0
  9 58  1  0
 16 59  1  0
 17 60  1  0
 18 61  1  0
 19 62  1  0
 20 63  1  0
 21 64  1  0
 22 65  1  0
 22 66  1  0
 23 67  1  0
 23 68  1  0
 24 69  1  0
 24 70  1  0
 25 71  1  0
 25 72  1  0
 27 73  1  0
 27 74  1  0
 28 75  1  0
 28 76  1  0
 35 77  1  0
 36 78  1  0
 37 79  1  0
 38 80  1  0
 39 81  1  0
 40 82  1  0
 41 83  1  0
 41 84  1  0
 42 85  1  0
 42 86  1  0
 43 87  1  0
 43 88  1  0
 44 89  1  0
 44 90  1  0
M  END
> <Uni-Dock RESULT> 
ENERGY=   -7.280  LOWER_BOUND=    2.790  UPPER_BOUND=    4.618
INTER + INTRA:          -7.280
INTER:                  -7.280
INTRA:                   0.000
UNBOUND:                 0.000

$$$$

     RDKit          3D

 90 88  0  0  0  0  0  0  0  0999 V2000
   46.2441    5.8078   12.1660 N   0  0  0  0  0  0  0  0  0  0  0  0
   43.4505    4.8190   11.9381 N   0  0  0  0  0  0  0  0  0  0  0  0
   45.0875    6.7201   12.1236 C   0  0  0  0  0  0  0  0  0  0  0  0
   43.8721    6.1182   11.3861 C   0  0  0  0  0  0  0  0  0  0  0  0
   45.8226    4.5093   12.7213 C   0  0  0  0  0  0  0  0  0  0  0  0
   44.6064    3.9066   11.9856 C   0  0  0  0  0  0  0  0  0  0  0  0
   44.7334    5.6629   11.9573 C   0  0  0  0  0  0  0  0  0  0  0  0
   44.9047    4.2424   12.5145 C   0  0  0  0  0  0  0  0  0  0  0  0
   45.6333    6.6962   12.6445 C   0  0  0  0  0  0  0  0  0  0  0  0
   43.2919    6.1402   12.2128 C   0  0  0  0  0  0  0  0  0  0  0  0
   47.0886    6.3428   12.5782 C   0  0  0  0  0  0  0  0  0  0  0  0
   43.8286    3.3091   12.0311 C   0  0  0  0  0  0  0  0  0  0  0  0
   42.7214    6.1718   13.2913 O   0  0  0  0  0  0  0  0  0  0  0  0
   43.0631    3.4894   11.0991 O   0  0  0  0  0  0  0  0  0  0  0  0
   47.6278    5.4116   13.1530 O   0  0  0  0  0  0  0  0  0  0  0  0
   45.0593    5.6648   10.5612 O   0  0  0  0  0  0  0  0  0  0  0  0
   42.6622    6.5357   11.0860 O   0  0  0  0  0  0  0  0  0  0  0  0
   43.7910    2.1654   12.7388 O   0  0  0  0  0  0  0  0  0  0  0  0
   47.8079    7.1906   11.8225 O   0  0  0  0  0  0  0  0  0  0  0  0
   43.4734    5.0142   12.6631 N   0  0  0  0  0  0  0  0  0  0  0  0
   46.0755    5.5699   11.3473 N   0  0  0  0  0  0  0  0  0  0  0  0
   43.7277    6.2596   11.9151 C   0  0  0  0  0  0  0  0  0  0  0  0
   45.2234    6.6429   11.8780 C   0  0  0  0  0  0  0  0  0  0  0  0
   44.3113    3.9433   12.0921 C   0  0  0  0  0  0  0  0  0  0  0  0
   45.8110    4.3082   12.0528 C   0  0  0  0  0  0  0  0  0  0  0  0
   44.7395    5.5652   11.6761 C   0  0  0  0  0  0  0  0  0  0  0  0
   44.7777    6.8998   12.4348 C   0  0  0  0  0  0  0  0  0  0  0  0
   45.1817    4.3673   12.5274 C   0  0  0  0  0  0  0  0  0  0  0  0
   43.2896    5.4023   11.1882 C   0  0  0  0  0  0  0  0  0  0  0  0
   44.9019    3.0540   11.8524 C   0  0  0  0  0  0  0  0  0  0  0  0
   46.1107    7.1828   13.0581 C   0  0  0  0  0  0  0  0  0  0  0  0
   42.9048    5.5448   10.0384 O   0  0  0  0  0  0  0  0  0  0  0  0
   46.5917    6.5965   14.0133 O   0  0  0  0  0  0  0  0  0  0  0  0
   44.5444    2.8777   10.7007 O   0  0  0  0  0  0  0  0  0  0  0  0
   45.6254    5.6905   10.5522 O   0  0  0  0  0  0  0  0  0  0  0  0
   42.4165    5.0880   12.1647 O   0  0  0  0  0  0  0  0  0  0  0  0
   46.7659    8.2031   12.4781 O   0  0  0  0  0  0  0  0  0  0  0  0
   45.1139    2.0081   12.6725 O   0  0  0  0  0  0  0  0  0  0  0  0
   43.9753    6.1379   11.1759 N   0  0  0  0  0  0  0  0  0  0  0  0
   45.7185    4.4897   12.9305 N   0  0  0  0  0  0  0  0  0  0  0  0
   43.5122    4.8768   11.7830 C   0  0  0  0  0  0  0  0  0  0  0  0
   44.6647    3.8963   12.0882 C   0  0  0  0  0  0  0  0  0  0  0  0
   45.0271    6.7311   12.0201 C   0  0  0  0  0  0  0  0  0  0  0  0
   46.1805    5.7506   12.3233 C   0  0  0  0  0  0  0  0  0  0  0  0
   46.5488    5.6494   11.2038 H   0  0  0  0  0  0  0  0  0  0  0  0
   43.1392    4.9752   12.8977 H   0  0  0  0  0  0  0  0  0  0  0  0
   45.3900    7.6479   11.6259 H   0  0  0  0  0  0  0  0  0  0  0  0
   44.8045    6.9933   13.1479 H   0  0  0  0  0  0  0  0  0  0  0  0
   44.1040    5.9976   10.3206 H   0  0  0  0  0  0  0  0  0  0  0  0
   43.0300    6.8165   11.4462 H   0  0  0  0  0  0  0  0  0  0  0  0
   45.5889    4.6314   13.7864 H   0  0  0  0  0  0  0  0  0  0  0  0
   46.6652    3.8112   12.6597 H   0  0  0  0  0  0  0  0  0  0  0  0
   44.8897    3.6341   10.9617 H   0  0  0  0  0  0  0  0  0  0  0  0
   44.3024    2.9795   12.4846 H   0  0  0  0  0  0  0  0  0  0  0  0
   45.8571    3.8085   12.1921 H   0  0  0  0  0  0  0  0  0  0  0  0
   44.8615    4.2624   13.6103 H   0  0  0  0  0  0  0  0  0  0  0  0
   45.3769    6.8194   13.7036 H   0  0  0  0  0  0  0  0  0  0  0  0
   45.4956    7.6809   12.1806 H   0  0  0  0  0  0  0  0  0  0  0  0
   44.2303    5.4383   10.0885 H   0  0  0  0  0  0  0  0  0  0  0  0
   41.7552    6.7694   11.3758 H   0  0  0  0  0  0  0  0  0  0  0  0
   43.0745    1.6384   12.3292 H   0  0  0  0  0  0  0  0  0  0  0  0
   48.7182    6.8291   11.8452 H   0  0  0  0  0  0  0  0  0  0  0  0
   43.7651    5.1626   13.6292 H   0  0  0  0  0  0  0  0  0  0  0  0
   47.0562    5.8246   11.4558 H   0  0  0  0  0  0  0  0  0  0  0  0
   43.1591    7.0707   12.3831 H   0  0  0  0  0  0  0  0  0  0  0  0
   43.3423    6.1539   10.8929 H   0  0  0  0  0  0  0  0  0  0  0  0
   45.5593    6.9073   12.8887 H   0  0  0  0  0  0  0  0  0  0  0  0
   45.3489    7.5343   11.2538 H   0  0  0  0  0  0  0  0  0  0  0  0
   43.9580    3.7087   11.0804 H   0  0  0  0  0  0  0  0  0  0  0  0
   44.1757    3.0361   12.6921 H   0  0  0  0  0  0  0  0  0  0  0  0
   46.3616    3.5039   11.5533 H   0  0  0  0  0  0  0  0  0  0  0  0
   46.1974    4.3770   13.0773 H   0  0  0  0  0  0  0  0  0  0  0  0
   44.0316    6.9369   13.2390 H   0  0  0  0  0  0  0  0  0  0  0  0
   44.5313    7.7267   11.7536 H   0  0  0  0  0  0  0  0  0  0  0  0
   46.2622    4.3981   12.7028 H   0  0  0  0  0  0  0  0  0  0  0  0
   44.6552    4.3701   13.4883 H   0  0  0  0  0  0  0  0  0  0  0  0
   45.2196    5.1926    9.8100 H   0  0  0  0  0  0  0  0  0  0  0  0
   41.5572    5.0059   11.6968 H   0  0  0  0  0  0  0  0  0  0  0  0
   47.6188    8.2551   12.9569 H   0  0  0  0  0  0  0  0  0  0  0  0
   44.9394    1.2197   12.1181 H   0  0  0  0  0  0  0  0  0  0  0  0
   44.3951    5.9094   10.2726 H   0  0  0  0  0  0  0  0  0  0  0  0
   45.3025    4.7141   13.8353 H   0  0  0  0  0  0  0  0  0  0  0  0
   42.9617    5.1034   12.7054 H   0  0  0  0  0  0  0  0  0  0  0  0
   42.8012    4.3983   11.0999 H   0  0  0  0  0  0  0  0  0  0  0  0
   44.2639    3.0120   12.5967 H   0  0  0  0  0  0  0  0  0  0  0  0
   45.1113    3.5452   11.1494 H   0  0  0  0  0  0  0  0  0  0  0  0
   45.4279    7.6151   11.5128 H   0  0  0  0  0  0  0  0  0  0  0  0
   44.5805    7.0825   12.9587 H   0  0  0  0  0  0  0  0  0  0  0  0
   46.7293    5.5254   11.4003 H   0  0  0  0  0  0  0  0  0  0  0  0
   46.8939    6.2292   13.0034 H   0  0  0  0  0  0  0  0  0  0  0  0
  2  6  1  0
  3  1  1  0
  4  3  1  0
  5  1  1  0
  6  5  1  0
  2  4  1  0
  8  7  1  0
  9  7  1  0
 10  7  1  0
 11  9  1  0
 12  8  1  0
 13 10  2  0
 14 12  2  0
 15 11  2  0
 16  7  1  0
 17 10  1  0
 18 12  1  0
 19 11  1  0
 21 25  1  0
 22 20  1  0
 23 22  1  0
 24 20  1  0
 25 24  1  0
 21 23  1  0
 27 26  1  0
 28 26  1  0
 29 26  1  0
 30 28  1  0
 31 27  1  0
 32 29  2  0
 33 31  2  0
 34 30  2  0
 35 26  1  0
 36 29  1  0
 37 31  1  0
 38 30  1  0
 40 44  1  0
 41 39  1  0
 42 41  1  0
 43 39  1  0
 44 43  1  0
 40 42  1  0
  1 45  1  0
  2 46  1  0
  3 47  1  0
  3 48  1  0
  4 49  1  0
  4 50  1  0
  5 51  1  0
  5 52  1  0
  6 53  1  0
  6 54  1  0
  8 55  1  0
  8 56  1  0
  9 57  1  0
  9 58  1  0
 16 59  1  0
 17 60  1  0
 18 61  1  0
 19 62  1  0
 20 63  1  0
 21 64  1  0
 22 65  1  0
 22 66  1  0
 23 67  1  0
 23 68  1  0
 24 69  1  0
 24 70  1  0
 25 71  1  0
 25 72  1  0
 27 73  1  0
 27 74  1  0
 28 75  1  0
 28 76  1  0
 35 77  1  0
 36 78  1  0
 37 79  1  0
 38 80  1  0
 39 81  1  0
 40 82  1  0
 41 83  1  0
 41 84  1  0
 42 85  1  0
 42 86  1  0
 43 87  1  0
 43 88  1  0
 44 89  1  0
 44 90  1  0
M  END
> <Uni-Dock RESULT> 
ENERGY=   -7.198  LOWER_BOUND=    1.791  UPPER_BOUND=    3.829
INTER + INTRA:          -7.198
INTER:                  -7.198
INTRA:                   0.000
UNBOUND:                 0.000

$$$$

     RDKit          3D

 90 88  0  0  0  0  0  0  0  0999 V2000
   45.6897    5.7189   12.4489 N   0  0  0  0  0  0  0  0  0  0  0  0
   47.0091    8.3394   12.9243 N   0  0  0  0  0  0  0  0  0  0  0  0
   47.0179    5.8284   13.0777 C   0  0  0  0  0  0  0  0  0  0  0  0
   47.7761    7.1085   12.6653 C   0  0  0  0  0  0  0  0  0  0  0  0
   44.9215    6.9490   12.7109 C   0  0  0  0  0  0  0  0  0  0  0  0
   45.6789    8.2302   12.3002 C   0  0  0  0  0  0  0  0  0  0  0  0
   46.6793    6.8504   12.7435 C   0  0  0  0  0  0  0  0  0  0  0  0
   45.4501    7.7701   12.7665 C   0  0  0  0  0  0  0  0  0  0  0  0
   46.4124    5.4664   13.3462 C   0  0  0  0  0  0  0  0  0  0  0  0
   47.7933    7.4668   13.6096 C   0  0  0  0  0  0  0  0  0  0  0  0
   45.2794    4.7454   12.6802 C   0  0  0  0  0  0  0  0  0  0  0  0
   45.8005    9.1950   12.4356 C   0  0  0  0  0  0  0  0  0  0  0  0
   47.6962    7.8062   14.7780 O   0  0  0  0  0  0  0  0  0  0  0  0
   46.8304    9.5987   11.9223 O   0  0  0  0  0  0  0  0  0  0  0  0
   44.1008    5.0556   12.7342 O   0  0  0  0  0  0  0  0  0  0  0  0
   47.0998    6.6582   11.3864 O   0  0  0  0  0  0  0  0  0  0  0  0
   48.9540    7.6242   12.9384 O   0  0  0  0  0  0  0  0  0  0  0  0
   44.8078   10.0486   12.7459 O   0  0  0  0  0  0  0  0  0  0  0  0
   45.6695    3.6505   12.0048 O   0  0  0  0  0  0  0  0  0  0  0  0
   46.7851    8.1648   13.6197 N   0  0  0  0  0  0  0  0  0  0  0  0
   46.0247    6.0253   11.7079 N   0  0  0  0  0  0  0  0  0  0  0  0
   47.7169    7.0907   13.2282 C   0  0  0  0  0  0  0  0  0  0  0  0
   46.9935    5.7987   12.7892 C   0  0  0  0  0  0  0  0  0  0  0  0
   45.8452    8.4003   12.5081 C   0  0  0  0  0  0  0  0  0  0  0  0
   45.1089    7.1191   12.0603 C   0  0  0  0  0  0  0  0  0  0  0  0
   46.7431    6.9242   12.4622 C   0  0  0  0  0  0  0  0  0  0  0  0
   47.1884    5.8987   13.5149 C   0  0  0  0  0  0  0  0  0  0  0  0
   45.3400    7.4907   12.7186 C   0  0  0  0  0  0  0  0  0  0  0  0
   47.8084    8.0338   12.4815 C   0  0  0  0  0  0  0  0  0  0  0  0
   45.0270    8.6619   11.8303 C   0  0  0  0  0  0  0  0  0  0  0  0
   46.2110    4.7766   13.6917 C   0  0  0  0  0  0  0  0  0  0  0  0
   48.6660    8.2128   11.6312 O   0  0  0  0  0  0  0  0  0  0  0  0
   45.1085    4.8639   14.2058 O   0  0  0  0  0  0  0  0  0  0  0  0
   45.6733    9.0575   10.8758 O   0  0  0  0  0  0  0  0  0  0  0  0
   46.7510    6.2571   11.1900 O   0  0  0  0  0  0  0  0  0  0  0  0
   47.7438    8.8347   13.5628 O   0  0  0  0  0  0  0  0  0  0  0  0
   46.6686    3.5942   13.2455 O   0  0  0  0  0  0  0  0  0  0  0  0
   43.8806    9.2725   12.1829 O   0  0  0  0  0  0  0  0  0  0  0  0
   47.8159    7.0286   12.4479 N   0  0  0  0  0  0  0  0  0  0  0  0
   44.8828    7.0294   12.9278 N   0  0  0  0  0  0  0  0  0  0  0  0
   47.0742    8.2583   12.7815 C   0  0  0  0  0  0  0  0  0  0  0  0
   45.5882    8.1962   12.3684 C   0  0  0  0  0  0  0  0  0  0  0  0
   47.1108    5.8633   13.0096 C   0  0  0  0  0  0  0  0  0  0  0  0
   45.6251    5.8007   12.5945 C   0  0  0  0  0  0  0  0  0  0  0  0
   45.8299    5.6500   11.4392 H   0  0  0  0  0  0  0  0  0  0  0  0
   46.8729    8.4143   13.9332 H   0  0  0  0  0  0  0  0  0  0  0  0
   47.6116    4.9507   12.8000 H   0  0  0  0  0  0  0  0  0  0  0  0
   46.9054    5.7967   14.1687 H   0  0  0  0  0  0  0  0  0  0  0  0
   48.0335    7.0632   11.5998 H   0  0  0  0  0  0  0  0  0  0  0  0
   48.7227    7.1613   13.2142 H   0  0  0  0  0  0  0  0  0  0  0  0
   44.6664    6.9945   13.7772 H   0  0  0  0  0  0  0  0  0  0  0  0
   43.9753    6.8958   12.1606 H   0  0  0  0  0  0  0  0  0  0  0  0
   45.7914    8.2613   11.2097 H   0  0  0  0  0  0  0  0  0  0  0  0
   45.0861    9.1085   12.5798 H   0  0  0  0  0  0  0  0  0  0  0  0
   44.7113    7.4535   12.0226 H   0  0  0  0  0  0  0  0  0  0  0  0
   44.9947    7.7616   13.7643 H   0  0  0  0  0  0  0  0  0  0  0  0
   46.1754    5.5266   14.4153 H   0  0  0  0  0  0  0  0  0  0  0  0
   47.3120    4.8434   13.2676 H   0  0  0  0  0  0  0  0  0  0  0  0
   47.7154    7.3950   11.1860 H   0  0  0  0  0  0  0  0  0  0  0  0
   49.5560    8.0585   13.5790 H   0  0  0  0  0  0  0  0  0  0  0  0
   45.1385   10.9296   12.4750 H   0  0  0  0  0  0  0  0  0  0  0  0
   44.8463    3.3017   11.6043 H   0  0  0  0  0  0  0  0  0  0  0  0
   46.2487    7.8381   14.4234 H   0  0  0  0  0  0  0  0  0  0  0  0
   45.4923    5.1728   11.5394 H   0  0  0  0  0  0  0  0  0  0  0  0
   48.3698    6.8670   14.0790 H   0  0  0  0  0  0  0  0  0  0  0  0
   48.3658    7.4504   12.4194 H   0  0  0  0  0  0  0  0  0  0  0  0
   46.4788    5.3557   13.6512 H   0  0  0  0  0  0  0  0  0  0  0  0
   47.7374    5.0700   12.4493 H   0  0  0  0  0  0  0  0  0  0  0  0
   46.3898    8.8330   11.6598 H   0  0  0  0  0  0  0  0  0  0  0  0
   45.1092    9.1480   12.8252 H   0  0  0  0  0  0  0  0  0  0  0  0
   44.4861    7.3506   11.1895 H   0  0  0  0  0  0  0  0  0  0  0  0
   44.4359    6.7860   12.8601 H   0  0  0  0  0  0  0  0  0  0  0  0
   47.3330    6.3584   14.5011 H   0  0  0  0  0  0  0  0  0  0  0  0
   48.1609    5.4699   13.2342 H   0  0  0  0  0  0  0  0  0  0  0  0
   44.5758    6.7345   12.5098 H   0  0  0  0  0  0  0  0  0  0  0  0
   45.2499    7.8240   13.7584 H   0  0  0  0  0  0  0  0  0  0  0  0
   47.0474    6.9138   10.5234 H   0  0  0  0  0  0  0  0  0  0  0  0
   48.4648    9.4855   13.4192 H   0  0  0  0  0  0  0  0  0  0  0  0
   45.9284    2.9698   13.3923 H   0  0  0  0  0  0  0  0  0  0  0  0
   43.7645    9.9832   11.5189 H   0  0  0  0  0  0  0  0  0  0  0  0
   47.8119    6.9325   11.4305 H   0  0  0  0  0  0  0  0  0  0  0  0
   44.8811    7.1260   13.9441 H   0  0  0  0  0  0  0  0  0  0  0  0
   47.1536    8.4437   13.8606 H   0  0  0  0  0  0  0  0  0  0  0  0
   47.5545    9.1056   12.2790 H   0  0  0  0  0  0  0  0  0  0  0  0
   45.0802    9.1081   12.7026 H   0  0  0  0  0  0  0  0  0  0  0  0
   45.5080    8.1731   11.2743 H   0  0  0  0  0  0  0  0  0  0  0  0
   47.6180    4.9516   12.6765 H   0  0  0  0  0  0  0  0  0  0  0  0
   47.1912    5.8862   14.1036 H   0  0  0  0  0  0  0  0  0  0  0  0
   45.5480    5.6154   11.5158 H   0  0  0  0  0  0  0  0  0  0  0  0
   45.1446    4.9517   13.0935 H   0  0  0  0  0  0  0  0  0  0  0  0
  2  6  1  0
  3  1  1  0
  4  3  1  0
  5  1  1  0
  6  5  1  0
  2  4  1  0
  8  7  1  0
  9  7  1  0
 10  7  1  0
 11  9  1  0
 12  8  1  0
 13 10  2  0
 14 12  2  0
 15 11  2  0
 16  7  1  0
 17 10  1  0
 18 12  1  0
 19 11  1  0
 21 25  1  0
 22 20  1  0
 23 22  1  0
 24 20  1  0
 25 24  1  0
 21 23  1  0
 27 26  1  0
 28 26  1  0
 29 26  1  0
 30 28  1  0
 31 27  1  0
 32 29  2  0
 33 31  2  0
 34 30  2  0
 35 26  1  0
 36 29  1  0
 37 31  1  0
 38 30  1  0
 40 44  1  0
 41 39  1  0
 42 41  1  0
 43 39  1  0
 44 43  1  0
 40 42  1  0
  1 45  1  0
  2 46  1  0
  3 47  1  0
  3 48  1  0
  4 49  1  0
  4 50  1  0
  5 51  1  0
  5 52  1  0
  6 53  1  0
  6 54  1  0
  8 55  1  0
  8 56  1  0
  9 57  1  0
  9 58  1  0
 16 59  1  0
 17 60  1  0
 18 61  1  0
 19 62  1  0
 20 63  1  0
 21 64  1  0
 22 65  1  0
 22 66  1  0
 23 67  1  0
 23 68  1  0
 24 69  1  0
 24 70  1  0
 25 71  1  0
 25 72  1  0
 27 73  1  0
 27 74  1  0
 28 75  1  0
 28 76  1  0
 35 77  1  0
 36 78  1  0
 37 79  1  0
 38 80  1  0
 39 81  1  0
 40 82  1  0
 41 83  1  0
 41 84  1  0
 42 85  1  0
 42 86  1  0
 43 87  1  0
 43 88  1  0
 44 89  1  0
 44 90  1  0
M  END
> <Uni-Dock RESULT> 
ENERGY=   -7.125  LOWER_BOUND=    3.486  UPPER_BOUND=    4.759
INTER + INTRA:          -7.125
INTER:                  -7.125
INTRA:                   0.000
UNBOUND:                 0.000

$$$$
