
     RDKit          3D

 90 88  0  0  0  0  0  0  0  0999 V2000
   43.6943    5.1245   12.9498 N   0  0  0  0  0  0  0  0  0  0  0  0
   44.6815    5.1687   10.3565 N   0  0  0  0  0  0  0  0  0  0  0  0
   44.3307    3.8679   12.5167 C   0  0  0  0  0  0  0  0  0  0  0  0
   44.6459    3.8408   11.0010 C   0  0  0  0  0  0  0  0  0  0  0  0
   44.5901    6.2544   12.6299 C   0  0  0  0  0  0  0  0  0  0  0  0
   45.3211    6.1315   11.2700 C   0  0  0  0  0  0  0  0  0  0  0  0
   44.6497    4.9431   11.9606 C   0  0  0  0  0  0  0  0  0  0  0  0
   43.6641    3.9074   12.5244 C   0  0  0  0  0  0  0  0  0  0  0  0
   44.6549    6.1608   12.8988 C   0  0  0  0  0  0  0  0  0  0  0  0
   44.1692    5.3875   10.5677 C   0  0  0  0  0  0  0  0  0  0  0  0
   45.5370    7.2802   12.4194 C   0  0  0  0  0  0  0  0  0  0  0  0
   43.6844    2.5621   11.8537 C   0  0  0  0  0  0  0  0  0  0  0  0
   43.0923    5.8927   10.2965 O   0  0  0  0  0  0  0  0  0  0  0  0
   43.4109    1.5046   12.4002 O   0  0  0  0  0  0  0  0  0  0  0  0
   45.8930    7.5163   11.2775 O   0  0  0  0  0  0  0  0  0  0  0  0
   45.9644    4.3792   11.9757 O   0  0  0  0  0  0  0  0  0  0  0  0
   45.1051    5.1665    9.6156 O   0  0  0  0  0  0  0  0  0  0  0  0
   43.9432    2.5839   10.5364 O   0  0  0  0  0  0  0  0  0  0  0  0
   45.8834    8.1117   13.4237 O   0  0  0  0  0  0  0  0  0  0  0  0
   44.7652    4.1233   10.6110 N   0  0  0  0  0  0  0  0  0  0  0  0
   44.5486    5.9186   13.0595 N   0  0  0  0  0  0  0  0  0  0  0  0
   44.3445    3.6568   11.9420 C   0  0  0  0  0  0  0  0  0  0  0  0
   43.6912    4.7470   12.8167 C   0  0  0  0  0  0  0  0  0  0  0  0
   45.0791    5.5613   10.6114 C   0  0  0  0  0  0  0  0  0  0  0  0
   45.5364    6.1000   11.9826 C   0  0  0  0  0  0  0  0  0  0  0  0
   44.6624    5.1106   11.5404 C   0  0  0  0  0  0  0  0  0  0  0  0
   44.2399    6.5749   11.7147 C   0  0  0  0  0  0  0  0  0  0  0  0
   43.5080    4.3229   10.8980 C   0  0  0  0  0  0  0  0  0  0  0  0
   45.0361    4.4538   12.8823 C   0  0  0  0  0  0  0  0  0  0  0  0
   43.7102    2.8359   10.9812 C   0  0  0  0  0  0  0  0  0  0  0  0
   45.2798    7.4035   12.4185 C   0  0  0  0  0  0  0  0  0  0  0  0
   46.0078    3.7398   13.0837 O   0  0  0  0  0  0  0  0  0  0  0  0
   46.0536    7.0462   13.2903 O   0  0  0  0  0  0  0  0  0  0  0  0
   42.9338    2.0341   11.4707 O   0  0  0  0  0  0  0  0  0  0  0  0
   45.7655    5.0987   10.6221 O   0  0  0  0  0  0  0  0  0  0  0  0
   44.1241    4.6630   13.8525 O   0  0  0  0  0  0  0  0  0  0  0  0
   45.2402    8.6958   12.0348 O   0  0  0  0  0  0  0  0  0  0  0  0
   44.8668    2.4269   10.4263 O   0  0  0  0  0  0  0  0  0  0  0  0
   44.1026    4.5497   13.1541 N   0  0  0  0  0  0  0  0  0  0  0  0
   45.1459    5.5277   10.4676 N   0  0  0  0  0  0  0  0  0  0  0  0
   44.3990    3.6635   12.0165 C   0  0  0  0  0  0  0  0  0  0  0  0
   44.2775    4.3503   10.6408 C   0  0  0  0  0  0  0  0  0  0  0  0
   44.4845    5.9437   12.8687 C   0  0  0  0  0  0  0  0  0  0  0  0
   45.5499    6.0969   11.7641 C   0  0  0  0  0  0  0  0  0  0  0  0
   42.8432    5.2381   12.4003 H   0  0  0  0  0  0  0  0  0  0  0  0
   43.7179    5.4734   10.2213 H   0  0  0  0  0  0  0  0  0  0  0  0
   43.6722    3.0299   12.7690 H   0  0  0  0  0  0  0  0  0  0  0  0
   45.2553    3.7236   13.0888 H   0  0  0  0  0  0  0  0  0  0  0  0
   43.8889    3.2424   10.4836 H   0  0  0  0  0  0  0  0  0  0  0  0
   45.6059    3.3388   10.8410 H   0  0  0  0  0  0  0  0  0  0  0  0
   43.9848    7.1678   12.6356 H   0  0  0  0  0  0  0  0  0  0  0  0
   45.3306    6.3648   13.4297 H   0  0  0  0  0  0  0  0  0  0  0  0
   46.3621    5.8266   11.4351 H   0  0  0  0  0  0  0  0  0  0  0  0
   45.3566    7.1134   10.7863 H   0  0  0  0  0  0  0  0  0  0  0  0
   42.6331    4.2791   12.4883 H   0  0  0  0  0  0  0  0  0  0  0  0
   43.9188    3.7143   13.5753 H   0  0  0  0  0  0  0  0  0  0  0  0
   45.0295    5.8513   13.8832 H   0  0  0  0  0  0  0  0  0  0  0  0
   43.6460    6.5707   13.0201 H   0  0  0  0  0  0  0  0  0  0  0  0
   46.2715    4.4098   11.0417 H   0  0  0  0  0  0  0  0  0  0  0  0
   44.7074    5.5350    8.7977 H   0  0  0  0  0  0  0  0  0  0  0  0
   43.8788    1.6431   10.2684 H   0  0  0  0  0  0  0  0  0  0  0  0
   46.4447    8.7905   12.9944 H   0  0  0  0  0  0  0  0  0  0  0  0
   44.0252    3.9485    9.9324 H   0  0  0  0  0  0  0  0  0  0  0  0
   43.9594    6.7467   13.1329 H   0  0  0  0  0  0  0  0  0  0  0  0
   43.6484    2.8193   11.8203 H   0  0  0  0  0  0  0  0  0  0  0  0
   45.2237    3.2544   12.4609 H   0  0  0  0  0  0  0  0  0  0  0  0
   43.4042    4.3202   13.7840 H   0  0  0  0  0  0  0  0  0  0  0  0
   42.7653    5.0817   12.3309 H   0  0  0  0  0  0  0  0  0  0  0  0
   45.8574    5.7475    9.8643 H   0  0  0  0  0  0  0  0  0  0  0  0
   44.1907    6.1195   10.2899 H   0  0  0  0  0  0  0  0  0  0  0  0
   45.7762    7.1659   11.8988 H   0  0  0  0  0  0  0  0  0  0  0  0
   46.4654    5.5958   12.2768 H   0  0  0  0  0  0  0  0  0  0  0  0
   44.0735    7.0184   10.7241 H   0  0  0  0  0  0  0  0  0  0  0  0
   43.3125    6.6645   12.2919 H   0  0  0  0  0  0  0  0  0  0  0  0
   43.3812    4.5855    9.8418 H   0  0  0  0  0  0  0  0  0  0  0  0
   42.5629    4.5416   11.4112 H   0  0  0  0  0  0  0  0  0  0  0  0
   46.0803    4.1724   10.5741 H   0  0  0  0  0  0  0  0  0  0  0  0
   44.5160    4.2263   14.6408 H   0  0  0  0  0  0  0  0  0  0  0  0
   45.9558    9.1205   12.5555 H   0  0  0  0  0  0  0  0  0  0  0  0
   44.8713    1.4546   10.5642 H   0  0  0  0  0  0  0  0  0  0  0  0
   43.1047    4.5220   13.3591 H   0  0  0  0  0  0  0  0  0  0  0  0
   44.6346    6.2283    9.9339 H   0  0  0  0  0  0  0  0  0  0  0  0
   43.7252    2.8006   12.0563 H   0  0  0  0  0  0  0  0  0  0  0  0
   45.4146    3.2662   12.1397 H   0  0  0  0  0  0  0  0  0  0  0  0
   44.5086    3.6305    9.8484 H   0  0  0  0  0  0  0  0  0  0  0  0
   43.2337    4.6578   10.4931 H   0  0  0  0  0  0  0  0  0  0  0  0
   44.8466    6.4012   13.7952 H   0  0  0  0  0  0  0  0  0  0  0  0
   43.5859    6.4989   12.5693 H   0  0  0  0  0  0  0  0  0  0  0  0
   46.4809    5.6111   12.0816 H   0  0  0  0  0  0  0  0  0  0  0  0
   45.7867    7.1582   11.6260 H   0  0  0  0  0  0  0  0  0  0  0  0
  2  6  1  0
  3  1  1  0
  4  3  1  0
  5  1  1  0
  6  5  1  0
  2  4  1  0
  8  7  1  0
  9  7  1  0
 10  7  1  0
 11  9  1  0
 12  8  1  0
 13 10  2  0
 14 12  2  0
 15 11  2  0
 16  7  1  0
 17 10  1  0
 18 12  1  0
 19 11  1  0
 21 25  1  0
 22 20  1  0
 23 22  1  0
 24 20  1  0
 25 24  1  0
 21 23  1  0
 27 26  1  0
 28 26  1  0
 29 26  1  0
 30 28  1  0
 31 27  1  0
 32 29  2  0
 33 31  2  0
 34 30  2  0
 35 26  1  0
 36 29  1  0
 37 31  1  0
 38 30  1  0
 40 44  1  0
 41 39  1  0
 42 41  1  0
 43 39  1  0
 44 43  1  0
 40 42  1  0
  1 45  1  0
  2 46  1  0
  3 47  1  0
  3 48  1  0
  4 49  1  0
  4 50  1  0
  5 51  1  0
  5 52  1  0
  6 53  1  0
  6 54  1  0
  8 55  1  0
  8 56  1  0
  9 57  1  0
  9 58  1  0
 16 59  1  0
 17 60  1  0
 18 61  1  0
 19 62  1  0
 20 63  1  0
 21 64  1  0
 22 65  1  0
 22 66  1  0
 23 67  1  0
 23 68  1  0
 24 69  1  0
 24 70  1  0
 25 71  1  0
 25 72  1  0
 27 73  1  0
 27 74  1  0
 28 75  1  0
 28 76  1  0
 35 77  1  0
 36 78  1  0
 37 79  1  0
 38 80  1  0
 39 81  1  0
 40 82  1  0
 41 83  1  0
 41 84  1  0
 42 85  1  0
 42 86  1  0
 43 87  1  0
 43 88  1  0
 44 89  1  0
 44 90  1  0
M  END
> <Uni-Dock RESULT> 
ENERGY=   -9.244  LOWER_BOUND=    0.000  UPPER_BOUND=    0.000
INTER + INTRA:          -9.244
INTER:                  -9.244
INTRA:                   0.000
UNBOUND:                 0.000

$$$$

     RDKit          3D

 90 88  0  0  0  0  0  0  0  0999 V2000
   45.1586    3.2336   11.6566 N   0  0  0  0  0  0  0  0  0  0  0  0
   44.0102    5.0846    9.9372 N   0  0  0  0  0  0  0  0  0  0  0  0
   43.7776    3.6141   12.0024 C   0  0  0  0  0  0  0  0  0  0  0  0
   43.2583    4.8186   11.1797 C   0  0  0  0  0  0  0  0  0  0  0  0
   45.2199    2.8911   10.2213 C   0  0  0  0  0  0  0  0  0  0  0  0
   44.3664    3.8025    9.3048 C   0  0  0  0  0  0  0  0  0  0  0  0
   44.1722    3.7362   10.8208 C   0  0  0  0  0  0  0  0  0  0  0  0
   44.2831    3.8821   12.3467 C   0  0  0  0  0  0  0  0  0  0  0  0
   45.1592    2.6472   10.3700 C   0  0  0  0  0  0  0  0  0  0  0  0
   44.5630    5.0696   10.1589 C   0  0  0  0  0  0  0  0  0  0  0  0
   45.1942    2.4531    8.8794 C   0  0  0  0  0  0  0  0  0  0  0  0
   43.2406    4.7526   12.9914 C   0  0  0  0  0  0  0  0  0  0  0  0
   45.6256    5.6571   10.2780 O   0  0  0  0  0  0  0  0  0  0  0  0
   42.8234    4.6158   14.1311 O   0  0  0  0  0  0  0  0  0  0  0  0
   44.8909    3.2550    8.0126 O   0  0  0  0  0  0  0  0  0  0  0  0
   42.8533    3.2854   10.4988 O   0  0  0  0  0  0  0  0  0  0  0  0
   43.5707    5.5565    9.3781 O   0  0  0  0  0  0  0  0  0  0  0  0
   42.8307    5.7961   12.2526 O   0  0  0  0  0  0  0  0  0  0  0  0
   45.6885    1.2439    8.5420 O   0  0  0  0  0  0  0  0  0  0  0  0
   43.2923    5.0501   10.7421 N   0  0  0  0  0  0  0  0  0  0  0  0
   45.1014    2.6032   10.6708 N   0  0  0  0  0  0  0  0  0  0  0  0
   43.5211    4.1590   11.8910 C   0  0  0  0  0  0  0  0  0  0  0  0
   44.8824    3.4331   11.8667 C   0  0  0  0  0  0  0  0  0  0  0  0
   44.0361    4.6070    9.5519 C   0  0  0  0  0  0  0  0  0  0  0  0
   44.3203    3.0912    9.5218 C   0  0  0  0  0  0  0  0  0  0  0  0
   44.1998    4.0643   10.5103 C   0  0  0  0  0  0  0  0  0  0  0  0
   45.5204    3.7756    9.7853 C   0  0  0  0  0  0  0  0  0  0  0  0
   44.3796    5.2892   11.4230 C   0  0  0  0  0  0  0  0  0  0  0  0
   43.7332    2.8668   11.3589 C   0  0  0  0  0  0  0  0  0  0  0  0
   43.2481    5.4499   12.3992 C   0  0  0  0  0  0  0  0  0  0  0  0
   45.4613    2.5366    8.9341 C   0  0  0  0  0  0  0  0  0  0  0  0
   42.5927    2.4303   11.4149 O   0  0  0  0  0  0  0  0  0  0  0  0
   44.8246    1.5181    9.1426 O   0  0  0  0  0  0  0  0  0  0  0  0
   43.3532    5.5220   13.6113 O   0  0  0  0  0  0  0  0  0  0  0  0
   43.2347    4.4054    9.5040 O   0  0  0  0  0  0  0  0  0  0  0  0
   44.7037    2.3564   12.1428 O   0  0  0  0  0  0  0  0  0  0  0  0
   46.2906    2.6129    7.8732 O   0  0  0  0  0  0  0  0  0  0  0  0
   42.0433    5.5341   11.8042 O   0  0  0  0  0  0  0  0  0  0  0  0
   44.5159    3.0040   11.9272 N   0  0  0  0  0  0  0  0  0  0  0  0
   43.9395    4.7123    9.4753 N   0  0  0  0  0  0  0  0  0  0  0  0
   43.5001    4.0688   11.8889 C   0  0  0  0  0  0  0  0  0  0  0  0
   43.8000    5.1823   10.8646 C   0  0  0  0  0  0  0  0  0  0  0  0
   45.1295    2.7928   10.6045 C   0  0  0  0  0  0  0  0  0  0  0  0
   44.2689    3.2782    9.4204 C   0  0  0  0  0  0  0  0  0  0  0  0
   45.7451    4.0540   11.8052 H   0  0  0  0  0  0  0  0  0  0  0  0
   44.8813    5.5475   10.1953 H   0  0  0  0  0  0  0  0  0  0  0  0
   43.7306    3.8524   13.0704 H   0  0  0  0  0  0  0  0  0  0  0  0
   43.1218    2.7492   11.8449 H   0  0  0  0  0  0  0  0  0  0  0  0
   43.3036    5.7240   11.7938 H   0  0  0  0  0  0  0  0  0  0  0  0
   42.2033    4.6593   10.9331 H   0  0  0  0  0  0  0  0  0  0  0  0
   46.2698    2.9468    9.9128 H   0  0  0  0  0  0  0  0  0  0  0  0
   44.9089    1.8493   10.0858 H   0  0  0  0  0  0  0  0  0  0  0  0
   43.4452    3.2805    9.0173 H   0  0  0  0  0  0  0  0  0  0  0  0
   44.9146    4.0015    8.3779 H   0  0  0  0  0  0  0  0  0  0  0  0
   45.2656    4.2722   12.6383 H   0  0  0  0  0  0  0  0  0  0  0  0
   44.1614    2.8914   12.8051 H   0  0  0  0  0  0  0  0  0  0  0  0
   44.8611    1.6891   10.8152 H   0  0  0  0  0  0  0  0  0  0  0  0
   46.1801    2.8813   10.6917 H   0  0  0  0  0  0  0  0  0  0  0  0
   42.4843    3.9695    9.8959 H   0  0  0  0  0  0  0  0  0  0  0  0
   43.9555    6.3654    8.9774 H   0  0  0  0  0  0  0  0  0  0  0  0
   42.1944    6.2615   12.8354 H   0  0  0  0  0  0  0  0  0  0  0  0
   45.6657    1.2369    7.5625 H   0  0  0  0  0  0  0  0  0  0  0  0
   43.5814    5.9989   10.9763 H   0  0  0  0  0  0  0  0  0  0  0  0
   46.0947    2.6110   10.4436 H   0  0  0  0  0  0  0  0  0  0  0  0
   43.4336    4.7419   12.8146 H   0  0  0  0  0  0  0  0  0  0  0  0
   42.7144    3.4156   11.9176 H   0  0  0  0  0  0  0  0  0  0  0  0
   44.9761    2.7964   12.7533 H   0  0  0  0  0  0  0  0  0  0  0  0
   45.6830    4.1818   11.9283 H   0  0  0  0  0  0  0  0  0  0  0  0
   43.4683    4.8931    8.6606 H   0  0  0  0  0  0  0  0  0  0  0  0
   44.9902    5.1472    9.5071 H   0  0  0  0  0  0  0  0  0  0  0  0
   44.8513    2.8337    8.5986 H   0  0  0  0  0  0  0  0  0  0  0  0
   43.3685    2.5461    9.4940 H   0  0  0  0  0  0  0  0  0  0  0  0
   45.7585    4.6220    9.1276 H   0  0  0  0  0  0  0  0  0  0  0  0
   46.3500    3.6430   10.4893 H   0  0  0  0  0  0  0  0  0  0  0  0
   44.4556    6.2153   10.8423 H   0  0  0  0  0  0  0  0  0  0  0  0
   45.2972    5.1926   12.0172 H   0  0  0  0  0  0  0  0  0  0  0  0
   42.3765    4.5131    9.9637 H   0  0  0  0  0  0  0  0  0  0  0  0
   44.2718    1.5907   12.5819 H   0  0  0  0  0  0  0  0  0  0  0  0
   46.1585    1.7596    7.4063 H   0  0  0  0  0  0  0  0  0  0  0  0
   41.4101    5.6202   12.5499 H   0  0  0  0  0  0  0  0  0  0  0  0
   45.2494    3.2538   12.5891 H   0  0  0  0  0  0  0  0  0  0  0  0
   44.6808    5.2482    9.0278 H   0  0  0  0  0  0  0  0  0  0  0  0
   43.4088    4.5059   12.8893 H   0  0  0  0  0  0  0  0  0  0  0  0
   42.5272    3.6143   11.6622 H   0  0  0  0  0  0  0  0  0  0  0  0
   43.0057    5.9357   10.8968 H   0  0  0  0  0  0  0  0  0  0  0  0
   44.7282    5.6898   11.1595 H   0  0  0  0  0  0  0  0  0  0  0  0
   45.3465    1.7259   10.4887 H   0  0  0  0  0  0  0  0  0  0  0  0
   46.0929    3.3185   10.5773 H   0  0  0  0  0  0  0  0  0  0  0  0
   43.3323    2.7078    9.3887 H   0  0  0  0  0  0  0  0  0  0  0  0
   44.7891    3.0707    8.4781 H   0  0  0  0  0  0  0  0  0  0  0  0
  2  6  1  0
  3  1  1  0
  4  3  1  0
  5  1  1  0
  6  5  1  0
  2  4  1  0
  8  7  1  0
  9  7  1  0
 10  7  1  0
 11  9  1  0
 12  8  1  0
 13 10  2  0
 14 12  2  0
 15 11  2  0
 16  7  1  0
 17 10  1  0
 18 12  1  0
 19 11  1  0
 21 25  1  0
 22 20  1  0
 23 22  1  0
 24 20  1  0
 25 24  1  0
 21 23  1  0
 27 26  1  0
 28 26  1  0
 29 26  1  0
 30 28  1  0
 31 27  1  0
 32 29  2  0
 33 31  2  0
 34 30  2  0
 35 26  1  0
 36 29  1  0
 37 31  1  0
 38 30  1  0
 40 44  1  0
 41 39  1  0
 42 41  1  0
 43 39  1  0
 44 43  1  0
 40 42  1  0
  1 45  1  0
  2 46  1  0
  3 47  1  0
  3 48  1  0
  4 49  1  0
  4 50  1  0
  5 51  1  0
  5 52  1  0
  6 53  1  0
  6 54  1  0
  8 55  1  0
  8 56  1  0
  9 57  1  0
  9 58  1  0
 16 59  1  0
 17 60  1  0
 18 61  1  0
 19 62  1  0
 20 63  1  0
 21 64  1  0
 22 65  1  0
 22 66  1  0
 23 67  1  0
 23 68  1  0
 24 69  1  0
 24 70  1  0
 25 71  1  0
 25 72  1  0
 27 73  1  0
 27 74  1  0
 28 75  1  0
 28 76  1  0
 35 77  1  0
 36 78  1  0
 37 79  1  0
 38 80  1  0
 39 81  1  0
 40 82  1  0
 41 83  1  0
 41 84  1  0
 42 85  1  0
 42 86  1  0
 43 87  1  0
 43 88  1  0
 44 89  1  0
 44 90  1  0
M  END
> <Uni-Dock RESULT> 
ENERGY=   -8.751  LOWER_BOUND=    1.607  UPPER_BOUND=    3.638
INTER + INTRA:          -8.751
INTER:                  -8.751
INTRA:                   0.000
UNBOUND:                 0.000

$$$$

     RDKit          3D

 90 88  0  0  0  0  0  0  0  0999 V2000
   45.6504    5.1776   10.4778 N   0  0  0  0  0  0  0  0  0  0  0  0
   44.4045    4.3957   12.8311 N   0  0  0  0  0  0  0  0  0  0  0  0
   44.4091    4.4071   10.2853 C   0  0  0  0  0  0  0  0  0  0  0  0
   43.8769    3.7801   11.5971 C   0  0  0  0  0  0  0  0  0  0  0  0
   45.4016    6.2574   11.4543 C   0  0  0  0  0  0  0  0  0  0  0  0
   44.4938    5.8542   12.6427 C   0  0  0  0  0  0  0  0  0  0  0  0
   44.5840    5.0357   11.3535 C   0  0  0  0  0  0  0  0  0  0  0  0
   44.9966    4.0995   10.2067 C   0  0  0  0  0  0  0  0  0  0  0  0
   45.3442    6.3615   11.1877 C   0  0  0  0  0  0  0  0  0  0  0  0
   44.9844    4.3945   12.6942 C   0  0  0  0  0  0  0  0  0  0  0  0
   45.0754    7.3461   12.2918 C   0  0  0  0  0  0  0  0  0  0  0  0
   44.1953    2.8334   10.0841 C   0  0  0  0  0  0  0  0  0  0  0  0
   46.1075    4.0611   13.0345 O   0  0  0  0  0  0  0  0  0  0  0  0
   43.9889    2.2354    9.0394 O   0  0  0  0  0  0  0  0  0  0  0  0
   44.7021    7.1125   13.4287 O   0  0  0  0  0  0  0  0  0  0  0  0
   43.1871    5.3194   11.2325 O   0  0  0  0  0  0  0  0  0  0  0  0
   43.9208    4.2340   13.5154 O   0  0  0  0  0  0  0  0  0  0  0  0
   43.7683    2.3124   11.2456 O   0  0  0  0  0  0  0  0  0  0  0  0
   45.3632    8.6102   11.9184 O   0  0  0  0  0  0  0  0  0  0  0  0
   43.8524    3.8397   12.0891 N   0  0  0  0  0  0  0  0  0  0  0  0
   45.3399    6.2204   10.9123 N   0  0  0  0  0  0  0  0  0  0  0  0
   44.1967    3.9758   10.6646 C   0  0  0  0  0  0  0  0  0  0  0  0
   45.4421    4.8458   10.3955 C   0  0  0  0  0  0  0  0  0  0  0  0
   44.3053    5.0004   12.8727 C   0  0  0  0  0  0  0  0  0  0  0  0
   44.4130    6.3029   12.0535 C   0  0  0  0  0  0  0  0  0  0  0  0
   44.5876    4.9457   11.7970 C   0  0  0  0  0  0  0  0  0  0  0  0
   45.7082    5.8384   12.3451 C   0  0  0  0  0  0  0  0  0  0  0  0
   45.0682    3.4848   11.7749 C   0  0  0  0  0  0  0  0  0  0  0  0
   44.1633    5.3589   10.3754 C   0  0  0  0  0  0  0  0  0  0  0  0
   44.1660    2.5948   10.9668 C   0  0  0  0  0  0  0  0  0  0  0  0
   45.3555    7.3007   12.3204 C   0  0  0  0  0  0  0  0  0  0  0  0
   43.0136    5.4582    9.9720 O   0  0  0  0  0  0  0  0  0  0  0  0
   44.6633    7.8874   11.5062 O   0  0  0  0  0  0  0  0  0  0  0  0
   44.5056    1.8901   10.0323 O   0  0  0  0  0  0  0  0  0  0  0  0
   43.4923    5.0329   12.7205 O   0  0  0  0  0  0  0  0  0  0  0  0
   45.2036    5.5326    9.5360 O   0  0  0  0  0  0  0  0  0  0  0  0
   45.9723    7.9855   13.3050 O   0  0  0  0  0  0  0  0  0  0  0  0
   42.8867    2.6170   11.3858 O   0  0  0  0  0  0  0  0  0  0  0  0
   45.0496    5.0887   10.0655 N   0  0  0  0  0  0  0  0  0  0  0  0
   44.2079    4.9381   12.9863 N   0  0  0  0  0  0  0  0  0  0  0  0
   44.1661    4.0460   10.6126 C   0  0  0  0  0  0  0  0  0  0  0  0
   44.3854    3.7648   12.1132 C   0  0  0  0  0  0  0  0  0  0  0  0
   45.3754    6.1085   11.0777 C   0  0  0  0  0  0  0  0  0  0  0  0
   44.3639    6.1969   12.2386 C   0  0  0  0  0  0  0  0  0  0  0  0
   46.3397    4.5453   10.8832 H   0  0  0  0  0  0  0  0  0  0  0  0
   45.3536    4.0492   12.9689 H   0  0  0  0  0  0  0  0  0  0  0  0
   44.5912    3.6169    9.5491 H   0  0  0  0  0  0  0  0  0  0  0  0
   43.6458    5.0668    9.8551 H   0  0  0  0  0  0  0  0  0  0  0  0
   44.1353    2.7164   11.6218 H   0  0  0  0  0  0  0  0  0  0  0  0
   42.7834    3.8377   11.6070 H   0  0  0  0  0  0  0  0  0  0  0  0
   46.3740    6.5883   11.8360 H   0  0  0  0  0  0  0  0  0  0  0  0
   44.9598    7.1162   10.9372 H   0  0  0  0  0  0  0  0  0  0  0  0
   43.4840    6.2550   12.4903 H   0  0  0  0  0  0  0  0  0  0  0  0
   44.8751    6.3104   13.5625 H   0  0  0  0  0  0  0  0  0  0  0  0
   46.0529    3.8156   10.2859 H   0  0  0  0  0  0  0  0  0  0  0  0
   44.8574    4.6274    9.2536 H   0  0  0  0  0  0  0  0  0  0  0  0
   45.0338    6.8356   10.2474 H   0  0  0  0  0  0  0  0  0  0  0  0
   46.4268    6.1953   11.1564 H   0  0  0  0  0  0  0  0  0  0  0  0
   42.7869    5.0234   12.0809 H   0  0  0  0  0  0  0  0  0  0  0  0
   44.3080    3.8736   14.3420 H   0  0  0  0  0  0  0  0  0  0  0  0
   43.3079    1.4890   10.9789 H   0  0  0  0  0  0  0  0  0  0  0  0
   45.1548    9.1504   12.7089 H   0  0  0  0  0  0  0  0  0  0  0  0
   44.2815    2.9977   12.4706 H   0  0  0  0  0  0  0  0  0  0  0  0
   46.2672    6.5343   11.1950 H   0  0  0  0  0  0  0  0  0  0  0  0
   44.3491    2.9772   10.2399 H   0  0  0  0  0  0  0  0  0  0  0  0
   43.3340    4.4058   10.1402 H   0  0  0  0  0  0  0  0  0  0  0  0
   45.6325    4.8932    9.3178 H   0  0  0  0  0  0  0  0  0  0  0  0
   46.3161    4.3617   10.8506 H   0  0  0  0  0  0  0  0  0  0  0  0
   43.6134    5.1469   13.7085 H   0  0  0  0  0  0  0  0  0  0  0  0
   45.2864    4.7741   13.3091 H   0  0  0  0  0  0  0  0  0  0  0  0
   44.7288    7.1243   12.7065 H   0  0  0  0  0  0  0  0  0  0  0  0
   43.4198    6.5736   11.6737 H   0  0  0  0  0  0  0  0  0  0  0  0
   45.9076    5.5603   13.3884 H   0  0  0  0  0  0  0  0  0  0  0  0
   46.6367    5.7218   11.7744 H   0  0  0  0  0  0  0  0  0  0  0  0
   45.1327    3.0677   12.7861 H   0  0  0  0  0  0  0  0  0  0  0  0
   46.0657    3.4166   11.3225 H   0  0  0  0  0  0  0  0  0  0  0  0
   42.7532    4.5238   12.3278 H   0  0  0  0  0  0  0  0  0  0  0  0
   44.7824    5.8275    8.6986 H   0  0  0  0  0  0  0  0  0  0  0  0
   45.6628    8.9089   13.1824 H   0  0  0  0  0  0  0  0  0  0  0  0
   42.4191    2.0124   10.7691 H   0  0  0  0  0  0  0  0  0  0  0  0
   45.9177    4.6660    9.7396 H   0  0  0  0  0  0  0  0  0  0  0  0
   44.9047    4.8951   13.7278 H   0  0  0  0  0  0  0  0  0  0  0  0
   44.3135    3.1228   10.0412 H   0  0  0  0  0  0  0  0  0  0  0  0
   43.1245    4.3483   10.4444 H   0  0  0  0  0  0  0  0  0  0  0  0
   43.6977    2.9795   12.4449 H   0  0  0  0  0  0  0  0  0  0  0  0
   45.4019    3.3731   12.2520 H   0  0  0  0  0  0  0  0  0  0  0  0
   45.4499    7.0807   10.5797 H   0  0  0  0  0  0  0  0  0  0  0  0
   46.3673    5.8862   11.4924 H   0  0  0  0  0  0  0  0  0  0  0  0
   43.3821    6.4931   11.8488 H   0  0  0  0  0  0  0  0  0  0  0  0
   44.6708    6.9860   12.9348 H   0  0  0  0  0  0  0  0  0  0  0  0
  2  6  1  0
  3  1  1  0
  4  3  1  0
  5  1  1  0
  6  5  1  0
  2  4  1  0
  8  7  1  0
  9  7  1  0
 10  7  1  0
 11  9  1  0
 12  8  1  0
 13 10  2  0
 14 12  2  0
 15 11  2  0
 16  7  1  0
 17 10  1  0
 18 12  1  0
 19 11  1  0
 21 25  1  0
 22 20  1  0
 23 22  1  0
 24 20  1  0
 25 24  1  0
 21 23  1  0
 27 26  1  0
 28 26  1  0
 29 26  1  0
 30 28  1  0
 31 27  1  0
 32 29  2  0
 33 31  2  0
 34 30  2  0
 35 26  1  0
 36 29  1  0
 37 31  1  0
 38 30  1  0
 40 44  1  0
 41 39  1  0
 42 41  1  0
 43 39  1  0
 44 43  1  0
 40 42  1  0
  1 45  1  0
  2 46  1  0
  3 47  1  0
  3 48  1  0
  4 49  1  0
  4 50  1  0
  5 51  1  0
  5 52  1  0
  6 53  1  0
  6 54  1  0
  8 55  1  0
  8 56  1  0
  9 57  1  0
  9 58  1  0
 16 59  1  0
 17 60  1  0
 18 61  1  0
 19 62  1  0
 20 63  1  0
 21 64  1  0
 22 65  1  0
 22 66  1  0
 23 67  1  0
 23 68  1  0
 24 69  1  0
 24 70  1  0
 25 71  1  0
 25 72  1  0
 27 73  1  0
 27 74  1  0
 28 75  1  0
 28 76  1  0
 35 77  1  0
 36 78  1  0
 37 79  1  0
 38 80  1  0
 39 81  1  0
 40 82  1  0
 41 83  1  0
 41 84  1  0
 42 85  1  0
 42 86  1  0
 43 87  1  0
 43 88  1  0
 44 89  1  0
 44 90  1  0
M  END
> <Uni-Dock RESULT> 
ENERGY=   -8.688  LOWER_BOUND=    0.676  UPPER_BOUND=    2.416
INTER + INTRA:          -8.688
INTER:                  -8.688
INTRA:                   0.000
UNBOUND:                 0.000

$$$$

     RDKit          3D

 90 88  0  0  0  0  0  0  0  0999 V2000
   43.2240    5.3478   10.9268 N   0  0  0  0  0  0  0  0  0  0  0  0
   44.7283    4.8709   13.2097 N   0  0  0  0  0  0  0  0  0  0  0  0
   44.4529    6.1546   11.0284 C   0  0  0  0  0  0  0  0  0  0  0  0
   45.1339    6.0472   12.4148 C   0  0  0  0  0  0  0  0  0  0  0  0
   43.5535    3.9317   11.1864 C   0  0  0  0  0  0  0  0  0  0  0  0
   44.5903    3.7083   12.3152 C   0  0  0  0  0  0  0  0  0  0  0  0
   44.3800    5.0644   11.6392 C   0  0  0  0  0  0  0  0  0  0  0  0
   43.8667    6.4375   11.1775 C   0  0  0  0  0  0  0  0  0  0  0  0
   43.5802    3.9798   10.8996 C   0  0  0  0  0  0  0  0  0  0  0  0
   44.1372    4.9200   13.1521 C   0  0  0  0  0  0  0  0  0  0  0  0
   43.9450    2.5814   11.3147 C   0  0  0  0  0  0  0  0  0  0  0  0
   44.6756    7.6188   11.6360 C   0  0  0  0  0  0  0  0  0  0  0  0
   43.0635    4.9924   13.7268 O   0  0  0  0  0  0  0  0  0  0  0  0
   44.7817    8.6720   11.0265 O   0  0  0  0  0  0  0  0  0  0  0  0
   44.4416    2.2184   12.3674 O   0  0  0  0  0  0  0  0  0  0  0  0
   45.7502    4.9334   11.2494 O   0  0  0  0  0  0  0  0  0  0  0  0
   45.2850    4.6802   13.8277 O   0  0  0  0  0  0  0  0  0  0  0  0
   45.2339    7.4927   12.8506 O   0  0  0  0  0  0  0  0  0  0  0  0
   43.5940    1.6728   10.3813 O   0  0  0  0  0  0  0  0  0  0  0  0
   45.2094    5.7468   12.8025 N   0  0  0  0  0  0  0  0  0  0  0  0
   43.5580    4.2413   10.7357 N   0  0  0  0  0  0  0  0  0  0  0  0
   44.7131    6.3408   11.5507 C   0  0  0  0  0  0  0  0  0  0  0  0
   43.4289    5.6829   11.0042 C   0  0  0  0  0  0  0  0  0  0  0  0
   44.8192    4.3331   12.9273 C   0  0  0  0  0  0  0  0  0  0  0  0
   44.5991    3.6246   11.5749 C   0  0  0  0  0  0  0  0  0  0  0  0
   44.4254    4.9163   12.0644 C   0  0  0  0  0  0  0  0  0  0  0  0
   43.3518    3.8282   12.1921 C   0  0  0  0  0  0  0  0  0  0  0  0
   43.9744    6.1668   12.8381 C   0  0  0  0  0  0  0  0  0  0  0  0
   44.6879    5.2989   10.5959 C   0  0  0  0  0  0  0  0  0  0  0  0
   44.8032    7.3767   12.5089 C   0  0  0  0  0  0  0  0  0  0  0  0
   43.6705    2.5955   11.3907 C   0  0  0  0  0  0  0  0  0  0  0  0
   45.7861    5.4611   10.0838 O   0  0  0  0  0  0  0  0  0  0  0  0
   44.2604    2.5301   10.3258 O   0  0  0  0  0  0  0  0  0  0  0  0
   44.3804    8.4454   12.1034 O   0  0  0  0  0  0  0  0  0  0  0  0
   45.6106    4.4126   12.6981 O   0  0  0  0  0  0  0  0  0  0  0  0
   43.5611    5.5375    9.8957 O   0  0  0  0  0  0  0  0  0  0  0  0
   43.1482    1.4831   11.9462 O   0  0  0  0  0  0  0  0  0  0  0  0
   46.1192    7.1920   12.7258 O   0  0  0  0  0  0  0  0  0  0  0  0
   43.7793    5.6561   10.5587 N   0  0  0  0  0  0  0  0  0  0  0  0
   44.9293    4.3326   13.0462 N   0  0  0  0  0  0  0  0  0  0  0  0
   44.7366    6.3080   11.4673 C   0  0  0  0  0  0  0  0  0  0  0  0
   44.6836    5.7792   12.9153 C   0  0  0  0  0  0  0  0  0  0  0  0
   43.5426    4.2521   10.9376 C   0  0  0  0  0  0  0  0  0  0  0  0
   44.6697    3.6236   11.7821 C   0  0  0  0  0  0  0  0  0  0  0  0
   42.5945    5.6604   11.6652 H   0  0  0  0  0  0  0  0  0  0  0  0
   43.8063    5.0638   13.6002 H   0  0  0  0  0  0  0  0  0  0  0  0
   44.2096    7.2020   10.8200 H   0  0  0  0  0  0  0  0  0  0  0  0
   45.1529    5.8338   10.2474 H   0  0  0  0  0  0  0  0  0  0  0  0
   44.9009    6.9403   13.0037 H   0  0  0  0  0  0  0  0  0  0  0  0
   46.2209    6.0330   12.2829 H   0  0  0  0  0  0  0  0  0  0  0  0
   42.6207    3.4170   11.4429 H   0  0  0  0  0  0  0  0  0  0  0  0
   43.9206    3.4719   10.2622 H   0  0  0  0  0  0  0  0  0  0  0  0
   45.5700    3.4783   11.8783 H   0  0  0  0  0  0  0  0  0  0  0  0
   44.2999    2.8342   12.9077 H   0  0  0  0  0  0  0  0  0  0  0  0
   42.8307    6.6024   11.4970 H   0  0  0  0  0  0  0  0  0  0  0  0
   43.8933    6.4727   10.0800 H   0  0  0  0  0  0  0  0  0  0  0  0
   43.7794    4.0611    9.8231 H   0  0  0  0  0  0  0  0  0  0  0  0
   42.5040    4.0986   11.0675 H   0  0  0  0  0  0  0  0  0  0  0  0
   46.2442    4.7719   12.0846 H   0  0  0  0  0  0  0  0  0  0  0  0
   44.9951    4.5559   14.7570 H   0  0  0  0  0  0  0  0  0  0  0  0
   45.6797    8.3538   12.9951 H   0  0  0  0  0  0  0  0  0  0  0  0
   43.8743    0.8140   10.7607 H   0  0  0  0  0  0  0  0  0  0  0  0
   44.8401    6.2615   13.6008 H   0  0  0  0  0  0  0  0  0  0  0  0
   42.6599    3.7931   10.9116 H   0  0  0  0  0  0  0  0  0  0  0  0
   44.5364    7.4102   11.7115 H   0  0  0  0  0  0  0  0  0  0  0  0
   45.5064    6.2692   10.7959 H   0  0  0  0  0  0  0  0  0  0  0  0
   43.1242    6.1827   10.0783 H   0  0  0  0  0  0  0  0  0  0  0  0
   42.6181    5.8358   11.7284 H   0  0  0  0  0  0  0  0  0  0  0  0
   45.5928    3.8079   13.4967 H   0  0  0  0  0  0  0  0  0  0  0  0
   43.8947    4.2697   13.5150 H   0  0  0  0  0  0  0  0  0  0  0  0
   44.3381    2.5744   11.7469 H   0  0  0  0  0  0  0  0  0  0  0  0
   45.5406    3.6215   11.0116 H   0  0  0  0  0  0  0  0  0  0  0  0
   43.2698    3.5300   13.2457 H   0  0  0  0  0  0  0  0  0  0  0  0
   42.3704    4.1842   11.8580 H   0  0  0  0  0  0  0  0  0  0  0  0
   44.0261    6.0095   13.9212 H   0  0  0  0  0  0  0  0  0  0  0  0
   42.9360    6.4185   12.5874 H   0  0  0  0  0  0  0  0  0  0  0  0
   46.3138    5.0775   12.5465 H   0  0  0  0  0  0  0  0  0  0  0  0
   43.8850    5.7248    8.9871 H   0  0  0  0  0  0  0  0  0  0  0  0
   43.4244    0.7623   11.3399 H   0  0  0  0  0  0  0  0  0  0  0  0
   46.5306    8.0429   12.4591 H   0  0  0  0  0  0  0  0  0  0  0  0
   42.8901    6.1533   10.5834 H   0  0  0  0  0  0  0  0  0  0  0  0
   44.3163    3.9670   13.7725 H   0  0  0  0  0  0  0  0  0  0  0  0
   44.5478    7.3872   11.4640 H   0  0  0  0  0  0  0  0  0  0  0  0
   45.7481    6.1719   11.0639 H   0  0  0  0  0  0  0  0  0  0  0  0
   45.4181    6.3119   13.5288 H   0  0  0  0  0  0  0  0  0  0  0  0
   43.6956    6.0081   13.3365 H   0  0  0  0  0  0  0  0  0  0  0  0
   43.3962    3.6659   10.0245 H   0  0  0  0  0  0  0  0  0  0  0  0
   42.6050    4.1960   11.5059 H   0  0  0  0  0  0  0  0  0  0  0  0
   45.5984    3.6031   11.1984 H   0  0  0  0  0  0  0  0  0  0  0  0
   44.4227    2.5795   12.0065 H   0  0  0  0  0  0  0  0  0  0  0  0
  2  6  1  0
  3  1  1  0
  4  3  1  0
  5  1  1  0
  6  5  1  0
  2  4  1  0
  8  7  1  0
  9  7  1  0
 10  7  1  0
 11  9  1  0
 12  8  1  0
 13 10  2  0
 14 12  2  0
 15 11  2  0
 16  7  1  0
 17 10  1  0
 18 12  1  0
 19 11  1  0
 21 25  1  0
 22 20  1  0
 23 22  1  0
 24 20  1  0
 25 24  1  0
 21 23  1  0
 27 26  1  0
 28 26  1  0
 29 26  1  0
 30 28  1  0
 31 27  1  0
 32 29  2  0
 33 31  2  0
 34 30  2  0
 35 26  1  0
 36 29  1  0
 37 31  1  0
 38 30  1  0
 40 44  1  0
 41 39  1  0
 42 41  1  0
 43 39  1  0
 44 43  1  0
 40 42  1  0
  1 45  1  0
  2 46  1  0
  3 47  1  0
  3 48  1  0
  4 49  1  0
  4 50  1  0
  5 51  1  0
  5 52  1  0
  6 53  1  0
  6 54  1  0
  8 55  1  0
  8 56  1  0
  9 57  1  0
  9 58  1  0
 16 59  1  0
 17 60  1  0
 18 61  1  0
 19 62  1  0
 20 63  1  0
 21 64  1  0
 22 65  1  0
 22 66  1  0
 23 67  1  0
 23 68  1  0
 24 69  1  0
 24 70  1  0
 25 71  1  0
 25 72  1  0
 27 73  1  0
 27 74  1  0
 28 75  1  0
 28 76  1  0
 35 77  1  0
 36 78  1  0
 37 79  1  0
 38 80  1  0
 39 81  1  0
 40 82  1  0
 41 83  1  0
 41 84  1  0
 42 85  1  0
 42 86  1  0
 43 87  1  0
 43 88  1  0
 44 89  1  0
 44 90  1  0
M  END
> <Uni-Dock RESULT> 
ENERGY=   -8.569  LOWER_BOUND=    0.750  UPPER_BOUND=    3.939
INTER + INTRA:          -8.569
INTER:                  -8.569
INTRA:                   0.000
UNBOUND:                 0.000

$$$$

     RDKit          3D

 90 88  0  0  0  0  0  0  0  0999 V2000
   45.4414    4.6644   12.6718 N   0  0  0  0  0  0  0  0  0  0  0  0
   44.0162    5.4056   10.4088 N   0  0  0  0  0  0  0  0  0  0  0  0
   44.7247    5.9462   12.7936 C   0  0  0  0  0  0  0  0  0  0  0  0
   44.1489    6.4474   11.4465 C   0  0  0  0  0  0  0  0  0  0  0  0
   44.5164    3.6429   12.1405 C   0  0  0  0  0  0  0  0  0  0  0  0
   43.5573    4.1544   11.0371 C   0  0  0  0  0  0  0  0  0  0  0  0
   44.3256    5.0938   11.9684 C   0  0  0  0  0  0  0  0  0  0  0  0
   45.3828    5.9527   12.6802 C   0  0  0  0  0  0  0  0  0  0  0  0
   44.4986    3.6384   12.4319 C   0  0  0  0  0  0  0  0  0  0  0  0
   44.5601    5.1655   10.4490 C   0  0  0  0  0  0  0  0  0  0  0  0
   43.5590    2.6801   11.7537 C   0  0  0  0  0  0  0  0  0  0  0  0
   45.2302    7.4388   12.5118 C   0  0  0  0  0  0  0  0  0  0  0  0
   45.5786    4.8532    9.8544 O   0  0  0  0  0  0  0  0  0  0  0  0
   45.5830    8.2746   13.3295 O   0  0  0  0  0  0  0  0  0  0  0  0
   43.0114    2.8078   10.6720 O   0  0  0  0  0  0  0  0  0  0  0  0
   43.0276    5.5290   12.3832 O   0  0  0  0  0  0  0  0  0  0  0  0
   43.4695    5.6214    9.7901 O   0  0  0  0  0  0  0  0  0  0  0  0
   44.7451    7.8326   11.3233 O   0  0  0  0  0  0  0  0  0  0  0  0
   43.4032    1.5431   12.4631 O   0  0  0  0  0  0  0  0  0  0  0  0
   43.9664    6.3010   11.0090 N   0  0  0  0  0  0  0  0  0  0  0  0
   44.6285    3.8211   12.6451 N   0  0  0  0  0  0  0  0  0  0  0  0
   44.6082    6.3328   12.3331 C   0  0  0  0  0  0  0  0  0  0  0  0
   45.4169    5.0639   12.6744 C   0  0  0  0  0  0  0  0  0  0  0  0
   43.6739    4.9244   10.5779 C   0  0  0  0  0  0  0  0  0  0  0  0
   43.4697    3.9353   11.7438 C   0  0  0  0  0  0  0  0  0  0  0  0
   44.2416    5.0730   11.5242 C   0  0  0  0  0  0  0  0  0  0  0  0
   44.7046    3.6656   11.1271 C   0  0  0  0  0  0  0  0  0  0  0  0
   45.2567    6.1058   11.0059 C   0  0  0  0  0  0  0  0  0  0  0  0
   44.1009    5.2255   13.0502 C   0  0  0  0  0  0  0  0  0  0  0  0
   45.0552    7.4654   11.6143 C   0  0  0  0  0  0  0  0  0  0  0  0
   43.8135    2.5820   11.6702 C   0  0  0  0  0  0  0  0  0  0  0  0
   43.1714    5.7647   13.6331 O   0  0  0  0  0  0  0  0  0  0  0  0
   43.2001    2.5790   12.7238 O   0  0  0  0  0  0  0  0  0  0  0  0
   45.8961    8.1139   12.2123 O   0  0  0  0  0  0  0  0  0  0  0  0
   42.9947    5.3092   10.8535 O   0  0  0  0  0  0  0  0  0  0  0  0
   45.1710    4.7732   13.7338 O   0  0  0  0  0  0  0  0  0  0  0  0
   43.8000    1.4932   10.8744 O   0  0  0  0  0  0  0  0  0  0  0  0
   43.8148    7.9527   11.4226 O   0  0  0  0  0  0  0  0  0  0  0  0
   45.0687    5.1106   13.1200 N   0  0  0  0  0  0  0  0  0  0  0  0
   43.5825    4.9986   10.4664 N   0  0  0  0  0  0  0  0  0  0  0  0
   44.5677    6.2983   12.4088 C   0  0  0  0  0  0  0  0  0  0  0  0
   44.4544    6.1111   10.8820 C   0  0  0  0  0  0  0  0  0  0  0  0
   44.6586    3.8645   12.4493 C   0  0  0  0  0  0  0  0  0  0  0  0
   43.4182    4.0090   11.5442 C   0  0  0  0  0  0  0  0  0  0  0  0
   46.1845    4.7967   11.9866 H   0  0  0  0  0  0  0  0  0  0  0  0
   44.9447    5.2295   10.0259 H   0  0  0  0  0  0  0  0  0  0  0  0
   45.4076    6.6985   13.2026 H   0  0  0  0  0  0  0  0  0  0  0  0
   43.9129    5.8304   13.5219 H   0  0  0  0  0  0  0  0  0  0  0  0
   44.7969    7.2333   11.0449 H   0  0  0  0  0  0  0  0  0  0  0  0
   43.1701    6.9064   11.6209 H   0  0  0  0  0  0  0  0  0  0  0  0
   45.1237    2.8224   11.7421 H   0  0  0  0  0  0  0  0  0  0  0  0
   43.9286    3.2252   12.9652 H   0  0  0  0  0  0  0  0  0  0  0  0
   42.5579    4.3154   11.4602 H   0  0  0  0  0  0  0  0  0  0  0  0
   43.4490    3.3856   10.2647 H   0  0  0  0  0  0  0  0  0  0  0  0
   46.3958    5.6858   12.3559 H   0  0  0  0  0  0  0  0  0  0  0  0
   45.3137    5.7720   13.7614 H   0  0  0  0  0  0  0  0  0  0  0  0
   44.2985    3.5809   13.5097 H   0  0  0  0  0  0  0  0  0  0  0  0
   45.5177    3.2822   12.2445 H   0  0  0  0  0  0  0  0  0  0  0  0
   42.5621    5.7855   11.5554 H   0  0  0  0  0  0  0  0  0  0  0  0
   43.7222    5.5702    8.8432 H   0  0  0  0  0  0  0  0  0  0  0  0
   44.7509    8.8114   11.3796 H   0  0  0  0  0  0  0  0  0  0  0  0
   42.7832    1.0057   11.9274 H   0  0  0  0  0  0  0  0  0  0  0  0
   44.5742    6.7397   10.3185 H   0  0  0  0  0  0  0  0  0  0  0  0
   45.2309    3.0577   12.3408 H   0  0  0  0  0  0  0  0  0  0  0  0
   45.2627    7.2099   12.3887 H   0  0  0  0  0  0  0  0  0  0  0  0
   43.8288    6.4807   13.0913 H   0  0  0  0  0  0  0  0  0  0  0  0
   45.8638    5.1684   13.6691 H   0  0  0  0  0  0  0  0  0  0  0  0
   46.2472    4.9721   11.9620 H   0  0  0  0  0  0  0  0  0  0  0  0
   42.7791    4.9404    9.9473 H   0  0  0  0  0  0  0  0  0  0  0  0
   44.4986    4.5656    9.9492 H   0  0  0  0  0  0  0  0  0  0  0  0
   43.2311    2.9421   11.3473 H   0  0  0  0  0  0  0  0  0  0  0  0
   42.6008    4.2494   12.3356 H   0  0  0  0  0  0  0  0  0  0  0  0
   44.7002    3.5844   10.0321 H   0  0  0  0  0  0  0  0  0  0  0  0
   45.7197    3.4559   11.4835 H   0  0  0  0  0  0  0  0  0  0  0  0
   45.1997    6.2138    9.9170 H   0  0  0  0  0  0  0  0  0  0  0  0
   46.2794    5.7968   11.2568 H   0  0  0  0  0  0  0  0  0  0  0  0
   42.6658    6.1759   11.1701 H   0  0  0  0  0  0  0  0  0  0  0  0
   44.9180    4.8987   14.6750 H   0  0  0  0  0  0  0  0  0  0  0  0
   43.1915    0.8727   11.3306 H   0  0  0  0  0  0  0  0  0  0  0  0
   43.8234    8.8232   11.8772 H   0  0  0  0  0  0  0  0  0  0  0  0
   46.0866    5.1384   13.1588 H   0  0  0  0  0  0  0  0  0  0  0  0
   44.0005    4.5493    9.6538 H   0  0  0  0  0  0  0  0  0  0  0  0
   45.2282    7.1448   12.6264 H   0  0  0  0  0  0  0  0  0  0  0  0
   43.5848    6.5618   12.8200 H   0  0  0  0  0  0  0  0  0  0  0  0
   44.0801    7.0334   10.4249 H   0  0  0  0  0  0  0  0  0  0  0  0
   45.4597    5.9422   10.4736 H   0  0  0  0  0  0  0  0  0  0  0  0
   44.4694    3.1044   13.2143 H   0  0  0  0  0  0  0  0  0  0  0  0
   45.4972    3.5020   11.8405 H   0  0  0  0  0  0  0  0  0  0  0  0
   42.5516    4.2980   12.1518 H   0  0  0  0  0  0  0  0  0  0  0  0
   43.1730    3.0381   11.0984 H   0  0  0  0  0  0  0  0  0  0  0  0
  2  6  1  0
  3  1  1  0
  4  3  1  0
  5  1  1  0
  6  5  1  0
  2  4  1  0
  8  7  1  0
  9  7  1  0
 10  7  1  0
 11  9  1  0
 12  8  1  0
 13 10  2  0
 14 12  2  0
 15 11  2  0
 16  7  1  0
 17 10  1  0
 18 12  1  0
 19 11  1  0
 21 25  1  0
 22 20  1  0
 23 22  1  0
 24 20  1  0
 25 24  1  0
 21 23  1  0
 27 26  1  0
 28 26  1  0
 29 26  1  0
 30 28  1  0
 31 27  1  0
 32 29  2  0
 33 31  2  0
 34 30  2  0
 35 26  1  0
 36 29  1  0
 37 31  1  0
 38 30  1  0
 40 44  1  0
 41 39  1  0
 42 41  1  0
 43 39  1  0
 44 43  1  0
 40 42  1  0
  1 45  1  0
  2 46  1  0
  3 47  1  0
  3 48  1  0
  4 49  1  0
  4 50  1  0
  5 51  1  0
  5 52  1  0
  6 53  1  0
  6 54  1  0
  8 55  1  0
  8 56  1  0
  9 57  1  0
  9 58  1  0
 16 59  1  0
 17 60  1  0
 18 61  1  0
 19 62  1  0
 20 63  1  0
 21 64  1  0
 22 65  1  0
 22 66  1  0
 23 67  1  0
 23 68  1  0
 24 69  1  0
 24 70  1  0
 25 71  1  0
 25 72  1  0
 27 73  1  0
 27 74  1  0
 28 75  1  0
 28 76  1  0
 35 77  1  0
 36 78  1  0
 37 79  1  0
 38 80  1  0
 39 81  1  0
 40 82  1  0
 41 83  1  0
 41 84  1  0
 42 85  1  0
 42 86  1  0
 43 87  1  0
 43 88  1  0
 44 89  1  0
 44 90  1  0
M  END
> <Uni-Dock RESULT> 
ENERGY=   -8.442  LOWER_BOUND=    0.849  UPPER_BOUND=    3.656
INTER + INTRA:          -8.442
INTER:                  -8.442
INTRA:                   0.000
UNBOUND:                 0.000

$$$$

     RDKit          3D

 90 88  0  0  0  0  0  0  0  0999 V2000
   43.2909    4.7794   10.0949 N   0  0  0  0  0  0  0  0  0  0  0  0
   44.6572    2.8041   11.4852 N   0  0  0  0  0  0  0  0  0  0  0  0
   43.9029    5.2323   11.3566 C   0  0  0  0  0  0  0  0  0  0  0  0
   44.4398    4.0654   12.2212 C   0  0  0  0  0  0  0  0  0  0  0  0
   44.2953    4.0308    9.3126 C   0  0  0  0  0  0  0  0  0  0  0  0
   45.2129    3.1108   10.1556 C   0  0  0  0  0  0  0  0  0  0  0  0
   44.3703    4.2297   10.7707 C   0  0  0  0  0  0  0  0  0  0  0  0
   43.2467    5.1096   11.3408 C   0  0  0  0  0  0  0  0  0  0  0  0
   44.3129    4.3122    9.2367 C   0  0  0  0  0  0  0  0  0  0  0  0
   44.1341    2.7713   11.2018 C   0  0  0  0  0  0  0  0  0  0  0  0
   45.3271    3.4375    8.5533 C   0  0  0  0  0  0  0  0  0  0  0  0
   43.2808    5.3200   12.8290 C   0  0  0  0  0  0  0  0  0  0  0  0
   43.1449    2.0955   10.9709 O   0  0  0  0  0  0  0  0  0  0  0  0
   42.8609    6.3123   13.4042 O   0  0  0  0  0  0  0  0  0  0  0  0
   45.8651    2.4339    8.9889 O   0  0  0  0  0  0  0  0  0  0  0  0
   45.6287    4.7682   11.1864 O   0  0  0  0  0  0  0  0  0  0  0  0
   45.1862    2.2707   11.8901 O   0  0  0  0  0  0  0  0  0  0  0  0
   43.7354    4.2781   13.5433 O   0  0  0  0  0  0  0  0  0  0  0  0
   45.5716    3.8445    7.2904 O   0  0  0  0  0  0  0  0  0  0  0  0
   44.6342    3.6093   12.2032 N   0  0  0  0  0  0  0  0  0  0  0  0
   44.1683    4.5613    9.3499 N   0  0  0  0  0  0  0  0  0  0  0  0
   43.9892    4.8852   11.8538 C   0  0  0  0  0  0  0  0  0  0  0  0
   43.2835    4.8819   10.4817 C   0  0  0  0  0  0  0  0  0  0  0  0
   45.0364    2.8555   11.0047 C   0  0  0  0  0  0  0  0  0  0  0  0
   45.3163    3.7424    9.7742 C   0  0  0  0  0  0  0  0  0  0  0  0
   44.4567    3.7963   10.8680 C   0  0  0  0  0  0  0  0  0  0  0  0
   44.1080    3.0511    9.5734 C   0  0  0  0  0  0  0  0  0  0  0  0
   43.3636    3.5295   11.9168 C   0  0  0  0  0  0  0  0  0  0  0  0
   44.5816    5.3149   10.6445 C   0  0  0  0  0  0  0  0  0  0  0  0
   43.4549    4.4615   13.0924 C   0  0  0  0  0  0  0  0  0  0  0  0
   45.0815    3.3266    8.4600 C   0  0  0  0  0  0  0  0  0  0  0  0
   45.4640    6.0339   11.0904 O   0  0  0  0  0  0  0  0  0  0  0  0
   45.6909    4.3595    8.2406 O   0  0  0  0  0  0  0  0  0  0  0  0
   42.5638    5.1837   13.5044 O   0  0  0  0  0  0  0  0  0  0  0  0
   45.6822    3.2330   11.3592 O   0  0  0  0  0  0  0  0  0  0  0  0
   43.5496    5.8406    9.9551 O   0  0  0  0  0  0  0  0  0  0  0  0
   45.1832    2.2852    7.6091 O   0  0  0  0  0  0  0  0  0  0  0  0
   44.6530    4.4245   13.7057 O   0  0  0  0  0  0  0  0  0  0  0  0
   43.6259    5.3326   10.4421 N   0  0  0  0  0  0  0  0  0  0  0  0
   45.1218    2.7680   11.1112 N   0  0  0  0  0  0  0  0  0  0  0  0
   44.0322    4.9508   11.8045 C   0  0  0  0  0  0  0  0  0  0  0  0
   44.1632    3.4284   12.0143 C   0  0  0  0  0  0  0  0  0  0  0  0
   44.1353    4.3819    9.4384 C   0  0  0  0  0  0  0  0  0  0  0  0
   45.3621    3.5687    9.8991 C   0  0  0  0  0  0  0  0  0  0  0  0
   42.5410    4.1326   10.3369 H   0  0  0  0  0  0  0  0  0  0  0  0
   43.7464    2.3692   11.3399 H   0  0  0  0  0  0  0  0  0  0  0  0
   43.1614    5.8007   11.9281 H   0  0  0  0  0  0  0  0  0  0  0  0
   44.7198    5.9264   11.1249 H   0  0  0  0  0  0  0  0  0  0  0  0
   43.7321    3.8580   13.0305 H   0  0  0  0  0  0  0  0  0  0  0  0
   45.3786    4.3700   12.6956 H   0  0  0  0  0  0  0  0  0  0  0  0
   43.7561    3.4274    8.5737 H   0  0  0  0  0  0  0  0  0  0  0  0
   44.9129    4.7382    8.7482 H   0  0  0  0  0  0  0  0  0  0  0  0
   46.1954    3.5825   10.2817 H   0  0  0  0  0  0  0  0  0  0  0  0
   45.3837    2.1738    9.6150 H   0  0  0  0  0  0  0  0  0  0  0  0
   42.2588    4.7070   11.0866 H   0  0  0  0  0  0  0  0  0  0  0  0
   43.3277    6.1130   10.9013 H   0  0  0  0  0  0  0  0  0  0  0  0
   44.5146    5.3459    8.9271 H   0  0  0  0  0  0  0  0  0  0  0  0
   43.3257    4.0197    8.8618 H   0  0  0  0  0  0  0  0  0  0  0  0
   46.0741    4.0407   11.6766 H   0  0  0  0  0  0  0  0  0  0  0  0
   44.9404    1.3356   12.0580 H   0  0  0  0  0  0  0  0  0  0  0  0
   43.6516    4.5762   14.4735 H   0  0  0  0  0  0  0  0  0  0  0  0
   46.2335    3.2056    6.9531 H   0  0  0  0  0  0  0  0  0  0  0  0
   43.9949    3.0367   12.7527 H   0  0  0  0  0  0  0  0  0  0  0  0
   43.6293    4.0633    8.6429 H   0  0  0  0  0  0  0  0  0  0  0  0
   43.2669    5.1432   12.6363 H   0  0  0  0  0  0  0  0  0  0  0  0
   44.7528    5.6733   11.8666 H   0  0  0  0  0  0  0  0  0  0  0  0
   42.8276    5.8613   10.2996 H   0  0  0  0  0  0  0  0  0  0  0  0
   42.4645    4.1511   10.5076 H   0  0  0  0  0  0  0  0  0  0  0  0
   45.9284    2.2685   11.2463 H   0  0  0  0  0  0  0  0  0  0  0  0
   44.2441    2.1393   10.7524 H   0  0  0  0  0  0  0  0  0  0  0  0
   45.6340    3.1164    8.9329 H   0  0  0  0  0  0  0  0  0  0  0  0
   46.1562    4.4127    9.9960 H   0  0  0  0  0  0  0  0  0  0  0  0
   44.1211    1.9708    9.7692 H   0  0  0  0  0  0  0  0  0  0  0  0
   43.1121    3.3217    9.2042 H   0  0  0  0  0  0  0  0  0  0  0  0
   43.4141    2.5033   12.2976 H   0  0  0  0  0  0  0  0  0  0  0  0
   42.3682    3.6730   11.4775 H   0  0  0  0  0  0  0  0  0  0  0  0
   45.9403    3.7626   12.1418 H   0  0  0  0  0  0  0  0  0  0  0  0
   43.7897    6.7888    9.8603 H   0  0  0  0  0  0  0  0  0  0  0  0
   45.8383    2.5857    6.9427 H   0  0  0  0  0  0  0  0  0  0  0  0
   44.5742    5.0813   14.4315 H   0  0  0  0  0  0  0  0  0  0  0  0
   42.6090    5.3549   10.3813 H   0  0  0  0  0  0  0  0  0  0  0  0
   44.7426    1.8601   10.8486 H   0  0  0  0  0  0  0  0  0  0  0  0
   43.3060    5.3579   12.5167 H   0  0  0  0  0  0  0  0  0  0  0  0
   44.9901    5.4361   12.0314 H   0  0  0  0  0  0  0  0  0  0  0  0
   44.4639    3.2237   13.0474 H   0  0  0  0  0  0  0  0  0  0  0  0
   43.1754    2.9688   11.8764 H   0  0  0  0  0  0  0  0  0  0  0  0
   44.3828    4.9374    8.5280 H   0  0  0  0  0  0  0  0  0  0  0  0
   43.3295    3.6838    9.1765 H   0  0  0  0  0  0  0  0  0  0  0  0
   46.2017    4.2479   10.0925 H   0  0  0  0  0  0  0  0  0  0  0  0
   45.6848    2.9006    9.0922 H   0  0  0  0  0  0  0  0  0  0  0  0
  2  6  1  0
  3  1  1  0
  4  3  1  0
  5  1  1  0
  6  5  1  0
  2  4  1  0
  8  7  1  0
  9  7  1  0
 10  7  1  0
 11  9  1  0
 12  8  1  0
 13 10  2  0
 14 12  2  0
 15 11  2  0
 16  7  1  0
 17 10  1  0
 18 12  1  0
 19 11  1  0
 21 25  1  0
 22 20  1  0
 23 22  1  0
 24 20  1  0
 25 24  1  0
 21 23  1  0
 27 26  1  0
 28 26  1  0
 29 26  1  0
 30 28  1  0
 31 27  1  0
 32 29  2  0
 33 31  2  0
 34 30  2  0
 35 26  1  0
 36 29  1  0
 37 31  1  0
 38 30  1  0
 40 44  1  0
 41 39  1  0
 42 41  1  0
 43 39  1  0
 44 43  1  0
 40 42  1  0
  1 45  1  0
  2 46  1  0
  3 47  1  0
  3 48  1  0
  4 49  1  0
  4 50  1  0
  5 51  1  0
  5 52  1  0
  6 53  1  0
  6 54  1  0
  8 55  1  0
  8 56  1  0
  9 57  1  0
  9 58  1  0
 16 59  1  0
 17 60  1  0
 18 61  1  0
 19 62  1  0
 20 63  1  0
 21 64  1  0
 22 65  1  0
 22 66  1  0
 23 67  1  0
 23 68  1  0
 24 69  1  0
 24 70  1  0
 25 71  1  0
 25 72  1  0
 27 73  1  0
 27 74  1  0
 28 75  1  0
 28 76  1  0
 35 77  1  0
 36 78  1  0
 37 79  1  0
 38 80  1  0
 39 81  1  0
 40 82  1  0
 41 83  1  0
 41 84  1  0
 42 85  1  0
 42 86  1  0
 43 87  1  0
 43 88  1  0
 44 89  1  0
 44 90  1  0
M  END
> <Uni-Dock RESULT> 
ENERGY=   -7.802  LOWER_BOUND=    1.471  UPPER_BOUND=    3.616
INTER + INTRA:          -7.802
INTER:                  -7.802
INTRA:                   0.000
UNBOUND:                 0.000

$$$$

     RDKit          3D

 90 88  0  0  0  0  0  0  0  0999 V2000
   49.8519    4.9191   18.1611 N   0  0  0  0  0  0  0  0  0  0  0  0
   47.3959    4.0554   17.1999 N   0  0  0  0  0  0  0  0  0  0  0  0
   48.7366    5.0679   19.1127 C   0  0  0  0  0  0  0  0  0  0  0  0
   47.3527    4.8115   18.4674 C   0  0  0  0  0  0  0  0  0  0  0  0
   49.8325    3.5510   17.6050 C   0  0  0  0  0  0  0  0  0  0  0  0
   48.4174    2.9987   17.3029 C   0  0  0  0  0  0  0  0  0  0  0  0
   48.6590    4.2123   18.2024 C   0  0  0  0  0  0  0  0  0  0  0  0
   48.9529    5.6055   18.7808 C   0  0  0  0  0  0  0  0  0  0  0  0
   49.9989    3.5489   17.8449 C   0  0  0  0  0  0  0  0  0  0  0  0
   47.8205    4.3669   16.9211 C   0  0  0  0  0  0  0  0  0  0  0  0
   49.8440    2.1973   17.2046 C   0  0  0  0  0  0  0  0  0  0  0  0
   47.7742    6.3183   19.3832 C   0  0  0  0  0  0  0  0  0  0  0  0
   48.1290    4.9936   15.9209 O   0  0  0  0  0  0  0  0  0  0  0  0
   47.8385    7.1261   20.2971 O   0  0  0  0  0  0  0  0  0  0  0  0
   48.8828    1.7650   16.5917 O   0  0  0  0  0  0  0  0  0  0  0  0
   48.0393    3.4169   19.2172 O   0  0  0  0  0  0  0  0  0  0  0  0
   46.6468    3.6980   17.0012 O   0  0  0  0  0  0  0  0  0  0  0  0
   46.5963    6.0833   18.7832 O   0  0  0  0  0  0  0  0  0  0  0  0
   50.9675    1.4583   17.3134 O   0  0  0  0  0  0  0  0  0  0  0  0
   47.1160    4.5558   18.1141 N   0  0  0  0  0  0  0  0  0  0  0  0
   50.0562    3.7706   18.0530 N   0  0  0  0  0  0  0  0  0  0  0  0
   48.1518    5.1688   18.9612 C   0  0  0  0  0  0  0  0  0  0  0  0
   49.5703    5.1268   18.3556 C   0  0  0  0  0  0  0  0  0  0  0  0
   47.6737    3.5093   17.2423 C   0  0  0  0  0  0  0  0  0  0  0  0
   48.9434    2.8386   17.8057 C   0  0  0  0  0  0  0  0  0  0  0  0
   48.3758    4.1085   17.8651 C   0  0  0  0  0  0  0  0  0  0  0  0
   49.3043    3.6659   16.7271 C   0  0  0  0  0  0  0  0  0  0  0  0
   47.8106    5.5027   17.5451 C   0  0  0  0  0  0  0  0  0  0  0  0
   49.1063    4.1589   19.2199 C   0  0  0  0  0  0  0  0  0  0  0  0
   47.1528    6.1435   18.7350 C   0  0  0  0  0  0  0  0  0  0  0  0
   49.9728    2.3458   16.9980 C   0  0  0  0  0  0  0  0  0  0  0  0
   48.6751    3.7338   20.2819 O   0  0  0  0  0  0  0  0  0  0  0  0
   50.3257    1.8954   18.0746 O   0  0  0  0  0  0  0  0  0  0  0  0
   47.4289    7.2336   19.2049 O   0  0  0  0  0  0  0  0  0  0  0  0
   47.2767    3.1857   17.8926 O   0  0  0  0  0  0  0  0  0  0  0  0
   50.2831    4.8142   19.1689 O   0  0  0  0  0  0  0  0  0  0  0  0
   50.2421    1.6733   15.8604 O   0  0  0  0  0  0  0  0  0  0  0  0
   46.1666    5.3938   19.2624 O   0  0  0  0  0  0  0  0  0  0  0  0
   49.6480    4.8908   18.8658 N   0  0  0  0  0  0  0  0  0  0  0  0
   47.5178    3.4709   17.2200 N   0  0  0  0  0  0  0  0  0  0  0  0
   48.2022    5.1197   19.0215 C   0  0  0  0  0  0  0  0  0  0  0  0
   47.3839    4.8413   17.7440 C   0  0  0  0  0  0  0  0  0  0  0  0
   49.9248    3.8099   17.9036 C   0  0  0  0  0  0  0  0  0  0  0  0
   48.7535    2.8280   17.6973 C   0  0  0  0  0  0  0  0  0  0  0  0
   49.6838    5.5686   17.3935 H   0  0  0  0  0  0  0  0  0  0  0  0
   47.6965    4.6970   16.4665 H   0  0  0  0  0  0  0  0  0  0  0  0
   48.7620    6.0778   19.5360 H   0  0  0  0  0  0  0  0  0  0  0  0
   48.8888    4.3737   19.9481 H   0  0  0  0  0  0  0  0  0  0  0  0
   46.8640    5.7700   18.2640 H   0  0  0  0  0  0  0  0  0  0  0  0
   46.7149    4.2792   19.1808 H   0  0  0  0  0  0  0  0  0  0  0  0
   50.4231    3.5611   16.6820 H   0  0  0  0  0  0  0  0  0  0  0  0
   50.3449    2.8735   18.2969 H   0  0  0  0  0  0  0  0  0  0  0  0
   48.1198    2.2926   18.0881 H   0  0  0  0  0  0  0  0  0  0  0  0
   48.4407    2.4320   16.3661 H   0  0  0  0  0  0  0  0  0  0  0  0
   49.3867    6.2675   18.0218 H   0  0  0  0  0  0  0  0  0  0  0  0
   49.6807    5.5018   19.5969 H   0  0  0  0  0  0  0  0  0  0  0  0
   50.5835    3.4078   18.7633 H   0  0  0  0  0  0  0  0  0  0  0  0
   50.5766    4.1722   17.1533 H   0  0  0  0  0  0  0  0  0  0  0  0
   47.1752    3.1385   18.8382 H   0  0  0  0  0  0  0  0  0  0  0  0
   46.2362    3.8272   16.1193 H   0  0  0  0  0  0  0  0  0  0  0  0
   45.9646    6.6486   19.2757 H   0  0  0  0  0  0  0  0  0  0  0  0
   50.7488    0.6160   16.8633 H   0  0  0  0  0  0  0  0  0  0  0  0
   46.6769    5.2685   17.5329 H   0  0  0  0  0  0  0  0  0  0  0  0
   50.6610    3.8140   17.2340 H   0  0  0  0  0  0  0  0  0  0  0  0
   47.8723    6.2081   19.1668 H   0  0  0  0  0  0  0  0  0  0  0  0
   48.1559    4.6530   19.9298 H   0  0  0  0  0  0  0  0  0  0  0  0
   50.2781    5.6043   19.0419 H   0  0  0  0  0  0  0  0  0  0  0  0
   49.5771    5.7187   17.4310 H   0  0  0  0  0  0  0  0  0  0  0  0
   46.9020    2.7518   17.0709 H   0  0  0  0  0  0  0  0  0  0  0  0
   47.9093    3.9488   16.2648 H   0  0  0  0  0  0  0  0  0  0  0  0
   49.2836    2.0566   17.1177 H   0  0  0  0  0  0  0  0  0  0  0  0
   48.6973    2.3355   18.7492 H   0  0  0  0  0  0  0  0  0  0  0  0
   48.7149    3.5595   15.8069 H   0  0  0  0  0  0  0  0  0  0  0  0
   50.0996    4.3975   16.5435 H   0  0  0  0  0  0  0  0  0  0  0  0
   47.0728    5.4613   16.7360 H   0  0  0  0  0  0  0  0  0  0  0  0
   48.6149    6.1785   17.2278 H   0  0  0  0  0  0  0  0  0  0  0  0
   46.7282    3.4260   18.6677 H   0  0  0  0  0  0  0  0  0  0  0  0
   50.6397    4.7269   20.0805 H   0  0  0  0  0  0  0  0  0  0  0  0
   50.6673    0.8442   16.1691 H   0  0  0  0  0  0  0  0  0  0  0  0
   45.8438    5.9203   20.0260 H   0  0  0  0  0  0  0  0  0  0  0  0
   50.0962    5.7436   18.5336 H   0  0  0  0  0  0  0  0  0  0  0  0
   47.5295    3.5157   16.2027 H   0  0  0  0  0  0  0  0  0  0  0  0
   48.0411    6.1550   19.3417 H   0  0  0  0  0  0  0  0  0  0  0  0
   47.8348    4.4850   19.8380 H   0  0  0  0  0  0  0  0  0  0  0  0
   46.3234    5.0360   17.9364 H   0  0  0  0  0  0  0  0  0  0  0  0
   47.6982    5.5485   16.9649 H   0  0  0  0  0  0  0  0  0  0  0  0
   50.8095    3.2612   18.2427 H   0  0  0  0  0  0  0  0  0  0  0  0
   50.1806    4.2597   16.9354 H   0  0  0  0  0  0  0  0  0  0  0  0
   48.5349    2.3133   18.6411 H   0  0  0  0  0  0  0  0  0  0  0  0
   49.0466    2.0507   16.9822 H   0  0  0  0  0  0  0  0  0  0  0  0
  2  6  1  0
  3  1  1  0
  4  3  1  0
  5  1  1  0
  6  5  1  0
  2  4  1  0
  8  7  1  0
  9  7  1  0
 10  7  1  0
 11  9  1  0
 12  8  1  0
 13 10  2  0
 14 12  2  0
 15 11  2  0
 16  7  1  0
 17 10  1  0
 18 12  1  0
 19 11  1  0
 21 25  1  0
 22 20  1  0
 23 22  1  0
 24 20  1  0
 25 24  1  0
 21 23  1  0
 27 26  1  0
 28 26  1  0
 29 26  1  0
 30 28  1  0
 31 27  1  0
 32 29  2  0
 33 31  2  0
 34 30  2  0
 35 26  1  0
 36 29  1  0
 37 31  1  0
 38 30  1  0
 40 44  1  0
 41 39  1  0
 42 41  1  0
 43 39  1  0
 44 43  1  0
 40 42  1  0
  1 45  1  0
  2 46  1  0
  3 47  1  0
  3 48  1  0
  4 49  1  0
  4 50  1  0
  5 51  1  0
  5 52  1  0
  6 53  1  0
  6 54  1  0
  8 55  1  0
  8 56  1  0
  9 57  1  0
  9 58  1  0
 16 59  1  0
 17 60  1  0
 18 61  1  0
 19 62  1  0
 20 63  1  0
 21 64  1  0
 22 65  1  0
 22 66  1  0
 23 67  1  0
 23 68  1  0
 24 69  1  0
 24 70  1  0
 25 71  1  0
 25 72  1  0
 27 73  1  0
 27 74  1  0
 28 75  1  0
 28 76  1  0
 35 77  1  0
 36 78  1  0
 37 79  1  0
 38 80  1  0
 39 81  1  0
 40 82  1  0
 41 83  1  0
 41 84  1  0
 42 85  1  0
 42 86  1  0
 43 87  1  0
 43 88  1  0
 44 89  1  0
 44 90  1  0
M  END
> <Uni-Dock RESULT> 
ENERGY=   -7.571  LOWER_BOUND=    6.383  UPPER_BOUND=    8.171
INTER + INTRA:          -7.571
INTER:                  -7.571
INTRA:                   0.000
UNBOUND:                 0.000

$$$$

     RDKit          3D

 90 88  0  0  0  0  0  0  0  0999 V2000
   49.6963    4.3959   18.0671 N   0  0  0  0  0  0  0  0  0  0  0  0
   47.2479    5.5897   18.5983 N   0  0  0  0  0  0  0  0  0  0  0  0
   49.1872    4.1657   19.4307 C   0  0  0  0  0  0  0  0  0  0  0  0
   47.9551    5.0392   19.7717 C   0  0  0  0  0  0  0  0  0  0  0  0
   48.6228    4.1041   17.0955 C   0  0  0  0  0  0  0  0  0  0  0  0
   47.2128    4.5712   17.5344 C   0  0  0  0  0  0  0  0  0  0  0  0
   48.3826    4.4365   18.5108 C   0  0  0  0  0  0  0  0  0  0  0  0
   49.6655    4.6221   19.3364 C   0  0  0  0  0  0  0  0  0  0  0  0
   48.7730    3.8579   17.1411 C   0  0  0  0  0  0  0  0  0  0  0  0
   47.7166    5.8082   18.3023 C   0  0  0  0  0  0  0  0  0  0  0  0
   47.6051    3.6896   16.2091 C   0  0  0  0  0  0  0  0  0  0  0  0
   49.4593    4.9798   20.7820 C   0  0  0  0  0  0  0  0  0  0  0  0
   48.2166    6.7867   17.7721 O   0  0  0  0  0  0  0  0  0  0  0  0
   50.2213    4.6860   21.6901 O   0  0  0  0  0  0  0  0  0  0  0  0
   46.5427    4.2875   16.2247 O   0  0  0  0  0  0  0  0  0  0  0  0
   47.5518    3.4741   19.1665 O   0  0  0  0  0  0  0  0  0  0  0  0
   46.4492    5.8321   18.7761 O   0  0  0  0  0  0  0  0  0  0  0  0
   48.3907    5.7531   21.0326 O   0  0  0  0  0  0  0  0  0  0  0  0
   47.8668    2.7964   15.2325 O   0  0  0  0  0  0  0  0  0  0  0  0
   47.5555    5.2617   19.5793 N   0  0  0  0  0  0  0  0  0  0  0  0
   49.0027    3.7950   17.3388 N   0  0  0  0  0  0  0  0  0  0  0  0
   48.8344    4.5530   19.7479 C   0  0  0  0  0  0  0  0  0  0  0  0
   49.6815    4.4626   18.4615 C   0  0  0  0  0  0  0  0  0  0  0  0
   47.0566    5.1650   18.1979 C   0  0  0  0  0  0  0  0  0  0  0  0
   47.5384    3.9067   17.4469 C   0  0  0  0  0  0  0  0  0  0  0  0
   48.0617    4.7446   18.4280 C   0  0  0  0  0  0  0  0  0  0  0  0
   48.2046    5.0314   16.9279 C   0  0  0  0  0  0  0  0  0  0  0  0
   48.6155    5.9365   19.2270 C   0  0  0  0  0  0  0  0  0  0  0  0
   48.8111    3.4655   18.8453 C   0  0  0  0  0  0  0  0  0  0  0  0
   48.8073    5.6137   20.6824 C   0  0  0  0  0  0  0  0  0  0  0  0
   47.7666    3.8774   16.0678 C   0  0  0  0  0  0  0  0  0  0  0  0
   48.3801    2.5923   19.5844 O   0  0  0  0  0  0  0  0  0  0  0  0
   47.8573    2.6869   16.3142 O   0  0  0  0  0  0  0  0  0  0  0  0
   49.8455    5.7284   21.3104 O   0  0  0  0  0  0  0  0  0  0  0  0
   46.6566    4.6466   18.7043 O   0  0  0  0  0  0  0  0  0  0  0  0
   50.0755    3.4111   18.3816 O   0  0  0  0  0  0  0  0  0  0  0  0
   47.2942    4.2888   14.8734 O   0  0  0  0  0  0  0  0  0  0  0  0
   47.6812    5.1839   21.2824 O   0  0  0  0  0  0  0  0  0  0  0  0
   49.6471    3.9199   18.6238 N   0  0  0  0  0  0  0  0  0  0  0  0
   46.9190    5.2199   18.2636 N   0  0  0  0  0  0  0  0  0  0  0  0
   48.8435    4.4623   19.7315 C   0  0  0  0  0  0  0  0  0  0  0  0
   47.8840    5.5947   19.3118 C   0  0  0  0  0  0  0  0  0  0  0  0
   48.9170    3.9788   17.3454 C   0  0  0  0  0  0  0  0  0  0  0  0
   47.3837    4.0547   17.4927 C   0  0  0  0  0  0  0  0  0  0  0  0
   49.9223    5.3871   17.9914 H   0  0  0  0  0  0  0  0  0  0  0  0
   47.7949    6.3756   18.2475 H   0  0  0  0  0  0  0  0  0  0  0  0
   49.9892    4.3672   20.1489 H   0  0  0  0  0  0  0  0  0  0  0  0
   48.9291    3.1051   19.5381 H   0  0  0  0  0  0  0  0  0  0  0  0
   48.2697    5.8833   20.3940 H   0  0  0  0  0  0  0  0  0  0  0  0
   47.2515    4.4522   20.3714 H   0  0  0  0  0  0  0  0  0  0  0  0
   48.8897    4.5924   16.1516 H   0  0  0  0  0  0  0  0  0  0  0  0
   48.6009    3.0272   16.8954 H   0  0  0  0  0  0  0  0  0  0  0  0
   46.6301    3.7106   17.8859 H   0  0  0  0  0  0  0  0  0  0  0  0
   46.6786    4.9771   16.6687 H   0  0  0  0  0  0  0  0  0  0  0  0
   50.3144    5.3885   18.8957 H   0  0  0  0  0  0  0  0  0  0  0  0
   50.2188    3.6732   19.3457 H   0  0  0  0  0  0  0  0  0  0  0  0
   49.2176    2.8648   17.2868 H   0  0  0  0  0  0  0  0  0  0  0  0
   49.5035    4.4988   16.6349 H   0  0  0  0  0  0  0  0  0  0  0  0
   46.7020    3.9386   19.3395 H   0  0  0  0  0  0  0  0  0  0  0  0
   46.1211    6.7261   18.5390 H   0  0  0  0  0  0  0  0  0  0  0  0
   48.4370    5.9123   21.9989 H   0  0  0  0  0  0  0  0  0  0  0  0
   47.0472    2.7762   14.6959 H   0  0  0  0  0  0  0  0  0  0  0  0
   47.6701    6.2455   19.8194 H   0  0  0  0  0  0  0  0  0  0  0  0
   49.3193    4.2164   16.4667 H   0  0  0  0  0  0  0  0  0  0  0  0
   49.4141    5.0500   20.5337 H   0  0  0  0  0  0  0  0  0  0  0  0
   48.6226    3.5405   20.1142 H   0  0  0  0  0  0  0  0  0  0  0  0
   50.6140    3.9273   18.6714 H   0  0  0  0  0  0  0  0  0  0  0  0
   49.9619    5.4777   18.1513 H   0  0  0  0  0  0  0  0  0  0  0  0
   45.9623    5.1836   18.2215 H   0  0  0  0  0  0  0  0  0  0  0  0
   47.3771    6.0545   17.6409 H   0  0  0  0  0  0  0  0  0  0  0  0
   47.1074    3.8909   16.4396 H   0  0  0  0  0  0  0  0  0  0  0  0
   47.1602    3.0135   17.9597 H   0  0  0  0  0  0  0  0  0  0  0  0
   47.5804    5.8969   16.6692 H   0  0  0  0  0  0  0  0  0  0  0  0
   49.2410    5.2609   16.6548 H   0  0  0  0  0  0  0  0  0  0  0  0
   47.9533    6.8070   19.1610 H   0  0  0  0  0  0  0  0  0  0  0  0
   49.5975    6.2351   18.8384 H   0  0  0  0  0  0  0  0  0  0  0  0
   46.5734    4.3876   19.6453 H   0  0  0  0  0  0  0  0  0  0  0  0
   50.4010    2.5368   18.6905 H   0  0  0  0  0  0  0  0  0  0  0  0
   47.0446    3.4564   14.4169 H   0  0  0  0  0  0  0  0  0  0  0  0
   47.9543    5.0005   22.2077 H   0  0  0  0  0  0  0  0  0  0  0  0
   50.5085    4.4564   18.5305 H   0  0  0  0  0  0  0  0  0  0  0  0
   46.7991    6.0147   17.6384 H   0  0  0  0  0  0  0  0  0  0  0  0
   49.5196    4.8255   20.5134 H   0  0  0  0  0  0  0  0  0  0  0  0
   48.2687    3.6416   20.1794 H   0  0  0  0  0  0  0  0  0  0  0  0
   47.3259    5.9471   20.1859 H   0  0  0  0  0  0  0  0  0  0  0  0
   48.4799    6.4450   18.9542 H   0  0  0  0  0  0  0  0  0  0  0  0
   49.1865    3.0998   16.7507 H   0  0  0  0  0  0  0  0  0  0  0  0
   49.2601    4.8590   16.7862 H   0  0  0  0  0  0  0  0  0  0  0  0
   47.0161    3.1448   17.9832 H   0  0  0  0  0  0  0  0  0  0  0  0
   46.9195    4.0796   16.5000 H   0  0  0  0  0  0  0  0  0  0  0  0
  2  6  1  0
  3  1  1  0
  4  3  1  0
  5  1  1  0
  6  5  1  0
  2  4  1  0
  8  7  1  0
  9  7  1  0
 10  7  1  0
 11  9  1  0
 12  8  1  0
 13 10  2  0
 14 12  2  0
 15 11  2  0
 16  7  1  0
 17 10  1  0
 18 12  1  0
 19 11  1  0
 21 25  1  0
 22 20  1  0
 23 22  1  0
 24 20  1  0
 25 24  1  0
 21 23  1  0
 27 26  1  0
 28 26  1  0
 29 26  1  0
 30 28  1  0
 31 27  1  0
 32 29  2  0
 33 31  2  0
 34 30  2  0
 35 26  1  0
 36 29  1  0
 37 31  1  0
 38 30  1  0
 40 44  1  0
 41 39  1  0
 42 41  1  0
 43 39  1  0
 44 43  1  0
 40 42  1  0
  1 45  1  0
  2 46  1  0
  3 47  1  0
  3 48  1  0
  4 49  1  0
  4 50  1  0
  5 51  1  0
  5 52  1  0
  6 53  1  0
  6 54  1  0
  8 55  1  0
  8 56  1  0
  9 57  1  0
  9 58  1  0
 16 59  1  0
 17 60  1  0
 18 61  1  0
 19 62  1  0
 20 63  1  0
 21 64  1  0
 22 65  1  0
 22 66  1  0
 23 67  1  0
 23 68  1  0
 24 69  1  0
 24 70  1  0
 25 71  1  0
 25 72  1  0
 27 73  1  0
 27 74  1  0
 28 75  1  0
 28 76  1  0
 35 77  1  0
 36 78  1  0
 37 79  1  0
 38 80  1  0
 39 81  1  0
 40 82  1  0
 41 83  1  0
 41 84  1  0
 42 85  1  0
 42 86  1  0
 43 87  1  0
 43 88  1  0
 44 89  1  0
 44 90  1  0
M  END
> <Uni-Dock RESULT> 
ENERGY=   -7.328  LOWER_BOUND=    6.596  UPPER_BOUND=    8.349
INTER + INTRA:          -7.328
INTER:                  -7.328
INTRA:                   0.000
UNBOUND:                 0.000

$$$$

     RDKit          3D

 90 88  0  0  0  0  0  0  0  0999 V2000
   44.5276    5.3889   10.2764 N   0  0  0  0  0  0  0  0  0  0  0  0
   43.3964    5.4708   12.8093 N   0  0  0  0  0  0  0  0  0  0  0  0
   45.3173    6.1315   11.2746 C   0  0  0  0  0  0  0  0  0  0  0  0
   44.5499    6.3680   12.5984 C   0  0  0  0  0  0  0  0  0  0  0  0
   44.1416    4.0805   10.8426 C   0  0  0  0  0  0  0  0  0  0  0  0
   43.7446    4.1185   12.3392 C   0  0  0  0  0  0  0  0  0  0  0  0
   44.5137    5.2511   11.6566 C   0  0  0  0  0  0  0  0  0  0  0  0
   44.9507    6.4727   10.8328 C   0  0  0  0  0  0  0  0  0  0  0  0
   44.3979    4.0482   10.7064 C   0  0  0  0  0  0  0  0  0  0  0  0
   43.1338    5.5317   12.2779 C   0  0  0  0  0  0  0  0  0  0  0  0
   43.9111    2.7971   11.3836 C   0  0  0  0  0  0  0  0  0  0  0  0
   45.3209    7.6924   11.6299 C   0  0  0  0  0  0  0  0  0  0  0  0
   42.1085    5.8091   11.6777 O   0  0  0  0  0  0  0  0  0  0  0  0
   46.1321    8.5359   11.2803 O   0  0  0  0  0  0  0  0  0  0  0  0
   43.2463    2.7070   12.4017 O   0  0  0  0  0  0  0  0  0  0  0  0
   45.5371    4.9525   12.6104 O   0  0  0  0  0  0  0  0  0  0  0  0
   43.1558    5.4263   13.6268 O   0  0  0  0  0  0  0  0  0  0  0  0
   44.6197    7.8706   12.7609 O   0  0  0  0  0  0  0  0  0  0  0  0
   44.2388    1.6891   10.6870 O   0  0  0  0  0  0  0  0  0  0  0  0
   44.2047    6.1798   12.9011 N   0  0  0  0  0  0  0  0  0  0  0  0
   44.5831    4.2566   10.5722 N   0  0  0  0  0  0  0  0  0  0  0  0
   45.0873    6.4384   11.7521 C   0  0  0  0  0  0  0  0  0  0  0  0
   44.6614    5.7218   10.4538 C   0  0  0  0  0  0  0  0  0  0  0  0
   43.5364    4.8729   12.7918 C   0  0  0  0  0  0  0  0  0  0  0  0
   44.3211    3.8382   11.9595 C   0  0  0  0  0  0  0  0  0  0  0  0
   44.1605    5.2209   11.9379 C   0  0  0  0  0  0  0  0  0  0  0  0
   43.2005    4.2618   11.2226 C   0  0  0  0  0  0  0  0  0  0  0  0
   43.6112    6.6543   11.8403 C   0  0  0  0  0  0  0  0  0  0  0  0
   45.5755    5.1805   11.3315 C   0  0  0  0  0  0  0  0  0  0  0  0
   44.6302    7.6884   12.2296 C   0  0  0  0  0  0  0  0  0  0  0  0
   43.7047    2.8447   11.1927 C   0  0  0  0  0  0  0  0  0  0  0  0
   46.6231    5.1442   11.9606 O   0  0  0  0  0  0  0  0  0  0  0  0
   44.8614    2.4658   11.1244 O   0  0  0  0  0  0  0  0  0  0  0  0
   44.9946    8.6279   11.5443 O   0  0  0  0  0  0  0  0  0  0  0  0
   44.1699    4.8486   13.3241 O   0  0  0  0  0  0  0  0  0  0  0  0
   45.5842    5.2770    9.9870 O   0  0  0  0  0  0  0  0  0  0  0  0
   42.6955    1.9502   11.1709 O   0  0  0  0  0  0  0  0  0  0  0  0
   45.1248    7.5042   13.4683 O   0  0  0  0  0  0  0  0  0  0  0  0
   45.2018    5.5588   10.5119 N   0  0  0  0  0  0  0  0  0  0  0  0
   43.5008    4.8991   12.9478 N   0  0  0  0  0  0  0  0  0  0  0  0
   45.1586    6.3833   11.7307 C   0  0  0  0  0  0  0  0  0  0  0  0
   43.8369    6.2673   12.5173 C   0  0  0  0  0  0  0  0  0  0  0  0
   44.4157    4.3223   10.6662 C   0  0  0  0  0  0  0  0  0  0  0  0
   44.1933    3.8896   12.1296 C   0  0  0  0  0  0  0  0  0  0  0  0
   43.6731    5.9195   10.1104 H   0  0  0  0  0  0  0  0  0  0  0  0
   42.6314    5.8070   12.2248 H   0  0  0  0  0  0  0  0  0  0  0  0
   45.6160    7.0947   10.8473 H   0  0  0  0  0  0  0  0  0  0  0  0
   46.2421    5.5780   11.4776 H   0  0  0  0  0  0  0  0  0  0  0  0
   44.1770    7.3971   12.6228 H   0  0  0  0  0  0  0  0  0  0  0  0
   45.2425    6.2652   13.4403 H   0  0  0  0  0  0  0  0  0  0  0  0
   43.2997    3.7007   10.2530 H   0  0  0  0  0  0  0  0  0  0  0  0
   44.9652    3.3712   10.7050 H   0  0  0  0  0  0  0  0  0  0  0  0
   44.5688    3.7313   12.9512 H   0  0  0  0  0  0  0  0  0  0  0  0
   42.8920    3.4518   12.5061 H   0  0  0  0  0  0  0  0  0  0  0  0
   44.1736    6.7685   10.1178 H   0  0  0  0  0  0  0  0  0  0  0  0
   45.8529    6.2096   10.2642 H   0  0  0  0  0  0  0  0  0  0  0  0
   45.3886    3.8266   10.2888 H   0  0  0  0  0  0  0  0  0  0  0  0
   43.7087    4.2609    9.8816 H   0  0  0  0  0  0  0  0  0  0  0  0
   45.0959    4.9977   13.4885 H   0  0  0  0  0  0  0  0  0  0  0  0
   42.2229    5.5714   13.8943 H   0  0  0  0  0  0  0  0  0  0  0  0
   44.9633    8.7158   13.1200 H   0  0  0  0  0  0  0  0  0  0  0  0
   43.8707    0.9515   11.2167 H   0  0  0  0  0  0  0  0  0  0  0  0
   43.4947    6.9081   12.9638 H   0  0  0  0  0  0  0  0  0  0  0  0
   43.8413    3.9174    9.9615 H   0  0  0  0  0  0  0  0  0  0  0  0
   45.1322    7.5190   11.5758 H   0  0  0  0  0  0  0  0  0  0  0  0
   46.1047    6.1271   12.0208 H   0  0  0  0  0  0  0  0  0  0  0  0
   45.3634    5.9682    9.6497 H   0  0  0  0  0  0  0  0  0  0  0  0
   43.6795    6.1040   10.1453 H   0  0  0  0  0  0  0  0  0  0  0  0
   43.3682    4.4830   13.8009 H   0  0  0  0  0  0  0  0  0  0  0  0
   42.5475    5.0160   12.3382 H   0  0  0  0  0  0  0  0  0  0  0  0
   43.7767    2.8873   11.9450 H   0  0  0  0  0  0  0  0  0  0  0  0
   45.2829    3.6370   12.4477 H   0  0  0  0  0  0  0  0  0  0  0  0
   42.2372    4.2628   11.7494 H   0  0  0  0  0  0  0  0  0  0  0  0
   43.0247    4.5627   10.1834 H   0  0  0  0  0  0  0  0  0  0  0  0
   42.7322    6.7922   12.4798 H   0  0  0  0  0  0  0  0  0  0  0  0
   43.3113    6.8802   10.8091 H   0  0  0  0  0  0  0  0  0  0  0  0
   44.8409    5.4126   13.7613 H   0  0  0  0  0  0  0  0  0  0  0  0
   46.5351    5.1964    9.7524 H   0  0  0  0  0  0  0  0  0  0  0  0
   43.1494    1.0800   11.1550 H   0  0  0  0  0  0  0  0  0  0  0  0
   45.7765    8.2304   13.5795 H   0  0  0  0  0  0  0  0  0  0  0  0
   44.8242    6.0876    9.7268 H   0  0  0  0  0  0  0  0  0  0  0  0
   42.4939    4.7734   12.8616 H   0  0  0  0  0  0  0  0  0  0  0  0
   45.3308    7.4296   11.4554 H   0  0  0  0  0  0  0  0  0  0  0  0
   45.9968    6.0937   12.3772 H   0  0  0  0  0  0  0  0  0  0  0  0
   43.8790    6.9085   13.4043 H   0  0  0  0  0  0  0  0  0  0  0  0
   43.0205    6.6497   11.8902 H   0  0  0  0  0  0  0  0  0  0  0  0
   44.9195    3.5197   10.1176 H   0  0  0  0  0  0  0  0  0  0  0  0
   43.4371    4.4677   10.1903 H   0  0  0  0  0  0  0  0  0  0  0  0
   45.1601    3.6668   12.5979 H   0  0  0  0  0  0  0  0  0  0  0  0
   43.6161    2.9580   12.1542 H   0  0  0  0  0  0  0  0  0  0  0  0
  2  6  1  0
  3  1  1  0
  4  3  1  0
  5  1  1  0
  6  5  1  0
  2  4  1  0
  8  7  1  0
  9  7  1  0
 10  7  1  0
 11  9  1  0
 12  8  1  0
 13 10  2  0
 14 12  2  0
 15 11  2  0
 16  7  1  0
 17 10  1  0
 18 12  1  0
 19 11  1  0
 21 25  1  0
 22 20  1  0
 23 22  1  0
 24 20  1  0
 25 24  1  0
 21 23  1  0
 27 26  1  0
 28 26  1  0
 29 26  1  0
 30 28  1  0
 31 27  1  0
 32 29  2  0
 33 31  2  0
 34 30  2  0
 35 26  1  0
 36 29  1  0
 37 31  1  0
 38 30  1  0
 40 44  1  0
 41 39  1  0
 42 41  1  0
 43 39  1  0
 44 43  1  0
 40 42  1  0
  1 45  1  0
  2 46  1  0
  3 47  1  0
  3 48  1  0
  4 49  1  0
  4 50  1  0
  5 51  1  0
  5 52  1  0
  6 53  1  0
  6 54  1  0
  8 55  1  0
  8 56  1  0
  9 57  1  0
  9 58  1  0
 16 59  1  0
 17 60  1  0
 18 61  1  0
 19 62  1  0
 20 63  1  0
 21 64  1  0
 22 65  1  0
 22 66  1  0
 23 67  1  0
 23 68  1  0
 24 69  1  0
 24 70  1  0
 25 71  1  0
 25 72  1  0
 27 73  1  0
 27 74  1  0
 28 75  1  0
 28 76  1  0
 35 77  1  0
 36 78  1  0
 37 79  1  0
 38 80  1  0
 39 81  1  0
 40 82  1  0
 41 83  1  0
 41 84  1  0
 42 85  1  0
 42 86  1  0
 43 87  1  0
 43 88  1  0
 44 89  1  0
 44 90  1  0
M  END
> <Uni-Dock RESULT> 
ENERGY=   -7.221  LOWER_BOUND=    0.701  UPPER_BOUND=    3.936
INTER + INTRA:          -7.221
INTER:                  -7.221
INTRA:                   0.000
UNBOUND:                 0.000

$$$$
