
     RDKit          3D

 90 88  0  0  0  0  0  0  0  0999 V2000
   44.1052    3.5060   11.2629 N   0  0  0  0  0  0  0  0  0  0  0  0
   44.9344    5.8503   12.8828 N   0  0  0  0  0  0  0  0  0  0  0  0
   43.2995    4.7394   11.3321 C   0  0  0  0  0  0  0  0  0  0  0  0
   44.1450    5.9915   11.6516 C   0  0  0  0  0  0  0  0  0  0  0  0
   44.8575    3.3651   12.5237 C   0  0  0  0  0  0  0  0  0  0  0  0
   45.7156    4.6062   12.8527 C   0  0  0  0  0  0  0  0  0  0  0  0
   45.1611    5.0865   12.0346 C   0  0  0  0  0  0  0  0  0  0  0  0
   43.8711    5.2534   12.8490 C   0  0  0  0  0  0  0  0  0  0  0  0
   45.5658    3.6666   11.6167 C   0  0  0  0  0  0  0  0  0  0  0  0
   46.3165    5.6374   12.8816 C   0  0  0  0  0  0  0  0  0  0  0  0
   44.4098    2.7408   11.4126 C   0  0  0  0  0  0  0  0  0  0  0  0
   42.6331    5.3910   12.0072 C   0  0  0  0  0  0  0  0  0  0  0  0
   47.1569    6.4316   12.4832 O   0  0  0  0  0  0  0  0  0  0  0  0
   42.0694    4.5056   11.3842 O   0  0  0  0  0  0  0  0  0  0  0  0
   43.8538    2.1022   12.2913 O   0  0  0  0  0  0  0  0  0  0  0  0
   45.0870    5.9158   10.8577 O   0  0  0  0  0  0  0  0  0  0  0  0
   46.3830    5.1382   14.1297 O   0  0  0  0  0  0  0  0  0  0  0  0
   42.1375    6.6450   12.0091 O   0  0  0  0  0  0  0  0  0  0  0  0
   43.9940    2.6962   10.1361 O   0  0  0  0  0  0  0  0  0  0  0  0
   45.9782    5.0883   12.4116 N   0  0  0  0  0  0  0  0  0  0  0  0
   43.1943    4.3734   11.6826 N   0  0  0  0  0  0  0  0  0  0  0  0
   44.9530    6.1081   12.1361 C   0  0  0  0  0  0  0  0  0  0  0  0
   43.8444    5.5989   11.1906 C   0  0  0  0  0  0  0  0  0  0  0  0
   45.3279    3.8627   12.9034 C   0  0  0  0  0  0  0  0  0  0  0  0
   44.2195    3.3538   11.9577 C   0  0  0  0  0  0  0  0  0  0  0  0
   44.7045    5.0691   12.8060 C   0  0  0  0  0  0  0  0  0  0  0  0
   45.2799    5.7806   11.5806 C   0  0  0  0  0  0  0  0  0  0  0  0
   43.5545    4.0778   12.6077 C   0  0  0  0  0  0  0  0  0  0  0  0
   45.8681    4.4161   13.5617 C   0  0  0  0  0  0  0  0  0  0  0  0
   43.7632    3.0501   11.5286 C   0  0  0  0  0  0  0  0  0  0  0  0
   44.2859    6.6263   10.8425 C   0  0  0  0  0  0  0  0  0  0  0  0
   46.5031    4.9587   14.4571 O   0  0  0  0  0  0  0  0  0  0  0  0
   44.3692    7.8307   10.6649 O   0  0  0  0  0  0  0  0  0  0  0  0
   44.6002    3.0402   10.6443 O   0  0  0  0  0  0  0  0  0  0  0  0
   44.1957    6.0929   13.7035 O   0  0  0  0  0  0  0  0  0  0  0  0
   46.1998    3.1829   13.1504 O   0  0  0  0  0  0  0  0  0  0  0  0
   43.2739    5.9305   10.2968 O   0  0  0  0  0  0  0  0  0  0  0  0
   42.8516    2.0578   11.6071 O   0  0  0  0  0  0  0  0  0  0  0  0
   45.5773    5.6921   12.6806 N   0  0  0  0  0  0  0  0  0  0  0  0
   43.5417    3.8206   11.4072 N   0  0  0  0  0  0  0  0  0  0  0  0
   45.3351    4.3117   13.1291 C   0  0  0  0  0  0  0  0  0  0  0  0
   44.7921    3.3673   12.0367 C   0  0  0  0  0  0  0  0  0  0  0  0
   44.7615    6.0313   11.5016 C   0  0  0  0  0  0  0  0  0  0  0  0
   43.4121    5.2883   11.4525 C   0  0  0  0  0  0  0  0  0  0  0  0
   44.7796    3.6143   10.5061 H   0  0  0  0  0  0  0  0  0  0  0  0
   45.5613    6.6469   12.9825 H   0  0  0  0  0  0  0  0  0  0  0  0
   42.5123    4.6167   12.0865 H   0  0  0  0  0  0  0  0  0  0  0  0
   42.7942    4.8814   10.3704 H   0  0  0  0  0  0  0  0  0  0  0  0
   43.4809    6.8561   11.7562 H   0  0  0  0  0  0  0  0  0  0  0  0
   44.8179    6.2019   10.8108 H   0  0  0  0  0  0  0  0  0  0  0  0
   45.5084    2.4871   12.4462 H   0  0  0  0  0  0  0  0  0  0  0  0
   44.1564    3.1669   13.3440 H   0  0  0  0  0  0  0  0  0  0  0  0
   46.5206    4.7004   12.1130 H   0  0  0  0  0  0  0  0  0  0  0  0
   46.1908    4.4652   13.8295 H   0  0  0  0  0  0  0  0  0  0  0  0
   43.9330    6.1644   13.4622 H   0  0  0  0  0  0  0  0  0  0  0  0
   43.7243    4.4423   13.5711 H   0  0  0  0  0  0  0  0  0  0  0  0
   46.2022    3.1842   12.3699 H   0  0  0  0  0  0  0  0  0  0  0  0
   46.1657    3.6833   10.6977 H   0  0  0  0  0  0  0  0  0  0  0  0
   45.9864    6.2565   10.6769 H   0  0  0  0  0  0  0  0  0  0  0  0
   47.1650    5.5730   14.5331 H   0  0  0  0  0  0  0  0  0  0  0  0
   41.3686    6.5964   11.4033 H   0  0  0  0  0  0  0  0  0  0  0  0
   43.1260    2.2393   10.1788 H   0  0  0  0  0  0  0  0  0  0  0  0
   46.6116    5.4391   13.1281 H   0  0  0  0  0  0  0  0  0  0  0  0
   42.5601    4.0228   10.9664 H   0  0  0  0  0  0  0  0  0  0  0  0
   45.4384    6.9788   11.6822 H   0  0  0  0  0  0  0  0  0  0  0  0
   44.5073    6.4444   13.0811 H   0  0  0  0  0  0  0  0  0  0  0  0
   43.0832    6.3783   11.0789 H   0  0  0  0  0  0  0  0  0  0  0  0
   44.2653    5.4155   10.1938 H   0  0  0  0  0  0  0  0  0  0  0  0
   44.9066    4.0463   13.8999 H   0  0  0  0  0  0  0  0  0  0  0  0
   46.0890    3.0827   13.0150 H   0  0  0  0  0  0  0  0  0  0  0  0
   44.6662    3.0194   11.0128 H   0  0  0  0  0  0  0  0  0  0  0  0
   43.7344    2.4825   12.4111 H   0  0  0  0  0  0  0  0  0  0  0  0
   45.7666    5.1039   10.8726 H   0  0  0  0  0  0  0  0  0  0  0  0
   46.0709    6.4702   11.9089 H   0  0  0  0  0  0  0  0  0  0  0  0
   43.3825    3.5416   13.5510 H   0  0  0  0  0  0  0  0  0  0  0  0
   42.6223    4.6121   12.3894 H   0  0  0  0  0  0  0  0  0  0  0  0
   44.9675    6.4896   14.1589 H   0  0  0  0  0  0  0  0  0  0  0  0
   46.9696    2.9301   13.7038 H   0  0  0  0  0  0  0  0  0  0  0  0
   42.7499    6.6123    9.8247 H   0  0  0  0  0  0  0  0  0  0  0  0
   43.0744    1.4696   10.8550 H   0  0  0  0  0  0  0  0  0  0  0  0
   46.5592    5.8031   12.4316 H   0  0  0  0  0  0  0  0  0  0  0  0
   42.7465    3.4186   11.9027 H   0  0  0  0  0  0  0  0  0  0  0  0
   46.2654    3.9020   13.5385 H   0  0  0  0  0  0  0  0  0  0  0  0
   44.6199    4.3445   13.9601 H   0  0  0  0  0  0  0  0  0  0  0  0
   44.6360    2.3681   12.4589 H   0  0  0  0  0  0  0  0  0  0  0  0
   45.5498    3.2552   11.2512 H   0  0  0  0  0  0  0  0  0  0  0  0
   44.5859    7.1123   11.5005 H   0  0  0  0  0  0  0  0  0  0  0  0
   45.3313    5.8002   10.5925 H   0  0  0  0  0  0  0  0  0  0  0  0
   42.8454    5.6127   10.5733 H   0  0  0  0  0  0  0  0  0  0  0  0
   42.8203    5.5669   12.3340 H   0  0  0  0  0  0  0  0  0  0  0  0
  2  6  1  0
  3  1  1  0
  4  3  1  0
  5  1  1  0
  6  5  1  0
  2  4  1  0
  8  7  1  0
  9  7  1  0
 10  7  1  0
 11  9  1  0
 12  8  1  0
 13 10  2  0
 14 12  2  0
 15 11  2  0
 16  7  1  0
 17 10  1  0
 18 12  1  0
 19 11  1  0
 21 25  1  0
 22 20  1  0
 23 22  1  0
 24 20  1  0
 25 24  1  0
 21 23  1  0
 27 26  1  0
 28 26  1  0
 29 26  1  0
 30 28  1  0
 31 27  1  0
 32 29  2  0
 33 31  2  0
 34 30  2  0
 35 26  1  0
 36 29  1  0
 37 31  1  0
 38 30  1  0
 40 44  1  0
 41 39  1  0
 42 41  1  0
 43 39  1  0
 44 43  1  0
 40 42  1  0
  1 45  1  0
  2 46  1  0
  3 47  1  0
  3 48  1  0
  4 49  1  0
  4 50  1  0
  5 51  1  0
  5 52  1  0
  6 53  1  0
  6 54  1  0
  8 55  1  0
  8 56  1  0
  9 57  1  0
  9 58  1  0
 16 59  1  0
 17 60  1  0
 18 61  1  0
 19 62  1  0
 20 63  1  0
 21 64  1  0
 22 65  1  0
 22 66  1  0
 23 67  1  0
 23 68  1  0
 24 69  1  0
 24 70  1  0
 25 71  1  0
 25 72  1  0
 27 73  1  0
 27 74  1  0
 28 75  1  0
 28 76  1  0
 35 77  1  0
 36 78  1  0
 37 79  1  0
 38 80  1  0
 39 81  1  0
 40 82  1  0
 41 83  1  0
 41 84  1  0
 42 85  1  0
 42 86  1  0
 43 87  1  0
 43 88  1  0
 44 89  1  0
 44 90  1  0
M  END
> <Uni-Dock RESULT> 
ENERGY=   -9.407  LOWER_BOUND=    0.000  UPPER_BOUND=    0.000
INTER + INTRA:          -9.407
INTER:                  -9.407
INTRA:                   0.000
UNBOUND:                 0.000

$$$$

     RDKit          3D

 90 88  0  0  0  0  0  0  0  0999 V2000
   44.5812    3.2893   12.0248 N   0  0  0  0  0  0  0  0  0  0  0  0
   43.6334    5.5902   10.4078 N   0  0  0  0  0  0  0  0  0  0  0  0
   44.7321    3.3359   10.5585 C   0  0  0  0  0  0  0  0  0  0  0  0
   44.7895    4.7770   10.0065 C   0  0  0  0  0  0  0  0  0  0  0  0
   43.3933    4.0789   12.4001 C   0  0  0  0  0  0  0  0  0  0  0  0
   43.4401    5.5260   11.8629 C   0  0  0  0  0  0  0  0  0  0  0  0
   44.2961    5.1753   11.2698 C   0  0  0  0  0  0  0  0  0  0  0  0
   43.4335    4.3949   10.2686 C   0  0  0  0  0  0  0  0  0  0  0  0
   44.4042    4.6299   12.7000 C   0  0  0  0  0  0  0  0  0  0  0  0
   43.7058    6.5874   11.3854 C   0  0  0  0  0  0  0  0  0  0  0  0
   44.2840    3.1426   12.7935 C   0  0  0  0  0  0  0  0  0  0  0  0
   44.1723    3.2981    9.5536 C   0  0  0  0  0  0  0  0  0  0  0  0
   44.3509    7.6227   11.2972 O   0  0  0  0  0  0  0  0  0  0  0  0
   44.5192    2.2246   10.0196 O   0  0  0  0  0  0  0  0  0  0  0  0
   43.2352    2.5221   12.8560 O   0  0  0  0  0  0  0  0  0  0  0  0
   45.6231    5.3313   10.7285 O   0  0  0  0  0  0  0  0  0  0  0  0
   42.3863    6.6227   11.6483 O   0  0  0  0  0  0  0  0  0  0  0  0
   44.4204    3.5924    8.2612 O   0  0  0  0  0  0  0  0  0  0  0  0
   45.4734    2.5187   12.7653 O   0  0  0  0  0  0  0  0  0  0  0  0
   44.0030    5.9135   11.6927 N   0  0  0  0  0  0  0  0  0  0  0  0
   44.2979    3.1208   10.7404 N   0  0  0  0  0  0  0  0  0  0  0  0
   44.4184    5.5936   10.3172 C   0  0  0  0  0  0  0  0  0  0  0  0
   45.1178    4.2219   10.2094 C   0  0  0  0  0  0  0  0  0  0  0  0
   43.1832    4.8122   12.2238 C   0  0  0  0  0  0  0  0  0  0  0  0
   43.8829    3.4408   12.1158 C   0  0  0  0  0  0  0  0  0  0  0  0
   43.5050    4.9566   10.9088 C   0  0  0  0  0  0  0  0  0  0  0  0
   44.9083    5.5614   10.8479 C   0  0  0  0  0  0  0  0  0  0  0  0
   43.3645    3.4391   11.0574 C   0  0  0  0  0  0  0  0  0  0  0  0
   42.7224    5.6903   12.0045 C   0  0  0  0  0  0  0  0  0  0  0  0
   44.1874    2.8160   12.1523 C   0  0  0  0  0  0  0  0  0  0  0  0
   45.7337    5.0747    9.6947 C   0  0  0  0  0  0  0  0  0  0  0  0
   42.0379    6.6880   11.8161 O   0  0  0  0  0  0  0  0  0  0  0  0
   46.1947    5.7717    8.8053 O   0  0  0  0  0  0  0  0  0  0  0  0
   45.1147    3.3032   12.7731 O   0  0  0  0  0  0  0  0  0  0  0  0
   42.8307    5.2979    9.6672 O   0  0  0  0  0  0  0  0  0  0  0  0
   42.8615    5.1907   13.2419 O   0  0  0  0  0  0  0  0  0  0  0  0
   46.0109    3.7604    9.7364 O   0  0  0  0  0  0  0  0  0  0  0  0
   43.7996    1.5475   12.4022 O   0  0  0  0  0  0  0  0  0  0  0  0
   43.8485    5.9797   10.9381 N   0  0  0  0  0  0  0  0  0  0  0  0
   44.4657    3.0385   11.4239 N   0  0  0  0  0  0  0  0  0  0  0  0
   43.0703    5.1131   11.8373 C   0  0  0  0  0  0  0  0  0  0  0  0
   43.8597    3.9267   12.4284 C   0  0  0  0  0  0  0  0  0  0  0  0
   44.9981    5.2654   10.3557 C   0  0  0  0  0  0  0  0  0  0  0  0
   44.7537    3.7553   10.1685 C   0  0  0  0  0  0  0  0  0  0  0  0
   45.3985    3.7371   12.4383 H   0  0  0  0  0  0  0  0  0  0  0  0
   43.7780    6.5574   10.1230 H   0  0  0  0  0  0  0  0  0  0  0  0
   43.9040    2.7886   10.0909 H   0  0  0  0  0  0  0  0  0  0  0  0
   45.6523    2.8080   10.2846 H   0  0  0  0  0  0  0  0  0  0  0  0
   44.8322    4.7410    8.9126 H   0  0  0  0  0  0  0  0  0  0  0  0
   45.7118    5.2627   10.3491 H   0  0  0  0  0  0  0  0  0  0  0  0
   43.3201    4.1023   13.4930 H   0  0  0  0  0  0  0  0  0  0  0  0
   42.4912    3.5729   12.0340 H   0  0  0  0  0  0  0  0  0  0  0  0
   44.2489    6.0749   12.3615 H   0  0  0  0  0  0  0  0  0  0  0  0
   42.5029    6.0332   12.1162 H   0  0  0  0  0  0  0  0  0  0  0  0
   43.0582    5.0755    9.4905 H   0  0  0  0  0  0  0  0  0  0  0  0
   42.5318    3.9768   10.7301 H   0  0  0  0  0  0  0  0  0  0  0  0
   43.6178    5.0322   13.3517 H   0  0  0  0  0  0  0  0  0  0  0  0
   45.3505    4.9333   13.1658 H   0  0  0  0  0  0  0  0  0  0  0  0
   45.9566    6.2081   11.0068 H   0  0  0  0  0  0  0  0  0  0  0  0
   42.1659    7.5777   11.7009 H   0  0  0  0  0  0  0  0  0  0  0  0
   44.9283    2.8199    7.9360 H   0  0  0  0  0  0  0  0  0  0  0  0
   45.2491    1.5743   12.6177 H   0  0  0  0  0  0  0  0  0  0  0  0
   43.4466    6.7668   11.6818 H   0  0  0  0  0  0  0  0  0  0  0  0
   44.8539    2.2671   10.7508 H   0  0  0  0  0  0  0  0  0  0  0  0
   45.1040    6.3733    9.9683 H   0  0  0  0  0  0  0  0  0  0  0  0
   43.5429    5.6152    9.6556 H   0  0  0  0  0  0  0  0  0  0  0  0
   45.3415    4.0159    9.1573 H   0  0  0  0  0  0  0  0  0  0  0  0
   46.0770    4.2542   10.7416 H   0  0  0  0  0  0  0  0  0  0  0  0
   42.2243    4.7797   11.6912 H   0  0  0  0  0  0  0  0  0  0  0  0
   42.9594    5.0179   13.2762 H   0  0  0  0  0  0  0  0  0  0  0  0
   44.7589    3.4211   12.7766 H   0  0  0  0  0  0  0  0  0  0  0  0
   43.1977    2.6609   12.4655 H   0  0  0  0  0  0  0  0  0  0  0  0
   45.4784    5.4334   11.7725 H   0  0  0  0  0  0  0  0  0  0  0  0
   44.8210    6.6491   10.7125 H   0  0  0  0  0  0  0  0  0  0  0  0
   42.3107    3.1985   11.2534 H   0  0  0  0  0  0  0  0  0  0  0  0
   43.6192    2.9374   10.1164 H   0  0  0  0  0  0  0  0  0  0  0  0
   42.5501    6.2342    9.7370 H   0  0  0  0  0  0  0  0  0  0  0  0
   42.3339    5.7863   13.8160 H   0  0  0  0  0  0  0  0  0  0  0  0
   46.5815    3.6173    8.9514 H   0  0  0  0  0  0  0  0  0  0  0  0
   44.4098    1.2465   13.1081 H   0  0  0  0  0  0  0  0  0  0  0  0
   44.2016    6.7820   11.4578 H   0  0  0  0  0  0  0  0  0  0  0  0
   43.8223    2.2767   11.2113 H   0  0  0  0  0  0  0  0  0  0  0  0
   42.6595    5.7217   12.6509 H   0  0  0  0  0  0  0  0  0  0  0  0
   42.2106    4.7258   11.2768 H   0  0  0  0  0  0  0  0  0  0  0  0
   43.2036    3.3351   13.0769 H   0  0  0  0  0  0  0  0  0  0  0  0
   44.6605    4.3138   13.0707 H   0  0  0  0  0  0  0  0  0  0  0  0
   45.2365    5.7217    9.3891 H   0  0  0  0  0  0  0  0  0  0  0  0
   45.8743    5.4096   11.0008 H   0  0  0  0  0  0  0  0  0  0  0  0
   45.6312    3.2959    9.7014 H   0  0  0  0  0  0  0  0  0  0  0  0
   43.9135    3.6140    9.4765 H   0  0  0  0  0  0  0  0  0  0  0  0
  2  6  1  0
  3  1  1  0
  4  3  1  0
  5  1  1  0
  6  5  1  0
  2  4  1  0
  8  7  1  0
  9  7  1  0
 10  7  1  0
 11  9  1  0
 12  8  1  0
 13 10  2  0
 14 12  2  0
 15 11  2  0
 16  7  1  0
 17 10  1  0
 18 12  1  0
 19 11  1  0
 21 25  1  0
 22 20  1  0
 23 22  1  0
 24 20  1  0
 25 24  1  0
 21 23  1  0
 27 26  1  0
 28 26  1  0
 29 26  1  0
 30 28  1  0
 31 27  1  0
 32 29  2  0
 33 31  2  0
 34 30  2  0
 35 26  1  0
 36 29  1  0
 37 31  1  0
 38 30  1  0
 40 44  1  0
 41 39  1  0
 42 41  1  0
 43 39  1  0
 44 43  1  0
 40 42  1  0
  1 45  1  0
  2 46  1  0
  3 47  1  0
  3 48  1  0
  4 49  1  0
  4 50  1  0
  5 51  1  0
  5 52  1  0
  6 53  1  0
  6 54  1  0
  8 55  1  0
  8 56  1  0
  9 57  1  0
  9 58  1  0
 16 59  1  0
 17 60  1  0
 18 61  1  0
 19 62  1  0
 20 63  1  0
 21 64  1  0
 22 65  1  0
 22 66  1  0
 23 67  1  0
 23 68  1  0
 24 69  1  0
 24 70  1  0
 25 71  1  0
 25 72  1  0
 27 73  1  0
 27 74  1  0
 28 75  1  0
 28 76  1  0
 35 77  1  0
 36 78  1  0
 37 79  1  0
 38 80  1  0
 39 81  1  0
 40 82  1  0
 41 83  1  0
 41 84  1  0
 42 85  1  0
 42 86  1  0
 43 87  1  0
 43 88  1  0
 44 89  1  0
 44 90  1  0
M  END
> <Uni-Dock RESULT> 
ENERGY=   -8.519  LOWER_BOUND=    1.304  UPPER_BOUND=    2.708
INTER + INTRA:          -8.519
INTER:                  -8.519
INTRA:                   0.000
UNBOUND:                 0.000

$$$$

     RDKit          3D

 90 88  0  0  0  0  0  0  0  0999 V2000
   45.6348    5.7469   11.9290 N   0  0  0  0  0  0  0  0  0  0  0  0
   43.6947    3.9893   10.5310 N   0  0  0  0  0  0  0  0  0  0  0  0
   44.3925    5.2784   12.5713 C   0  0  0  0  0  0  0  0  0  0  0  0
   43.8817    3.9431   11.9876 C   0  0  0  0  0  0  0  0  0  0  0  0
   45.4110    5.8229   10.4732 C   0  0  0  0  0  0  0  0  0  0  0  0
   44.9084    4.4918    9.8727 C   0  0  0  0  0  0  0  0  0  0  0  0
   44.7749    4.1823   10.9186 C   0  0  0  0  0  0  0  0  0  0  0  0
   43.5171    5.0347   11.1339 C   0  0  0  0  0  0  0  0  0  0  0  0
   46.1167    4.9109   10.7657 C   0  0  0  0  0  0  0  0  0  0  0  0
   44.5694    3.3730    9.6306 C   0  0  0  0  0  0  0  0  0  0  0  0
   46.1915    6.2074   11.5064 C   0  0  0  0  0  0  0  0  0  0  0  0
   43.2449    5.3653   12.5750 C   0  0  0  0  0  0  0  0  0  0  0  0
   44.7493    2.1677    9.5276 O   0  0  0  0  0  0  0  0  0  0  0  0
   43.8497    6.1668   13.2690 O   0  0  0  0  0  0  0  0  0  0  0  0
   45.7943    7.2827   11.0882 O   0  0  0  0  0  0  0  0  0  0  0  0
   44.8843    3.2232   11.9894 O   0  0  0  0  0  0  0  0  0  0  0  0
   44.2092    4.1058    8.5607 O   0  0  0  0  0  0  0  0  0  0  0  0
   42.1941    4.6854   13.0769 O   0  0  0  0  0  0  0  0  0  0  0  0
   46.7206    6.0788   12.7344 O   0  0  0  0  0  0  0  0  0  0  0  0
   44.9979    3.8377   10.1178 N   0  0  0  0  0  0  0  0  0  0  0  0
   44.3661    5.7268   12.3143 N   0  0  0  0  0  0  0  0  0  0  0  0
   43.9671    3.5492   11.1282 C   0  0  0  0  0  0  0  0  0  0  0  0
   44.2275    4.2696   12.4682 C   0  0  0  0  0  0  0  0  0  0  0  0
   45.1367    5.2951    9.9641 C   0  0  0  0  0  0  0  0  0  0  0  0
   45.3971    6.0150   11.3041 C   0  0  0  0  0  0  0  0  0  0  0  0
   44.1035    4.6928   10.6147 C   0  0  0  0  0  0  0  0  0  0  0  0
   44.6622    3.4429   11.2962 C   0  0  0  0  0  0  0  0  0  0  0  0
   44.2193    6.0378   11.3371 C   0  0  0  0  0  0  0  0  0  0  0  0
   44.7068    4.7719    9.2071 C   0  0  0  0  0  0  0  0  0  0  0  0
   45.5857    6.3711   11.8717 C   0  0  0  0  0  0  0  0  0  0  0  0
   44.0193    3.1262   12.6132 C   0  0  0  0  0  0  0  0  0  0  0  0
   44.2001    4.2772    8.2081 O   0  0  0  0  0  0  0  0  0  0  0  0
   43.4116    2.1022   12.8804 O   0  0  0  0  0  0  0  0  0  0  0  0
   46.5422    5.6320   12.0185 O   0  0  0  0  0  0  0  0  0  0  0  0
   42.6815    4.4751   10.4066 O   0  0  0  0  0  0  0  0  0  0  0  0
   45.8890    5.4008    9.1237 O   0  0  0  0  0  0  0  0  0  0  0  0
   44.2213    4.0593   13.5591 O   0  0  0  0  0  0  0  0  0  0  0  0
   45.6730    7.6687   12.2331 O   0  0  0  0  0  0  0  0  0  0  0  0
   44.2530    3.6851   10.2569 N   0  0  0  0  0  0  0  0  0  0  0  0
   45.0542    5.8685   12.2213 N   0  0  0  0  0  0  0  0  0  0  0  0
   44.7318    5.0176    9.8561 C   0  0  0  0  0  0  0  0  0  0  0  0
   45.6508    5.7066   10.8860 C   0  0  0  0  0  0  0  0  0  0  0  0
   44.2723    3.5186   11.7207 C   0  0  0  0  0  0  0  0  0  0  0  0
   44.0414    4.8324   12.4927 C   0  0  0  0  0  0  0  0  0  0  0  0
   46.3579    5.0485   12.0988 H   0  0  0  0  0  0  0  0  0  0  0  0
   43.4762    3.0574   10.1828 H   0  0  0  0  0  0  0  0  0  0  0  0
   43.6193    6.0505   12.4721 H   0  0  0  0  0  0  0  0  0  0  0  0
   44.5784    5.1554   13.6441 H   0  0  0  0  0  0  0  0  0  0  0  0
   42.9258    3.6882   12.4576 H   0  0  0  0  0  0  0  0  0  0  0  0
   44.5877    3.1414   12.2381 H   0  0  0  0  0  0  0  0  0  0  0  0
   46.3527    6.1040    9.9889 H   0  0  0  0  0  0  0  0  0  0  0  0
   44.6937    6.6248   10.2580 H   0  0  0  0  0  0  0  0  0  0  0  0
   45.7006    3.7360    9.9452 H   0  0  0  0  0  0  0  0  0  0  0  0
   44.6972    4.6358    8.8076 H   0  0  0  0  0  0  0  0  0  0  0  0
   42.6329    4.4934   10.7667 H   0  0  0  0  0  0  0  0  0  0  0  0
   43.5360    5.9628   10.5515 H   0  0  0  0  0  0  0  0  0  0  0  0
   46.3322    5.1557    9.7176 H   0  0  0  0  0  0  0  0  0  0  0  0
   46.9491    4.2743   11.0921 H   0  0  0  0  0  0  0  0  0  0  0  0
   45.2560    2.3995   11.6141 H   0  0  0  0  0  0  0  0  0  0  0  0
   44.1277    3.4578    7.8280 H   0  0  0  0  0  0  0  0  0  0  0  0
   42.1560    4.9674   14.0147 H   0  0  0  0  0  0  0  0  0  0  0  0
   46.5168    6.9309   13.1775 H   0  0  0  0  0  0  0  0  0  0  0  0
   44.7118    3.4351    9.2268 H   0  0  0  0  0  0  0  0  0  0  0  0
   44.6516    6.1298   13.2054 H   0  0  0  0  0  0  0  0  0  0  0  0
   43.9403    2.4682   11.3023 H   0  0  0  0  0  0  0  0  0  0  0  0
   42.9819    3.8369   10.7391 H   0  0  0  0  0  0  0  0  0  0  0  0
   43.3954    4.0673   13.1510 H   0  0  0  0  0  0  0  0  0  0  0  0
   45.1332    3.8627   12.9357 H   0  0  0  0  0  0  0  0  0  0  0  0
   44.2308    5.7018    9.4971 H   0  0  0  0  0  0  0  0  0  0  0  0
   45.9690    5.4978    9.2813 H   0  0  0  0  0  0  0  0  0  0  0  0
   46.3816    5.7253   11.6928 H   0  0  0  0  0  0  0  0  0  0  0  0
   45.4246    7.0962   11.1301 H   0  0  0  0  0  0  0  0  0  0  0  0
   45.7478    3.4663   11.4268 H   0  0  0  0  0  0  0  0  0  0  0  0
   44.4688    2.5715   10.6542 H   0  0  0  0  0  0  0  0  0  0  0  0
   43.9272    6.8384   10.6439 H   0  0  0  0  0  0  0  0  0  0  0  0
   43.5093    6.0863   12.1712 H   0  0  0  0  0  0  0  0  0  0  0  0
   42.5889    3.8782    9.6349 H   0  0  0  0  0  0  0  0  0  0  0  0
   46.1458    5.3326    8.1792 H   0  0  0  0  0  0  0  0  0  0  0  0
   43.7819    3.6860   14.3527 H   0  0  0  0  0  0  0  0  0  0  0  0
   46.5868    7.7593   12.5766 H   0  0  0  0  0  0  0  0  0  0  0  0
   44.8512    2.9694    9.8465 H   0  0  0  0  0  0  0  0  0  0  0  0
   44.5981    6.7784   12.2818 H   0  0  0  0  0  0  0  0  0  0  0  0
   45.2544    4.9343    8.8964 H   0  0  0  0  0  0  0  0  0  0  0  0
   43.8565    5.6540    9.6769 H   0  0  0  0  0  0  0  0  0  0  0  0
   45.9523    6.6906   10.5094 H   0  0  0  0  0  0  0  0  0  0  0  0
   46.5726    5.1211   10.9916 H   0  0  0  0  0  0  0  0  0  0  0  0
   43.5030    2.7899   11.9972 H   0  0  0  0  0  0  0  0  0  0  0  0
   45.2379    3.0916   12.0205 H   0  0  0  0  0  0  0  0  0  0  0  0
   44.0335    4.6300   13.5689 H   0  0  0  0  0  0  0  0  0  0  0  0
   43.0499    5.2268   12.2351 H   0  0  0  0  0  0  0  0  0  0  0  0
  2  6  1  0
  3  1  1  0
  4  3  1  0
  5  1  1  0
  6  5  1  0
  2  4  1  0
  8  7  1  0
  9  7  1  0
 10  7  1  0
 11  9  1  0
 12  8  1  0
 13 10  2  0
 14 12  2  0
 15 11  2  0
 16  7  1  0
 17 10  1  0
 18 12  1  0
 19 11  1  0
 21 25  1  0
 22 20  1  0
 23 22  1  0
 24 20  1  0
 25 24  1  0
 21 23  1  0
 27 26  1  0
 28 26  1  0
 29 26  1  0
 30 28  1  0
 31 27  1  0
 32 29  2  0
 33 31  2  0
 34 30  2  0
 35 26  1  0
 36 29  1  0
 37 31  1  0
 38 30  1  0
 40 44  1  0
 41 39  1  0
 42 41  1  0
 43 39  1  0
 44 43  1  0
 40 42  1  0
  1 45  1  0
  2 46  1  0
  3 47  1  0
  3 48  1  0
  4 49  1  0
  4 50  1  0
  5 51  1  0
  5 52  1  0
  6 53  1  0
  6 54  1  0
  8 55  1  0
  8 56  1  0
  9 57  1  0
  9 58  1  0
 16 59  1  0
 17 60  1  0
 18 61  1  0
 19 62  1  0
 20 63  1  0
 21 64  1  0
 22 65  1  0
 22 66  1  0
 23 67  1  0
 23 68  1  0
 24 69  1  0
 24 70  1  0
 25 71  1  0
 25 72  1  0
 27 73  1  0
 27 74  1  0
 28 75  1  0
 28 76  1  0
 35 77  1  0
 36 78  1  0
 37 79  1  0
 38 80  1  0
 39 81  1  0
 40 82  1  0
 41 83  1  0
 41 84  1  0
 42 85  1  0
 42 86  1  0
 43 87  1  0
 43 88  1  0
 44 89  1  0
 44 90  1  0
M  END
> <Uni-Dock RESULT> 
ENERGY=   -8.299  LOWER_BOUND=    1.276  UPPER_BOUND=    3.640
INTER + INTRA:          -8.299
INTER:                  -8.299
INTRA:                   0.000
UNBOUND:                 0.000

$$$$

     RDKit          3D

 90 88  0  0  0  0  0  0  0  0999 V2000
   44.2521    4.0252    9.5258 N   0  0  0  0  0  0  0  0  0  0  0  0
   44.8597    5.5925   11.9715 N   0  0  0  0  0  0  0  0  0  0  0  0
   43.7257    3.6505   10.8516 C   0  0  0  0  0  0  0  0  0  0  0  0
   43.5992    4.8551   11.8095 C   0  0  0  0  0  0  0  0  0  0  0  0
   45.5353    4.7283    9.7115 C   0  0  0  0  0  0  0  0  0  0  0  0
   45.4232    5.9416   10.6602 C   0  0  0  0  0  0  0  0  0  0  0  0
   44.4253    5.5448   10.8929 C   0  0  0  0  0  0  0  0  0  0  0  0
   44.9553    4.3949   11.7602 C   0  0  0  0  0  0  0  0  0  0  0  0
   44.6673    5.4710    9.3795 C   0  0  0  0  0  0  0  0  0  0  0  0
   45.0961    6.8369   11.3790 C   0  0  0  0  0  0  0  0  0  0  0  0
   44.7321    4.0775    8.8420 C   0  0  0  0  0  0  0  0  0  0  0  0
   44.0006    3.2411   11.8914 C   0  0  0  0  0  0  0  0  0  0  0  0
   44.5037    7.8736   11.6442 O   0  0  0  0  0  0  0  0  0  0  0  0
   43.7336    2.4111   11.0372 O   0  0  0  0  0  0  0  0  0  0  0  0
   45.7279    3.3724    8.8278 O   0  0  0  0  0  0  0  0  0  0  0  0
   43.0126    5.7040   11.1322 O   0  0  0  0  0  0  0  0  0  0  0  0
   46.4384    6.7762   11.4552 O   0  0  0  0  0  0  0  0  0  0  0  0
   43.4386    3.1653   13.1148 O   0  0  0  0  0  0  0  0  0  0  0  0
   43.5467    3.6350    8.3909 O   0  0  0  0  0  0  0  0  0  0  0  0
   44.8558    6.3307   10.8108 N   0  0  0  0  0  0  0  0  0  0  0  0
   44.1808    3.4448   10.7159 N   0  0  0  0  0  0  0  0  0  0  0  0
   44.0795    5.6714   11.8736 C   0  0  0  0  0  0  0  0  0  0  0  0
   43.3076    4.4341   11.3681 C   0  0  0  0  0  0  0  0  0  0  0  0
   45.7289    5.3412   10.1584 C   0  0  0  0  0  0  0  0  0  0  0  0
   44.9567    4.1042    9.6531 C   0  0  0  0  0  0  0  0  0  0  0  0
   45.0823    5.1266   11.3372 C   0  0  0  0  0  0  0  0  0  0  0  0
   43.7444    5.8637   11.2626 C   0  0  0  0  0  0  0  0  0  0  0  0
   45.1796    3.7183   10.7441 C   0  0  0  0  0  0  0  0  0  0  0  0
   46.1603    6.0454   10.7497 C   0  0  0  0  0  0  0  0  0  0  0  0
   44.6410    3.5643    9.3476 C   0  0  0  0  0  0  0  0  0  0  0  0
   42.6226    5.1669   11.9726 C   0  0  0  0  0  0  0  0  0  0  0  0
   46.8214    6.8425   11.4030 O   0  0  0  0  0  0  0  0  0  0  0  0
   41.9812    5.6201   12.9066 O   0  0  0  0  0  0  0  0  0  0  0  0
   43.9342    4.3318    8.7198 O   0  0  0  0  0  0  0  0  0  0  0  0
   45.4249    4.9898   12.7430 O   0  0  0  0  0  0  0  0  0  0  0  0
   46.3244    5.9614    9.4208 O   0  0  0  0  0  0  0  0  0  0  0  0
   42.2997    3.9732   11.4463 O   0  0  0  0  0  0  0  0  0  0  0  0
   45.0158    2.3893    8.7992 O   0  0  0  0  0  0  0  0  0  0  0  0
   44.8107    6.1474   11.5605 N   0  0  0  0  0  0  0  0  0  0  0  0
   44.1936    3.5933   10.0232 N   0  0  0  0  0  0  0  0  0  0  0  0
   45.7520    5.4953   10.6363 C   0  0  0  0  0  0  0  0  0  0  0  0
   45.0854    4.6539    9.5283 C   0  0  0  0  0  0  0  0  0  0  0  0
   43.5142    5.4486   11.5980 C   0  0  0  0  0  0  0  0  0  0  0  0
   43.6242    3.9332   11.3397 C   0  0  0  0  0  0  0  0  0  0  0  0
   43.5951    4.6791    9.1012 H   0  0  0  0  0  0  0  0  0  0  0  0
   44.6949    6.4406   12.5111 H   0  0  0  0  0  0  0  0  0  0  0  0
   44.3739    2.8851   11.2963 H   0  0  0  0  0  0  0  0  0  0  0  0
   42.7403    3.1900   10.7192 H   0  0  0  0  0  0  0  0  0  0  0  0
   43.2702    4.4996   12.7918 H   0  0  0  0  0  0  0  0  0  0  0  0
   42.8244    5.5374   11.4377 H   0  0  0  0  0  0  0  0  0  0  0  0
   45.8928    5.0676    8.7330 H   0  0  0  0  0  0  0  0  0  0  0  0
   46.2834    4.0225   10.0936 H   0  0  0  0  0  0  0  0  0  0  0  0
   44.8018    6.7154   10.1921 H   0  0  0  0  0  0  0  0  0  0  0  0
   46.4185    6.3742   10.8086 H   0  0  0  0  0  0  0  0  0  0  0  0
   45.1482    4.7565   12.7808 H   0  0  0  0  0  0  0  0  0  0  0  0
   45.9240    4.0198   11.4110 H   0  0  0  0  0  0  0  0  0  0  0  0
   45.6161    5.9433    9.0934 H   0  0  0  0  0  0  0  0  0  0  0  0
   43.8923    6.0210    8.8303 H   0  0  0  0  0  0  0  0  0  0  0  0
   42.8083    6.6597   11.0821 H   0  0  0  0  0  0  0  0  0  0  0  0
   46.7131    7.6658   11.7659 H   0  0  0  0  0  0  0  0  0  0  0  0
   42.8248    2.4044   13.0464 H   0  0  0  0  0  0  0  0  0  0  0  0
   43.6763    2.6688    8.2739 H   0  0  0  0  0  0  0  0  0  0  0  0
   45.4325    7.0612   11.2250 H   0  0  0  0  0  0  0  0  0  0  0  0
   43.6043    2.7137   10.3022 H   0  0  0  0  0  0  0  0  0  0  0  0
   43.3671    6.3938   12.2863 H   0  0  0  0  0  0  0  0  0  0  0  0
   44.7515    5.3794   12.6909 H   0  0  0  0  0  0  0  0  0  0  0  0
   42.8064    3.9540   12.2154 H   0  0  0  0  0  0  0  0  0  0  0  0
   42.5238    4.7493   10.6676 H   0  0  0  0  0  0  0  0  0  0  0  0
   46.5123    5.0258   10.8592 H   0  0  0  0  0  0  0  0  0  0  0  0
   46.2302    5.8211    9.3108 H   0  0  0  0  0  0  0  0  0  0  0  0
   44.2841    4.3978    8.8371 H   0  0  0  0  0  0  0  0  0  0  0  0
   45.6690    3.3820    9.2397 H   0  0  0  0  0  0  0  0  0  0  0  0
   43.4302    6.0938   10.2406 H   0  0  0  0  0  0  0  0  0  0  0  0
   43.8484    6.8399   11.7578 H   0  0  0  0  0  0  0  0  0  0  0  0
   46.2344    3.4116   10.7311 H   0  0  0  0  0  0  0  0  0  0  0  0
   44.6626    2.9961   11.3869 H   0  0  0  0  0  0  0  0  0  0  0  0
   45.7611    5.8590   13.0460 H   0  0  0  0  0  0  0  0  0  0  0  0
   47.0132    6.6269    9.2083 H   0  0  0  0  0  0  0  0  0  0  0  0
   41.5372    3.6779   11.9882 H   0  0  0  0  0  0  0  0  0  0  0  0
   44.5968    2.3957    7.9128 H   0  0  0  0  0  0  0  0  0  0  0  0
   44.6470    7.1074   11.2604 H   0  0  0  0  0  0  0  0  0  0  0  0
   44.7196    2.7255   10.1219 H   0  0  0  0  0  0  0  0  0  0  0  0
   46.3915    6.2601   10.1812 H   0  0  0  0  0  0  0  0  0  0  0  0
   46.4144    4.8491   11.2252 H   0  0  0  0  0  0  0  0  0  0  0  0
   45.8574    4.2027    8.8946 H   0  0  0  0  0  0  0  0  0  0  0  0
   44.5011    5.3167    8.8779 H   0  0  0  0  0  0  0  0  0  0  0  0
   43.0548    5.6220   12.5770 H   0  0  0  0  0  0  0  0  0  0  0  0
   42.8456    5.8923   10.8493 H   0  0  0  0  0  0  0  0  0  0  0  0
   42.6329    3.4741   11.4166 H   0  0  0  0  0  0  0  0  0  0  0  0
   44.2460    3.4827   12.1241 H   0  0  0  0  0  0  0  0  0  0  0  0
  2  6  1  0
  3  1  1  0
  4  3  1  0
  5  1  1  0
  6  5  1  0
  2  4  1  0
  8  7  1  0
  9  7  1  0
 10  7  1  0
 11  9  1  0
 12  8  1  0
 13 10  2  0
 14 12  2  0
 15 11  2  0
 16  7  1  0
 17 10  1  0
 18 12  1  0
 19 11  1  0
 21 25  1  0
 22 20  1  0
 23 22  1  0
 24 20  1  0
 25 24  1  0
 21 23  1  0
 27 26  1  0
 28 26  1  0
 29 26  1  0
 30 28  1  0
 31 27  1  0
 32 29  2  0
 33 31  2  0
 34 30  2  0
 35 26  1  0
 36 29  1  0
 37 31  1  0
 38 30  1  0
 40 44  1  0
 41 39  1  0
 42 41  1  0
 43 39  1  0
 44 43  1  0
 40 42  1  0
  1 45  1  0
  2 46  1  0
  3 47  1  0
  3 48  1  0
  4 49  1  0
  4 50  1  0
  5 51  1  0
  5 52  1  0
  6 53  1  0
  6 54  1  0
  8 55  1  0
  8 56  1  0
  9 57  1  0
  9 58  1  0
 16 59  1  0
 17 60  1  0
 18 61  1  0
 19 62  1  0
 20 63  1  0
 21 64  1  0
 22 65  1  0
 22 66  1  0
 23 67  1  0
 23 68  1  0
 24 69  1  0
 24 70  1  0
 25 71  1  0
 25 72  1  0
 27 73  1  0
 27 74  1  0
 28 75  1  0
 28 76  1  0
 35 77  1  0
 36 78  1  0
 37 79  1  0
 38 80  1  0
 39 81  1  0
 40 82  1  0
 41 83  1  0
 41 84  1  0
 42 85  1  0
 42 86  1  0
 43 87  1  0
 43 88  1  0
 44 89  1  0
 44 90  1  0
M  END
> <Uni-Dock RESULT> 
ENERGY=   -7.886  LOWER_BOUND=    1.417  UPPER_BOUND=    2.566
INTER + INTRA:          -7.886
INTER:                  -7.886
INTRA:                   0.000
UNBOUND:                 0.000

$$$$

     RDKit          3D

 90 88  0  0  0  0  0  0  0  0999 V2000
   47.7034    4.0212   17.0815 N   0  0  0  0  0  0  0  0  0  0  0  0
   50.1848    4.7942   18.5142 N   0  0  0  0  0  0  0  0  0  0  0  0
   47.7311    5.1092   18.0769 C   0  0  0  0  0  0  0  0  0  0  0  0
   49.1231    5.7639   18.2120 C   0  0  0  0  0  0  0  0  0  0  0  0
   48.7502    3.0415   17.4275 C   0  0  0  0  0  0  0  0  0  0  0  0
   50.1505    3.6796   17.5574 C   0  0  0  0  0  0  0  0  0  0  0  0
   49.6122    4.6366   17.5134 C   0  0  0  0  0  0  0  0  0  0  0  0
   49.0743    4.5348   18.9472 C   0  0  0  0  0  0  0  0  0  0  0  0
   49.0387    3.6759   16.4633 C   0  0  0  0  0  0  0  0  0  0  0  0
   51.1231    4.3718   17.5671 C   0  0  0  0  0  0  0  0  0  0  0  0
   47.6226    3.2707   16.7199 C   0  0  0  0  0  0  0  0  0  0  0  0
   47.8415    5.3587   19.1949 C   0  0  0  0  0  0  0  0  0  0  0  0
   51.9744    5.0791   17.0467 O   0  0  0  0  0  0  0  0  0  0  0  0
   46.7103    5.1192   18.8039 O   0  0  0  0  0  0  0  0  0  0  0  0
   47.2713    2.3569   17.4482 O   0  0  0  0  0  0  0  0  0  0  0  0
   49.4520    5.9902   17.0441 O   0  0  0  0  0  0  0  0  0  0  0  0
   51.4707    3.2407   18.2083 O   0  0  0  0  0  0  0  0  0  0  0  0
   48.0840    6.4451   19.9560 O   0  0  0  0  0  0  0  0  0  0  0  0
   46.7320    4.0504   16.0848 O   0  0  0  0  0  0  0  0  0  0  0  0
   50.3937    4.2698   17.2598 N   0  0  0  0  0  0  0  0  0  0  0  0
   47.6242    4.6349   18.2543 N   0  0  0  0  0  0  0  0  0  0  0  0
   50.0009    5.4278   18.0792 C   0  0  0  0  0  0  0  0  0  0  0  0
   48.5029    5.7740   17.9430 C   0  0  0  0  0  0  0  0  0  0  0  0
   49.5147    3.1307   17.5710 C   0  0  0  0  0  0  0  0  0  0  0  0
   48.0170    3.4772   17.4347 C   0  0  0  0  0  0  0  0  0  0  0  0
   49.5943    4.2602   18.3270 C   0  0  0  0  0  0  0  0  0  0  0  0
   49.8454    5.4290   17.3732 C   0  0  0  0  0  0  0  0  0  0  0  0
   48.1531    3.7985   18.5603 C   0  0  0  0  0  0  0  0  0  0  0  0
   50.4804    3.0902   17.8828 C   0  0  0  0  0  0  0  0  0  0  0  0
   47.3369    3.5681   17.3174 C   0  0  0  0  0  0  0  0  0  0  0  0
   49.1895    6.7107   17.7917 C   0  0  0  0  0  0  0  0  0  0  0  0
   51.6155    2.8866   18.2944 O   0  0  0  0  0  0  0  0  0  0  0  0
   49.7667    7.7552   18.0467 O   0  0  0  0  0  0  0  0  0  0  0  0
   47.5794    3.9183   16.1767 O   0  0  0  0  0  0  0  0  0  0  0  0
   50.1031    4.6477   19.6322 O   0  0  0  0  0  0  0  0  0  0  0  0
   49.9465    2.2875   16.9497 O   0  0  0  0  0  0  0  0  0  0  0  0
   47.8466    6.6595   17.8039 O   0  0  0  0  0  0  0  0  0  0  0  0
   46.1955    2.9016   17.5912 O   0  0  0  0  0  0  0  0  0  0  0  0
   50.5046    4.6674   17.9134 N   0  0  0  0  0  0  0  0  0  0  0  0
   47.4953    4.2912   17.6482 N   0  0  0  0  0  0  0  0  0  0  0  0
   49.8388    3.3556   17.8825 C   0  0  0  0  0  0  0  0  0  0  0  0
   48.4902    3.3371   17.1335 C   0  0  0  0  0  0  0  0  0  0  0  0
   49.5428    5.7691   17.7346 C   0  0  0  0  0  0  0  0  0  0  0  0
   48.1379    5.4550   18.2850 C   0  0  0  0  0  0  0  0  0  0  0  0
   47.9368    4.4215   16.1733 H   0  0  0  0  0  0  0  0  0  0  0  0
   51.0926    5.2543   18.4727 H   0  0  0  0  0  0  0  0  0  0  0  0
   47.4045    4.7198   19.0492 H   0  0  0  0  0  0  0  0  0  0  0  0
   47.0012    5.8714   17.7821 H   0  0  0  0  0  0  0  0  0  0  0  0
   49.0918    6.5123   19.0111 H   0  0  0  0  0  0  0  0  0  0  0  0
   49.3689    6.2941   17.2833 H   0  0  0  0  0  0  0  0  0  0  0  0
   48.7767    2.2692   16.6508 H   0  0  0  0  0  0  0  0  0  0  0  0
   48.4802    2.5380   18.3642 H   0  0  0  0  0  0  0  0  0  0  0  0
   50.4829    4.0347   16.5738 H   0  0  0  0  0  0  0  0  0  0  0  0
   50.8646    2.9150   17.8818 H   0  0  0  0  0  0  0  0  0  0  0  0
   49.8350    4.8924   19.6566 H   0  0  0  0  0  0  0  0  0  0  0  0
   48.8791    3.4994   19.2483 H   0  0  0  0  0  0  0  0  0  0  0  0
   49.6096    2.7398   16.4101 H   0  0  0  0  0  0  0  0  0  0  0  0
   49.1002    4.1108   15.4575 H   0  0  0  0  0  0  0  0  0  0  0  0
   50.2196    6.2004   16.4747 H   0  0  0  0  0  0  0  0  0  0  0  0
   52.4499    3.2091   18.1495 H   0  0  0  0  0  0  0  0  0  0  0  0
   47.2164    6.8982   20.0047 H   0  0  0  0  0  0  0  0  0  0  0  0
   45.8709    3.8220   16.4977 H   0  0  0  0  0  0  0  0  0  0  0  0
   51.3556    4.0174   17.4806 H   0  0  0  0  0  0  0  0  0  0  0  0
   46.6620    4.8873   18.0342 H   0  0  0  0  0  0  0  0  0  0  0  0
   50.5977    6.2931   17.7713 H   0  0  0  0  0  0  0  0  0  0  0  0
   50.2404    5.2299   19.1320 H   0  0  0  0  0  0  0  0  0  0  0  0
   48.2626    6.5978   18.6235 H   0  0  0  0  0  0  0  0  0  0  0  0
   48.2974    6.1278   16.9247 H   0  0  0  0  0  0  0  0  0  0  0  0
   49.7201    2.7773   18.5894 H   0  0  0  0  0  0  0  0  0  0  0  0
   49.7547    2.3066   16.8904 H   0  0  0  0  0  0  0  0  0  0  0  0
   47.7792    3.6764   16.3820 H   0  0  0  0  0  0  0  0  0  0  0  0
   47.4200    2.6117   17.7418 H   0  0  0  0  0  0  0  0  0  0  0  0
   49.5726    5.2116   16.3366 H   0  0  0  0  0  0  0  0  0  0  0  0
   50.9239    5.6417   17.3480 H   0  0  0  0  0  0  0  0  0  0  0  0
   48.1700    2.8581   19.1281 H   0  0  0  0  0  0  0  0  0  0  0  0
   47.6170    4.5206   19.1874 H   0  0  0  0  0  0  0  0  0  0  0  0
   51.0785    4.5576   19.6021 H   0  0  0  0  0  0  0  0  0  0  0  0
   50.6439    1.6250   16.7567 H   0  0  0  0  0  0  0  0  0  0  0  0
   47.5807    7.5707   18.0515 H   0  0  0  0  0  0  0  0  0  0  0  0
   45.7479    2.8286   16.7220 H   0  0  0  0  0  0  0  0  0  0  0  0
   51.1921    4.7194   17.1630 H   0  0  0  0  0  0  0  0  0  0  0  0
   46.9130    3.8311   18.3473 H   0  0  0  0  0  0  0  0  0  0  0  0
   50.5178    2.6222   17.4330 H   0  0  0  0  0  0  0  0  0  0  0  0
   49.6762    3.0321   18.9180 H   0  0  0  0  0  0  0  0  0  0  0  0
   48.0652    2.3275   17.1663 H   0  0  0  0  0  0  0  0  0  0  0  0
   48.6657    3.5634   16.0744 H   0  0  0  0  0  0  0  0  0  0  0  0
   49.9407    6.6609   18.2304 H   0  0  0  0  0  0  0  0  0  0  0  0
   49.4642    6.0070   16.6660 H   0  0  0  0  0  0  0  0  0  0  0  0
   47.4873    6.3256   18.1510 H   0  0  0  0  0  0  0  0  0  0  0  0
   48.2112    5.2750   19.3653 H   0  0  0  0  0  0  0  0  0  0  0  0
  2  6  1  0
  3  1  1  0
  4  3  1  0
  5  1  1  0
  6  5  1  0
  2  4  1  0
  8  7  1  0
  9  7  1  0
 10  7  1  0
 11  9  1  0
 12  8  1  0
 13 10  2  0
 14 12  2  0
 15 11  2  0
 16  7  1  0
 17 10  1  0
 18 12  1  0
 19 11  1  0
 21 25  1  0
 22 20  1  0
 23 22  1  0
 24 20  1  0
 25 24  1  0
 21 23  1  0
 27 26  1  0
 28 26  1  0
 29 26  1  0
 30 28  1  0
 31 27  1  0
 32 29  2  0
 33 31  2  0
 34 30  2  0
 35 26  1  0
 36 29  1  0
 37 31  1  0
 38 30  1  0
 40 44  1  0
 41 39  1  0
 42 41  1  0
 43 39  1  0
 44 43  1  0
 40 42  1  0
  1 45  1  0
  2 46  1  0
  3 47  1  0
  3 48  1  0
  4 49  1  0
  4 50  1  0
  5 51  1  0
  5 52  1  0
  6 53  1  0
  6 54  1  0
  8 55  1  0
  8 56  1  0
  9 57  1  0
  9 58  1  0
 16 59  1  0
 17 60  1  0
 18 61  1  0
 19 62  1  0
 20 63  1  0
 21 64  1  0
 22 65  1  0
 22 66  1  0
 23 67  1  0
 23 68  1  0
 24 69  1  0
 24 70  1  0
 25 71  1  0
 25 72  1  0
 27 73  1  0
 27 74  1  0
 28 75  1  0
 28 76  1  0
 35 77  1  0
 36 78  1  0
 37 79  1  0
 38 80  1  0
 39 81  1  0
 40 82  1  0
 41 83  1  0
 41 84  1  0
 42 85  1  0
 42 86  1  0
 43 87  1  0
 43 88  1  0
 44 89  1  0
 44 90  1  0
M  END
> <Uni-Dock RESULT> 
ENERGY=   -7.217  LOWER_BOUND=    5.819  UPPER_BOUND=    7.399
INTER + INTRA:          -7.217
INTER:                  -7.217
INTRA:                   0.000
UNBOUND:                 0.000

$$$$

     RDKit          3D

 90 88  0  0  0  0  0  0  0  0999 V2000
   45.1693    4.4682   10.3826 N   0  0  0  0  0  0  0  0  0  0  0  0
   43.9996    5.9831   12.6507 N   0  0  0  0  0  0  0  0  0  0  0  0
   45.9659    5.4039   11.1981 C   0  0  0  0  0  0  0  0  0  0  0  0
   45.4110    5.5752   12.6290 C   0  0  0  0  0  0  0  0  0  0  0  0
   43.7652    4.9197   10.3868 C   0  0  0  0  0  0  0  0  0  0  0  0
   43.1926    5.0870   11.8113 C   0  0  0  0  0  0  0  0  0  0  0  0
   44.2340    4.9641   12.1398 C   0  0  0  0  0  0  0  0  0  0  0  0
   44.6620    6.3717   11.7028 C   0  0  0  0  0  0  0  0  0  0  0  0
   43.9171    3.9389   11.0429 C   0  0  0  0  0  0  0  0  0  0  0  0
   42.9590    5.1096   12.9818 C   0  0  0  0  0  0  0  0  0  0  0  0
   44.6888    4.1437    9.7789 C   0  0  0  0  0  0  0  0  0  0  0  0
   46.1389    6.5112   11.4598 C   0  0  0  0  0  0  0  0  0  0  0  0
   42.7845    4.5965   14.0782 O   0  0  0  0  0  0  0  0  0  0  0  0
   46.7687    6.0758   10.5092 O   0  0  0  0  0  0  0  0  0  0  0  0
   44.3744    4.9009    8.8752 O   0  0  0  0  0  0  0  0  0  0  0  0
   45.2399    4.4153   13.0146 O   0  0  0  0  0  0  0  0  0  0  0  0
   41.9817    5.8276   12.3981 O   0  0  0  0  0  0  0  0  0  0  0  0
   46.7608    7.2243   12.4205 O   0  0  0  0  0  0  0  0  0  0  0  0
   45.8214    3.4228    9.7347 O   0  0  0  0  0  0  0  0  0  0  0  0
   43.3967    4.7711   12.4067 N   0  0  0  0  0  0  0  0  0  0  0  0
   45.7329    5.6008   10.7800 N   0  0  0  0  0  0  0  0  0  0  0  0
   44.5336    5.5059   12.9847 C   0  0  0  0  0  0  0  0  0  0  0  0
   45.8488    5.2745   12.2106 C   0  0  0  0  0  0  0  0  0  0  0  0
   43.2811    5.0972   10.9759 C   0  0  0  0  0  0  0  0  0  0  0  0
   44.5962    4.8657   10.2022 C   0  0  0  0  0  0  0  0  0  0  0  0
   44.0505    5.7947   11.8564 C   0  0  0  0  0  0  0  0  0  0  0  0
   44.5951    4.7938   12.8763 C   0  0  0  0  0  0  0  0  0  0  0  0
   44.8001    5.9780   10.5339 C   0  0  0  0  0  0  0  0  0  0  0  0
   42.5746    5.4600   11.6090 C   0  0  0  0  0  0  0  0  0  0  0  0
   45.1439    4.7089    9.8022 C   0  0  0  0  0  0  0  0  0  0  0  0
   45.9780    5.1086   13.3628 C   0  0  0  0  0  0  0  0  0  0  0  0
   41.6410    5.9399   12.2395 O   0  0  0  0  0  0  0  0  0  0  0  0
   46.2905    5.3366   14.5202 O   0  0  0  0  0  0  0  0  0  0  0  0
   45.1220    3.5651   10.2191 O   0  0  0  0  0  0  0  0  0  0  0  0
   44.0420    7.1017   12.4923 O   0  0  0  0  0  0  0  0  0  0  0  0
   42.3454    4.5452   10.6548 O   0  0  0  0  0  0  0  0  0  0  0  0
   46.9201    5.0545   12.4059 O   0  0  0  0  0  0  0  0  0  0  0  0
   45.5388    4.9590    8.5360 O   0  0  0  0  0  0  0  0  0  0  0  0
   43.6361    5.4072   12.7750 N   0  0  0  0  0  0  0  0  0  0  0  0
   45.5470    5.0081   10.4390 N   0  0  0  0  0  0  0  0  0  0  0  0
   43.2221    5.4126   11.3629 C   0  0  0  0  0  0  0  0  0  0  0  0
   44.1342    4.5972   10.4230 C   0  0  0  0  0  0  0  0  0  0  0  0
   45.0741    5.1204   12.9184 C   0  0  0  0  0  0  0  0  0  0  0  0
   45.9217    5.6139   11.7295 C   0  0  0  0  0  0  0  0  0  0  0  0
   45.2055    3.5531   10.8305 H   0  0  0  0  0  0  0  0  0  0  0  0
   43.6509    5.9638   13.6075 H   0  0  0  0  0  0  0  0  0  0  0  0
   46.0096    6.3777   10.6945 H   0  0  0  0  0  0  0  0  0  0  0  0
   46.9949    5.0315   11.2526 H   0  0  0  0  0  0  0  0  0  0  0  0
   46.0041    6.3302   13.1561 H   0  0  0  0  0  0  0  0  0  0  0  0
   45.5255    4.6333   13.1801 H   0  0  0  0  0  0  0  0  0  0  0  0
   43.1610    4.1879    9.8392 H   0  0  0  0  0  0  0  0  0  0  0  0
   43.6873    5.8669    9.8386 H   0  0  0  0  0  0  0  0  0  0  0  0
   43.1204    4.1042   12.2939 H   0  0  0  0  0  0  0  0  0  0  0  0
   42.1757    5.4883   11.7444 H   0  0  0  0  0  0  0  0  0  0  0  0
   44.4058    7.0991   12.4871 H   0  0  0  0  0  0  0  0  0  0  0  0
   44.1193    6.7174   10.8158 H   0  0  0  0  0  0  0  0  0  0  0  0
   42.8590    3.9655   10.7516 H   0  0  0  0  0  0  0  0  0  0  0  0
   44.0946    2.9157   11.3981 H   0  0  0  0  0  0  0  0  0  0  0  0
   44.7831    3.8757   13.6912 H   0  0  0  0  0  0  0  0  0  0  0  0
   41.2439    5.8210   13.0454 H   0  0  0  0  0  0  0  0  0  0  0  0
   47.7045    7.2039   12.1567 H   0  0  0  0  0  0  0  0  0  0  0  0
   46.3220    3.8024    8.9802 H   0  0  0  0  0  0  0  0  0  0  0  0
   42.5416    5.0543   12.8825 H   0  0  0  0  0  0  0  0  0  0  0  0
   46.5883    5.3183   10.3041 H   0  0  0  0  0  0  0  0  0  0  0  0
   44.6678    5.1832   14.0228 H   0  0  0  0  0  0  0  0  0  0  0  0
   44.3026    6.5787   13.0086 H   0  0  0  0  0  0  0  0  0  0  0  0
   46.6364    5.8966   12.6489 H   0  0  0  0  0  0  0  0  0  0  0  0
   46.1642    4.2294   12.3237 H   0  0  0  0  0  0  0  0  0  0  0  0
   42.9661    6.1424   10.8630 H   0  0  0  0  0  0  0  0  0  0  0  0
   42.4934    4.4751   10.5372 H   0  0  0  0  0  0  0  0  0  0  0  0
   44.8269    3.7930   10.1804 H   0  0  0  0  0  0  0  0  0  0  0  0
   44.4620    5.1877    9.1639 H   0  0  0  0  0  0  0  0  0  0  0  0
   44.5681    3.7577   12.5272 H   0  0  0  0  0  0  0  0  0  0  0  0
   43.9545    4.8127   13.7698 H   0  0  0  0  0  0  0  0  0  0  0  0
   44.1880    6.5955    9.8625 H   0  0  0  0  0  0  0  0  0  0  0  0
   45.7294    6.5370   10.6954 H   0  0  0  0  0  0  0  0  0  0  0  0
   43.2693    7.1267   13.0945 H   0  0  0  0  0  0  0  0  0  0  0  0
   41.3718    4.4241   10.6489 H   0  0  0  0  0  0  0  0  0  0  0  0
   47.7539    5.2388   12.8887 H   0  0  0  0  0  0  0  0  0  0  0  0
   45.7498    4.0730    8.1729 H   0  0  0  0  0  0  0  0  0  0  0  0
   43.1161    4.6915   13.2808 H   0  0  0  0  0  0  0  0  0  0  0  0
   45.7080    5.7000    9.7076 H   0  0  0  0  0  0  0  0  0  0  0  0
   42.1945    5.0385   11.2918 H   0  0  0  0  0  0  0  0  0  0  0  0
   43.1963    6.4541   11.0199 H   0  0  0  0  0  0  0  0  0  0  0  0
   43.7563    4.6622    9.3964 H   0  0  0  0  0  0  0  0  0  0  0  0
   44.0826    3.5379   10.7040 H   0  0  0  0  0  0  0  0  0  0  0  0
   45.4306    5.5874   13.8426 H   0  0  0  0  0  0  0  0  0  0  0  0
   45.2143    4.0380   13.0338 H   0  0  0  0  0  0  0  0  0  0  0  0
   46.9791    5.4001   11.9179 H   0  0  0  0  0  0  0  0  0  0  0  0
   45.8257    6.7046   11.6527 H   0  0  0  0  0  0  0  0  0  0  0  0
  2  6  1  0
  3  1  1  0
  4  3  1  0
  5  1  1  0
  6  5  1  0
  2  4  1  0
  8  7  1  0
  9  7  1  0
 10  7  1  0
 11  9  1  0
 12  8  1  0
 13 10  2  0
 14 12  2  0
 15 11  2  0
 16  7  1  0
 17 10  1  0
 18 12  1  0
 19 11  1  0
 21 25  1  0
 22 20  1  0
 23 22  1  0
 24 20  1  0
 25 24  1  0
 21 23  1  0
 27 26  1  0
 28 26  1  0
 29 26  1  0
 30 28  1  0
 31 27  1  0
 32 29  2  0
 33 31  2  0
 34 30  2  0
 35 26  1  0
 36 29  1  0
 37 31  1  0
 38 30  1  0
 40 44  1  0
 41 39  1  0
 42 41  1  0
 43 39  1  0
 44 43  1  0
 40 42  1  0
  1 45  1  0
  2 46  1  0
  3 47  1  0
  3 48  1  0
  4 49  1  0
  4 50  1  0
  5 51  1  0
  5 52  1  0
  6 53  1  0
  6 54  1  0
  8 55  1  0
  8 56  1  0
  9 57  1  0
  9 58  1  0
 16 59  1  0
 17 60  1  0
 18 61  1  0
 19 62  1  0
 20 63  1  0
 21 64  1  0
 22 65  1  0
 22 66  1  0
 23 67  1  0
 23 68  1  0
 24 69  1  0
 24 70  1  0
 25 71  1  0
 25 72  1  0
 27 73  1  0
 27 74  1  0
 28 75  1  0
 28 76  1  0
 35 77  1  0
 36 78  1  0
 37 79  1  0
 38 80  1  0
 39 81  1  0
 40 82  1  0
 41 83  1  0
 41 84  1  0
 42 85  1  0
 42 86  1  0
 43 87  1  0
 43 88  1  0
 44 89  1  0
 44 90  1  0
M  END
> <Uni-Dock RESULT> 
ENERGY=   -7.179  LOWER_BOUND=    1.244  UPPER_BOUND=    3.149
INTER + INTRA:          -7.179
INTER:                  -7.179
INTRA:                   0.000
UNBOUND:                 0.000

$$$$

     RDKit          3D

 90 88  0  0  0  0  0  0  0  0999 V2000
   43.2859    5.8735   11.7578 N   0  0  0  0  0  0  0  0  0  0  0  0
   45.5873    4.0548   12.2083 N   0  0  0  0  0  0  0  0  0  0  0  0
   43.4510    4.6131   11.0100 C   0  0  0  0  0  0  0  0  0  0  0  0
   44.2709    3.5584   11.7848 C   0  0  0  0  0  0  0  0  0  0  0  0
   44.6208    6.3725   12.1378 C   0  0  0  0  0  0  0  0  0  0  0  0
   45.4500    5.3319   12.9218 C   0  0  0  0  0  0  0  0  0  0  0  0
   44.6626    4.6247   12.6259 C   0  0  0  0  0  0  0  0  0  0  0  0
   45.1411    4.5176   11.1716 C   0  0  0  0  0  0  0  0  0  0  0  0
   44.0243    5.9460   13.0746 C   0  0  0  0  0  0  0  0  0  0  0  0
   45.8818    4.4005   13.5310 C   0  0  0  0  0  0  0  0  0  0  0  0
   43.3146    6.6794   11.9821 C   0  0  0  0  0  0  0  0  0  0  0  0
   44.0754    4.0680   10.2115 C   0  0  0  0  0  0  0  0  0  0  0  0
   45.9158    3.6257   14.4766 O   0  0  0  0  0  0  0  0  0  0  0  0
   43.1326    4.7270    9.8032 O   0  0  0  0  0  0  0  0  0  0  0  0
   43.8400    7.4414   11.1869 O   0  0  0  0  0  0  0  0  0  0  0  0
   43.7463    3.5466   12.9019 O   0  0  0  0  0  0  0  0  0  0  0  0
   46.9441    5.1743   13.2408 O   0  0  0  0  0  0  0  0  0  0  0  0
   44.2606    2.8036    9.7809 O   0  0  0  0  0  0  0  0  0  0  0  0
   42.0040    6.3905   11.9234 O   0  0  0  0  0  0  0  0  0  0  0  0
   45.2217    4.7913   13.3111 N   0  0  0  0  0  0  0  0  0  0  0  0
   43.6626    5.0366   10.8008 N   0  0  0  0  0  0  0  0  0  0  0  0
   44.9564    3.6373   12.4366 C   0  0  0  0  0  0  0  0  0  0  0  0
   43.6670    3.8035   11.6046 C   0  0  0  0  0  0  0  0  0  0  0  0
   45.2169    6.0244   12.5072 C   0  0  0  0  0  0  0  0  0  0  0  0
   43.9276    6.1903   11.6754 C   0  0  0  0  0  0  0  0  0  0  0  0
   45.2654    4.7707   11.9785 C   0  0  0  0  0  0  0  0  0  0  0  0
   44.4383    3.8613   12.8882 C   0  0  0  0  0  0  0  0  0  0  0  0
   44.5466    5.5695   10.8878 C   0  0  0  0  0  0  0  0  0  0  0  0
   46.1053    5.6926   12.8708 C   0  0  0  0  0  0  0  0  0  0  0  0
   43.3364    6.3408   11.3402 C   0  0  0  0  0  0  0  0  0  0  0  0
   43.7050    2.7740   12.1616 C   0  0  0  0  0  0  0  0  0  0  0  0
   47.2367    5.4346   13.2618 O   0  0  0  0  0  0  0  0  0  0  0  0
   43.8559    1.5754   12.3346 O   0  0  0  0  0  0  0  0  0  0  0  0
   42.7169    6.2341   12.3830 O   0  0  0  0  0  0  0  0  0  0  0  0
   46.2292    3.9315   11.2859 O   0  0  0  0  0  0  0  0  0  0  0  0
   45.5006    6.8271   13.2545 O   0  0  0  0  0  0  0  0  0  0  0  0
   42.7683    3.2216   11.3081 O   0  0  0  0  0  0  0  0  0  0  0  0
   42.9363    7.2276   10.4045 O   0  0  0  0  0  0  0  0  0  0  0  0
   45.5210    4.2271   12.8756 N   0  0  0  0  0  0  0  0  0  0  0  0
   43.3564    5.5445   11.1885 N   0  0  0  0  0  0  0  0  0  0  0  0
   45.5405    5.6415   12.4702 C   0  0  0  0  0  0  0  0  0  0  0  0
   44.1490    6.2531   12.2058 C   0  0  0  0  0  0  0  0  0  0  0  0
   44.2954    3.5481   12.4199 C   0  0  0  0  0  0  0  0  0  0  0  0
   43.7270    4.1202   11.1065 C   0  0  0  0  0  0  0  0  0  0  0  0
   42.7739    5.6648   12.6144 H   0  0  0  0  0  0  0  0  0  0  0  0
   46.0343    3.3692   12.8147 H   0  0  0  0  0  0  0  0  0  0  0  0
   43.9288    4.8237   10.0450 H   0  0  0  0  0  0  0  0  0  0  0  0
   42.4585    4.2059   10.7873 H   0  0  0  0  0  0  0  0  0  0  0  0
   44.4141    2.6776   11.1498 H   0  0  0  0  0  0  0  0  0  0  0  0
   43.7050    3.2316   12.6662 H   0  0  0  0  0  0  0  0  0  0  0  0
   44.4963    7.2711   12.7522 H   0  0  0  0  0  0  0  0  0  0  0  0
   45.1634    6.6800   11.2351 H   0  0  0  0  0  0  0  0  0  0  0  0
   44.9835    5.1540   13.8989 H   0  0  0  0  0  0  0  0  0  0  0  0
   46.4492    5.7385   13.1113 H   0  0  0  0  0  0  0  0  0  0  0  0
   45.9547    3.7809   11.1006 H   0  0  0  0  0  0  0  0  0  0  0  0
   45.5807    5.4525   10.8060 H   0  0  0  0  0  0  0  0  0  0  0  0
   44.7709    6.6487   13.4667 H   0  0  0  0  0  0  0  0  0  0  0  0
   43.3192    5.7817   13.8995 H   0  0  0  0  0  0  0  0  0  0  0  0
   43.8872    3.2665   13.8289 H   0  0  0  0  0  0  0  0  0  0  0  0
   47.6255    4.9239   13.9014 H   0  0  0  0  0  0  0  0  0  0  0  0
   43.4880    2.6353    9.2019 H   0  0  0  0  0  0  0  0  0  0  0  0
   41.7131    6.7551   11.0593 H   0  0  0  0  0  0  0  0  0  0  0  0
   46.1381    4.6784   13.7413 H   0  0  0  0  0  0  0  0  0  0  0  0
   42.7463    5.1493   10.3697 H   0  0  0  0  0  0  0  0  0  0  0  0
   44.8679    2.7399   13.0584 H   0  0  0  0  0  0  0  0  0  0  0  0
   45.8114    3.4812   11.7663 H   0  0  0  0  0  0  0  0  0  0  0  0
   43.5625    2.9462   10.9312 H   0  0  0  0  0  0  0  0  0  0  0  0
   42.7950    3.7972   12.2708 H   0  0  0  0  0  0  0  0  0  0  0  0
   46.0888    6.0303   11.8407 H   0  0  0  0  0  0  0  0  0  0  0  0
   45.3214    6.8821   13.1805 H   0  0  0  0  0  0  0  0  0  0  0  0
   43.0733    6.3447   12.3468 H   0  0  0  0  0  0  0  0  0  0  0  0
   44.0156    7.0881   11.0540 H   0  0  0  0  0  0  0  0  0  0  0  0
   43.7317    4.4051   13.5216 H   0  0  0  0  0  0  0  0  0  0  0  0
   45.1143    3.3479   13.5871 H   0  0  0  0  0  0  0  0  0  0  0  0
   45.2544    6.2858   10.4487 H   0  0  0  0  0  0  0  0  0  0  0  0
   44.2389    4.9081   10.0693 H   0  0  0  0  0  0  0  0  0  0  0  0
   46.9473    3.7288   11.9212 H   0  0  0  0  0  0  0  0  0  0  0  0
   46.1502    7.2755   13.8372 H   0  0  0  0  0  0  0  0  0  0  0  0
   42.3622    2.4009   10.9562 H   0  0  0  0  0  0  0  0  0  0  0  0
   42.1438    7.6490   10.7991 H   0  0  0  0  0  0  0  0  0  0  0  0
   45.5625    4.1622   13.8917 H   0  0  0  0  0  0  0  0  0  0  0  0
   43.5212    5.9661   10.2749 H   0  0  0  0  0  0  0  0  0  0  0  0
   46.0572    6.2254   13.2403 H   0  0  0  0  0  0  0  0  0  0  0  0
   46.1463    5.7262   11.5597 H   0  0  0  0  0  0  0  0  0  0  0  0
   44.2592    7.3010   11.9047 H   0  0  0  0  0  0  0  0  0  0  0  0
   43.5770    6.2598   13.1419 H   0  0  0  0  0  0  0  0  0  0  0  0
   44.5160    2.4831   12.2917 H   0  0  0  0  0  0  0  0  0  0  0  0
   43.5311    3.6230   13.2040 H   0  0  0  0  0  0  0  0  0  0  0  0
   42.8412    3.5489   10.8095 H   0  0  0  0  0  0  0  0  0  0  0  0
   44.4716    3.9907   10.3104 H   0  0  0  0  0  0  0  0  0  0  0  0
  2  6  1  0
  3  1  1  0
  4  3  1  0
  5  1  1  0
  6  5  1  0
  2  4  1  0
  8  7  1  0
  9  7  1  0
 10  7  1  0
 11  9  1  0
 12  8  1  0
 13 10  2  0
 14 12  2  0
 15 11  2  0
 16  7  1  0
 17 10  1  0
 18 12  1  0
 19 11  1  0
 21 25  1  0
 22 20  1  0
 23 22  1  0
 24 20  1  0
 25 24  1  0
 21 23  1  0
 27 26  1  0
 28 26  1  0
 29 26  1  0
 30 28  1  0
 31 27  1  0
 32 29  2  0
 33 31  2  0
 34 30  2  0
 35 26  1  0
 36 29  1  0
 37 31  1  0
 38 30  1  0
 40 44  1  0
 41 39  1  0
 42 41  1  0
 43 39  1  0
 44 43  1  0
 40 42  1  0
  1 45  1  0
  2 46  1  0
  3 47  1  0
  3 48  1  0
  4 49  1  0
  4 50  1  0
  5 51  1  0
  5 52  1  0
  6 53  1  0
  6 54  1  0
  8 55  1  0
  8 56  1  0
  9 57  1  0
  9 58  1  0
 16 59  1  0
 17 60  1  0
 18 61  1  0
 19 62  1  0
 20 63  1  0
 21 64  1  0
 22 65  1  0
 22 66  1  0
 23 67  1  0
 23 68  1  0
 24 69  1  0
 24 70  1  0
 25 71  1  0
 25 72  1  0
 27 73  1  0
 27 74  1  0
 28 75  1  0
 28 76  1  0
 35 77  1  0
 36 78  1  0
 37 79  1  0
 38 80  1  0
 39 81  1  0
 40 82  1  0
 41 83  1  0
 41 84  1  0
 42 85  1  0
 42 86  1  0
 43 87  1  0
 43 88  1  0
 44 89  1  0
 44 90  1  0
M  END
> <Uni-Dock RESULT> 
ENERGY=   -7.069  LOWER_BOUND=    0.980  UPPER_BOUND=    2.990
INTER + INTRA:          -7.069
INTER:                  -7.069
INTRA:                   0.000
UNBOUND:                 0.000

$$$$

     RDKit          3D

 90 88  0  0  0  0  0  0  0  0999 V2000
   45.9655    6.2992   11.6218 N   0  0  0  0  0  0  0  0  0  0  0  0
   43.8272    4.5566   12.7165 N   0  0  0  0  0  0  0  0  0  0  0  0
   46.1786    5.4372   12.7994 C   0  0  0  0  0  0  0  0  0  0  0  0
   45.2499    4.2035   12.8161 C   0  0  0  0  0  0  0  0  0  0  0  0
   44.5397    6.6725   11.5649 C   0  0  0  0  0  0  0  0  0  0  0  0
   43.5979    5.4487   11.5717 C   0  0  0  0  0  0  0  0  0  0  0  0
   44.5015    4.8763   11.8235 C   0  0  0  0  0  0  0  0  0  0  0  0
   44.5484    5.3646   13.2778 C   0  0  0  0  0  0  0  0  0  0  0  0
   44.8264    5.8887   10.7171 C   0  0  0  0  0  0  0  0  0  0  0  0
   43.0768    4.3748   11.5505 C   0  0  0  0  0  0  0  0  0  0  0  0
   45.7881    6.9552   11.1331 C   0  0  0  0  0  0  0  0  0  0  0  0
   45.9108    5.2744   13.9067 C   0  0  0  0  0  0  0  0  0  0  0  0
   42.8018    3.2960   11.0441 O   0  0  0  0  0  0  0  0  0  0  0  0
   46.8696    5.9959   13.6831 O   0  0  0  0  0  0  0  0  0  0  0  0
   45.4893    7.9895   11.7074 O   0  0  0  0  0  0  0  0  0  0  0  0
   45.3699    3.7345   11.6808 O   0  0  0  0  0  0  0  0  0  0  0  0
   42.1048    5.2487   11.8712 O   0  0  0  0  0  0  0  0  0  0  0  0
   45.9995    4.2864   14.8202 O   0  0  0  0  0  0  0  0  0  0  0  0
   47.0640    6.6516   10.8426 O   0  0  0  0  0  0  0  0  0  0  0  0
   43.7327    4.7893   11.3641 N   0  0  0  0  0  0  0  0  0  0  0  0
   46.0103    5.9179   12.8910 N   0  0  0  0  0  0  0  0  0  0  0  0
   44.3818    4.0546   12.4620 C   0  0  0  0  0  0  0  0  0  0  0  0
   45.8534    4.4712   12.6702 C   0  0  0  0  0  0  0  0  0  0  0  0
   43.8899    6.2362   11.5848 C   0  0  0  0  0  0  0  0  0  0  0  0
   45.3614    6.6524   11.7929 C   0  0  0  0  0  0  0  0  0  0  0  0
   44.1386    5.2899   12.5315 C   0  0  0  0  0  0  0  0  0  0  0  0
   44.6960    4.0615   11.8109 C   0  0  0  0  0  0  0  0  0  0  0  0
   45.1022    6.4155   12.9179 C   0  0  0  0  0  0  0  0  0  0  0  0
   42.9664    5.8306   11.7038 C   0  0  0  0  0  0  0  0  0  0  0  0
   46.0137    6.8938   11.8204 C   0  0  0  0  0  0  0  0  0  0  0  0
   45.7284    3.3091   12.5958 C   0  0  0  0  0  0  0  0  0  0  0  0
   41.7990    5.4937   11.8549 O   0  0  0  0  0  0  0  0  0  0  0  0
   45.6416    2.1457   12.9540 O   0  0  0  0  0  0  0  0  0  0  0  0
   46.2565    6.3620   10.7523 O   0  0  0  0  0  0  0  0  0  0  0  0
   43.5448    4.8310   13.7762 O   0  0  0  0  0  0  0  0  0  0  0  0
   43.2990    6.6979   10.7356 O   0  0  0  0  0  0  0  0  0  0  0  0
   46.8499    4.0092   12.8368 O   0  0  0  0  0  0  0  0  0  0  0  0
   46.6182    8.0549   12.1499 O   0  0  0  0  0  0  0  0  0  0  0  0
   43.6503    4.4530   12.0552 N   0  0  0  0  0  0  0  0  0  0  0  0
   46.1203    6.2207   12.2599 N   0  0  0  0  0  0  0  0  0  0  0  0
   43.6348    5.9131   11.8731 C   0  0  0  0  0  0  0  0  0  0  0  0
   44.9708    6.5144   11.3896 C   0  0  0  0  0  0  0  0  0  0  0  0
   45.0158    3.9485   12.2830 C   0  0  0  0  0  0  0  0  0  0  0  0
   45.9338    4.9588   12.9985 C   0  0  0  0  0  0  0  0  0  0  0  0
   46.1792    5.7508   10.7893 H   0  0  0  0  0  0  0  0  0  0  0  0
   43.2697    3.7108   12.6096 H   0  0  0  0  0  0  0  0  0  0  0  0
   46.0330    6.0278   13.7125 H   0  0  0  0  0  0  0  0  0  0  0  0
   47.2221    5.1031   12.8039 H   0  0  0  0  0  0  0  0  0  0  0  0
   45.4103    3.6460   13.7452 H   0  0  0  0  0  0  0  0  0  0  0  0
   45.5170    3.5343   11.9886 H   0  0  0  0  0  0  0  0  0  0  0  0
   44.3670    7.2552   10.6533 H   0  0  0  0  0  0  0  0  0  0  0  0
   44.3035    7.3311   12.4100 H   0  0  0  0  0  0  0  0  0  0  0  0
   43.7258    4.8839   10.6396 H   0  0  0  0  0  0  0  0  0  0  0  0
   42.5592    5.7954   11.5980 H   0  0  0  0  0  0  0  0  0  0  0  0
   43.8783    4.7517   13.8982 H   0  0  0  0  0  0  0  0  0  0  0  0
   44.1705    6.3873   13.3880 H   0  0  0  0  0  0  0  0  0  0  0  0
   43.9293    6.4176   10.3703 H   0  0  0  0  0  0  0  0  0  0  0  0
   45.2277    5.3845    9.8286 H   0  0  0  0  0  0  0  0  0  0  0  0
   44.9545    3.1233   11.0394 H   0  0  0  0  0  0  0  0  0  0  0  0
   41.2686    4.7932   11.6331 H   0  0  0  0  0  0  0  0  0  0  0  0
   46.9333    4.3207   15.1158 H   0  0  0  0  0  0  0  0  0  0  0  0
   47.5911    7.3092   11.3463 H   0  0  0  0  0  0  0  0  0  0  0  0
   42.7401    4.5607   11.3524 H   0  0  0  0  0  0  0  0  0  0  0  0
   47.0030    6.1468   12.9034 H   0  0  0  0  0  0  0  0  0  0  0  0
   44.3414    2.9831   12.2383 H   0  0  0  0  0  0  0  0  0  0  0  0
   43.8184    4.2107   13.3910 H   0  0  0  0  0  0  0  0  0  0  0  0
   46.2568    3.9388   13.5382 H   0  0  0  0  0  0  0  0  0  0  0  0
   46.4495    4.1664   11.8007 H   0  0  0  0  0  0  0  0  0  0  0  0
   43.2942    6.5407   12.4546 H   0  0  0  0  0  0  0  0  0  0  0  0
   43.4867    6.7690   10.7167 H   0  0  0  0  0  0  0  0  0  0  0  0
   45.9240    6.4943   10.8640 H   0  0  0  0  0  0  0  0  0  0  0  0
   45.4022    7.7241   12.0160 H   0  0  0  0  0  0  0  0  0  0  0  0
   45.0962    4.2834   10.8176 H   0  0  0  0  0  0  0  0  0  0  0  0
   43.8767    3.3488   11.6380 H   0  0  0  0  0  0  0  0  0  0  0  0
   44.5177    7.2779   13.2664 H   0  0  0  0  0  0  0  0  0  0  0  0
   45.7261    6.1104   13.7662 H   0  0  0  0  0  0  0  0  0  0  0  0
   42.6781    4.4309   13.5544 H   0  0  0  0  0  0  0  0  0  0  0  0
   42.4530    6.9143   10.2883 H   0  0  0  0  0  0  0  0  0  0  0  0
   47.4254    3.3718   13.3111 H   0  0  0  0  0  0  0  0  0  0  0  0
   47.1902    8.2528   11.3785 H   0  0  0  0  0  0  0  0  0  0  0  0
   43.2782    4.0007   11.2213 H   0  0  0  0  0  0  0  0  0  0  0  0
   46.2313    6.9711   12.9412 H   0  0  0  0  0  0  0  0  0  0  0  0
   42.8382    6.1754   11.1676 H   0  0  0  0  0  0  0  0  0  0  0  0
   43.3627    6.3726   12.8312 H   0  0  0  0  0  0  0  0  0  0  0  0
   44.8696    7.6010   11.2883 H   0  0  0  0  0  0  0  0  0  0  0  0
   45.1940    6.1307   10.3864 H   0  0  0  0  0  0  0  0  0  0  0  0
   44.9517    3.0283   12.8733 H   0  0  0  0  0  0  0  0  0  0  0  0
   45.4638    3.6776   11.3183 H   0  0  0  0  0  0  0  0  0  0  0  0
   46.9174    4.5074   13.1659 H   0  0  0  0  0  0  0  0  0  0  0  0
   45.5134    5.1832   13.9873 H   0  0  0  0  0  0  0  0  0  0  0  0
  2  6  1  0
  3  1  1  0
  4  3  1  0
  5  1  1  0
  6  5  1  0
  2  4  1  0
  8  7  1  0
  9  7  1  0
 10  7  1  0
 11  9  1  0
 12  8  1  0
 13 10  2  0
 14 12  2  0
 15 11  2  0
 16  7  1  0
 17 10  1  0
 18 12  1  0
 19 11  1  0
 21 25  1  0
 22 20  1  0
 23 22  1  0
 24 20  1  0
 25 24  1  0
 21 23  1  0
 27 26  1  0
 28 26  1  0
 29 26  1  0
 30 28  1  0
 31 27  1  0
 32 29  2  0
 33 31  2  0
 34 30  2  0
 35 26  1  0
 36 29  1  0
 37 31  1  0
 38 30  1  0
 40 44  1  0
 41 39  1  0
 42 41  1  0
 43 39  1  0
 44 43  1  0
 40 42  1  0
  1 45  1  0
  2 46  1  0
  3 47  1  0
  3 48  1  0
  4 49  1  0
  4 50  1  0
  5 51  1  0
  5 52  1  0
  6 53  1  0
  6 54  1  0
  8 55  1  0
  8 56  1  0
  9 57  1  0
  9 58  1  0
 16 59  1  0
 17 60  1  0
 18 61  1  0
 19 62  1  0
 20 63  1  0
 21 64  1  0
 22 65  1  0
 22 66  1  0
 23 67  1  0
 23 68  1  0
 24 69  1  0
 24 70  1  0
 25 71  1  0
 25 72  1  0
 27 73  1  0
 27 74  1  0
 28 75  1  0
 28 76  1  0
 35 77  1  0
 36 78  1  0
 37 79  1  0
 38 80  1  0
 39 81  1  0
 40 82  1  0
 41 83  1  0
 41 84  1  0
 42 85  1  0
 42 86  1  0
 43 87  1  0
 43 88  1  0
 44 89  1  0
 44 90  1  0
M  END
> <Uni-Dock RESULT> 
ENERGY=   -6.958  LOWER_BOUND=    0.974  UPPER_BOUND=    3.799
INTER + INTRA:          -6.958
INTER:                  -6.958
INTRA:                   0.000
UNBOUND:                 0.000

$$$$

     RDKit          3D

 90 88  0  0  0  0  0  0  0  0999 V2000
   48.4896    4.5039   19.7586 N   0  0  0  0  0  0  0  0  0  0  0  0
   50.0461    4.4677   17.2321 N   0  0  0  0  0  0  0  0  0  0  0  0
   47.8598    4.2472   18.4500 C   0  0  0  0  0  0  0  0  0  0  0  0
   48.8410    3.6481   17.4189 C   0  0  0  0  0  0  0  0  0  0  0  0
   49.6727    5.3598   19.5507 C   0  0  0  0  0  0  0  0  0  0  0  0
   50.6684    4.7696   18.5285 C   0  0  0  0  0  0  0  0  0  0  0  0
   49.8651    4.0540   18.3047 C   0  0  0  0  0  0  0  0  0  0  0  0
   49.0220    5.0662   17.5172 C   0  0  0  0  0  0  0  0  0  0  0  0
   49.9768    4.2425   19.8234 C   0  0  0  0  0  0  0  0  0  0  0  0
   51.2956    4.1150   17.7517 C   0  0  0  0  0  0  0  0  0  0  0  0
   48.7788    4.8852   20.4454 C   0  0  0  0  0  0  0  0  0  0  0  0
   47.5624    4.7147   17.4413 C   0  0  0  0  0  0  0  0  0  0  0  0
   51.9556    3.1420   17.4149 O   0  0  0  0  0  0  0  0  0  0  0  0
   46.7410    4.8009   18.3400 O   0  0  0  0  0  0  0  0  0  0  0  0
   48.5809    6.0871   20.5179 O   0  0  0  0  0  0  0  0  0  0  0  0
   49.3799    2.7237   18.0342 O   0  0  0  0  0  0  0  0  0  0  0  0
   51.8235    5.3519   17.7003 O   0  0  0  0  0  0  0  0  0  0  0  0
   47.1905    4.2917   16.2161 O   0  0  0  0  0  0  0  0  0  0  0  0
   47.8853    3.9932   20.9040 O   0  0  0  0  0  0  0  0  0  0  0  0
   50.7630    4.0961   18.3457 N   0  0  0  0  0  0  0  0  0  0  0  0
   47.8803    4.7405   18.6049 N   0  0  0  0  0  0  0  0  0  0  0  0
   49.7810    3.7277   17.3128 C   0  0  0  0  0  0  0  0  0  0  0  0
   48.3565    3.5511   17.8804 C   0  0  0  0  0  0  0  0  0  0  0  0
   50.2865    5.2854   19.0704 C   0  0  0  0  0  0  0  0  0  0  0  0
   48.8622    5.1085   19.6378 C   0  0  0  0  0  0  0  0  0  0  0  0
   49.7550    4.8449   17.8969 C   0  0  0  0  0  0  0  0  0  0  0  0
   49.8366    3.3178   17.9058 C   0  0  0  0  0  0  0  0  0  0  0  0
   48.5607    5.5211   18.5758 C   0  0  0  0  0  0  0  0  0  0  0  0
   51.0792    5.3911   18.4444 C   0  0  0  0  0  0  0  0  0  0  0  0
   48.2539    5.0470   19.9705 C   0  0  0  0  0  0  0  0  0  0  0  0
   48.6870    2.6406   17.2219 C   0  0  0  0  0  0  0  0  0  0  0  0
   52.0528    5.6655   17.7542 O   0  0  0  0  0  0  0  0  0  0  0  0
   48.7694    1.9044   16.2522 O   0  0  0  0  0  0  0  0  0  0  0  0
   48.6648    4.0519   20.5394 O   0  0  0  0  0  0  0  0  0  0  0  0
   49.7145    5.2696   16.5075 O   0  0  0  0  0  0  0  0  0  0  0  0
   51.1389    5.5215   19.7783 O   0  0  0  0  0  0  0  0  0  0  0  0
   47.4987    2.8482   17.8146 O   0  0  0  0  0  0  0  0  0  0  0  0
   47.3882    5.8731   20.5950 O   0  0  0  0  0  0  0  0  0  0  0  0
   50.5429    4.1656   17.6079 N   0  0  0  0  0  0  0  0  0  0  0  0
   48.0523    4.6593   19.2875 N   0  0  0  0  0  0  0  0  0  0  0  0
   50.4122    5.2586   18.5845 C   0  0  0  0  0  0  0  0  0  0  0  0
   49.4182    4.9801   19.7310 C   0  0  0  0  0  0  0  0  0  0  0  0
   49.3472    3.3050   17.5926 C   0  0  0  0  0  0  0  0  0  0  0  0
   48.0461    4.0526   17.9441 C   0  0  0  0  0  0  0  0  0  0  0  0
   48.8105    3.6113   20.1325 H   0  0  0  0  0  0  0  0  0  0  0  0
   50.7102    3.9724   16.6396 H   0  0  0  0  0  0  0  0  0  0  0  0
   47.4340    5.1812   18.0627 H   0  0  0  0  0  0  0  0  0  0  0  0
   47.0222    3.5558   18.5946 H   0  0  0  0  0  0  0  0  0  0  0  0
   48.3311    3.5466   16.4549 H   0  0  0  0  0  0  0  0  0  0  0  0
   49.1334    2.6393   17.7365 H   0  0  0  0  0  0  0  0  0  0  0  0
   50.1804    5.4942   20.5122 H   0  0  0  0  0  0  0  0  0  0  0  0
   49.3470    6.3553   19.2238 H   0  0  0  0  0  0  0  0  0  0  0  0
   51.1146    3.8551   18.9390 H   0  0  0  0  0  0  0  0  0  0  0  0
   51.4845    5.4827   18.3696 H   0  0  0  0  0  0  0  0  0  0  0  0
   49.3824    5.1237   16.4796 H   0  0  0  0  0  0  0  0  0  0  0  0
   49.1246    6.0865   17.9036 H   0  0  0  0  0  0  0  0  0  0  0  0
   50.8290    4.8789   20.0951 H   0  0  0  0  0  0  0  0  0  0  0  0
   50.1587    3.2839   20.3261 H   0  0  0  0  0  0  0  0  0  0  0  0
   50.1517    2.1222   18.0230 H   0  0  0  0  0  0  0  0  0  0  0  0
   52.7278    5.2247   17.3405 H   0  0  0  0  0  0  0  0  0  0  0  0
   46.2421    4.0678   16.3210 H   0  0  0  0  0  0  0  0  0  0  0  0
   47.0795    4.5254   21.0814 H   0  0  0  0  0  0  0  0  0  0  0  0
   51.6513    4.3138   17.8970 H   0  0  0  0  0  0  0  0  0  0  0  0
   46.9915    4.5232   19.0532 H   0  0  0  0  0  0  0  0  0  0  0  0
   50.0992    2.7893   16.8461 H   0  0  0  0  0  0  0  0  0  0  0  0
   49.7731    4.4923   16.5254 H   0  0  0  0  0  0  0  0  0  0  0  0
   47.6660    3.3435   17.0561 H   0  0  0  0  0  0  0  0  0  0  0  0
   48.3310    2.6806   18.5482 H   0  0  0  0  0  0  0  0  0  0  0  0
   50.3117    6.1557   18.4024 H   0  0  0  0  0  0  0  0  0  0  0  0
   50.9770    5.4933   19.8951 H   0  0  0  0  0  0  0  0  0  0  0  0
   48.8712    4.3428   20.4238 H   0  0  0  0  0  0  0  0  0  0  0  0
   48.5441    6.0467   20.1053 H   0  0  0  0  0  0  0  0  0  0  0  0
   49.9550    2.8937   18.9069 H   0  0  0  0  0  0  0  0  0  0  0  0
   50.7354    3.0067   17.3539 H   0  0  0  0  0  0  0  0  0  0  0  0
   48.7463    6.6028   18.6238 H   0  0  0  0  0  0  0  0  0  0  0  0
   47.6554    5.3963   17.9700 H   0  0  0  0  0  0  0  0  0  0  0  0
   50.6277    5.2062   16.1576 H   0  0  0  0  0  0  0  0  0  0  0  0
   52.0477    5.8429   19.9608 H   0  0  0  0  0  0  0  0  0  0  0  0
   46.8746    2.3127   17.2798 H   0  0  0  0  0  0  0  0  0  0  0  0
   47.2533    5.4576   21.4727 H   0  0  0  0  0  0  0  0  0  0  0  0
   51.3482    3.5886   17.8466 H   0  0  0  0  0  0  0  0  0  0  0  0
   47.4977    5.5140   19.2498 H   0  0  0  0  0  0  0  0  0  0  0  0
   51.4002    5.4827   19.0023 H   0  0  0  0  0  0  0  0  0  0  0  0
   50.0928    6.1594   18.0463 H   0  0  0  0  0  0  0  0  0  0  0  0
   49.3802    5.8451   20.4029 H   0  0  0  0  0  0  0  0  0  0  0  0
   49.7895    4.1399   20.3308 H   0  0  0  0  0  0  0  0  0  0  0  0
   49.2556    2.8560   16.5979 H   0  0  0  0  0  0  0  0  0  0  0  0
   49.4897    2.4801   18.3025 H   0  0  0  0  0  0  0  0  0  0  0  0
   47.1972    3.3638   17.8797 H   0  0  0  0  0  0  0  0  0  0  0  0
   47.8755    4.8397   17.1983 H   0  0  0  0  0  0  0  0  0  0  0  0
  2  6  1  0
  3  1  1  0
  4  3  1  0
  5  1  1  0
  6  5  1  0
  2  4  1  0
  8  7  1  0
  9  7  1  0
 10  7  1  0
 11  9  1  0
 12  8  1  0
 13 10  2  0
 14 12  2  0
 15 11  2  0
 16  7  1  0
 17 10  1  0
 18 12  1  0
 19 11  1  0
 21 25  1  0
 22 20  1  0
 23 22  1  0
 24 20  1  0
 25 24  1  0
 21 23  1  0
 27 26  1  0
 28 26  1  0
 29 26  1  0
 30 28  1  0
 31 27  1  0
 32 29  2  0
 33 31  2  0
 34 30  2  0
 35 26  1  0
 36 29  1  0
 37 31  1  0
 38 30  1  0
 40 44  1  0
 41 39  1  0
 42 41  1  0
 43 39  1  0
 44 43  1  0
 40 42  1  0
  1 45  1  0
  2 46  1  0
  3 47  1  0
  3 48  1  0
  4 49  1  0
  4 50  1  0
  5 51  1  0
  5 52  1  0
  6 53  1  0
  6 54  1  0
  8 55  1  0
  8 56  1  0
  9 57  1  0
  9 58  1  0
 16 59  1  0
 17 60  1  0
 18 61  1  0
 19 62  1  0
 20 63  1  0
 21 64  1  0
 22 65  1  0
 22 66  1  0
 23 67  1  0
 23 68  1  0
 24 69  1  0
 24 70  1  0
 25 71  1  0
 25 72  1  0
 27 73  1  0
 27 74  1  0
 28 75  1  0
 28 76  1  0
 35 77  1  0
 36 78  1  0
 37 79  1  0
 38 80  1  0
 39 81  1  0
 40 82  1  0
 41 83  1  0
 41 84  1  0
 42 85  1  0
 42 86  1  0
 43 87  1  0
 43 88  1  0
 44 89  1  0
 44 90  1  0
M  END
> <Uni-Dock RESULT> 
ENERGY=   -6.634  LOWER_BOUND=    6.313  UPPER_BOUND=    8.420
INTER + INTRA:          -6.634
INTER:                  -6.634
INTRA:                   0.000
UNBOUND:                 0.000

$$$$
