
     RDKit          3D

 90 88  0  0  0  0  0  0  0  0999 V2000
   43.5486    5.1472   10.7355 N   0  0  0  0  0  0  0  0  0  0  0  0
   45.7325    4.9666   12.8459 N   0  0  0  0  0  0  0  0  0  0  0  0
   44.3954    3.9610   10.9437 C   0  0  0  0  0  0  0  0  0  0  0  0
   44.9305    3.8215   12.3834 C   0  0  0  0  0  0  0  0  0  0  0  0
   43.9585    6.2660   11.6018 C   0  0  0  0  0  0  0  0  0  0  0  0
   45.4197    6.1894   12.0897 C   0  0  0  0  0  0  0  0  0  0  0  0
   44.8435    5.0610   11.7983 C   0  0  0  0  0  0  0  0  0  0  0  0
   45.0837    3.6075   12.2392 C   0  0  0  0  0  0  0  0  0  0  0  0
   45.1484    6.0015   12.9710 C   0  0  0  0  0  0  0  0  0  0  0  0
   43.3916    5.2019   11.3064 C   0  0  0  0  0  0  0  0  0  0  0  0
   44.8571    7.4425   12.6532 C   0  0  0  0  0  0  0  0  0  0  0  0
   44.5148    2.6093   11.2701 C   0  0  0  0  0  0  0  0  0  0  0  0
   43.0351    5.2517   10.1391 O   0  0  0  0  0  0  0  0  0  0  0  0
   43.7153    1.7288   11.5347 O   0  0  0  0  0  0  0  0  0  0  0  0
   43.9885    7.8828   11.9212 O   0  0  0  0  0  0  0  0  0  0  0  0
   45.7881    5.3650   10.7608 O   0  0  0  0  0  0  0  0  0  0  0  0
   42.4845    5.1738   12.3020 O   0  0  0  0  0  0  0  0  0  0  0  0
   44.9980    2.7522   10.0219 O   0  0  0  0  0  0  0  0  0  0  0  0
   45.6477    8.2837   13.3498 O   0  0  0  0  0  0  0  0  0  0  0  0
   45.8617    4.6894   12.5283 N   0  0  0  0  0  0  0  0  0  0  0  0
   43.3411    5.4191   11.1338 N   0  0  0  0  0  0  0  0  0  0  0  0
   45.5359    6.0806   12.1698 C   0  0  0  0  0  0  0  0  0  0  0  0
   44.5879    6.1839   10.9558 C   0  0  0  0  0  0  0  0  0  0  0  0
   44.6152    3.9243   12.7065 C   0  0  0  0  0  0  0  0  0  0  0  0
   43.6669    4.0276   11.4928 C   0  0  0  0  0  0  0  0  0  0  0  0
   44.3846    5.3825   12.0176 C   0  0  0  0  0  0  0  0  0  0  0  0
   44.5140    4.1877   11.0620 C   0  0  0  0  0  0  0  0  0  0  0  0
   44.9253    6.6949   11.4334 C   0  0  0  0  0  0  0  0  0  0  0  0
   42.8931    5.6475   12.3019 C   0  0  0  0  0  0  0  0  0  0  0  0
   46.3710    6.6265   11.0355 C   0  0  0  0  0  0  0  0  0  0  0  0
   43.6874    3.0127   11.5068 C   0  0  0  0  0  0  0  0  0  0  0  0
   42.0230    5.8339   11.4671 O   0  0  0  0  0  0  0  0  0  0  0  0
   43.2816    2.7907   12.6357 O   0  0  0  0  0  0  0  0  0  0  0  0
   46.8930    5.7915   10.3157 O   0  0  0  0  0  0  0  0  0  0  0  0
   45.1159    5.1103   13.2204 O   0  0  0  0  0  0  0  0  0  0  0  0
   42.5972    5.6403   13.6189 O   0  0  0  0  0  0  0  0  0  0  0  0
   43.4422    2.1500   10.5032 O   0  0  0  0  0  0  0  0  0  0  0  0
   47.0920    7.6621   11.5084 O   0  0  0  0  0  0  0  0  0  0  0  0
   43.5882    5.2065   10.6751 N   0  0  0  0  0  0  0  0  0  0  0  0
   45.9780    5.0735   12.0042 N   0  0  0  0  0  0  0  0  0  0  0  0
   43.8832    3.8809   11.2557 C   0  0  0  0  0  0  0  0  0  0  0  0
   45.1914    3.8340   12.0853 C   0  0  0  0  0  0  0  0  0  0  0  0
   43.7365    6.2244   11.7316 C   0  0  0  0  0  0  0  0  0  0  0  0
   45.1435    6.2260   12.3816 C   0  0  0  0  0  0  0  0  0  0  0  0
   42.5783    4.9152   10.9438 H   0  0  0  0  0  0  0  0  0  0  0  0
   45.5418    5.1171   13.8358 H   0  0  0  0  0  0  0  0  0  0  0  0
   43.8220    3.0659   10.6759 H   0  0  0  0  0  0  0  0  0  0  0  0
   45.2393    4.0084   10.2439 H   0  0  0  0  0  0  0  0  0  0  0  0
   45.5398    2.9149   12.4630 H   0  0  0  0  0  0  0  0  0  0  0  0
   44.0787    3.6912   13.0629 H   0  0  0  0  0  0  0  0  0  0  0  0
   43.2967    6.2938   12.4774 H   0  0  0  0  0  0  0  0  0  0  0  0
   43.8025    7.2027   11.0558 H   0  0  0  0  0  0  0  0  0  0  0  0
   46.0950    6.2480   11.2267 H   0  0  0  0  0  0  0  0  0  0  0  0
   45.6440    7.0599   12.7170 H   0  0  0  0  0  0  0  0  0  0  0  0
   46.1521    3.3915   12.3535 H   0  0  0  0  0  0  0  0  0  0  0  0
   44.6015    3.4166   13.2058 H   0  0  0  0  0  0  0  0  0  0  0  0
   46.2128    5.9237   13.2240 H   0  0  0  0  0  0  0  0  0  0  0  0
   44.5646    5.7417   13.8608 H   0  0  0  0  0  0  0  0  0  0  0  0
   45.5154    4.8464    9.9744 H   0  0  0  0  0  0  0  0  0  0  0  0
   41.6255    5.2938   11.8426 H   0  0  0  0  0  0  0  0  0  0  0  0
   44.5466    2.0512    9.5026 H   0  0  0  0  0  0  0  0  0  0  0  0
   45.3622    9.1750   13.0577 H   0  0  0  0  0  0  0  0  0  0  0  0
   46.3700    4.2773   11.7446 H   0  0  0  0  0  0  0  0  0  0  0  0
   42.8328    5.8311   11.9176 H   0  0  0  0  0  0  0  0  0  0  0  0
   45.0859    6.5786   13.0377 H   0  0  0  0  0  0  0  0  0  0  0  0
   46.4662    6.6153   11.9488 H   0  0  0  0  0  0  0  0  0  0  0  0
   44.3331    7.2355   10.7840 H   0  0  0  0  0  0  0  0  0  0  0  0
   45.1011    5.8317   10.0520 H   0  0  0  0  0  0  0  0  0  0  0  0
   44.8703    2.8727   12.8793 H   0  0  0  0  0  0  0  0  0  0  0  0
   44.1035    4.2776   13.6104 H   0  0  0  0  0  0  0  0  0  0  0  0
   44.1165    3.5288   10.6254 H   0  0  0  0  0  0  0  0  0  0  0  0
   42.7353    3.4952   11.7153 H   0  0  0  0  0  0  0  0  0  0  0  0
   44.1751    4.4754   10.0595 H   0  0  0  0  0  0  0  0  0  0  0  0
   45.5471    3.8302   11.0107 H   0  0  0  0  0  0  0  0  0  0  0  0
   44.8185    7.4898   12.1842 H   0  0  0  0  0  0  0  0  0  0  0  0
   44.3569    7.0141   10.5513 H   0  0  0  0  0  0  0  0  0  0  0  0
   44.5168    4.5827   13.7901 H   0  0  0  0  0  0  0  0  0  0  0  0
   41.6271    5.7765   13.6585 H   0  0  0  0  0  0  0  0  0  0  0  0
   42.9226    1.4264   10.9121 H   0  0  0  0  0  0  0  0  0  0  0  0
   48.0008    7.4910   11.1847 H   0  0  0  0  0  0  0  0  0  0  0  0
   44.3473    5.3883   10.0126 H   0  0  0  0  0  0  0  0  0  0  0  0
   46.7835    5.0148   12.6238 H   0  0  0  0  0  0  0  0  0  0  0  0
   43.0401    3.5642   11.8805 H   0  0  0  0  0  0  0  0  0  0  0  0
   43.9512    3.1622   10.4308 H   0  0  0  0  0  0  0  0  0  0  0  0
   45.8117    3.0030   11.7323 H   0  0  0  0  0  0  0  0  0  0  0  0
   44.9481    3.6297   13.1348 H   0  0  0  0  0  0  0  0  0  0  0  0
   43.5361    7.2100   11.2976 H   0  0  0  0  0  0  0  0  0  0  0  0
   42.9724    6.0574   12.5000 H   0  0  0  0  0  0  0  0  0  0  0  0
   45.0354    6.2584   13.4720 H   0  0  0  0  0  0  0  0  0  0  0  0
   45.6766    7.1354   12.0839 H   0  0  0  0  0  0  0  0  0  0  0  0
  2  6  1  0
  3  1  1  0
  4  3  1  0
  5  1  1  0
  6  5  1  0
  2  4  1  0
  8  7  1  0
  9  7  1  0
 10  7  1  0
 11  9  1  0
 12  8  1  0
 13 10  2  0
 14 12  2  0
 15 11  2  0
 16  7  1  0
 17 10  1  0
 18 12  1  0
 19 11  1  0
 21 25  1  0
 22 20  1  0
 23 22  1  0
 24 20  1  0
 25 24  1  0
 21 23  1  0
 27 26  1  0
 28 26  1  0
 29 26  1  0
 30 28  1  0
 31 27  1  0
 32 29  2  0
 33 31  2  0
 34 30  2  0
 35 26  1  0
 36 29  1  0
 37 31  1  0
 38 30  1  0
 40 44  1  0
 41 39  1  0
 42 41  1  0
 43 39  1  0
 44 43  1  0
 40 42  1  0
  1 45  1  0
  2 46  1  0
  3 47  1  0
  3 48  1  0
  4 49  1  0
  4 50  1  0
  5 51  1  0
  5 52  1  0
  6 53  1  0
  6 54  1  0
  8 55  1  0
  8 56  1  0
  9 57  1  0
  9 58  1  0
 16 59  1  0
 17 60  1  0
 18 61  1  0
 19 62  1  0
 20 63  1  0
 21 64  1  0
 22 65  1  0
 22 66  1  0
 23 67  1  0
 23 68  1  0
 24 69  1  0
 24 70  1  0
 25 71  1  0
 25 72  1  0
 27 73  1  0
 27 74  1  0
 28 75  1  0
 28 76  1  0
 35 77  1  0
 36 78  1  0
 37 79  1  0
 38 80  1  0
 39 81  1  0
 40 82  1  0
 41 83  1  0
 41 84  1  0
 42 85  1  0
 42 86  1  0
 43 87  1  0
 43 88  1  0
 44 89  1  0
 44 90  1  0
M  END
> <Uni-Dock RESULT> 
ENERGY=   -7.995  LOWER_BOUND=    0.000  UPPER_BOUND=    0.000
INTER + INTRA:          -7.995
INTER:                  -7.995
INTRA:                   0.000
UNBOUND:                 0.000

$$$$

     RDKit          3D

 90 88  0  0  0  0  0  0  0  0999 V2000
   44.3455    5.0911   13.1052 N   0  0  0  0  0  0  0  0  0  0  0  0
   45.5398    5.9429   10.4398 N   0  0  0  0  0  0  0  0  0  0  0  0
   43.8490    4.6328   11.7971 C   0  0  0  0  0  0  0  0  0  0  0  0
   44.9216    4.6298   10.6890 C   0  0  0  0  0  0  0  0  0  0  0  0
   45.4193    6.0890   12.9592 C   0  0  0  0  0  0  0  0  0  0  0  0
   45.4179    6.8306   11.6068 C   0  0  0  0  0  0  0  0  0  0  0  0
   44.8948    5.6405   11.6185 C   0  0  0  0  0  0  0  0  0  0  0  0
   44.6713    4.5743   10.5331 C   0  0  0  0  0  0  0  0  0  0  0  0
   46.2015    6.3898   11.3289 C   0  0  0  0  0  0  0  0  0  0  0  0
   44.9143    4.9557   12.9970 C   0  0  0  0  0  0  0  0  0  0  0  0
   46.5434    7.3974   12.3919 C   0  0  0  0  0  0  0  0  0  0  0  0
   43.5959    3.5914   10.9030 C   0  0  0  0  0  0  0  0  0  0  0  0
   43.9994    4.9545   13.8065 O   0  0  0  0  0  0  0  0  0  0  0  0
   43.7195    2.3805   10.9574 O   0  0  0  0  0  0  0  0  0  0  0  0
   46.3019    7.3329   13.5843 O   0  0  0  0  0  0  0  0  0  0  0  0
   43.8307    6.5986   11.5159 O   0  0  0  0  0  0  0  0  0  0  0  0
   46.0349    4.2434   13.2246 O   0  0  0  0  0  0  0  0  0  0  0  0
   42.4124    4.1779   11.1622 O   0  0  0  0  0  0  0  0  0  0  0  0
   47.2573    8.4297   11.8994 O   0  0  0  0  0  0  0  0  0  0  0  0
   45.1190    5.8489   10.3480 N   0  0  0  0  0  0  0  0  0  0  0  0
   44.8574    5.1220   13.2175 N   0  0  0  0  0  0  0  0  0  0  0  0
   45.4157    6.8026   11.4309 C   0  0  0  0  0  0  0  0  0  0  0  0
   44.6431    6.4967   12.7319 C   0  0  0  0  0  0  0  0  0  0  0  0
   45.3332    4.4743   10.8332 C   0  0  0  0  0  0  0  0  0  0  0  0
   44.5611    4.1680   12.1343 C   0  0  0  0  0  0  0  0  0  0  0  0
   45.3366    5.5866   12.0234 C   0  0  0  0  0  0  0  0  0  0  0  0
   44.0061    4.8647   11.7662 C   0  0  0  0  0  0  0  0  0  0  0  0
   45.1645    7.0301   12.5160 C   0  0  0  0  0  0  0  0  0  0  0  0
   46.1002    4.8609   13.1485 C   0  0  0  0  0  0  0  0  0  0  0  0
   44.3872    7.9001   11.5716 C   0  0  0  0  0  0  0  0  0  0  0  0
   44.1858    3.3790   11.6174 C   0  0  0  0  0  0  0  0  0  0  0  0
   45.6727    4.6108   14.2636 O   0  0  0  0  0  0  0  0  0  0  0  0
   45.2127    2.7942   11.3142 O   0  0  0  0  0  0  0  0  0  0  0  0
   43.2921    7.6615   11.0903 O   0  0  0  0  0  0  0  0  0  0  0  0
   46.0956    5.6317   10.8078 O   0  0  0  0  0  0  0  0  0  0  0  0
   47.3438    4.4831   12.7843 O   0  0  0  0  0  0  0  0  0  0  0  0
   43.0415    2.7016   11.8252 O   0  0  0  0  0  0  0  0  0  0  0  0
   44.9958    9.0770   11.3254 O   0  0  0  0  0  0  0  0  0  0  0  0
   44.3035    5.1704   13.1310 N   0  0  0  0  0  0  0  0  0  0  0  0
   44.7679    6.2986   10.6801 N   0  0  0  0  0  0  0  0  0  0  0  0
   44.2364    4.2170   12.0050 C   0  0  0  0  0  0  0  0  0  0  0  0
   44.5907    4.8399   10.6308 C   0  0  0  0  0  0  0  0  0  0  0  0
   45.5798    5.9042   13.0484 C   0  0  0  0  0  0  0  0  0  0  0  0
   45.7662    6.6509   11.7031 C   0  0  0  0  0  0  0  0  0  0  0  0
   44.7107    4.2970   13.6294 H   0  0  0  0  0  0  0  0  0  0  0  0
   46.5246    5.8006   10.2183 H   0  0  0  0  0  0  0  0  0  0  0  0
   43.4339    3.6245   11.9101 H   0  0  0  0  0  0  0  0  0  0  0  0
   43.0147    5.2786   11.4954 H   0  0  0  0  0  0  0  0  0  0  0  0
   44.4823    4.2686    9.7530 H   0  0  0  0  0  0  0  0  0  0  0  0
   45.7089    3.9169   10.9650 H   0  0  0  0  0  0  0  0  0  0  0  0
   46.3869    5.5853   13.0828 H   0  0  0  0  0  0  0  0  0  0  0  0
   45.3322    6.8142   13.7755 H   0  0  0  0  0  0  0  0  0  0  0  0
   44.4902    7.4087   11.5097 H   0  0  0  0  0  0  0  0  0  0  0  0
   46.2382    7.5575   11.5851 H   0  0  0  0  0  0  0  0  0  0  0  0
   44.3956    5.0265    9.5736 H   0  0  0  0  0  0  0  0  0  0  0  0
   45.5874    3.9923   10.3746 H   0  0  0  0  0  0  0  0  0  0  0  0
   46.1016    6.9279   10.3783 H   0  0  0  0  0  0  0  0  0  0  0  0
   47.0519    5.7042   11.2470 H   0  0  0  0  0  0  0  0  0  0  0  0
   43.0156    6.1436   11.8162 H   0  0  0  0  0  0  0  0  0  0  0  0
   45.9113    3.8921   14.1327 H   0  0  0  0  0  0  0  0  0  0  0  0
   41.8141    3.4327   11.3895 H   0  0  0  0  0  0  0  0  0  0  0  0
   47.4134    9.0040   12.6786 H   0  0  0  0  0  0  0  0  0  0  0  0
   44.1304    5.9446   10.1117 H   0  0  0  0  0  0  0  0  0  0  0  0
   45.8461    5.0263   13.4538 H   0  0  0  0  0  0  0  0  0  0  0  0
   46.4949    6.7970   11.6280 H   0  0  0  0  0  0  0  0  0  0  0  0
   45.1642    7.8130   11.0900 H   0  0  0  0  0  0  0  0  0  0  0  0
   44.9575    7.1978   13.5129 H   0  0  0  0  0  0  0  0  0  0  0  0
   43.5695    6.6602   12.5743 H   0  0  0  0  0  0  0  0  0  0  0  0
   45.0197    3.7731   10.0515 H   0  0  0  0  0  0  0  0  0  0  0  0
   46.4070    4.3124   10.9901 H   0  0  0  0  0  0  0  0  0  0  0  0
   43.4820    4.1727   11.9369 H   0  0  0  0  0  0  0  0  0  0  0  0
   44.8150    3.1585   12.4765 H   0  0  0  0  0  0  0  0  0  0  0  0
   43.3217    5.0370   12.6055 H   0  0  0  0  0  0  0  0  0  0  0  0
   43.5406    5.2089   10.8374 H   0  0  0  0  0  0  0  0  0  0  0  0
   46.1571    7.4811   12.6518 H   0  0  0  0  0  0  0  0  0  0  0  0
   44.6618    7.0721   13.4900 H   0  0  0  0  0  0  0  0  0  0  0  0
   46.5663    4.7733   10.7486 H   0  0  0  0  0  0  0  0  0  0  0  0
   47.6983    4.0041   13.5628 H   0  0  0  0  0  0  0  0  0  0  0  0
   43.2743    1.7603   11.6817 H   0  0  0  0  0  0  0  0  0  0  0  0
   44.3939    9.5339   10.7017 H   0  0  0  0  0  0  0  0  0  0  0  0
   43.5762    5.8659   12.9422 H   0  0  0  0  0  0  0  0  0  0  0  0
   45.0711    6.6425    9.7713 H   0  0  0  0  0  0  0  0  0  0  0  0
   44.9028    3.3707   12.2079 H   0  0  0  0  0  0  0  0  0  0  0  0
   43.2177    3.8139   11.9685 H   0  0  0  0  0  0  0  0  0  0  0  0
   43.7942    4.6089    9.9151 H   0  0  0  0  0  0  0  0  0  0  0  0
   45.5091    4.3780   10.2493 H   0  0  0  0  0  0  0  0  0  0  0  0
   45.6224    6.6248   13.8724 H   0  0  0  0  0  0  0  0  0  0  0  0
   46.4076    5.2018   13.2013 H   0  0  0  0  0  0  0  0  0  0  0  0
   46.7724    6.4503   11.3174 H   0  0  0  0  0  0  0  0  0  0  0  0
   45.6977    7.7302   11.8779 H   0  0  0  0  0  0  0  0  0  0  0  0
  2  6  1  0
  3  1  1  0
  4  3  1  0
  5  1  1  0
  6  5  1  0
  2  4  1  0
  8  7  1  0
  9  7  1  0
 10  7  1  0
 11  9  1  0
 12  8  1  0
 13 10  2  0
 14 12  2  0
 15 11  2  0
 16  7  1  0
 17 10  1  0
 18 12  1  0
 19 11  1  0
 21 25  1  0
 22 20  1  0
 23 22  1  0
 24 20  1  0
 25 24  1  0
 21 23  1  0
 27 26  1  0
 28 26  1  0
 29 26  1  0
 30 28  1  0
 31 27  1  0
 32 29  2  0
 33 31  2  0
 34 30  2  0
 35 26  1  0
 36 29  1  0
 37 31  1  0
 38 30  1  0
 40 44  1  0
 41 39  1  0
 42 41  1  0
 43 39  1  0
 44 43  1  0
 40 42  1  0
  1 45  1  0
  2 46  1  0
  3 47  1  0
  3 48  1  0
  4 49  1  0
  4 50  1  0
  5 51  1  0
  5 52  1  0
  6 53  1  0
  6 54  1  0
  8 55  1  0
  8 56  1  0
  9 57  1  0
  9 58  1  0
 16 59  1  0
 17 60  1  0
 18 61  1  0
 19 62  1  0
 20 63  1  0
 21 64  1  0
 22 65  1  0
 22 66  1  0
 23 67  1  0
 23 68  1  0
 24 69  1  0
 24 70  1  0
 25 71  1  0
 25 72  1  0
 27 73  1  0
 27 74  1  0
 28 75  1  0
 28 76  1  0
 35 77  1  0
 36 78  1  0
 37 79  1  0
 38 80  1  0
 39 81  1  0
 40 82  1  0
 41 83  1  0
 41 84  1  0
 42 85  1  0
 42 86  1  0
 43 87  1  0
 43 88  1  0
 44 89  1  0
 44 90  1  0
M  END
> <Uni-Dock RESULT> 
ENERGY=   -7.686  LOWER_BOUND=    1.097  UPPER_BOUND=    2.391
INTER + INTRA:          -7.686
INTER:                  -7.686
INTRA:                   0.000
UNBOUND:                 0.000

$$$$

     RDKit          3D

 90 88  0  0  0  0  0  0  0  0999 V2000
   45.0987    4.7428   10.6832 N   0  0  0  0  0  0  0  0  0  0  0  0
   44.3638    5.4527   13.5489 N   0  0  0  0  0  0  0  0  0  0  0  0
   44.7738    3.7489   11.7196 C   0  0  0  0  0  0  0  0  0  0  0  0
   43.8397    4.2825   12.8247 C   0  0  0  0  0  0  0  0  0  0  0  0
   45.1250    6.1101   11.2312 C   0  0  0  0  0  0  0  0  0  0  0  0
   45.3652    6.1800   12.7532 C   0  0  0  0  0  0  0  0  0  0  0  0
   44.8177    5.0915   12.2998 C   0  0  0  0  0  0  0  0  0  0  0  0
   43.9212    4.0159   12.9357 C   0  0  0  0  0  0  0  0  0  0  0  0
   44.4799    6.4569   12.9116 C   0  0  0  0  0  0  0  0  0  0  0  0
   44.6141    5.0753   10.7740 C   0  0  0  0  0  0  0  0  0  0  0  0
   45.2530    7.5841   12.2839 C   0  0  0  0  0  0  0  0  0  0  0  0
   43.9583    2.7154   12.1830 C   0  0  0  0  0  0  0  0  0  0  0  0
   45.3770    4.5821    9.9573 O   0  0  0  0  0  0  0  0  0  0  0  0
   42.9963    2.1256   11.7235 O   0  0  0  0  0  0  0  0  0  0  0  0
   45.6309    7.6755   11.1293 O   0  0  0  0  0  0  0  0  0  0  0  0
   46.1761    4.7963   12.6580 O   0  0  0  0  0  0  0  0  0  0  0  0
   43.4306    5.5892   10.3868 O   0  0  0  0  0  0  0  0  0  0  0  0
   45.2000    2.2089   12.0669 O   0  0  0  0  0  0  0  0  0  0  0  0
   45.4529    8.6016   13.1456 O   0  0  0  0  0  0  0  0  0  0  0  0
   44.5393    5.0491   13.5759 N   0  0  0  0  0  0  0  0  0  0  0  0
   44.8237    5.1857   10.6210 N   0  0  0  0  0  0  0  0  0  0  0  0
   45.3056    6.1156   12.9083 C   0  0  0  0  0  0  0  0  0  0  0  0
   45.8655    5.6861   11.5352 C   0  0  0  0  0  0  0  0  0  0  0  0
   43.4975    4.5486   12.6622 C   0  0  0  0  0  0  0  0  0  0  0  0
   44.0569    4.1194   11.2889 C   0  0  0  0  0  0  0  0  0  0  0  0
   44.5912    5.5086   11.9299 C   0  0  0  0  0  0  0  0  0  0  0  0
   44.8391    3.9961   11.8383 C   0  0  0  0  0  0  0  0  0  0  0  0
   45.8813    6.3399   11.9540 C   0  0  0  0  0  0  0  0  0  0  0  0
   43.8289    5.9763   10.6746 C   0  0  0  0  0  0  0  0  0  0  0  0
   46.8004    5.9927   13.0887 C   0  0  0  0  0  0  0  0  0  0  0  0
   43.5917    3.2371   11.4781 C   0  0  0  0  0  0  0  0  0  0  0  0
   44.1694    5.7965    9.5168 O   0  0  0  0  0  0  0  0  0  0  0  0
   42.4402    3.6120   11.6260 O   0  0  0  0  0  0  0  0  0  0  0  0
   47.2059    4.8819   13.3882 O   0  0  0  0  0  0  0  0  0  0  0  0
   43.8664    5.7993   13.1323 O   0  0  0  0  0  0  0  0  0  0  0  0
   42.6796    6.6221   10.9647 O   0  0  0  0  0  0  0  0  0  0  0  0
   43.8613    2.0170   10.9779 O   0  0  0  0  0  0  0  0  0  0  0  0
   47.2303    7.0775   13.7627 O   0  0  0  0  0  0  0  0  0  0  0  0
   45.1899    4.7631   10.6837 N   0  0  0  0  0  0  0  0  0  0  0  0
   45.1701    5.1257   13.3972 N   0  0  0  0  0  0  0  0  0  0  0  0
   44.2688    3.8628   11.4063 C   0  0  0  0  0  0  0  0  0  0  0  0
   44.1912    4.1330   12.9304 C   0  0  0  0  0  0  0  0  0  0  0  0
   44.9072    6.1508   11.0943 C   0  0  0  0  0  0  0  0  0  0  0  0
   45.0341    6.3705   12.6232 C   0  0  0  0  0  0  0  0  0  0  0  0
   44.4001    4.7046    9.9421 H   0  0  0  0  0  0  0  0  0  0  0  0
   43.5852    6.0724   13.7699 H   0  0  0  0  0  0  0  0  0  0  0  0
   44.3158    2.8757   11.2407 H   0  0  0  0  0  0  0  0  0  0  0  0
   45.7102    3.3981   12.1714 H   0  0  0  0  0  0  0  0  0  0  0  0
   43.6358    3.4872   13.5495 H   0  0  0  0  0  0  0  0  0  0  0  0
   42.8775    4.5516   12.3708 H   0  0  0  0  0  0  0  0  0  0  0  0
   44.1688    6.5989   11.0036 H   0  0  0  0  0  0  0  0  0  0  0  0
   45.9039    6.6776   10.7104 H   0  0  0  0  0  0  0  0  0  0  0  0
   46.3574    5.7719   12.9842 H   0  0  0  0  0  0  0  0  0  0  0  0
   45.3796    7.2276   13.0755 H   0  0  0  0  0  0  0  0  0  0  0  0
   44.2105    3.8106   13.9727 H   0  0  0  0  0  0  0  0  0  0  0  0
   42.8750    4.3452   12.9422 H   0  0  0  0  0  0  0  0  0  0  0  0
   44.7237    6.4394   13.9809 H   0  0  0  0  0  0  0  0  0  0  0  0
   43.4161    6.6958   12.8064 H   0  0  0  0  0  0  0  0  0  0  0  0
   46.4234    3.9833   12.1685 H   0  0  0  0  0  0  0  0  0  0  0  0
   43.4565    5.5308    9.4074 H   0  0  0  0  0  0  0  0  0  0  0  0
   45.0787    1.3764   11.5597 H   0  0  0  0  0  0  0  0  0  0  0  0
   45.9577    9.2599   12.6231 H   0  0  0  0  0  0  0  0  0  0  0  0
   45.1810    4.2786   13.7675 H   0  0  0  0  0  0  0  0  0  0  0  0
   44.1819    5.9563   10.4295 H   0  0  0  0  0  0  0  0  0  0  0  0
   44.6642    6.9978   12.7901 H   0  0  0  0  0  0  0  0  0  0  0  0
   46.1344    6.4150   13.5592 H   0  0  0  0  0  0  0  0  0  0  0  0
   46.3645    6.5404   11.0646 H   0  0  0  0  0  0  0  0  0  0  0  0
   46.6292    4.9099   11.6710 H   0  0  0  0  0  0  0  0  0  0  0  0
   42.9977    3.6948   13.1334 H   0  0  0  0  0  0  0  0  0  0  0  0
   42.7348    5.3257   12.5275 H   0  0  0  0  0  0  0  0  0  0  0  0
   44.6973    3.2367   11.4071 H   0  0  0  0  0  0  0  0  0  0  0  0
   43.2274    3.8226   10.6372 H   0  0  0  0  0  0  0  0  0  0  0  0
   45.5915    3.7889   11.0679 H   0  0  0  0  0  0  0  0  0  0  0  0
   45.1755    3.5899   12.7972 H   0  0  0  0  0  0  0  0  0  0  0  0
   45.6186    7.4028   12.0448 H   0  0  0  0  0  0  0  0  0  0  0  0
   46.4531    6.2334   11.0241 H   0  0  0  0  0  0  0  0  0  0  0  0
   42.9198    5.6513   12.9224 H   0  0  0  0  0  0  0  0  0  0  0  0
   42.2792    6.8248   10.0931 H   0  0  0  0  0  0  0  0  0  0  0  0
   42.9845    1.6150   10.8033 H   0  0  0  0  0  0  0  0  0  0  0  0
   47.8063    6.7118   14.4661 H   0  0  0  0  0  0  0  0  0  0  0  0
   46.1212    4.5534   11.0536 H   0  0  0  0  0  0  0  0  0  0  0  0
   45.0249    5.3182   14.3861 H   0  0  0  0  0  0  0  0  0  0  0  0
   43.2674    3.9420   10.9674 H   0  0  0  0  0  0  0  0  0  0  0  0
   44.6060    2.8336   11.2374 H   0  0  0  0  0  0  0  0  0  0  0  0
   44.3598    3.1953   13.4710 H   0  0  0  0  0  0  0  0  0  0  0  0
   43.1813    4.4744   13.1872 H   0  0  0  0  0  0  0  0  0  0  0  0
   45.6023    6.8179   10.5729 H   0  0  0  0  0  0  0  0  0  0  0  0
   43.8989    6.4246   10.7619 H   0  0  0  0  0  0  0  0  0  0  0  0
   44.1611    6.9297   12.9794 H   0  0  0  0  0  0  0  0  0  0  0  0
   45.9162    6.9875   12.8264 H   0  0  0  0  0  0  0  0  0  0  0  0
  2  6  1  0
  3  1  1  0
  4  3  1  0
  5  1  1  0
  6  5  1  0
  2  4  1  0
  8  7  1  0
  9  7  1  0
 10  7  1  0
 11  9  1  0
 12  8  1  0
 13 10  2  0
 14 12  2  0
 15 11  2  0
 16  7  1  0
 17 10  1  0
 18 12  1  0
 19 11  1  0
 21 25  1  0
 22 20  1  0
 23 22  1  0
 24 20  1  0
 25 24  1  0
 21 23  1  0
 27 26  1  0
 28 26  1  0
 29 26  1  0
 30 28  1  0
 31 27  1  0
 32 29  2  0
 33 31  2  0
 34 30  2  0
 35 26  1  0
 36 29  1  0
 37 31  1  0
 38 30  1  0
 40 44  1  0
 41 39  1  0
 42 41  1  0
 43 39  1  0
 44 43  1  0
 40 42  1  0
  1 45  1  0
  2 46  1  0
  3 47  1  0
  3 48  1  0
  4 49  1  0
  4 50  1  0
  5 51  1  0
  5 52  1  0
  6 53  1  0
  6 54  1  0
  8 55  1  0
  8 56  1  0
  9 57  1  0
  9 58  1  0
 16 59  1  0
 17 60  1  0
 18 61  1  0
 19 62  1  0
 20 63  1  0
 21 64  1  0
 22 65  1  0
 22 66  1  0
 23 67  1  0
 23 68  1  0
 24 69  1  0
 24 70  1  0
 25 71  1  0
 25 72  1  0
 27 73  1  0
 27 74  1  0
 28 75  1  0
 28 76  1  0
 35 77  1  0
 36 78  1  0
 37 79  1  0
 38 80  1  0
 39 81  1  0
 40 82  1  0
 41 83  1  0
 41 84  1  0
 42 85  1  0
 42 86  1  0
 43 87  1  0
 43 88  1  0
 44 89  1  0
 44 90  1  0
M  END
> <Uni-Dock RESULT> 
ENERGY=   -7.666  LOWER_BOUND=    1.056  UPPER_BOUND=    1.555
INTER + INTRA:          -7.666
INTER:                  -7.666
INTRA:                   0.000
UNBOUND:                 0.000

$$$$

     RDKit          3D

 90 88  0  0  0  0  0  0  0  0999 V2000
   45.6991    4.8856   12.2518 N   0  0  0  0  0  0  0  0  0  0  0  0
   43.0409    4.7394   10.7791 N   0  0  0  0  0  0  0  0  0  0  0  0
   45.1640    5.9688   11.4105 C   0  0  0  0  0  0  0  0  0  0  0  0
   43.6249    5.9810   11.3136 C   0  0  0  0  0  0  0  0  0  0  0  0
   44.8409    3.6890   12.2075 C   0  0  0  0  0  0  0  0  0  0  0  0
   43.9477    3.5939   10.9536 C   0  0  0  0  0  0  0  0  0  0  0  0
   44.3045    4.7876   11.3248 C   0  0  0  0  0  0  0  0  0  0  0  0
   43.7016    6.1856   11.1079 C   0  0  0  0  0  0  0  0  0  0  0  0
   43.1704    3.7633   11.4562 C   0  0  0  0  0  0  0  0  0  0  0  0
   45.2038    4.8182   12.5738 C   0  0  0  0  0  0  0  0  0  0  0  0
   43.6695    2.3767   11.7569 C   0  0  0  0  0  0  0  0  0  0  0  0
   44.7132    7.2835   11.2832 C   0  0  0  0  0  0  0  0  0  0  0  0
   46.4245    4.8633   12.5736 O   0  0  0  0  0  0  0  0  0  0  0  0
   44.6230    8.2253   12.0509 O   0  0  0  0  0  0  0  0  0  0  0  0
   44.6529    2.0633   12.4042 O   0  0  0  0  0  0  0  0  0  0  0  0
   45.0456    4.4432   10.1445 O   0  0  0  0  0  0  0  0  0  0  0  0
   44.5132    4.8868   13.7285 O   0  0  0  0  0  0  0  0  0  0  0  0
   45.7760    7.1560   10.4671 O   0  0  0  0  0  0  0  0  0  0  0  0
   42.8420    1.4263   11.2776 O   0  0  0  0  0  0  0  0  0  0  0  0
   43.2852    5.0179   10.5401 N   0  0  0  0  0  0  0  0  0  0  0  0
   45.4000    4.6161   12.5888 N   0  0  0  0  0  0  0  0  0  0  0  0
   43.8293    3.6863   10.8577 C   0  0  0  0  0  0  0  0  0  0  0  0
   45.2694    3.7400   11.4112 C   0  0  0  0  0  0  0  0  0  0  0  0
   43.4155    5.8942   11.7173 C   0  0  0  0  0  0  0  0  0  0  0  0
   44.8553    5.9479   12.2713 C   0  0  0  0  0  0  0  0  0  0  0  0
   44.2526    4.5032   11.8524 C   0  0  0  0  0  0  0  0  0  0  0  0
   45.0345    5.7256   11.3508 C   0  0  0  0  0  0  0  0  0  0  0  0
   44.7559    3.1743   11.2721 C   0  0  0  0  0  0  0  0  0  0  0  0
   44.4321    4.3751   13.3779 C   0  0  0  0  0  0  0  0  0  0  0  0
   44.7132    3.1173    9.7728 C   0  0  0  0  0  0  0  0  0  0  0  0
   44.7573    6.9536   12.1735 C   0  0  0  0  0  0  0  0  0  0  0  0
   45.4943    4.3193   13.9757 O   0  0  0  0  0  0  0  0  0  0  0  0
   43.7798    7.1580   12.8744 O   0  0  0  0  0  0  0  0  0  0  0  0
   45.1847    3.9309    8.9960 O   0  0  0  0  0  0  0  0  0  0  0  0
   42.8726    4.6395   11.4882 O   0  0  0  0  0  0  0  0  0  0  0  0
   43.2601    4.3455   14.0469 O   0  0  0  0  0  0  0  0  0  0  0  0
   45.7188    7.8862   12.0414 O   0  0  0  0  0  0  0  0  0  0  0  0
   44.1342    1.9920    9.3096 O   0  0  0  0  0  0  0  0  0  0  0  0
   45.7498    4.8257   12.2011 N   0  0  0  0  0  0  0  0  0  0  0  0
   43.7816    4.6510   10.3061 N   0  0  0  0  0  0  0  0  0  0  0  0
   45.0078    6.0840   11.9836 C   0  0  0  0  0  0  0  0  0  0  0  0
   43.8349    5.9575   10.9784 C   0  0  0  0  0  0  0  0  0  0  0  0
   44.7778    3.7461   12.4536 C   0  0  0  0  0  0  0  0  0  0  0  0
   43.7517    3.5705   11.3055 C   0  0  0  0  0  0  0  0  0  0  0  0
   45.7622    5.2029   13.2183 H   0  0  0  0  0  0  0  0  0  0  0  0
   42.1629    4.5590   11.2645 H   0  0  0  0  0  0  0  0  0  0  0  0
   45.5155    6.9292   11.8049 H   0  0  0  0  0  0  0  0  0  0  0  0
   45.5920    5.8724   10.4047 H   0  0  0  0  0  0  0  0  0  0  0  0
   43.3027    6.8167   10.6833 H   0  0  0  0  0  0  0  0  0  0  0  0
   43.2120    6.1617   12.3142 H   0  0  0  0  0  0  0  0  0  0  0  0
   44.1984    3.6835   13.0977 H   0  0  0  0  0  0  0  0  0  0  0  0
   45.4796    2.8014   12.2712 H   0  0  0  0  0  0  0  0  0  0  0  0
   44.5810    3.5114   10.0611 H   0  0  0  0  0  0  0  0  0  0  0  0
   43.3519    2.6747   10.9953 H   0  0  0  0  0  0  0  0  0  0  0  0
   43.2675    6.2873   10.1067 H   0  0  0  0  0  0  0  0  0  0  0  0
   42.9035    6.3749   11.8362 H   0  0  0  0  0  0  0  0  0  0  0  0
   42.6158    3.7210   10.5108 H   0  0  0  0  0  0  0  0  0  0  0  0
   42.4696    4.0351   12.2530 H   0  0  0  0  0  0  0  0  0  0  0  0
   45.8345    5.0255   10.1305 H   0  0  0  0  0  0  0  0  0  0  0  0
   45.2088    4.8769   14.4209 H   0  0  0  0  0  0  0  0  0  0  0  0
   46.3474    7.9241   10.6870 H   0  0  0  0  0  0  0  0  0  0  0  0
   43.2723    0.5840   11.5358 H   0  0  0  0  0  0  0  0  0  0  0  0
   43.8544    5.4159    9.7918 H   0  0  0  0  0  0  0  0  0  0  0  0
   44.8306    4.2181   13.3370 H   0  0  0  0  0  0  0  0  0  0  0  0
   43.1696    3.1928   11.5822 H   0  0  0  0  0  0  0  0  0  0  0  0
   43.8133    3.0728    9.9501 H   0  0  0  0  0  0  0  0  0  0  0  0
   45.5885    2.7293   11.6886 H   0  0  0  0  0  0  0  0  0  0  0  0
   45.9565    4.0841   10.6278 H   0  0  0  0  0  0  0  0  0  0  0  0
   43.0953    6.9049   11.4400 H   0  0  0  0  0  0  0  0  0  0  0  0
   42.7279    5.5489   12.4995 H   0  0  0  0  0  0  0  0  0  0  0  0
   45.5147    6.4423   11.5472 H   0  0  0  0  0  0  0  0  0  0  0  0
   44.8704    6.5592   13.1806 H   0  0  0  0  0  0  0  0  0  0  0  0
   46.1113    5.5244   11.4016 H   0  0  0  0  0  0  0  0  0  0  0  0
   44.7576    5.9798   10.3230 H   0  0  0  0  0  0  0  0  0  0  0  0
   44.1319    2.3572   11.6594 H   0  0  0  0  0  0  0  0  0  0  0  0
   45.7865    2.9587   11.5795 H   0  0  0  0  0  0  0  0  0  0  0  0
   42.4609    5.1952   12.1836 H   0  0  0  0  0  0  0  0  0  0  0  0
   43.5128    4.3055   14.9934 H   0  0  0  0  0  0  0  0  0  0  0  0
   45.4224    8.6367   12.5979 H   0  0  0  0  0  0  0  0  0  0  0  0
   44.1677    2.0872    8.3350 H   0  0  0  0  0  0  0  0  0  0  0  0
   46.1772    4.6024   11.2979 H   0  0  0  0  0  0  0  0  0  0  0  0
   42.9533    4.5972    9.7169 H   0  0  0  0  0  0  0  0  0  0  0  0
   44.6302    6.4517   12.9447 H   0  0  0  0  0  0  0  0  0  0  0  0
   45.7196    6.8330   11.6176 H   0  0  0  0  0  0  0  0  0  0  0  0
   43.9284    6.7388   10.2164 H   0  0  0  0  0  0  0  0  0  0  0  0
   42.8877    6.1319   11.5026 H   0  0  0  0  0  0  0  0  0  0  0  0
   45.3263    2.8086   12.5967 H   0  0  0  0  0  0  0  0  0  0  0  0
   44.2521    3.9498   13.3940 H   0  0  0  0  0  0  0  0  0  0  0  0
   42.7449    3.4941   11.7322 H   0  0  0  0  0  0  0  0  0  0  0  0
   43.9526    2.6283   10.7840 H   0  0  0  0  0  0  0  0  0  0  0  0
  2  6  1  0
  3  1  1  0
  4  3  1  0
  5  1  1  0
  6  5  1  0
  2  4  1  0
  8  7  1  0
  9  7  1  0
 10  7  1  0
 11  9  1  0
 12  8  1  0
 13 10  2  0
 14 12  2  0
 15 11  2  0
 16  7  1  0
 17 10  1  0
 18 12  1  0
 19 11  1  0
 21 25  1  0
 22 20  1  0
 23 22  1  0
 24 20  1  0
 25 24  1  0
 21 23  1  0
 27 26  1  0
 28 26  1  0
 29 26  1  0
 30 28  1  0
 31 27  1  0
 32 29  2  0
 33 31  2  0
 34 30  2  0
 35 26  1  0
 36 29  1  0
 37 31  1  0
 38 30  1  0
 40 44  1  0
 41 39  1  0
 42 41  1  0
 43 39  1  0
 44 43  1  0
 40 42  1  0
  1 45  1  0
  2 46  1  0
  3 47  1  0
  3 48  1  0
  4 49  1  0
  4 50  1  0
  5 51  1  0
  5 52  1  0
  6 53  1  0
  6 54  1  0
  8 55  1  0
  8 56  1  0
  9 57  1  0
  9 58  1  0
 16 59  1  0
 17 60  1  0
 18 61  1  0
 19 62  1  0
 20 63  1  0
 21 64  1  0
 22 65  1  0
 22 66  1  0
 23 67  1  0
 23 68  1  0
 24 69  1  0
 24 70  1  0
 25 71  1  0
 25 72  1  0
 27 73  1  0
 27 74  1  0
 28 75  1  0
 28 76  1  0
 35 77  1  0
 36 78  1  0
 37 79  1  0
 38 80  1  0
 39 81  1  0
 40 82  1  0
 41 83  1  0
 41 84  1  0
 42 85  1  0
 42 86  1  0
 43 87  1  0
 43 88  1  0
 44 89  1  0
 44 90  1  0
M  END
> <Uni-Dock RESULT> 
ENERGY=   -7.215  LOWER_BOUND=    0.906  UPPER_BOUND=    3.698
INTER + INTRA:          -7.215
INTER:                  -7.215
INTRA:                   0.000
UNBOUND:                 0.000

$$$$

     RDKit          3D

 90 88  0  0  0  0  0  0  0  0999 V2000
   52.5310    6.8123    7.4974 N   0  0  0  0  0  0  0  0  0  0  0  0
   54.7845    8.2625    8.9378 N   0  0  0  0  0  0  0  0  0  0  0  0
   52.9873    8.1695    7.1549 C   0  0  0  0  0  0  0  0  0  0  0  0
   54.4630    8.4401    7.5118 C   0  0  0  0  0  0  0  0  0  0  0  0
   53.2278    6.2886    8.6850 C   0  0  0  0  0  0  0  0  0  0  0  0
   53.8188    7.3758    9.6058 C   0  0  0  0  0  0  0  0  0  0  0  0
   53.6782    7.6886    8.3518 C   0  0  0  0  0  0  0  0  0  0  0  0
   54.3666    8.7137    7.4352 C   0  0  0  0  0  0  0  0  0  0  0  0
   54.6987    7.1485    9.3615 C   0  0  0  0  0  0  0  0  0  0  0  0
   53.0734    6.5688    7.4856 C   0  0  0  0  0  0  0  0  0  0  0  0
   54.1302    6.0729   10.2460 C   0  0  0  0  0  0  0  0  0  0  0  0
   53.5381    9.0565    6.2287 C   0  0  0  0  0  0  0  0  0  0  0  0
   51.8924    6.4481    7.1977 O   0  0  0  0  0  0  0  0  0  0  0  0
   53.8891    8.9564    5.0663 O   0  0  0  0  0  0  0  0  0  0  0  0
   53.2791    5.2485    9.9627 O   0  0  0  0  0  0  0  0  0  0  0  0
   52.6708    8.3816    9.1039 O   0  0  0  0  0  0  0  0  0  0  0  0
   53.9968    5.7380    6.9643 O   0  0  0  0  0  0  0  0  0  0  0  0
   52.3187    9.5312    6.5444 O   0  0  0  0  0  0  0  0  0  0  0  0
   54.7310    6.0404   11.4526 O   0  0  0  0  0  0  0  0  0  0  0  0
   54.5260    8.5845    8.7832 N   0  0  0  0  0  0  0  0  0  0  0  0
   52.8645    6.4212    7.6043 N   0  0  0  0  0  0  0  0  0  0  0  0
   53.9233    7.5201    9.6042 C   0  0  0  0  0  0  0  0  0  0  0  0
   52.6478    6.9217    8.9732 C   0  0  0  0  0  0  0  0  0  0  0  0
   54.7430    8.0844    7.4145 C   0  0  0  0  0  0  0  0  0  0  0  0
   53.4678    7.4856    6.7832 C   0  0  0  0  0  0  0  0  0  0  0  0
   53.8105    7.1025    8.3201 C   0  0  0  0  0  0  0  0  0  0  0  0
   53.0745    8.0995    7.4136 C   0  0  0  0  0  0  0  0  0  0  0  0
   53.0567    6.7844    9.6188 C   0  0  0  0  0  0  0  0  0  0  0  0
   53.9466    5.7532    7.5877 C   0  0  0  0  0  0  0  0  0  0  0  0
   52.7736    7.9933   10.4623 C   0  0  0  0  0  0  0  0  0  0  0  0
   53.6494    8.1349    6.0243 C   0  0  0  0  0  0  0  0  0  0  0  0
   53.0359    5.1027    7.1015 O   0  0  0  0  0  0  0  0  0  0  0  0
   54.7695    7.7875    5.6882 O   0  0  0  0  0  0  0  0  0  0  0  0
   52.2371    9.0276   10.1017 O   0  0  0  0  0  0  0  0  0  0  0  0
   55.0881    7.6431    8.6824 O   0  0  0  0  0  0  0  0  0  0  0  0
   55.2240    5.3256    7.5014 O   0  0  0  0  0  0  0  0  0  0  0  0
   52.7866    8.6454    5.1262 O   0  0  0  0  0  0  0  0  0  0  0  0
   53.1177    7.8208   11.7538 O   0  0  0  0  0  0  0  0  0  0  0  0
   52.4646    6.8149    7.5630 N   0  0  0  0  0  0  0  0  0  0  0  0
   53.9551    8.5147    9.1071 N   0  0  0  0  0  0  0  0  0  0  0  0
   53.2731    7.7798    6.7907 C   0  0  0  0  0  0  0  0  0  0  0  0
   54.1852    8.6781    7.6642 C   0  0  0  0  0  0  0  0  0  0  0  0
   53.3475    6.1249    8.5216 C   0  0  0  0  0  0  0  0  0  0  0  0
   54.0815    7.0963    9.4804 C   0  0  0  0  0  0  0  0  0  0  0  0
   52.7088    6.1842    6.7147 H   0  0  0  0  0  0  0  0  0  0  0  0
   55.7213    7.8676    9.0122 H   0  0  0  0  0  0  0  0  0  0  0  0
   52.8319    8.3345    6.0823 H   0  0  0  0  0  0  0  0  0  0  0  0
   52.3476    8.8937    7.6749 H   0  0  0  0  0  0  0  0  0  0  0  0
   54.7310    9.4609    7.2190 H   0  0  0  0  0  0  0  0  0  0  0  0
   55.0959    7.7651    6.9218 H   0  0  0  0  0  0  0  0  0  0  0  0
   54.0404    5.6289    8.3539 H   0  0  0  0  0  0  0  0  0  0  0  0
   52.5264    5.6681    9.2532 H   0  0  0  0  0  0  0  0  0  0  0  0
   53.0053    7.9898   10.0126 H   0  0  0  0  0  0  0  0  0  0  0  0
   54.3086    6.9035   10.4652 H   0  0  0  0  0  0  0  0  0  0  0  0
   54.5862    9.6468    7.9663 H   0  0  0  0  0  0  0  0  0  0  0  0
   55.3167    8.3139    7.0602 H   0  0  0  0  0  0  0  0  0  0  0  0
   55.0320    7.9703   10.0069 H   0  0  0  0  0  0  0  0  0  0  0  0
   55.5777    6.7263    8.8625 H   0  0  0  0  0  0  0  0  0  0  0  0
   51.9635    8.6214    8.4684 H   0  0  0  0  0  0  0  0  0  0  0  0
   53.4672    5.0789    6.4658 H   0  0  0  0  0  0  0  0  0  0  0  0
   51.8922    9.7072    5.6772 H   0  0  0  0  0  0  0  0  0  0  0  0
   54.2782    5.3097   11.9240 H   0  0  0  0  0  0  0  0  0  0  0  0
   53.8565    9.3534    8.7307 H   0  0  0  0  0  0  0  0  0  0  0  0
   53.5342    5.6522    7.6569 H   0  0  0  0  0  0  0  0  0  0  0  0
   54.6655    6.7288    9.7666 H   0  0  0  0  0  0  0  0  0  0  0  0
   53.6806    7.9301   10.5907 H   0  0  0  0  0  0  0  0  0  0  0  0
   52.2892    6.0951    9.5965 H   0  0  0  0  0  0  0  0  0  0  0  0
   51.8505    7.6757    8.9595 H   0  0  0  0  0  0  0  0  0  0  0  0
   55.1026    8.9110    6.7913 H   0  0  0  0  0  0  0  0  0  0  0  0
   55.5403    7.3308    7.4299 H   0  0  0  0  0  0  0  0  0  0  0  0
   52.7261    8.2772    6.6200 H   0  0  0  0  0  0  0  0  0  0  0  0
   53.7115    7.0731    5.7977 H   0  0  0  0  0  0  0  0  0  0  0  0
   52.0180    7.8174    7.3318 H   0  0  0  0  0  0  0  0  0  0  0  0
   53.1521    9.1202    7.8005 H   0  0  0  0  0  0  0  0  0  0  0  0
   53.6582    6.0873   10.2183 H   0  0  0  0  0  0  0  0  0  0  0  0
   52.0981    6.2885    9.4237 H   0  0  0  0  0  0  0  0  0  0  0  0
   55.6949    7.4271    7.9428 H   0  0  0  0  0  0  0  0  0  0  0  0
   55.1755    4.4935    6.9853 H   0  0  0  0  0  0  0  0  0  0  0  0
   53.2726    8.6381    4.2750 H   0  0  0  0  0  0  0  0  0  0  0  0
   52.8883    8.6726   12.1803 H   0  0  0  0  0  0  0  0  0  0  0  0
   51.8338    7.3842    8.1341 H   0  0  0  0  0  0  0  0  0  0  0  0
   54.6287    9.0694    9.6312 H   0  0  0  0  0  0  0  0  0  0  0  0
   53.8832    7.2367    6.0597 H   0  0  0  0  0  0  0  0  0  0  0  0
   52.5836    8.4111    6.2183 H   0  0  0  0  0  0  0  0  0  0  0  0
   54.0157    9.7276    7.4001 H   0  0  0  0  0  0  0  0  0  0  0  0
   55.2353    8.4561    7.4393 H   0  0  0  0  0  0  0  0  0  0  0  0
   52.7453    5.4222    9.1078 H   0  0  0  0  0  0  0  0  0  0  0  0
   54.0797    5.5259    7.9673 H   0  0  0  0  0  0  0  0  0  0  0  0
   55.1420    6.8228    9.5263 H   0  0  0  0  0  0  0  0  0  0  0  0
   53.6752    6.9802   10.4911 H   0  0  0  0  0  0  0  0  0  0  0  0
  2  6  1  0
  3  1  1  0
  4  3  1  0
  5  1  1  0
  6  5  1  0
  2  4  1  0
  8  7  1  0
  9  7  1  0
 10  7  1  0
 11  9  1  0
 12  8  1  0
 13 10  2  0
 14 12  2  0
 15 11  2  0
 16  7  1  0
 17 10  1  0
 18 12  1  0
 19 11  1  0
 21 25  1  0
 22 20  1  0
 23 22  1  0
 24 20  1  0
 25 24  1  0
 21 23  1  0
 27 26  1  0
 28 26  1  0
 29 26  1  0
 30 28  1  0
 31 27  1  0
 32 29  2  0
 33 31  2  0
 34 30  2  0
 35 26  1  0
 36 29  1  0
 37 31  1  0
 38 30  1  0
 40 44  1  0
 41 39  1  0
 42 41  1  0
 43 39  1  0
 44 43  1  0
 40 42  1  0
  1 45  1  0
  2 46  1  0
  3 47  1  0
  3 48  1  0
  4 49  1  0
  4 50  1  0
  5 51  1  0
  5 52  1  0
  6 53  1  0
  6 54  1  0
  8 55  1  0
  8 56  1  0
  9 57  1  0
  9 58  1  0
 16 59  1  0
 17 60  1  0
 18 61  1  0
 19 62  1  0
 20 63  1  0
 21 64  1  0
 22 65  1  0
 22 66  1  0
 23 67  1  0
 23 68  1  0
 24 69  1  0
 24 70  1  0
 25 71  1  0
 25 72  1  0
 27 73  1  0
 27 74  1  0
 28 75  1  0
 28 76  1  0
 35 77  1  0
 36 78  1  0
 37 79  1  0
 38 80  1  0
 39 81  1  0
 40 82  1  0
 41 83  1  0
 41 84  1  0
 42 85  1  0
 42 86  1  0
 43 87  1  0
 43 88  1  0
 44 89  1  0
 44 90  1  0
M  END
> <Uni-Dock RESULT> 
ENERGY=   -7.008  LOWER_BOUND=    8.939  UPPER_BOUND=   10.537
INTER + INTRA:          -7.008
INTER:                  -7.008
INTRA:                   0.000
UNBOUND:                 0.000

$$$$

     RDKit          3D

 90 88  0  0  0  0  0  0  0  0999 V2000
   47.0468    5.6332   18.5862 N   0  0  0  0  0  0  0  0  0  0  0  0
   49.9295    5.5532   17.6169 N   0  0  0  0  0  0  0  0  0  0  0  0
   47.5358    4.7283   17.5328 C   0  0  0  0  0  0  0  0  0  0  0  0
   49.0344    4.3844   17.6521 C   0  0  0  0  0  0  0  0  0  0  0  0
   48.0985    6.5616   19.0359 C   0  0  0  0  0  0  0  0  0  0  0  0
   49.2290    6.7856   18.0109 C   0  0  0  0  0  0  0  0  0  0  0  0
   48.5943    5.6533   17.9391 C   0  0  0  0  0  0  0  0  0  0  0  0
   48.9652    4.2678   17.3844 C   0  0  0  0  0  0  0  0  0  0  0  0
   49.8448    6.3085   18.5390 C   0  0  0  0  0  0  0  0  0  0  0  0
   47.4706    5.4923   18.9788 C   0  0  0  0  0  0  0  0  0  0  0  0
   49.5548    7.6363   19.1834 C   0  0  0  0  0  0  0  0  0  0  0  0
   47.7573    3.4314   17.0671 C   0  0  0  0  0  0  0  0  0  0  0  0
   46.2876    5.7349   18.7947 O   0  0  0  0  0  0  0  0  0  0  0  0
   47.5181    2.3213   17.5087 O   0  0  0  0  0  0  0  0  0  0  0  0
   48.5341    7.9806   19.7525 O   0  0  0  0  0  0  0  0  0  0  0  0
   48.1823    6.4710   16.8334 O   0  0  0  0  0  0  0  0  0  0  0  0
   47.8891    4.9508   20.1392 O   0  0  0  0  0  0  0  0  0  0  0  0
   46.9226    4.0219   16.1916 O   0  0  0  0  0  0  0  0  0  0  0  0
   50.6204    8.4613   19.1433 O   0  0  0  0  0  0  0  0  0  0  0  0
   49.6923    5.4157   17.2716 N   0  0  0  0  0  0  0  0  0  0  0  0
   47.3153    5.7225   19.0284 N   0  0  0  0  0  0  0  0  0  0  0  0
   49.3457    6.6981   17.9085 C   0  0  0  0  0  0  0  0  0  0  0  0
   47.8380    6.8322   18.2118 C   0  0  0  0  0  0  0  0  0  0  0  0
   49.1700    4.3060   18.0878 C   0  0  0  0  0  0  0  0  0  0  0  0
   47.6625    4.4398   18.3916 C   0  0  0  0  0  0  0  0  0  0  0  0
   48.5890    5.7621   18.5309 C   0  0  0  0  0  0  0  0  0  0  0  0
   47.7166    4.9413   17.5703 C   0  0  0  0  0  0  0  0  0  0  0  0
   48.4628    7.2783   18.3283 C   0  0  0  0  0  0  0  0  0  0  0  0
   48.1308    5.5054   19.9799 C   0  0  0  0  0  0  0  0  0  0  0  0
   48.8176    7.7324   16.9424 C   0  0  0  0  0  0  0  0  0  0  0  0
   47.5944    3.5054   18.0006 C   0  0  0  0  0  0  0  0  0  0  0  0
   46.9977    5.6414   20.4115 O   0  0  0  0  0  0  0  0  0  0  0  0
   48.3563    2.8947   18.7320 O   0  0  0  0  0  0  0  0  0  0  0  0
   48.3736    7.2961   15.8934 O   0  0  0  0  0  0  0  0  0  0  0  0
   49.9662    5.4128   18.3380 O   0  0  0  0  0  0  0  0  0  0  0  0
   49.1287    5.0764   20.7813 O   0  0  0  0  0  0  0  0  0  0  0  0
   46.5268    2.8958   17.4527 O   0  0  0  0  0  0  0  0  0  0  0  0
   49.6724    8.7741   16.9373 O   0  0  0  0  0  0  0  0  0  0  0  0
   47.0191    5.7148   18.5500 N   0  0  0  0  0  0  0  0  0  0  0  0
   49.3284    5.9380   17.0966 N   0  0  0  0  0  0  0  0  0  0  0  0
   47.5493    4.4273   18.0576 C   0  0  0  0  0  0  0  0  0  0  0  0
   48.9044    4.5472   17.3151 C   0  0  0  0  0  0  0  0  0  0  0  0
   48.0990    6.4262   19.2584 C   0  0  0  0  0  0  0  0  0  0  0  0
   49.3507    6.6653   18.3763 C   0  0  0  0  0  0  0  0  0  0  0  0
   46.7330    5.0870   19.3874 H   0  0  0  0  0  0  0  0  0  0  0  0
   50.7090    5.3837   18.2515 H   0  0  0  0  0  0  0  0  0  0  0  0
   46.9437    3.8061   17.5562 H   0  0  0  0  0  0  0  0  0  0  0  0
   47.3449    5.1937   16.5576 H   0  0  0  0  0  0  0  0  0  0  0  0
   49.3206    3.7023   16.8445 H   0  0  0  0  0  0  0  0  0  0  0  0
   49.1966    3.8454   18.5942 H   0  0  0  0  0  0  0  0  0  0  0  0
   48.5377    6.1729   19.9640 H   0  0  0  0  0  0  0  0  0  0  0  0
   47.6316    7.5212   19.2830 H   0  0  0  0  0  0  0  0  0  0  0  0
   48.8151    7.2548   17.1093 H   0  0  0  0  0  0  0  0  0  0  0  0
   49.9606    7.4928   18.4189 H   0  0  0  0  0  0  0  0  0  0  0  0
   49.5671    4.3461   16.4719 H   0  0  0  0  0  0  0  0  0  0  0  0
   49.5516    3.7055   18.1214 H   0  0  0  0  0  0  0  0  0  0  0  0
   50.5774    6.4777   17.7404 H   0  0  0  0  0  0  0  0  0  0  0  0
   50.3088    5.6731   19.3011 H   0  0  0  0  0  0  0  0  0  0  0  0
   47.3203    6.1155   16.5294 H   0  0  0  0  0  0  0  0  0  0  0  0
   47.0813    4.9325   20.6964 H   0  0  0  0  0  0  0  0  0  0  0  0
   46.1890    3.3782   16.0801 H   0  0  0  0  0  0  0  0  0  0  0  0
   50.3065    9.2768   19.5881 H   0  0  0  0  0  0  0  0  0  0  0  0
   49.2238    5.3822   16.3651 H   0  0  0  0  0  0  0  0  0  0  0  0
   47.7840    5.7560   19.9349 H   0  0  0  0  0  0  0  0  0  0  0  0
   49.9234    6.8061   18.8349 H   0  0  0  0  0  0  0  0  0  0  0  0
   49.6558    7.5154   17.2482 H   0  0  0  0  0  0  0  0  0  0  0  0
   47.6578    7.7736   18.7425 H   0  0  0  0  0  0  0  0  0  0  0  0
   47.2728    6.8861   17.2726 H   0  0  0  0  0  0  0  0  0  0  0  0
   49.3512    3.3643   17.5574 H   0  0  0  0  0  0  0  0  0  0  0  0
   49.7361    4.2535   19.0263 H   0  0  0  0  0  0  0  0  0  0  0  0
   47.0849    4.3308   17.4654 H   0  0  0  0  0  0  0  0  0  0  0  0
   47.3532    3.6238   19.0544 H   0  0  0  0  0  0  0  0  0  0  0  0
   46.7064    5.3663   17.5309 H   0  0  0  0  0  0  0  0  0  0  0  0
   48.1450    4.9212   16.5635 H   0  0  0  0  0  0  0  0  0  0  0  0
   49.1330    7.7890   19.0334 H   0  0  0  0  0  0  0  0  0  0  0  0
   47.4478    7.6356   18.5410 H   0  0  0  0  0  0  0  0  0  0  0  0
   50.1210    4.6077   18.8764 H   0  0  0  0  0  0  0  0  0  0  0  0
   48.7013    4.9132   21.6483 H   0  0  0  0  0  0  0  0  0  0  0  0
   46.5635    1.9740   17.7838 H   0  0  0  0  0  0  0  0  0  0  0  0
   49.8202    8.9602   15.9867 H   0  0  0  0  0  0  0  0  0  0  0  0
   46.8310    6.2703   17.7109 H   0  0  0  0  0  0  0  0  0  0  0  0
   50.2545    5.9564   16.6746 H   0  0  0  0  0  0  0  0  0  0  0  0
   47.6516    3.7328   18.8994 H   0  0  0  0  0  0  0  0  0  0  0  0
   46.8026    3.9948   17.3816 H   0  0  0  0  0  0  0  0  0  0  0  0
   48.8271    4.0489   16.3426 H   0  0  0  0  0  0  0  0  0  0  0  0
   49.6783    4.0199   17.8855 H   0  0  0  0  0  0  0  0  0  0  0  0
   47.7121    7.3895   19.6081 H   0  0  0  0  0  0  0  0  0  0  0  0
   48.3779    5.8558   20.1523 H   0  0  0  0  0  0  0  0  0  0  0  0
   50.2472    6.3848   18.9413 H   0  0  0  0  0  0  0  0  0  0  0  0
   49.4336    7.7341   18.1510 H   0  0  0  0  0  0  0  0  0  0  0  0
  2  6  1  0
  3  1  1  0
  4  3  1  0
  5  1  1  0
  6  5  1  0
  2  4  1  0
  8  7  1  0
  9  7  1  0
 10  7  1  0
 11  9  1  0
 12  8  1  0
 13 10  2  0
 14 12  2  0
 15 11  2  0
 16  7  1  0
 17 10  1  0
 18 12  1  0
 19 11  1  0
 21 25  1  0
 22 20  1  0
 23 22  1  0
 24 20  1  0
 25 24  1  0
 21 23  1  0
 27 26  1  0
 28 26  1  0
 29 26  1  0
 30 28  1  0
 31 27  1  0
 32 29  2  0
 33 31  2  0
 34 30  2  0
 35 26  1  0
 36 29  1  0
 37 31  1  0
 38 30  1  0
 40 44  1  0
 41 39  1  0
 42 41  1  0
 43 39  1  0
 44 43  1  0
 40 42  1  0
  1 45  1  0
  2 46  1  0
  3 47  1  0
  3 48  1  0
  4 49  1  0
  4 50  1  0
  5 51  1  0
  5 52  1  0
  6 53  1  0
  6 54  1  0
  8 55  1  0
  8 56  1  0
  9 57  1  0
  9 58  1  0
 16 59  1  0
 17 60  1  0
 18 61  1  0
 19 62  1  0
 20 63  1  0
 21 64  1  0
 22 65  1  0
 22 66  1  0
 23 67  1  0
 23 68  1  0
 24 69  1  0
 24 70  1  0
 25 71  1  0
 25 72  1  0
 27 73  1  0
 27 74  1  0
 28 75  1  0
 28 76  1  0
 35 77  1  0
 36 78  1  0
 37 79  1  0
 38 80  1  0
 39 81  1  0
 40 82  1  0
 41 83  1  0
 41 84  1  0
 42 85  1  0
 42 86  1  0
 43 87  1  0
 43 88  1  0
 44 89  1  0
 44 90  1  0
M  END
> <Uni-Dock RESULT> 
ENERGY=   -6.522  LOWER_BOUND=    6.394  UPPER_BOUND=    7.702
INTER + INTRA:          -6.522
INTER:                  -6.522
INTRA:                   0.000
UNBOUND:                 0.000

$$$$

     RDKit          3D

 90 88  0  0  0  0  0  0  0  0999 V2000
   49.7967    4.7907   17.6686 N   0  0  0  0  0  0  0  0  0  0  0  0
   46.8311    4.8915   18.3401 N   0  0  0  0  0  0  0  0  0  0  0  0
   48.9260    3.6051   17.7289 C   0  0  0  0  0  0  0  0  0  0  0  0
   47.4424    3.9050   17.4336 C   0  0  0  0  0  0  0  0  0  0  0  0
   49.0798    6.0122   18.0739 C   0  0  0  0  0  0  0  0  0  0  0  0
   47.8443    5.7586   18.9617 C   0  0  0  0  0  0  0  0  0  0  0  0
   48.1933    4.7955   18.1613 C   0  0  0  0  0  0  0  0  0  0  0  0
   47.4306    3.6202   17.5274 C   0  0  0  0  0  0  0  0  0  0  0  0
   47.2571    6.0057   18.2691 C   0  0  0  0  0  0  0  0  0  0  0  0
   49.4388    5.1019   17.3100 C   0  0  0  0  0  0  0  0  0  0  0  0
   47.9477    7.2311   18.8018 C   0  0  0  0  0  0  0  0  0  0  0  0
   48.3429    2.5062   17.0961 C   0  0  0  0  0  0  0  0  0  0  0  0
   50.5859    4.7828   17.5827 O   0  0  0  0  0  0  0  0  0  0  0  0
   48.4198    2.0364   15.9745 O   0  0  0  0  0  0  0  0  0  0  0  0
   49.1104    7.5586   18.6436 O   0  0  0  0  0  0  0  0  0  0  0  0
   48.5449    4.4170   19.5007 O   0  0  0  0  0  0  0  0  0  0  0  0
   49.1512    5.6984   16.1369 O   0  0  0  0  0  0  0  0  0  0  0  0
   49.0953    2.0219   18.1017 O   0  0  0  0  0  0  0  0  0  0  0  0
   47.0984    8.0430   19.4631 O   0  0  0  0  0  0  0  0  0  0  0  0
   46.9601    4.4894   18.4667 N   0  0  0  0  0  0  0  0  0  0  0  0
   49.6466    5.2397   17.4417 N   0  0  0  0  0  0  0  0  0  0  0  0
   47.6936    5.6638   18.9697 C   0  0  0  0  0  0  0  0  0  0  0  0
   49.2243    5.5259   18.8242 C   0  0  0  0  0  0  0  0  0  0  0  0
   47.3819    4.2030   17.0845 C   0  0  0  0  0  0  0  0  0  0  0  0
   48.9125    4.0654   16.9385 C   0  0  0  0  0  0  0  0  0  0  0  0
   48.3387    5.2833   17.8404 C   0  0  0  0  0  0  0  0  0  0  0  0
   48.8065    3.8211   17.8648 C   0  0  0  0  0  0  0  0  0  0  0  0
   48.7459    6.0771   19.0895 C   0  0  0  0  0  0  0  0  0  0  0  0
   49.0080    6.0122   16.6588 C   0  0  0  0  0  0  0  0  0  0  0  0
   48.2305    5.4896   20.3709 C   0  0  0  0  0  0  0  0  0  0  0  0
   48.6991    3.1681   16.5142 C   0  0  0  0  0  0  0  0  0  0  0  0
   50.2062    6.0756   16.4375 O   0  0  0  0  0  0  0  0  0  0  0  0
   47.9835    3.5161   15.5895 O   0  0  0  0  0  0  0  0  0  0  0  0
   48.3539    4.3365   20.7489 O   0  0  0  0  0  0  0  0  0  0  0  0
   46.9083    5.3232   17.7495 O   0  0  0  0  0  0  0  0  0  0  0  0
   48.1197    6.5951   15.8263 O   0  0  0  0  0  0  0  0  0  0  0  0
   49.4805    2.0772   16.4095 O   0  0  0  0  0  0  0  0  0  0  0  0
   47.6364    6.4042   21.1625 O   0  0  0  0  0  0  0  0  0  0  0  0
   49.8337    4.8094   17.7523 N   0  0  0  0  0  0  0  0  0  0  0  0
   47.3860    4.5949   18.9599 N   0  0  0  0  0  0  0  0  0  0  0  0
   48.9520    3.7876   17.1525 C   0  0  0  0  0  0  0  0  0  0  0  0
   47.5352    3.7328   17.7783 C   0  0  0  0  0  0  0  0  0  0  0  0
   49.0941    6.0830   17.8237 C   0  0  0  0  0  0  0  0  0  0  0  0
   47.7742    5.9758   18.6289 C   0  0  0  0  0  0  0  0  0  0  0  0
   50.1376    4.9164   16.7163 H   0  0  0  0  0  0  0  0  0  0  0  0
   46.1746    5.4594   17.8058 H   0  0  0  0  0  0  0  0  0  0  0  0
   49.2983    2.8567   17.0196 H   0  0  0  0  0  0  0  0  0  0  0  0
   49.0161    3.1571   18.7265 H   0  0  0  0  0  0  0  0  0  0  0  0
   46.8622    2.9776   17.4862 H   0  0  0  0  0  0  0  0  0  0  0  0
   47.3574    4.2737   16.4036 H   0  0  0  0  0  0  0  0  0  0  0  0
   48.7595    6.5482   17.1709 H   0  0  0  0  0  0  0  0  0  0  0  0
   49.7817    6.6679   18.6004 H   0  0  0  0  0  0  0  0  0  0  0  0
   48.1630    5.3005   19.9066 H   0  0  0  0  0  0  0  0  0  0  0  0
   47.3776    6.7151   19.2244 H   0  0  0  0  0  0  0  0  0  0  0  0
   46.6915    3.1988   18.2183 H   0  0  0  0  0  0  0  0  0  0  0  0
   46.8944    3.9521   16.6299 H   0  0  0  0  0  0  0  0  0  0  0  0
   46.4350    5.7617   18.9530 H   0  0  0  0  0  0  0  0  0  0  0  0
   46.8271    6.2729   17.2977 H   0  0  0  0  0  0  0  0  0  0  0  0
   49.2325    3.7222   19.4230 H   0  0  0  0  0  0  0  0  0  0  0  0
   50.0299    5.8465   15.7253 H   0  0  0  0  0  0  0  0  0  0  0  0
   49.6362    1.3157   17.6850 H   0  0  0  0  0  0  0  0  0  0  0  0
   47.6620    8.7908   19.7536 H   0  0  0  0  0  0  0  0  0  0  0  0
   47.2218    3.6889   19.0438 H   0  0  0  0  0  0  0  0  0  0  0  0
   49.3847    6.0403   16.8647 H   0  0  0  0  0  0  0  0  0  0  0  0
   47.3475    6.5580   18.4367 H   0  0  0  0  0  0  0  0  0  0  0  0
   47.4425    5.8110   20.0258 H   0  0  0  0  0  0  0  0  0  0  0  0
   49.7042    6.4545   19.1526 H   0  0  0  0  0  0  0  0  0  0  0  0
   49.5908    4.7303   19.4852 H   0  0  0  0  0  0  0  0  0  0  0  0
   46.9011    3.2747   16.7557 H   0  0  0  0  0  0  0  0  0  0  0  0
   47.0148    4.9993   16.4250 H   0  0  0  0  0  0  0  0  0  0  0  0
   49.2584    3.1706   17.4706 H   0  0  0  0  0  0  0  0  0  0  0  0
   49.1635    3.9209   15.8817 H   0  0  0  0  0  0  0  0  0  0  0  0
   49.8562    3.7720   18.1781 H   0  0  0  0  0  0  0  0  0  0  0  0
   48.1935    3.2192   18.5427 H   0  0  0  0  0  0  0  0  0  0  0  0
   48.3543    7.1001   19.0049 H   0  0  0  0  0  0  0  0  0  0  0  0
   49.8355    6.1619   19.1822 H   0  0  0  0  0  0  0  0  0  0  0  0
   46.6933    5.2327   16.7969 H   0  0  0  0  0  0  0  0  0  0  0  0
   48.6646    6.9805   15.1082 H   0  0  0  0  0  0  0  0  0  0  0  0
   49.3123    1.7303   15.5083 H   0  0  0  0  0  0  0  0  0  0  0  0
   47.3472    5.8929   21.9468 H   0  0  0  0  0  0  0  0  0  0  0  0
   49.9673    4.5167   18.7243 H   0  0  0  0  0  0  0  0  0  0  0  0
   46.4209    4.5773   19.2830 H   0  0  0  0  0  0  0  0  0  0  0  0
   48.8710    3.9679   16.0743 H   0  0  0  0  0  0  0  0  0  0  0  0
   49.4394    2.8131   17.2730 H   0  0  0  0  0  0  0  0  0  0  0  0
   47.3096    2.7008   18.0682 H   0  0  0  0  0  0  0  0  0  0  0  0
   46.7942    4.0237   17.0242 H   0  0  0  0  0  0  0  0  0  0  0  0
   49.7407    6.8371   18.2855 H   0  0  0  0  0  0  0  0  0  0  0  0
   48.8813    6.4314   16.8061 H   0  0  0  0  0  0  0  0  0  0  0  0
   46.9681    6.4572   18.0631 H   0  0  0  0  0  0  0  0  0  0  0  0
   47.8806    6.5268   19.5697 H   0  0  0  0  0  0  0  0  0  0  0  0
  2  6  1  0
  3  1  1  0
  4  3  1  0
  5  1  1  0
  6  5  1  0
  2  4  1  0
  8  7  1  0
  9  7  1  0
 10  7  1  0
 11  9  1  0
 12  8  1  0
 13 10  2  0
 14 12  2  0
 15 11  2  0
 16  7  1  0
 17 10  1  0
 18 12  1  0
 19 11  1  0
 21 25  1  0
 22 20  1  0
 23 22  1  0
 24 20  1  0
 25 24  1  0
 21 23  1  0
 27 26  1  0
 28 26  1  0
 29 26  1  0
 30 28  1  0
 31 27  1  0
 32 29  2  0
 33 31  2  0
 34 30  2  0
 35 26  1  0
 36 29  1  0
 37 31  1  0
 38 30  1  0
 40 44  1  0
 41 39  1  0
 42 41  1  0
 43 39  1  0
 44 43  1  0
 40 42  1  0
  1 45  1  0
  2 46  1  0
  3 47  1  0
  3 48  1  0
  4 49  1  0
  4 50  1  0
  5 51  1  0
  5 52  1  0
  6 53  1  0
  6 54  1  0
  8 55  1  0
  8 56  1  0
  9 57  1  0
  9 58  1  0
 16 59  1  0
 17 60  1  0
 18 61  1  0
 19 62  1  0
 20 63  1  0
 21 64  1  0
 22 65  1  0
 22 66  1  0
 23 67  1  0
 23 68  1  0
 24 69  1  0
 24 70  1  0
 25 71  1  0
 25 72  1  0
 27 73  1  0
 27 74  1  0
 28 75  1  0
 28 76  1  0
 35 77  1  0
 36 78  1  0
 37 79  1  0
 38 80  1  0
 39 81  1  0
 40 82  1  0
 41 83  1  0
 41 84  1  0
 42 85  1  0
 42 86  1  0
 43 87  1  0
 43 88  1  0
 44 89  1  0
 44 90  1  0
M  END
> <Uni-Dock RESULT> 
ENERGY=   -6.511  LOWER_BOUND=    6.299  UPPER_BOUND=    7.764
INTER + INTRA:          -6.511
INTER:                  -6.511
INTRA:                   0.000
UNBOUND:                 0.000

$$$$

     RDKit          3D

 90 88  0  0  0  0  0  0  0  0999 V2000
   48.8796    4.1793   19.7671 N   0  0  0  0  0  0  0  0  0  0  0  0
   49.9917    4.8751   17.0221 N   0  0  0  0  0  0  0  0  0  0  0  0
   50.2764    4.5743   19.5212 C   0  0  0  0  0  0  0  0  0  0  0  0
   50.4614    5.4742   18.2826 C   0  0  0  0  0  0  0  0  0  0  0  0
   48.1190    4.0627   18.5109 C   0  0  0  0  0  0  0  0  0  0  0  0
   48.9901    3.8240   17.2606 C   0  0  0  0  0  0  0  0  0  0  0  0
   49.5558    4.4420   18.2546 C   0  0  0  0  0  0  0  0  0  0  0  0
   50.7453    5.4113   18.3565 C   0  0  0  0  0  0  0  0  0  0  0  0
   48.8145    4.6892   16.9347 C   0  0  0  0  0  0  0  0  0  0  0  0
   48.6416    4.6407   19.4772 C   0  0  0  0  0  0  0  0  0  0  0  0
   47.5818    3.8395   16.7907 C   0  0  0  0  0  0  0  0  0  0  0  0
   51.3334    5.4593   19.7389 C   0  0  0  0  0  0  0  0  0  0  0  0
   48.5879    3.9098   20.4545 O   0  0  0  0  0  0  0  0  0  0  0  0
   51.4742    6.4572   20.4236 O   0  0  0  0  0  0  0  0  0  0  0  0
   46.8372    3.4520   17.6737 O   0  0  0  0  0  0  0  0  0  0  0  0
   50.0826    3.1079   18.1960 O   0  0  0  0  0  0  0  0  0  0  0  0
   47.9327    5.7854   19.4346 O   0  0  0  0  0  0  0  0  0  0  0  0
   51.7377    4.2542   20.1818 O   0  0  0  0  0  0  0  0  0  0  0  0
   47.2982    3.5746   15.4995 O   0  0  0  0  0  0  0  0  0  0  0  0
   50.3397    4.7274   17.2488 N   0  0  0  0  0  0  0  0  0  0  0  0
   48.4735    4.4235   19.5413 N   0  0  0  0  0  0  0  0  0  0  0  0
   49.1312    3.8884   17.1729 C   0  0  0  0  0  0  0  0  0  0  0  0
   48.6813    3.3537   18.5494 C   0  0  0  0  0  0  0  0  0  0  0  0
   50.1323    5.7972   18.2403 C   0  0  0  0  0  0  0  0  0  0  0  0
   49.6821    5.2630   19.6169 C   0  0  0  0  0  0  0  0  0  0  0  0
   48.9883    4.6385   18.2922 C   0  0  0  0  0  0  0  0  0  0  0  0
   50.1541    4.4929   19.2807 C   0  0  0  0  0  0  0  0  0  0  0  0
   48.4118    3.2954   17.8235 C   0  0  0  0  0  0  0  0  0  0  0  0
   47.8189    5.3629   18.9875 C   0  0  0  0  0  0  0  0  0  0  0  0
   49.4215    2.4060   17.1583 C   0  0  0  0  0  0  0  0  0  0  0  0
   50.4735    5.7873   19.9766 C   0  0  0  0  0  0  0  0  0  0  0  0
   47.2867    5.0311   20.0341 O   0  0  0  0  0  0  0  0  0  0  0  0
   50.1984    6.9114   19.5904 O   0  0  0  0  0  0  0  0  0  0  0  0
   50.5102    2.0774   17.5992 O   0  0  0  0  0  0  0  0  0  0  0  0
   49.4371    5.3465   17.1290 O   0  0  0  0  0  0  0  0  0  0  0  0
   47.4132    6.4670   18.3255 O   0  0  0  0  0  0  0  0  0  0  0  0
   51.1621    5.5988   21.1176 O   0  0  0  0  0  0  0  0  0  0  0  0
   48.9845    1.9063   15.9855 O   0  0  0  0  0  0  0  0  0  0  0  0
   48.8689    4.0869   19.7581 N   0  0  0  0  0  0  0  0  0  0  0  0
   50.2068    4.0921   17.3695 N   0  0  0  0  0  0  0  0  0  0  0  0
   49.9692    5.0693   19.6846 C   0  0  0  0  0  0  0  0  0  0  0  0
   50.6639    5.1341   18.3007 C   0  0  0  0  0  0  0  0  0  0  0  0
   47.9921    4.2768   18.5878 C   0  0  0  0  0  0  0  0  0  0  0  0
   48.7414    4.1410   17.2379 C   0  0  0  0  0  0  0  0  0  0  0  0
   48.4261    4.8761   20.3566 H   0  0  0  0  0  0  0  0  0  0  0  0
   49.5861    5.6109   16.4449 H   0  0  0  0  0  0  0  0  0  0  0  0
   50.6601    5.0884   20.4101 H   0  0  0  0  0  0  0  0  0  0  0  0
   50.8801    3.6653   19.4051 H   0  0  0  0  0  0  0  0  0  0  0  0
   51.5195    5.7340   18.1715 H   0  0  0  0  0  0  0  0  0  0  0  0
   49.9202    6.4144   18.4483 H   0  0  0  0  0  0  0  0  0  0  0  0
   47.5386    4.9830   18.3642 H   0  0  0  0  0  0  0  0  0  0  0  0
   47.3973    3.2455   18.6168 H   0  0  0  0  0  0  0  0  0  0  0  0
   49.5101    2.8625   17.3575 H   0  0  0  0  0  0  0  0  0  0  0  0
   48.3484    3.7401   16.3758 H   0  0  0  0  0  0  0  0  0  0  0  0
   51.5477    5.1404   17.6608 H   0  0  0  0  0  0  0  0  0  0  0  0
   50.4277    6.4330   18.1148 H   0  0  0  0  0  0  0  0  0  0  0  0
   49.4838    4.4511   16.0990 H   0  0  0  0  0  0  0  0  0  0  0  0
   48.5009    5.7341   16.8358 H   0  0  0  0  0  0  0  0  0  0  0  0
   50.4514    2.9142   19.0837 H   0  0  0  0  0  0  0  0  0  0  0  0
   47.3930    5.7598   20.2540 H   0  0  0  0  0  0  0  0  0  0  0  0
   52.0907    4.4295   21.0815 H   0  0  0  0  0  0  0  0  0  0  0  0
   46.4876    3.0246   15.5422 H   0  0  0  0  0  0  0  0  0  0  0  0
   51.1057    4.1398   17.5811 H   0  0  0  0  0  0  0  0  0  0  0  0
   47.7076    5.0111   19.2088 H   0  0  0  0  0  0  0  0  0  0  0  0
   48.3203    4.4683   16.7149 H   0  0  0  0  0  0  0  0  0  0  0  0
   49.3294    3.0437   16.5040 H   0  0  0  0  0  0  0  0  0  0  0  0
   47.7452    2.7965   18.4329 H   0  0  0  0  0  0  0  0  0  0  0  0
   49.4251    2.6446   18.9344 H   0  0  0  0  0  0  0  0  0  0  0  0
   51.0683    6.3552   18.3560 H   0  0  0  0  0  0  0  0  0  0  0  0
   49.3885    6.5052   17.8539 H   0  0  0  0  0  0  0  0  0  0  0  0
   50.4934    4.6840   20.0751 H   0  0  0  0  0  0  0  0  0  0  0  0
   49.4812    6.1082   20.2848 H   0  0  0  0  0  0  0  0  0  0  0  0
   49.8993    3.7534   20.0493 H   0  0  0  0  0  0  0  0  0  0  0  0
   51.0725    4.1882   18.7695 H   0  0  0  0  0  0  0  0  0  0  0  0
   47.6034    3.4861   17.1043 H   0  0  0  0  0  0  0  0  0  0  0  0
   47.9709    2.7286   18.6525 H   0  0  0  0  0  0  0  0  0  0  0  0
   49.3762    6.3001   17.3500 H   0  0  0  0  0  0  0  0  0  0  0  0
   46.7058    6.8497   18.8863 H   0  0  0  0  0  0  0  0  0  0  0  0
   51.3288    6.5000   21.4651 H   0  0  0  0  0  0  0  0  0  0  0  0
   49.7307    1.3589   15.6635 H   0  0  0  0  0  0  0  0  0  0  0  0
   49.3105    3.1732   19.6227 H   0  0  0  0  0  0  0  0  0  0  0  0
   50.6385    4.2276   16.4577 H   0  0  0  0  0  0  0  0  0  0  0  0
   49.5864    6.0614   19.9506 H   0  0  0  0  0  0  0  0  0  0  0  0
   50.7080    4.8016   20.4489 H   0  0  0  0  0  0  0  0  0  0  0  0
   51.7460    5.0311   18.4363 H   0  0  0  0  0  0  0  0  0  0  0  0
   50.4888    6.1196   17.8529 H   0  0  0  0  0  0  0  0  0  0  0  0
   47.1859    3.5364   18.6315 H   0  0  0  0  0  0  0  0  0  0  0  0
   47.5175    5.2631   18.6518 H   0  0  0  0  0  0  0  0  0  0  0  0
   48.4600    4.9756   16.5854 H   0  0  0  0  0  0  0  0  0  0  0  0
   48.4206    3.2200   16.7391 H   0  0  0  0  0  0  0  0  0  0  0  0
  2  6  1  0
  3  1  1  0
  4  3  1  0
  5  1  1  0
  6  5  1  0
  2  4  1  0
  8  7  1  0
  9  7  1  0
 10  7  1  0
 11  9  1  0
 12  8  1  0
 13 10  2  0
 14 12  2  0
 15 11  2  0
 16  7  1  0
 17 10  1  0
 18 12  1  0
 19 11  1  0
 21 25  1  0
 22 20  1  0
 23 22  1  0
 24 20  1  0
 25 24  1  0
 21 23  1  0
 27 26  1  0
 28 26  1  0
 29 26  1  0
 30 28  1  0
 31 27  1  0
 32 29  2  0
 33 31  2  0
 34 30  2  0
 35 26  1  0
 36 29  1  0
 37 31  1  0
 38 30  1  0
 40 44  1  0
 41 39  1  0
 42 41  1  0
 43 39  1  0
 44 43  1  0
 40 42  1  0
  1 45  1  0
  2 46  1  0
  3 47  1  0
  3 48  1  0
  4 49  1  0
  4 50  1  0
  5 51  1  0
  5 52  1  0
  6 53  1  0
  6 54  1  0
  8 55  1  0
  8 56  1  0
  9 57  1  0
  9 58  1  0
 16 59  1  0
 17 60  1  0
 18 61  1  0
 19 62  1  0
 20 63  1  0
 21 64  1  0
 22 65  1  0
 22 66  1  0
 23 67  1  0
 23 68  1  0
 24 69  1  0
 24 70  1  0
 25 71  1  0
 25 72  1  0
 27 73  1  0
 27 74  1  0
 28 75  1  0
 28 76  1  0
 35 77  1  0
 36 78  1  0
 37 79  1  0
 38 80  1  0
 39 81  1  0
 40 82  1  0
 41 83  1  0
 41 84  1  0
 42 85  1  0
 42 86  1  0
 43 87  1  0
 43 88  1  0
 44 89  1  0
 44 90  1  0
M  END
> <Uni-Dock RESULT> 
ENERGY=   -6.330  LOWER_BOUND=    7.207  UPPER_BOUND=    8.981
INTER + INTRA:          -6.330
INTER:                  -6.330
INTRA:                   0.000
UNBOUND:                 0.000

$$$$

     RDKit          3D

 90 88  0  0  0  0  0  0  0  0999 V2000
   46.3606   11.4807   19.9418 N   0  0  0  0  0  0  0  0  0  0  0  0
   49.3387   11.2059   19.3839 N   0  0  0  0  0  0  0  0  0  0  0  0
   47.1372   10.2576   20.2033 C   0  0  0  0  0  0  0  0  0  0  0  0
   48.6331   10.5149   20.4762 C   0  0  0  0  0  0  0  0  0  0  0  0
   47.1792   12.5134   19.2832 C   0  0  0  0  0  0  0  0  0  0  0  0
   48.4098   11.9653   18.5322 C   0  0  0  0  0  0  0  0  0  0  0  0
   47.9697   11.2526   19.5264 C   0  0  0  0  0  0  0  0  0  0  0  0
   48.6246   10.2158   20.4543 C   0  0  0  0  0  0  0  0  0  0  0  0
   48.9996   12.3312   19.1677 C   0  0  0  0  0  0  0  0  0  0  0  0
   46.7340   11.8437   20.2289 C   0  0  0  0  0  0  0  0  0  0  0  0
   48.4182   13.4359   18.3288 C   0  0  0  0  0  0  0  0  0  0  0  0
   47.6191    9.3072   21.1046 C   0  0  0  0  0  0  0  0  0  0  0  0
   45.5715   11.5496   19.9957 O   0  0  0  0  0  0  0  0  0  0  0  0
   47.4818    9.1306   22.3022 O   0  0  0  0  0  0  0  0  0  0  0  0
   47.2815   13.8732   18.3573 O   0  0  0  0  0  0  0  0  0  0  0  0
   47.6184   10.5857   18.3047 O   0  0  0  0  0  0  0  0  0  0  0  0
   47.0421   12.6856   21.2344 O   0  0  0  0  0  0  0  0  0  0  0  0
   46.8530    8.6473   20.2160 O   0  0  0  0  0  0  0  0  0  0  0  0
   49.3422   14.0009   17.5257 O   0  0  0  0  0  0  0  0  0  0  0  0
   49.1815   10.7952   19.3528 N   0  0  0  0  0  0  0  0  0  0  0  0
   46.5404   11.9596   20.0597 N   0  0  0  0  0  0  0  0  0  0  0  0
   48.5527   11.8610   18.5533 C   0  0  0  0  0  0  0  0  0  0  0  0
   47.0132   11.8708   18.6669 C   0  0  0  0  0  0  0  0  0  0  0  0
   48.7091   10.8838   20.7455 C   0  0  0  0  0  0  0  0  0  0  0  0
   47.1697   10.8941   20.8595 C   0  0  0  0  0  0  0  0  0  0  0  0
   47.8560   11.8127   19.7144 C   0  0  0  0  0  0  0  0  0  0  0  0
   47.2762   10.4252   20.0242 C   0  0  0  0  0  0  0  0  0  0  0  0
   47.5387   12.3059   18.2959 C   0  0  0  0  0  0  0  0  0  0  0  0
   47.2204   12.8522   20.6584 C   0  0  0  0  0  0  0  0  0  0  0  0
   48.0340   11.3898   17.2150 C   0  0  0  0  0  0  0  0  0  0  0  0
   47.3033   10.1140   21.4954 C   0  0  0  0  0  0  0  0  0  0  0  0
   46.0263   13.0518   20.8103 O   0  0  0  0  0  0  0  0  0  0  0  0
   48.0239   10.6249   22.3368 O   0  0  0  0  0  0  0  0  0  0  0  0
   47.8292   10.1911   17.1211 O   0  0  0  0  0  0  0  0  0  0  0  0
   49.2828   11.7725   19.8498 O   0  0  0  0  0  0  0  0  0  0  0  0
   48.1335   13.5559   21.3607 O   0  0  0  0  0  0  0  0  0  0  0  0
   46.4371    9.1392   21.8285 O   0  0  0  0  0  0  0  0  0  0  0  0
   48.7145   12.0404   16.2508 O   0  0  0  0  0  0  0  0  0  0  0  0
   46.3270   11.4811   19.8546 N   0  0  0  0  0  0  0  0  0  0  0  0
   48.7757   10.8075   18.8322 N   0  0  0  0  0  0  0  0  0  0  0  0
   47.1132   10.5761   20.7172 C   0  0  0  0  0  0  0  0  0  0  0  0
   48.5345   10.2711   20.1797 C   0  0  0  0  0  0  0  0  0  0  0  0
   47.1651   12.6438   19.5083 C   0  0  0  0  0  0  0  0  0  0  0  0
   48.4895   12.2513   18.8055 C   0  0  0  0  0  0  0  0  0  0  0  0
   46.0103   11.8577   20.8215 H   0  0  0  0  0  0  0  0  0  0  0  0
   50.0260   11.8390   19.7915 H   0  0  0  0  0  0  0  0  0  0  0  0
   46.6926    9.7322   21.0565 H   0  0  0  0  0  0  0  0  0  0  0  0
   47.0338    9.5882   19.3400 H   0  0  0  0  0  0  0  0  0  0  0  0
   49.1402    9.5640   20.6715 H   0  0  0  0  0  0  0  0  0  0  0  0
   48.7245   11.1159   21.3898 H   0  0  0  0  0  0  0  0  0  0  0  0
   47.5209   13.2288   20.0426 H   0  0  0  0  0  0  0  0  0  0  0  0
   46.5419   13.0693   18.5870 H   0  0  0  0  0  0  0  0  0  0  0  0
   48.0766   11.3149   17.7135 H   0  0  0  0  0  0  0  0  0  0  0  0
   48.9552   12.7939   18.0658 H   0  0  0  0  0  0  0  0  0  0  0  0
   49.3432    9.5881   19.9150 H   0  0  0  0  0  0  0  0  0  0  0  0
   49.1658   10.7171   21.2661 H   0  0  0  0  0  0  0  0  0  0  0  0
   49.8145   11.8709   18.5958 H   0  0  0  0  0  0  0  0  0  0  0  0
   49.4282   12.7954   20.0625 H   0  0  0  0  0  0  0  0  0  0  0  0
   46.8771    9.9809   18.5200 H   0  0  0  0  0  0  0  0  0  0  0  0
   46.1690   12.9908   21.5630 H   0  0  0  0  0  0  0  0  0  0  0  0
   46.2498    8.1035   20.7687 H   0  0  0  0  0  0  0  0  0  0  0  0
   48.8450   14.6935   17.0416 H   0  0  0  0  0  0  0  0  0  0  0  0
   48.8705    9.8990   18.9755 H   0  0  0  0  0  0  0  0  0  0  0  0
   46.8515   12.8559   20.4370 H   0  0  0  0  0  0  0  0  0  0  0  0
   48.9561   12.8312   18.8687 H   0  0  0  0  0  0  0  0  0  0  0  0
   48.8371   11.7291   17.5036 H   0  0  0  0  0  0  0  0  0  0  0  0
   46.6144   12.7232   18.1058 H   0  0  0  0  0  0  0  0  0  0  0  0
   46.6000   10.9663   18.2028 H   0  0  0  0  0  0  0  0  0  0  0  0
   49.1090   10.0317   21.3069 H   0  0  0  0  0  0  0  0  0  0  0  0
   49.1231   11.7885   21.2080 H   0  0  0  0  0  0  0  0  0  0  0  0
   46.7665    9.9235   20.5451 H   0  0  0  0  0  0  0  0  0  0  0  0
   46.8856   11.0288   21.9092 H   0  0  0  0  0  0  0  0  0  0  0  0
   46.2327   10.3756   19.6906 H   0  0  0  0  0  0  0  0  0  0  0  0
   47.8547    9.6349   19.5359 H   0  0  0  0  0  0  0  0  0  0  0  0
   48.0071   13.2885   18.1473 H   0  0  0  0  0  0  0  0  0  0  0  0
   46.4613   12.4422   18.1424 H   0  0  0  0  0  0  0  0  0  0  0  0
   49.4697   11.9013   20.8039 H   0  0  0  0  0  0  0  0  0  0  0  0
   47.6050   14.1416   21.9427 H   0  0  0  0  0  0  0  0  0  0  0  0
   46.5584    9.0107   22.7926 H   0  0  0  0  0  0  0  0  0  0  0  0
   48.9796   11.3348   15.6247 H   0  0  0  0  0  0  0  0  0  0  0  0
   46.1918   10.9712   18.9772 H   0  0  0  0  0  0  0  0  0  0  0  0
   49.7432   10.6439   18.5614 H   0  0  0  0  0  0  0  0  0  0  0  0
   47.1850   11.0068   21.7227 H   0  0  0  0  0  0  0  0  0  0  0  0
   46.5540    9.6384   20.8156 H   0  0  0  0  0  0  0  0  0  0  0  0
   48.6850    9.1864   20.1559 H   0  0  0  0  0  0  0  0  0  0  0  0
   49.2796   10.6836   20.8705 H   0  0  0  0  0  0  0  0  0  0  0  0
   46.5893   13.3067   18.8533 H   0  0  0  0  0  0  0  0  0  0  0  0
   47.3826   13.2131   20.4197 H   0  0  0  0  0  0  0  0  0  0  0  0
   49.3184   12.7977   19.2703 H   0  0  0  0  0  0  0  0  0  0  0  0
   48.4466   12.5633   17.7563 H   0  0  0  0  0  0  0  0  0  0  0  0
  2  6  1  0
  3  1  1  0
  4  3  1  0
  5  1  1  0
  6  5  1  0
  2  4  1  0
  8  7  1  0
  9  7  1  0
 10  7  1  0
 11  9  1  0
 12  8  1  0
 13 10  2  0
 14 12  2  0
 15 11  2  0
 16  7  1  0
 17 10  1  0
 18 12  1  0
 19 11  1  0
 21 25  1  0
 22 20  1  0
 23 22  1  0
 24 20  1  0
 25 24  1  0
 21 23  1  0
 27 26  1  0
 28 26  1  0
 29 26  1  0
 30 28  1  0
 31 27  1  0
 32 29  2  0
 33 31  2  0
 34 30  2  0
 35 26  1  0
 36 29  1  0
 37 31  1  0
 38 30  1  0
 40 44  1  0
 41 39  1  0
 42 41  1  0
 43 39  1  0
 44 43  1  0
 40 42  1  0
  1 45  1  0
  2 46  1  0
  3 47  1  0
  3 48  1  0
  4 49  1  0
  4 50  1  0
  5 51  1  0
  5 52  1  0
  6 53  1  0
  6 54  1  0
  8 55  1  0
  8 56  1  0
  9 57  1  0
  9 58  1  0
 16 59  1  0
 17 60  1  0
 18 61  1  0
 19 62  1  0
 20 63  1  0
 21 64  1  0
 22 65  1  0
 22 66  1  0
 23 67  1  0
 23 68  1  0
 24 69  1  0
 24 70  1  0
 25 71  1  0
 25 72  1  0
 27 73  1  0
 27 74  1  0
 28 75  1  0
 28 76  1  0
 35 77  1  0
 36 78  1  0
 37 79  1  0
 38 80  1  0
 39 81  1  0
 40 82  1  0
 41 83  1  0
 41 84  1  0
 42 85  1  0
 42 86  1  0
 43 87  1  0
 43 88  1  0
 44 89  1  0
 44 90  1  0
M  END
> <Uni-Dock RESULT> 
ENERGY=   -6.301  LOWER_BOUND=    9.160  UPPER_BOUND=   10.856
INTER + INTRA:          -6.301
INTER:                  -6.301
INTRA:                   0.000
UNBOUND:                 0.000

$$$$
