
     RDKit          3D

 90 88  0  0  0  0  0  0  0  0999 V2000
   45.1124    6.3375   10.6034 N   0  0  0  0  0  0  0  0  0  0  0  0
   43.6463    4.2025   12.0514 N   0  0  0  0  0  0  0  0  0  0  0  0
   45.0891    4.9469   10.1292 C   0  0  0  0  0  0  0  0  0  0  0  0
   43.8315    4.1773   10.5885 C   0  0  0  0  0  0  0  0  0  0  0  0
   44.8904    6.3892   12.0551 C   0  0  0  0  0  0  0  0  0  0  0  0
   43.6348    5.6077   12.4988 C   0  0  0  0  0  0  0  0  0  0  0  0
   43.8411    5.0070   11.8711 C   0  0  0  0  0  0  0  0  0  0  0  0
   43.5921    4.9785   10.3567 C   0  0  0  0  0  0  0  0  0  0  0  0
   44.9813    5.8873   12.4056 C   0  0  0  0  0  0  0  0  0  0  0  0
   44.1061    3.5660   12.3457 C   0  0  0  0  0  0  0  0  0  0  0  0
   44.8563    7.3155   11.9673 C   0  0  0  0  0  0  0  0  0  0  0  0
   44.8331    4.8123    9.5306 C   0  0  0  0  0  0  0  0  0  0  0  0
   43.4514    2.9069   13.1368 O   0  0  0  0  0  0  0  0  0  0  0  0
   45.8343    5.5060    9.5817 O   0  0  0  0  0  0  0  0  0  0  0  0
   43.8702    7.8351   11.4701 O   0  0  0  0  0  0  0  0  0  0  0  0
   42.6142    5.4541   12.4893 O   0  0  0  0  0  0  0  0  0  0  0  0
   45.2095    3.0180   11.7943 O   0  0  0  0  0  0  0  0  0  0  0  0
   44.7396    3.8041    8.6445 O   0  0  0  0  0  0  0  0  0  0  0  0
   45.9632    8.0341   12.2282 O   0  0  0  0  0  0  0  0  0  0  0  0
   45.7292    5.7521   11.8368 N   0  0  0  0  0  0  0  0  0  0  0  0
   43.1533    4.6375   10.8732 N   0  0  0  0  0  0  0  0  0  0  0  0
   44.4378    6.1750   12.3958 C   0  0  0  0  0  0  0  0  0  0  0  0
   43.3429    5.0943   12.2629 C   0  0  0  0  0  0  0  0  0  0  0  0
   45.5576    5.2558   10.4643 C   0  0  0  0  0  0  0  0  0  0  0  0
   44.4538    4.1821   10.3474 C   0  0  0  0  0  0  0  0  0  0  0  0
   44.6282    4.9544   11.8377 C   0  0  0  0  0  0  0  0  0  0  0  0
   44.6888    5.2062   10.3245 C   0  0  0  0  0  0  0  0  0  0  0  0
   44.5063    6.2411   12.6652 C   0  0  0  0  0  0  0  0  0  0  0  0
   43.4043    4.0961   12.2073 C   0  0  0  0  0  0  0  0  0  0  0  0
   45.6368    7.2023   12.4424 C   0  0  0  0  0  0  0  0  0  0  0  0
   44.5233    3.9368    9.5389 C   0  0  0  0  0  0  0  0  0  0  0  0
   43.4135    3.0743   12.8743 O   0  0  0  0  0  0  0  0  0  0  0  0
   44.7273    2.8032    9.9394 O   0  0  0  0  0  0  0  0  0  0  0  0
   45.9718    7.6924   11.3768 O   0  0  0  0  0  0  0  0  0  0  0  0
   45.8288    4.2868   12.2566 O   0  0  0  0  0  0  0  0  0  0  0  0
   42.2412    4.5761   11.7231 O   0  0  0  0  0  0  0  0  0  0  0  0
   44.1479    4.1622    8.2664 O   0  0  0  0  0  0  0  0  0  0  0  0
   46.2602    7.5556   13.5826 O   0  0  0  0  0  0  0  0  0  0  0  0
   45.8141    5.8113   11.4351 N   0  0  0  0  0  0  0  0  0  0  0  0
   43.5480    4.2511   11.7918 N   0  0  0  0  0  0  0  0  0  0  0  0
   45.3075    5.1806   10.2038 C   0  0  0  0  0  0  0  0  0  0  0  0
   44.2011    4.1304   10.4726 C   0  0  0  0  0  0  0  0  0  0  0  0
   44.6933    6.4705   12.1354 C   0  0  0  0  0  0  0  0  0  0  0  0
   43.3626    5.6779   12.1088 C   0  0  0  0  0  0  0  0  0  0  0  0
   46.0104    6.7620   10.3783 H   0  0  0  0  0  0  0  0  0  0  0  0
   44.4506    3.7440   12.4780 H   0  0  0  0  0  0  0  0  0  0  0  0
   45.1297    4.9471    9.0347 H   0  0  0  0  0  0  0  0  0  0  0  0
   45.9876    4.4260   10.4841 H   0  0  0  0  0  0  0  0  0  0  0  0
   43.9081    3.1339   10.2638 H   0  0  0  0  0  0  0  0  0  0  0  0
   42.9399    4.5936   10.1030 H   0  0  0  0  0  0  0  0  0  0  0  0
   44.7875    7.4365   12.3589 H   0  0  0  0  0  0  0  0  0  0  0  0
   45.7715    5.9887   12.5721 H   0  0  0  0  0  0  0  0  0  0  0  0
   42.7325    6.1018   12.1182 H   0  0  0  0  0  0  0  0  0  0  0  0
   43.5655    5.6256   13.5921 H   0  0  0  0  0  0  0  0  0  0  0  0
   43.0873    5.8877   10.0099 H   0  0  0  0  0  0  0  0  0  0  0  0
   42.8932    4.1643   10.1209 H   0  0  0  0  0  0  0  0  0  0  0  0
   45.9608    5.5082   12.0949 H   0  0  0  0  0  0  0  0  0  0  0  0
   44.9583    5.8918   13.5033 H   0  0  0  0  0  0  0  0  0  0  0  0
   42.4297    6.3597   12.1684 H   0  0  0  0  0  0  0  0  0  0  0  0
   45.2399    2.1198   12.1908 H   0  0  0  0  0  0  0  0  0  0  0  0
   45.5966    3.8124    8.1692 H   0  0  0  0  0  0  0  0  0  0  0  0
   45.7693    8.9328   11.8895 H   0  0  0  0  0  0  0  0  0  0  0  0
   46.3779    6.5373   11.8394 H   0  0  0  0  0  0  0  0  0  0  0  0
   42.8538    5.4384   10.3186 H   0  0  0  0  0  0  0  0  0  0  0  0
   44.1079    7.0932   11.8933 H   0  0  0  0  0  0  0  0  0  0  0  0
   44.5745    6.4180   13.4552 H   0  0  0  0  0  0  0  0  0  0  0  0
   43.5887    4.2335   12.8971 H   0  0  0  0  0  0  0  0  0  0  0  0
   42.3928    5.4954   12.6325 H   0  0  0  0  0  0  0  0  0  0  0  0
   45.3213    6.0976    9.8010 H   0  0  0  0  0  0  0  0  0  0  0  0
   46.5080    4.8322   10.1211 H   0  0  0  0  0  0  0  0  0  0  0  0
   44.3280    3.9068    9.2945 H   0  0  0  0  0  0  0  0  0  0  0  0
   44.7601    3.2711   10.8766 H   0  0  0  0  0  0  0  0  0  0  0  0
   43.8924    5.8978   10.0254 H   0  0  0  0  0  0  0  0  0  0  0  0
   45.6587    5.6202   10.0297 H   0  0  0  0  0  0  0  0  0  0  0  0
   44.4842    5.9854   13.7335 H   0  0  0  0  0  0  0  0  0  0  0  0
   43.5743    6.7789   12.4540 H   0  0  0  0  0  0  0  0  0  0  0  0
   45.7361    3.3458   11.9947 H   0  0  0  0  0  0  0  0  0  0  0  0
   41.5717    3.9299   12.0383 H   0  0  0  0  0  0  0  0  0  0  0  0
   44.1168    3.2750    7.8509 H   0  0  0  0  0  0  0  0  0  0  0  0
   46.9727    8.1629   13.2929 H   0  0  0  0  0  0  0  0  0  0  0  0
   46.1603    5.0648   12.0375 H   0  0  0  0  0  0  0  0  0  0  0  0
   44.1834    3.8652   12.4895 H   0  0  0  0  0  0  0  0  0  0  0  0
   46.1427    4.7054    9.6776 H   0  0  0  0  0  0  0  0  0  0  0  0
   44.9206    5.9616    9.5375 H   0  0  0  0  0  0  0  0  0  0  0  0
   43.4401    4.1977    9.6864 H   0  0  0  0  0  0  0  0  0  0  0  0
   44.6322    3.1246   10.4062 H   0  0  0  0  0  0  0  0  0  0  0  0
   44.5312    7.4642   11.7013 H   0  0  0  0  0  0  0  0  0  0  0  0
   45.0000    6.6292   13.1757 H   0  0  0  0  0  0  0  0  0  0  0  0
   42.8663    5.7654   13.0814 H   0  0  0  0  0  0  0  0  0  0  0  0
   42.6840    6.1204   11.3692 H   0  0  0  0  0  0  0  0  0  0  0  0
  2  6  1  0
  3  1  1  0
  4  3  1  0
  5  1  1  0
  6  5  1  0
  2  4  1  0
  8  7  1  0
  9  7  1  0
 10  7  1  0
 11  9  1  0
 12  8  1  0
 13 10  2  0
 14 12  2  0
 15 11  2  0
 16  7  1  0
 17 10  1  0
 18 12  1  0
 19 11  1  0
 21 25  1  0
 22 20  1  0
 23 22  1  0
 24 20  1  0
 25 24  1  0
 21 23  1  0
 27 26  1  0
 28 26  1  0
 29 26  1  0
 30 28  1  0
 31 27  1  0
 32 29  2  0
 33 31  2  0
 34 30  2  0
 35 26  1  0
 36 29  1  0
 37 31  1  0
 38 30  1  0
 40 44  1  0
 41 39  1  0
 42 41  1  0
 43 39  1  0
 44 43  1  0
 40 42  1  0
  1 45  1  0
  2 46  1  0
  3 47  1  0
  3 48  1  0
  4 49  1  0
  4 50  1  0
  5 51  1  0
  5 52  1  0
  6 53  1  0
  6 54  1  0
  8 55  1  0
  8 56  1  0
  9 57  1  0
  9 58  1  0
 16 59  1  0
 17 60  1  0
 18 61  1  0
 19 62  1  0
 20 63  1  0
 21 64  1  0
 22 65  1  0
 22 66  1  0
 23 67  1  0
 23 68  1  0
 24 69  1  0
 24 70  1  0
 25 71  1  0
 25 72  1  0
 27 73  1  0
 27 74  1  0
 28 75  1  0
 28 76  1  0
 35 77  1  0
 36 78  1  0
 37 79  1  0
 38 80  1  0
 39 81  1  0
 40 82  1  0
 41 83  1  0
 41 84  1  0
 42 85  1  0
 42 86  1  0
 43 87  1  0
 43 88  1  0
 44 89  1  0
 44 90  1  0
M  END
> <Uni-Dock RESULT> 
ENERGY=  -11.247  LOWER_BOUND=    0.000  UPPER_BOUND=    0.000
INTER + INTRA:         -11.247
INTER:                 -11.247
INTRA:                   0.000
UNBOUND:                 0.000

$$$$

     RDKit          3D

 90 88  0  0  0  0  0  0  0  0999 V2000
   45.5939    4.4803   11.1005 N   0  0  0  0  0  0  0  0  0  0  0  0
   42.9840    5.5073   12.0696 N   0  0  0  0  0  0  0  0  0  0  0  0
   45.3215    5.9182   11.2342 C   0  0  0  0  0  0  0  0  0  0  0  0
   44.2492    6.2291   12.3010 C   0  0  0  0  0  0  0  0  0  0  0  0
   44.3416    3.7359   10.9081 C   0  0  0  0  0  0  0  0  0  0  0  0
   43.2771    4.0648   11.9771 C   0  0  0  0  0  0  0  0  0  0  0  0
   43.5698    4.9079   11.9455 C   0  0  0  0  0  0  0  0  0  0  0  0
   44.7667    5.6041   12.6079 C   0  0  0  0  0  0  0  0  0  0  0  0
   43.8297    4.0253   10.7150 C   0  0  0  0  0  0  0  0  0  0  0  0
   42.5484    5.9854   11.5360 C   0  0  0  0  0  0  0  0  0  0  0  0
   44.8499    2.9591   10.9797 C   0  0  0  0  0  0  0  0  0  0  0  0
   45.6958    6.2826   11.6454 C   0  0  0  0  0  0  0  0  0  0  0  0
   41.4022    6.1187   11.9329 O   0  0  0  0  0  0  0  0  0  0  0  0
   46.2379    5.7709   10.6808 O   0  0  0  0  0  0  0  0  0  0  0  0
   45.2672    2.6139   12.0735 O   0  0  0  0  0  0  0  0  0  0  0  0
   42.9535    4.0807   12.9571 O   0  0  0  0  0  0  0  0  0  0  0  0
   43.0291    6.8554   10.6228 O   0  0  0  0  0  0  0  0  0  0  0  0
   45.9351    7.5668   11.9676 O   0  0  0  0  0  0  0  0  0  0  0  0
   45.2542    2.3412    9.8552 O   0  0  0  0  0  0  0  0  0  0  0  0
   44.4326    4.4979   10.1543 N   0  0  0  0  0  0  0  0  0  0  0  0
   44.0583    5.6112   12.8793 N   0  0  0  0  0  0  0  0  0  0  0  0
   43.8381    3.7115   11.2439 C   0  0  0  0  0  0  0  0  0  0  0  0
   43.1560    4.5896   12.3154 C   0  0  0  0  0  0  0  0  0  0  0  0
   45.3060    5.5484   10.6954 C   0  0  0  0  0  0  0  0  0  0  0  0
   44.6116    6.4118   11.7711 C   0  0  0  0  0  0  0  0  0  0  0  0
   43.7718    5.0647   11.1985 C   0  0  0  0  0  0  0  0  0  0  0  0
   45.1801    5.5516   11.5678 C   0  0  0  0  0  0  0  0  0  0  0  0
   43.6605    3.5370   11.1038 C   0  0  0  0  0  0  0  0  0  0  0  0
   42.7408    5.4992   12.2566 C   0  0  0  0  0  0  0  0  0  0  0  0
   44.5936    2.9329   10.0957 C   0  0  0  0  0  0  0  0  0  0  0  0
   45.1918    7.0100   11.9269 C   0  0  0  0  0  0  0  0  0  0  0  0
   41.6935    6.0886   12.0454 O   0  0  0  0  0  0  0  0  0  0  0  0
   44.3643    7.8446   11.6015 O   0  0  0  0  0  0  0  0  0  0  0  0
   45.8088    3.0365   10.0800 O   0  0  0  0  0  0  0  0  0  0  0  0
   43.4039    5.6021    9.9185 O   0  0  0  0  0  0  0  0  0  0  0  0
   43.0835    5.1613   13.5160 O   0  0  0  0  0  0  0  0  0  0  0  0
   46.2747    7.3559   12.6469 O   0  0  0  0  0  0  0  0  0  0  0  0
   43.9613    2.1700    9.1837 O   0  0  0  0  0  0  0  0  0  0  0  0
   44.8202    4.6422   10.1861 N   0  0  0  0  0  0  0  0  0  0  0  0
   43.2008    5.5729   12.2374 N   0  0  0  0  0  0  0  0  0  0  0  0
   45.4258    5.7048   11.0073 C   0  0  0  0  0  0  0  0  0  0  0  0
   44.4176    6.3687   11.9779 C   0  0  0  0  0  0  0  0  0  0  0  0
   44.2631    3.6035   11.0761 C   0  0  0  0  0  0  0  0  0  0  0  0
   43.5698    4.1509   12.3486 C   0  0  0  0  0  0  0  0  0  0  0  0
   46.2133    4.3204   10.3081 H   0  0  0  0  0  0  0  0  0  0  0  0
   42.6094    5.8095   11.1710 H   0  0  0  0  0  0  0  0  0  0  0  0
   46.2524    6.4297   11.5016 H   0  0  0  0  0  0  0  0  0  0  0  0
   45.0012    6.3198   10.2644 H   0  0  0  0  0  0  0  0  0  0  0  0
   44.0424    7.3050   12.3022 H   0  0  0  0  0  0  0  0  0  0  0  0
   44.6310    5.9806   13.2991 H   0  0  0  0  0  0  0  0  0  0  0  0
   44.5610    2.6633   10.9380 H   0  0  0  0  0  0  0  0  0  0  0  0
   43.9381    3.9547    9.9115 H   0  0  0  0  0  0  0  0  0  0  0  0
   43.6053    3.6981   12.9573 H   0  0  0  0  0  0  0  0  0  0  0  0
   42.3487    3.5345   11.7379 H   0  0  0  0  0  0  0  0  0  0  0  0
   45.3657    4.9053   13.2036 H   0  0  0  0  0  0  0  0  0  0  0  0
   44.3988    6.3437   13.3323 H   0  0  0  0  0  0  0  0  0  0  0  0
   44.1574    4.6204    9.8559 H   0  0  0  0  0  0  0  0  0  0  0  0
   42.9029    3.5103   10.4299 H   0  0  0  0  0  0  0  0  0  0  0  0
   43.6099    3.4119   13.2379 H   0  0  0  0  0  0  0  0  0  0  0  0
   42.2737    7.4641   10.4688 H   0  0  0  0  0  0  0  0  0  0  0  0
   46.5556    7.8832   11.2781 H   0  0  0  0  0  0  0  0  0  0  0  0
   45.9198    1.6855   10.1500 H   0  0  0  0  0  0  0  0  0  0  0  0
   44.9701    3.8857    9.5429 H   0  0  0  0  0  0  0  0  0  0  0  0
   44.8321    5.1286   13.3344 H   0  0  0  0  0  0  0  0  0  0  0  0
   44.6165    3.0981   11.7154 H   0  0  0  0  0  0  0  0  0  0  0  0
   43.0981    3.0242   10.8199 H   0  0  0  0  0  0  0  0  0  0  0  0
   42.2732    5.0815   11.8886 H   0  0  0  0  0  0  0  0  0  0  0  0
   42.7968    3.9513   13.1302 H   0  0  0  0  0  0  0  0  0  0  0  0
   46.2067    5.0879   11.1209 H   0  0  0  0  0  0  0  0  0  0  0  0
   45.6324    6.1942    9.8727 H   0  0  0  0  0  0  0  0  0  0  0  0
   45.3335    7.1259   12.1824 H   0  0  0  0  0  0  0  0  0  0  0  0
   43.8082    7.0037   11.3149 H   0  0  0  0  0  0  0  0  0  0  0  0
   45.5610    4.9866   12.4266 H   0  0  0  0  0  0  0  0  0  0  0  0
   45.8714    5.4419   10.7256 H   0  0  0  0  0  0  0  0  0  0  0  0
   42.6342    3.2642   10.8220 H   0  0  0  0  0  0  0  0  0  0  0  0
   43.8597    3.0499   12.0658 H   0  0  0  0  0  0  0  0  0  0  0  0
   43.1505    6.5384   10.0663 H   0  0  0  0  0  0  0  0  0  0  0  0
   42.3401    5.5018   14.0605 H   0  0  0  0  0  0  0  0  0  0  0  0
   46.1920    8.3235   12.7794 H   0  0  0  0  0  0  0  0  0  0  0  0
   44.6757    1.8572    8.5902 H   0  0  0  0  0  0  0  0  0  0  0  0
   44.0440    5.0605    9.6737 H   0  0  0  0  0  0  0  0  0  0  0  0
   42.5901    5.6655   11.4262 H   0  0  0  0  0  0  0  0  0  0  0  0
   45.8523    6.4667   10.3455 H   0  0  0  0  0  0  0  0  0  0  0  0
   46.2619    5.2809   11.5772 H   0  0  0  0  0  0  0  0  0  0  0  0
   44.9186    6.5816   12.9294 H   0  0  0  0  0  0  0  0  0  0  0  0
   44.1014    7.3347   11.5671 H   0  0  0  0  0  0  0  0  0  0  0  0
   45.0624    2.9124   11.3685 H   0  0  0  0  0  0  0  0  0  0  0  0
   43.5417    3.0196   10.4929 H   0  0  0  0  0  0  0  0  0  0  0  0
   42.6682    3.5637   12.5541 H   0  0  0  0  0  0  0  0  0  0  0  0
   44.2318    4.0228   13.2139 H   0  0  0  0  0  0  0  0  0  0  0  0
  2  6  1  0
  3  1  1  0
  4  3  1  0
  5  1  1  0
  6  5  1  0
  2  4  1  0
  8  7  1  0
  9  7  1  0
 10  7  1  0
 11  9  1  0
 12  8  1  0
 13 10  2  0
 14 12  2  0
 15 11  2  0
 16  7  1  0
 17 10  1  0
 18 12  1  0
 19 11  1  0
 21 25  1  0
 22 20  1  0
 23 22  1  0
 24 20  1  0
 25 24  1  0
 21 23  1  0
 27 26  1  0
 28 26  1  0
 29 26  1  0
 30 28  1  0
 31 27  1  0
 32 29  2  0
 33 31  2  0
 34 30  2  0
 35 26  1  0
 36 29  1  0
 37 31  1  0
 38 30  1  0
 40 44  1  0
 41 39  1  0
 42 41  1  0
 43 39  1  0
 44 43  1  0
 40 42  1  0
  1 45  1  0
  2 46  1  0
  3 47  1  0
  3 48  1  0
  4 49  1  0
  4 50  1  0
  5 51  1  0
  5 52  1  0
  6 53  1  0
  6 54  1  0
  8 55  1  0
  8 56  1  0
  9 57  1  0
  9 58  1  0
 16 59  1  0
 17 60  1  0
 18 61  1  0
 19 62  1  0
 20 63  1  0
 21 64  1  0
 22 65  1  0
 22 66  1  0
 23 67  1  0
 23 68  1  0
 24 69  1  0
 24 70  1  0
 25 71  1  0
 25 72  1  0
 27 73  1  0
 27 74  1  0
 28 75  1  0
 28 76  1  0
 35 77  1  0
 36 78  1  0
 37 79  1  0
 38 80  1  0
 39 81  1  0
 40 82  1  0
 41 83  1  0
 41 84  1  0
 42 85  1  0
 42 86  1  0
 43 87  1  0
 43 88  1  0
 44 89  1  0
 44 90  1  0
M  END
> <Uni-Dock RESULT> 
ENERGY=  -10.059  LOWER_BOUND=    1.032  UPPER_BOUND=    3.344
INTER + INTRA:         -10.059
INTER:                 -10.059
INTRA:                   0.000
UNBOUND:                 0.000

$$$$

     RDKit          3D

 90 88  0  0  0  0  0  0  0  0999 V2000
   43.4372    3.6999   10.2030 N   0  0  0  0  0  0  0  0  0  0  0  0
   45.4788    5.6307   11.1566 N   0  0  0  0  0  0  0  0  0  0  0  0
   43.3509    4.3391   11.5234 C   0  0  0  0  0  0  0  0  0  0  0  0
   44.0669    5.7062   11.5762 C   0  0  0  0  0  0  0  0  0  0  0  0
   44.8332    3.6492    9.7470 C   0  0  0  0  0  0  0  0  0  0  0  0
   45.5374    5.0217    9.8147 C   0  0  0  0  0  0  0  0  0  0  0  0
   45.0810    5.1691   10.5679 C   0  0  0  0  0  0  0  0  0  0  0  0
   43.6447    5.6480   10.8205 C   0  0  0  0  0  0  0  0  0  0  0  0
   45.2987    3.7065   10.1509 C   0  0  0  0  0  0  0  0  0  0  0  0
   45.9053    5.4148   11.8455 C   0  0  0  0  0  0  0  0  0  0  0  0
   44.5050    3.3331    8.9351 C   0  0  0  0  0  0  0  0  0  0  0  0
   42.8246    4.7193   11.6662 C   0  0  0  0  0  0  0  0  0  0  0  0
   46.8780    6.1391   11.9802 O   0  0  0  0  0  0  0  0  0  0  0  0
   42.6341    3.5327   11.4614 O   0  0  0  0  0  0  0  0  0  0  0  0
   43.9433    4.1042    8.1738 O   0  0  0  0  0  0  0  0  0  0  0  0
   45.6257    6.0087    9.5259 O   0  0  0  0  0  0  0  0  0  0  0  0
   45.4585    4.7159   12.9103 O   0  0  0  0  0  0  0  0  0  0  0  0
   42.2442    5.3387   12.7101 O   0  0  0  0  0  0  0  0  0  0  0  0
   44.5040    2.0073    8.7067 O   0  0  0  0  0  0  0  0  0  0  0  0
   44.7454    3.1718   10.7070 N   0  0  0  0  0  0  0  0  0  0  0  0
   44.2567    6.0963   10.8249 N   0  0  0  0  0  0  0  0  0  0  0  0
   45.2432    4.0887    9.6723 C   0  0  0  0  0  0  0  0  0  0  0  0
   45.4627    5.5243   10.1971 C   0  0  0  0  0  0  0  0  0  0  0  0
   43.5655    3.7401   11.3733 C   0  0  0  0  0  0  0  0  0  0  0  0
   43.7990    5.1785   11.8847 C   0  0  0  0  0  0  0  0  0  0  0  0
   45.0190    4.4812   10.9504 C   0  0  0  0  0  0  0  0  0  0  0  0
   43.4923    4.5698   11.0848 C   0  0  0  0  0  0  0  0  0  0  0  0
   45.4812    3.9579    9.5837 C   0  0  0  0  0  0  0  0  0  0  0  0
   45.6705    5.8667   11.1152 C   0  0  0  0  0  0  0  0  0  0  0  0
   44.9490    2.5934    9.2570 C   0  0  0  0  0  0  0  0  0  0  0  0
   43.0819    5.3403   12.3071 C   0  0  0  0  0  0  0  0  0  0  0  0
   46.5830    6.1502   11.8741 O   0  0  0  0  0  0  0  0  0  0  0  0
   43.7568    5.5332   13.3042 O   0  0  0  0  0  0  0  0  0  0  0  0
   43.7746    2.2688    9.1979 O   0  0  0  0  0  0  0  0  0  0  0  0
   45.5326    3.5857   11.9488 O   0  0  0  0  0  0  0  0  0  0  0  0
   45.1417    6.8117   10.3121 O   0  0  0  0  0  0  0  0  0  0  0  0
   41.8182    5.7961   12.2299 O   0  0  0  0  0  0  0  0  0  0  0  0
   45.9182    1.7082    8.9562 O   0  0  0  0  0  0  0  0  0  0  0  0
   44.3383    3.1359   10.7781 N   0  0  0  0  0  0  0  0  0  0  0  0
   45.2214    5.7423   11.1294 N   0  0  0  0  0  0  0  0  0  0  0  0
   43.3486    4.0380   11.3922 C   0  0  0  0  0  0  0  0  0  0  0  0
   43.9473    5.4078   11.7973 C   0  0  0  0  0  0  0  0  0  0  0  0
   44.8999    3.7834    9.5754 C   0  0  0  0  0  0  0  0  0  0  0  0
   45.1585    5.3035    9.7245 C   0  0  0  0  0  0  0  0  0  0  0  0
   43.0581    2.7560   10.2530 H   0  0  0  0  0  0  0  0  0  0  0  0
   45.9663    5.0118   11.8035 H   0  0  0  0  0  0  0  0  0  0  0  0
   42.2949    4.4770   11.7797 H   0  0  0  0  0  0  0  0  0  0  0  0
   43.7806    3.6706   12.2803 H   0  0  0  0  0  0  0  0  0  0  0  0
   44.0269    6.0955   12.5995 H   0  0  0  0  0  0  0  0  0  0  0  0
   43.5387    6.4301   10.9430 H   0  0  0  0  0  0  0  0  0  0  0  0
   44.8536    3.2857    8.7140 H   0  0  0  0  0  0  0  0  0  0  0  0
   45.3881    2.9237   10.3550 H   0  0  0  0  0  0  0  0  0  0  0  0
   45.0901    5.7082    9.0854 H   0  0  0  0  0  0  0  0  0  0  0  0
   46.5889    4.9029    9.5306 H   0  0  0  0  0  0  0  0  0  0  0  0
   43.0977    5.8067    9.8837 H   0  0  0  0  0  0  0  0  0  0  0  0
   43.6724    6.6370   11.2982 H   0  0  0  0  0  0  0  0  0  0  0  0
   45.0457    3.0156   10.9622 H   0  0  0  0  0  0  0  0  0  0  0  0
   46.3554    3.5502    9.8970 H   0  0  0  0  0  0  0  0  0  0  0  0
   45.0868    5.8742    8.7205 H   0  0  0  0  0  0  0  0  0  0  0  0
   46.0767    4.9752   13.6282 H   0  0  0  0  0  0  0  0  0  0  0  0
   41.7369    4.6342   13.1647 H   0  0  0  0  0  0  0  0  0  0  0  0
   43.9505    1.8869    7.9073 H   0  0  0  0  0  0  0  0  0  0  0  0
   44.5036    2.2770   10.2849 H   0  0  0  0  0  0  0  0  0  0  0  0
   43.5270    6.1443   10.1149 H   0  0  0  0  0  0  0  0  0  0  0  0
   44.5343    4.1103    8.8347 H   0  0  0  0  0  0  0  0  0  0  0  0
   46.1908    3.7008    9.2833 H   0  0  0  0  0  0  0  0  0  0  0  0
   46.2877    5.5356   10.9201 H   0  0  0  0  0  0  0  0  0  0  0  0
   45.7649    6.1706    9.3657 H   0  0  0  0  0  0  0  0  0  0  0  0
   42.7169    3.7323   10.6775 H   0  0  0  0  0  0  0  0  0  0  0  0
   43.2946    3.0982   12.2189 H   0  0  0  0  0  0  0  0  0  0  0  0
   42.8655    5.5682   12.3054 H   0  0  0  0  0  0  0  0  0  0  0  0
   44.5330    5.1713   12.7002 H   0  0  0  0  0  0  0  0  0  0  0  0
   43.0653    5.0702   10.2077 H   0  0  0  0  0  0  0  0  0  0  0  0
   43.0448    3.5758   11.1893 H   0  0  0  0  0  0  0  0  0  0  0  0
   46.5785    3.9069    9.5662 H   0  0  0  0  0  0  0  0  0  0  0  0
   45.1870    4.6271    8.7663 H   0  0  0  0  0  0  0  0  0  0  0  0
   45.5352    4.0784   12.7973 H   0  0  0  0  0  0  0  0  0  0  0  0
   45.6536    7.6205   10.5333 H   0  0  0  0  0  0  0  0  0  0  0  0
   41.6552    6.2366   13.0902 H   0  0  0  0  0  0  0  0  0  0  0  0
   45.4387    0.8715    8.7817 H   0  0  0  0  0  0  0  0  0  0  0  0
   45.0970    3.0168   11.4492 H   0  0  0  0  0  0  0  0  0  0  0  0
   45.9601    5.2050   11.5824 H   0  0  0  0  0  0  0  0  0  0  0  0
   42.9216    3.5498   12.2752 H   0  0  0  0  0  0  0  0  0  0  0  0
   42.5215    4.1908   10.6877 H   0  0  0  0  0  0  0  0  0  0  0  0
   43.2149    6.1973   11.5922 H   0  0  0  0  0  0  0  0  0  0  0  0
   44.1261    5.4196   12.8789 H   0  0  0  0  0  0  0  0  0  0  0  0
   44.2276    3.6124    8.7264 H   0  0  0  0  0  0  0  0  0  0  0  0
   45.8422    3.2772    9.3359 H   0  0  0  0  0  0  0  0  0  0  0  0
   46.0990    5.5641    9.2271 H   0  0  0  0  0  0  0  0  0  0  0  0
   44.3669    5.8646    9.2126 H   0  0  0  0  0  0  0  0  0  0  0  0
  2  6  1  0
  3  1  1  0
  4  3  1  0
  5  1  1  0
  6  5  1  0
  2  4  1  0
  8  7  1  0
  9  7  1  0
 10  7  1  0
 11  9  1  0
 12  8  1  0
 13 10  2  0
 14 12  2  0
 15 11  2  0
 16  7  1  0
 17 10  1  0
 18 12  1  0
 19 11  1  0
 21 25  1  0
 22 20  1  0
 23 22  1  0
 24 20  1  0
 25 24  1  0
 21 23  1  0
 27 26  1  0
 28 26  1  0
 29 26  1  0
 30 28  1  0
 31 27  1  0
 32 29  2  0
 33 31  2  0
 34 30  2  0
 35 26  1  0
 36 29  1  0
 37 31  1  0
 38 30  1  0
 40 44  1  0
 41 39  1  0
 42 41  1  0
 43 39  1  0
 44 43  1  0
 40 42  1  0
  1 45  1  0
  2 46  1  0
  3 47  1  0
  3 48  1  0
  4 49  1  0
  4 50  1  0
  5 51  1  0
  5 52  1  0
  6 53  1  0
  6 54  1  0
  8 55  1  0
  8 56  1  0
  9 57  1  0
  9 58  1  0
 16 59  1  0
 17 60  1  0
 18 61  1  0
 19 62  1  0
 20 63  1  0
 21 64  1  0
 22 65  1  0
 22 66  1  0
 23 67  1  0
 23 68  1  0
 24 69  1  0
 24 70  1  0
 25 71  1  0
 25 72  1  0
 27 73  1  0
 27 74  1  0
 28 75  1  0
 28 76  1  0
 35 77  1  0
 36 78  1  0
 37 79  1  0
 38 80  1  0
 39 81  1  0
 40 82  1  0
 41 83  1  0
 41 84  1  0
 42 85  1  0
 42 86  1  0
 43 87  1  0
 43 88  1  0
 44 89  1  0
 44 90  1  0
M  END
> <Uni-Dock RESULT> 
ENERGY=   -9.388  LOWER_BOUND=    1.149  UPPER_BOUND=    3.715
INTER + INTRA:          -9.388
INTER:                  -9.388
INTRA:                   0.000
UNBOUND:                 0.000

$$$$

     RDKit          3D

 90 88  0  0  0  0  0  0  0  0999 V2000
   44.7665    5.5489   13.1963 N   0  0  0  0  0  0  0  0  0  0  0  0
   44.1195    3.4631   11.1874 N   0  0  0  0  0  0  0  0  0  0  0  0
   43.9359    5.8312   12.0174 C   0  0  0  0  0  0  0  0  0  0  0  0
   43.2036    4.5799   11.4858 C   0  0  0  0  0  0  0  0  0  0  0  0
   45.6608    4.4126   12.9345 C   0  0  0  0  0  0  0  0  0  0  0  0
   44.9148    3.1730   12.3950 C   0  0  0  0  0  0  0  0  0  0  0  0
   44.3954    3.7388   11.9395 C   0  0  0  0  0  0  0  0  0  0  0  0
   43.1713    4.5676   12.3527 C   0  0  0  0  0  0  0  0  0  0  0  0
   45.7877    4.2390   12.3541 C   0  0  0  0  0  0  0  0  0  0  0  0
   44.3906    3.5993   10.4056 C   0  0  0  0  0  0  0  0  0  0  0  0
   45.9009    4.4579   13.8329 C   0  0  0  0  0  0  0  0  0  0  0  0
   43.3106    6.0402   12.1034 C   0  0  0  0  0  0  0  0  0  0  0  0
   44.3052    2.5749    9.7481 O   0  0  0  0  0  0  0  0  0  0  0  0
   44.2131    6.7584   12.4983 O   0  0  0  0  0  0  0  0  0  0  0  0
   45.1187    4.0652   14.6836 O   0  0  0  0  0  0  0  0  0  0  0  0
   44.2174    2.4195   12.5008 O   0  0  0  0  0  0  0  0  0  0  0  0
   44.5030    4.7809    9.7630 O   0  0  0  0  0  0  0  0  0  0  0  0
   42.2815    6.5511   11.4033 O   0  0  0  0  0  0  0  0  0  0  0  0
   47.0247    5.1145   14.1728 O   0  0  0  0  0  0  0  0  0  0  0  0
   45.8098    5.1735   12.1889 N   0  0  0  0  0  0  0  0  0  0  0  0
   43.1396    3.8915   12.0100 N   0  0  0  0  0  0  0  0  0  0  0  0
   45.5418    3.8456   12.7580 C   0  0  0  0  0  0  0  0  0  0  0  0
   44.3887    3.1076   12.0437 C   0  0  0  0  0  0  0  0  0  0  0  0
   44.5703    5.9587   12.1094 C   0  0  0  0  0  0  0  0  0  0  0  0
   43.4253    5.2035   11.3999 C   0  0  0  0  0  0  0  0  0  0  0  0
   44.8451    4.3450   11.7078 C   0  0  0  0  0  0  0  0  0  0  0  0
   43.9128    5.4065   12.3086 C   0  0  0  0  0  0  0  0  0  0  0  0
   45.7959    3.7169   12.7358 C   0  0  0  0  0  0  0  0  0  0  0  0
   44.0404    3.1776   11.1072 C   0  0  0  0  0  0  0  0  0  0  0  0
   46.6809    4.7180   13.4186 C   0  0  0  0  0  0  0  0  0  0  0  0
   42.8179    5.7934   11.3559 C   0  0  0  0  0  0  0  0  0  0  0  0
   44.1563    2.7247    9.9801 O   0  0  0  0  0  0  0  0  0  0  0  0
   42.8303    5.6621   10.1436 O   0  0  0  0  0  0  0  0  0  0  0  0
   46.3158    5.6865   14.0640 O   0  0  0  0  0  0  0  0  0  0  0  0
   45.6550    4.9476   10.6862 O   0  0  0  0  0  0  0  0  0  0  0  0
   43.1429    2.6443   11.9603 O   0  0  0  0  0  0  0  0  0  0  0  0
   41.7725    6.3695   11.9772 O   0  0  0  0  0  0  0  0  0  0  0  0
   47.9904    4.4220   13.3128 O   0  0  0  0  0  0  0  0  0  0  0  0
   45.6026    5.5063   12.3245 N   0  0  0  0  0  0  0  0  0  0  0  0
   43.8936    3.5645   11.3219 N   0  0  0  0  0  0  0  0  0  0  0  0
   44.2058    5.9464   12.1649 C   0  0  0  0  0  0  0  0  0  0  0  0
   43.3370    4.9313   11.3813 C   0  0  0  0  0  0  0  0  0  0  0  0
   45.6222    4.2135   13.0383 C   0  0  0  0  0  0  0  0  0  0  0  0
   44.4966    3.2330   12.6245 C   0  0  0  0  0  0  0  0  0  0  0  0
   45.3177    6.3719   13.4330 H   0  0  0  0  0  0  0  0  0  0  0  0
   44.7602    3.7689   10.4558 H   0  0  0  0  0  0  0  0  0  0  0  0
   43.1960    6.5942   12.2823 H   0  0  0  0  0  0  0  0  0  0  0  0
   44.5634    6.2541   11.2226 H   0  0  0  0  0  0  0  0  0  0  0  0
   42.6608    4.8407   10.5706 H   0  0  0  0  0  0  0  0  0  0  0  0
   42.4526    4.2482   12.2137 H   0  0  0  0  0  0  0  0  0  0  0  0
   46.1738    4.1462   13.8648 H   0  0  0  0  0  0  0  0  0  0  0  0
   46.4328    4.7156   12.2161 H   0  0  0  0  0  0  0  0  0  0  0  0
   44.2575    2.7642   13.1722 H   0  0  0  0  0  0  0  0  0  0  0  0
   45.6421    2.3897   12.1545 H   0  0  0  0  0  0  0  0  0  0  0  0
   42.9304    4.4366   13.4142 H   0  0  0  0  0  0  0  0  0  0  0  0
   42.2863    4.1960   11.8181 H   0  0  0  0  0  0  0  0  0  0  0  0
   46.0500    5.1695   11.8395 H   0  0  0  0  0  0  0  0  0  0  0  0
   46.5423    3.4869   12.0888 H   0  0  0  0  0  0  0  0  0  0  0  0
   44.1934    2.5091   13.4746 H   0  0  0  0  0  0  0  0  0  0  0  0
   44.4862    4.5264    8.8144 H   0  0  0  0  0  0  0  0  0  0  0  0
   42.4871    7.5059   11.3227 H   0  0  0  0  0  0  0  0  0  0  0  0
   46.9801    5.2088   15.1470 H   0  0  0  0  0  0  0  0  0  0  0  0
   46.4903    5.6636   12.7670 H   0  0  0  0  0  0  0  0  0  0  0  0
   42.8439    4.0508   12.9723 H   0  0  0  0  0  0  0  0  0  0  0  0
   45.3045    3.9489   13.8245 H   0  0  0  0  0  0  0  0  0  0  0  0
   46.4524    3.2409   12.6870 H   0  0  0  0  0  0  0  0  0  0  0  0
   44.6856    2.8545   11.0184 H   0  0  0  0  0  0  0  0  0  0  0  0
   44.1937    2.1597   12.5572 H   0  0  0  0  0  0  0  0  0  0  0  0
   44.2523    6.2382   13.1220 H   0  0  0  0  0  0  0  0  0  0  0  0
   44.7761    6.8889   11.5682 H   0  0  0  0  0  0  0  0  0  0  0  0
   42.5147    5.8115   11.4363 H   0  0  0  0  0  0  0  0  0  0  0  0
   43.6691    5.0649   10.3391 H   0  0  0  0  0  0  0  0  0  0  0  0
   43.4474    5.0242   13.2247 H   0  0  0  0  0  0  0  0  0  0  0  0
   44.4565    6.3295   12.5355 H   0  0  0  0  0  0  0  0  0  0  0  0
   46.4399    2.9820   12.2336 H   0  0  0  0  0  0  0  0  0  0  0  0
   45.2538    3.1732   13.5186 H   0  0  0  0  0  0  0  0  0  0  0  0
   45.0861    5.0420    9.8923 H   0  0  0  0  0  0  0  0  0  0  0  0
   42.7201    1.9278   11.4379 H   0  0  0  0  0  0  0  0  0  0  0  0
   41.1534    6.6132   11.2574 H   0  0  0  0  0  0  0  0  0  0  0  0
   48.4443    5.1529   13.7820 H   0  0  0  0  0  0  0  0  0  0  0  0
   45.9798    5.3504   11.3899 H   0  0  0  0  0  0  0  0  0  0  0  0
   44.6437    3.5643   10.6313 H   0  0  0  0  0  0  0  0  0  0  0  0
   44.1938    6.9130   11.6491 H   0  0  0  0  0  0  0  0  0  0  0  0
   43.7705    6.1153   13.1577 H   0  0  0  0  0  0  0  0  0  0  0  0
   42.3357    4.8935   11.8259 H   0  0  0  0  0  0  0  0  0  0  0  0
   43.2093    5.2830   10.3508 H   0  0  0  0  0  0  0  0  0  0  0  0
   45.5638    4.3965   14.1177 H   0  0  0  0  0  0  0  0  0  0  0  0
   46.5963    3.7468   12.8519 H   0  0  0  0  0  0  0  0  0  0  0  0
   44.8972    2.2143   12.5830 H   0  0  0  0  0  0  0  0  0  0  0  0
   43.7100    3.2299   13.3891 H   0  0  0  0  0  0  0  0  0  0  0  0
  2  6  1  0
  3  1  1  0
  4  3  1  0
  5  1  1  0
  6  5  1  0
  2  4  1  0
  8  7  1  0
  9  7  1  0
 10  7  1  0
 11  9  1  0
 12  8  1  0
 13 10  2  0
 14 12  2  0
 15 11  2  0
 16  7  1  0
 17 10  1  0
 18 12  1  0
 19 11  1  0
 21 25  1  0
 22 20  1  0
 23 22  1  0
 24 20  1  0
 25 24  1  0
 21 23  1  0
 27 26  1  0
 28 26  1  0
 29 26  1  0
 30 28  1  0
 31 27  1  0
 32 29  2  0
 33 31  2  0
 34 30  2  0
 35 26  1  0
 36 29  1  0
 37 31  1  0
 38 30  1  0
 40 44  1  0
 41 39  1  0
 42 41  1  0
 43 39  1  0
 44 43  1  0
 40 42  1  0
  1 45  1  0
  2 46  1  0
  3 47  1  0
  3 48  1  0
  4 49  1  0
  4 50  1  0
  5 51  1  0
  5 52  1  0
  6 53  1  0
  6 54  1  0
  8 55  1  0
  8 56  1  0
  9 57  1  0
  9 58  1  0
 16 59  1  0
 17 60  1  0
 18 61  1  0
 19 62  1  0
 20 63  1  0
 21 64  1  0
 22 65  1  0
 22 66  1  0
 23 67  1  0
 23 68  1  0
 24 69  1  0
 24 70  1  0
 25 71  1  0
 25 72  1  0
 27 73  1  0
 27 74  1  0
 28 75  1  0
 28 76  1  0
 35 77  1  0
 36 78  1  0
 37 79  1  0
 38 80  1  0
 39 81  1  0
 40 82  1  0
 41 83  1  0
 41 84  1  0
 42 85  1  0
 42 86  1  0
 43 87  1  0
 43 88  1  0
 44 89  1  0
 44 90  1  0
M  END
> <Uni-Dock RESULT> 
ENERGY=   -9.234  LOWER_BOUND=    1.315  UPPER_BOUND=    2.724
INTER + INTRA:          -9.234
INTER:                  -9.234
INTRA:                   0.000
UNBOUND:                 0.000

$$$$

     RDKit          3D

 90 88  0  0  0  0  0  0  0  0999 V2000
   46.1165    5.1384   12.4415 N   0  0  0  0  0  0  0  0  0  0  0  0
   43.3080    5.5981   11.6015 N   0  0  0  0  0  0  0  0  0  0  0  0
   45.0642    4.1347   12.6526 C   0  0  0  0  0  0  0  0  0  0  0  0
   43.9099    4.2520   11.6335 C   0  0  0  0  0  0  0  0  0  0  0  0
   45.5342    6.4855   12.3670 C   0  0  0  0  0  0  0  0  0  0  0  0
   44.3759    6.5838   11.3507 C   0  0  0  0  0  0  0  0  0  0  0  0
   44.1392    5.7621   11.6081 C   0  0  0  0  0  0  0  0  0  0  0  0
   44.6591    4.3731   11.2129 C   0  0  0  0  0  0  0  0  0  0  0  0
   44.9696    6.5976   12.5945 C   0  0  0  0  0  0  0  0  0  0  0  0
   42.7307    5.5991   12.2097 C   0  0  0  0  0  0  0  0  0  0  0  0
   46.3843    6.7868   12.1357 C   0  0  0  0  0  0  0  0  0  0  0  0
   45.1241    3.5368   12.3681 C   0  0  0  0  0  0  0  0  0  0  0  0
   41.6805    6.0571   11.7896 O   0  0  0  0  0  0  0  0  0  0  0  0
   45.9494    3.8566   13.2066 O   0  0  0  0  0  0  0  0  0  0  0  0
   46.8180    6.5590   11.0178 O   0  0  0  0  0  0  0  0  0  0  0  0
   44.0096    6.5242   10.3875 O   0  0  0  0  0  0  0  0  0  0  0  0
   42.7158    4.8579   13.3376 O   0  0  0  0  0  0  0  0  0  0  0  0
   44.5594    2.3158   12.3899 O   0  0  0  0  0  0  0  0  0  0  0  0
   47.1724    7.3067   13.0940 O   0  0  0  0  0  0  0  0  0  0  0  0
   45.2470    6.0145   13.2904 N   0  0  0  0  0  0  0  0  0  0  0  0
   44.0503    4.7089   10.9095 N   0  0  0  0  0  0  0  0  0  0  0  0
   45.1048    6.7135   12.0058 C   0  0  0  0  0  0  0  0  0  0  0  0
   43.9468    6.1611   11.1464 C   0  0  0  0  0  0  0  0  0  0  0  0
   45.3127    4.5616   13.0808 C   0  0  0  0  0  0  0  0  0  0  0  0
   44.1526    4.0268   12.2131 C   0  0  0  0  0  0  0  0  0  0  0  0
   44.2859    5.7006   12.3815 C   0  0  0  0  0  0  0  0  0  0  0  0
   45.1254    4.4241   12.2306 C   0  0  0  0  0  0  0  0  0  0  0  0
   45.0720    6.9854   12.0872 C   0  0  0  0  0  0  0  0  0  0  0  0
   43.0961    5.6994   11.4039 C   0  0  0  0  0  0  0  0  0  0  0  0
   46.2734    7.1639   12.9683 C   0  0  0  0  0  0  0  0  0  0  0  0
   44.2721    3.1881   12.2460 C   0  0  0  0  0  0  0  0  0  0  0  0
   41.9250    5.8871   11.6911 O   0  0  0  0  0  0  0  0  0  0  0  0
   43.1523    3.0847   12.7177 O   0  0  0  0  0  0  0  0  0  0  0  0
   47.2094    6.3901   13.0827 O   0  0  0  0  0  0  0  0  0  0  0  0
   43.8010    5.7935   13.7301 O   0  0  0  0  0  0  0  0  0  0  0  0
   43.4488    5.4693   10.1232 O   0  0  0  0  0  0  0  0  0  0  0  0
   44.8925    2.1255   11.7013 O   0  0  0  0  0  0  0  0  0  0  0  0
   46.2765    8.3410   13.6225 O   0  0  0  0  0  0  0  0  0  0  0  0
   45.4788    5.6717   13.3189 N   0  0  0  0  0  0  0  0  0  0  0  0
   43.4319    5.3826   11.4686 N   0  0  0  0  0  0  0  0  0  0  0  0
   45.2922    4.2962   12.8253 C   0  0  0  0  0  0  0  0  0  0  0  0
   43.9990    4.1227   11.9907 C   0  0  0  0  0  0  0  0  0  0  0  0
   45.5294    6.5945   12.1670 C   0  0  0  0  0  0  0  0  0  0  0  0
   44.5311    6.2603   11.0305 C   0  0  0  0  0  0  0  0  0  0  0  0
   46.7888    5.0970   13.2054 H   0  0  0  0  0  0  0  0  0  0  0  0
   42.9151    5.7887   12.5226 H   0  0  0  0  0  0  0  0  0  0  0  0
   45.5091    3.1367   12.5774 H   0  0  0  0  0  0  0  0  0  0  0  0
   44.6660    4.2332   13.6705 H   0  0  0  0  0  0  0  0  0  0  0  0
   43.1295    3.5261   11.8868 H   0  0  0  0  0  0  0  0  0  0  0  0
   44.2688    3.9914   10.6299 H   0  0  0  0  0  0  0  0  0  0  0  0
   46.3203    7.1943   12.0851 H   0  0  0  0  0  0  0  0  0  0  0  0
   45.1745    6.7815   13.3604 H   0  0  0  0  0  0  0  0  0  0  0  0
   44.7598    6.4508   10.3318 H   0  0  0  0  0  0  0  0  0  0  0  0
   43.9411    7.5885   11.3941 H   0  0  0  0  0  0  0  0  0  0  0  0
   45.4893    4.4368   10.4998 H   0  0  0  0  0  0  0  0  0  0  0  0
   43.8695    3.8317   10.6738 H   0  0  0  0  0  0  0  0  0  0  0  0
   44.9807    6.1468   13.5926 H   0  0  0  0  0  0  0  0  0  0  0  0
   44.5318    7.6002   12.6862 H   0  0  0  0  0  0  0  0  0  0  0  0
   44.8996    6.6062    9.9897 H   0  0  0  0  0  0  0  0  0  0  0  0
   41.7670    4.8497   13.5918 H   0  0  0  0  0  0  0  0  0  0  0  0
   44.9521    1.8757   13.1725 H   0  0  0  0  0  0  0  0  0  0  0  0
   48.0612    7.3699   12.6865 H   0  0  0  0  0  0  0  0  0  0  0  0
   46.0921    6.3319   13.7620 H   0  0  0  0  0  0  0  0  0  0  0  0
   44.9139    4.5362   10.3965 H   0  0  0  0  0  0  0  0  0  0  0  0
   46.0449    6.6369   11.4448 H   0  0  0  0  0  0  0  0  0  0  0  0
   44.9306    7.7773   12.2004 H   0  0  0  0  0  0  0  0  0  0  0  0
   42.9860    6.3823   11.6277 H   0  0  0  0  0  0  0  0  0  0  0  0
   43.9386    6.6744   10.1786 H   0  0  0  0  0  0  0  0  0  0  0  0
   46.2703    4.3059   12.6096 H   0  0  0  0  0  0  0  0  0  0  0  0
   45.2904    4.0631   14.0563 H   0  0  0  0  0  0  0  0  0  0  0  0
   44.2979    2.9554   12.0364 H   0  0  0  0  0  0  0  0  0  0  0  0
   43.2027    4.1309   12.7524 H   0  0  0  0  0  0  0  0  0  0  0  0
   45.6764    4.4454   11.2830 H   0  0  0  0  0  0  0  0  0  0  0  0
   45.8325    4.3140   13.0594 H   0  0  0  0  0  0  0  0  0  0  0  0
   44.4149    7.8542   12.2298 H   0  0  0  0  0  0  0  0  0  0  0  0
   45.4205    7.0252   11.0483 H   0  0  0  0  0  0  0  0  0  0  0  0
   43.0479    5.1690   13.8043 H   0  0  0  0  0  0  0  0  0  0  0  0
   42.5962    5.4989    9.6363 H   0  0  0  0  0  0  0  0  0  0  0  0
   44.2625    1.3823   11.8083 H   0  0  0  0  0  0  0  0  0  0  0  0
   47.0944    8.3180   14.1619 H   0  0  0  0  0  0  0  0  0  0  0  0
   44.6552    5.9097   13.8712 H   0  0  0  0  0  0  0  0  0  0  0  0
   42.9571    5.8523   12.2390 H   0  0  0  0  0  0  0  0  0  0  0  0
   45.2706    3.6111   13.6801 H   0  0  0  0  0  0  0  0  0  0  0  0
   46.1625    4.0146   12.2197 H   0  0  0  0  0  0  0  0  0  0  0  0
   44.1973    3.4429   11.1539 H   0  0  0  0  0  0  0  0  0  0  0  0
   43.2305    3.6435   12.6084 H   0  0  0  0  0  0  0  0  0  0  0  0
   46.5478    6.6094   11.7611 H   0  0  0  0  0  0  0  0  0  0  0  0
   45.3268    7.6043   12.5422 H   0  0  0  0  0  0  0  0  0  0  0  0
   44.1084    7.1889   10.6315 H   0  0  0  0  0  0  0  0  0  0  0  0
   45.0630    5.7763   10.2022 H   0  0  0  0  0  0  0  0  0  0  0  0
  2  6  1  0
  3  1  1  0
  4  3  1  0
  5  1  1  0
  6  5  1  0
  2  4  1  0
  8  7  1  0
  9  7  1  0
 10  7  1  0
 11  9  1  0
 12  8  1  0
 13 10  2  0
 14 12  2  0
 15 11  2  0
 16  7  1  0
 17 10  1  0
 18 12  1  0
 19 11  1  0
 21 25  1  0
 22 20  1  0
 23 22  1  0
 24 20  1  0
 25 24  1  0
 21 23  1  0
 27 26  1  0
 28 26  1  0
 29 26  1  0
 30 28  1  0
 31 27  1  0
 32 29  2  0
 33 31  2  0
 34 30  2  0
 35 26  1  0
 36 29  1  0
 37 31  1  0
 38 30  1  0
 40 44  1  0
 41 39  1  0
 42 41  1  0
 43 39  1  0
 44 43  1  0
 40 42  1  0
  1 45  1  0
  2 46  1  0
  3 47  1  0
  3 48  1  0
  4 49  1  0
  4 50  1  0
  5 51  1  0
  5 52  1  0
  6 53  1  0
  6 54  1  0
  8 55  1  0
  8 56  1  0
  9 57  1  0
  9 58  1  0
 16 59  1  0
 17 60  1  0
 18 61  1  0
 19 62  1  0
 20 63  1  0
 21 64  1  0
 22 65  1  0
 22 66  1  0
 23 67  1  0
 23 68  1  0
 24 69  1  0
 24 70  1  0
 25 71  1  0
 25 72  1  0
 27 73  1  0
 27 74  1  0
 28 75  1  0
 28 76  1  0
 35 77  1  0
 36 78  1  0
 37 79  1  0
 38 80  1  0
 39 81  1  0
 40 82  1  0
 41 83  1  0
 41 84  1  0
 42 85  1  0
 42 86  1  0
 43 87  1  0
 43 88  1  0
 44 89  1  0
 44 90  1  0
M  END
> <Uni-Dock RESULT> 
ENERGY=   -9.232  LOWER_BOUND=    1.232  UPPER_BOUND=    2.310
INTER + INTRA:          -9.232
INTER:                  -9.232
INTRA:                   0.000
UNBOUND:                 0.000

$$$$
