
     RDKit          3D

 90 88  0  0  0  0  0  0  0  0999 V2000
   43.6422    4.1183    9.9750 N   0  0  0  0  0  0  0  0  0  0  0  0
   45.4837    4.6324   12.2454 N   0  0  0  0  0  0  0  0  0  0  0  0
   43.8688    3.1280   11.0443 C   0  0  0  0  0  0  0  0  0  0  0  0
   44.2982    3.7742   12.3795 C   0  0  0  0  0  0  0  0  0  0  0  0
   44.8582    4.9408    9.8318 C   0  0  0  0  0  0  0  0  0  0  0  0
   45.2959    5.6018   11.1570 C   0  0  0  0  0  0  0  0  0  0  0  0
   43.8578    4.4170   11.3167 C   0  0  0  0  0  0  0  0  0  0  0  0
   43.9462    5.5032   12.3919 C   0  0  0  0  0  0  0  0  0  0  0  0
   44.6008    4.8050   10.0349 C   0  0  0  0  0  0  0  0  0  0  0  0
   44.3401    3.0825   11.9028 C   0  0  0  0  0  0  0  0  0  0  0  0
   44.4871    3.7507    8.9681 C   0  0  0  0  0  0  0  0  0  0  0  0
   45.3098    5.6671   12.9921 C   0  0  0  0  0  0  0  0  0  0  0  0
   43.5991    2.2216   12.3577 O   0  0  0  0  0  0  0  0  0  0  0  0
   45.7032    5.1600   14.0293 O   0  0  0  0  0  0  0  0  0  0  0  0
   44.1871    2.5783    9.1076 O   0  0  0  0  0  0  0  0  0  0  0  0
   42.4514    4.3238   10.9950 O   0  0  0  0  0  0  0  0  0  0  0  0
   45.6752    2.9274   11.9081 O   0  0  0  0  0  0  0  0  0  0  0  0
   46.1104    6.4688   12.2679 O   0  0  0  0  0  0  0  0  0  0  0  0
   44.8074    4.2322    7.7489 O   0  0  0  0  0  0  0  0  0  0  0  0
   45.6028    5.4415   11.4187 N   0  0  0  0  0  0  0  0  0  0  0  0
   43.4799    3.4196   10.9315 N   0  0  0  0  0  0  0  0  0  0  0  0
   45.4017    4.8145   10.1005 C   0  0  0  0  0  0  0  0  0  0  0  0
   43.9515    4.3345    9.8771 C   0  0  0  0  0  0  0  0  0  0  0  0
   45.1305    4.5277   12.4737 C   0  0  0  0  0  0  0  0  0  0  0  0
   43.6805    4.0465   12.2499 C   0  0  0  0  0  0  0  0  0  0  0  0
   44.4106    4.7593   11.2049 C   0  0  0  0  0  0  0  0  0  0  0  0
   44.7460    3.4131   10.5499 C   0  0  0  0  0  0  0  0  0  0  0  0
   44.4316    4.7248   12.7378 C   0  0  0  0  0  0  0  0  0  0  0  0
   45.4197    5.8288   10.7487 C   0  0  0  0  0  0  0  0  0  0  0  0
   43.4586    3.7441   13.3246 C   0  0  0  0  0  0  0  0  0  0  0  0
   45.1786    3.5688    9.1195 C   0  0  0  0  0  0  0  0  0  0  0  0
   45.1868    6.7658   10.0011 O   0  0  0  0  0  0  0  0  0  0  0  0
   46.2433    3.2159    8.6432 O   0  0  0  0  0  0  0  0  0  0  0  0
   43.3181    2.5750   13.0056 O   0  0  0  0  0  0  0  0  0  0  0  0
   43.0900    5.1642   10.8059 O   0  0  0  0  0  0  0  0  0  0  0  0
   46.6695    5.6217   11.2079 O   0  0  0  0  0  0  0  0  0  0  0  0
   44.2420    4.1592    8.3519 O   0  0  0  0  0  0  0  0  0  0  0  0
   42.7574    4.2594   14.3519 O   0  0  0  0  0  0  0  0  0  0  0  0
   45.6984    5.2873   11.1865 N   0  0  0  0  0  0  0  0  0  0  0  0
   43.4091    3.3987   11.1637 N   0  0  0  0  0  0  0  0  0  0  0  0
   44.9123    5.0280    9.9724 C   0  0  0  0  0  0  0  0  0  0  0  0
   44.2474    3.6344    9.9733 C   0  0  0  0  0  0  0  0  0  0  0  0
   44.8941    5.0204   12.3870 C   0  0  0  0  0  0  0  0  0  0  0  0
   44.2295    3.6268   12.3682 C   0  0  0  0  0  0  0  0  0  0  0  0
   42.8823    4.7303   10.2708 H   0  0  0  0  0  0  0  0  0  0  0  0
   45.6503    5.1269   13.1202 H   0  0  0  0  0  0  0  0  0  0  0  0
   42.9436    2.5619   11.1983 H   0  0  0  0  0  0  0  0  0  0  0  0
   44.6283    2.4075   10.7156 H   0  0  0  0  0  0  0  0  0  0  0  0
   43.4666    4.3646   12.7841 H   0  0  0  0  0  0  0  0  0  0  0  0
   44.5150    2.9846   13.1067 H   0  0  0  0  0  0  0  0  0  0  0  0
   45.6712    4.3194    9.4361 H   0  0  0  0  0  0  0  0  0  0  0  0
   44.6671    5.7197    9.0855 H   0  0  0  0  0  0  0  0  0  0  0  0
   46.2377    6.1376   10.9961 H   0  0  0  0  0  0  0  0  0  0  0  0
   44.5486    6.3467   11.4586 H   0  0  0  0  0  0  0  0  0  0  0  0
   43.2571    5.2767   13.2171 H   0  0  0  0  0  0  0  0  0  0  0  0
   43.6045    6.4719   12.0065 H   0  0  0  0  0  0  0  0  0  0  0  0
   45.6689    4.9638   10.2125 H   0  0  0  0  0  0  0  0  0  0  0  0
   44.1657    5.7275    9.6306 H   0  0  0  0  0  0  0  0  0  0  0  0
   42.1364    3.4670   11.3523 H   0  0  0  0  0  0  0  0  0  0  0  0
   45.8131    2.0436   12.3137 H   0  0  0  0  0  0  0  0  0  0  0  0
   46.9493    6.4963   12.7777 H   0  0  0  0  0  0  0  0  0  0  0  0
   44.6922    3.4647    7.1498 H   0  0  0  0  0  0  0  0  0  0  0  0
   45.0236    6.2815   11.4542 H   0  0  0  0  0  0  0  0  0  0  0  0
   44.0606    2.5809   10.8961 H   0  0  0  0  0  0  0  0  0  0  0  0
   46.0933    3.9694    9.9947 H   0  0  0  0  0  0  0  0  0  0  0  0
   45.6673    5.5390    9.3230 H   0  0  0  0  0  0  0  0  0  0  0  0
   43.2779    5.1985    9.8229 H   0  0  0  0  0  0  0  0  0  0  0  0
   43.8841    3.8222    8.9112 H   0  0  0  0  0  0  0  0  0  0  0  0
   45.8047    3.6641   12.5295 H   0  0  0  0  0  0  0  0  0  0  0  0
   45.1964    5.0420   13.4391 H   0  0  0  0  0  0  0  0  0  0  0  0
   43.4145    3.3223   13.0276 H   0  0  0  0  0  0  0  0  0  0  0  0
   42.9882    4.8906   12.3556 H   0  0  0  0  0  0  0  0  0  0  0  0
   43.8908    2.7285   10.5514 H   0  0  0  0  0  0  0  0  0  0  0  0
   45.5717    2.9241   11.0806 H   0  0  0  0  0  0  0  0  0  0  0  0
   44.1810    5.7234   13.1212 H   0  0  0  0  0  0  0  0  0  0  0  0
   45.4232    4.4716   13.1305 H   0  0  0  0  0  0  0  0  0  0  0  0
   43.1247    5.3344    9.8407 H   0  0  0  0  0  0  0  0  0  0  0  0
   47.2026    6.3440   10.8103 H   0  0  0  0  0  0  0  0  0  0  0  0
   44.6482    4.1940    7.4590 H   0  0  0  0  0  0  0  0  0  0  0  0
   42.1688    3.5291   14.6346 H   0  0  0  0  0  0  0  0  0  0  0  0
   46.0124    6.2563   11.1916 H   0  0  0  0  0  0  0  0  0  0  0  0
   42.6573    4.0877   11.1604 H   0  0  0  0  0  0  0  0  0  0  0  0
   45.5714    5.1100    9.1013 H   0  0  0  0  0  0  0  0  0  0  0  0
   44.1412    5.8016    9.8674 H   0  0  0  0  0  0  0  0  0  0  0  0
   43.6217    3.5332    9.0798 H   0  0  0  0  0  0  0  0  0  0  0  0
   45.0152    2.8532    9.9106 H   0  0  0  0  0  0  0  0  0  0  0  0
   45.5392    5.0988   13.2689 H   0  0  0  0  0  0  0  0  0  0  0  0
   44.1210    5.7927   12.4849 H   0  0  0  0  0  0  0  0  0  0  0  0
   44.9972    2.8461   12.4375 H   0  0  0  0  0  0  0  0  0  0  0  0
   43.5900    3.5194   13.2514 H   0  0  0  0  0  0  0  0  0  0  0  0
  2  6  1  0
  3  1  1  0
  4  3  1  0
  5  1  1  0
  6  5  1  0
  2  4  1  0
  8  7  1  0
  9  7  1  0
 10  7  1  0
 11  9  1  0
 12  8  1  0
 13 10  2  0
 14 12  2  0
 15 11  2  0
 16  7  1  0
 17 10  1  0
 18 12  1  0
 19 11  1  0
 21 25  1  0
 22 20  1  0
 23 22  1  0
 24 20  1  0
 25 24  1  0
 21 23  1  0
 27 26  1  0
 28 26  1  0
 29 26  1  0
 30 28  1  0
 31 27  1  0
 32 29  2  0
 33 31  2  0
 34 30  2  0
 35 26  1  0
 36 29  1  0
 37 31  1  0
 38 30  1  0
 40 44  1  0
 41 39  1  0
 42 41  1  0
 43 39  1  0
 44 43  1  0
 40 42  1  0
  1 45  1  0
  2 46  1  0
  3 47  1  0
  3 48  1  0
  4 49  1  0
  4 50  1  0
  5 51  1  0
  5 52  1  0
  6 53  1  0
  6 54  1  0
  8 55  1  0
  8 56  1  0
  9 57  1  0
  9 58  1  0
 16 59  1  0
 17 60  1  0
 18 61  1  0
 19 62  1  0
 20 63  1  0
 21 64  1  0
 22 65  1  0
 22 66  1  0
 23 67  1  0
 23 68  1  0
 24 69  1  0
 24 70  1  0
 25 71  1  0
 25 72  1  0
 27 73  1  0
 27 74  1  0
 28 75  1  0
 28 76  1  0
 35 77  1  0
 36 78  1  0
 37 79  1  0
 38 80  1  0
 39 81  1  0
 40 82  1  0
 41 83  1  0
 41 84  1  0
 42 85  1  0
 42 86  1  0
 43 87  1  0
 43 88  1  0
 44 89  1  0
 44 90  1  0
M  END
> <Uni-Dock RESULT> 
ENERGY=   -8.605  LOWER_BOUND=    0.000  UPPER_BOUND=    0.000
INTER + INTRA:          -8.605
INTER:                  -8.605
INTRA:                   0.000
UNBOUND:                 0.000

$$$$

     RDKit          3D

 90 88  0  0  0  0  0  0  0  0999 V2000
   44.3929    4.0398   12.8722 N   0  0  0  0  0  0  0  0  0  0  0  0
   44.5579    6.4445   11.1401 N   0  0  0  0  0  0  0  0  0  0  0  0
   45.6803    4.5820   12.3989 C   0  0  0  0  0  0  0  0  0  0  0  0
   45.6190    6.0947   12.0948 C   0  0  0  0  0  0  0  0  0  0  0  0
   43.3522    4.3682   11.8798 C   0  0  0  0  0  0  0  0  0  0  0  0
   43.2717    5.8792   11.5713 C   0  0  0  0  0  0  0  0  0  0  0  0
   44.6827    5.3893   12.6968 C   0  0  0  0  0  0  0  0  0  0  0  0
   44.1966    6.8348   12.8315 C   0  0  0  0  0  0  0  0  0  0  0  0
   43.6159    4.4702   12.0943 C   0  0  0  0  0  0  0  0  0  0  0  0
   45.9998    5.3684   11.9083 C   0  0  0  0  0  0  0  0  0  0  0  0
   44.0835    3.0443   11.9913 C   0  0  0  0  0  0  0  0  0  0  0  0
   44.0271    7.5524   11.5266 C   0  0  0  0  0  0  0  0  0  0  0  0
   47.1100    5.3401   12.4218 O   0  0  0  0  0  0  0  0  0  0  0  0
   44.8441    8.2905   11.0020 O   0  0  0  0  0  0  0  0  0  0  0  0
   45.2297    2.6322   12.0124 O   0  0  0  0  0  0  0  0  0  0  0  0
   44.9236    4.9487   14.0525 O   0  0  0  0  0  0  0  0  0  0  0  0
   45.8497    5.4113   10.5733 O   0  0  0  0  0  0  0  0  0  0  0  0
   42.8359    7.3184   10.9484 O   0  0  0  0  0  0  0  0  0  0  0  0
   43.0542    2.1886   11.8200 O   0  0  0  0  0  0  0  0  0  0  0  0
   43.4613    6.0678   11.2294 N   0  0  0  0  0  0  0  0  0  0  0  0
   45.4604    4.5777   12.8468 N   0  0  0  0  0  0  0  0  0  0  0  0
   43.4645    4.5968   11.3153 C   0  0  0  0  0  0  0  0  0  0  0  0
   44.0948    4.0713   12.6229 C   0  0  0  0  0  0  0  0  0  0  0  0
   44.8264    6.5750   11.4543 C   0  0  0  0  0  0  0  0  0  0  0  0
   45.4575    6.0488   12.7615 C   0  0  0  0  0  0  0  0  0  0  0  0
   44.2163    5.4830   12.2397 C   0  0  0  0  0  0  0  0  0  0  0  0
   45.0240    4.3337   11.6226 C   0  0  0  0  0  0  0  0  0  0  0  0
   44.9227    6.8424   12.1728 C   0  0  0  0  0  0  0  0  0  0  0  0
   42.8663    5.6227   11.5129 C   0  0  0  0  0  0  0  0  0  0  0  0
   46.2457    6.8613   12.8814 C   0  0  0  0  0  0  0  0  0  0  0  0
   44.1601    3.1552   11.2729 C   0  0  0  0  0  0  0  0  0  0  0  0
   41.7695    5.3449   11.9720 O   0  0  0  0  0  0  0  0  0  0  0  0
   44.0263    2.6588   10.1681 O   0  0  0  0  0  0  0  0  0  0  0  0
   47.1509    6.0527   12.7596 O   0  0  0  0  0  0  0  0  0  0  0  0
   43.9712    5.1979   13.6274 O   0  0  0  0  0  0  0  0  0  0  0  0
   42.9814    6.0427   10.2377 O   0  0  0  0  0  0  0  0  0  0  0  0
   43.5072    2.6518   12.3385 O   0  0  0  0  0  0  0  0  0  0  0  0
   46.4048    7.9511   13.6557 O   0  0  0  0  0  0  0  0  0  0  0  0
   43.4718    5.7999   11.1071 N   0  0  0  0  0  0  0  0  0  0  0  0
   45.5969    4.7709   12.9051 N   0  0  0  0  0  0  0  0  0  0  0  0
   43.3272    4.5366   11.8435 C   0  0  0  0  0  0  0  0  0  0  0  0
   44.6827    3.8746   12.1728 C   0  0  0  0  0  0  0  0  0  0  0  0
   44.4102    6.6943   11.7989 C   0  0  0  0  0  0  0  0  0  0  0  0
   45.7569    6.0146   12.1284 C   0  0  0  0  0  0  0  0  0  0  0  0
   44.1556    4.5122   13.7440 H   0  0  0  0  0  0  0  0  0  0  0  0
   44.4805    7.4577   11.0687 H   0  0  0  0  0  0  0  0  0  0  0  0
   46.4402    4.3986   13.1665 H   0  0  0  0  0  0  0  0  0  0  0  0
   45.9974    4.0325   11.5037 H   0  0  0  0  0  0  0  0  0  0  0  0
   45.4642    6.6495   13.0288 H   0  0  0  0  0  0  0  0  0  0  0  0
   46.5821    6.4176   11.6855 H   0  0  0  0  0  0  0  0  0  0  0  0
   43.5419    3.8064   10.9567 H   0  0  0  0  0  0  0  0  0  0  0  0
   42.3844    4.0256   12.2622 H   0  0  0  0  0  0  0  0  0  0  0  0
   42.5316    6.0445   10.7809 H   0  0  0  0  0  0  0  0  0  0  0  0
   42.9187    6.4160   12.4610 H   0  0  0  0  0  0  0  0  0  0  0  0
   44.9084    7.4199   13.4298 H   0  0  0  0  0  0  0  0  0  0  0  0
   43.2564    6.8864   13.3947 H   0  0  0  0  0  0  0  0  0  0  0  0
   43.3268    4.7837   11.0865 H   0  0  0  0  0  0  0  0  0  0  0  0
   42.7277    4.4774   12.7383 H   0  0  0  0  0  0  0  0  0  0  0  0
   45.8952    4.8685   14.1547 H   0  0  0  0  0  0  0  0  0  0  0  0
   46.7688    5.3987   10.2273 H   0  0  0  0  0  0  0  0  0  0  0  0
   42.8578    7.8536   10.1253 H   0  0  0  0  0  0  0  0  0  0  0  0
   43.4803    1.3069   11.7721 H   0  0  0  0  0  0  0  0  0  0  0  0
   42.8713    6.4213   11.9839 H   0  0  0  0  0  0  0  0  0  0  0  0
   46.0490    4.2250   12.0912 H   0  0  0  0  0  0  0  0  0  0  0  0
   44.0035    4.1871   10.4520 H   0  0  0  0  0  0  0  0  0  0  0  0
   42.4318    4.2387   11.2416 H   0  0  0  0  0  0  0  0  0  0  0  0
   43.4643    4.3475   13.4770 H   0  0  0  0  0  0  0  0  0  0  0  0
   44.1258    2.9767   12.5959 H   0  0  0  0  0  0  0  0  0  0  0  0
   45.4572    6.3006   10.5997 H   0  0  0  0  0  0  0  0  0  0  0  0
   44.7937    7.6700   11.4832 H   0  0  0  0  0  0  0  0  0  0  0  0
   46.4901    6.4072   12.8356 H   0  0  0  0  0  0  0  0  0  0  0  0
   44.9194    6.4579   13.6252 H   0  0  0  0  0  0  0  0  0  0  0  0
   45.8041    3.9674   12.2988 H   0  0  0  0  0  0  0  0  0  0  0  0
   45.5072    4.6606   10.6941 H   0  0  0  0  0  0  0  0  0  0  0  0
   44.2784    7.6029   12.6349 H   0  0  0  0  0  0  0  0  0  0  0  0
   45.1039    7.1620   11.1401 H   0  0  0  0  0  0  0  0  0  0  0  0
   43.3870    4.4108   13.6567 H   0  0  0  0  0  0  0  0  0  0  0  0
   42.0618    6.0451    9.8935 H   0  0  0  0  0  0  0  0  0  0  0  0
   42.9929    1.8996   11.9735 H   0  0  0  0  0  0  0  0  0  0  0  0
   47.2922    7.8379   14.0550 H   0  0  0  0  0  0  0  0  0  0  0  0
   42.5637    6.2537   11.0223 H   0  0  0  0  0  0  0  0  0  0  0  0
   45.1580    5.0098   13.7941 H   0  0  0  0  0  0  0  0  0  0  0  0
   42.7270    3.8448   11.2426 H   0  0  0  0  0  0  0  0  0  0  0  0
   42.7737    4.7199   12.7731 H   0  0  0  0  0  0  0  0  0  0  0  0
   44.5085    2.9803   12.7812 H   0  0  0  0  0  0  0  0  0  0  0  0
   45.1690    3.5375   11.2490 H   0  0  0  0  0  0  0  0  0  0  0  0
   44.5949    7.5697   11.1668 H   0  0  0  0  0  0  0  0  0  0  0  0
   43.9485    7.0586   12.7250 H   0  0  0  0  0  0  0  0  0  0  0  0
   46.3014    5.7960   11.2014 H   0  0  0  0  0  0  0  0  0  0  0  0
   46.3803    6.7078   12.7042 H   0  0  0  0  0  0  0  0  0  0  0  0
  2  6  1  0
  3  1  1  0
  4  3  1  0
  5  1  1  0
  6  5  1  0
  2  4  1  0
  8  7  1  0
  9  7  1  0
 10  7  1  0
 11  9  1  0
 12  8  1  0
 13 10  2  0
 14 12  2  0
 15 11  2  0
 16  7  1  0
 17 10  1  0
 18 12  1  0
 19 11  1  0
 21 25  1  0
 22 20  1  0
 23 22  1  0
 24 20  1  0
 25 24  1  0
 21 23  1  0
 27 26  1  0
 28 26  1  0
 29 26  1  0
 30 28  1  0
 31 27  1  0
 32 29  2  0
 33 31  2  0
 34 30  2  0
 35 26  1  0
 36 29  1  0
 37 31  1  0
 38 30  1  0
 40 44  1  0
 41 39  1  0
 42 41  1  0
 43 39  1  0
 44 43  1  0
 40 42  1  0
  1 45  1  0
  2 46  1  0
  3 47  1  0
  3 48  1  0
  4 49  1  0
  4 50  1  0
  5 51  1  0
  5 52  1  0
  6 53  1  0
  6 54  1  0
  8 55  1  0
  8 56  1  0
  9 57  1  0
  9 58  1  0
 16 59  1  0
 17 60  1  0
 18 61  1  0
 19 62  1  0
 20 63  1  0
 21 64  1  0
 22 65  1  0
 22 66  1  0
 23 67  1  0
 23 68  1  0
 24 69  1  0
 24 70  1  0
 25 71  1  0
 25 72  1  0
 27 73  1  0
 27 74  1  0
 28 75  1  0
 28 76  1  0
 35 77  1  0
 36 78  1  0
 37 79  1  0
 38 80  1  0
 39 81  1  0
 40 82  1  0
 41 83  1  0
 41 84  1  0
 42 85  1  0
 42 86  1  0
 43 87  1  0
 43 88  1  0
 44 89  1  0
 44 90  1  0
M  END
> <Uni-Dock RESULT> 
ENERGY=   -8.594  LOWER_BOUND=    1.439  UPPER_BOUND=    3.113
INTER + INTRA:          -8.594
INTER:                  -8.594
INTRA:                   0.000
UNBOUND:                 0.000

$$$$

     RDKit          3D

 90 88  0  0  0  0  0  0  0  0999 V2000
   44.1710    4.1558   10.9665 N   0  0  0  0  0  0  0  0  0  0  0  0
   44.9172    6.1171   13.0657 N   0  0  0  0  0  0  0  0  0  0  0  0
   43.3001    5.2894   11.3297 C   0  0  0  0  0  0  0  0  0  0  0  0
   44.0838    6.4855   11.9126 C   0  0  0  0  0  0  0  0  0  0  0  0
   44.9677    3.7785   12.1490 C   0  0  0  0  0  0  0  0  0  0  0  0
   45.7651    4.9622   12.7389 C   0  0  0  0  0  0  0  0  0  0  0  0
   44.6109    5.4216   11.3410 C   0  0  0  0  0  0  0  0  0  0  0  0
   45.8058    6.3556   11.5501 C   0  0  0  0  0  0  0  0  0  0  0  0
   44.8558    4.0247   11.9194 C   0  0  0  0  0  0  0  0  0  0  0  0
   43.3448    6.0841   11.9022 C   0  0  0  0  0  0  0  0  0  0  0  0
   43.6936    3.0988   11.6859 C   0  0  0  0  0  0  0  0  0  0  0  0
   46.0268    6.7643   12.9750 C   0  0  0  0  0  0  0  0  0  0  0  0
   42.5411    6.7153   11.2292 O   0  0  0  0  0  0  0  0  0  0  0  0
   45.6321    7.7942   13.4958 O   0  0  0  0  0  0  0  0  0  0  0  0
   42.5443    3.3985   11.4150 O   0  0  0  0  0  0  0  0  0  0  0  0
   44.4903    5.2853    9.9067 O   0  0  0  0  0  0  0  0  0  0  0  0
   43.1849    5.9435   13.2293 O   0  0  0  0  0  0  0  0  0  0  0  0
   46.7425    5.8665   13.6749 O   0  0  0  0  0  0  0  0  0  0  0  0
   44.0400    1.8051   11.8516 O   0  0  0  0  0  0  0  0  0  0  0  0
   45.6324    5.2002   13.0767 N   0  0  0  0  0  0  0  0  0  0  0  0
   43.5797    5.1942   10.9275 N   0  0  0  0  0  0  0  0  0  0  0  0
   44.8685    3.9911   12.7222 C   0  0  0  0  0  0  0  0  0  0  0  0
   44.3741    3.9984   11.2598 C   0  0  0  0  0  0  0  0  0  0  0  0
   44.8392    6.3965   12.7437 C   0  0  0  0  0  0  0  0  0  0  0  0
   44.3435    6.4037   11.2815 C   0  0  0  0  0  0  0  0  0  0  0  0
   44.9367    5.2074   11.8731 C   0  0  0  0  0  0  0  0  0  0  0  0
   43.5264    4.6643   12.1379 C   0  0  0  0  0  0  0  0  0  0  0  0
   45.0668    6.7211   12.0805 C   0  0  0  0  0  0  0  0  0  0  0  0
   45.9464    4.5199   12.8102 C   0  0  0  0  0  0  0  0  0  0  0  0
   44.1591    7.5235   11.1943 C   0  0  0  0  0  0  0  0  0  0  0  0
   43.5258    3.1835   12.3922 C   0  0  0  0  0  0  0  0  0  0  0  0
   46.7988    3.7103   12.4803 O   0  0  0  0  0  0  0  0  0  0  0  0
   43.1189    2.6217   13.3941 O   0  0  0  0  0  0  0  0  0  0  0  0
   42.9633    7.3510   11.0260 O   0  0  0  0  0  0  0  0  0  0  0  0
   45.3025    4.9310   10.5105 O   0  0  0  0  0  0  0  0  0  0  0  0
   45.7840    4.8431   14.1082 O   0  0  0  0  0  0  0  0  0  0  0  0
   44.0348    2.4768   11.3643 O   0  0  0  0  0  0  0  0  0  0  0  0
   44.7849    8.5674   10.6188 O   0  0  0  0  0  0  0  0  0  0  0  0
   45.4537    4.9760   13.1446 N   0  0  0  0  0  0  0  0  0  0  0  0
   43.5842    5.4342   10.8856 N   0  0  0  0  0  0  0  0  0  0  0  0
   45.0693    3.9013   12.2191 C   0  0  0  0  0  0  0  0  0  0  0  0
   43.6870    4.1323   11.5711 C   0  0  0  0  0  0  0  0  0  0  0  0
   45.3209    6.2870   12.4944 C   0  0  0  0  0  0  0  0  0  0  0  0
   43.9364    6.4985   11.8443 C   0  0  0  0  0  0  0  0  0  0  0  0
   44.8147    4.4747   10.2430 H   0  0  0  0  0  0  0  0  0  0  0  0
   45.5019    6.9071   13.3332 H   0  0  0  0  0  0  0  0  0  0  0  0
   42.7581    5.6146   10.4349 H   0  0  0  0  0  0  0  0  0  0  0  0
   42.5450    4.9497   12.0497 H   0  0  0  0  0  0  0  0  0  0  0  0
   44.7181    6.9228   11.1313 H   0  0  0  0  0  0  0  0  0  0  0  0
   43.3758    7.2613   12.2228 H   0  0  0  0  0  0  0  0  0  0  0  0
   44.3037    3.3556   12.9132 H   0  0  0  0  0  0  0  0  0  0  0  0
   45.6630    2.9819   11.8621 H   0  0  0  0  0  0  0  0  0  0  0  0
   46.2762    4.6314   13.6495 H   0  0  0  0  0  0  0  0  0  0  0  0
   46.5415    5.2709   12.0275 H   0  0  0  0  0  0  0  0  0  0  0  0
   45.6724    7.2779   10.9683 H   0  0  0  0  0  0  0  0  0  0  0  0
   46.7292    5.9131   11.1559 H   0  0  0  0  0  0  0  0  0  0  0  0
   45.0278    4.0531   12.9997 H   0  0  0  0  0  0  0  0  0  0  0  0
   45.7316    3.5800   11.4306 H   0  0  0  0  0  0  0  0  0  0  0  0
   43.6782    5.7679    9.6447 H   0  0  0  0  0  0  0  0  0  0  0  0
   42.3492    6.4216   13.4229 H   0  0  0  0  0  0  0  0  0  0  0  0
   46.8206    6.2645   14.5693 H   0  0  0  0  0  0  0  0  0  0  0  0
   43.2133    1.3101   11.6710 H   0  0  0  0  0  0  0  0  0  0  0  0
   46.4740    5.2158   12.4990 H   0  0  0  0  0  0  0  0  0  0  0  0
   42.7394    5.1784   11.5067 H   0  0  0  0  0  0  0  0  0  0  0  0
   44.0138    3.8929   13.4030 H   0  0  0  0  0  0  0  0  0  0  0  0
   45.5041    3.1139   12.8852 H   0  0  0  0  0  0  0  0  0  0  0  0
   45.2304    3.9344   10.5772 H   0  0  0  0  0  0  0  0  0  0  0  0
   43.7614    3.1083   11.0799 H   0  0  0  0  0  0  0  0  0  0  0  0
   43.9834    6.4621   13.4270 H   0  0  0  0  0  0  0  0  0  0  0  0
   45.4538    7.2861   12.9221 H   0  0  0  0  0  0  0  0  0  0  0  0
   43.7082    7.2810   11.1181 H   0  0  0  0  0  0  0  0  0  0  0  0
   45.1973    6.5019   10.6000 H   0  0  0  0  0  0  0  0  0  0  0  0
   42.8500    4.8431   11.2951 H   0  0  0  0  0  0  0  0  0  0  0  0
   43.0934    5.1398   13.0261 H   0  0  0  0  0  0  0  0  0  0  0  0
   46.1019    7.0230   11.8699 H   0  0  0  0  0  0  0  0  0  0  0  0
   44.8525    7.0150   13.1145 H   0  0  0  0  0  0  0  0  0  0  0  0
   45.3681    3.9562   10.4262 H   0  0  0  0  0  0  0  0  0  0  0  0
   46.4570    4.3086   14.5829 H   0  0  0  0  0  0  0  0  0  0  0  0
   43.9717    1.5426   11.6587 H   0  0  0  0  0  0  0  0  0  0  0  0
   44.0919    8.9962   10.0750 H   0  0  0  0  0  0  0  0  0  0  0  0
   46.4162    4.8391   13.4487 H   0  0  0  0  0  0  0  0  0  0  0  0
   44.2724    5.4486   10.1332 H   0  0  0  0  0  0  0  0  0  0  0  0
   45.0544    2.9527   12.7668 H   0  0  0  0  0  0  0  0  0  0  0  0
   45.8308    3.8087   11.4344 H   0  0  0  0  0  0  0  0  0  0  0  0
   43.4934    3.3375   10.8424 H   0  0  0  0  0  0  0  0  0  0  0  0
   42.9000    4.0606   12.3321 H   0  0  0  0  0  0  0  0  0  0  0  0
   45.4904    7.0703   13.2412 H   0  0  0  0  0  0  0  0  0  0  0  0
   46.1027    6.3951   11.7324 H   0  0  0  0  0  0  0  0  0  0  0  0
   43.1641    6.5571   12.6214 H   0  0  0  0  0  0  0  0  0  0  0  0
   43.9273    7.4594   11.3177 H   0  0  0  0  0  0  0  0  0  0  0  0
  2  6  1  0
  3  1  1  0
  4  3  1  0
  5  1  1  0
  6  5  1  0
  2  4  1  0
  8  7  1  0
  9  7  1  0
 10  7  1  0
 11  9  1  0
 12  8  1  0
 13 10  2  0
 14 12  2  0
 15 11  2  0
 16  7  1  0
 17 10  1  0
 18 12  1  0
 19 11  1  0
 21 25  1  0
 22 20  1  0
 23 22  1  0
 24 20  1  0
 25 24  1  0
 21 23  1  0
 27 26  1  0
 28 26  1  0
 29 26  1  0
 30 28  1  0
 31 27  1  0
 32 29  2  0
 33 31  2  0
 34 30  2  0
 35 26  1  0
 36 29  1  0
 37 31  1  0
 38 30  1  0
 40 44  1  0
 41 39  1  0
 42 41  1  0
 43 39  1  0
 44 43  1  0
 40 42  1  0
  1 45  1  0
  2 46  1  0
  3 47  1  0
  3 48  1  0
  4 49  1  0
  4 50  1  0
  5 51  1  0
  5 52  1  0
  6 53  1  0
  6 54  1  0
  8 55  1  0
  8 56  1  0
  9 57  1  0
  9 58  1  0
 16 59  1  0
 17 60  1  0
 18 61  1  0
 19 62  1  0
 20 63  1  0
 21 64  1  0
 22 65  1  0
 22 66  1  0
 23 67  1  0
 23 68  1  0
 24 69  1  0
 24 70  1  0
 25 71  1  0
 25 72  1  0
 27 73  1  0
 27 74  1  0
 28 75  1  0
 28 76  1  0
 35 77  1  0
 36 78  1  0
 37 79  1  0
 38 80  1  0
 39 81  1  0
 40 82  1  0
 41 83  1  0
 41 84  1  0
 42 85  1  0
 42 86  1  0
 43 87  1  0
 43 88  1  0
 44 89  1  0
 44 90  1  0
M  END
> <Uni-Dock RESULT> 
ENERGY=   -7.725  LOWER_BOUND=    1.396  UPPER_BOUND=    2.985
INTER + INTRA:          -7.725
INTER:                  -7.725
INTRA:                   0.000
UNBOUND:                 0.000

$$$$

     RDKit          3D

 90 88  0  0  0  0  0  0  0  0999 V2000
   45.1281    5.1914   13.6549 N   0  0  0  0  0  0  0  0  0  0  0  0
   44.7998    4.7713   10.7350 N   0  0  0  0  0  0  0  0  0  0  0  0
   45.4207    6.2494   12.6698 C   0  0  0  0  0  0  0  0  0  0  0  0
   44.6180    6.0887   11.3604 C   0  0  0  0  0  0  0  0  0  0  0  0
   45.3556    3.8808   13.0176 C   0  0  0  0  0  0  0  0  0  0  0  0
   44.5525    3.7007   11.7109 C   0  0  0  0  0  0  0  0  0  0  0  0
   44.4292    5.4050   12.4710 C   0  0  0  0  0  0  0  0  0  0  0  0
   43.2561    4.9885   11.5797 C   0  0  0  0  0  0  0  0  0  0  0  0
   45.2013    4.2004   13.0173 C   0  0  0  0  0  0  0  0  0  0  0  0
   45.3252    6.3877   11.7039 C   0  0  0  0  0  0  0  0  0  0  0  0
   46.3345    4.6098   13.9177 C   0  0  0  0  0  0  0  0  0  0  0  0
   43.6614    4.3964   10.2639 C   0  0  0  0  0  0  0  0  0  0  0  0
   45.2545    7.6052   11.8019 O   0  0  0  0  0  0  0  0  0  0  0  0
   43.7445    4.9931    9.2034 O   0  0  0  0  0  0  0  0  0  0  0  0
   46.8752    5.6992   13.9874 O   0  0  0  0  0  0  0  0  0  0  0  0
   43.8219    6.0809   13.5955 O   0  0  0  0  0  0  0  0  0  0  0  0
   46.2037    5.8048   10.8701 O   0  0  0  0  0  0  0  0  0  0  0  0
   43.9318    3.0813   10.3397 O   0  0  0  0  0  0  0  0  0  0  0  0
   46.7691    3.5830   14.6779 O   0  0  0  0  0  0  0  0  0  0  0  0
   44.7160    3.7664   11.3143 N   0  0  0  0  0  0  0  0  0  0  0  0
   45.0527    6.1897   13.0014 N   0  0  0  0  0  0  0  0  0  0  0  0
   45.6310    3.7999   12.4688 C   0  0  0  0  0  0  0  0  0  0  0  0
   45.2100    4.8276   13.5411 C   0  0  0  0  0  0  0  0  0  0  0  0
   44.5573    5.1283   10.7747 C   0  0  0  0  0  0  0  0  0  0  0  0
   44.1373    6.1567   11.8471 C   0  0  0  0  0  0  0  0  0  0  0  0
   44.5753    4.8136   12.2177 C   0  0  0  0  0  0  0  0  0  0  0  0
   45.9724    5.3738   12.5147 C   0  0  0  0  0  0  0  0  0  0  0  0
   43.8958    5.4562   11.0025 C   0  0  0  0  0  0  0  0  0  0  0  0
   44.6639    3.2991   11.9556 C   0  0  0  0  0  0  0  0  0  0  0  0
   43.7083    6.9390   11.1403 C   0  0  0  0  0  0  0  0  0  0  0  0
   46.7878    4.4446   13.3688 C   0  0  0  0  0  0  0  0  0  0  0  0
   44.2531    2.4160   12.6920 O   0  0  0  0  0  0  0  0  0  0  0  0
   47.8651    3.9540   13.0792 O   0  0  0  0  0  0  0  0  0  0  0  0
   44.5534    7.7544   11.4704 O   0  0  0  0  0  0  0  0  0  0  0  0
   43.7226    5.0412   13.3526 O   0  0  0  0  0  0  0  0  0  0  0  0
   45.3156    2.9857   10.8187 O   0  0  0  0  0  0  0  0  0  0  0  0
   46.2071    4.1812   14.5555 O   0  0  0  0  0  0  0  0  0  0  0  0
   42.4777    7.3433   10.7732 O   0  0  0  0  0  0  0  0  0  0  0  0
   44.9826    3.7362   11.4361 N   0  0  0  0  0  0  0  0  0  0  0  0
   44.9170    6.3376   12.8632 N   0  0  0  0  0  0  0  0  0  0  0  0
   45.2635    3.8449   12.8743 C   0  0  0  0  0  0  0  0  0  0  0  0
   45.8035    5.2341   13.2776 C   0  0  0  0  0  0  0  0  0  0  0  0
   44.1320    4.8492   10.9923 C   0  0  0  0  0  0  0  0  0  0  0  0
   44.6814    6.2302   11.4110 C   0  0  0  0  0  0  0  0  0  0  0  0
   44.1400    5.2548   13.8984 H   0  0  0  0  0  0  0  0  0  0  0  0
   44.1597    4.6732    9.9488 H   0  0  0  0  0  0  0  0  0  0  0  0
   45.1868    7.2205   13.1198 H   0  0  0  0  0  0  0  0  0  0  0  0
   46.4960    6.2537   12.4518 H   0  0  0  0  0  0  0  0  0  0  0  0
   43.5518    6.2504   11.5630 H   0  0  0  0  0  0  0  0  0  0  0  0
   44.9309    6.8621   10.6508 H   0  0  0  0  0  0  0  0  0  0  0  0
   46.4274    3.7557   12.8194 H   0  0  0  0  0  0  0  0  0  0  0  0
   45.0738    3.0942   13.7261 H   0  0  0  0  0  0  0  0  0  0  0  0
   44.8195    2.7407   11.2559 H   0  0  0  0  0  0  0  0  0  0  0  0
   43.4807    3.6606   11.9429 H   0  0  0  0  0  0  0  0  0  0  0  0
   42.6207    5.8571   11.3590 H   0  0  0  0  0  0  0  0  0  0  0  0
   42.5919    4.2871   12.1000 H   0  0  0  0  0  0  0  0  0  0  0  0
   45.6349    3.5941   12.2161 H   0  0  0  0  0  0  0  0  0  0  0  0
   44.5223    3.5748   13.6099 H   0  0  0  0  0  0  0  0  0  0  0  0
   44.0423    7.0319   13.5056 H   0  0  0  0  0  0  0  0  0  0  0  0
   46.6833    6.5580   10.4611 H   0  0  0  0  0  0  0  0  0  0  0  0
   44.1644    2.8293    9.4195 H   0  0  0  0  0  0  0  0  0  0  0  0
   47.4923    3.9707   15.2144 H   0  0  0  0  0  0  0  0  0  0  0  0
   43.8028    3.4582   11.6511 H   0  0  0  0  0  0  0  0  0  0  0  0
   45.9658    6.4962   12.6637 H   0  0  0  0  0  0  0  0  0  0  0  0
   46.6458    4.0241   12.1173 H   0  0  0  0  0  0  0  0  0  0  0  0
   45.6659    2.8014   12.9181 H   0  0  0  0  0  0  0  0  0  0  0  0
   44.2676    4.5143   14.0070 H   0  0  0  0  0  0  0  0  0  0  0  0
   45.9622    4.8496   14.3371 H   0  0  0  0  0  0  0  0  0  0  0  0
   45.4989    5.4418   10.3071 H   0  0  0  0  0  0  0  0  0  0  0  0
   43.8031    5.1054    9.9800 H   0  0  0  0  0  0  0  0  0  0  0  0
   44.1018    7.1552   11.3979 H   0  0  0  0  0  0  0  0  0  0  0  0
   43.1228    5.9335   12.1990 H   0  0  0  0  0  0  0  0  0  0  0  0
   45.9293    6.3340   13.0402 H   0  0  0  0  0  0  0  0  0  0  0  0
   46.5315    5.5226   11.5832 H   0  0  0  0  0  0  0  0  0  0  0  0
   42.9062    4.9997   10.8636 H   0  0  0  0  0  0  0  0  0  0  0  0
   44.4588    5.2856   10.0776 H   0  0  0  0  0  0  0  0  0  0  0  0
   44.0795    4.5006   14.0889 H   0  0  0  0  0  0  0  0  0  0  0  0
   45.3308    2.0041   10.8040 H   0  0  0  0  0  0  0  0  0  0  0  0
   46.8369    3.5763   15.0037 H   0  0  0  0  0  0  0  0  0  0  0  0
   42.4891    8.3131   10.9123 H   0  0  0  0  0  0  0  0  0  0  0  0
   44.5180    2.8505   11.2431 H   0  0  0  0  0  0  0  0  0  0  0  0
   44.0219    6.2167   13.3366 H   0  0  0  0  0  0  0  0  0  0  0  0
   45.9990    3.0810   13.1487 H   0  0  0  0  0  0  0  0  0  0  0  0
   44.3482    3.6294   13.4400 H   0  0  0  0  0  0  0  0  0  0  0  0
   45.9231    5.2720   14.3660 H   0  0  0  0  0  0  0  0  0  0  0  0
   46.8000    5.3883   12.8455 H   0  0  0  0  0  0  0  0  0  0  0  0
   44.0443    4.8134    9.9010 H   0  0  0  0  0  0  0  0  0  0  0  0
   43.1218    4.7189   11.4001 H   0  0  0  0  0  0  0  0  0  0  0  0
   45.6160    6.4381   10.8753 H   0  0  0  0  0  0  0  0  0  0  0  0
   43.9684    7.0077   11.1148 H   0  0  0  0  0  0  0  0  0  0  0  0
  2  6  1  0
  3  1  1  0
  4  3  1  0
  5  1  1  0
  6  5  1  0
  2  4  1  0
  8  7  1  0
  9  7  1  0
 10  7  1  0
 11  9  1  0
 12  8  1  0
 13 10  2  0
 14 12  2  0
 15 11  2  0
 16  7  1  0
 17 10  1  0
 18 12  1  0
 19 11  1  0
 21 25  1  0
 22 20  1  0
 23 22  1  0
 24 20  1  0
 25 24  1  0
 21 23  1  0
 27 26  1  0
 28 26  1  0
 29 26  1  0
 30 28  1  0
 31 27  1  0
 32 29  2  0
 33 31  2  0
 34 30  2  0
 35 26  1  0
 36 29  1  0
 37 31  1  0
 38 30  1  0
 40 44  1  0
 41 39  1  0
 42 41  1  0
 43 39  1  0
 44 43  1  0
 40 42  1  0
  1 45  1  0
  2 46  1  0
  3 47  1  0
  3 48  1  0
  4 49  1  0
  4 50  1  0
  5 51  1  0
  5 52  1  0
  6 53  1  0
  6 54  1  0
  8 55  1  0
  8 56  1  0
  9 57  1  0
  9 58  1  0
 16 59  1  0
 17 60  1  0
 18 61  1  0
 19 62  1  0
 20 63  1  0
 21 64  1  0
 22 65  1  0
 22 66  1  0
 23 67  1  0
 23 68  1  0
 24 69  1  0
 24 70  1  0
 25 71  1  0
 25 72  1  0
 27 73  1  0
 27 74  1  0
 28 75  1  0
 28 76  1  0
 35 77  1  0
 36 78  1  0
 37 79  1  0
 38 80  1  0
 39 81  1  0
 40 82  1  0
 41 83  1  0
 41 84  1  0
 42 85  1  0
 42 86  1  0
 43 87  1  0
 43 88  1  0
 44 89  1  0
 44 90  1  0
M  END
> <Uni-Dock RESULT> 
ENERGY=   -7.502  LOWER_BOUND=    1.296  UPPER_BOUND=    3.808
INTER + INTRA:          -7.502
INTER:                  -7.502
INTRA:                   0.000
UNBOUND:                 0.000

$$$$

     RDKit          3D

 90 88  0  0  0  0  0  0  0  0999 V2000
   45.3893    6.3733   12.7412 N   0  0  0  0  0  0  0  0  0  0  0  0
   44.0741    4.8820   10.5375 N   0  0  0  0  0  0  0  0  0  0  0  0
   43.9872    5.9228   12.8228 C   0  0  0  0  0  0  0  0  0  0  0  0
   43.7028    4.6841   11.9456 C   0  0  0  0  0  0  0  0  0  0  0  0
   45.7265    6.6033   11.3238 C   0  0  0  0  0  0  0  0  0  0  0  0
   45.4563    5.3704   10.4342 C   0  0  0  0  0  0  0  0  0  0  0  0
   44.8918    5.1885   12.2078 C   0  0  0  0  0  0  0  0  0  0  0  0
   45.2015    3.8822   11.4719 C   0  0  0  0  0  0  0  0  0  0  0  0
   45.6000    6.3924   11.5796 C   0  0  0  0  0  0  0  0  0  0  0  0
   43.3701    5.3728   12.2956 C   0  0  0  0  0  0  0  0  0  0  0  0
   45.3199    7.6702   12.3219 C   0  0  0  0  0  0  0  0  0  0  0  0
   44.5912    3.7841   10.1065 C   0  0  0  0  0  0  0  0  0  0  0  0
   42.6926    5.0578   13.2645 O   0  0  0  0  0  0  0  0  0  0  0  0
   43.5394    3.2327    9.8283 O   0  0  0  0  0  0  0  0  0  0  0  0
   44.4052    7.8992   13.0933 O   0  0  0  0  0  0  0  0  0  0  0  0
   45.4343    5.0066   13.5355 O   0  0  0  0  0  0  0  0  0  0  0  0
   42.8086    5.8956   11.1920 O   0  0  0  0  0  0  0  0  0  0  0  0
   45.3358    4.3725    9.1539 O   0  0  0  0  0  0  0  0  0  0  0  0
   46.2096    8.6368   12.0131 O   0  0  0  0  0  0  0  0  0  0  0  0
   45.0974    5.3165   10.1962 N   0  0  0  0  0  0  0  0  0  0  0  0
   44.4043    5.7703   13.0503 N   0  0  0  0  0  0  0  0  0  0  0  0
   45.3144    6.6131   10.8616 C   0  0  0  0  0  0  0  0  0  0  0  0
   45.5113    6.4816   12.3871 C   0  0  0  0  0  0  0  0  0  0  0  0
   43.9912    4.6040   10.8595 C   0  0  0  0  0  0  0  0  0  0  0  0
   44.1872    4.4732   12.3854 C   0  0  0  0  0  0  0  0  0  0  0  0
   45.0429    5.3451   11.5850 C   0  0  0  0  0  0  0  0  0  0  0  0
   44.1771    6.5416   12.0005 C   0  0  0  0  0  0  0  0  0  0  0  0
   44.2456    4.0577   11.3432 C   0  0  0  0  0  0  0  0  0  0  0  0
   45.8018    5.6744   10.2866 C   0  0  0  0  0  0  0  0  0  0  0  0
   43.4814    3.5954   12.5495 C   0  0  0  0  0  0  0  0  0  0  0  0
   44.8734    7.8535   11.7731 C   0  0  0  0  0  0  0  0  0  0  0  0
   47.0029    5.8687   10.1844 O   0  0  0  0  0  0  0  0  0  0  0  0
   44.4803    8.7690   11.0714 O   0  0  0  0  0  0  0  0  0  0  0  0
   42.7458    4.2701   13.2507 O   0  0  0  0  0  0  0  0  0  0  0  0
   45.9965    5.0668   12.6244 O   0  0  0  0  0  0  0  0  0  0  0  0
   45.0003    5.8001    9.2107 O   0  0  0  0  0  0  0  0  0  0  0  0
   46.0347    7.9524   12.4487 O   0  0  0  0  0  0  0  0  0  0  0  0
   43.6127    2.2742   12.7726 O   0  0  0  0  0  0  0  0  0  0  0  0
   45.0578    5.6076   10.2181 N   0  0  0  0  0  0  0  0  0  0  0  0
   44.2950    5.5554   13.0857 N   0  0  0  0  0  0  0  0  0  0  0  0
   45.7090    6.4687   11.2150 C   0  0  0  0  0  0  0  0  0  0  0  0
   44.8042    6.7735   12.4284 C   0  0  0  0  0  0  0  0  0  0  0  0
   44.5074    4.4048   10.8581 C   0  0  0  0  0  0  0  0  0  0  0  0
   43.6123    4.7267   12.0743 C   0  0  0  0  0  0  0  0  0  0  0  0
   45.9814    5.6184   13.0862 H   0  0  0  0  0  0  0  0  0  0  0  0
   43.9823    4.0027   10.0314 H   0  0  0  0  0  0  0  0  0  0  0  0
   43.7562    5.6862   13.8673 H   0  0  0  0  0  0  0  0  0  0  0  0
   43.3244    6.7476   12.5323 H   0  0  0  0  0  0  0  0  0  0  0  0
   44.2468    3.8196   12.3464 H   0  0  0  0  0  0  0  0  0  0  0  0
   42.6355    4.4445   11.9985 H   0  0  0  0  0  0  0  0  0  0  0  0
   45.1593    7.4657   10.9520 H   0  0  0  0  0  0  0  0  0  0  0  0
   46.7863    6.8723   11.2561 H   0  0  0  0  0  0  0  0  0  0  0  0
   45.6609    5.6303    9.3900 H   0  0  0  0  0  0  0  0  0  0  0  0
   46.1483    4.5636   10.7072 H   0  0  0  0  0  0  0  0  0  0  0  0
   44.8329    3.0243   12.0509 H   0  0  0  0  0  0  0  0  0  0  0  0
   46.2834    3.7172   11.3945 H   0  0  0  0  0  0  0  0  0  0  0  0
   45.2919    6.5534   10.5419 H   0  0  0  0  0  0  0  0  0  0  0  0
   46.6845    6.2286   11.6081 H   0  0  0  0  0  0  0  0  0  0  0  0
   44.6699    4.9225   14.1435 H   0  0  0  0  0  0  0  0  0  0  0  0
   41.8512    5.9393   11.4068 H   0  0  0  0  0  0  0  0  0  0  0  0
   44.8314    4.2206    8.3251 H   0  0  0  0  0  0  0  0  0  0  0  0
   45.9280    9.4042   12.5544 H   0  0  0  0  0  0  0  0  0  0  0  0
   45.9435    4.7588   10.3200 H   0  0  0  0  0  0  0  0  0  0  0  0
   43.5586    6.3278   12.9246 H   0  0  0  0  0  0  0  0  0  0  0  0
   44.4626    7.2721   10.6522 H   0  0  0  0  0  0  0  0  0  0  0  0
   46.1975    7.0896   10.4222 H   0  0  0  0  0  0  0  0  0  0  0  0
   46.4521    5.9581   12.5970 H   0  0  0  0  0  0  0  0  0  0  0  0
   45.6018    7.4801   12.8282 H   0  0  0  0  0  0  0  0  0  0  0  0
   43.0497    5.1260   10.6487 H   0  0  0  0  0  0  0  0  0  0  0  0
   43.9030    3.6045   10.4188 H   0  0  0  0  0  0  0  0  0  0  0  0
   43.3044    3.9963   12.8250 H   0  0  0  0  0  0  0  0  0  0  0  0
   45.0385    3.8145   12.5958 H   0  0  0  0  0  0  0  0  0  0  0  0
   43.9040    6.5055   13.0607 H   0  0  0  0  0  0  0  0  0  0  0  0
   43.2514    6.5667   11.4133 H   0  0  0  0  0  0  0  0  0  0  0  0
   44.9394    3.2570   11.0525 H   0  0  0  0  0  0  0  0  0  0  0  0
   43.5241    4.1677   10.5253 H   0  0  0  0  0  0  0  0  0  0  0  0
   46.6024    5.8367   12.6674 H   0  0  0  0  0  0  0  0  0  0  0  0
   45.6056    6.0469    8.4780 H   0  0  0  0  0  0  0  0  0  0  0  0
   46.3749    8.8431   12.2154 H   0  0  0  0  0  0  0  0  0  0  0  0
   43.0762    2.1090   13.5755 H   0  0  0  0  0  0  0  0  0  0  0  0
   45.7323    5.3387    9.5037 H   0  0  0  0  0  0  0  0  0  0  0  0
   45.0952    5.0288   13.4354 H   0  0  0  0  0  0  0  0  0  0  0  0
   45.9941    7.4110   10.7347 H   0  0  0  0  0  0  0  0  0  0  0  0
   46.6342    5.9894   11.5593 H   0  0  0  0  0  0  0  0  0  0  0  0
   45.3709    7.3561   13.1630 H   0  0  0  0  0  0  0  0  0  0  0  0
   43.9575    7.3977   12.1166 H   0  0  0  0  0  0  0  0  0  0  0  0
   43.9219    3.8478   10.1186 H   0  0  0  0  0  0  0  0  0  0  0  0
   45.3312    3.7522   11.1731 H   0  0  0  0  0  0  0  0  0  0  0  0
   42.7003    5.2379   11.7417 H   0  0  0  0  0  0  0  0  0  0  0  0
   43.2945    3.7906   12.5470 H   0  0  0  0  0  0  0  0  0  0  0  0
  2  6  1  0
  3  1  1  0
  4  3  1  0
  5  1  1  0
  6  5  1  0
  2  4  1  0
  8  7  1  0
  9  7  1  0
 10  7  1  0
 11  9  1  0
 12  8  1  0
 13 10  2  0
 14 12  2  0
 15 11  2  0
 16  7  1  0
 17 10  1  0
 18 12  1  0
 19 11  1  0
 21 25  1  0
 22 20  1  0
 23 22  1  0
 24 20  1  0
 25 24  1  0
 21 23  1  0
 27 26  1  0
 28 26  1  0
 29 26  1  0
 30 28  1  0
 31 27  1  0
 32 29  2  0
 33 31  2  0
 34 30  2  0
 35 26  1  0
 36 29  1  0
 37 31  1  0
 38 30  1  0
 40 44  1  0
 41 39  1  0
 42 41  1  0
 43 39  1  0
 44 43  1  0
 40 42  1  0
  1 45  1  0
  2 46  1  0
  3 47  1  0
  3 48  1  0
  4 49  1  0
  4 50  1  0
  5 51  1  0
  5 52  1  0
  6 53  1  0
  6 54  1  0
  8 55  1  0
  8 56  1  0
  9 57  1  0
  9 58  1  0
 16 59  1  0
 17 60  1  0
 18 61  1  0
 19 62  1  0
 20 63  1  0
 21 64  1  0
 22 65  1  0
 22 66  1  0
 23 67  1  0
 23 68  1  0
 24 69  1  0
 24 70  1  0
 25 71  1  0
 25 72  1  0
 27 73  1  0
 27 74  1  0
 28 75  1  0
 28 76  1  0
 35 77  1  0
 36 78  1  0
 37 79  1  0
 38 80  1  0
 39 81  1  0
 40 82  1  0
 41 83  1  0
 41 84  1  0
 42 85  1  0
 42 86  1  0
 43 87  1  0
 43 88  1  0
 44 89  1  0
 44 90  1  0
M  END
> <Uni-Dock RESULT> 
ENERGY=   -7.347  LOWER_BOUND=    1.228  UPPER_BOUND=    3.322
INTER + INTRA:          -7.347
INTER:                  -7.347
INTRA:                   0.000
UNBOUND:                 0.000

$$$$

     RDKit          3D

 90 88  0  0  0  0  0  0  0  0999 V2000
   44.6067    5.5986   11.0295 N   0  0  0  0  0  0  0  0  0  0  0  0
   46.1155    6.1428   13.5270 N   0  0  0  0  0  0  0  0  0  0  0  0
   44.7598    6.9601   11.5757 C   0  0  0  0  0  0  0  0  0  0  0  0
   46.0328    7.1224   12.4347 C   0  0  0  0  0  0  0  0  0  0  0  0
   44.6528    4.6369   12.1469 C   0  0  0  0  0  0  0  0  0  0  0  0
   45.9248    4.7801   13.0107 C   0  0  0  0  0  0  0  0  0  0  0  0
   45.7365    6.0823   11.6817 C   0  0  0  0  0  0  0  0  0  0  0  0
   47.1701    5.8055   12.1422 C   0  0  0  0  0  0  0  0  0  0  0  0
   44.7961    4.9079   11.9681 C   0  0  0  0  0  0  0  0  0  0  0  0
   45.2496    7.3992   12.3027 C   0  0  0  0  0  0  0  0  0  0  0  0
   43.3950    5.1685   11.4873 C   0  0  0  0  0  0  0  0  0  0  0  0
   47.3432    5.7680   13.6305 C   0  0  0  0  0  0  0  0  0  0  0  0
   45.2843    8.4829   11.7356 O   0  0  0  0  0  0  0  0  0  0  0  0
   47.7140    6.6933   14.3335 O   0  0  0  0  0  0  0  0  0  0  0  0
   42.8843    6.2432   11.2259 O   0  0  0  0  0  0  0  0  0  0  0  0
   45.8274    6.2290   10.2463 O   0  0  0  0  0  0  0  0  0  0  0  0
   44.7920    7.2850   13.5614 O   0  0  0  0  0  0  0  0  0  0  0  0
   47.0538    4.5680   14.1638 O   0  0  0  0  0  0  0  0  0  0  0  0
   42.6743    4.0312   11.3973 O   0  0  0  0  0  0  0  0  0  0  0  0
   45.9416    5.0019   13.3834 N   0  0  0  0  0  0  0  0  0  0  0  0
   44.9561    6.7324   11.1774 N   0  0  0  0  0  0  0  0  0  0  0  0
   44.6298    4.7926   12.7459 C   0  0  0  0  0  0  0  0  0  0  0  0
   44.5762    5.3134   11.2936 C   0  0  0  0  0  0  0  0  0  0  0  0
   46.3228    6.4205   13.2667 C   0  0  0  0  0  0  0  0  0  0  0  0
   46.2682    6.9421   11.8145 C   0  0  0  0  0  0  0  0  0  0  0  0
   45.7035    5.6439   12.1736 C   0  0  0  0  0  0  0  0  0  0  0  0
   44.3146    6.2916   12.2464 C   0  0  0  0  0  0  0  0  0  0  0  0
   46.8326    6.5389   12.6983 C   0  0  0  0  0  0  0  0  0  0  0  0
   45.7181    4.3435   12.9976 C   0  0  0  0  0  0  0  0  0  0  0  0
   46.9594    7.8357   11.9534 C   0  0  0  0  0  0  0  0  0  0  0  0
   43.2094    5.2754   12.1860 C   0  0  0  0  0  0  0  0  0  0  0  0
   45.7774    3.2088   12.5505 O   0  0  0  0  0  0  0  0  0  0  0  0
   42.3457    5.0952   13.0266 O   0  0  0  0  0  0  0  0  0  0  0  0
   46.0610    8.6183   11.6914 O   0  0  0  0  0  0  0  0  0  0  0  0
   46.0091    5.3313   10.8040 O   0  0  0  0  0  0  0  0  0  0  0  0
   45.5953    4.5444   14.3243 O   0  0  0  0  0  0  0  0  0  0  0  0
   43.2417    4.5348   11.0611 O   0  0  0  0  0  0  0  0  0  0  0  0
   48.2348    8.1328   11.6410 O   0  0  0  0  0  0  0  0  0  0  0  0
   45.6483    4.9765   13.3939 N   0  0  0  0  0  0  0  0  0  0  0  0
   45.1383    6.8939   11.1868 N   0  0  0  0  0  0  0  0  0  0  0  0
   44.7958    4.6370   12.2461 C   0  0  0  0  0  0  0  0  0  0  0  0
   44.1497    5.8765   11.5902 C   0  0  0  0  0  0  0  0  0  0  0  0
   46.6165    6.0185   13.0253 C   0  0  0  0  0  0  0  0  0  0  0  0
   45.9554    7.2468   12.3630 C   0  0  0  0  0  0  0  0  0  0  0  0
   45.4046    5.4131   10.4225 H   0  0  0  0  0  0  0  0  0  0  0  0
   47.0237    6.2128   13.9830 H   0  0  0  0  0  0  0  0  0  0  0  0
   44.7943    7.6696   10.7416 H   0  0  0  0  0  0  0  0  0  0  0  0
   43.8726    7.2141   12.1691 H   0  0  0  0  0  0  0  0  0  0  0  0
   46.9197    7.0290   11.7954 H   0  0  0  0  0  0  0  0  0  0  0  0
   46.0504    8.1303   12.8629 H   0  0  0  0  0  0  0  0  0  0  0  0
   43.7593    4.7636   12.7709 H   0  0  0  0  0  0  0  0  0  0  0  0
   44.6073    3.6222   11.7365 H   0  0  0  0  0  0  0  0  0  0  0  0
   45.8625    4.0881   13.8575 H   0  0  0  0  0  0  0  0  0  0  0  0
   46.8027    4.4889   12.4203 H   0  0  0  0  0  0  0  0  0  0  0  0
   47.8477    6.5809   11.7593 H   0  0  0  0  0  0  0  0  0  0  0  0
   47.5514    4.8707   11.7125 H   0  0  0  0  0  0  0  0  0  0  0  0
   44.7294    4.6879   13.0380 H   0  0  0  0  0  0  0  0  0  0  0  0
   45.1615    4.0164   11.4432 H   0  0  0  0  0  0  0  0  0  0  0  0
   45.6730    7.1768   10.0492 H   0  0  0  0  0  0  0  0  0  0  0  0
   44.5328    8.1999   13.8071 H   0  0  0  0  0  0  0  0  0  0  0  0
   47.2225    4.6838   15.1243 H   0  0  0  0  0  0  0  0  0  0  0  0
   41.7971    4.3276   11.0751 H   0  0  0  0  0  0  0  0  0  0  0  0
   46.6293    4.4528   12.8658 H   0  0  0  0  0  0  0  0  0  0  0  0
   44.2689    7.2803   11.6965 H   0  0  0  0  0  0  0  0  0  0  0  0
   43.8551    5.2855   13.3463 H   0  0  0  0  0  0  0  0  0  0  0  0
   44.4021    3.7211   12.7550 H   0  0  0  0  0  0  0  0  0  0  0  0
   45.2366    4.7111   10.6577 H   0  0  0  0  0  0  0  0  0  0  0  0
   43.5614    5.1880   10.9008 H   0  0  0  0  0  0  0  0  0  0  0  0
   45.6638    7.0234   13.9037 H   0  0  0  0  0  0  0  0  0  0  0  0
   47.3389    6.5444   13.6580 H   0  0  0  0  0  0  0  0  0  0  0  0
   46.4963    8.0135   11.8051 H   0  0  0  0  0  0  0  0  0  0  0  0
   47.0424    6.4500   11.2134 H   0  0  0  0  0  0  0  0  0  0  0  0
   44.1441    6.9967   11.4256 H   0  0  0  0  0  0  0  0  0  0  0  0
   44.1949    6.8361   13.1906 H   0  0  0  0  0  0  0  0  0  0  0  0
   47.7862    6.0006   12.6089 H   0  0  0  0  0  0  0  0  0  0  0  0
   46.7036    6.7857   13.7585 H   0  0  0  0  0  0  0  0  0  0  0  0
   45.3735    4.6399   10.5219 H   0  0  0  0  0  0  0  0  0  0  0  0
   45.5787    3.6421   14.7112 H   0  0  0  0  0  0  0  0  0  0  0  0
   42.4771    3.9259   11.1507 H   0  0  0  0  0  0  0  0  0  0  0  0
   48.1754    8.9863   11.1637 H   0  0  0  0  0  0  0  0  0  0  0  0
   46.1429    4.1447   13.7119 H   0  0  0  0  0  0  0  0  0  0  0  0
   45.7543    6.4751   10.4903 H   0  0  0  0  0  0  0  0  0  0  0  0
   44.0058    3.9568   12.5826 H   0  0  0  0  0  0  0  0  0  0  0  0
   45.3910    4.0959   11.4997 H   0  0  0  0  0  0  0  0  0  0  0  0
   43.5888    5.5632   10.7028 H   0  0  0  0  0  0  0  0  0  0  0  0
   43.4245    6.3289   12.2780 H   0  0  0  0  0  0  0  0  0  0  0  0
   47.1497    6.3400   13.9266 H   0  0  0  0  0  0  0  0  0  0  0  0
   47.3644    5.5943   12.3438 H   0  0  0  0  0  0  0  0  0  0  0  0
   45.3301    7.7738   13.0944 H   0  0  0  0  0  0  0  0  0  0  0  0
   46.7340    7.9507   12.0485 H   0  0  0  0  0  0  0  0  0  0  0  0
  2  6  1  0
  3  1  1  0
  4  3  1  0
  5  1  1  0
  6  5  1  0
  2  4  1  0
  8  7  1  0
  9  7  1  0
 10  7  1  0
 11  9  1  0
 12  8  1  0
 13 10  2  0
 14 12  2  0
 15 11  2  0
 16  7  1  0
 17 10  1  0
 18 12  1  0
 19 11  1  0
 21 25  1  0
 22 20  1  0
 23 22  1  0
 24 20  1  0
 25 24  1  0
 21 23  1  0
 27 26  1  0
 28 26  1  0
 29 26  1  0
 30 28  1  0
 31 27  1  0
 32 29  2  0
 33 31  2  0
 34 30  2  0
 35 26  1  0
 36 29  1  0
 37 31  1  0
 38 30  1  0
 40 44  1  0
 41 39  1  0
 42 41  1  0
 43 39  1  0
 44 43  1  0
 40 42  1  0
  1 45  1  0
  2 46  1  0
  3 47  1  0
  3 48  1  0
  4 49  1  0
  4 50  1  0
  5 51  1  0
  5 52  1  0
  6 53  1  0
  6 54  1  0
  8 55  1  0
  8 56  1  0
  9 57  1  0
  9 58  1  0
 16 59  1  0
 17 60  1  0
 18 61  1  0
 19 62  1  0
 20 63  1  0
 21 64  1  0
 22 65  1  0
 22 66  1  0
 23 67  1  0
 23 68  1  0
 24 69  1  0
 24 70  1  0
 25 71  1  0
 25 72  1  0
 27 73  1  0
 27 74  1  0
 28 75  1  0
 28 76  1  0
 35 77  1  0
 36 78  1  0
 37 79  1  0
 38 80  1  0
 39 81  1  0
 40 82  1  0
 41 83  1  0
 41 84  1  0
 42 85  1  0
 42 86  1  0
 43 87  1  0
 43 88  1  0
 44 89  1  0
 44 90  1  0
M  END
> <Uni-Dock RESULT> 
ENERGY=   -7.322  LOWER_BOUND=    1.730  UPPER_BOUND=    3.697
INTER + INTRA:          -7.322
INTER:                  -7.322
INTRA:                   0.000
UNBOUND:                 0.000

$$$$

     RDKit          3D

 90 88  0  0  0  0  0  0  0  0999 V2000
   53.3473    6.2072    7.1173 N   0  0  0  0  0  0  0  0  0  0  0  0
   54.9199    6.4667    9.6212 N   0  0  0  0  0  0  0  0  0  0  0  0
   54.8075    6.0024    7.1543 C   0  0  0  0  0  0  0  0  0  0  0  0
   55.3152    5.5516    8.5413 C   0  0  0  0  0  0  0  0  0  0  0  0
   52.9797    7.1585    8.1829 C   0  0  0  0  0  0  0  0  0  0  0  0
   53.4725    6.7173    9.5783 C   0  0  0  0  0  0  0  0  0  0  0  0
   54.0535    5.6331    8.1697 C   0  0  0  0  0  0  0  0  0  0  0  0
   53.9887    4.9599    9.5432 C   0  0  0  0  0  0  0  0  0  0  0  0
   53.1413    6.8601    8.0793 C   0  0  0  0  0  0  0  0  0  0  0  0
   55.5161    5.9531    7.8301 C   0  0  0  0  0  0  0  0  0  0  0  0
   53.1821    7.5023    6.7198 C   0  0  0  0  0  0  0  0  0  0  0  0
   54.6121    5.7555   10.6498 C   0  0  0  0  0  0  0  0  0  0  0  0
   56.2357    5.2412    7.1427 O   0  0  0  0  0  0  0  0  0  0  0  0
   55.7476    5.6253   11.0758 O   0  0  0  0  0  0  0  0  0  0  0  0
   54.0370    7.3764    5.8611 O   0  0  0  0  0  0  0  0  0  0  0  0
   53.5476    4.6437    7.2448 O   0  0  0  0  0  0  0  0  0  0  0  0
   55.9781    7.0908    8.3769 O   0  0  0  0  0  0  0  0  0  0  0  0
   53.7770    6.6684   11.1765 O   0  0  0  0  0  0  0  0  0  0  0  0
   52.1332    8.3280    6.5218 O   0  0  0  0  0  0  0  0  0  0  0  0
   53.8362    6.8633    9.7649 N   0  0  0  0  0  0  0  0  0  0  0  0
   54.4241    5.6879    7.0993 N   0  0  0  0  0  0  0  0  0  0  0  0
   53.3850    7.4924    8.5112 C   0  0  0  0  0  0  0  0  0  0  0  0
   53.2091    6.4802    7.3589 C   0  0  0  0  0  0  0  0  0  0  0  0
   55.0505    6.0698    9.5060 C   0  0  0  0  0  0  0  0  0  0  0  0
   54.8753    5.0581    8.3528 C   0  0  0  0  0  0  0  0  0  0  0  0
   53.8790    6.0953    8.6068 C   0  0  0  0  0  0  0  0  0  0  0  0
   54.5118    6.9457    7.4977 C   0  0  0  0  0  0  0  0  0  0  0  0
   54.8974    5.3148    9.4464 C   0  0  0  0  0  0  0  0  0  0  0  0
   53.0782    6.9965    9.5644 C   0  0  0  0  0  0  0  0  0  0  0  0
   55.7279    4.3603    8.6389 C   0  0  0  0  0  0  0  0  0  0  0  0
   53.5902    8.0307    7.0171 C   0  0  0  0  0  0  0  0  0  0  0  0
   51.8622    7.0363    9.6673 O   0  0  0  0  0  0  0  0  0  0  0  0
   53.8136    9.2286    7.0314 O   0  0  0  0  0  0  0  0  0  0  0  0
   56.3262    4.6073    7.6049 O   0  0  0  0  0  0  0  0  0  0  0  0
   52.9875    5.1342    8.0165 O   0  0  0  0  0  0  0  0  0  0  0  0
   53.8480    7.8336   10.2872 O   0  0  0  0  0  0  0  0  0  0  0  0
   52.4275    7.5521    6.5335 O   0  0  0  0  0  0  0  0  0  0  0  0
   55.8374    3.1494    9.2171 O   0  0  0  0  0  0  0  0  0  0  0  0
   53.8222    7.0908    9.5781 N   0  0  0  0  0  0  0  0  0  0  0  0
   54.5703    5.5105    7.1800 N   0  0  0  0  0  0  0  0  0  0  0  0
   53.0217    7.1152    8.3462 C   0  0  0  0  0  0  0  0  0  0  0  0
   53.8514    6.7947    7.0840 C   0  0  0  0  0  0  0  0  0  0  0  0
   54.5790    5.8349    9.6753 C   0  0  0  0  0  0  0  0  0  0  0  0
   55.3960    5.5250    8.4022 C   0  0  0  0  0  0  0  0  0  0  0  0
   52.9005    5.3147    7.3254 H   0  0  0  0  0  0  0  0  0  0  0  0
   55.1716    6.0635   10.5222 H   0  0  0  0  0  0  0  0  0  0  0  0
   55.0733    5.2449    6.4089 H   0  0  0  0  0  0  0  0  0  0  0  0
   55.3109    6.9301    6.8546 H   0  0  0  0  0  0  0  0  0  0  0  0
   54.9354    4.5458    8.7605 H   0  0  0  0  0  0  0  0  0  0  0  0
   56.4081    5.4842    8.5186 H   0  0  0  0  0  0  0  0  0  0  0  0
   53.3827    8.1493    7.9386 H   0  0  0  0  0  0  0  0  0  0  0  0
   51.8889    7.2592    8.2002 H   0  0  0  0  0  0  0  0  0  0  0  0
   53.2283    7.4974   10.3075 H   0  0  0  0  0  0  0  0  0  0  0  0
   52.9371    5.8100    9.8854 H   0  0  0  0  0  0  0  0  0  0  0  0
   54.5043    3.9902    9.5147 H   0  0  0  0  0  0  0  0  0  0  0  0
   52.9549    4.7136    9.8160 H   0  0  0  0  0  0  0  0  0  0  0  0
   53.4192    7.6315    8.8039 H   0  0  0  0  0  0  0  0  0  0  0  0
   52.1044    6.5535    8.2651 H   0  0  0  0  0  0  0  0  0  0  0  0
   54.3121    4.3379    6.7128 H   0  0  0  0  0  0  0  0  0  0  0  0
   56.9108    7.1421    8.0736 H   0  0  0  0  0  0  0  0  0  0  0  0
   54.3039    7.0965   11.8860 H   0  0  0  0  0  0  0  0  0  0  0  0
   52.2688    8.6754    5.6152 H   0  0  0  0  0  0  0  0  0  0  0  0
   53.1047    6.2196   10.0697 H   0  0  0  0  0  0  0  0  0  0  0  0
   55.1551    6.3324    6.7961 H   0  0  0  0  0  0  0  0  0  0  0  0
   54.1041    8.2676    8.2184 H   0  0  0  0  0  0  0  0  0  0  0  0
   52.4319    7.9998    8.6962 H   0  0  0  0  0  0  0  0  0  0  0  0
   52.3779    5.8008    7.5841 H   0  0  0  0  0  0  0  0  0  0  0  0
   52.9373    7.0169    6.4434 H   0  0  0  0  0  0  0  0  0  0  0  0
   55.8827    6.7487    9.2822 H   0  0  0  0  0  0  0  0  0  0  0  0
   55.3202    5.5318   10.4218 H   0  0  0  0  0  0  0  0  0  0  0  0
   55.8282    4.5503    8.1679 H   0  0  0  0  0  0  0  0  0  0  0  0
   54.1567    4.2826    8.6445 H   0  0  0  0  0  0  0  0  0  0  0  0
   54.7827    6.3466    6.6215 H   0  0  0  0  0  0  0  0  0  0  0  0
   55.4200    7.4389    7.8642 H   0  0  0  0  0  0  0  0  0  0  0  0
   54.3615    4.7362   10.2113 H   0  0  0  0  0  0  0  0  0  0  0  0
   55.5903    5.9791    9.9757 H   0  0  0  0  0  0  0  0  0  0  0  0
   52.2519    5.6407    7.6113 H   0  0  0  0  0  0  0  0  0  0  0  0
   53.2109    8.3654   10.8121 H   0  0  0  0  0  0  0  0  0  0  0  0
   51.9324    8.3536    6.2576 H   0  0  0  0  0  0  0  0  0  0  0  0
   56.3918    2.6329    8.5960 H   0  0  0  0  0  0  0  0  0  0  0  0
   53.2105    7.1869   10.3869 H   0  0  0  0  0  0  0  0  0  0  0  0
   53.8774    4.7687    7.2776 H   0  0  0  0  0  0  0  0  0  0  0  0
   52.5725    8.1083    8.2371 H   0  0  0  0  0  0  0  0  0  0  0  0
   52.1974    6.3964    8.4349 H   0  0  0  0  0  0  0  0  0  0  0  0
   53.1855    6.7582    6.2149 H   0  0  0  0  0  0  0  0  0  0  0  0
   54.5721    7.6000    6.8953 H   0  0  0  0  0  0  0  0  0  0  0  0
   55.2588    5.8976   10.5319 H   0  0  0  0  0  0  0  0  0  0  0  0
   53.8859    5.0082    9.8749 H   0  0  0  0  0  0  0  0  0  0  0  0
   56.2015    6.2609    8.2873 H   0  0  0  0  0  0  0  0  0  0  0  0
   55.8764    4.5461    8.5105 H   0  0  0  0  0  0  0  0  0  0  0  0
  2  6  1  0
  3  1  1  0
  4  3  1  0
  5  1  1  0
  6  5  1  0
  2  4  1  0
  8  7  1  0
  9  7  1  0
 10  7  1  0
 11  9  1  0
 12  8  1  0
 13 10  2  0
 14 12  2  0
 15 11  2  0
 16  7  1  0
 17 10  1  0
 18 12  1  0
 19 11  1  0
 21 25  1  0
 22 20  1  0
 23 22  1  0
 24 20  1  0
 25 24  1  0
 21 23  1  0
 27 26  1  0
 28 26  1  0
 29 26  1  0
 30 28  1  0
 31 27  1  0
 32 29  2  0
 33 31  2  0
 34 30  2  0
 35 26  1  0
 36 29  1  0
 37 31  1  0
 38 30  1  0
 40 44  1  0
 41 39  1  0
 42 41  1  0
 43 39  1  0
 44 43  1  0
 40 42  1  0
  1 45  1  0
  2 46  1  0
  3 47  1  0
  3 48  1  0
  4 49  1  0
  4 50  1  0
  5 51  1  0
  5 52  1  0
  6 53  1  0
  6 54  1  0
  8 55  1  0
  8 56  1  0
  9 57  1  0
  9 58  1  0
 16 59  1  0
 17 60  1  0
 18 61  1  0
 19 62  1  0
 20 63  1  0
 21 64  1  0
 22 65  1  0
 22 66  1  0
 23 67  1  0
 23 68  1  0
 24 69  1  0
 24 70  1  0
 25 71  1  0
 25 72  1  0
 27 73  1  0
 27 74  1  0
 28 75  1  0
 28 76  1  0
 35 77  1  0
 36 78  1  0
 37 79  1  0
 38 80  1  0
 39 81  1  0
 40 82  1  0
 41 83  1  0
 41 84  1  0
 42 85  1  0
 42 86  1  0
 43 87  1  0
 43 88  1  0
 44 89  1  0
 44 90  1  0
M  END
> <Uni-Dock RESULT> 
ENERGY=   -7.029  LOWER_BOUND=    9.042  UPPER_BOUND=   10.496
INTER + INTRA:          -7.029
INTER:                  -7.029
INTRA:                   0.000
UNBOUND:                 0.000

$$$$

     RDKit          3D

 90 88  0  0  0  0  0  0  0  0999 V2000
   44.5005    6.8639   12.6431 N   0  0  0  0  0  0  0  0  0  0  0  0
   45.7402    4.2777   11.8783 N   0  0  0  0  0  0  0  0  0  0  0  0
   44.2817    6.2466   11.3215 C   0  0  0  0  0  0  0  0  0  0  0  0
   44.4420    4.7109   11.3426 C   0  0  0  0  0  0  0  0  0  0  0  0
   45.8245    6.4473   13.1422 C   0  0  0  0  0  0  0  0  0  0  0  0
   45.9976    4.9132   13.1781 C   0  0  0  0  0  0  0  0  0  0  0  0
   44.4012    5.4977   12.3989 C   0  0  0  0  0  0  0  0  0  0  0  0
   44.3735    4.0863   12.9914 C   0  0  0  0  0  0  0  0  0  0  0  0
   45.5050    6.3647   13.0118 C   0  0  0  0  0  0  0  0  0  0  0  0
   44.4986    5.4041   10.8696 C   0  0  0  0  0  0  0  0  0  0  0  0
   45.5114    7.7605   12.4514 C   0  0  0  0  0  0  0  0  0  0  0  0
   45.5406    3.2308   12.6012 C   0  0  0  0  0  0  0  0  0  0  0  0
   43.5394    5.4675   10.1127 O   0  0  0  0  0  0  0  0  0  0  0  0
   45.5645    2.4225   11.6882 O   0  0  0  0  0  0  0  0  0  0  0  0
   45.0061    8.1495   11.4134 O   0  0  0  0  0  0  0  0  0  0  0  0
   43.1313    6.0823   12.7676 O   0  0  0  0  0  0  0  0  0  0  0  0
   45.7446    5.2151   10.4022 O   0  0  0  0  0  0  0  0  0  0  0  0
   46.6179    3.4224   13.3828 O   0  0  0  0  0  0  0  0  0  0  0  0
   46.2108    8.6121   13.2303 O   0  0  0  0  0  0  0  0  0  0  0  0
   46.1964    4.6838   12.8678 N   0  0  0  0  0  0  0  0  0  0  0  0
   43.9864    6.3054   11.7194 N   0  0  0  0  0  0  0  0  0  0  0  0
   46.2520    6.1548   12.8027 C   0  0  0  0  0  0  0  0  0  0  0  0
   44.8545    6.8106   12.7976 C   0  0  0  0  0  0  0  0  0  0  0  0
   45.3276    4.1778   11.7906 C   0  0  0  0  0  0  0  0  0  0  0  0
   43.9301    4.8343   11.7845 C   0  0  0  0  0  0  0  0  0  0  0  0
   45.0103    5.3628   12.6133 C   0  0  0  0  0  0  0  0  0  0  0  0
   45.2911    6.4195   11.5369 C   0  0  0  0  0  0  0  0  0  0  0  0
   44.6236    3.9907   12.0484 C   0  0  0  0  0  0  0  0  0  0  0  0
   46.2578    5.1696   13.4945 C   0  0  0  0  0  0  0  0  0  0  0  0
   43.3902    4.0248   11.1938 C   0  0  0  0  0  0  0  0  0  0  0  0
   46.1019    7.5685   12.0659 C   0  0  0  0  0  0  0  0  0  0  0  0
   46.3781    5.5188   14.6583 O   0  0  0  0  0  0  0  0  0  0  0  0
   47.1856    7.9408   11.6511 O   0  0  0  0  0  0  0  0  0  0  0  0
   43.1574    4.7965   10.2781 O   0  0  0  0  0  0  0  0  0  0  0  0
   43.9203    5.8061   13.4393 O   0  0  0  0  0  0  0  0  0  0  0  0
   47.2956    4.6074   12.8443 O   0  0  0  0  0  0  0  0  0  0  0  0
   45.5031    8.2008   13.0938 O   0  0  0  0  0  0  0  0  0  0  0  0
   42.5338    3.0255   11.4775 O   0  0  0  0  0  0  0  0  0  0  0  0
   46.3241    4.9360   12.7848 N   0  0  0  0  0  0  0  0  0  0  0  0
   43.8549    6.1172   11.6377 N   0  0  0  0  0  0  0  0  0  0  0  0
   45.8529    6.2765   13.1596 C   0  0  0  0  0  0  0  0  0  0  0  0
   45.0017    6.9440   12.0577 C   0  0  0  0  0  0  0  0  0  0  0  0
   45.2021    4.1061   12.3247 C   0  0  0  0  0  0  0  0  0  0  0  0
   44.3565    4.7915   11.2296 C   0  0  0  0  0  0  0  0  0  0  0  0
   43.7948    6.4967   13.2809 H   0  0  0  0  0  0  0  0  0  0  0  0
   45.7470    3.2646   11.9844 H   0  0  0  0  0  0  0  0  0  0  0  0
   43.2718    6.4996   10.9804 H   0  0  0  0  0  0  0  0  0  0  0  0
   44.9786    6.6861   10.5969 H   0  0  0  0  0  0  0  0  0  0  0  0
   43.6362    4.2673   11.9408 H   0  0  0  0  0  0  0  0  0  0  0  0
   44.3347    4.3251   10.3232 H   0  0  0  0  0  0  0  0  0  0  0  0
   46.6054    6.8984   12.5174 H   0  0  0  0  0  0  0  0  0  0  0  0
   45.9595    6.8497   14.1521 H   0  0  0  0  0  0  0  0  0  0  0  0
   47.0203    4.6754   13.4901 H   0  0  0  0  0  0  0  0  0  0  0  0
   45.3232    4.4865   13.9313 H   0  0  0  0  0  0  0  0  0  0  0  0
   43.4657    3.5578   12.6694 H   0  0  0  0  0  0  0  0  0  0  0  0
   44.3002    4.1167   14.0858 H   0  0  0  0  0  0  0  0  0  0  0  0
   46.5005    5.9463   12.8345 H   0  0  0  0  0  0  0  0  0  0  0  0
   45.3405    6.4473   14.0934 H   0  0  0  0  0  0  0  0  0  0  0  0
   42.6040    6.1540   11.9443 H   0  0  0  0  0  0  0  0  0  0  0  0
   45.6318    5.1706    9.4276 H   0  0  0  0  0  0  0  0  0  0  0  0
   47.2876    2.7981   13.0278 H   0  0  0  0  0  0  0  0  0  0  0  0
   46.1381    9.4742   12.7691 H   0  0  0  0  0  0  0  0  0  0  0  0
   45.7666    4.4288   13.7581 H   0  0  0  0  0  0  0  0  0  0  0  0
   44.4177    6.5596   10.8300 H   0  0  0  0  0  0  0  0  0  0  0  0
   46.8065    6.4546   11.9048 H   0  0  0  0  0  0  0  0  0  0  0  0
   46.8217    6.5230   13.6630 H   0  0  0  0  0  0  0  0  0  0  0  0
   44.3619    6.6443   13.7636 H   0  0  0  0  0  0  0  0  0  0  0  0
   44.9632    7.8945   12.6826 H   0  0  0  0  0  0  0  0  0  0  0  0
   45.8202    4.3423   10.8243 H   0  0  0  0  0  0  0  0  0  0  0  0
   45.2179    3.0938   11.9080 H   0  0  0  0  0  0  0  0  0  0  0  0
   43.3601    4.4660   10.9245 H   0  0  0  0  0  0  0  0  0  0  0  0
   43.3749    4.5351   12.6818 H   0  0  0  0  0  0  0  0  0  0  0  0
   44.3693    6.8435   11.1240 H   0  0  0  0  0  0  0  0  0  0  0  0
   45.8622    5.9813   10.7097 H   0  0  0  0  0  0  0  0  0  0  0  0
   44.4405    3.2996   12.8825 H   0  0  0  0  0  0  0  0  0  0  0  0
   45.4257    3.5540   11.4421 H   0  0  0  0  0  0  0  0  0  0  0  0
   44.2326    6.6030   13.9179 H   0  0  0  0  0  0  0  0  0  0  0  0
   48.0202    4.5848   13.5064 H   0  0  0  0  0  0  0  0  0  0  0  0
   46.1292    8.9175   13.3343 H   0  0  0  0  0  0  0  0  0  0  0  0
   41.7851    3.1649   10.8612 H   0  0  0  0  0  0  0  0  0  0  0  0
   46.7731    4.4939   13.5851 H   0  0  0  0  0  0  0  0  0  0  0  0
   43.2473    5.9881   12.4465 H   0  0  0  0  0  0  0  0  0  0  0  0
   46.7215    6.9085   13.3739 H   0  0  0  0  0  0  0  0  0  0  0  0
   45.2667    6.2093   14.0849 H   0  0  0  0  0  0  0  0  0  0  0  0
   44.6240    7.9040   12.4264 H   0  0  0  0  0  0  0  0  0  0  0  0
   45.6274    7.1659   11.1843 H   0  0  0  0  0  0  0  0  0  0  0  0
   45.5978    3.1621   11.9347 H   0  0  0  0  0  0  0  0  0  0  0  0
   44.5607    3.8570   13.1793 H   0  0  0  0  0  0  0  0  0  0  0  0
   44.9476    4.8941   10.3110 H   0  0  0  0  0  0  0  0  0  0  0  0
   43.4994    4.1548   10.9834 H   0  0  0  0  0  0  0  0  0  0  0  0
  2  6  1  0
  3  1  1  0
  4  3  1  0
  5  1  1  0
  6  5  1  0
  2  4  1  0
  8  7  1  0
  9  7  1  0
 10  7  1  0
 11  9  1  0
 12  8  1  0
 13 10  2  0
 14 12  2  0
 15 11  2  0
 16  7  1  0
 17 10  1  0
 18 12  1  0
 19 11  1  0
 21 25  1  0
 22 20  1  0
 23 22  1  0
 24 20  1  0
 25 24  1  0
 21 23  1  0
 27 26  1  0
 28 26  1  0
 29 26  1  0
 30 28  1  0
 31 27  1  0
 32 29  2  0
 33 31  2  0
 34 30  2  0
 35 26  1  0
 36 29  1  0
 37 31  1  0
 38 30  1  0
 40 44  1  0
 41 39  1  0
 42 41  1  0
 43 39  1  0
 44 43  1  0
 40 42  1  0
  1 45  1  0
  2 46  1  0
  3 47  1  0
  3 48  1  0
  4 49  1  0
  4 50  1  0
  5 51  1  0
  5 52  1  0
  6 53  1  0
  6 54  1  0
  8 55  1  0
  8 56  1  0
  9 57  1  0
  9 58  1  0
 16 59  1  0
 17 60  1  0
 18 61  1  0
 19 62  1  0
 20 63  1  0
 21 64  1  0
 22 65  1  0
 22 66  1  0
 23 67  1  0
 23 68  1  0
 24 69  1  0
 24 70  1  0
 25 71  1  0
 25 72  1  0
 27 73  1  0
 27 74  1  0
 28 75  1  0
 28 76  1  0
 35 77  1  0
 36 78  1  0
 37 79  1  0
 38 80  1  0
 39 81  1  0
 40 82  1  0
 41 83  1  0
 41 84  1  0
 42 85  1  0
 42 86  1  0
 43 87  1  0
 43 88  1  0
 44 89  1  0
 44 90  1  0
M  END
> <Uni-Dock RESULT> 
ENERGY=   -6.981  LOWER_BOUND=    1.560  UPPER_BOUND=    3.419
INTER + INTRA:          -6.981
INTER:                  -6.981
INTRA:                   0.000
UNBOUND:                 0.000

$$$$

     RDKit          3D

 90 88  0  0  0  0  0  0  0  0999 V2000
   47.1841    4.6197   17.7979 N   0  0  0  0  0  0  0  0  0  0  0  0
   50.0370    5.1595   18.4142 N   0  0  0  0  0  0  0  0  0  0  0  0
   47.8980    3.9292   18.8883 C   0  0  0  0  0  0  0  0  0  0  0  0
   49.0768    4.7535   19.4501 C   0  0  0  0  0  0  0  0  0  0  0  0
   48.1605    4.9816   16.7532 C   0  0  0  0  0  0  0  0  0  0  0  0
   49.3416    5.8144   17.2973 C   0  0  0  0  0  0  0  0  0  0  0  0
   48.1623    5.1889   18.6071 C   0  0  0  0  0  0  0  0  0  0  0  0
   48.9538    6.4476   18.9722 C   0  0  0  0  0  0  0  0  0  0  0  0
   48.0572    4.9863   17.0927 C   0  0  0  0  0  0  0  0  0  0  0  0
   48.7728    3.9788   19.3282 C   0  0  0  0  0  0  0  0  0  0  0  0
   47.2531    3.7666   16.7347 C   0  0  0  0  0  0  0  0  0  0  0  0
   50.4210    6.3598   18.6791 C   0  0  0  0  0  0  0  0  0  0  0  0
   48.3584    3.5261   20.3866 O   0  0  0  0  0  0  0  0  0  0  0  0
   51.2948    6.0559   19.4740 O   0  0  0  0  0  0  0  0  0  0  0  0
   46.9855    2.8147   17.4463 O   0  0  0  0  0  0  0  0  0  0  0  0
   46.8279    5.4285   19.1093 O   0  0  0  0  0  0  0  0  0  0  0  0
   49.8441    3.4477   18.7141 O   0  0  0  0  0  0  0  0  0  0  0  0
   50.7226    6.6690   17.4057 O   0  0  0  0  0  0  0  0  0  0  0  0
   46.8500    3.7900   15.4471 O   0  0  0  0  0  0  0  0  0  0  0  0
   49.7275    5.6473   17.4049 N   0  0  0  0  0  0  0  0  0  0  0  0
   47.5436    4.2805   18.8865 N   0  0  0  0  0  0  0  0  0  0  0  0
   48.7452    4.7785   16.7330 C   0  0  0  0  0  0  0  0  0  0  0  0
   47.3975    4.7018   17.4820 C   0  0  0  0  0  0  0  0  0  0  0  0
   49.8734    5.2275   18.8098 C   0  0  0  0  0  0  0  0  0  0  0  0
   48.5256    5.1495   19.5590 C   0  0  0  0  0  0  0  0  0  0  0  0
   48.5763    5.3120   18.1084 C   0  0  0  0  0  0  0  0  0  0  0  0
   48.3483    3.8029   17.9522 C   0  0  0  0  0  0  0  0  0  0  0  0
   49.4776    5.6831   19.2922 C   0  0  0  0  0  0  0  0  0  0  0  0
   49.2259    5.8777   16.8324 C   0  0  0  0  0  0  0  0  0  0  0  0
   48.9408    5.2232   20.6163 C   0  0  0  0  0  0  0  0  0  0  0  0
   47.8848    3.4379   16.5703 C   0  0  0  0  0  0  0  0  0  0  0  0
   48.6885    6.6068   16.0136 O   0  0  0  0  0  0  0  0  0  0  0  0
   48.4404    2.6757   15.7988 O   0  0  0  0  0  0  0  0  0  0  0  0
   48.5374    4.1055   20.8923 O   0  0  0  0  0  0  0  0  0  0  0  0
   47.3113    5.9632   18.3155 O   0  0  0  0  0  0  0  0  0  0  0  0
   50.4861    5.4449   16.6315 O   0  0  0  0  0  0  0  0  0  0  0  0
   46.7343    4.0490   16.2269 O   0  0  0  0  0  0  0  0  0  0  0  0
   49.0133    6.1754   21.5653 O   0  0  0  0  0  0  0  0  0  0  0  0
   49.6567    5.4158   17.2369 N   0  0  0  0  0  0  0  0  0  0  0  0
   47.6188    4.3441   19.1094 N   0  0  0  0  0  0  0  0  0  0  0  0
   48.2935    5.0834   16.8004 C   0  0  0  0  0  0  0  0  0  0  0  0
   47.6302    3.9980   17.6758 C   0  0  0  0  0  0  0  0  0  0  0  0
   49.6759    5.7259   18.6731 C   0  0  0  0  0  0  0  0  0  0  0  0
   49.0014    4.6352   19.5331 C   0  0  0  0  0  0  0  0  0  0  0  0
   46.7943    5.4827   18.1758 H   0  0  0  0  0  0  0  0  0  0  0  0
   50.7227    5.7984   18.8131 H   0  0  0  0  0  0  0  0  0  0  0  0
   47.1865    3.7207   19.6949 H   0  0  0  0  0  0  0  0  0  0  0  0
   48.2586    2.9580   18.5271 H   0  0  0  0  0  0  0  0  0  0  0  0
   48.6900    5.6467   19.9566 H   0  0  0  0  0  0  0  0  0  0  0  0
   49.6027    4.1590   20.2047 H   0  0  0  0  0  0  0  0  0  0  0  0
   48.5346    4.0678   16.2750 H   0  0  0  0  0  0  0  0  0  0  0  0
   47.6434    5.5537   15.9750 H   0  0  0  0  0  0  0  0  0  0  0  0
   50.0597    5.9884   16.4887 H   0  0  0  0  0  0  0  0  0  0  0  0
   48.9773    6.7972   17.6221 H   0  0  0  0  0  0  0  0  0  0  0  0
   48.8526    6.6610   20.0451 H   0  0  0  0  0  0  0  0  0  0  0  0
   48.5405    7.3343   18.4754 H   0  0  0  0  0  0  0  0  0  0  0  0
   49.0399    4.8675   16.6261 H   0  0  0  0  0  0  0  0  0  0  0  0
   47.5533    5.8528   16.6466 H   0  0  0  0  0  0  0  0  0  0  0  0
   46.7026    4.8288   19.8747 H   0  0  0  0  0  0  0  0  0  0  0  0
   50.1114    2.7040   19.2972 H   0  0  0  0  0  0  0  0  0  0  0  0
   51.7000    6.5851   17.3620 H   0  0  0  0  0  0  0  0  0  0  0  0
   46.3410    2.9590   15.3397 H   0  0  0  0  0  0  0  0  0  0  0  0
   49.3539    6.5974   17.4027 H   0  0  0  0  0  0  0  0  0  0  0  0
   47.9185    3.3312   18.8876 H   0  0  0  0  0  0  0  0  0  0  0  0
   49.1687    3.7721   16.6259 H   0  0  0  0  0  0  0  0  0  0  0  0
   48.5753    5.1588   15.7198 H   0  0  0  0  0  0  0  0  0  0  0  0
   46.8976    5.6776   17.4494 H   0  0  0  0  0  0  0  0  0  0  0  0
   46.7378    3.9932   16.9694 H   0  0  0  0  0  0  0  0  0  0  0  0
   50.3747    4.2522   18.8433 H   0  0  0  0  0  0  0  0  0  0  0  0
   50.5318    5.9381   19.3220 H   0  0  0  0  0  0  0  0  0  0  0  0
   48.6953    4.7695   20.5724 H   0  0  0  0  0  0  0  0  0  0  0  0
   48.1014    6.1552   19.6667 H   0  0  0  0  0  0  0  0  0  0  0  0
   47.5947    3.4244   18.6513 H   0  0  0  0  0  0  0  0  0  0  0  0
   49.2808    3.2542   18.1303 H   0  0  0  0  0  0  0  0  0  0  0  0
   49.5859    6.7757   19.3300 H   0  0  0  0  0  0  0  0  0  0  0  0
   50.4858    5.2657   19.1889 H   0  0  0  0  0  0  0  0  0  0  0  0
   46.7960    5.8520   17.4886 H   0  0  0  0  0  0  0  0  0  0  0  0
   50.7527    5.8465   15.7761 H   0  0  0  0  0  0  0  0  0  0  0  0
   46.5498    3.7241   15.3193 H   0  0  0  0  0  0  0  0  0  0  0  0
   48.6345    5.7521   22.3635 H   0  0  0  0  0  0  0  0  0  0  0  0
   50.0010    6.2153   16.7080 H   0  0  0  0  0  0  0  0  0  0  0  0
   47.0693    5.1956   19.2231 H   0  0  0  0  0  0  0  0  0  0  0  0
   48.3308    4.7338   15.7630 H   0  0  0  0  0  0  0  0  0  0  0  0
   47.6771    5.9912   16.8129 H   0  0  0  0  0  0  0  0  0  0  0  0
   46.5968    3.8495   17.3439 H   0  0  0  0  0  0  0  0  0  0  0  0
   48.1461    3.0396   17.5387 H   0  0  0  0  0  0  0  0  0  0  0  0
   50.7162    5.8447   18.9949 H   0  0  0  0  0  0  0  0  0  0  0  0
   49.1752    6.6871   18.8435 H   0  0  0  0  0  0  0  0  0  0  0  0
   49.5938    3.7124   19.4976 H   0  0  0  0  0  0  0  0  0  0  0  0
   48.9847    4.9590   20.5798 H   0  0  0  0  0  0  0  0  0  0  0  0
  2  6  1  0
  3  1  1  0
  4  3  1  0
  5  1  1  0
  6  5  1  0
  2  4  1  0
  8  7  1  0
  9  7  1  0
 10  7  1  0
 11  9  1  0
 12  8  1  0
 13 10  2  0
 14 12  2  0
 15 11  2  0
 16  7  1  0
 17 10  1  0
 18 12  1  0
 19 11  1  0
 21 25  1  0
 22 20  1  0
 23 22  1  0
 24 20  1  0
 25 24  1  0
 21 23  1  0
 27 26  1  0
 28 26  1  0
 29 26  1  0
 30 28  1  0
 31 27  1  0
 32 29  2  0
 33 31  2  0
 34 30  2  0
 35 26  1  0
 36 29  1  0
 37 31  1  0
 38 30  1  0
 40 44  1  0
 41 39  1  0
 42 41  1  0
 43 39  1  0
 44 43  1  0
 40 42  1  0
  1 45  1  0
  2 46  1  0
  3 47  1  0
  3 48  1  0
  4 49  1  0
  4 50  1  0
  5 51  1  0
  5 52  1  0
  6 53  1  0
  6 54  1  0
  8 55  1  0
  8 56  1  0
  9 57  1  0
  9 58  1  0
 16 59  1  0
 17 60  1  0
 18 61  1  0
 19 62  1  0
 20 63  1  0
 21 64  1  0
 22 65  1  0
 22 66  1  0
 23 67  1  0
 23 68  1  0
 24 69  1  0
 24 70  1  0
 25 71  1  0
 25 72  1  0
 27 73  1  0
 27 74  1  0
 28 75  1  0
 28 76  1  0
 35 77  1  0
 36 78  1  0
 37 79  1  0
 38 80  1  0
 39 81  1  0
 40 82  1  0
 41 83  1  0
 41 84  1  0
 42 85  1  0
 42 86  1  0
 43 87  1  0
 43 88  1  0
 44 89  1  0
 44 90  1  0
M  END
> <Uni-Dock RESULT> 
ENERGY=   -6.574  LOWER_BOUND=    6.314  UPPER_BOUND=    8.223
INTER + INTRA:          -6.574
INTER:                  -6.574
INTRA:                   0.000
UNBOUND:                 0.000

$$$$
