
     RDKit          3D

 90 88  0  0  0  0  0  0  0  0999 V2000
   44.0599    3.2480   11.8666 N   0  0  0  0  0  0  0  0  0  0  0  0
   44.8834    5.3946    9.9832 N   0  0  0  0  0  0  0  0  0  0  0  0
   44.2850    4.6361   12.3061 C   0  0  0  0  0  0  0  0  0  0  0  0
   44.0664    5.6680   11.1786 C   0  0  0  0  0  0  0  0  0  0  0  0
   44.8768    2.9750   10.6711 C   0  0  0  0  0  0  0  0  0  0  0  0
   44.6586    4.0064    9.5434 C   0  0  0  0  0  0  0  0  0  0  0  0
   44.5018    4.5292   10.1864 C   0  0  0  0  0  0  0  0  0  0  0  0
   45.2231    5.3418   11.2804 C   0  0  0  0  0  0  0  0  0  0  0  0
   44.4892    3.0076   10.3758 C   0  0  0  0  0  0  0  0  0  0  0  0
   45.2871    4.7623    8.8812 C   0  0  0  0  0  0  0  0  0  0  0  0
   44.0500    2.5724   11.7361 C   0  0  0  0  0  0  0  0  0  0  0  0
   44.4234    5.5396   12.5341 C   0  0  0  0  0  0  0  0  0  0  0  0
   46.4384    5.1605    8.7867 O   0  0  0  0  0  0  0  0  0  0  0  0
   43.2418    5.2746   12.6942 O   0  0  0  0  0  0  0  0  0  0  0  0
   44.7699    2.4717   12.7165 O   0  0  0  0  0  0  0  0  0  0  0  0
   43.1726    5.0302    9.9836 O   0  0  0  0  0  0  0  0  0  0  0  0
   44.5993    4.4366    7.7645 O   0  0  0  0  0  0  0  0  0  0  0  0
   45.1516    6.0915   13.5221 O   0  0  0  0  0  0  0  0  0  0  0  0
   42.7290    2.3369   11.8112 O   0  0  0  0  0  0  0  0  0  0  0  0
   44.6956    4.1728    9.4630 N   0  0  0  0  0  0  0  0  0  0  0  0
   44.2481    4.4695   12.3864 N   0  0  0  0  0  0  0  0  0  0  0  0
   45.2410    5.3065   10.2308 C   0  0  0  0  0  0  0  0  0  0  0  0
   44.4154    5.6306   11.4947 C   0  0  0  0  0  0  0  0  0  0  0  0
   44.5287    3.0118   10.3551 C   0  0  0  0  0  0  0  0  0  0  0  0
   43.7028    3.3366   11.6184 C   0  0  0  0  0  0  0  0  0  0  0  0
   43.9856    4.4141   10.8845 C   0  0  0  0  0  0  0  0  0  0  0  0
   44.9106    5.5990   10.5892 C   0  0  0  0  0  0  0  0  0  0  0  0
   43.7645    3.5252    9.6571 C   0  0  0  0  0  0  0  0  0  0  0  0
   44.5720    3.5440   12.0115 C   0  0  0  0  0  0  0  0  0  0  0  0
   45.0248    2.8876    9.1546 C   0  0  0  0  0  0  0  0  0  0  0  0
   44.8749    6.6655   11.6470 C   0  0  0  0  0  0  0  0  0  0  0  0
   45.7070    3.1087   12.1004 O   0  0  0  0  0  0  0  0  0  0  0  0
   44.8368    7.8684   11.4462 O   0  0  0  0  0  0  0  0  0  0  0  0
   45.9389    3.4559    8.5837 O   0  0  0  0  0  0  0  0  0  0  0  0
   42.6823    4.9242   11.2256 O   0  0  0  0  0  0  0  0  0  0  0  0
   43.6439    3.2562   12.9558 O   0  0  0  0  0  0  0  0  0  0  0  0
   44.9746    6.1984   12.9057 O   0  0  0  0  0  0  0  0  0  0  0  0
   45.0734    1.5662    9.4011 O   0  0  0  0  0  0  0  0  0  0  0  0
   44.2729    3.4940   12.1432 N   0  0  0  0  0  0  0  0  0  0  0  0
   44.6684    5.1492    9.7072 N   0  0  0  0  0  0  0  0  0  0  0  0
   44.9555    2.9765   10.9439 C   0  0  0  0  0  0  0  0  0  0  0  0
   44.5121    3.6854    9.6461 C   0  0  0  0  0  0  0  0  0  0  0  0
   44.4332    4.9577   12.2038 C   0  0  0  0  0  0  0  0  0  0  0  0
   43.9869    5.6656   10.9070 C   0  0  0  0  0  0  0  0  0  0  0  0
   43.0784    3.1622   11.5984 H   0  0  0  0  0  0  0  0  0  0  0  0
   45.8645    5.4790   10.2527 H   0  0  0  0  0  0  0  0  0  0  0  0
   45.3038    4.7281   12.7028 H   0  0  0  0  0  0  0  0  0  0  0  0
   43.6045    4.8573   13.1355 H   0  0  0  0  0  0  0  0  0  0  0  0
   43.0071    5.6908   10.8939 H   0  0  0  0  0  0  0  0  0  0  0  0
   44.3125    6.6686   11.5509 H   0  0  0  0  0  0  0  0  0  0  0  0
   45.9360    2.9532   10.9559 H   0  0  0  0  0  0  0  0  0  0  0  0
   44.6312    1.9744   10.2990 H   0  0  0  0  0  0  0  0  0  0  0  0
   45.3404    3.7861    8.7145 H   0  0  0  0  0  0  0  0  0  0  0  0
   43.6397    3.9145    9.1468 H   0  0  0  0  0  0  0  0  0  0  0  0
   45.4346    6.3539   10.9086 H   0  0  0  0  0  0  0  0  0  0  0  0
   46.1773    4.8650   11.5374 H   0  0  0  0  0  0  0  0  0  0  0  0
   45.4878    2.5800   10.2153 H   0  0  0  0  0  0  0  0  0  0  0  0
   43.8357    2.5253    9.6371 H   0  0  0  0  0  0  0  0  0  0  0  0
   42.6665    4.9001   10.8120 H   0  0  0  0  0  0  0  0  0  0  0  0
   45.1950    4.6772    7.0260 H   0  0  0  0  0  0  0  0  0  0  0  0
   44.5391    6.1600   14.2842 H   0  0  0  0  0  0  0  0  0  0  0  0
   42.5616    2.1315   12.7559 H   0  0  0  0  0  0  0  0  0  0  0  0
   43.7691    4.4426    9.1292 H   0  0  0  0  0  0  0  0  0  0  0  0
   45.1736    4.1996   12.7222 H   0  0  0  0  0  0  0  0  0  0  0  0
   46.2788    5.0862   10.5112 H   0  0  0  0  0  0  0  0  0  0  0  0
   45.2705    6.1891    9.5819 H   0  0  0  0  0  0  0  0  0  0  0  0
   43.4266    6.0081   11.2057 H   0  0  0  0  0  0  0  0  0  0  0  0
   44.9079    6.4343   12.0533 H   0  0  0  0  0  0  0  0  0  0  0  0
   44.0344    2.2083    9.7979 H   0  0  0  0  0  0  0  0  0  0  0  0
   45.5180    2.6345   10.6433 H   0  0  0  0  0  0  0  0  0  0  0  0
   42.6651    3.5571   11.3380 H   0  0  0  0  0  0  0  0  0  0  0  0
   43.6728    2.4548   12.2680 H   0  0  0  0  0  0  0  0  0  0  0  0
   44.5898    6.0834    9.6588 H   0  0  0  0  0  0  0  0  0  0  0  0
   45.9552    5.2941   10.4683 H   0  0  0  0  0  0  0  0  0  0  0  0
   43.3189    4.0934    8.8312 H   0  0  0  0  0  0  0  0  0  0  0  0
   43.0316    2.7407    9.8849 H   0  0  0  0  0  0  0  0  0  0  0  0
   42.4386    4.4921   12.0737 H   0  0  0  0  0  0  0  0  0  0  0  0
   44.1414    2.7205   13.6121 H   0  0  0  0  0  0  0  0  0  0  0  0
   44.9806    7.0147   13.4510 H   0  0  0  0  0  0  0  0  0  0  0  0
   45.9512    1.2867    9.0639 H   0  0  0  0  0  0  0  0  0  0  0  0
   43.2766    3.2954   12.0424 H   0  0  0  0  0  0  0  0  0  0  0  0
   45.6640    5.3512    9.8056 H   0  0  0  0  0  0  0  0  0  0  0  0
   44.7502    1.9037   10.8585 H   0  0  0  0  0  0  0  0  0  0  0  0
   46.0399    3.0804   11.0733 H   0  0  0  0  0  0  0  0  0  0  0  0
   43.4639    3.4439    9.4304 H   0  0  0  0  0  0  0  0  0  0  0  0
   45.1031    3.3045    8.8058 H   0  0  0  0  0  0  0  0  0  0  0  0
   45.4827    5.1957   12.4162 H   0  0  0  0  0  0  0  0  0  0  0  0
   43.8472    5.3415   13.0462 H   0  0  0  0  0  0  0  0  0  0  0  0
   44.1890    6.7390   10.9922 H   0  0  0  0  0  0  0  0  0  0  0  0
   42.9029    5.5587   10.7777 H   0  0  0  0  0  0  0  0  0  0  0  0
  2  6  1  0
  3  1  1  0
  4  3  1  0
  5  1  1  0
  6  5  1  0
  2  4  1  0
  8  7  1  0
  9  7  1  0
 10  7  1  0
 11  9  1  0
 12  8  1  0
 13 10  2  0
 14 12  2  0
 15 11  2  0
 16  7  1  0
 17 10  1  0
 18 12  1  0
 19 11  1  0
 21 25  1  0
 22 20  1  0
 23 22  1  0
 24 20  1  0
 25 24  1  0
 21 23  1  0
 27 26  1  0
 28 26  1  0
 29 26  1  0
 30 28  1  0
 31 27  1  0
 32 29  2  0
 33 31  2  0
 34 30  2  0
 35 26  1  0
 36 29  1  0
 37 31  1  0
 38 30  1  0
 40 44  1  0
 41 39  1  0
 42 41  1  0
 43 39  1  0
 44 43  1  0
 40 42  1  0
  1 45  1  0
  2 46  1  0
  3 47  1  0
  3 48  1  0
  4 49  1  0
  4 50  1  0
  5 51  1  0
  5 52  1  0
  6 53  1  0
  6 54  1  0
  8 55  1  0
  8 56  1  0
  9 57  1  0
  9 58  1  0
 16 59  1  0
 17 60  1  0
 18 61  1  0
 19 62  1  0
 20 63  1  0
 21 64  1  0
 22 65  1  0
 22 66  1  0
 23 67  1  0
 23 68  1  0
 24 69  1  0
 24 70  1  0
 25 71  1  0
 25 72  1  0
 27 73  1  0
 27 74  1  0
 28 75  1  0
 28 76  1  0
 35 77  1  0
 36 78  1  0
 37 79  1  0
 38 80  1  0
 39 81  1  0
 40 82  1  0
 41 83  1  0
 41 84  1  0
 42 85  1  0
 42 86  1  0
 43 87  1  0
 43 88  1  0
 44 89  1  0
 44 90  1  0
M  END
> <Uni-Dock RESULT> 
ENERGY=   -9.603  LOWER_BOUND=    0.000  UPPER_BOUND=    0.000
INTER + INTRA:          -9.603
INTER:                  -9.603
INTRA:                   0.000
UNBOUND:                 0.000

$$$$

     RDKit          3D

 90 88  0  0  0  0  0  0  0  0999 V2000
   44.0638    3.7706   12.1514 N   0  0  0  0  0  0  0  0  0  0  0  0
   45.1092    6.5523   12.1012 N   0  0  0  0  0  0  0  0  0  0  0  0
   43.2345    4.9150   11.7351 C   0  0  0  0  0  0  0  0  0  0  0  0
   44.0656    6.0875   11.1706 C   0  0  0  0  0  0  0  0  0  0  0  0
   45.1074    4.2357   13.0816 C   0  0  0  0  0  0  0  0  0  0  0  0
   45.9388    5.4080   12.5178 C   0  0  0  0  0  0  0  0  0  0  0  0
   45.2223    5.5916   12.1123 C   0  0  0  0  0  0  0  0  0  0  0  0
   43.8330    6.2179   12.3469 C   0  0  0  0  0  0  0  0  0  0  0  0
   45.4524    4.2101   12.7370 C   0  0  0  0  0  0  0  0  0  0  0  0
   46.2406    6.5175   12.8056 C   0  0  0  0  0  0  0  0  0  0  0  0
   44.3694    3.2250   12.4385 C   0  0  0  0  0  0  0  0  0  0  0  0
   42.7512    5.6756   11.4604 C   0  0  0  0  0  0  0  0  0  0  0  0
   46.0009    7.3355   13.6811 O   0  0  0  0  0  0  0  0  0  0  0  0
   42.8992    4.9398   10.4966 O   0  0  0  0  0  0  0  0  0  0  0  0
   43.3315    3.0980   13.0682 O   0  0  0  0  0  0  0  0  0  0  0  0
   45.5369    5.5786   10.7125 O   0  0  0  0  0  0  0  0  0  0  0  0
   47.5147    6.3322   12.3953 O   0  0  0  0  0  0  0  0  0  0  0  0
   41.5303    6.1134   11.8191 O   0  0  0  0  0  0  0  0  0  0  0  0
   44.6166    2.4886   11.3418 O   0  0  0  0  0  0  0  0  0  0  0  0
   45.9631    5.5920   12.4855 N   0  0  0  0  0  0  0  0  0  0  0  0
   43.2104    4.7309   11.7675 N   0  0  0  0  0  0  0  0  0  0  0  0
   44.8300    6.5337   12.4455 C   0  0  0  0  0  0  0  0  0  0  0  0
   43.7097    6.0873   11.4812 C   0  0  0  0  0  0  0  0  0  0  0  0
   45.4632    4.2357   12.7721 C   0  0  0  0  0  0  0  0  0  0  0  0
   44.3434    3.7900   11.8073 C   0  0  0  0  0  0  0  0  0  0  0  0
   44.6937    5.0676   11.6507 C   0  0  0  0  0  0  0  0  0  0  0  0
   44.4773    6.5435   11.9997 C   0  0  0  0  0  0  0  0  0  0  0  0
   46.1327    4.6111   11.9086 C   0  0  0  0  0  0  0  0  0  0  0  0
   43.7489    4.1767   12.4781 C   0  0  0  0  0  0  0  0  0  0  0  0
   46.5339    4.7075   13.3499 C   0  0  0  0  0  0  0  0  0  0  0  0
   43.2006    7.1095   11.4454 C   0  0  0  0  0  0  0  0  0  0  0  0
   43.5619    4.2087   13.6822 O   0  0  0  0  0  0  0  0  0  0  0  0
   43.0762    8.1995   10.9115 O   0  0  0  0  0  0  0  0  0  0  0  0
   46.7444    5.7353   13.9694 O   0  0  0  0  0  0  0  0  0  0  0  0
   44.4874    4.8965   10.2353 O   0  0  0  0  0  0  0  0  0  0  0  0
   43.1137    3.2653   11.7025 O   0  0  0  0  0  0  0  0  0  0  0  0
   42.1179    6.3370   11.6534 O   0  0  0  0  0  0  0  0  0  0  0  0
   46.6447    3.5043   13.9407 O   0  0  0  0  0  0  0  0  0  0  0  0
   43.6958    3.9757   12.2210 N   0  0  0  0  0  0  0  0  0  0  0  0
   45.4769    6.3466   12.0294 N   0  0  0  0  0  0  0  0  0  0  0  0
   44.8343    4.1791   13.1345 C   0  0  0  0  0  0  0  0  0  0  0  0
   45.9558    5.0409   12.5158 C   0  0  0  0  0  0  0  0  0  0  0  0
   43.2166    5.2831   11.7384 C   0  0  0  0  0  0  0  0  0  0  0  0
   44.3380    6.1427   11.1173 C   0  0  0  0  0  0  0  0  0  0  0  0
   44.5295    3.4053   11.3194 H   0  0  0  0  0  0  0  0  0  0  0  0
   44.6427    6.9158   12.9333 H   0  0  0  0  0  0  0  0  0  0  0  0
   42.6385    5.2585   12.5898 H   0  0  0  0  0  0  0  0  0  0  0  0
   42.5239    4.5760   10.9734 H   0  0  0  0  0  0  0  0  0  0  0  0
   44.5330    5.7915   10.2232 H   0  0  0  0  0  0  0  0  0  0  0  0
   43.3992    6.9267   10.9426 H   0  0  0  0  0  0  0  0  0  0  0  0
   44.6397    4.5325   14.0285 H   0  0  0  0  0  0  0  0  0  0  0  0
   45.7735    3.3965   13.3101 H   0  0  0  0  0  0  0  0  0  0  0  0
   46.6484    5.7481   13.2802 H   0  0  0  0  0  0  0  0  0  0  0  0
   46.5346    5.0646   11.6629 H   0  0  0  0  0  0  0  0  0  0  0  0
   43.8728    7.2944   12.1306 H   0  0  0  0  0  0  0  0  0  0  0  0
   43.5333    6.0900   13.3946 H   0  0  0  0  0  0  0  0  0  0  0  0
   45.5252    4.2769   13.8306 H   0  0  0  0  0  0  0  0  0  0  0  0
   46.4050    3.7806   12.4000 H   0  0  0  0  0  0  0  0  0  0  0  0
   44.8873    5.0034   10.2579 H   0  0  0  0  0  0  0  0  0  0  0  0
   48.0325    7.0084   12.8779 H   0  0  0  0  0  0  0  0  0  0  0  0
   40.9109    5.6905   11.1882 H   0  0  0  0  0  0  0  0  0  0  0  0
   43.8120    1.9411   11.2177 H   0  0  0  0  0  0  0  0  0  0  0  0
   46.3851    5.5765   11.5558 H   0  0  0  0  0  0  0  0  0  0  0  0
   42.7866    4.7452   12.6962 H   0  0  0  0  0  0  0  0  0  0  0  0
   44.4235    6.6521   13.4579 H   0  0  0  0  0  0  0  0  0  0  0  0
   45.2011    7.5178   12.1380 H   0  0  0  0  0  0  0  0  0  0  0  0
   44.0728    6.1264   10.4467 H   0  0  0  0  0  0  0  0  0  0  0  0
   42.8724    6.7910   11.5475 H   0  0  0  0  0  0  0  0  0  0  0  0
   46.2994    3.5310   12.7040 H   0  0  0  0  0  0  0  0  0  0  0  0
   45.1007    4.1971   13.8071 H   0  0  0  0  0  0  0  0  0  0  0  0
   44.7497    3.6718   10.7949 H   0  0  0  0  0  0  0  0  0  0  0  0
   43.9715    2.8061   12.1141 H   0  0  0  0  0  0  0  0  0  0  0  0
   45.2883    7.1396   11.5636 H   0  0  0  0  0  0  0  0  0  0  0  0
   44.4710    6.7211   13.0801 H   0  0  0  0  0  0  0  0  0  0  0  0
   46.8468    5.1978   11.3175 H   0  0  0  0  0  0  0  0  0  0  0  0
   46.2689    3.5771   11.5667 H   0  0  0  0  0  0  0  0  0  0  0  0
   43.8492    4.1549   10.1449 H   0  0  0  0  0  0  0  0  0  0  0  0
   42.5410    2.7815   12.3375 H   0  0  0  0  0  0  0  0  0  0  0  0
   41.3838    6.8687   11.2761 H   0  0  0  0  0  0  0  0  0  0  0  0
   46.8681    3.7096   14.8736 H   0  0  0  0  0  0  0  0  0  0  0  0
   44.0365    3.4532   11.4129 H   0  0  0  0  0  0  0  0  0  0  0  0
   45.1377    6.8727   12.8356 H   0  0  0  0  0  0  0  0  0  0  0  0
   45.2412    3.2003   13.4117 H   0  0  0  0  0  0  0  0  0  0  0  0
   44.4748    4.6445   14.0605 H   0  0  0  0  0  0  0  0  0  0  0  0
   46.4266    4.4983   11.6865 H   0  0  0  0  0  0  0  0  0  0  0  0
   46.7367    5.2108   13.2654 H   0  0  0  0  0  0  0  0  0  0  0  0
   42.7497    5.8242   12.5705 H   0  0  0  0  0  0  0  0  0  0  0  0
   42.4319    5.1169   10.9920 H   0  0  0  0  0  0  0  0  0  0  0  0
   43.9318    7.1207   10.8371 H   0  0  0  0  0  0  0  0  0  0  0  0
   44.6981    5.6747   10.1929 H   0  0  0  0  0  0  0  0  0  0  0  0
  2  6  1  0
  3  1  1  0
  4  3  1  0
  5  1  1  0
  6  5  1  0
  2  4  1  0
  8  7  1  0
  9  7  1  0
 10  7  1  0
 11  9  1  0
 12  8  1  0
 13 10  2  0
 14 12  2  0
 15 11  2  0
 16  7  1  0
 17 10  1  0
 18 12  1  0
 19 11  1  0
 21 25  1  0
 22 20  1  0
 23 22  1  0
 24 20  1  0
 25 24  1  0
 21 23  1  0
 27 26  1  0
 28 26  1  0
 29 26  1  0
 30 28  1  0
 31 27  1  0
 32 29  2  0
 33 31  2  0
 34 30  2  0
 35 26  1  0
 36 29  1  0
 37 31  1  0
 38 30  1  0
 40 44  1  0
 41 39  1  0
 42 41  1  0
 43 39  1  0
 44 43  1  0
 40 42  1  0
  1 45  1  0
  2 46  1  0
  3 47  1  0
  3 48  1  0
  4 49  1  0
  4 50  1  0
  5 51  1  0
  5 52  1  0
  6 53  1  0
  6 54  1  0
  8 55  1  0
  8 56  1  0
  9 57  1  0
  9 58  1  0
 16 59  1  0
 17 60  1  0
 18 61  1  0
 19 62  1  0
 20 63  1  0
 21 64  1  0
 22 65  1  0
 22 66  1  0
 23 67  1  0
 23 68  1  0
 24 69  1  0
 24 70  1  0
 25 71  1  0
 25 72  1  0
 27 73  1  0
 27 74  1  0
 28 75  1  0
 28 76  1  0
 35 77  1  0
 36 78  1  0
 37 79  1  0
 38 80  1  0
 39 81  1  0
 40 82  1  0
 41 83  1  0
 41 84  1  0
 42 85  1  0
 42 86  1  0
 43 87  1  0
 43 88  1  0
 44 89  1  0
 44 90  1  0
M  END
> <Uni-Dock RESULT> 
ENERGY=   -8.624  LOWER_BOUND=    1.606  UPPER_BOUND=    2.853
INTER + INTRA:          -8.624
INTER:                  -8.624
INTRA:                   0.000
UNBOUND:                 0.000

$$$$

     RDKit          3D

 90 88  0  0  0  0  0  0  0  0999 V2000
   44.6760    6.1009   11.2064 N   0  0  0  0  0  0  0  0  0  0  0  0
   45.2265    3.8526   13.0706 N   0  0  0  0  0  0  0  0  0  0  0  0
   44.0274    4.7855   11.0654 C   0  0  0  0  0  0  0  0  0  0  0  0
   43.9243    4.0183   12.4013 C   0  0  0  0  0  0  0  0  0  0  0  0
   45.9779    5.9349   11.8760 C   0  0  0  0  0  0  0  0  0  0  0  0
   45.8754    5.1679   13.2118 C   0  0  0  0  0  0  0  0  0  0  0  0
   45.2245    4.7899   12.8313 C   0  0  0  0  0  0  0  0  0  0  0  0
   44.9083    3.7126   11.7744 C   0  0  0  0  0  0  0  0  0  0  0  0
   45.8035    6.1062   12.2987 C   0  0  0  0  0  0  0  0  0  0  0  0
   46.3283    4.2048   13.7335 C   0  0  0  0  0  0  0  0  0  0  0  0
   45.0292    6.6898   11.1618 C   0  0  0  0  0  0  0  0  0  0  0  0
   43.6260    3.9340   11.0283 C   0  0  0  0  0  0  0  0  0  0  0  0
   47.0773    3.2792   13.4587 O   0  0  0  0  0  0  0  0  0  0  0  0
   42.7641    4.7594   11.2893 O   0  0  0  0  0  0  0  0  0  0  0  0
   45.1707    6.4017    9.9842 O   0  0  0  0  0  0  0  0  0  0  0  0
   44.0776    5.0333   13.6582 O   0  0  0  0  0  0  0  0  0  0  0  0
   46.4642    4.8456   14.9154 O   0  0  0  0  0  0  0  0  0  0  0  0
   43.4802    3.0791    9.9992 O   0  0  0  0  0  0  0  0  0  0  0  0
   44.0868    7.5611   11.5604 O   0  0  0  0  0  0  0  0  0  0  0  0
   45.8671    5.0066   13.3088 N   0  0  0  0  0  0  0  0  0  0  0  0
   44.0359    4.9470   10.9684 N   0  0  0  0  0  0  0  0  0  0  0  0
   45.4248    3.7449   12.6885 C   0  0  0  0  0  0  0  0  0  0  0  0
   44.0617    3.8705   11.9742 C   0  0  0  0  0  0  0  0  0  0  0  0
   45.8415    6.0828   12.3024 C   0  0  0  0  0  0  0  0  0  0  0  0
   44.4781    6.2080   11.5890 C   0  0  0  0  0  0  0  0  0  0  0  0
   44.5563    5.1433   12.3890 C   0  0  0  0  0  0  0  0  0  0  0  0
   44.8753    3.6563   12.5728 C   0  0  0  0  0  0  0  0  0  0  0  0
   45.3515    6.0345   13.3477 C   0  0  0  0  0  0  0  0  0  0  0  0
   44.8694    5.5848   10.9474 C   0  0  0  0  0  0  0  0  0  0  0  0
   46.8338    5.9511   13.1395 C   0  0  0  0  0  0  0  0  0  0  0  0
   43.8831    2.7439   11.9090 C   0  0  0  0  0  0  0  0  0  0  0  0
   45.8914    5.3842   10.3142 O   0  0  0  0  0  0  0  0  0  0  0  0
   43.4122    1.7282   12.3942 O   0  0  0  0  0  0  0  0  0  0  0  0
   47.5465    5.0040   13.4218 O   0  0  0  0  0  0  0  0  0  0  0  0
   43.1727    5.3601   12.7263 O   0  0  0  0  0  0  0  0  0  0  0  0
   43.8482    6.2932   10.4081 O   0  0  0  0  0  0  0  0  0  0  0  0
   43.5830    3.0831   10.6412 O   0  0  0  0  0  0  0  0  0  0  0  0
   47.3441    7.0632   12.5808 O   0  0  0  0  0  0  0  0  0  0  0  0
   44.6014    5.7781   10.9370 N   0  0  0  0  0  0  0  0  0  0  0  0
   45.2989    4.1760   13.3405 N   0  0  0  0  0  0  0  0  0  0  0  0
   45.9109    5.8909   11.6036 C   0  0  0  0  0  0  0  0  0  0  0  0
   45.8583    5.5178   13.1007 C   0  0  0  0  0  0  0  0  0  0  0  0
   44.0455    4.4343   11.1755 C   0  0  0  0  0  0  0  0  0  0  0  0
   43.9905    4.0634   12.6728 C   0  0  0  0  0  0  0  0  0  0  0  0
   44.0865    6.6748   11.8112 H   0  0  0  0  0  0  0  0  0  0  0  0
   45.8157    3.2801   12.4645 H   0  0  0  0  0  0  0  0  0  0  0  0
   44.5831    4.1860   10.3335 H   0  0  0  0  0  0  0  0  0  0  0  0
   43.0228    4.9309   10.6536 H   0  0  0  0  0  0  0  0  0  0  0  0
   43.2347    4.5381   13.0779 H   0  0  0  0  0  0  0  0  0  0  0  0
   43.4953    3.0271   12.2173 H   0  0  0  0  0  0  0  0  0  0  0  0
   46.6670    5.4143   11.1996 H   0  0  0  0  0  0  0  0  0  0  0  0
   46.4072    6.9259   12.0595 H   0  0  0  0  0  0  0  0  0  0  0  0
   46.8804    5.0211   13.6229 H   0  0  0  0  0  0  0  0  0  0  0  0
   45.3196    5.7673   13.9437 H   0  0  0  0  0  0  0  0  0  0  0  0
   44.7930    2.7367   12.2661 H   0  0  0  0  0  0  0  0  0  0  0  0
   45.7321    3.6377   11.0536 H   0  0  0  0  0  0  0  0  0  0  0  0
   46.8332    5.9707   11.9422 H   0  0  0  0  0  0  0  0  0  0  0  0
   45.8599    6.8607   13.0943 H   0  0  0  0  0  0  0  0  0  0  0  0
   43.3632    5.3932   13.0930 H   0  0  0  0  0  0  0  0  0  0  0  0
   47.1563    4.3441   15.3925 H   0  0  0  0  0  0  0  0  0  0  0  0
   42.6268    3.3224    9.5831 H   0  0  0  0  0  0  0  0  0  0  0  0
   43.6116    7.8132   10.7398 H   0  0  0  0  0  0  0  0  0  0  0  0
   45.1921    5.2467   14.0364 H   0  0  0  0  0  0  0  0  0  0  0  0
   44.7092    4.7074   10.2394 H   0  0  0  0  0  0  0  0  0  0  0  0
   46.1878    3.4062   11.9762 H   0  0  0  0  0  0  0  0  0  0  0  0
   45.3562    2.9757   13.4660 H   0  0  0  0  0  0  0  0  0  0  0  0
   43.2704    4.0489   12.7129 H   0  0  0  0  0  0  0  0  0  0  0  0
   43.8226    2.9223   11.4799 H   0  0  0  0  0  0  0  0  0  0  0  0
   46.0784    7.0317   12.7962 H   0  0  0  0  0  0  0  0  0  0  0  0
   46.6334    5.9041   11.5643 H   0  0  0  0  0  0  0  0  0  0  0  0
   43.7151    6.5464   12.3012 H   0  0  0  0  0  0  0  0  0  0  0  0
   44.5457    6.9766   10.8112 H   0  0  0  0  0  0  0  0  0  0  0  0
   44.8459    3.4108   13.6415 H   0  0  0  0  0  0  0  0  0  0  0  0
   45.8674    3.3914   12.1927 H   0  0  0  0  0  0  0  0  0  0  0  0
   45.1408    5.7789   14.3935 H   0  0  0  0  0  0  0  0  0  0  0  0
   45.0330    7.0797   13.2451 H   0  0  0  0  0  0  0  0  0  0  0  0
   42.7845    5.8473   11.9664 H   0  0  0  0  0  0  0  0  0  0  0  0
   44.1629    6.4962    9.4999 H   0  0  0  0  0  0  0  0  0  0  0  0
   42.9718    2.3705   10.3542 H   0  0  0  0  0  0  0  0  0  0  0  0
   48.2974    6.8630   12.4645 H   0  0  0  0  0  0  0  0  0  0  0  0
   43.9731    6.4549   11.3720 H   0  0  0  0  0  0  0  0  0  0  0  0
   45.9264    3.4965   12.9087 H   0  0  0  0  0  0  0  0  0  0  0  0
   46.2702    6.9207   11.4997 H   0  0  0  0  0  0  0  0  0  0  0  0
   46.6356    5.2507   11.0854 H   0  0  0  0  0  0  0  0  0  0  0  0
   45.2625    6.2592   13.6476 H   0  0  0  0  0  0  0  0  0  0  0  0
   46.8704    5.5556   13.5187 H   0  0  0  0  0  0  0  0  0  0  0  0
   44.6452    3.6953   10.6303 H   0  0  0  0  0  0  0  0  0  0  0  0
   43.0350    4.3914   10.7543 H   0  0  0  0  0  0  0  0  0  0  0  0
   43.6287    3.0348   12.7782 H   0  0  0  0  0  0  0  0  0  0  0  0
   43.2674    4.7061   13.1899 H   0  0  0  0  0  0  0  0  0  0  0  0
  2  6  1  0
  3  1  1  0
  4  3  1  0
  5  1  1  0
  6  5  1  0
  2  4  1  0
  8  7  1  0
  9  7  1  0
 10  7  1  0
 11  9  1  0
 12  8  1  0
 13 10  2  0
 14 12  2  0
 15 11  2  0
 16  7  1  0
 17 10  1  0
 18 12  1  0
 19 11  1  0
 21 25  1  0
 22 20  1  0
 23 22  1  0
 24 20  1  0
 25 24  1  0
 21 23  1  0
 27 26  1  0
 28 26  1  0
 29 26  1  0
 30 28  1  0
 31 27  1  0
 32 29  2  0
 33 31  2  0
 34 30  2  0
 35 26  1  0
 36 29  1  0
 37 31  1  0
 38 30  1  0
 40 44  1  0
 41 39  1  0
 42 41  1  0
 43 39  1  0
 44 43  1  0
 40 42  1  0
  1 45  1  0
  2 46  1  0
  3 47  1  0
  3 48  1  0
  4 49  1  0
  4 50  1  0
  5 51  1  0
  5 52  1  0
  6 53  1  0
  6 54  1  0
  8 55  1  0
  8 56  1  0
  9 57  1  0
  9 58  1  0
 16 59  1  0
 17 60  1  0
 18 61  1  0
 19 62  1  0
 20 63  1  0
 21 64  1  0
 22 65  1  0
 22 66  1  0
 23 67  1  0
 23 68  1  0
 24 69  1  0
 24 70  1  0
 25 71  1  0
 25 72  1  0
 27 73  1  0
 27 74  1  0
 28 75  1  0
 28 76  1  0
 35 77  1  0
 36 78  1  0
 37 79  1  0
 38 80  1  0
 39 81  1  0
 40 82  1  0
 41 83  1  0
 41 84  1  0
 42 85  1  0
 42 86  1  0
 43 87  1  0
 43 88  1  0
 44 89  1  0
 44 90  1  0
M  END
> <Uni-Dock RESULT> 
ENERGY=   -8.579  LOWER_BOUND=    1.400  UPPER_BOUND=    3.858
INTER + INTRA:          -8.579
INTER:                  -8.579
INTRA:                   0.000
UNBOUND:                 0.000

$$$$

     RDKit          3D

 90 88  0  0  0  0  0  0  0  0999 V2000
   43.5274    5.7743   11.5176 N   0  0  0  0  0  0  0  0  0  0  0  0
   46.1709    5.7578   12.8759 N   0  0  0  0  0  0  0  0  0  0  0  0
   44.2891    7.0097   11.7712 C   0  0  0  0  0  0  0  0  0  0  0  0
   45.8113    6.7700   11.8674 C   0  0  0  0  0  0  0  0  0  0  0  0
   43.8874    4.7622   12.5260 C   0  0  0  0  0  0  0  0  0  0  0  0
   45.4094    4.5220   12.6226 C   0  0  0  0  0  0  0  0  0  0  0  0
   45.4522    5.3312   12.3887 C   0  0  0  0  0  0  0  0  0  0  0  0
   45.2782    6.7571   12.9492 C   0  0  0  0  0  0  0  0  0  0  0  0
   44.1654    4.5170   12.2081 C   0  0  0  0  0  0  0  0  0  0  0  0
   46.2753    4.5503   13.4315 C   0  0  0  0  0  0  0  0  0  0  0  0
   43.0872    5.2471   11.4751 C   0  0  0  0  0  0  0  0  0  0  0  0
   44.8217    7.7684   11.9397 C   0  0  0  0  0  0  0  0  0  0  0  0
   46.4215    4.8422   14.6090 O   0  0  0  0  0  0  0  0  0  0  0  0
   44.7442    7.6081   10.7312 O   0  0  0  0  0  0  0  0  0  0  0  0
   42.2777    6.0098   11.9778 O   0  0  0  0  0  0  0  0  0  0  0  0
   46.2142    5.3595   11.1732 O   0  0  0  0  0  0  0  0  0  0  0  0
   46.8324    3.4172   12.9501 O   0  0  0  0  0  0  0  0  0  0  0  0
   44.5095    8.9489   12.5052 O   0  0  0  0  0  0  0  0  0  0  0  0
   43.1106    5.0262   10.1497 O   0  0  0  0  0  0  0  0  0  0  0  0
   45.5795    4.5686   12.6888 N   0  0  0  0  0  0  0  0  0  0  0  0
   44.1188    6.9630   11.7050 N   0  0  0  0  0  0  0  0  0  0  0  0
   45.8848    5.9282   13.1691 C   0  0  0  0  0  0  0  0  0  0  0  0
   45.5243    7.0244   12.1432 C   0  0  0  0  0  0  0  0  0  0  0  0
   44.1737    4.5076   12.2510 C   0  0  0  0  0  0  0  0  0  0  0  0
   43.8142    5.6038   11.2250 C   0  0  0  0  0  0  0  0  0  0  0  0
   45.0375    5.7455   11.7379 C   0  0  0  0  0  0  0  0  0  0  0  0
   45.9557    6.3559   12.8014 C   0  0  0  0  0  0  0  0  0  0  0  0
   45.1387    4.2182   11.6855 C   0  0  0  0  0  0  0  0  0  0  0  0
   43.5707    6.1230   12.0150 C   0  0  0  0  0  0  0  0  0  0  0  0
   44.7124    3.5538   12.9600 C   0  0  0  0  0  0  0  0  0  0  0  0
   46.1432    7.8392   12.6515 C   0  0  0  0  0  0  0  0  0  0  0  0
   42.9654    6.0292   13.0688 O   0  0  0  0  0  0  0  0  0  0  0  0
   47.2006    8.4387   12.7573 O   0  0  0  0  0  0  0  0  0  0  0  0
   45.3241    3.5624   14.0137 O   0  0  0  0  0  0  0  0  0  0  0  0
   45.4715    6.2009   10.4420 O   0  0  0  0  0  0  0  0  0  0  0  0
   42.9515    6.5773   10.8987 O   0  0  0  0  0  0  0  0  0  0  0  0
   44.9998    8.5241   12.4622 O   0  0  0  0  0  0  0  0  0  0  0  0
   43.5339    2.9158   12.8452 O   0  0  0  0  0  0  0  0  0  0  0  0
   43.5089    6.1634   11.6927 N   0  0  0  0  0  0  0  0  0  0  0  0
   46.1899    5.3693   12.6987 N   0  0  0  0  0  0  0  0  0  0  0  0
   43.7081    4.9810   12.5496 C   0  0  0  0  0  0  0  0  0  0  0  0
   45.1271    4.3844   12.4318 C   0  0  0  0  0  0  0  0  0  0  0  0
   44.5712    7.1482   11.9637 C   0  0  0  0  0  0  0  0  0  0  0  0
   45.9895    6.5515   11.8427 C   0  0  0  0  0  0  0  0  0  0  0  0
   43.8103    5.4169   10.6039 H   0  0  0  0  0  0  0  0  0  0  0  0
   45.8863    6.1153   13.7888 H   0  0  0  0  0  0  0  0  0  0  0  0
   43.9259    7.4738   12.6967 H   0  0  0  0  0  0  0  0  0  0  0  0
   44.0855    7.7208   10.9631 H   0  0  0  0  0  0  0  0  0  0  0  0
   46.2028    6.4606   10.8903 H   0  0  0  0  0  0  0  0  0  0  0  0
   46.3107    7.7116   12.1212 H   0  0  0  0  0  0  0  0  0  0  0  0
   43.4967    5.0723   13.5031 H   0  0  0  0  0  0  0  0  0  0  0  0
   43.3877    3.8209   12.2727 H   0  0  0  0  0  0  0  0  0  0  0  0
   45.6131    3.8121   13.4319 H   0  0  0  0  0  0  0  0  0  0  0  0
   45.7726    4.0581   11.6970 H   0  0  0  0  0  0  0  0  0  0  0  0
   46.2449    7.1294   13.3159 H   0  0  0  0  0  0  0  0  0  0  0  0
   44.5732    6.7488   13.7899 H   0  0  0  0  0  0  0  0  0  0  0  0
   43.7434    4.2225   13.1781 H   0  0  0  0  0  0  0  0  0  0  0  0
   44.3657    3.5797   11.6727 H   0  0  0  0  0  0  0  0  0  0  0  0
   45.7070    5.8656   10.5054 H   0  0  0  0  0  0  0  0  0  0  0  0
   47.3533    3.0588   13.6973 H   0  0  0  0  0  0  0  0  0  0  0  0
   44.2161    9.5186   11.7636 H   0  0  0  0  0  0  0  0  0  0  0  0
   42.4104    5.6078    9.7836 H   0  0  0  0  0  0  0  0  0  0  0  0
   46.1662    4.3901   11.8724 H   0  0  0  0  0  0  0  0  0  0  0  0
   43.5310    7.1428   12.5201 H   0  0  0  0  0  0  0  0  0  0  0  0
   45.3476    6.1078   14.1090 H   0  0  0  0  0  0  0  0  0  0  0  0
   46.9541    5.9875   13.4012 H   0  0  0  0  0  0  0  0  0  0  0  0
   46.1787    6.9421   11.2664 H   0  0  0  0  0  0  0  0  0  0  0  0
   45.7119    8.0097   12.5843 H   0  0  0  0  0  0  0  0  0  0  0  0
   43.9857    3.5234   11.8079 H   0  0  0  0  0  0  0  0  0  0  0  0
   43.5198    4.5895   13.1284 H   0  0  0  0  0  0  0  0  0  0  0  0
   44.3515    5.4244   10.2852 H   0  0  0  0  0  0  0  0  0  0  0  0
   42.7452    5.5455   10.9924 H   0  0  0  0  0  0  0  0  0  0  0  0
   46.9551    5.9129   12.7120 H   0  0  0  0  0  0  0  0  0  0  0  0
   45.5954    6.1738   13.8192 H   0  0  0  0  0  0  0  0  0  0  0  0
   46.1630    3.8961   11.4609 H   0  0  0  0  0  0  0  0  0  0  0  0
   44.5341    3.8269   10.8573 H   0  0  0  0  0  0  0  0  0  0  0  0
   44.6695    6.5578   10.0005 H   0  0  0  0  0  0  0  0  0  0  0  0
   42.0453    6.7944   11.2100 H   0  0  0  0  0  0  0  0  0  0  0  0
   45.2976    9.4590   12.4318 H   0  0  0  0  0  0  0  0  0  0  0  0
   43.3563    2.5665   13.7445 H   0  0  0  0  0  0  0  0  0  0  0  0
   43.6060    5.8623   10.7221 H   0  0  0  0  0  0  0  0  0  0  0  0
   46.0971    5.6706   13.6695 H   0  0  0  0  0  0  0  0  0  0  0  0
   42.9710    4.2190   12.2733 H   0  0  0  0  0  0  0  0  0  0  0  0
   43.5039    5.2532   13.5925 H   0  0  0  0  0  0  0  0  0  0  0  0
   45.2706    3.9626   11.4291 H   0  0  0  0  0  0  0  0  0  0  0  0
   45.2310    3.5555   13.1407 H   0  0  0  0  0  0  0  0  0  0  0  0
   44.4268    7.5654   12.9678 H   0  0  0  0  0  0  0  0  0  0  0  0
   44.4672    7.9811   11.2595 H   0  0  0  0  0  0  0  0  0  0  0  0
   46.7276    7.3134   12.1160 H   0  0  0  0  0  0  0  0  0  0  0  0
   46.1911    6.2775   10.7998 H   0  0  0  0  0  0  0  0  0  0  0  0
  2  6  1  0
  3  1  1  0
  4  3  1  0
  5  1  1  0
  6  5  1  0
  2  4  1  0
  8  7  1  0
  9  7  1  0
 10  7  1  0
 11  9  1  0
 12  8  1  0
 13 10  2  0
 14 12  2  0
 15 11  2  0
 16  7  1  0
 17 10  1  0
 18 12  1  0
 19 11  1  0
 21 25  1  0
 22 20  1  0
 23 22  1  0
 24 20  1  0
 25 24  1  0
 21 23  1  0
 27 26  1  0
 28 26  1  0
 29 26  1  0
 30 28  1  0
 31 27  1  0
 32 29  2  0
 33 31  2  0
 34 30  2  0
 35 26  1  0
 36 29  1  0
 37 31  1  0
 38 30  1  0
 40 44  1  0
 41 39  1  0
 42 41  1  0
 43 39  1  0
 44 43  1  0
 40 42  1  0
  1 45  1  0
  2 46  1  0
  3 47  1  0
  3 48  1  0
  4 49  1  0
  4 50  1  0
  5 51  1  0
  5 52  1  0
  6 53  1  0
  6 54  1  0
  8 55  1  0
  8 56  1  0
  9 57  1  0
  9 58  1  0
 16 59  1  0
 17 60  1  0
 18 61  1  0
 19 62  1  0
 20 63  1  0
 21 64  1  0
 22 65  1  0
 22 66  1  0
 23 67  1  0
 23 68  1  0
 24 69  1  0
 24 70  1  0
 25 71  1  0
 25 72  1  0
 27 73  1  0
 27 74  1  0
 28 75  1  0
 28 76  1  0
 35 77  1  0
 36 78  1  0
 37 79  1  0
 38 80  1  0
 39 81  1  0
 40 82  1  0
 41 83  1  0
 41 84  1  0
 42 85  1  0
 42 86  1  0
 43 87  1  0
 43 88  1  0
 44 89  1  0
 44 90  1  0
M  END
> <Uni-Dock RESULT> 
ENERGY=   -8.191  LOWER_BOUND=    1.815  UPPER_BOUND=    3.234
INTER + INTRA:          -8.191
INTER:                  -8.191
INTRA:                   0.000
UNBOUND:                 0.000

$$$$

     RDKit          3D

 90 88  0  0  0  0  0  0  0  0999 V2000
   43.4501    5.3365   11.4025 N   0  0  0  0  0  0  0  0  0  0  0  0
   45.9805    5.7061   12.9171 N   0  0  0  0  0  0  0  0  0  0  0  0
   44.2466    4.1982   11.8929 C   0  0  0  0  0  0  0  0  0  0  0  0
   45.0962    4.5475   13.1339 C   0  0  0  0  0  0  0  0  0  0  0  0
   44.3345    6.4950   11.1861 C   0  0  0  0  0  0  0  0  0  0  0  0
   45.1843    6.8448   12.4266 C   0  0  0  0  0  0  0  0  0  0  0  0
   45.1305    6.0162   12.5748 C   0  0  0  0  0  0  0  0  0  0  0  0
   45.7170    4.6691   12.1070 C   0  0  0  0  0  0  0  0  0  0  0  0
   44.1795    6.7134   11.5945 C   0  0  0  0  0  0  0  0  0  0  0  0
   46.3223    6.9808   12.7286 C   0  0  0  0  0  0  0  0  0  0  0  0
   43.1043    5.8235   11.0607 C   0  0  0  0  0  0  0  0  0  0  0  0
   44.7806    3.5051   12.2422 C   0  0  0  0  0  0  0  0  0  0  0  0
   47.4270    6.8581   12.2209 O   0  0  0  0  0  0  0  0  0  0  0  0
   43.7057    3.4980   12.8225 O   0  0  0  0  0  0  0  0  0  0  0  0
   43.2090    5.0831   10.0961 O   0  0  0  0  0  0  0  0  0  0  0  0
   44.5212    5.8766   13.8663 O   0  0  0  0  0  0  0  0  0  0  0  0
   46.0475    8.0739   13.4739 O   0  0  0  0  0  0  0  0  0  0  0  0
   45.2622    2.3923   11.6586 O   0  0  0  0  0  0  0  0  0  0  0  0
   41.9760    5.8675   11.7895 O   0  0  0  0  0  0  0  0  0  0  0  0
   45.3364    6.8186   12.5347 N   0  0  0  0  0  0  0  0  0  0  0  0
   44.0944    4.2245   11.7848 N   0  0  0  0  0  0  0  0  0  0  0  0
   46.0995    5.5578   12.5162 C   0  0  0  0  0  0  0  0  0  0  0  0
   45.2126    4.3138   12.7402 C   0  0  0  0  0  0  0  0  0  0  0  0
   44.2184    6.7289   11.5788 C   0  0  0  0  0  0  0  0  0  0  0  0
   43.3319    5.4850   11.8037 C   0  0  0  0  0  0  0  0  0  0  0  0
   44.4282    5.4930   12.5638 C   0  0  0  0  0  0  0  0  0  0  0  0
   45.8925    5.0905   12.7653 C   0  0  0  0  0  0  0  0  0  0  0  0
   44.2130    7.0031   12.7011 C   0  0  0  0  0  0  0  0  0  0  0  0
   43.9401    5.0605   11.1689 C   0  0  0  0  0  0  0  0  0  0  0  0
   44.9555    7.8016   11.6722 C   0  0  0  0  0  0  0  0  0  0  0  0
   46.0846    3.6160   12.9807 C   0  0  0  0  0  0  0  0  0  0  0  0
   44.4875    5.2538   10.0971 O   0  0  0  0  0  0  0  0  0  0  0  0
   46.8202    3.1062   13.8101 O   0  0  0  0  0  0  0  0  0  0  0  0
   46.1609    7.9730   11.6289 O   0  0  0  0  0  0  0  0  0  0  0  0
   43.6412    4.8988   13.6139 O   0  0  0  0  0  0  0  0  0  0  0  0
   42.7465    4.4226   11.2320 O   0  0  0  0  0  0  0  0  0  0  0  0
   45.4228    2.8388   12.1031 O   0  0  0  0  0  0  0  0  0  0  0  0
   44.1427    8.3403   10.7458 O   0  0  0  0  0  0  0  0  0  0  0  0
   43.6440    4.9738   11.2876 N   0  0  0  0  0  0  0  0  0  0  0  0
   45.7852    6.0680   13.0336 N   0  0  0  0  0  0  0  0  0  0  0  0
   44.2917    6.2700   11.0184 C   0  0  0  0  0  0  0  0  0  0  0  0
   44.8553    6.9370   12.2914 C   0  0  0  0  0  0  0  0  0  0  0  0
   44.5770    4.1052   12.0271 C   0  0  0  0  0  0  0  0  0  0  0  0
   45.1375    4.7720   13.3012 C   0  0  0  0  0  0  0  0  0  0  0  0
   42.7831    5.5871   12.1338 H   0  0  0  0  0  0  0  0  0  0  0  0
   46.6459    5.4551   12.1847 H   0  0  0  0  0  0  0  0  0  0  0  0
   44.8967    3.8384   11.0857 H   0  0  0  0  0  0  0  0  0  0  0  0
   43.5680    3.3743   12.1397 H   0  0  0  0  0  0  0  0  0  0  0  0
   44.4407    4.7494   13.9902 H   0  0  0  0  0  0  0  0  0  0  0  0
   45.7110    3.6827   13.4068 H   0  0  0  0  0  0  0  0  0  0  0  0
   44.9905    6.2925   10.3305 H   0  0  0  0  0  0  0  0  0  0  0  0
   43.7200    7.3596   10.9127 H   0  0  0  0  0  0  0  0  0  0  0  0
   45.8641    7.6677   12.1793 H   0  0  0  0  0  0  0  0  0  0  0  0
   44.5341    7.2044   13.2340 H   0  0  0  0  0  0  0  0  0  0  0  0
   46.5893    4.4129   12.7242 H   0  0  0  0  0  0  0  0  0  0  0  0
   46.0460    4.7430   11.0629 H   0  0  0  0  0  0  0  0  0  0  0  0
   44.7240    7.1059   10.7255 H   0  0  0  0  0  0  0  0  0  0  0  0
   43.6998    7.5824   12.0636 H   0  0  0  0  0  0  0  0  0  0  0  0
   43.7693    5.2542   13.7847 H   0  0  0  0  0  0  0  0  0  0  0  0
   46.8947    8.5616   13.5227 H   0  0  0  0  0  0  0  0  0  0  0  0
   44.5710    1.7112   11.7962 H   0  0  0  0  0  0  0  0  0  0  0  0
   41.3855    5.1978   11.3827 H   0  0  0  0  0  0  0  0  0  0  0  0
   44.9376    6.9250   13.4686 H   0  0  0  0  0  0  0  0  0  0  0  0
   44.4916    4.1165   10.8506 H   0  0  0  0  0  0  0  0  0  0  0  0
   46.6278    5.4699   11.5584 H   0  0  0  0  0  0  0  0  0  0  0  0
   46.8673    5.5998   13.2968 H   0  0  0  0  0  0  0  0  0  0  0  0
   44.8133    4.3215   13.7620 H   0  0  0  0  0  0  0  0  0  0  0  0
   45.8256    3.4102   12.6489 H   0  0  0  0  0  0  0  0  0  0  0  0
   43.6037    7.6312   11.6709 H   0  0  0  0  0  0  0  0  0  0  0  0
   44.6184    6.7217   10.5570 H   0  0  0  0  0  0  0  0  0  0  0  0
   42.8038    5.5728   12.7615 H   0  0  0  0  0  0  0  0  0  0  0  0
   42.5639    5.4420   11.0235 H   0  0  0  0  0  0  0  0  0  0  0  0
   46.2808    5.5821   13.6657 H   0  0  0  0  0  0  0  0  0  0  0  0
   46.5262    5.3823   11.9214 H   0  0  0  0  0  0  0  0  0  0  0  0
   44.5192    7.3587   13.6927 H   0  0  0  0  0  0  0  0  0  0  0  0
   43.1434    7.2405   12.6364 H   0  0  0  0  0  0  0  0  0  0  0  0
   42.9007    4.4348   13.1645 H   0  0  0  0  0  0  0  0  0  0  0  0
   42.5598    4.1900   10.2959 H   0  0  0  0  0  0  0  0  0  0  0  0
   45.6925    1.9295   12.3568 H   0  0  0  0  0  0  0  0  0  0  0  0
   44.7493    8.7936   10.1221 H   0  0  0  0  0  0  0  0  0  0  0  0
   42.8395    5.1490   11.8911 H   0  0  0  0  0  0  0  0  0  0  0  0
   46.5920    5.8928   12.4336 H   0  0  0  0  0  0  0  0  0  0  0  0
   43.5589    6.9387   10.5535 H   0  0  0  0  0  0  0  0  0  0  0  0
   45.0957    6.1260   10.2861 H   0  0  0  0  0  0  0  0  0  0  0  0
   44.0308    7.2304   12.9532 H   0  0  0  0  0  0  0  0  0  0  0  0
   45.3809    7.8578   12.0149 H   0  0  0  0  0  0  0  0  0  0  0  0
   45.4016    3.8166   11.3639 H   0  0  0  0  0  0  0  0  0  0  0  0
   44.0559    3.1812   12.3010 H   0  0  0  0  0  0  0  0  0  0  0  0
   45.8684    4.1030   13.7687 H   0  0  0  0  0  0  0  0  0  0  0  0
   44.3319    4.9176   14.0313 H   0  0  0  0  0  0  0  0  0  0  0  0
  2  6  1  0
  3  1  1  0
  4  3  1  0
  5  1  1  0
  6  5  1  0
  2  4  1  0
  8  7  1  0
  9  7  1  0
 10  7  1  0
 11  9  1  0
 12  8  1  0
 13 10  2  0
 14 12  2  0
 15 11  2  0
 16  7  1  0
 17 10  1  0
 18 12  1  0
 19 11  1  0
 21 25  1  0
 22 20  1  0
 23 22  1  0
 24 20  1  0
 25 24  1  0
 21 23  1  0
 27 26  1  0
 28 26  1  0
 29 26  1  0
 30 28  1  0
 31 27  1  0
 32 29  2  0
 33 31  2  0
 34 30  2  0
 35 26  1  0
 36 29  1  0
 37 31  1  0
 38 30  1  0
 40 44  1  0
 41 39  1  0
 42 41  1  0
 43 39  1  0
 44 43  1  0
 40 42  1  0
  1 45  1  0
  2 46  1  0
  3 47  1  0
  3 48  1  0
  4 49  1  0
  4 50  1  0
  5 51  1  0
  5 52  1  0
  6 53  1  0
  6 54  1  0
  8 55  1  0
  8 56  1  0
  9 57  1  0
  9 58  1  0
 16 59  1  0
 17 60  1  0
 18 61  1  0
 19 62  1  0
 20 63  1  0
 21 64  1  0
 22 65  1  0
 22 66  1  0
 23 67  1  0
 23 68  1  0
 24 69  1  0
 24 70  1  0
 25 71  1  0
 25 72  1  0
 27 73  1  0
 27 74  1  0
 28 75  1  0
 28 76  1  0
 35 77  1  0
 36 78  1  0
 37 79  1  0
 38 80  1  0
 39 81  1  0
 40 82  1  0
 41 83  1  0
 41 84  1  0
 42 85  1  0
 42 86  1  0
 43 87  1  0
 43 88  1  0
 44 89  1  0
 44 90  1  0
M  END
> <Uni-Dock RESULT> 
ENERGY=   -7.723  LOWER_BOUND=    1.534  UPPER_BOUND=    3.593
INTER + INTRA:          -7.723
INTER:                  -7.723
INTRA:                   0.000
UNBOUND:                 0.000

$$$$

     RDKit          3D

 90 88  0  0  0  0  0  0  0  0999 V2000
   47.7377    3.5991   17.3347 N   0  0  0  0  0  0  0  0  0  0  0  0
   49.8519    5.2086   18.6664 N   0  0  0  0  0  0  0  0  0  0  0  0
   47.4218    4.7294   18.2254 C   0  0  0  0  0  0  0  0  0  0  0  0
   48.5493    5.7826   18.2854 C   0  0  0  0  0  0  0  0  0  0  0  0
   49.0404    3.0256   17.7157 C   0  0  0  0  0  0  0  0  0  0  0  0
   50.1681    4.0781   17.7758 C   0  0  0  0  0  0  0  0  0  0  0  0
   49.5376    4.5976   17.9853 C   0  0  0  0  0  0  0  0  0  0  0  0
   48.6329    4.9735   19.1760 C   0  0  0  0  0  0  0  0  0  0  0  0
   49.2649    3.2354   17.3361 C   0  0  0  0  0  0  0  0  0  0  0  0
   50.9707    4.4943   18.5424 C   0  0  0  0  0  0  0  0  0  0  0  0
   47.8268    3.0024   17.0038 C   0  0  0  0  0  0  0  0  0  0  0  0
   47.2719    5.4705   18.7875 C   0  0  0  0  0  0  0  0  0  0  0  0
   51.2865    4.3419   19.7129 O   0  0  0  0  0  0  0  0  0  0  0  0
   46.8936    5.7538   17.6610 O   0  0  0  0  0  0  0  0  0  0  0  0
   46.9830    2.5644   17.7692 O   0  0  0  0  0  0  0  0  0  0  0  0
   49.5329    5.6427   17.0022 O   0  0  0  0  0  0  0  0  0  0  0  0
   51.9304    4.5401   17.5922 O   0  0  0  0  0  0  0  0  0  0  0  0
   46.4582    5.6128   19.8498 O   0  0  0  0  0  0  0  0  0  0  0  0
   47.5095    3.3765   15.7526 O   0  0  0  0  0  0  0  0  0  0  0  0
   50.2628    4.2129   17.8673 N   0  0  0  0  0  0  0  0  0  0  0  0
   47.3273    4.5945   18.1338 N   0  0  0  0  0  0  0  0  0  0  0  0
   49.6660    4.9638   18.9864 C   0  0  0  0  0  0  0  0  0  0  0  0
   48.2974    5.5850   18.6327 C   0  0  0  0  0  0  0  0  0  0  0  0
   49.2923    3.2222   17.3690 C   0  0  0  0  0  0  0  0  0  0  0  0
   47.9243    3.8442   17.0152 C   0  0  0  0  0  0  0  0  0  0  0  0
   48.7548    4.7041   17.6072 C   0  0  0  0  0  0  0  0  0  0  0  0
   49.2722    5.3624   18.8901 C   0  0  0  0  0  0  0  0  0  0  0  0
   49.8737    4.0414   16.7982 C   0  0  0  0  0  0  0  0  0  0  0  0
   47.7009    3.6324   17.9417 C   0  0  0  0  0  0  0  0  0  0  0  0
   50.5522    2.9246   17.5330 C   0  0  0  0  0  0  0  0  0  0  0  0
   48.2851    6.3030   19.5213 C   0  0  0  0  0  0  0  0  0  0  0  0
   47.7875    2.7357   18.7627 O   0  0  0  0  0  0  0  0  0  0  0  0
   48.5425    7.4027   19.9830 O   0  0  0  0  0  0  0  0  0  0  0  0
   51.3044    3.0434   18.4840 O   0  0  0  0  0  0  0  0  0  0  0  0
   48.2205    5.7304   16.7491 O   0  0  0  0  0  0  0  0  0  0  0  0
   46.5948    3.7604   17.1697 O   0  0  0  0  0  0  0  0  0  0  0  0
   47.0392    5.8048   19.6300 O   0  0  0  0  0  0  0  0  0  0  0  0
   50.2451    1.7129   17.0363 O   0  0  0  0  0  0  0  0  0  0  0  0
   47.5166    3.7169   17.6805 N   0  0  0  0  0  0  0  0  0  0  0  0
   50.0721    5.0923   18.3191 N   0  0  0  0  0  0  0  0  0  0  0  0
   48.7860    2.9843   17.8348 C   0  0  0  0  0  0  0  0  0  0  0  0
   50.0238    3.8529   17.5239 C   0  0  0  0  0  0  0  0  0  0  0  0
   47.5661    4.9544   18.4792 C   0  0  0  0  0  0  0  0  0  0  0  0
   48.8024    5.8235   18.1654 C   0  0  0  0  0  0  0  0  0  0  0  0
   47.8254    3.9661   16.3860 H   0  0  0  0  0  0  0  0  0  0  0  0
   49.7628    4.8405   19.6144 H   0  0  0  0  0  0  0  0  0  0  0  0
   47.2147    4.3478   19.2330 H   0  0  0  0  0  0  0  0  0  0  0  0
   46.5000    5.2064   17.8751 H   0  0  0  0  0  0  0  0  0  0  0  0
   48.6457    6.2819   17.3132 H   0  0  0  0  0  0  0  0  0  0  0  0
   48.2816    6.5585   19.0111 H   0  0  0  0  0  0  0  0  0  0  0  0
   48.9440    2.5273   18.6882 H   0  0  0  0  0  0  0  0  0  0  0  0
   49.3079    2.2494   16.9905 H   0  0  0  0  0  0  0  0  0  0  0  0
   51.0898    3.6014   18.1277 H   0  0  0  0  0  0  0  0  0  0  0  0
   50.3752    4.4599   16.7683 H   0  0  0  0  0  0  0  0  0  0  0  0
   49.0914    5.7963   19.7419 H   0  0  0  0  0  0  0  0  0  0  0  0
   48.5203    4.1153   19.8502 H   0  0  0  0  0  0  0  0  0  0  0  0
   49.5732    2.4133   17.9956 H   0  0  0  0  0  0  0  0  0  0  0  0
   49.8504    3.1151   16.4153 H   0  0  0  0  0  0  0  0  0  0  0  0
   48.6230    5.7276   16.6498 H   0  0  0  0  0  0  0  0  0  0  0  0
   52.7737    4.5118   18.0884 H   0  0  0  0  0  0  0  0  0  0  0  0
   45.6059    5.9248   19.4797 H   0  0  0  0  0  0  0  0  0  0  0  0
   46.5402    3.2401   15.6857 H   0  0  0  0  0  0  0  0  0  0  0  0
   50.4443    4.8758   17.1121 H   0  0  0  0  0  0  0  0  0  0  0  0
   47.1436    3.9319   18.8885 H   0  0  0  0  0  0  0  0  0  0  0  0
   49.5591    4.2974   19.8516 H   0  0  0  0  0  0  0  0  0  0  0  0
   50.3580    5.7593   19.2850 H   0  0  0  0  0  0  0  0  0  0  0  0
   48.4299    6.3706   17.8784 H   0  0  0  0  0  0  0  0  0  0  0  0
   47.8786    6.0699   19.5216 H   0  0  0  0  0  0  0  0  0  0  0  0
   49.7094    2.7383   16.4788 H   0  0  0  0  0  0  0  0  0  0  0  0
   49.1607    2.4365   18.1236 H   0  0  0  0  0  0  0  0  0  0  0  0
   48.0312    4.5108   16.1502 H   0  0  0  0  0  0  0  0  0  0  0  0
   47.2317    3.0496   16.7167 H   0  0  0  0  0  0  0  0  0  0  0  0
   50.1578    5.9651   18.6541 H   0  0  0  0  0  0  0  0  0  0  0  0
   49.5564    4.6285   19.6514 H   0  0  0  0  0  0  0  0  0  0  0  0
   50.6394    4.7716   16.5084 H   0  0  0  0  0  0  0  0  0  0  0  0
   49.4785    3.6583   15.8487 H   0  0  0  0  0  0  0  0  0  0  0  0
   47.3202    5.4278   16.4973 H   0  0  0  0  0  0  0  0  0  0  0  0
   46.0067    3.0411   17.4888 H   0  0  0  0  0  0  0  0  0  0  0  0
   46.5494    6.5175   20.0947 H   0  0  0  0  0  0  0  0  0  0  0  0
   50.7143    1.0821   17.6231 H   0  0  0  0  0  0  0  0  0  0  0  0
   47.4309    3.9847   16.6992 H   0  0  0  0  0  0  0  0  0  0  0  0
   50.1603    4.8278   19.3009 H   0  0  0  0  0  0  0  0  0  0  0  0
   48.7747    2.1174   17.1650 H   0  0  0  0  0  0  0  0  0  0  0  0
   48.8537    2.5916   18.8569 H   0  0  0  0  0  0  0  0  0  0  0  0
   50.0396    4.1086   16.4571 H   0  0  0  0  0  0  0  0  0  0  0  0
   50.9319    3.2730   17.7229 H   0  0  0  0  0  0  0  0  0  0  0  0
   47.5535    4.6951   19.5449 H   0  0  0  0  0  0  0  0  0  0  0  0
   46.6569    5.5346   18.2863 H   0  0  0  0  0  0  0  0  0  0  0  0
   48.8133    6.6923   18.8326 H   0  0  0  0  0  0  0  0  0  0  0  0
   48.7344    6.2132   17.1423 H   0  0  0  0  0  0  0  0  0  0  0  0
  2  6  1  0
  3  1  1  0
  4  3  1  0
  5  1  1  0
  6  5  1  0
  2  4  1  0
  8  7  1  0
  9  7  1  0
 10  7  1  0
 11  9  1  0
 12  8  1  0
 13 10  2  0
 14 12  2  0
 15 11  2  0
 16  7  1  0
 17 10  1  0
 18 12  1  0
 19 11  1  0
 21 25  1  0
 22 20  1  0
 23 22  1  0
 24 20  1  0
 25 24  1  0
 21 23  1  0
 27 26  1  0
 28 26  1  0
 29 26  1  0
 30 28  1  0
 31 27  1  0
 32 29  2  0
 33 31  2  0
 34 30  2  0
 35 26  1  0
 36 29  1  0
 37 31  1  0
 38 30  1  0
 40 44  1  0
 41 39  1  0
 42 41  1  0
 43 39  1  0
 44 43  1  0
 40 42  1  0
  1 45  1  0
  2 46  1  0
  3 47  1  0
  3 48  1  0
  4 49  1  0
  4 50  1  0
  5 51  1  0
  5 52  1  0
  6 53  1  0
  6 54  1  0
  8 55  1  0
  8 56  1  0
  9 57  1  0
  9 58  1  0
 16 59  1  0
 17 60  1  0
 18 61  1  0
 19 62  1  0
 20 63  1  0
 21 64  1  0
 22 65  1  0
 22 66  1  0
 23 67  1  0
 23 68  1  0
 24 69  1  0
 24 70  1  0
 25 71  1  0
 25 72  1  0
 27 73  1  0
 27 74  1  0
 28 75  1  0
 28 76  1  0
 35 77  1  0
 36 78  1  0
 37 79  1  0
 38 80  1  0
 39 81  1  0
 40 82  1  0
 41 83  1  0
 41 84  1  0
 42 85  1  0
 42 86  1  0
 43 87  1  0
 43 88  1  0
 44 89  1  0
 44 90  1  0
M  END
> <Uni-Dock RESULT> 
ENERGY=   -6.895  LOWER_BOUND=    7.074  UPPER_BOUND=    8.535
INTER + INTRA:          -6.895
INTER:                  -6.895
INTRA:                   0.000
UNBOUND:                 0.000

$$$$

     RDKit          3D

 90 88  0  0  0  0  0  0  0  0999 V2000
   43.6444    3.3012   11.6059 N   0  0  0  0  0  0  0  0  0  0  0  0
   45.1942    5.6721   10.7056 N   0  0  0  0  0  0  0  0  0  0  0  0
   44.2354    3.3895   10.2592 C   0  0  0  0  0  0  0  0  0  0  0  0
   45.4700    4.3150   10.2024 C   0  0  0  0  0  0  0  0  0  0  0  0
   43.3691    4.6585   12.1089 C   0  0  0  0  0  0  0  0  0  0  0  0
   44.6032    5.5843   12.0525 C   0  0  0  0  0  0  0  0  0  0  0  0
   44.8087    5.1061   11.3888 C   0  0  0  0  0  0  0  0  0  0  0  0
   44.4536    4.8915    9.9038 C   0  0  0  0  0  0  0  0  0  0  0  0
   43.7566    4.6473   12.4059 C   0  0  0  0  0  0  0  0  0  0  0  0
   44.9242    6.6290   11.5938 C   0  0  0  0  0  0  0  0  0  0  0  0
   43.2599    3.2571   12.1748 C   0  0  0  0  0  0  0  0  0  0  0  0
   44.6470    3.4858    9.4172 C   0  0  0  0  0  0  0  0  0  0  0  0
   44.4555    7.4972   10.8729 O   0  0  0  0  0  0  0  0  0  0  0  0
   45.1981    2.5760   10.0179 O   0  0  0  0  0  0  0  0  0  0  0  0
   42.3536    2.9431   11.4201 O   0  0  0  0  0  0  0  0  0  0  0  0
   46.0905    4.5340   11.6859 O   0  0  0  0  0  0  0  0  0  0  0  0
   45.5822    6.9799   12.7207 O   0  0  0  0  0  0  0  0  0  0  0  0
   44.1570    3.3030    8.1773 O   0  0  0  0  0  0  0  0  0  0  0  0
   43.9541    2.3310   12.8578 O   0  0  0  0  0  0  0  0  0  0  0  0
   44.7167    5.7017   11.9586 N   0  0  0  0  0  0  0  0  0  0  0  0
   44.1218    3.2721   10.3532 N   0  0  0  0  0  0  0  0  0  0  0  0
   44.8081    5.6895   10.4876 C   0  0  0  0  0  0  0  0  0  0  0  0
   45.0971    4.2854    9.9139 C   0  0  0  0  0  0  0  0  0  0  0  0
   43.7409    4.6884   12.3975 C   0  0  0  0  0  0  0  0  0  0  0  0
   44.0308    3.2847   11.8237 C   0  0  0  0  0  0  0  0  0  0  0  0
   44.8167    4.2336   11.3123 C   0  0  0  0  0  0  0  0  0  0  0  0
   45.0844    5.2720   10.2183 C   0  0  0  0  0  0  0  0  0  0  0  0
   44.8403    4.8448   12.7164 C   0  0  0  0  0  0  0  0  0  0  0  0
   43.4440    3.5700   11.0975 C   0  0  0  0  0  0  0  0  0  0  0  0
   43.7767    5.8800   12.9281 C   0  0  0  0  0  0  0  0  0  0  0  0
   45.4095    4.6653    8.8827 C   0  0  0  0  0  0  0  0  0  0  0  0
   42.3758    4.1209   10.8948 O   0  0  0  0  0  0  0  0  0  0  0  0
   46.2919    5.0366    8.1263 O   0  0  0  0  0  0  0  0  0  0  0  0
   43.7527    6.9953   12.4384 O   0  0  0  0  0  0  0  0  0  0  0  0
   45.8857    3.2681   11.2989 O   0  0  0  0  0  0  0  0  0  0  0  0
   43.5214    2.2202   11.1867 O   0  0  0  0  0  0  0  0  0  0  0  0
   44.5726    3.6807    8.5050 O   0  0  0  0  0  0  0  0  0  0  0  0
   42.7934    5.4565   13.7423 O   0  0  0  0  0  0  0  0  0  0  0  0
   43.5608    3.2742   11.1880 N   0  0  0  0  0  0  0  0  0  0  0  0
   45.2794    5.6975   11.1237 N   0  0  0  0  0  0  0  0  0  0  0  0
   43.2168    4.5014   11.9281 C   0  0  0  0  0  0  0  0  0  0  0  0
   44.4532    5.3506   12.2932 C   0  0  0  0  0  0  0  0  0  0  0  0
   44.3844    3.6241   10.0171 C   0  0  0  0  0  0  0  0  0  0  0  0
   45.6219    4.4705   10.3837 C   0  0  0  0  0  0  0  0  0  0  0  0
   44.3384    2.8762   12.2225 H   0  0  0  0  0  0  0  0  0  0  0  0
   44.4991    6.0956   10.0895 H   0  0  0  0  0  0  0  0  0  0  0  0
   43.4731    3.7418    9.5531 H   0  0  0  0  0  0  0  0  0  0  0  0
   44.5226    2.3835    9.9343 H   0  0  0  0  0  0  0  0  0  0  0  0
   46.2923    3.8760   10.7810 H   0  0  0  0  0  0  0  0  0  0  0  0
   45.8198    4.3887    9.1668 H   0  0  0  0  0  0  0  0  0  0  0  0
   42.5475    5.0975   11.5296 H   0  0  0  0  0  0  0  0  0  0  0  0
   43.0188    4.5848   13.1442 H   0  0  0  0  0  0  0  0  0  0  0  0
   44.3156    6.5909   12.3759 H   0  0  0  0  0  0  0  0  0  0  0  0
   45.3656    5.2319   12.7584 H   0  0  0  0  0  0  0  0  0  0  0  0
   45.1099    5.5090    9.2750 H   0  0  0  0  0  0  0  0  0  0  0  0
   43.4158    5.1943    9.7163 H   0  0  0  0  0  0  0  0  0  0  0  0
   42.8764    5.3035   12.3888 H   0  0  0  0  0  0  0  0  0  0  0  0
   44.1500    4.7021   13.4294 H   0  0  0  0  0  0  0  0  0  0  0  0
   46.0339    3.5662   11.5459 H   0  0  0  0  0  0  0  0  0  0  0  0
   45.6181    7.9577   12.6939 H   0  0  0  0  0  0  0  0  0  0  0  0
   44.3248    2.3594    7.9721 H   0  0  0  0  0  0  0  0  0  0  0  0
   43.5808    1.4708   12.5690 H   0  0  0  0  0  0  0  0  0  0  0  0
   45.6300    5.4324   12.3274 H   0  0  0  0  0  0  0  0  0  0  0  0
   43.2083    3.5393    9.9838 H   0  0  0  0  0  0  0  0  0  0  0  0
   43.8731    6.0784   10.0649 H   0  0  0  0  0  0  0  0  0  0  0  0
   45.6035    6.3771   10.1789 H   0  0  0  0  0  0  0  0  0  0  0  0
   46.1051    3.9652   10.2058 H   0  0  0  0  0  0  0  0  0  0  0  0
   45.0865    4.3317    8.8192 H   0  0  0  0  0  0  0  0  0  0  0  0
   43.7524    4.6399   13.4920 H   0  0  0  0  0  0  0  0  0  0  0  0
   42.7330    5.0095   12.1057 H   0  0  0  0  0  0  0  0  0  0  0  0
   44.9659    2.8959   12.2462 H   0  0  0  0  0  0  0  0  0  0  0  0
   43.2360    2.5964   12.1317 H   0  0  0  0  0  0  0  0  0  0  0  0
   45.9573    5.8742   10.4987 H   0  0  0  0  0  0  0  0  0  0  0  0
   44.2387    5.9516   10.0708 H   0  0  0  0  0  0  0  0  0  0  0  0
   45.8116    5.3072   12.9313 H   0  0  0  0  0  0  0  0  0  0  0  0
   44.7310    4.0580   13.4737 H   0  0  0  0  0  0  0  0  0  0  0  0
   45.4514    2.3875   11.2600 H   0  0  0  0  0  0  0  0  0  0  0  0
   42.5997    1.9249   11.0176 H   0  0  0  0  0  0  0  0  0  0  0  0
   44.8974    3.4371    7.6111 H   0  0  0  0  0  0  0  0  0  0  0  0
   42.1550    6.2011   13.7624 H   0  0  0  0  0  0  0  0  0  0  0  0
   44.1291    2.6906   11.8032 H   0  0  0  0  0  0  0  0  0  0  0  0
   44.7147    6.2833   10.5075 H   0  0  0  0  0  0  0  0  0  0  0  0
   42.6864    4.2214   12.8449 H   0  0  0  0  0  0  0  0  0  0  0  0
   42.5178    5.0990   11.3300 H   0  0  0  0  0  0  0  0  0  0  0  0
   45.0707    4.8128   13.0235 H   0  0  0  0  0  0  0  0  0  0  0  0
   44.1255    6.2768   12.7782 H   0  0  0  0  0  0  0  0  0  0  0  0
   43.7652    4.1644    9.2906 H   0  0  0  0  0  0  0  0  0  0  0  0
   44.7099    2.6999    9.5267 H   0  0  0  0  0  0  0  0  0  0  0  0
   46.1547    4.7488    9.4678 H   0  0  0  0  0  0  0  0  0  0  0  0
   46.3185    3.8723   10.9838 H   0  0  0  0  0  0  0  0  0  0  0  0
  2  6  1  0
  3  1  1  0
  4  3  1  0
  5  1  1  0
  6  5  1  0
  2  4  1  0
  8  7  1  0
  9  7  1  0
 10  7  1  0
 11  9  1  0
 12  8  1  0
 13 10  2  0
 14 12  2  0
 15 11  2  0
 16  7  1  0
 17 10  1  0
 18 12  1  0
 19 11  1  0
 21 25  1  0
 22 20  1  0
 23 22  1  0
 24 20  1  0
 25 24  1  0
 21 23  1  0
 27 26  1  0
 28 26  1  0
 29 26  1  0
 30 28  1  0
 31 27  1  0
 32 29  2  0
 33 31  2  0
 34 30  2  0
 35 26  1  0
 36 29  1  0
 37 31  1  0
 38 30  1  0
 40 44  1  0
 41 39  1  0
 42 41  1  0
 43 39  1  0
 44 43  1  0
 40 42  1  0
  1 45  1  0
  2 46  1  0
  3 47  1  0
  3 48  1  0
  4 49  1  0
  4 50  1  0
  5 51  1  0
  5 52  1  0
  6 53  1  0
  6 54  1  0
  8 55  1  0
  8 56  1  0
  9 57  1  0
  9 58  1  0
 16 59  1  0
 17 60  1  0
 18 61  1  0
 19 62  1  0
 20 63  1  0
 21 64  1  0
 22 65  1  0
 22 66  1  0
 23 67  1  0
 23 68  1  0
 24 69  1  0
 24 70  1  0
 25 71  1  0
 25 72  1  0
 27 73  1  0
 27 74  1  0
 28 75  1  0
 28 76  1  0
 35 77  1  0
 36 78  1  0
 37 79  1  0
 38 80  1  0
 39 81  1  0
 40 82  1  0
 41 83  1  0
 41 84  1  0
 42 85  1  0
 42 86  1  0
 43 87  1  0
 43 88  1  0
 44 89  1  0
 44 90  1  0
M  END
> <Uni-Dock RESULT> 
ENERGY=   -6.847  LOWER_BOUND=    0.864  UPPER_BOUND=    3.193
INTER + INTRA:          -6.847
INTER:                  -6.847
INTRA:                   0.000
UNBOUND:                 0.000

$$$$

     RDKit          3D

 90 88  0  0  0  0  0  0  0  0999 V2000
   47.5367    5.4213   18.8215 N   0  0  0  0  0  0  0  0  0  0  0  0
   49.8167    3.7561   17.8929 N   0  0  0  0  0  0  0  0  0  0  0  0
   47.4062    4.4544   17.7175 C   0  0  0  0  0  0  0  0  0  0  0  0
   48.4202    3.2937   17.8100 C   0  0  0  0  0  0  0  0  0  0  0  0
   48.9334    5.8832   18.9044 C   0  0  0  0  0  0  0  0  0  0  0  0
   49.9477    4.7231   18.9970 C   0  0  0  0  0  0  0  0  0  0  0  0
   49.3668    4.3100   18.5461 C   0  0  0  0  0  0  0  0  0  0  0  0
   48.8176    4.1920   17.1102 C   0  0  0  0  0  0  0  0  0  0  0  0
   49.0225    5.6034   19.2946 C   0  0  0  0  0  0  0  0  0  0  0  0
   50.9031    4.3154   18.4262 C   0  0  0  0  0  0  0  0  0  0  0  0
   47.5716    5.9579   19.2508 C   0  0  0  0  0  0  0  0  0  0  0  0
   47.3689    3.8113   17.0301 C   0  0  0  0  0  0  0  0  0  0  0  0
   51.5533    4.5745   17.4246 O   0  0  0  0  0  0  0  0  0  0  0  0
   46.6619    3.4359   17.9528 O   0  0  0  0  0  0  0  0  0  0  0  0
   47.0197    6.5821   18.3589 O   0  0  0  0  0  0  0  0  0  0  0  0
   49.0001    3.1585   19.3197 O   0  0  0  0  0  0  0  0  0  0  0  0
   51.5422    4.0413   19.5849 O   0  0  0  0  0  0  0  0  0  0  0  0
   46.8873    3.8970   15.7764 O   0  0  0  0  0  0  0  0  0  0  0  0
   46.8800    5.4705   20.2949 O   0  0  0  0  0  0  0  0  0  0  0  0
   50.0542    4.5906   18.9157 N   0  0  0  0  0  0  0  0  0  0  0  0
   47.2997    4.5870   17.7990 N   0  0  0  0  0  0  0  0  0  0  0  0
   49.7500    4.0587   17.5753 C   0  0  0  0  0  0  0  0  0  0  0  0
   48.2946    3.5607   17.4411 C   0  0  0  0  0  0  0  0  0  0  0  0
   49.0592    5.6173   19.2729 C   0  0  0  0  0  0  0  0  0  0  0  0
   47.6043    5.1184   19.1389 C   0  0  0  0  0  0  0  0  0  0  0  0
   48.5026    4.2485   18.6742 C   0  0  0  0  0  0  0  0  0  0  0  0
   49.3162    3.6994   17.4980 C   0  0  0  0  0  0  0  0  0  0  0  0
   49.3878    4.6719   19.8501 C   0  0  0  0  0  0  0  0  0  0  0  0
   47.6739    5.4680   18.2301 C   0  0  0  0  0  0  0  0  0  0  0  0
   50.3316    5.7853   19.5082 C   0  0  0  0  0  0  0  0  0  0  0  0
   48.4845    2.9649   16.4849 C   0  0  0  0  0  0  0  0  0  0  0  0
   48.0609    6.4437   17.6104 O   0  0  0  0  0  0  0  0  0  0  0  0
   48.7800    1.9087   15.9502 O   0  0  0  0  0  0  0  0  0  0  0  0
   51.3146    5.6994   18.7936 O   0  0  0  0  0  0  0  0  0  0  0  0
   47.6677    3.1923   19.1864 O   0  0  0  0  0  0  0  0  0  0  0  0
   46.3860    5.3739   18.6400 O   0  0  0  0  0  0  0  0  0  0  0  0
   47.3642    3.6134   16.1154 O   0  0  0  0  0  0  0  0  0  0  0  0
   49.9871    6.9532   20.0795 O   0  0  0  0  0  0  0  0  0  0  0  0
   47.4163    5.3737   18.4146 N   0  0  0  0  0  0  0  0  0  0  0  0
   49.9358    3.8021   18.3008 N   0  0  0  0  0  0  0  0  0  0  0  0
   48.7280    5.9681   18.7278 C   0  0  0  0  0  0  0  0  0  0  0  0
   49.7544    4.9305   19.2308 C   0  0  0  0  0  0  0  0  0  0  0  0
   47.6000    4.2476   17.4819 C   0  0  0  0  0  0  0  0  0  0  0  0
   48.6240    3.2092   17.9872 C   0  0  0  0  0  0  0  0  0  0  0  0
   47.3193    4.9316   19.6907 H   0  0  0  0  0  0  0  0  0  0  0  0
   50.0326    4.2469   17.0242 H   0  0  0  0  0  0  0  0  0  0  0  0
   47.5275    4.9796   16.7618 H   0  0  0  0  0  0  0  0  0  0  0  0
   46.3892    4.0474   17.7246 H   0  0  0  0  0  0  0  0  0  0  0  0
   48.1944    2.6698   18.6837 H   0  0  0  0  0  0  0  0  0  0  0  0
   48.3149    2.6501   16.9296 H   0  0  0  0  0  0  0  0  0  0  0  0
   49.1592    6.5063   18.0302 H   0  0  0  0  0  0  0  0  0  0  0  0
   49.0386    6.5272   19.7843 H   0  0  0  0  0  0  0  0  0  0  0  0
   50.9649    5.1301   18.9883 H   0  0  0  0  0  0  0  0  0  0  0  0
   49.8263    4.1977   19.9526 H   0  0  0  0  0  0  0  0  0  0  0  0
   49.3561    3.3984   16.5738 H   0  0  0  0  0  0  0  0  0  0  0  0
   48.9693    5.1345   16.5694 H   0  0  0  0  0  0  0  0  0  0  0  0
   49.5690    6.4598   18.8779 H   0  0  0  0  0  0  0  0  0  0  0  0
   49.3253    5.5399   20.3479 H   0  0  0  0  0  0  0  0  0  0  0  0
   48.0235    3.1362   19.3916 H   0  0  0  0  0  0  0  0  0  0  0  0
   52.4922    4.0334   19.3495 H   0  0  0  0  0  0  0  0  0  0  0  0
   45.9435    3.6420   15.8465 H   0  0  0  0  0  0  0  0  0  0  0  0
   45.9457    5.7086   20.1132 H   0  0  0  0  0  0  0  0  0  0  0  0
   49.9598    3.8226   19.5819 H   0  0  0  0  0  0  0  0  0  0  0  0
   47.3919    5.3549   17.1326 H   0  0  0  0  0  0  0  0  0  0  0  0
   49.9476    4.8352   16.8256 H   0  0  0  0  0  0  0  0  0  0  0  0
   50.4364    3.2318   17.3608 H   0  0  0  0  0  0  0  0  0  0  0  0
   48.1444    2.6775   18.0744 H   0  0  0  0  0  0  0  0  0  0  0  0
   48.1142    3.2417   16.4085 H   0  0  0  0  0  0  0  0  0  0  0  0
   49.2375    5.9354   20.3061 H   0  0  0  0  0  0  0  0  0  0  0  0
   49.2103    6.5005   18.6396 H   0  0  0  0  0  0  0  0  0  0  0  0
   47.4067    4.3417   19.8884 H   0  0  0  0  0  0  0  0  0  0  0  0
   46.9172    5.9445   19.3529 H   0  0  0  0  0  0  0  0  0  0  0  0
   50.0480    2.9737   17.8737 H   0  0  0  0  0  0  0  0  0  0  0  0
   49.8623    4.4843   16.9647 H   0  0  0  0  0  0  0  0  0  0  0  0
   49.9800    3.8277   20.2245 H   0  0  0  0  0  0  0  0  0  0  0  0
   48.7660    4.9772   20.7013 H   0  0  0  0  0  0  0  0  0  0  0  0
   46.7586    3.5633   19.2244 H   0  0  0  0  0  0  0  0  0  0  0  0
   45.9708    6.1904   18.2848 H   0  0  0  0  0  0  0  0  0  0  0  0
   46.9766    3.0253   15.4315 H   0  0  0  0  0  0  0  0  0  0  0  0
   50.6517    7.5935   19.7469 H   0  0  0  0  0  0  0  0  0  0  0  0
   47.0316    4.9977   19.2822 H   0  0  0  0  0  0  0  0  0  0  0  0
   50.3227    4.1745   17.4329 H   0  0  0  0  0  0  0  0  0  0  0  0
   48.5899    6.7406   19.4923 H   0  0  0  0  0  0  0  0  0  0  0  0
   49.1167    6.4742   17.8354 H   0  0  0  0  0  0  0  0  0  0  0  0
   49.4428    4.5441   20.2093 H   0  0  0  0  0  0  0  0  0  0  0  0
   50.7224    5.4217   19.3792 H   0  0  0  0  0  0  0  0  0  0  0  0
   47.9146    4.6369   16.5059 H   0  0  0  0  0  0  0  0  0  0  0  0
   46.6326    3.7569   17.3274 H   0  0  0  0  0  0  0  0  0  0  0  0
   48.7610    2.4347   17.2247 H   0  0  0  0  0  0  0  0  0  0  0  0
   48.2350    2.7060   18.8809 H   0  0  0  0  0  0  0  0  0  0  0  0
  2  6  1  0
  3  1  1  0
  4  3  1  0
  5  1  1  0
  6  5  1  0
  2  4  1  0
  8  7  1  0
  9  7  1  0
 10  7  1  0
 11  9  1  0
 12  8  1  0
 13 10  2  0
 14 12  2  0
 15 11  2  0
 16  7  1  0
 17 10  1  0
 18 12  1  0
 19 11  1  0
 21 25  1  0
 22 20  1  0
 23 22  1  0
 24 20  1  0
 25 24  1  0
 21 23  1  0
 27 26  1  0
 28 26  1  0
 29 26  1  0
 30 28  1  0
 31 27  1  0
 32 29  2  0
 33 31  2  0
 34 30  2  0
 35 26  1  0
 36 29  1  0
 37 31  1  0
 38 30  1  0
 40 44  1  0
 41 39  1  0
 42 41  1  0
 43 39  1  0
 44 43  1  0
 40 42  1  0
  1 45  1  0
  2 46  1  0
  3 47  1  0
  3 48  1  0
  4 49  1  0
  4 50  1  0
  5 51  1  0
  5 52  1  0
  6 53  1  0
  6 54  1  0
  8 55  1  0
  8 56  1  0
  9 57  1  0
  9 58  1  0
 16 59  1  0
 17 60  1  0
 18 61  1  0
 19 62  1  0
 20 63  1  0
 21 64  1  0
 22 65  1  0
 22 66  1  0
 23 67  1  0
 23 68  1  0
 24 69  1  0
 24 70  1  0
 25 71  1  0
 25 72  1  0
 27 73  1  0
 27 74  1  0
 28 75  1  0
 28 76  1  0
 35 77  1  0
 36 78  1  0
 37 79  1  0
 38 80  1  0
 39 81  1  0
 40 82  1  0
 41 83  1  0
 41 84  1  0
 42 85  1  0
 42 86  1  0
 43 87  1  0
 43 88  1  0
 44 89  1  0
 44 90  1  0
M  END
> <Uni-Dock RESULT> 
ENERGY=   -6.847  LOWER_BOUND=    7.200  UPPER_BOUND=    9.097
INTER + INTRA:          -6.847
INTER:                  -6.847
INTRA:                   0.000
UNBOUND:                 0.000

$$$$
