
     RDKit          3D

 90 88  0  0  0  0  0  0  0  0999 V2000
   45.6518    5.5198   11.2662 N   0  0  0  0  0  0  0  0  0  0  0  0
   43.7477    3.2390   11.2672 N   0  0  0  0  0  0  0  0  0  0  0  0
   44.8942    5.1290   12.4683 C   0  0  0  0  0  0  0  0  0  0  0  0
   44.4980    3.6369   12.4716 C   0  0  0  0  0  0  0  0  0  0  0  0
   44.9021    5.1210   10.0618 C   0  0  0  0  0  0  0  0  0  0  0  0
   44.5064    3.6286   10.0655 C   0  0  0  0  0  0  0  0  0  0  0  0
   44.1258    4.1204   11.4809 C   0  0  0  0  0  0  0  0  0  0  0  0
   45.4020    4.2853   12.3125 C   0  0  0  0  0  0  0  0  0  0  0  0
   43.8916    5.1787   10.4010 C   0  0  0  0  0  0  0  0  0  0  0  0
   44.1757    2.7348   10.8140 C   0  0  0  0  0  0  0  0  0  0  0  0
   44.8178    5.0330    9.2319 C   0  0  0  0  0  0  0  0  0  0  0  0
   45.4134    5.5151   13.1725 C   0  0  0  0  0  0  0  0  0  0  0  0
   45.1677    2.1077   10.4846 O   0  0  0  0  0  0  0  0  0  0  0  0
   44.9798    6.6205   12.8997 O   0  0  0  0  0  0  0  0  0  0  0  0
   44.5669    4.4417    8.1960 O   0  0  0  0  0  0  0  0  0  0  0  0
   42.9996    4.1203   12.3840 O   0  0  0  0  0  0  0  0  0  0  0  0
   42.9370    2.2467   10.5731 O   0  0  0  0  0  0  0  0  0  0  0  0
   46.0484    5.3100   14.3434 O   0  0  0  0  0  0  0  0  0  0  0  0
   46.0096    5.6180    9.4243 O   0  0  0  0  0  0  0  0  0  0  0  0
   45.8689    5.2841   11.4174 N   0  0  0  0  0  0  0  0  0  0  0  0
   43.5316    3.4741   11.1169 N   0  0  0  0  0  0  0  0  0  0  0  0
   45.2067    5.0659   10.1190 C   0  0  0  0  0  0  0  0  0  0  0  0
   44.4980    3.6969   10.0271 C   0  0  0  0  0  0  0  0  0  0  0  0
   44.9004    5.0624   12.5059 C   0  0  0  0  0  0  0  0  0  0  0  0
   44.1949    3.6922   12.4142 C   0  0  0  0  0  0  0  0  0  0  0  0
   44.8293    4.1701   11.6468 C   0  0  0  0  0  0  0  0  0  0  0  0
   44.7386    4.4213   10.1354 C   0  0  0  0  0  0  0  0  0  0  0  0
   44.5068    5.4092   12.4932 C   0  0  0  0  0  0  0  0  0  0  0  0
   43.8332    3.0842   12.0911 C   0  0  0  0  0  0  0  0  0  0  0  0
   45.3938    6.5816   12.1948 C   0  0  0  0  0  0  0  0  0  0  0  0
   44.7668    3.1434    9.3457 C   0  0  0  0  0  0  0  0  0  0  0  0
   44.1008    2.0858   12.7420 O   0  0  0  0  0  0  0  0  0  0  0  0
   45.1738    2.0587    9.7249 O   0  0  0  0  0  0  0  0  0  0  0  0
   45.5291    7.1305   11.1141 O   0  0  0  0  0  0  0  0  0  0  0  0
   46.1661    3.7636   11.9784 O   0  0  0  0  0  0  0  0  0  0  0  0
   42.5658    3.3180   11.6971 O   0  0  0  0  0  0  0  0  0  0  0  0
   44.3123    3.3069    8.0894 O   0  0  0  0  0  0  0  0  0  0  0  0
   46.0269    7.0542   13.2846 O   0  0  0  0  0  0  0  0  0  0  0  0
   45.4075    5.3749   10.4207 N   0  0  0  0  0  0  0  0  0  0  0  0
   43.9935    3.3828   12.1123 N   0  0  0  0  0  0  0  0  0  0  0  0
   44.4815    4.3787    9.8533 C   0  0  0  0  0  0  0  0  0  0  0  0
   44.3702    3.1026   10.7153 C   0  0  0  0  0  0  0  0  0  0  0  0
   45.0298    5.6554   11.8173 C   0  0  0  0  0  0  0  0  0  0  0  0
   44.9181    4.3796   12.6796 C   0  0  0  0  0  0  0  0  0  0  0  0
   46.5295    4.9983   11.2707 H   0  0  0  0  0  0  0  0  0  0  0  0
   42.8700    3.7610   11.2626 H   0  0  0  0  0  0  0  0  0  0  0  0
   43.9953    5.7528   12.5435 H   0  0  0  0  0  0  0  0  0  0  0  0
   45.5022    5.3446   13.3543 H   0  0  0  0  0  0  0  0  0  0  0  0
   45.3969    3.0142   12.5576 H   0  0  0  0  0  0  0  0  0  0  0  0
   43.8831    3.4266   13.3538 H   0  0  0  0  0  0  0  0  0  0  0  0
   45.5165    5.3310    9.1791 H   0  0  0  0  0  0  0  0  0  0  0  0
   44.0035    5.7443    9.9748 H   0  0  0  0  0  0  0  0  0  0  0  0
   43.8983    3.4129    9.1800 H   0  0  0  0  0  0  0  0  0  0  0  0
   45.4051    3.0040    9.9889 H   0  0  0  0  0  0  0  0  0  0  0  0
   46.3026    4.2969   11.6903 H   0  0  0  0  0  0  0  0  0  0  0  0
   45.4887    3.4217   12.9850 H   0  0  0  0  0  0  0  0  0  0  0  0
   43.9448    6.2018   10.7825 H   0  0  0  0  0  0  0  0  0  0  0  0
   42.8687    5.0966   10.0101 H   0  0  0  0  0  0  0  0  0  0  0  0
   42.2610    3.6990   11.9014 H   0  0  0  0  0  0  0  0  0  0  0  0
   43.1038    1.4006   10.1023 H   0  0  0  0  0  0  0  0  0  0  0  0
   45.9871    6.1750   14.7987 H   0  0  0  0  0  0  0  0  0  0  0  0
   46.5075    5.4500    8.5961 H   0  0  0  0  0  0  0  0  0  0  0  0
   46.6048    4.5826   11.5109 H   0  0  0  0  0  0  0  0  0  0  0  0
   42.7934    4.1732   11.0248 H   0  0  0  0  0  0  0  0  0  0  0  0
   45.9581    5.1377    9.3243 H   0  0  0  0  0  0  0  0  0  0  0  0
   44.4843    5.8728    9.9440 H   0  0  0  0  0  0  0  0  0  0  0  0
   43.9705    3.6260    9.0692 H   0  0  0  0  0  0  0  0  0  0  0  0
   45.2418    2.8907   10.0368 H   0  0  0  0  0  0  0  0  0  0  0  0
   44.1549    5.8672   12.4951 H   0  0  0  0  0  0  0  0  0  0  0  0
   45.4266    5.1341   13.4643 H   0  0  0  0  0  0  0  0  0  0  0  0
   43.4450    3.6165   13.2096 H   0  0  0  0  0  0  0  0  0  0  0  0
   44.9206    2.8876   12.5865 H   0  0  0  0  0  0  0  0  0  0  0  0
   43.8069    4.9481    9.8959 H   0  0  0  0  0  0  0  0  0  0  0  0
   45.5897    5.0135    9.7834 H   0  0  0  0  0  0  0  0  0  0  0  0
   44.6168    5.1604   13.5580 H   0  0  0  0  0  0  0  0  0  0  0  0
   43.4710    5.7416   12.3556 H   0  0  0  0  0  0  0  0  0  0  0  0
   46.2194    2.7978   11.8081 H   0  0  0  0  0  0  0  0  0  0  0  0
   42.0661    2.5460   12.0432 H   0  0  0  0  0  0  0  0  0  0  0  0
   44.4173    2.4277    7.6694 H   0  0  0  0  0  0  0  0  0  0  0  0
   46.5705    7.7965   12.9477 H   0  0  0  0  0  0  0  0  0  0  0  0
   46.3414    4.9621   10.4289 H   0  0  0  0  0  0  0  0  0  0  0  0
   43.0598    3.7957   12.1045 H   0  0  0  0  0  0  0  0  0  0  0  0
   44.8276    4.1084    8.8495 H   0  0  0  0  0  0  0  0  0  0  0  0
   43.4908    4.8349    9.7332 H   0  0  0  0  0  0  0  0  0  0  0  0
   45.3242    2.5610   10.7033 H   0  0  0  0  0  0  0  0  0  0  0  0
   43.6221    2.4328   10.2765 H   0  0  0  0  0  0  0  0  0  0  0  0
   45.7777    6.3251   12.2559 H   0  0  0  0  0  0  0  0  0  0  0  0
   44.0759    6.1972   11.8308 H   0  0  0  0  0  0  0  0  0  0  0  0
   45.9080    3.9231   12.8010 H   0  0  0  0  0  0  0  0  0  0  0  0
   44.5725    4.6498   13.6837 H   0  0  0  0  0  0  0  0  0  0  0  0
  2  6  1  0
  3  1  1  0
  4  3  1  0
  5  1  1  0
  6  5  1  0
  2  4  1  0
  8  7  1  0
  9  7  1  0
 10  7  1  0
 11  9  1  0
 12  8  1  0
 13 10  2  0
 14 12  2  0
 15 11  2  0
 16  7  1  0
 17 10  1  0
 18 12  1  0
 19 11  1  0
 21 25  1  0
 22 20  1  0
 23 22  1  0
 24 20  1  0
 25 24  1  0
 21 23  1  0
 27 26  1  0
 28 26  1  0
 29 26  1  0
 30 28  1  0
 31 27  1  0
 32 29  2  0
 33 31  2  0
 34 30  2  0
 35 26  1  0
 36 29  1  0
 37 31  1  0
 38 30  1  0
 40 44  1  0
 41 39  1  0
 42 41  1  0
 43 39  1  0
 44 43  1  0
 40 42  1  0
  1 45  1  0
  2 46  1  0
  3 47  1  0
  3 48  1  0
  4 49  1  0
  4 50  1  0
  5 51  1  0
  5 52  1  0
  6 53  1  0
  6 54  1  0
  8 55  1  0
  8 56  1  0
  9 57  1  0
  9 58  1  0
 16 59  1  0
 17 60  1  0
 18 61  1  0
 19 62  1  0
 20 63  1  0
 21 64  1  0
 22 65  1  0
 22 66  1  0
 23 67  1  0
 23 68  1  0
 24 69  1  0
 24 70  1  0
 25 71  1  0
 25 72  1  0
 27 73  1  0
 27 74  1  0
 28 75  1  0
 28 76  1  0
 35 77  1  0
 36 78  1  0
 37 79  1  0
 38 80  1  0
 39 81  1  0
 40 82  1  0
 41 83  1  0
 41 84  1  0
 42 85  1  0
 42 86  1  0
 43 87  1  0
 43 88  1  0
 44 89  1  0
 44 90  1  0
M  END
> <Uni-Dock RESULT> 
ENERGY=   -8.884  LOWER_BOUND=    0.000  UPPER_BOUND=    0.000
INTER + INTRA:          -8.884
INTER:                  -8.884
INTRA:                   0.000
UNBOUND:                 0.000

$$$$

     RDKit          3D

 90 88  0  0  0  0  0  0  0  0999 V2000
   44.3512    6.7606   12.3425 N   0  0  0  0  0  0  0  0  0  0  0  0
   45.1571    3.9008   12.3581 N   0  0  0  0  0  0  0  0  0  0  0  0
   43.5466    5.7137   11.6880 C   0  0  0  0  0  0  0  0  0  0  0  0
   43.7445    4.3191   12.3198 C   0  0  0  0  0  0  0  0  0  0  0  0
   45.7636    6.3420   12.3817 C   0  0  0  0  0  0  0  0  0  0  0  0
   45.9610    4.9473   13.0140 C   0  0  0  0  0  0  0  0  0  0  0  0
   44.7858    4.7491   12.0292 C   0  0  0  0  0  0  0  0  0  0  0  0
   43.5223    5.3772   12.6262 C   0  0  0  0  0  0  0  0  0  0  0  0
   45.8377    5.7311   11.5095 C   0  0  0  0  0  0  0  0  0  0  0  0
   45.4269    3.8640   13.1122 C   0  0  0  0  0  0  0  0  0  0  0  0
   46.5644    6.4429   12.6100 C   0  0  0  0  0  0  0  0  0  0  0  0
   42.6846    6.1238   11.6296 C   0  0  0  0  0  0  0  0  0  0  0  0
   45.3693    4.0148   14.3204 O   0  0  0  0  0  0  0  0  0  0  0  0
   43.0672    6.8196   10.7056 O   0  0  0  0  0  0  0  0  0  0  0  0
   47.6356    6.1092   13.0860 O   0  0  0  0  0  0  0  0  0  0  0  0
   44.3861    3.8802   10.9479 O   0  0  0  0  0  0  0  0  0  0  0  0
   46.1415    2.8485   12.5751 O   0  0  0  0  0  0  0  0  0  0  0  0
   41.3668    6.0127   11.8894 O   0  0  0  0  0  0  0  0  0  0  0  0
   45.9092    7.5208   13.0666 O   0  0  0  0  0  0  0  0  0  0  0  0
   44.1358    6.6578   12.6044 N   0  0  0  0  0  0  0  0  0  0  0  0
   45.3712    4.0035   12.0970 N   0  0  0  0  0  0  0  0  0  0  0  0
   45.5954    6.4547   12.6228 C   0  0  0  0  0  0  0  0  0  0  0  0
   45.9973    5.0063   12.9765 C   0  0  0  0  0  0  0  0  0  0  0  0
   43.5117    5.6550   11.7231 C   0  0  0  0  0  0  0  0  0  0  0  0
   43.9123    4.2073   12.0798 C   0  0  0  0  0  0  0  0  0  0  0  0
   44.3605    5.1396   12.4668 C   0  0  0  0  0  0  0  0  0  0  0  0
   45.7813    5.6817   12.6739 C   0  0  0  0  0  0  0  0  0  0  0  0
   43.6635    5.7096   11.2237 C   0  0  0  0  0  0  0  0  0  0  0  0
   44.3692    3.6115   12.2827 C   0  0  0  0  0  0  0  0  0  0  0  0
   43.5593    7.2060   11.2330 C   0  0  0  0  0  0  0  0  0  0  0  0
   46.5404    4.9011   13.7093 C   0  0  0  0  0  0  0  0  0  0  0  0
   43.6982    2.8076   12.9116 O   0  0  0  0  0  0  0  0  0  0  0  0
   46.0694    4.1788   14.5708 O   0  0  0  0  0  0  0  0  0  0  0  0
   44.4863    7.9959   11.2993 O   0  0  0  0  0  0  0  0  0  0  0  0
   43.5534    5.4842   13.6035 O   0  0  0  0  0  0  0  0  0  0  0  0
   45.2128    3.1867   11.3213 O   0  0  0  0  0  0  0  0  0  0  0  0
   47.8689    5.1033   13.6317 O   0  0  0  0  0  0  0  0  0  0  0  0
   42.2952    7.6471   11.0951 O   0  0  0  0  0  0  0  0  0  0  0  0
   45.2297    6.7310   12.4931 N   0  0  0  0  0  0  0  0  0  0  0  0
   44.2783    3.9304   12.2094 N   0  0  0  0  0  0  0  0  0  0  0  0
   46.1419    5.5778   12.5920 C   0  0  0  0  0  0  0  0  0  0  0  0
   45.4310    4.2878   13.0552 C   0  0  0  0  0  0  0  0  0  0  0  0
   44.0777    6.3735   11.6465 C   0  0  0  0  0  0  0  0  0  0  0  0
   43.3668    5.0834   12.1091 C   0  0  0  0  0  0  0  0  0  0  0  0
   44.0262    6.8427   13.3068 H   0  0  0  0  0  0  0  0  0  0  0  0
   45.4821    3.8191   11.3935 H   0  0  0  0  0  0  0  0  0  0  0  0
   43.8028    5.6790   10.6222 H   0  0  0  0  0  0  0  0  0  0  0  0
   42.4883    5.9922   11.7486 H   0  0  0  0  0  0  0  0  0  0  0  0
   43.3395    4.3123   13.3392 H   0  0  0  0  0  0  0  0  0  0  0  0
   43.1742    3.5777   11.7490 H   0  0  0  0  0  0  0  0  0  0  0  0
   46.3345    7.0829   12.9525 H   0  0  0  0  0  0  0  0  0  0  0  0
   46.1693    6.3496   11.3625 H   0  0  0  0  0  0  0  0  0  0  0  0
   47.0188    4.6685   12.9533 H   0  0  0  0  0  0  0  0  0  0  0  0
   45.7060    4.9816   14.0806 H   0  0  0  0  0  0  0  0  0  0  0  0
   43.7493    6.0548   13.4554 H   0  0  0  0  0  0  0  0  0  0  0  0
   42.8966    4.5718   13.0331 H   0  0  0  0  0  0  0  0  0  0  0  0
   45.4321    6.4643   10.8073 H   0  0  0  0  0  0  0  0  0  0  0  0
   46.5945    5.1949   10.9218 H   0  0  0  0  0  0  0  0  0  0  0  0
   45.1292    3.2613   10.8043 H   0  0  0  0  0  0  0  0  0  0  0  0
   46.5392    2.4012   13.3543 H   0  0  0  0  0  0  0  0  0  0  0  0
   40.9423    6.5381   11.1802 H   0  0  0  0  0  0  0  0  0  0  0  0
   46.4871    7.8854   13.7704 H   0  0  0  0  0  0  0  0  0  0  0  0
   43.7892    6.4958   13.5510 H   0  0  0  0  0  0  0  0  0  0  0  0
   45.7175    4.1619   11.1498 H   0  0  0  0  0  0  0  0  0  0  0  0
   46.0369    7.1411   13.3544 H   0  0  0  0  0  0  0  0  0  0  0  0
   46.0086    6.7284   11.6440 H   0  0  0  0  0  0  0  0  0  0  0  0
   47.0862    4.9053   12.9059 H   0  0  0  0  0  0  0  0  0  0  0  0
   45.7284    4.7884   14.0174 H   0  0  0  0  0  0  0  0  0  0  0  0
   43.7823    5.8711   10.6820 H   0  0  0  0  0  0  0  0  0  0  0  0
   42.4228    5.7558   11.7922 H   0  0  0  0  0  0  0  0  0  0  0  0
   43.4695    3.5187   11.3515 H   0  0  0  0  0  0  0  0  0  0  0  0
   43.5002    3.9379   13.0604 H   0  0  0  0  0  0  0  0  0  0  0  0
   46.3436    5.6349   11.7334 H   0  0  0  0  0  0  0  0  0  0  0  0
   45.7593    6.7165   13.0310 H   0  0  0  0  0  0  0  0  0  0  0  0
   42.6471    5.2972   11.1560 H   0  0  0  0  0  0  0  0  0  0  0  0
   44.1782    5.4251   10.2983 H   0  0  0  0  0  0  0  0  0  0  0  0
   43.7213    4.8005   14.2883 H   0  0  0  0  0  0  0  0  0  0  0  0
   45.1109    2.2095   11.3346 H   0  0  0  0  0  0  0  0  0  0  0  0
   48.2445    4.5820   14.3718 H   0  0  0  0  0  0  0  0  0  0  0  0
   42.3726    8.6233   11.1298 H   0  0  0  0  0  0  0  0  0  0  0  0
   44.8763    6.9291   13.4304 H   0  0  0  0  0  0  0  0  0  0  0  0
   44.6314    3.7324   11.2721 H   0  0  0  0  0  0  0  0  0  0  0  0
   46.9434    5.8227   13.2977 H   0  0  0  0  0  0  0  0  0  0  0  0
   46.6191    5.4111   11.6181 H   0  0  0  0  0  0  0  0  0  0  0  0
   45.0926    4.4013   14.0927 H   0  0  0  0  0  0  0  0  0  0  0  0
   46.1454    3.4568   13.0460 H   0  0  0  0  0  0  0  0  0  0  0  0
   43.3636    7.2042   11.6556 H   0  0  0  0  0  0  0  0  0  0  0  0
   44.4147    6.2598   10.6086 H   0  0  0  0  0  0  0  0  0  0  0  0
   42.8888    5.2490   13.0822 H   0  0  0  0  0  0  0  0  0  0  0  0
   42.5648    4.8386   11.4038 H   0  0  0  0  0  0  0  0  0  0  0  0
  2  6  1  0
  3  1  1  0
  4  3  1  0
  5  1  1  0
  6  5  1  0
  2  4  1  0
  8  7  1  0
  9  7  1  0
 10  7  1  0
 11  9  1  0
 12  8  1  0
 13 10  2  0
 14 12  2  0
 15 11  2  0
 16  7  1  0
 17 10  1  0
 18 12  1  0
 19 11  1  0
 21 25  1  0
 22 20  1  0
 23 22  1  0
 24 20  1  0
 25 24  1  0
 21 23  1  0
 27 26  1  0
 28 26  1  0
 29 26  1  0
 30 28  1  0
 31 27  1  0
 32 29  2  0
 33 31  2  0
 34 30  2  0
 35 26  1  0
 36 29  1  0
 37 31  1  0
 38 30  1  0
 40 44  1  0
 41 39  1  0
 42 41  1  0
 43 39  1  0
 44 43  1  0
 40 42  1  0
  1 45  1  0
  2 46  1  0
  3 47  1  0
  3 48  1  0
  4 49  1  0
  4 50  1  0
  5 51  1  0
  5 52  1  0
  6 53  1  0
  6 54  1  0
  8 55  1  0
  8 56  1  0
  9 57  1  0
  9 58  1  0
 16 59  1  0
 17 60  1  0
 18 61  1  0
 19 62  1  0
 20 63  1  0
 21 64  1  0
 22 65  1  0
 22 66  1  0
 23 67  1  0
 23 68  1  0
 24 69  1  0
 24 70  1  0
 25 71  1  0
 25 72  1  0
 27 73  1  0
 27 74  1  0
 28 75  1  0
 28 76  1  0
 35 77  1  0
 36 78  1  0
 37 79  1  0
 38 80  1  0
 39 81  1  0
 40 82  1  0
 41 83  1  0
 41 84  1  0
 42 85  1  0
 42 86  1  0
 43 87  1  0
 43 88  1  0
 44 89  1  0
 44 90  1  0
M  END
> <Uni-Dock RESULT> 
ENERGY=   -8.523  LOWER_BOUND=    1.591  UPPER_BOUND=    3.133
INTER + INTRA:          -8.523
INTER:                  -8.523
INTRA:                   0.000
UNBOUND:                 0.000

$$$$

     RDKit          3D

 90 88  0  0  0  0  0  0  0  0999 V2000
   46.2263    5.8623   13.1826 N   0  0  0  0  0  0  0  0  0  0  0  0
   43.9038    5.6270   11.3445 N   0  0  0  0  0  0  0  0  0  0  0  0
   45.9687    6.8419   12.1122 C   0  0  0  0  0  0  0  0  0  0  0  0
   44.4773    6.9306   11.7233 C   0  0  0  0  0  0  0  0  0  0  0  0
   45.6520    4.5589   12.8043 C   0  0  0  0  0  0  0  0  0  0  0  0
   44.1603    4.6481   12.4159 C   0  0  0  0  0  0  0  0  0  0  0  0
   44.8172    5.8202   11.6509 C   0  0  0  0  0  0  0  0  0  0  0  0
   45.1289    6.9491   12.6388 C   0  0  0  0  0  0  0  0  0  0  0  0
   45.7198    4.5879   11.7393 C   0  0  0  0  0  0  0  0  0  0  0  0
   43.3598    5.3841   11.8811 C   0  0  0  0  0  0  0  0  0  0  0  0
   45.4555    3.7583   12.9591 C   0  0  0  0  0  0  0  0  0  0  0  0
   46.4588    7.6066   12.4116 C   0  0  0  0  0  0  0  0  0  0  0  0
   42.7282    5.4346   12.9224 O   0  0  0  0  0  0  0  0  0  0  0  0
   47.5052    7.0785   12.0795 O   0  0  0  0  0  0  0  0  0  0  0  0
   44.7282    2.7816   13.0101 O   0  0  0  0  0  0  0  0  0  0  0  0
   44.8964    6.3598   10.3144 O   0  0  0  0  0  0  0  0  0  0  0  0
   42.8047    4.8698   10.7595 O   0  0  0  0  0  0  0  0  0  0  0  0
   46.4265    8.9257   12.6862 O   0  0  0  0  0  0  0  0  0  0  0  0
   46.0988    4.2006   14.0501 O   0  0  0  0  0  0  0  0  0  0  0  0
   46.0192    6.0985   13.3464 N   0  0  0  0  0  0  0  0  0  0  0  0
   44.1105    5.3919   11.1815 N   0  0  0  0  0  0  0  0  0  0  0  0
   45.6146    4.7067   13.0797 C   0  0  0  0  0  0  0  0  0  0  0  0
   44.2228    4.6003   12.4191 C   0  0  0  0  0  0  0  0  0  0  0  0
   45.9077    6.8882   12.1071 C   0  0  0  0  0  0  0  0  0  0  0  0
   44.5149    6.7830   11.4494 C   0  0  0  0  0  0  0  0  0  0  0  0
   44.9107    6.1700   12.2785 C   0  0  0  0  0  0  0  0  0  0  0  0
   44.9626    4.6753   12.6229 C   0  0  0  0  0  0  0  0  0  0  0  0
   46.2370    6.7190   11.7351 C   0  0  0  0  0  0  0  0  0  0  0  0
   43.8589    6.4544   11.1913 C   0  0  0  0  0  0  0  0  0  0  0  0
   47.3896    6.5310   12.6767 C   0  0  0  0  0  0  0  0  0  0  0  0
   43.5954    4.1022   12.8677 C   0  0  0  0  0  0  0  0  0  0  0  0
   42.9617    7.2806   11.2573 O   0  0  0  0  0  0  0  0  0  0  0  0
   42.5823    4.7210   13.1442 O   0  0  0  0  0  0  0  0  0  0  0  0
   47.7993    5.4699   13.1168 O   0  0  0  0  0  0  0  0  0  0  0  0
   44.5939    6.9167   13.4635 O   0  0  0  0  0  0  0  0  0  0  0  0
   43.9988    5.6908   10.0896 O   0  0  0  0  0  0  0  0  0  0  0  0
   43.5814    2.7585   12.7903 O   0  0  0  0  0  0  0  0  0  0  0  0
   48.0187    7.6827   12.9762 O   0  0  0  0  0  0  0  0  0  0  0  0
   45.9661    5.0092   13.1881 N   0  0  0  0  0  0  0  0  0  0  0  0
   44.1628    6.4802   11.3406 N   0  0  0  0  0  0  0  0  0  0  0  0
   44.8758    4.3402   12.4564 C   0  0  0  0  0  0  0  0  0  0  0  0
   43.7180    5.2967   12.0976 C   0  0  0  0  0  0  0  0  0  0  0  0
   46.4113    6.1921   12.4302 C   0  0  0  0  0  0  0  0  0  0  0  0
   45.2539    7.1486   12.0709 C   0  0  0  0  0  0  0  0  0  0  0  0
   45.7386    6.1837   14.0198 H   0  0  0  0  0  0  0  0  0  0  0  0
   44.3921    5.3054   10.5073 H   0  0  0  0  0  0  0  0  0  0  0  0
   46.5674    6.5767   11.2324 H   0  0  0  0  0  0  0  0  0  0  0  0
   46.3160    7.8270   12.4441 H   0  0  0  0  0  0  0  0  0  0  0  0
   43.9004    7.3488   12.5573 H   0  0  0  0  0  0  0  0  0  0  0  0
   44.3621    7.6227   10.8817 H   0  0  0  0  0  0  0  0  0  0  0  0
   45.7668    3.8662   13.6455 H   0  0  0  0  0  0  0  0  0  0  0  0
   46.2294    4.1398   11.9709 H   0  0  0  0  0  0  0  0  0  0  0  0
   43.8130    3.6636   12.0836 H   0  0  0  0  0  0  0  0  0  0  0  0
   43.5606    4.9122   13.2959 H   0  0  0  0  0  0  0  0  0  0  0  0
   45.0898    6.6110   13.6792 H   0  0  0  0  0  0  0  0  0  0  0  0
   44.3621    7.7269   12.5259 H   0  0  0  0  0  0  0  0  0  0  0  0
   46.7846    4.8299   11.6873 H   0  0  0  0  0  0  0  0  0  0  0  0
   45.5550    3.9383   10.8696 H   0  0  0  0  0  0  0  0  0  0  0  0
   44.3928    5.7483    9.7414 H   0  0  0  0  0  0  0  0  0  0  0  0
   41.9110    4.5816   11.0488 H   0  0  0  0  0  0  0  0  0  0  0  0
   47.3404    9.2264   12.5026 H   0  0  0  0  0  0  0  0  0  0  0  0
   45.8421    3.5767   14.7621 H   0  0  0  0  0  0  0  0  0  0  0  0
   45.3599    6.4882   14.0215 H   0  0  0  0  0  0  0  0  0  0  0  0
   44.7676    5.0032   10.5037 H   0  0  0  0  0  0  0  0  0  0  0  0
   45.6082    4.1546   14.0265 H   0  0  0  0  0  0  0  0  0  0  0  0
   46.3684    4.2294   12.4413 H   0  0  0  0  0  0  0  0  0  0  0  0
   44.0123    3.5505   12.1856 H   0  0  0  0  0  0  0  0  0  0  0  0
   43.4491    4.9265   13.1250 H   0  0  0  0  0  0  0  0  0  0  0  0
   46.6798    6.5607   11.3998 H   0  0  0  0  0  0  0  0  0  0  0  0
   46.1191    7.9379   12.3392 H   0  0  0  0  0  0  0  0  0  0  0  0
   44.5176    7.3368   10.5039 H   0  0  0  0  0  0  0  0  0  0  0  0
   43.7631    7.2584   12.0918 H   0  0  0  0  0  0  0  0  0  0  0  0
   45.4237    4.1147   11.8007 H   0  0  0  0  0  0  0  0  0  0  0  0
   45.5320    4.5030   13.5421 H   0  0  0  0  0  0  0  0  0  0  0  0
   46.1307    7.7946   11.5363 H   0  0  0  0  0  0  0  0  0  0  0  0
   46.5151    6.2515   10.7831 H   0  0  0  0  0  0  0  0  0  0  0  0
   43.6165    6.8979   13.5578 H   0  0  0  0  0  0  0  0  0  0  0  0
   43.2618    5.9806    9.5080 H   0  0  0  0  0  0  0  0  0  0  0  0
   42.6593    2.5055   13.0056 H   0  0  0  0  0  0  0  0  0  0  0  0
   48.7289    7.4181   13.5971 H   0  0  0  0  0  0  0  0  0  0  0  0
   45.5884    5.3356   14.0788 H   0  0  0  0  0  0  0  0  0  0  0  0
   44.5407    6.1542   10.4499 H   0  0  0  0  0  0  0  0  0  0  0  0
   44.4902    3.5202   13.0723 H   0  0  0  0  0  0  0  0  0  0  0  0
   45.2802    3.8857   11.5433 H   0  0  0  0  0  0  0  0  0  0  0  0
   43.2106    5.6266   13.0127 H   0  0  0  0  0  0  0  0  0  0  0  0
   42.9734    4.7570   11.5016 H   0  0  0  0  0  0  0  0  0  0  0  0
   47.1558    6.7315   13.0260 H   0  0  0  0  0  0  0  0  0  0  0  0
   46.9190    5.8636   11.5148 H   0  0  0  0  0  0  0  0  0  0  0  0
   44.8492    7.6042   12.9829 H   0  0  0  0  0  0  0  0  0  0  0  0
   45.6393    7.9691   11.4554 H   0  0  0  0  0  0  0  0  0  0  0  0
  2  6  1  0
  3  1  1  0
  4  3  1  0
  5  1  1  0
  6  5  1  0
  2  4  1  0
  8  7  1  0
  9  7  1  0
 10  7  1  0
 11  9  1  0
 12  8  1  0
 13 10  2  0
 14 12  2  0
 15 11  2  0
 16  7  1  0
 17 10  1  0
 18 12  1  0
 19 11  1  0
 21 25  1  0
 22 20  1  0
 23 22  1  0
 24 20  1  0
 25 24  1  0
 21 23  1  0
 27 26  1  0
 28 26  1  0
 29 26  1  0
 30 28  1  0
 31 27  1  0
 32 29  2  0
 33 31  2  0
 34 30  2  0
 35 26  1  0
 36 29  1  0
 37 31  1  0
 38 30  1  0
 40 44  1  0
 41 39  1  0
 42 41  1  0
 43 39  1  0
 44 43  1  0
 40 42  1  0
  1 45  1  0
  2 46  1  0
  3 47  1  0
  3 48  1  0
  4 49  1  0
  4 50  1  0
  5 51  1  0
  5 52  1  0
  6 53  1  0
  6 54  1  0
  8 55  1  0
  8 56  1  0
  9 57  1  0
  9 58  1  0
 16 59  1  0
 17 60  1  0
 18 61  1  0
 19 62  1  0
 20 63  1  0
 21 64  1  0
 22 65  1  0
 22 66  1  0
 23 67  1  0
 23 68  1  0
 24 69  1  0
 24 70  1  0
 25 71  1  0
 25 72  1  0
 27 73  1  0
 27 74  1  0
 28 75  1  0
 28 76  1  0
 35 77  1  0
 36 78  1  0
 37 79  1  0
 38 80  1  0
 39 81  1  0
 40 82  1  0
 41 83  1  0
 41 84  1  0
 42 85  1  0
 42 86  1  0
 43 87  1  0
 43 88  1  0
 44 89  1  0
 44 90  1  0
M  END
> <Uni-Dock RESULT> 
ENERGY=   -8.465  LOWER_BOUND=    1.773  UPPER_BOUND=    3.207
INTER + INTRA:          -8.465
INTER:                  -8.465
INTRA:                   0.000
UNBOUND:                 0.000

$$$$

     RDKit          3D

 90 88  0  0  0  0  0  0  0  0999 V2000
   45.2475    3.7981   11.9182 N   0  0  0  0  0  0  0  0  0  0  0  0
   45.2735    6.7102   12.5070 N   0  0  0  0  0  0  0  0  0  0  0  0
   44.2521    4.7239   11.3492 C   0  0  0  0  0  0  0  0  0  0  0  0
   44.7756    6.1713   11.2289 C   0  0  0  0  0  0  0  0  0  0  0  0
   45.7462    4.3375   13.1957 C   0  0  0  0  0  0  0  0  0  0  0  0
   46.2700    5.7849   13.0748 C   0  0  0  0  0  0  0  0  0  0  0  0
   44.9173    5.8124   12.3266 C   0  0  0  0  0  0  0  0  0  0  0  0
   45.0832    5.1221   10.9689 C   0  0  0  0  0  0  0  0  0  0  0  0
   44.9029    4.8897   13.5470 C   0  0  0  0  0  0  0  0  0  0  0  0
   46.0669    6.8228   12.4832 C   0  0  0  0  0  0  0  0  0  0  0  0
   46.2530    4.3216   13.8639 C   0  0  0  0  0  0  0  0  0  0  0  0
   43.9307    4.2386   10.5904 C   0  0  0  0  0  0  0  0  0  0  0  0
   47.1842    6.7528   12.0008 O   0  0  0  0  0  0  0  0  0  0  0  0
   43.2748    3.5149   11.3187 O   0  0  0  0  0  0  0  0  0  0  0  0
   47.0444    4.7782   14.6705 O   0  0  0  0  0  0  0  0  0  0  0  0
   43.6863    6.5658   12.2986 O   0  0  0  0  0  0  0  0  0  0  0  0
   45.7241    7.8555   13.2874 O   0  0  0  0  0  0  0  0  0  0  0  0
   43.6926    4.2547    9.2640 O   0  0  0  0  0  0  0  0  0  0  0  0
   46.5482    3.2264   13.1476 O   0  0  0  0  0  0  0  0  0  0  0  0
   45.4045    3.9003   11.6174 N   0  0  0  0  0  0  0  0  0  0  0  0
   45.1169    6.6082   12.8063 N   0  0  0  0  0  0  0  0  0  0  0  0
   45.9213    4.2280   12.9581 C   0  0  0  0  0  0  0  0  0  0  0  0
   46.2537    5.7267   13.1254 C   0  0  0  0  0  0  0  0  0  0  0  0
   44.2666    4.7817   11.3008 C   0  0  0  0  0  0  0  0  0  0  0  0
   44.6015    6.2798   11.4658 C   0  0  0  0  0  0  0  0  0  0  0  0
   45.2104    5.4186   11.7937 C   0  0  0  0  0  0  0  0  0  0  0  0
   45.9606    5.0158   13.0705 C   0  0  0  0  0  0  0  0  0  0  0  0
   43.8617    4.7054   11.6258 C   0  0  0  0  0  0  0  0  0  0  0  0
   44.8952    6.9252   11.7853 C   0  0  0  0  0  0  0  0  0  0  0  0
   43.9773    3.2099   11.6069 C   0  0  0  0  0  0  0  0  0  0  0  0
   47.1180    5.9291   13.3600 C   0  0  0  0  0  0  0  0  0  0  0  0
   45.1638    7.7111   10.8896 O   0  0  0  0  0  0  0  0  0  0  0  0
   47.6818    6.6672   12.5706 O   0  0  0  0  0  0  0  0  0  0  0  0
   44.4447    2.5087   12.4885 O   0  0  0  0  0  0  0  0  0  0  0  0
   46.0131    5.0871   10.6501 O   0  0  0  0  0  0  0  0  0  0  0  0
   44.2608    7.3519   12.8951 O   0  0  0  0  0  0  0  0  0  0  0  0
   47.5379    5.8361   14.6354 O   0  0  0  0  0  0  0  0  0  0  0  0
   43.4419    2.6539   10.5042 O   0  0  0  0  0  0  0  0  0  0  0  0
   45.6973    3.9131   12.6797 N   0  0  0  0  0  0  0  0  0  0  0  0
   44.8255    6.5954   11.7446 N   0  0  0  0  0  0  0  0  0  0  0  0
   46.0027    5.1441   13.4301 C   0  0  0  0  0  0  0  0  0  0  0  0
   46.0563    6.3980   12.5308 C   0  0  0  0  0  0  0  0  0  0  0  0
   44.4660    4.1106   11.8944 C   0  0  0  0  0  0  0  0  0  0  0  0
   44.5189    5.3645   10.9953 C   0  0  0  0  0  0  0  0  0  0  0  0
   46.0363    3.7565   11.2713 H   0  0  0  0  0  0  0  0  0  0  0  0
   44.4845    6.7515   13.1540 H   0  0  0  0  0  0  0  0  0  0  0  0
   43.3491    4.7054   11.9713 H   0  0  0  0  0  0  0  0  0  0  0  0
   43.9588    4.3610   10.3575 H   0  0  0  0  0  0  0  0  0  0  0  0
   45.5786    6.2150   10.4828 H   0  0  0  0  0  0  0  0  0  0  0  0
   43.9708    6.8193   10.8643 H   0  0  0  0  0  0  0  0  0  0  0  0
   46.5512    3.6899   13.5609 H   0  0  0  0  0  0  0  0  0  0  0  0
   44.9438    4.2930   13.9425 H   0  0  0  0  0  0  0  0  0  0  0  0
   46.5629    6.1480   14.0661 H   0  0  0  0  0  0  0  0  0  0  0  0
   47.1741    5.8040   12.4535 H   0  0  0  0  0  0  0  0  0  0  0  0
   46.0001    4.5263   10.9170 H   0  0  0  0  0  0  0  0  0  0  0  0
   45.1614    5.8977   10.1955 H   0  0  0  0  0  0  0  0  0  0  0  0
   44.1764    4.0771   13.4634 H   0  0  0  0  0  0  0  0  0  0  0  0
   44.5742    5.4460   14.4348 H   0  0  0  0  0  0  0  0  0  0  0  0
   43.7576    7.2344   13.0084 H   0  0  0  0  0  0  0  0  0  0  0  0
   46.5469    8.3886   13.3513 H   0  0  0  0  0  0  0  0  0  0  0  0
   42.9329    3.6465    9.1541 H   0  0  0  0  0  0  0  0  0  0  0  0
   47.4431    2.9629   13.4506 H   0  0  0  0  0  0  0  0  0  0  0  0
   46.1455    4.0981   10.9436 H   0  0  0  0  0  0  0  0  0  0  0  0
   44.3748    6.4138   13.4799 H   0  0  0  0  0  0  0  0  0  0  0  0
   46.8245    3.6350   13.1417 H   0  0  0  0  0  0  0  0  0  0  0  0
   45.1847    3.9226   13.7116 H   0  0  0  0  0  0  0  0  0  0  0  0
   46.5657    5.9151   14.1589 H   0  0  0  0  0  0  0  0  0  0  0  0
   47.1047    5.9934   12.4867 H   0  0  0  0  0  0  0  0  0  0  0  0
   43.4160    4.5169   11.9411 H   0  0  0  0  0  0  0  0  0  0  0  0
   43.9532    4.5934   10.2679 H   0  0  0  0  0  0  0  0  0  0  0  0
   43.7006    6.8753   11.2798 H   0  0  0  0  0  0  0  0  0  0  0  0
   45.3405    6.5812   10.7129 H   0  0  0  0  0  0  0  0  0  0  0  0
   45.2818    5.0443   13.9316 H   0  0  0  0  0  0  0  0  0  0  0  0
   46.3843    4.0105   12.9772 H   0  0  0  0  0  0  0  0  0  0  0  0
   43.3975    5.0237   10.6819 H   0  0  0  0  0  0  0  0  0  0  0  0
   43.1571    4.9671   12.4241 H   0  0  0  0  0  0  0  0  0  0  0  0
   46.6437    5.8290   10.5214 H   0  0  0  0  0  0  0  0  0  0  0  0
   44.1428    8.3154   12.7423 H   0  0  0  0  0  0  0  0  0  0  0  0
   48.3093    6.4383   14.6889 H   0  0  0  0  0  0  0  0  0  0  0  0
   43.5956    1.6927   10.6168 H   0  0  0  0  0  0  0  0  0  0  0  0
   46.4619    3.7518   12.0225 H   0  0  0  0  0  0  0  0  0  0  0  0
   44.0607    6.7565   12.4015 H   0  0  0  0  0  0  0  0  0  0  0  0
   46.9674    5.0186   13.9341 H   0  0  0  0  0  0  0  0  0  0  0  0
   45.2510    5.2821   14.2175 H   0  0  0  0  0  0  0  0  0  0  0  0
   46.9112    6.3291   11.8467 H   0  0  0  0  0  0  0  0  0  0  0  0
   46.2219    7.2842   13.1538 H   0  0  0  0  0  0  0  0  0  0  0  0
   44.3004    3.2246   11.2717 H   0  0  0  0  0  0  0  0  0  0  0  0
   43.6101    4.1795   12.5774 H   0  0  0  0  0  0  0  0  0  0  0  0
   45.2695    5.2275   10.2073 H   0  0  0  0  0  0  0  0  0  0  0  0
   43.5544    5.4899   10.4907 H   0  0  0  0  0  0  0  0  0  0  0  0
  2  6  1  0
  3  1  1  0
  4  3  1  0
  5  1  1  0
  6  5  1  0
  2  4  1  0
  8  7  1  0
  9  7  1  0
 10  7  1  0
 11  9  1  0
 12  8  1  0
 13 10  2  0
 14 12  2  0
 15 11  2  0
 16  7  1  0
 17 10  1  0
 18 12  1  0
 19 11  1  0
 21 25  1  0
 22 20  1  0
 23 22  1  0
 24 20  1  0
 25 24  1  0
 21 23  1  0
 27 26  1  0
 28 26  1  0
 29 26  1  0
 30 28  1  0
 31 27  1  0
 32 29  2  0
 33 31  2  0
 34 30  2  0
 35 26  1  0
 36 29  1  0
 37 31  1  0
 38 30  1  0
 40 44  1  0
 41 39  1  0
 42 41  1  0
 43 39  1  0
 44 43  1  0
 40 42  1  0
  1 45  1  0
  2 46  1  0
  3 47  1  0
  3 48  1  0
  4 49  1  0
  4 50  1  0
  5 51  1  0
  5 52  1  0
  6 53  1  0
  6 54  1  0
  8 55  1  0
  8 56  1  0
  9 57  1  0
  9 58  1  0
 16 59  1  0
 17 60  1  0
 18 61  1  0
 19 62  1  0
 20 63  1  0
 21 64  1  0
 22 65  1  0
 22 66  1  0
 23 67  1  0
 23 68  1  0
 24 69  1  0
 24 70  1  0
 25 71  1  0
 25 72  1  0
 27 73  1  0
 27 74  1  0
 28 75  1  0
 28 76  1  0
 35 77  1  0
 36 78  1  0
 37 79  1  0
 38 80  1  0
 39 81  1  0
 40 82  1  0
 41 83  1  0
 41 84  1  0
 42 85  1  0
 42 86  1  0
 43 87  1  0
 43 88  1  0
 44 89  1  0
 44 90  1  0
M  END
> <Uni-Dock RESULT> 
ENERGY=   -8.428  LOWER_BOUND=    1.157  UPPER_BOUND=    4.065
INTER + INTRA:          -8.428
INTER:                  -8.428
INTRA:                   0.000
UNBOUND:                 0.000

$$$$

     RDKit          3D

 90 88  0  0  0  0  0  0  0  0999 V2000
   43.4627    3.3221   11.6313 N   0  0  0  0  0  0  0  0  0  0  0  0
   45.2586    5.0134    9.9754 N   0  0  0  0  0  0  0  0  0  0  0  0
   43.9794    4.6182   12.1053 C   0  0  0  0  0  0  0  0  0  0  0  0
   44.3186    5.5888   10.9537 C   0  0  0  0  0  0  0  0  0  0  0  0
   44.4022    2.7471   10.6523 C   0  0  0  0  0  0  0  0  0  0  0  0
   44.7407    3.7180    9.5005 C   0  0  0  0  0  0  0  0  0  0  0  0
   44.8780    4.5847   10.7735 C   0  0  0  0  0  0  0  0  0  0  0  0
   43.4798    4.9254   11.2991 C   0  0  0  0  0  0  0  0  0  0  0  0
   45.3370    3.1405   10.9852 C   0  0  0  0  0  0  0  0  0  0  0  0
   44.9020    4.8961    9.2669 C   0  0  0  0  0  0  0  0  0  0  0  0
   44.6306    2.1675   10.0906 C   0  0  0  0  0  0  0  0  0  0  0  0
   43.3558    4.8487   12.7928 C   0  0  0  0  0  0  0  0  0  0  0  0
   43.9646    4.8582    8.4887 O   0  0  0  0  0  0  0  0  0  0  0  0
   43.8679    4.0372   13.5434 O   0  0  0  0  0  0  0  0  0  0  0  0
   45.0430    1.7595    9.0187 O   0  0  0  0  0  0  0  0  0  0  0  0
   45.8237    5.4712   11.4088 O   0  0  0  0  0  0  0  0  0  0  0  0
   46.1468    5.2053    8.8361 O   0  0  0  0  0  0  0  0  0  0  0  0
   42.5149    5.7820   13.2810 O   0  0  0  0  0  0  0  0  0  0  0  0
   43.4439    1.7697   10.5732 O   0  0  0  0  0  0  0  0  0  0  0  0
   43.2143    3.5474   11.5169 N   0  0  0  0  0  0  0  0  0  0  0  0
   45.5058    4.7890   10.0898 N   0  0  0  0  0  0  0  0  0  0  0  0
   44.0906    2.7756   10.6178 C   0  0  0  0  0  0  0  0  0  0  0  0
   44.7581    3.6481    9.5325 C   0  0  0  0  0  0  0  0  0  0  0  0
   43.9644    4.6868   12.0745 C   0  0  0  0  0  0  0  0  0  0  0  0
   44.6287    5.5598   10.9881 C   0  0  0  0  0  0  0  0  0  0  0  0
   44.1582    4.5695   10.8547 C   0  0  0  0  0  0  0  0  0  0  0  0
   44.5263    3.2547   10.1537 C   0  0  0  0  0  0  0  0  0  0  0  0
   44.3653    4.5309   12.3751 C   0  0  0  0  0  0  0  0  0  0  0  0
   45.0219    5.7351   10.3403 C   0  0  0  0  0  0  0  0  0  0  0  0
   43.5857    3.4444   13.0548 C   0  0  0  0  0  0  0  0  0  0  0  0
   44.5972    3.4089    8.6608 C   0  0  0  0  0  0  0  0  0  0  0  0
   44.6088    6.8033    9.9157 O   0  0  0  0  0  0  0  0  0  0  0  0
   44.0929    4.2950    7.9927 O   0  0  0  0  0  0  0  0  0  0  0  0
   43.6645    2.2481   12.8307 O   0  0  0  0  0  0  0  0  0  0  0  0
   42.7709    4.8569   10.6207 O   0  0  0  0  0  0  0  0  0  0  0  0
   46.3464    5.4924   10.3938 O   0  0  0  0  0  0  0  0  0  0  0  0
   45.2745    2.4049    8.0733 O   0  0  0  0  0  0  0  0  0  0  0  0
   42.7840    3.9043   14.0333 O   0  0  0  0  0  0  0  0  0  0  0  0
   43.8494    2.7909   11.0282 N   0  0  0  0  0  0  0  0  0  0  0  0
   44.8704    5.5447   10.5772 N   0  0  0  0  0  0  0  0  0  0  0  0
   44.8282    3.1025    9.9715 C   0  0  0  0  0  0  0  0  0  0  0  0
   44.7407    4.5650    9.4840 C   0  0  0  0  0  0  0  0  0  0  0  0
   43.9802    3.7703   12.1216 C   0  0  0  0  0  0  0  0  0  0  0  0
   43.8931    5.2328   11.6346 C   0  0  0  0  0  0  0  0  0  0  0  0
   42.5815    3.4989   11.1471 H   0  0  0  0  0  0  0  0  0  0  0  0
   46.1398    4.8362   10.4600 H   0  0  0  0  0  0  0  0  0  0  0  0
   44.8707    4.4451   12.7206 H   0  0  0  0  0  0  0  0  0  0  0  0
   43.2302    5.0791   12.7591 H   0  0  0  0  0  0  0  0  0  0  0  0
   43.3984    5.8869   10.4362 H   0  0  0  0  0  0  0  0  0  0  0  0
   44.7583    6.5033   11.3672 H   0  0  0  0  0  0  0  0  0  0  0  0
   43.9631    1.8325   10.2382 H   0  0  0  0  0  0  0  0  0  0  0  0
   45.3222    2.4478   11.1696 H   0  0  0  0  0  0  0  0  0  0  0  0
   45.4899    3.2576    8.8471 H   0  0  0  0  0  0  0  0  0  0  0  0
   43.8498    3.8907    8.8839 H   0  0  0  0  0  0  0  0  0  0  0  0
   42.7061    4.2874   10.8603 H   0  0  0  0  0  0  0  0  0  0  0  0
   43.2453    5.9582   11.0095 H   0  0  0  0  0  0  0  0  0  0  0  0
   45.2506    2.8095   12.0235 H   0  0  0  0  0  0  0  0  0  0  0  0
   46.4100    3.0518   10.7693 H   0  0  0  0  0  0  0  0  0  0  0  0
   46.6223    5.4703   10.8446 H   0  0  0  0  0  0  0  0  0  0  0  0
   46.0387    5.3238    7.8667 H   0  0  0  0  0  0  0  0  0  0  0  0
   42.5226    5.6228   14.2474 H   0  0  0  0  0  0  0  0  0  0  0  0
   43.0969    1.1453    9.9009 H   0  0  0  0  0  0  0  0  0  0  0  0
   42.4505    3.9255   10.9548 H   0  0  0  0  0  0  0  0  0  0  0  0
   46.2716    4.4138   10.6511 H   0  0  0  0  0  0  0  0  0  0  0  0
   43.4964    1.9910   10.1355 H   0  0  0  0  0  0  0  0  0  0  0  0
   44.8592    2.2679   11.2136 H   0  0  0  0  0  0  0  0  0  0  0  0
   45.4458    3.0305    8.9439 H   0  0  0  0  0  0  0  0  0  0  0  0
   43.9981    4.0232    8.8360 H   0  0  0  0  0  0  0  0  0  0  0  0
   44.7263    4.3122   12.7693 H   0  0  0  0  0  0  0  0  0  0  0  0
   43.2778    5.3046   12.6641 H   0  0  0  0  0  0  0  0  0  0  0  0
   45.2211    6.3471   11.4677 H   0  0  0  0  0  0  0  0  0  0  0  0
   43.8574    6.0635   10.3921 H   0  0  0  0  0  0  0  0  0  0  0  0
   45.5029    2.9005   10.5054 H   0  0  0  0  0  0  0  0  0  0  0  0
   43.7723    2.4837   10.3429 H   0  0  0  0  0  0  0  0  0  0  0  0
   44.0582    5.4932   12.8080 H   0  0  0  0  0  0  0  0  0  0  0  0
   45.4195    4.3906   12.6420 H   0  0  0  0  0  0  0  0  0  0  0  0
   42.7166    5.3005    9.7461 H   0  0  0  0  0  0  0  0  0  0  0  0
   46.7500    6.3107   10.0291 H   0  0  0  0  0  0  0  0  0  0  0  0
   45.2171    2.5932    7.1132 H   0  0  0  0  0  0  0  0  0  0  0  0
   42.3345    3.1040   14.3763 H   0  0  0  0  0  0  0  0  0  0  0  0
   42.9159    2.8956   10.6280 H   0  0  0  0  0  0  0  0  0  0  0  0
   45.8037    5.4402   10.9777 H   0  0  0  0  0  0  0  0  0  0  0  0
   44.6586    2.4280    9.1249 H   0  0  0  0  0  0  0  0  0  0  0  0
   45.8391    2.8936   10.3435 H   0  0  0  0  0  0  0  0  0  0  0  0
   43.7867    4.7286    8.9676 H   0  0  0  0  0  0  0  0  0  0  0  0
   45.5325    4.7503    8.7494 H   0  0  0  0  0  0  0  0  0  0  0  0
   43.1887    3.5849   12.8560 H   0  0  0  0  0  0  0  0  0  0  0  0
   44.9339    3.6076   12.6390 H   0  0  0  0  0  0  0  0  0  0  0  0
   42.8828    5.4431   11.2631 H   0  0  0  0  0  0  0  0  0  0  0  0
   44.0622    5.9075   12.4812 H   0  0  0  0  0  0  0  0  0  0  0  0
  2  6  1  0
  3  1  1  0
  4  3  1  0
  5  1  1  0
  6  5  1  0
  2  4  1  0
  8  7  1  0
  9  7  1  0
 10  7  1  0
 11  9  1  0
 12  8  1  0
 13 10  2  0
 14 12  2  0
 15 11  2  0
 16  7  1  0
 17 10  1  0
 18 12  1  0
 19 11  1  0
 21 25  1  0
 22 20  1  0
 23 22  1  0
 24 20  1  0
 25 24  1  0
 21 23  1  0
 27 26  1  0
 28 26  1  0
 29 26  1  0
 30 28  1  0
 31 27  1  0
 32 29  2  0
 33 31  2  0
 34 30  2  0
 35 26  1  0
 36 29  1  0
 37 31  1  0
 38 30  1  0
 40 44  1  0
 41 39  1  0
 42 41  1  0
 43 39  1  0
 44 43  1  0
 40 42  1  0
  1 45  1  0
  2 46  1  0
  3 47  1  0
  3 48  1  0
  4 49  1  0
  4 50  1  0
  5 51  1  0
  5 52  1  0
  6 53  1  0
  6 54  1  0
  8 55  1  0
  8 56  1  0
  9 57  1  0
  9 58  1  0
 16 59  1  0
 17 60  1  0
 18 61  1  0
 19 62  1  0
 20 63  1  0
 21 64  1  0
 22 65  1  0
 22 66  1  0
 23 67  1  0
 23 68  1  0
 24 69  1  0
 24 70  1  0
 25 71  1  0
 25 72  1  0
 27 73  1  0
 27 74  1  0
 28 75  1  0
 28 76  1  0
 35 77  1  0
 36 78  1  0
 37 79  1  0
 38 80  1  0
 39 81  1  0
 40 82  1  0
 41 83  1  0
 41 84  1  0
 42 85  1  0
 42 86  1  0
 43 87  1  0
 43 88  1  0
 44 89  1  0
 44 90  1  0
M  END
> <Uni-Dock RESULT> 
ENERGY=   -8.225  LOWER_BOUND=    1.111  UPPER_BOUND=    2.949
INTER + INTRA:          -8.225
INTER:                  -8.225
INTRA:                   0.000
UNBOUND:                 0.000

$$$$

     RDKit          3D

 90 88  0  0  0  0  0  0  0  0999 V2000
   44.7745    7.1428   11.4816 N   0  0  0  0  0  0  0  0  0  0  0  0
   45.3741    4.6186   12.9296 N   0  0  0  0  0  0  0  0  0  0  0  0
   45.8582    7.0452   12.4755 C   0  0  0  0  0  0  0  0  0  0  0  0
   46.4164    5.6131   12.6191 C   0  0  0  0  0  0  0  0  0  0  0  0
   43.7327    6.1478   11.7915 C   0  0  0  0  0  0  0  0  0  0  0  0
   44.2914    4.7155   11.9345 C   0  0  0  0  0  0  0  0  0  0  0  0
   45.2630    5.5816   12.7689 C   0  0  0  0  0  0  0  0  0  0  0  0
   46.1752    6.3649   11.8193 C   0  0  0  0  0  0  0  0  0  0  0  0
   43.8139    6.0654   12.8527 C   0  0  0  0  0  0  0  0  0  0  0  0
   45.2687    4.1105   12.3184 C   0  0  0  0  0  0  0  0  0  0  0  0
   43.0190    5.7398   11.6246 C   0  0  0  0  0  0  0  0  0  0  0  0
   46.4183    7.7844   12.2417 C   0  0  0  0  0  0  0  0  0  0  0  0
   45.4337    3.6834   11.1887 O   0  0  0  0  0  0  0  0  0  0  0  0
   45.6253    8.5583   12.7481 O   0  0  0  0  0  0  0  0  0  0  0  0
   42.3040    4.7635   11.4793 O   0  0  0  0  0  0  0  0  0  0  0  0
   45.8456    5.6272   14.0889 O   0  0  0  0  0  0  0  0  0  0  0  0
   45.0235    3.2674   13.3478 O   0  0  0  0  0  0  0  0  0  0  0  0
   47.6640    8.1987   11.9370 O   0  0  0  0  0  0  0  0  0  0  0  0
   43.1714    6.6394   10.6411 O   0  0  0  0  0  0  0  0  0  0  0  0
   45.0500    7.0443   11.2817 N   0  0  0  0  0  0  0  0  0  0  0  0
   45.0998    4.7172   13.1286 N   0  0  0  0  0  0  0  0  0  0  0  0
   43.8653    6.1980   11.5104 C   0  0  0  0  0  0  0  0  0  0  0  0
   44.2270    4.7601   11.9423 C   0  0  0  0  0  0  0  0  0  0  0  0
   45.9208    7.0014   12.4698 C   0  0  0  0  0  0  0  0  0  0  0  0
   46.2838    5.5633   12.8986 C   0  0  0  0  0  0  0  0  0  0  0  0
   45.5243    5.8682   12.1569 C   0  0  0  0  0  0  0  0  0  0  0  0
   44.0626    5.5086   11.8578 C   0  0  0  0  0  0  0  0  0  0  0  0
   45.6871    7.2051   12.8932 C   0  0  0  0  0  0  0  0  0  0  0  0
   46.1855    4.8079   13.0557 C   0  0  0  0  0  0  0  0  0  0  0  0
   45.0975    8.3686   12.1522 C   0  0  0  0  0  0  0  0  0  0  0  0
   43.9099    4.0824   11.4102 C   0  0  0  0  0  0  0  0  0  0  0  0
   47.2359    4.2270   12.8293 O   0  0  0  0  0  0  0  0  0  0  0  0
   44.7830    3.3596   10.9620 O   0  0  0  0  0  0  0  0  0  0  0  0
   43.9345    8.4924   11.8063 O   0  0  0  0  0  0  0  0  0  0  0  0
   46.2475    5.9717   10.9206 O   0  0  0  0  0  0  0  0  0  0  0  0
   45.4935    4.5449   14.1819 O   0  0  0  0  0  0  0  0  0  0  0  0
   42.6408    3.6458   11.5135 O   0  0  0  0  0  0  0  0  0  0  0  0
   45.9841    9.3571   11.9322 O   0  0  0  0  0  0  0  0  0  0  0  0
   44.0404    6.6372   11.4531 N   0  0  0  0  0  0  0  0  0  0  0  0
   46.1087    5.1234   12.9564 N   0  0  0  0  0  0  0  0  0  0  0  0
   43.7813    5.2999   12.0155 C   0  0  0  0  0  0  0  0  0  0  0  0
   45.0632    4.4521   12.1638 C   0  0  0  0  0  0  0  0  0  0  0  0
   45.0852    7.3085   12.2465 C   0  0  0  0  0  0  0  0  0  0  0  0
   46.3671    6.4610   12.3954 C   0  0  0  0  0  0  0  0  0  0  0  0
   45.1684    6.9045   10.5704 H   0  0  0  0  0  0  0  0  0  0  0  0
   44.9800    4.8574   13.8409 H   0  0  0  0  0  0  0  0  0  0  0  0
   45.4876    7.3990   13.4452 H   0  0  0  0  0  0  0  0  0  0  0  0
   46.6684    7.7224   12.1820 H   0  0  0  0  0  0  0  0  0  0  0  0
   46.9293    5.3201   11.6948 H   0  0  0  0  0  0  0  0  0  0  0  0
   47.1680    5.5946   13.4162 H   0  0  0  0  0  0  0  0  0  0  0  0
   42.9808    6.1656   10.9946 H   0  0  0  0  0  0  0  0  0  0  0  0
   43.2188    6.4410   12.7153 H   0  0  0  0  0  0  0  0  0  0  0  0
   43.4817    4.0385   12.2283 H   0  0  0  0  0  0  0  0  0  0  0  0
   44.6612    4.3605   10.9645 H   0  0  0  0  0  0  0  0  0  0  0  0
   45.7930    6.3758   10.7936 H   0  0  0  0  0  0  0  0  0  0  0  0
   47.1529    5.8659   11.7913 H   0  0  0  0  0  0  0  0  0  0  0  0
   43.7288    7.1337   13.0689 H   0  0  0  0  0  0  0  0  0  0  0  0
   43.3055    5.5846   13.6988 H   0  0  0  0  0  0  0  0  0  0  0  0
   45.4543    4.8825   14.5873 H   0  0  0  0  0  0  0  0  0  0  0  0
   44.9969    2.3805   12.9257 H   0  0  0  0  0  0  0  0  0  0  0  0
   47.6891    9.1237   12.2577 H   0  0  0  0  0  0  0  0  0  0  0  0
   42.6052    6.3102    9.9109 H   0  0  0  0  0  0  0  0  0  0  0  0
   45.5715    6.6420   10.5016 H   0  0  0  0  0  0  0  0  0  0  0  0
   44.5802    5.1174   13.9110 H   0  0  0  0  0  0  0  0  0  0  0  0
   43.2762    6.1604   10.5870 H   0  0  0  0  0  0  0  0  0  0  0  0
   43.2297    6.6677   12.2713 H   0  0  0  0  0  0  0  0  0  0  0  0
   43.3073    4.2061   12.1620 H   0  0  0  0  0  0  0  0  0  0  0  0
   44.7201    4.2352   11.1150 H   0  0  0  0  0  0  0  0  0  0  0  0
   45.4271    7.5242   13.2984 H   0  0  0  0  0  0  0  0  0  0  0  0
   46.8403    7.5559   12.2517 H   0  0  0  0  0  0  0  0  0  0  0  0
   46.8755    5.5981   13.8202 H   0  0  0  0  0  0  0  0  0  0  0  0
   46.9167    5.0955   12.1342 H   0  0  0  0  0  0  0  0  0  0  0  0
   43.4481    5.6506   12.7551 H   0  0  0  0  0  0  0  0  0  0  0  0
   43.6642    6.1251   11.0453 H   0  0  0  0  0  0  0  0  0  0  0  0
   46.7562    7.4061   13.0491 H   0  0  0  0  0  0  0  0  0  0  0  0
   45.2250    7.1847   13.8874 H   0  0  0  0  0  0  0  0  0  0  0  0
   46.5158    5.0603   10.6717 H   0  0  0  0  0  0  0  0  0  0  0  0
   46.0304    3.8559   14.6319 H   0  0  0  0  0  0  0  0  0  0  0  0
   42.6614    2.7323   11.1592 H   0  0  0  0  0  0  0  0  0  0  0  0
   45.4764   10.0343   11.4385 H   0  0  0  0  0  0  0  0  0  0  0  0
   44.4022    6.5117   10.5066 H   0  0  0  0  0  0  0  0  0  0  0  0
   45.7471    5.2492   13.9028 H   0  0  0  0  0  0  0  0  0  0  0  0
   43.0737    4.7753   11.3638 H   0  0  0  0  0  0  0  0  0  0  0  0
   43.2910    5.4080   12.9912 H   0  0  0  0  0  0  0  0  0  0  0  0
   45.4656    4.2093   11.1725 H   0  0  0  0  0  0  0  0  0  0  0  0
   44.8141    3.4994   12.6448 H   0  0  0  0  0  0  0  0  0  0  0  0
   45.3341    8.2609   11.7657 H   0  0  0  0  0  0  0  0  0  0  0  0
   44.6841    7.5520   13.2382 H   0  0  0  0  0  0  0  0  0  0  0  0
   46.8585    6.3528   11.4208 H   0  0  0  0  0  0  0  0  0  0  0  0
   47.0750    6.9857   13.0466 H   0  0  0  0  0  0  0  0  0  0  0  0
  2  6  1  0
  3  1  1  0
  4  3  1  0
  5  1  1  0
  6  5  1  0
  2  4  1  0
  8  7  1  0
  9  7  1  0
 10  7  1  0
 11  9  1  0
 12  8  1  0
 13 10  2  0
 14 12  2  0
 15 11  2  0
 16  7  1  0
 17 10  1  0
 18 12  1  0
 19 11  1  0
 21 25  1  0
 22 20  1  0
 23 22  1  0
 24 20  1  0
 25 24  1  0
 21 23  1  0
 27 26  1  0
 28 26  1  0
 29 26  1  0
 30 28  1  0
 31 27  1  0
 32 29  2  0
 33 31  2  0
 34 30  2  0
 35 26  1  0
 36 29  1  0
 37 31  1  0
 38 30  1  0
 40 44  1  0
 41 39  1  0
 42 41  1  0
 43 39  1  0
 44 43  1  0
 40 42  1  0
  1 45  1  0
  2 46  1  0
  3 47  1  0
  3 48  1  0
  4 49  1  0
  4 50  1  0
  5 51  1  0
  5 52  1  0
  6 53  1  0
  6 54  1  0
  8 55  1  0
  8 56  1  0
  9 57  1  0
  9 58  1  0
 16 59  1  0
 17 60  1  0
 18 61  1  0
 19 62  1  0
 20 63  1  0
 21 64  1  0
 22 65  1  0
 22 66  1  0
 23 67  1  0
 23 68  1  0
 24 69  1  0
 24 70  1  0
 25 71  1  0
 25 72  1  0
 27 73  1  0
 27 74  1  0
 28 75  1  0
 28 76  1  0
 35 77  1  0
 36 78  1  0
 37 79  1  0
 38 80  1  0
 39 81  1  0
 40 82  1  0
 41 83  1  0
 41 84  1  0
 42 85  1  0
 42 86  1  0
 43 87  1  0
 43 88  1  0
 44 89  1  0
 44 90  1  0
M  END
> <Uni-Dock RESULT> 
ENERGY=   -7.644  LOWER_BOUND=    1.601  UPPER_BOUND=    2.673
INTER + INTRA:          -7.644
INTER:                  -7.644
INTRA:                   0.000
UNBOUND:                 0.000

$$$$

     RDKit          3D

 90 88  0  0  0  0  0  0  0  0999 V2000
   50.0998    3.8125   19.1702 N   0  0  0  0  0  0  0  0  0  0  0  0
   47.7495    4.7383   17.6059 N   0  0  0  0  0  0  0  0  0  0  0  0
   49.4541    5.1139   19.4177 C   0  0  0  0  0  0  0  0  0  0  0  0
   47.9656    5.1349   19.0087 C   0  0  0  0  0  0  0  0  0  0  0  0
   49.8830    3.4154   17.7677 C   0  0  0  0  0  0  0  0  0  0  0  0
   48.3941    3.4363   17.3593 C   0  0  0  0  0  0  0  0  0  0  0  0
   48.5981    4.7781   18.0997 C   0  0  0  0  0  0  0  0  0  0  0  0
   48.6837    4.5097   19.6057 C   0  0  0  0  0  0  0  0  0  0  0  0
   49.8191    4.3614   17.2772 C   0  0  0  0  0  0  0  0  0  0  0  0
   47.3617    4.0381   17.5604 C   0  0  0  0  0  0  0  0  0  0  0  0
   49.9421    2.8752   17.1288 C   0  0  0  0  0  0  0  0  0  0  0  0
   49.7358    5.3165   20.3089 C   0  0  0  0  0  0  0  0  0  0  0  0
   46.8636    3.0145   17.9964 O   0  0  0  0  0  0  0  0  0  0  0  0
   50.8451    5.6128   19.9016 O   0  0  0  0  0  0  0  0  0  0  0  0
   49.5348    2.2192   16.1857 O   0  0  0  0  0  0  0  0  0  0  0  0
   48.3686    6.1904   17.9088 O   0  0  0  0  0  0  0  0  0  0  0  0
   46.8539    4.6406   16.4605 O   0  0  0  0  0  0  0  0  0  0  0  0
   49.3592    5.6661   21.5548 O   0  0  0  0  0  0  0  0  0  0  0  0
   50.5510    2.2876   18.1697 O   0  0  0  0  0  0  0  0  0  0  0  0
   49.8537    3.7287   19.4108 N   0  0  0  0  0  0  0  0  0  0  0  0
   47.9950    4.8219   17.3666 N   0  0  0  0  0  0  0  0  0  0  0  0
   49.8362    3.2359   18.0220 C   0  0  0  0  0  0  0  0  0  0  0  0
   48.4676    3.4267   17.3327 C   0  0  0  0  0  0  0  0  0  0  0  0
   49.3823    5.1247   19.4424 C   0  0  0  0  0  0  0  0  0  0  0  0
   48.0126    5.3132   18.7553 C   0  0  0  0  0  0  0  0  0  0  0  0
   48.6579    4.4174   18.7253 C   0  0  0  0  0  0  0  0  0  0  0  0
   49.1732    3.4605   17.6416 C   0  0  0  0  0  0  0  0  0  0  0  0
   49.7020    5.4468   19.1791 C   0  0  0  0  0  0  0  0  0  0  0  0
   47.4532    5.2320   18.2212 C   0  0  0  0  0  0  0  0  0  0  0  0
   50.9588    4.8249   19.7121 C   0  0  0  0  0  0  0  0  0  0  0  0
   48.0634    2.6676   17.0113 C   0  0  0  0  0  0  0  0  0  0  0  0
   46.3707    5.3343   18.7778 O   0  0  0  0  0  0  0  0  0  0  0  0
   46.9536    2.4679   17.4742 O   0  0  0  0  0  0  0  0  0  0  0  0
   51.7014    4.0656   19.1126 O   0  0  0  0  0  0  0  0  0  0  0  0
   48.2767    3.6582   19.8830 O   0  0  0  0  0  0  0  0  0  0  0  0
   47.6802    5.8700   17.0560 O   0  0  0  0  0  0  0  0  0  0  0  0
   48.4252    2.1262   15.8333 O   0  0  0  0  0  0  0  0  0  0  0  0
   51.2622    5.2346   20.9578 O   0  0  0  0  0  0  0  0  0  0  0  0
   50.0965    3.3622   18.4004 N   0  0  0  0  0  0  0  0  0  0  0  0
   47.7518    5.1872   18.3765 N   0  0  0  0  0  0  0  0  0  0  0  0
   49.1675    3.4324   17.2586 C   0  0  0  0  0  0  0  0  0  0  0  0
   47.7519    3.8972   17.6638 C   0  0  0  0  0  0  0  0  0  0  0  0
   50.0968    4.6526   19.1121 C   0  0  0  0  0  0  0  0  0  0  0  0
   48.6815    5.1180   19.5172 C   0  0  0  0  0  0  0  0  0  0  0  0
   49.6382    3.1207   19.7622 H   0  0  0  0  0  0  0  0  0  0  0  0
   48.2116    5.4302   17.0139 H   0  0  0  0  0  0  0  0  0  0  0  0
   50.0004    5.8939   18.8738 H   0  0  0  0  0  0  0  0  0  0  0  0
   49.5406    5.3538   20.4836 H   0  0  0  0  0  0  0  0  0  0  0  0
   47.3911    4.4683   19.6637 H   0  0  0  0  0  0  0  0  0  0  0  0
   47.5633    6.1437   19.1544 H   0  0  0  0  0  0  0  0  0  0  0  0
   50.2849    2.4066   17.6213 H   0  0  0  0  0  0  0  0  0  0  0  0
   50.4582    4.0812   17.1124 H   0  0  0  0  0  0  0  0  0  0  0  0
   48.3074    3.1968   16.2937 H   0  0  0  0  0  0  0  0  0  0  0  0
   47.8472    2.6553   17.9022 H   0  0  0  0  0  0  0  0  0  0  0  0
   48.8604    3.4525   19.8281 H   0  0  0  0  0  0  0  0  0  0  0  0
   47.7190    4.7750   20.0581 H   0  0  0  0  0  0  0  0  0  0  0  0
   50.7575    4.7676   17.6640 H   0  0  0  0  0  0  0  0  0  0  0  0
   49.7498    4.7787   16.2639 H   0  0  0  0  0  0  0  0  0  0  0  0
   47.9995    6.2891   17.0088 H   0  0  0  0  0  0  0  0  0  0  0  0
   46.1183    4.0499   16.1858 H   0  0  0  0  0  0  0  0  0  0  0  0
   50.1223    6.1762   21.8965 H   0  0  0  0  0  0  0  0  0  0  0  0
   50.5652    1.3329   17.9450 H   0  0  0  0  0  0  0  0  0  0  0  0
   49.1911    3.1665   19.9468 H   0  0  0  0  0  0  0  0  0  0  0  0
   48.6549    5.3864   16.8297 H   0  0  0  0  0  0  0  0  0  0  0  0
   50.0946    2.1708   18.0233 H   0  0  0  0  0  0  0  0  0  0  0  0
   50.6179    3.7495   17.4487 H   0  0  0  0  0  0  0  0  0  0  0  0
   48.5409    3.1054   16.2875 H   0  0  0  0  0  0  0  0  0  0  0  0
   47.7178    2.7824   17.8078 H   0  0  0  0  0  0  0  0  0  0  0  0
   50.1308    5.7693   18.9652 H   0  0  0  0  0  0  0  0  0  0  0  0
   49.3096    5.4473   20.4870 H   0  0  0  0  0  0  0  0  0  0  0  0
   47.7504    6.3772   18.7553 H   0  0  0  0  0  0  0  0  0  0  0  0
   47.2338    4.7959   19.3294 H   0  0  0  0  0  0  0  0  0  0  0  0
   49.6794    4.0254   16.8494 H   0  0  0  0  0  0  0  0  0  0  0  0
   49.8680    2.7266   18.0630 H   0  0  0  0  0  0  0  0  0  0  0  0
   49.2712    6.0769   19.9698 H   0  0  0  0  0  0  0  0  0  0  0  0
   49.9929    6.1220   18.3656 H   0  0  0  0  0  0  0  0  0  0  0  0
   47.3626    3.3367   19.7231 H   0  0  0  0  0  0  0  0  0  0  0  0
   46.8304    6.3264   16.8687 H   0  0  0  0  0  0  0  0  0  0  0  0
   47.6443    1.6083   15.5461 H   0  0  0  0  0  0  0  0  0  0  0  0
   52.0837    4.7492   21.1806 H   0  0  0  0  0  0  0  0  0  0  0  0
   49.7443    2.6526   19.0446 H   0  0  0  0  0  0  0  0  0  0  0  0
   48.1041    5.8969   17.7326 H   0  0  0  0  0  0  0  0  0  0  0  0
   49.1043    2.4417   16.7950 H   0  0  0  0  0  0  0  0  0  0  0  0
   49.5793    4.1099   16.5000 H   0  0  0  0  0  0  0  0  0  0  0  0
   47.2781    3.1376   18.2978 H   0  0  0  0  0  0  0  0  0  0  0  0
   47.1303    3.9909   16.7662 H   0  0  0  0  0  0  0  0  0  0  0  0
   50.7183    4.5590   20.0094 H   0  0  0  0  0  0  0  0  0  0  0  0
   50.5706    5.4132   18.4791 H   0  0  0  0  0  0  0  0  0  0  0  0
   48.2691    4.4419   20.2760 H   0  0  0  0  0  0  0  0  0  0  0  0
   48.7446    6.1085   19.9813 H   0  0  0  0  0  0  0  0  0  0  0  0
  2  6  1  0
  3  1  1  0
  4  3  1  0
  5  1  1  0
  6  5  1  0
  2  4  1  0
  8  7  1  0
  9  7  1  0
 10  7  1  0
 11  9  1  0
 12  8  1  0
 13 10  2  0
 14 12  2  0
 15 11  2  0
 16  7  1  0
 17 10  1  0
 18 12  1  0
 19 11  1  0
 21 25  1  0
 22 20  1  0
 23 22  1  0
 24 20  1  0
 25 24  1  0
 21 23  1  0
 27 26  1  0
 28 26  1  0
 29 26  1  0
 30 28  1  0
 31 27  1  0
 32 29  2  0
 33 31  2  0
 34 30  2  0
 35 26  1  0
 36 29  1  0
 37 31  1  0
 38 30  1  0
 40 44  1  0
 41 39  1  0
 42 41  1  0
 43 39  1  0
 44 43  1  0
 40 42  1  0
  1 45  1  0
  2 46  1  0
  3 47  1  0
  3 48  1  0
  4 49  1  0
  4 50  1  0
  5 51  1  0
  5 52  1  0
  6 53  1  0
  6 54  1  0
  8 55  1  0
  8 56  1  0
  9 57  1  0
  9 58  1  0
 16 59  1  0
 17 60  1  0
 18 61  1  0
 19 62  1  0
 20 63  1  0
 21 64  1  0
 22 65  1  0
 22 66  1  0
 23 67  1  0
 23 68  1  0
 24 69  1  0
 24 70  1  0
 25 71  1  0
 25 72  1  0
 27 73  1  0
 27 74  1  0
 28 75  1  0
 28 76  1  0
 35 77  1  0
 36 78  1  0
 37 79  1  0
 38 80  1  0
 39 81  1  0
 40 82  1  0
 41 83  1  0
 41 84  1  0
 42 85  1  0
 42 86  1  0
 43 87  1  0
 43 88  1  0
 44 89  1  0
 44 90  1  0
M  END
> <Uni-Dock RESULT> 
ENERGY=   -7.163  LOWER_BOUND=    6.771  UPPER_BOUND=    8.513
INTER + INTRA:          -7.163
INTER:                  -7.163
INTRA:                   0.000
UNBOUND:                 0.000

$$$$

     RDKit          3D

 90 88  0  0  0  0  0  0  0  0999 V2000
   46.0587    7.3597   13.3217 N   0  0  0  0  0  0  0  0  0  0  0  0
   48.6292    8.2953   12.1620 N   0  0  0  0  0  0  0  0  0  0  0  0
   47.1226    6.4256   12.9128 C   0  0  0  0  0  0  0  0  0  0  0  0
   48.5298    7.0588   12.9578 C   0  0  0  0  0  0  0  0  0  0  0  0
   46.1585    8.5965   12.5267 C   0  0  0  0  0  0  0  0  0  0  0  0
   47.5660    9.2296   12.5724 C   0  0  0  0  0  0  0  0  0  0  0  0
   47.8380    7.7309   12.3071 C   0  0  0  0  0  0  0  0  0  0  0  0
   47.6176    6.9460   13.6043 C   0  0  0  0  0  0  0  0  0  0  0  0
   46.5734    8.2379   11.6108 C   0  0  0  0  0  0  0  0  0  0  0  0
   48.7396    8.9341   12.6338 C   0  0  0  0  0  0  0  0  0  0  0  0
   45.9272    9.3797   12.3353 C   0  0  0  0  0  0  0  0  0  0  0  0
   46.9071    5.6382   13.4111 C   0  0  0  0  0  0  0  0  0  0  0  0
   48.8223    9.5303   13.6937 O   0  0  0  0  0  0  0  0  0  0  0  0
   45.9916    5.3924   12.6457 O   0  0  0  0  0  0  0  0  0  0  0  0
   46.0980   10.5621   12.0938 O   0  0  0  0  0  0  0  0  0  0  0  0
   48.5667    6.8864   11.3908 O   0  0  0  0  0  0  0  0  0  0  0  0
   49.4623    9.3283   11.5601 O   0  0  0  0  0  0  0  0  0  0  0  0
   47.3479    4.6903   14.2617 O   0  0  0  0  0  0  0  0  0  0  0  0
   45.1174    8.9857   13.3295 O   0  0  0  0  0  0  0  0  0  0  0  0
   46.2509    7.3318   13.6180 N   0  0  0  0  0  0  0  0  0  0  0  0
   48.4374    8.3227   11.8670 N   0  0  0  0  0  0  0  0  0  0  0  0
   46.1300    8.5773   12.8396 C   0  0  0  0  0  0  0  0  0  0  0  0
   47.4948    9.2343   12.5390 C   0  0  0  0  0  0  0  0  0  0  0  0
   47.1927    6.4208   12.9435 C   0  0  0  0  0  0  0  0  0  0  0  0
   48.5577    7.0782   12.6462 C   0  0  0  0  0  0  0  0  0  0  0  0
   47.6340    7.5796   12.9857 C   0  0  0  0  0  0  0  0  0  0  0  0
   46.8402    8.8291   12.5808 C   0  0  0  0  0  0  0  0  0  0  0  0
   47.0184    6.2708   12.4718 C   0  0  0  0  0  0  0  0  0  0  0  0
   49.0655    7.6228   12.4218 C   0  0  0  0  0  0  0  0  0  0  0  0
   45.6070    6.0555   12.9322 C   0  0  0  0  0  0  0  0  0  0  0  0
   47.6074   10.0955   12.8366 C   0  0  0  0  0  0  0  0  0  0  0  0
   50.0954    7.4771   13.0624 O   0  0  0  0  0  0  0  0  0  0  0  0
   48.5565   10.2359   13.5884 O   0  0  0  0  0  0  0  0  0  0  0  0
   44.6584    6.7944   12.7282 O   0  0  0  0  0  0  0  0  0  0  0  0
   47.6819    7.4944   14.4183 O   0  0  0  0  0  0  0  0  0  0  0  0
   49.1178    7.8411   11.0930 O   0  0  0  0  0  0  0  0  0  0  0  0
   47.1092   11.1434   12.1543 O   0  0  0  0  0  0  0  0  0  0  0  0
   45.4356    4.8867   13.5773 O   0  0  0  0  0  0  0  0  0  0  0  0
   45.9218    8.1771   12.9924 N   0  0  0  0  0  0  0  0  0  0  0  0
   48.7664    7.4787   12.4930 N   0  0  0  0  0  0  0  0  0  0  0  0
   46.8465    9.0946   12.3033 C   0  0  0  0  0  0  0  0  0  0  0  0
   48.3220    8.8688   12.6982 C   0  0  0  0  0  0  0  0  0  0  0  0
   46.3660    6.7872   12.7861 C   0  0  0  0  0  0  0  0  0  0  0  0
   47.8415    6.5610   13.1806 C   0  0  0  0  0  0  0  0  0  0  0  0
   46.2223    7.6062   14.2988 H   0  0  0  0  0  0  0  0  0  0  0  0
   48.4650    8.0486   11.1848 H   0  0  0  0  0  0  0  0  0  0  0  0
   46.9104    6.0622   11.9000 H   0  0  0  0  0  0  0  0  0  0  0  0
   47.0974    5.5510   13.5728 H   0  0  0  0  0  0  0  0  0  0  0  0
   48.8060    7.2765   13.9968 H   0  0  0  0  0  0  0  0  0  0  0  0
   49.2643    6.3385   12.5805 H   0  0  0  0  0  0  0  0  0  0  0  0
   45.4243    9.3174   12.9035 H   0  0  0  0  0  0  0  0  0  0  0  0
   45.8814    8.3795   11.4877 H   0  0  0  0  0  0  0  0  0  0  0  0
   47.5915   10.1037   11.9123 H   0  0  0  0  0  0  0  0  0  0  0  0
   47.7785    9.5944   13.5850 H   0  0  0  0  0  0  0  0  0  0  0  0
   47.0652    7.5263   14.3502 H   0  0  0  0  0  0  0  0  0  0  0  0
   48.5994    6.7173   14.0395 H   0  0  0  0  0  0  0  0  0  0  0  0
   45.8337    7.4520   11.4365 H   0  0  0  0  0  0  0  0  0  0  0  0
   46.8180    8.5972   10.6024 H   0  0  0  0  0  0  0  0  0  0  0  0
   48.9726    7.4833   10.7314 H   0  0  0  0  0  0  0  0  0  0  0  0
   49.9431   10.1241   11.8780 H   0  0  0  0  0  0  0  0  0  0  0  0
   46.8105    3.9034   14.0356 H   0  0  0  0  0  0  0  0  0  0  0  0
   44.7665    9.8183   13.7113 H   0  0  0  0  0  0  0  0  0  0  0  0
   46.6504    7.5723   14.5263 H   0  0  0  0  0  0  0  0  0  0  0  0
   48.0413    8.0818   10.9574 H   0  0  0  0  0  0  0  0  0  0  0  0
   45.5050    9.2827   13.3993 H   0  0  0  0  0  0  0  0  0  0  0  0
   45.6031    8.3648   11.9011 H   0  0  0  0  0  0  0  0  0  0  0  0
   47.3411   10.1131   11.9026 H   0  0  0  0  0  0  0  0  0  0  0  0
   47.9478    9.5959   13.4703 H   0  0  0  0  0  0  0  0  0  0  0  0
   46.7412    6.0606   12.0108 H   0  0  0  0  0  0  0  0  0  0  0  0
   47.3463    5.5411   13.5785 H   0  0  0  0  0  0  0  0  0  0  0  0
   49.1857    6.3738   12.0892 H   0  0  0  0  0  0  0  0  0  0  0  0
   49.0806    7.2922   13.5867 H   0  0  0  0  0  0  0  0  0  0  0  0
   46.5950    8.7904   11.5125 H   0  0  0  0  0  0  0  0  0  0  0  0
   45.9156    8.9129   13.1613 H   0  0  0  0  0  0  0  0  0  0  0  0
   47.6242    5.4228   12.8208 H   0  0  0  0  0  0  0  0  0  0  0  0
   47.0144    6.2217   11.3764 H   0  0  0  0  0  0  0  0  0  0  0  0
   48.4229    8.0682   14.7120 H   0  0  0  0  0  0  0  0  0  0  0  0
   50.0801    7.8504   10.8942 H   0  0  0  0  0  0  0  0  0  0  0  0
   47.6589   11.9060   12.4314 H   0  0  0  0  0  0  0  0  0  0  0  0
   44.4882    4.8832   13.8274 H   0  0  0  0  0  0  0  0  0  0  0  0
   45.9756    8.3748   13.9927 H   0  0  0  0  0  0  0  0  0  0  0  0
   48.7125    7.2807   11.4929 H   0  0  0  0  0  0  0  0  0  0  0  0
   46.5618   10.1255   12.5413 H   0  0  0  0  0  0  0  0  0  0  0  0
   46.7289    8.9774   11.2186 H   0  0  0  0  0  0  0  0  0  0  0  0
   48.4715    9.1411   13.7505 H   0  0  0  0  0  0  0  0  0  0  0  0
   48.9615    9.5337   12.1068 H   0  0  0  0  0  0  0  0  0  0  0  0
   45.7266    6.1225   13.3773 H   0  0  0  0  0  0  0  0  0  0  0  0
   46.2170    6.5135   11.7342 H   0  0  0  0  0  0  0  0  0  0  0  0
   47.9601    6.6772   14.2647 H   0  0  0  0  0  0  0  0  0  0  0  0
   48.1263    5.5300   12.9430 H   0  0  0  0  0  0  0  0  0  0  0  0
  2  6  1  0
  3  1  1  0
  4  3  1  0
  5  1  1  0
  6  5  1  0
  2  4  1  0
  8  7  1  0
  9  7  1  0
 10  7  1  0
 11  9  1  0
 12  8  1  0
 13 10  2  0
 14 12  2  0
 15 11  2  0
 16  7  1  0
 17 10  1  0
 18 12  1  0
 19 11  1  0
 21 25  1  0
 22 20  1  0
 23 22  1  0
 24 20  1  0
 25 24  1  0
 21 23  1  0
 27 26  1  0
 28 26  1  0
 29 26  1  0
 30 28  1  0
 31 27  1  0
 32 29  2  0
 33 31  2  0
 34 30  2  0
 35 26  1  0
 36 29  1  0
 37 31  1  0
 38 30  1  0
 40 44  1  0
 41 39  1  0
 42 41  1  0
 43 39  1  0
 44 43  1  0
 40 42  1  0
  1 45  1  0
  2 46  1  0
  3 47  1  0
  3 48  1  0
  4 49  1  0
  4 50  1  0
  5 51  1  0
  5 52  1  0
  6 53  1  0
  6 54  1  0
  8 55  1  0
  8 56  1  0
  9 57  1  0
  9 58  1  0
 16 59  1  0
 17 60  1  0
 18 61  1  0
 19 62  1  0
 20 63  1  0
 21 64  1  0
 22 65  1  0
 22 66  1  0
 23 67  1  0
 23 68  1  0
 24 69  1  0
 24 70  1  0
 25 71  1  0
 25 72  1  0
 27 73  1  0
 27 74  1  0
 28 75  1  0
 28 76  1  0
 35 77  1  0
 36 78  1  0
 37 79  1  0
 38 80  1  0
 39 81  1  0
 40 82  1  0
 41 83  1  0
 41 84  1  0
 42 85  1  0
 42 86  1  0
 43 87  1  0
 43 88  1  0
 44 89  1  0
 44 90  1  0
M  END
> <Uni-Dock RESULT> 
ENERGY=   -7.110  LOWER_BOUND=    3.290  UPPER_BOUND=    5.735
INTER + INTRA:          -7.110
INTER:                  -7.110
INTRA:                   0.000
UNBOUND:                 0.000

$$$$

     RDKit          3D

 90 88  0  0  0  0  0  0  0  0999 V2000
   48.3637    9.0963   12.1588 N   0  0  0  0  0  0  0  0  0  0  0  0
   47.1870    6.6520   13.3707 N   0  0  0  0  0  0  0  0  0  0  0  0
   49.1866    8.0865   12.8481 C   0  0  0  0  0  0  0  0  0  0  0  0
   48.5556    6.6778   12.8248 C   0  0  0  0  0  0  0  0  0  0  0  0
   46.9949    9.0699   12.7040 C   0  0  0  0  0  0  0  0  0  0  0  0
   46.3642    7.6608   12.6801 C   0  0  0  0  0  0  0  0  0  0  0  0
   47.7792    7.4281   13.2582 C   0  0  0  0  0  0  0  0  0  0  0  0
   48.8039    7.5195   12.1228 C   0  0  0  0  0  0  0  0  0  0  0  0
   47.1633    8.7539   13.7096 C   0  0  0  0  0  0  0  0  0  0  0  0
   46.6506    6.4892   12.7975 C   0  0  0  0  0  0  0  0  0  0  0  0
   46.1925    9.3142   12.7148 C   0  0  0  0  0  0  0  0  0  0  0  0
   50.0584    8.2552   12.4931 C   0  0  0  0  0  0  0  0  0  0  0  0
   46.2705    6.2939   11.6559 O   0  0  0  0  0  0  0  0  0  0  0  0
   50.1630    9.2462   13.1940 O   0  0  0  0  0  0  0  0  0  0  0  0
   44.9836    9.1608   12.7378 O   0  0  0  0  0  0  0  0  0  0  0  0
   48.4200    6.8033   14.3908 O   0  0  0  0  0  0  0  0  0  0  0  0
   46.0459    5.8779   13.8421 O   0  0  0  0  0  0  0  0  0  0  0  0
   51.1476    7.7360   11.8927 O   0  0  0  0  0  0  0  0  0  0  0  0
   46.7827   10.0203   11.7388 O   0  0  0  0  0  0  0  0  0  0  0  0
   48.4461    8.8748   11.8948 N   0  0  0  0  0  0  0  0  0  0  0  0
   47.1054    6.8728   13.6336 N   0  0  0  0  0  0  0  0  0  0  0  0
   47.0748    9.0663   12.3996 C   0  0  0  0  0  0  0  0  0  0  0  0
   46.3541    7.7350   12.7045 C   0  0  0  0  0  0  0  0  0  0  0  0
   49.1963    8.0137   12.8262 C   0  0  0  0  0  0  0  0  0  0  0  0
   48.4758    6.6819   13.1278 C   0  0  0  0  0  0  0  0  0  0  0  0
   48.0621    7.5623   12.6048 C   0  0  0  0  0  0  0  0  0  0  0  0
   46.7682    8.3847   12.6756 C   0  0  0  0  0  0  0  0  0  0  0  0
   49.2542    8.2365   13.2978 C   0  0  0  0  0  0  0  0  0  0  0  0
   47.8913    6.1960   13.2926 C   0  0  0  0  0  0  0  0  0  0  0  0
   49.5732    9.5947   12.7463 C   0  0  0  0  0  0  0  0  0  0  0  0
   45.5656    7.5865   12.2581 C   0  0  0  0  0  0  0  0  0  0  0  0
   48.1451    5.1069   12.8013 O   0  0  0  0  0  0  0  0  0  0  0  0
   45.5614    6.5642   11.5943 O   0  0  0  0  0  0  0  0  0  0  0  0
   48.8213   10.5541   12.7047 O   0  0  0  0  0  0  0  0  0  0  0  0
   48.4232    7.3680   11.2286 O   0  0  0  0  0  0  0  0  0  0  0  0
   47.4185    6.2790   14.5519 O   0  0  0  0  0  0  0  0  0  0  0  0
   44.4119    8.1448   12.6691 O   0  0  0  0  0  0  0  0  0  0  0  0
   50.8472    9.7071   12.3268 O   0  0  0  0  0  0  0  0  0  0  0  0
   47.4998    9.2605   12.3071 N   0  0  0  0  0  0  0  0  0  0  0  0
   48.0504    6.4872   13.2206 N   0  0  0  0  0  0  0  0  0  0  0  0
   46.4539    8.4051   12.8954 C   0  0  0  0  0  0  0  0  0  0  0  0
   46.7327    6.8984   12.7047 C   0  0  0  0  0  0  0  0  0  0  0  0
   48.8172    8.8496   12.8240 C   0  0  0  0  0  0  0  0  0  0  0  0
   49.0963    7.3430   12.6339 C   0  0  0  0  0  0  0  0  0  0  0  0
   48.3095    8.8313   11.1744 H   0  0  0  0  0  0  0  0  0  0  0  0
   47.2414    6.9174   14.3553 H   0  0  0  0  0  0  0  0  0  0  0  0
   49.3491    8.4043   13.8851 H   0  0  0  0  0  0  0  0  0  0  0  0
   50.1729    8.0499   12.3717 H   0  0  0  0  0  0  0  0  0  0  0  0
   48.5403    6.2947   11.7970 H   0  0  0  0  0  0  0  0  0  0  0  0
   49.1793    5.9910   13.4080 H   0  0  0  0  0  0  0  0  0  0  0  0
   46.3706    9.7565   12.1212 H   0  0  0  0  0  0  0  0  0  0  0  0
   47.0096    9.4539   13.7316 H   0  0  0  0  0  0  0  0  0  0  0  0
   45.3783    7.6971   13.1566 H   0  0  0  0  0  0  0  0  0  0  0  0
   46.2002    7.3428   11.6429 H   0  0  0  0  0  0  0  0  0  0  0  0
   48.3868    7.9882   11.2258 H   0  0  0  0  0  0  0  0  0  0  0  0
   49.0998    6.4998   11.8430 H   0  0  0  0  0  0  0  0  0  0  0  0
   47.9100    9.5130   13.9570 H   0  0  0  0  0  0  0  0  0  0  0  0
   46.6119    8.6117   14.6485 H   0  0  0  0  0  0  0  0  0  0  0  0
   47.7011    6.4631   14.9594 H   0  0  0  0  0  0  0  0  0  0  0  0
   45.3208    5.3614   13.4263 H   0  0  0  0  0  0  0  0  0  0  0  0
   51.8827    8.2993   12.2114 H   0  0  0  0  0  0  0  0  0  0  0  0
   46.0448   10.3243   11.1685 H   0  0  0  0  0  0  0  0  0  0  0  0
   48.3813    8.3825   11.0028 H   0  0  0  0  0  0  0  0  0  0  0  0
   47.1702    7.3620   14.5274 H   0  0  0  0  0  0  0  0  0  0  0  0
   46.4998    9.6255   11.6526 H   0  0  0  0  0  0  0  0  0  0  0  0
   47.1080    9.6884   13.3026 H   0  0  0  0  0  0  0  0  0  0  0  0
   45.3705    7.9471   13.1387 H   0  0  0  0  0  0  0  0  0  0  0  0
   46.1742    7.1863   11.7719 H   0  0  0  0  0  0  0  0  0  0  0  0
   49.3744    8.5612   13.7601 H   0  0  0  0  0  0  0  0  0  0  0  0
   50.1804    7.8018   12.3935 H   0  0  0  0  0  0  0  0  0  0  0  0
   49.0503    6.1194   13.8723 H   0  0  0  0  0  0  0  0  0  0  0  0
   48.4417    6.0637   12.2220 H   0  0  0  0  0  0  0  0  0  0  0  0
   46.6019    8.7387   13.7003 H   0  0  0  0  0  0  0  0  0  0  0  0
   46.8109    9.2442   11.9986 H   0  0  0  0  0  0  0  0  0  0  0  0
   50.1457    7.6040   13.1841 H   0  0  0  0  0  0  0  0  0  0  0  0
   49.0896    8.3535   14.3755 H   0  0  0  0  0  0  0  0  0  0  0  0
   47.9077    6.5967   10.9061 H   0  0  0  0  0  0  0  0  0  0  0  0
   47.3581    5.3422   14.8423 H   0  0  0  0  0  0  0  0  0  0  0  0
   43.7104    7.5642   12.3066 H   0  0  0  0  0  0  0  0  0  0  0  0
   50.9117   10.6237   11.9867 H   0  0  0  0  0  0  0  0  0  0  0  0
   47.4994    9.1028   11.2983 H   0  0  0  0  0  0  0  0  0  0  0  0
   48.0512    6.6449   14.2293 H   0  0  0  0  0  0  0  0  0  0  0  0
   45.4927    8.6566   12.4335 H   0  0  0  0  0  0  0  0  0  0  0  0
   46.3598    8.6343   13.9643 H   0  0  0  0  0  0  0  0  0  0  0  0
   46.6679    6.6398   11.6405 H   0  0  0  0  0  0  0  0  0  0  0  0
   45.9572    6.3185   13.2177 H   0  0  0  0  0  0  0  0  0  0  0  0
   49.5924    9.4295   12.3113 H   0  0  0  0  0  0  0  0  0  0  0  0
   48.8833    9.1078   13.8883 H   0  0  0  0  0  0  0  0  0  0  0  0
   49.1913    7.1128   11.5658 H   0  0  0  0  0  0  0  0  0  0  0  0
   50.0577    7.0914   13.0953 H   0  0  0  0  0  0  0  0  0  0  0  0
  2  6  1  0
  3  1  1  0
  4  3  1  0
  5  1  1  0
  6  5  1  0
  2  4  1  0
  8  7  1  0
  9  7  1  0
 10  7  1  0
 11  9  1  0
 12  8  1  0
 13 10  2  0
 14 12  2  0
 15 11  2  0
 16  7  1  0
 17 10  1  0
 18 12  1  0
 19 11  1  0
 21 25  1  0
 22 20  1  0
 23 22  1  0
 24 20  1  0
 25 24  1  0
 21 23  1  0
 27 26  1  0
 28 26  1  0
 29 26  1  0
 30 28  1  0
 31 27  1  0
 32 29  2  0
 33 31  2  0
 34 30  2  0
 35 26  1  0
 36 29  1  0
 37 31  1  0
 38 30  1  0
 40 44  1  0
 41 39  1  0
 42 41  1  0
 43 39  1  0
 44 43  1  0
 40 42  1  0
  1 45  1  0
  2 46  1  0
  3 47  1  0
  3 48  1  0
  4 49  1  0
  4 50  1  0
  5 51  1  0
  5 52  1  0
  6 53  1  0
  6 54  1  0
  8 55  1  0
  8 56  1  0
  9 57  1  0
  9 58  1  0
 16 59  1  0
 17 60  1  0
 18 61  1  0
 19 62  1  0
 20 63  1  0
 21 64  1  0
 22 65  1  0
 22 66  1  0
 23 67  1  0
 23 68  1  0
 24 69  1  0
 24 70  1  0
 25 71  1  0
 25 72  1  0
 27 73  1  0
 27 74  1  0
 28 75  1  0
 28 76  1  0
 35 77  1  0
 36 78  1  0
 37 79  1  0
 38 80  1  0
 39 81  1  0
 40 82  1  0
 41 83  1  0
 41 84  1  0
 42 85  1  0
 42 86  1  0
 43 87  1  0
 43 88  1  0
 44 89  1  0
 44 90  1  0
M  END
> <Uni-Dock RESULT> 
ENERGY=   -6.826  LOWER_BOUND=    3.667  UPPER_BOUND=    5.320
INTER + INTRA:          -6.826
INTER:                  -6.826
INTRA:                   0.000
UNBOUND:                 0.000

$$$$
