
     RDKit          3D

 59 60  0  0  0  0  0  0  0  0999 V2000
   48.7720    6.4209   20.4797 N   0  0  0  0  0  0  0  0  0  0  0  0
   48.4997    7.3844   21.4122 C   0  0  0  0  0  0  0  0  0  0  0  0
   47.8365    6.2612   19.3475 C   0  0  0  0  0  0  0  0  0  0  0  0
   48.1161    5.0498   18.4805 C   0  0  0  0  0  0  0  0  0  0  0  0
   49.3128    8.2076   21.9684 N   0  0  0  0  0  0  0  0  0  0  0  0
   50.1569    6.0763   20.1418 C   0  0  0  0  0  0  0  0  0  0  0  0
   49.2734    4.2725   18.6413 C   0  0  0  0  0  0  0  0  0  0  0  0
   50.2520    4.6085   19.7321 C   0  0  0  0  0  0  0  0  0  0  0  0
   47.2136    7.4424   21.8142 N   0  0  0  0  0  0  0  0  0  0  0  0
   47.2027    4.7096   17.4690 C   0  0  0  0  0  0  0  0  0  0  0  0
   49.4854    3.1546   17.8225 C   0  0  0  0  0  0  0  0  0  0  0  0
   47.4273    3.6044   16.6486 C   0  0  0  0  0  0  0  0  0  0  0  0
   48.5661    2.8244   16.8275 C   0  0  0  0  0  0  0  0  0  0  0  0
   48.5707    5.1295   19.0661 S   0  0  0  0  0  0  0  0  0  0  0  0
   49.3421    4.7712   17.9053 O   0  0  0  0  0  0  0  0  0  0  0  0
   47.1410    4.9512   19.1424 O   0  0  0  0  0  0  0  0  0  0  0  0
   49.2072    4.4348   20.3653 O   0  0  0  0  0  0  0  0  0  0  0  0
   48.8712    6.6801   19.3527 O   0  0  0  0  0  0  0  0  0  0  0  0
   48.3358    4.4438   18.1775 N   0  0  0  0  0  0  0  0  0  0  0  0
   47.4916    3.8275   17.3075 C   0  0  0  0  0  0  0  0  0  0  0  0
   48.2903    4.1926   19.6243 C   0  0  0  0  0  0  0  0  0  0  0  0
   48.6507    5.4040   20.4662 C   0  0  0  0  0  0  0  0  0  0  0  0
   47.0955    4.2681   16.1678 N   0  0  0  0  0  0  0  0  0  0  0  0
   49.3547    5.4005   17.7522 C   0  0  0  0  0  0  0  0  0  0  0  0
   49.0313    6.6293   19.8877 C   0  0  0  0  0  0  0  0  0  0  0  0
   49.0807    6.7588   18.3873 C   0  0  0  0  0  0  0  0  0  0  0  0
   47.0362    2.6158   17.6814 N   0  0  0  0  0  0  0  0  0  0  0  0
   48.5965    5.3013   21.8645 C   0  0  0  0  0  0  0  0  0  0  0  0
   49.3190    7.7318   20.7032 C   0  0  0  0  0  0  0  0  0  0  0  0
   48.9008    6.4003   22.6699 C   0  0  0  0  0  0  0  0  0  0  0  0
   49.2572    7.6139   22.0901 C   0  0  0  0  0  0  0  0  0  0  0  0
   47.8857    7.1594   18.7159 H   0  0  0  0  0  0  0  0  0  0  0  0
   46.8092    6.1580   19.7209 H   0  0  0  0  0  0  0  0  0  0  0  0
   50.2476    8.0941   21.5847 H   0  0  0  0  0  0  0  0  0  0  0  0
   50.5155    6.7342   19.3390 H   0  0  0  0  0  0  0  0  0  0  0  0
   50.8223    6.2155   21.0022 H   0  0  0  0  0  0  0  0  0  0  0  0
   51.2757    4.3998   19.3969 H   0  0  0  0  0  0  0  0  0  0  0  0
   50.0397    3.9654   20.5948 H   0  0  0  0  0  0  0  0  0  0  0  0
   47.1552    8.0482   22.6249 H   0  0  0  0  0  0  0  0  0  0  0  0
   46.8484    6.5251   22.0345 H   0  0  0  0  0  0  0  0  0  0  0  0
   46.3052    5.3061   17.3161 H   0  0  0  0  0  0  0  0  0  0  0  0
   50.3701    2.5372   17.9558 H   0  0  0  0  0  0  0  0  0  0  0  0
   46.7084    3.3503   15.8740 H   0  0  0  0  0  0  0  0  0  0  0  0
   48.7363    1.9572   16.1941 H   0  0  0  0  0  0  0  0  0  0  0  0
   48.6981    4.7260   21.1427 H   0  0  0  0  0  0  0  0  0  0  0  0
   48.9711    7.1253   18.4857 H   0  0  0  0  0  0  0  0  0  0  0  0
   47.2757    3.8926   19.9164 H   0  0  0  0  0  0  0  0  0  0  0  0
   48.9779    3.3725   19.8639 H   0  0  0  0  0  0  0  0  0  0  0  0
   47.4542    5.2106   16.0323 H   0  0  0  0  0  0  0  0  0  0  0  0
   50.3407    5.0267   18.0550 H   0  0  0  0  0  0  0  0  0  0  0  0
   49.3912    5.5031   16.6636 H   0  0  0  0  0  0  0  0  0  0  0  0
   48.1201    7.1533   18.0371 H   0  0  0  0  0  0  0  0  0  0  0  0
   49.8696    7.4601   18.0958 H   0  0  0  0  0  0  0  0  0  0  0  0
   46.5371    2.2066   16.8968 H   0  0  0  0  0  0  0  0  0  0  0  0
   47.7882    2.0096   17.9771 H   0  0  0  0  0  0  0  0  0  0  0  0
   48.3057    4.3639   22.3334 H   0  0  0  0  0  0  0  0  0  0  0  0
   49.5893    8.6869   20.2644 H   0  0  0  0  0  0  0  0  0  0  0  0
   48.8484    6.3120   23.7519 H   0  0  0  0  0  0  0  0  0  0  0  0
   49.4815    8.4706   22.7195 H   0  0  0  0  0  0  0  0  0  0  0  0
  2  1  1  0
  3  1  1  0
  4  3  1  0
  5  2  2  3
  6  1  1  0
  7  8  1  0
  8  6  1  0
  9  2  1  0
 10  4  2  0
 11  7  2  0
 12 10  1  0
 13 11  1  0
  4  7  1  0
 12 13  2  0
 15 14  2  0
 16 14  2  0
 17 14  1  0
 18 14  1  0
 20 19  1  0
 21 19  1  0
 22 21  1  0
 23 20  2  3
 24 19  1  0
 25 26  1  0
 26 24  1  0
 27 20  1  0
 28 22  2  0
 29 25  2  0
 30 28  1  0
 31 29  1  0
 22 25  1  0
 30 31  2  0
  3 32  1  0
  3 33  1  0
  5 34  1  0
  6 35  1  0
  6 36  1  0
  8 37  1  0
  8 38  1  0
  9 39  1  0
  9 40  1  0
 10 41  1  0
 11 42  1  0
 12 43  1  0
 13 44  1  0
 17 45  1  0
 18 46  1  0
 21 47  1  0
 21 48  1  0
 23 49  1  0
 24 50  1  0
 24 51  1  0
 26 52  1  0
 26 53  1  0
 27 54  1  0
 27 55  1  0
 28 56  1  0
 29 57  1  0
 30 58  1  0
 31 59  1  0
M  END
> <Uni-Dock RESULT> 
ENERGY=   -4.379  LOWER_BOUND=    0.000  UPPER_BOUND=    0.000
INTER + INTRA:          -4.379
INTER:                  -4.379
INTRA:                   0.000
UNBOUND:                 0.000

$$$$

     RDKit          3D

 59 60  0  0  0  0  0  0  0  0999 V2000
   46.8766    7.8025   12.9463 N   0  0  0  0  0  0  0  0  0  0  0  0
   47.5963    8.6054   13.7886 C   0  0  0  0  0  0  0  0  0  0  0  0
   45.4902    7.4595   13.3240 C   0  0  0  0  0  0  0  0  0  0  0  0
   44.8464    6.4165   12.4324 C   0  0  0  0  0  0  0  0  0  0  0  0
   48.3699    9.5851   13.4884 N   0  0  0  0  0  0  0  0  0  0  0  0
   47.0859    7.8609   11.4958 C   0  0  0  0  0  0  0  0  0  0  0  0
   45.4573    5.9707   11.2502 C   0  0  0  0  0  0  0  0  0  0  0  0
   46.8123    6.4971   10.8664 C   0  0  0  0  0  0  0  0  0  0  0  0
   47.4970    8.2943   15.0971 N   0  0  0  0  0  0  0  0  0  0  0  0
   43.5892    5.8994   12.7858 C   0  0  0  0  0  0  0  0  0  0  0  0
   44.8289    4.9969   10.4616 C   0  0  0  0  0  0  0  0  0  0  0  0
   42.9634    4.9412   11.9888 C   0  0  0  0  0  0  0  0  0  0  0  0
   43.5844    4.4867   10.8291 C   0  0  0  0  0  0  0  0  0  0  0  0
   45.5530    6.5833   12.2623 S   0  0  0  0  0  0  0  0  0  0  0  0
   44.7737    6.5088   11.0548 O   0  0  0  0  0  0  0  0  0  0  0  0
   45.1101    6.0242   13.5164 O   0  0  0  0  0  0  0  0  0  0  0  0
   47.0276    6.0153   11.9819 O   0  0  0  0  0  0  0  0  0  0  0  0
   45.8526    8.1397   12.5165 O   0  0  0  0  0  0  0  0  0  0  0  0
   44.6751    5.9091   11.9628 N   0  0  0  0  0  0  0  0  0  0  0  0
   43.5882    5.1372   12.2320 C   0  0  0  0  0  0  0  0  0  0  0  0
   46.0156    5.5766   12.4637 C   0  0  0  0  0  0  0  0  0  0  0  0
   46.8700    6.7927   12.7756 C   0  0  0  0  0  0  0  0  0  0  0  0
   42.3623    5.5167   12.2879 N   0  0  0  0  0  0  0  0  0  0  0  0
   44.6049    7.1257   11.1571 C   0  0  0  0  0  0  0  0  0  0  0  0
   46.4109    8.1047   12.5553 C   0  0  0  0  0  0  0  0  0  0  0  0
   45.0280    8.3241   11.9987 C   0  0  0  0  0  0  0  0  0  0  0  0
   43.8292    3.8293   12.4480 N   0  0  0  0  0  0  0  0  0  0  0  0
   48.1550    6.6033   13.3065 C   0  0  0  0  0  0  0  0  0  0  0  0
   47.2196    9.1980   12.8932 C   0  0  0  0  0  0  0  0  0  0  0  0
   48.9605    7.6981   13.6249 C   0  0  0  0  0  0  0  0  0  0  0  0
   48.4919    8.9925   13.4225 C   0  0  0  0  0  0  0  0  0  0  0  0
   44.8769    8.3709   13.2916 H   0  0  0  0  0  0  0  0  0  0  0  0
   45.4669    7.0644   14.3481 H   0  0  0  0  0  0  0  0  0  0  0  0
   48.3604    9.7476   12.4847 H   0  0  0  0  0  0  0  0  0  0  0  0
   46.4382    8.6336   11.0605 H   0  0  0  0  0  0  0  0  0  0  0  0
   48.1219    8.1266   11.2541 H   0  0  0  0  0  0  0  0  0  0  0  0
   46.8853    6.5892    9.7756 H   0  0  0  0  0  0  0  0  0  0  0  0
   47.5684    5.7747   11.1972 H   0  0  0  0  0  0  0  0  0  0  0  0
   48.1993    8.8172   15.6081 H   0  0  0  0  0  0  0  0  0  0  0  0
   47.6136    7.3022   15.2560 H   0  0  0  0  0  0  0  0  0  0  0  0
   43.0895    6.2406   13.6906 H   0  0  0  0  0  0  0  0  0  0  0  0
   45.3068    4.6332    9.5555 H   0  0  0  0  0  0  0  0  0  0  0  0
   41.9931    4.5461   12.2786 H   0  0  0  0  0  0  0  0  0  0  0  0
   43.1008    3.7328   10.2128 H   0  0  0  0  0  0  0  0  0  0  0  0
   47.5497    6.1165   12.7977 H   0  0  0  0  0  0  0  0  0  0  0  0
   45.0613    8.6419   12.2310 H   0  0  0  0  0  0  0  0  0  0  0  0
   45.9311    5.0000   13.3937 H   0  0  0  0  0  0  0  0  0  0  0  0
   46.5301    4.9593   11.7173 H   0  0  0  0  0  0  0  0  0  0  0  0
   42.3210    6.5268   12.1725 H   0  0  0  0  0  0  0  0  0  0  0  0
   45.2652    7.0143   10.2881 H   0  0  0  0  0  0  0  0  0  0  0  0
   43.6014    7.2935   10.7551 H   0  0  0  0  0  0  0  0  0  0  0  0
   44.3319    8.4649   12.8334 H   0  0  0  0  0  0  0  0  0  0  0  0
   45.0108    9.2261   11.3780 H   0  0  0  0  0  0  0  0  0  0  0  0
   42.9376    3.3445   12.4964 H   0  0  0  0  0  0  0  0  0  0  0  0
   44.4088    3.4319   11.7224 H   0  0  0  0  0  0  0  0  0  0  0  0
   48.5308    5.5982   13.4843 H   0  0  0  0  0  0  0  0  0  0  0  0
   46.8634   10.2129   12.7493 H   0  0  0  0  0  0  0  0  0  0  0  0
   49.9515    7.5403   14.0426 H   0  0  0  0  0  0  0  0  0  0  0  0
   49.1167    9.8425   13.6829 H   0  0  0  0  0  0  0  0  0  0  0  0
  2  1  1  0
  3  1  1  0
  4  3  1  0
  5  2  2  3
  6  1  1  0
  7  8  1  0
  8  6  1  0
  9  2  1  0
 10  4  2  0
 11  7  2  0
 12 10  1  0
 13 11  1  0
  4  7  1  0
 12 13  2  0
 15 14  2  0
 16 14  2  0
 17 14  1  0
 18 14  1  0
 20 19  1  0
 21 19  1  0
 22 21  1  0
 23 20  2  3
 24 19  1  0
 25 26  1  0
 26 24  1  0
 27 20  1  0
 28 22  2  0
 29 25  2  0
 30 28  1  0
 31 29  1  0
 22 25  1  0
 30 31  2  0
  3 32  1  0
  3 33  1  0
  5 34  1  0
  6 35  1  0
  6 36  1  0
  8 37  1  0
  8 38  1  0
  9 39  1  0
  9 40  1  0
 10 41  1  0
 11 42  1  0
 12 43  1  0
 13 44  1  0
 17 45  1  0
 18 46  1  0
 21 47  1  0
 21 48  1  0
 23 49  1  0
 24 50  1  0
 24 51  1  0
 26 52  1  0
 26 53  1  0
 27 54  1  0
 27 55  1  0
 28 56  1  0
 29 57  1  0
 30 58  1  0
 31 59  1  0
M  END
> <Uni-Dock RESULT> 
ENERGY=   -4.171  LOWER_BOUND=    6.494  UPPER_BOUND=    7.840
INTER + INTRA:          -4.171
INTER:                  -4.171
INTRA:                   0.000
UNBOUND:                 0.000

$$$$

     RDKit          3D

 59 60  0  0  0  0  0  0  0  0999 V2000
   54.0501    7.3880    7.8155 N   0  0  0  0  0  0  0  0  0  0  0  0
   53.7820    8.4234    6.9623 C   0  0  0  0  0  0  0  0  0  0  0  0
   54.2368    7.6949    9.2485 C   0  0  0  0  0  0  0  0  0  0  0  0
   54.7180    6.5191   10.0751 C   0  0  0  0  0  0  0  0  0  0  0  0
   52.9306    8.4650    6.0022 N   0  0  0  0  0  0  0  0  0  0  0  0
   53.4869    6.0553    7.5755 C   0  0  0  0  0  0  0  0  0  0  0  0
   54.7903    5.2206    9.5478 C   0  0  0  0  0  0  0  0  0  0  0  0
   54.4294    4.9788    8.1084 C   0  0  0  0  0  0  0  0  0  0  0  0
   54.5411    9.5234    7.1432 N   0  0  0  0  0  0  0  0  0  0  0  0
   55.0780    6.7302   11.4162 C   0  0  0  0  0  0  0  0  0  0  0  0
   55.2511    4.1651   10.3470 C   0  0  0  0  0  0  0  0  0  0  0  0
   55.5219    5.6726   12.2096 C   0  0  0  0  0  0  0  0  0  0  0  0
   55.6124    4.3910   11.6745 C   0  0  0  0  0  0  0  0  0  0  0  0
   54.6386    6.3805    9.3467 S   0  0  0  0  0  0  0  0  0  0  0  0
   54.0976    5.2839   10.1056 O   0  0  0  0  0  0  0  0  0  0  0  0
   55.5354    7.3584    9.9134 O   0  0  0  0  0  0  0  0  0  0  0  0
   55.3303    5.8166    8.0127 O   0  0  0  0  0  0  0  0  0  0  0  0
   53.3846    7.1804    8.7434 O   0  0  0  0  0  0  0  0  0  0  0  0
   54.9659    5.9052   10.3377 N   0  0  0  0  0  0  0  0  0  0  0  0
   55.5572    5.9322   11.5621 C   0  0  0  0  0  0  0  0  0  0  0  0
   55.7151    6.1606    9.1000 C   0  0  0  0  0  0  0  0  0  0  0  0
   54.8978    6.8520    8.0229 C   0  0  0  0  0  0  0  0  0  0  0  0
   54.9989    6.2023   12.6869 N   0  0  0  0  0  0  0  0  0  0  0  0
   53.5456    5.6203   10.1480 C   0  0  0  0  0  0  0  0  0  0  0  0
   53.5385    7.1685    8.2043 C   0  0  0  0  0  0  0  0  0  0  0  0
   52.8623    6.8218    9.5054 C   0  0  0  0  0  0  0  0  0  0  0  0
   56.8691    5.6268   11.5934 N   0  0  0  0  0  0  0  0  0  0  0  0
   55.5182    7.1923    6.8113 C   0  0  0  0  0  0  0  0  0  0  0  0
   52.8333    7.8407    7.1972 C   0  0  0  0  0  0  0  0  0  0  0  0
   54.8036    7.8473    5.8066 C   0  0  0  0  0  0  0  0  0  0  0  0
   53.4653    8.1743    6.0012 C   0  0  0  0  0  0  0  0  0  0  0  0
   53.2816    8.0446    9.6647 H   0  0  0  0  0  0  0  0  0  0  0  0
   54.9786    8.4955    9.3675 H   0  0  0  0  0  0  0  0  0  0  0  0
   52.4007    7.5980    5.9625 H   0  0  0  0  0  0  0  0  0  0  0  0
   52.4978    5.9824    8.0468 H   0  0  0  0  0  0  0  0  0  0  0  0
   53.3544    5.8669    6.5034 H   0  0  0  0  0  0  0  0  0  0  0  0
   53.9460    3.9997    8.0009 H   0  0  0  0  0  0  0  0  0  0  0  0
   55.3543    4.9671    7.5191 H   0  0  0  0  0  0  0  0  0  0  0  0
   54.3972   10.1485    6.3582 H   0  0  0  0  0  0  0  0  0  0  0  0
   55.5216    9.2912    7.2318 H   0  0  0  0  0  0  0  0  0  0  0  0
   55.0164    7.7260   11.8512 H   0  0  0  0  0  0  0  0  0  0  0  0
   55.3283    3.1609    9.9378 H   0  0  0  0  0  0  0  0  0  0  0  0
   55.8024    5.8528   13.2442 H   0  0  0  0  0  0  0  0  0  0  0  0
   55.9676    3.5683   12.2904 H   0  0  0  0  0  0  0  0  0  0  0  0
   55.6490    6.5767    7.4941 H   0  0  0  0  0  0  0  0  0  0  0  0
   52.6694    7.1537    9.4124 H   0  0  0  0  0  0  0  0  0  0  0  0
   56.5737    6.8100    9.3140 H   0  0  0  0  0  0  0  0  0  0  0  0
   56.0895    5.2069    8.7087 H   0  0  0  0  0  0  0  0  0  0  0  0
   54.0330    6.4768   12.5218 H   0  0  0  0  0  0  0  0  0  0  0  0
   53.4438    4.7338    9.5099 H   0  0  0  0  0  0  0  0  0  0  0  0
   53.0479    5.3736   11.0905 H   0  0  0  0  0  0  0  0  0  0  0  0
   52.9177    7.6898   10.1721 H   0  0  0  0  0  0  0  0  0  0  0  0
   51.8071    6.5868    9.3303 H   0  0  0  0  0  0  0  0  0  0  0  0
   57.1544    5.5452   12.5651 H   0  0  0  0  0  0  0  0  0  0  0  0
   57.0649    4.7708   11.0943 H   0  0  0  0  0  0  0  0  0  0  0  0
   56.5676    6.9567    6.6489 H   0  0  0  0  0  0  0  0  0  0  0  0
   51.7917    8.1102    7.3390 H   0  0  0  0  0  0  0  0  0  0  0  0
   55.2959    8.1130    4.8747 H   0  0  0  0  0  0  0  0  0  0  0  0
   52.9153    8.6950    5.2220 H   0  0  0  0  0  0  0  0  0  0  0  0
  2  1  1  0
  3  1  1  0
  4  3  1  0
  5  2  2  3
  6  1  1  0
  7  8  1  0
  8  6  1  0
  9  2  1  0
 10  4  2  0
 11  7  2  0
 12 10  1  0
 13 11  1  0
  4  7  1  0
 12 13  2  0
 15 14  2  0
 16 14  2  0
 17 14  1  0
 18 14  1  0
 20 19  1  0
 21 19  1  0
 22 21  1  0
 23 20  2  3
 24 19  1  0
 25 26  1  0
 26 24  1  0
 27 20  1  0
 28 22  2  0
 29 25  2  0
 30 28  1  0
 31 29  1  0
 22 25  1  0
 30 31  2  0
  3 32  1  0
  3 33  1  0
  5 34  1  0
  6 35  1  0
  6 36  1  0
  8 37  1  0
  8 38  1  0
  9 39  1  0
  9 40  1  0
 10 41  1  0
 11 42  1  0
 12 43  1  0
 13 44  1  0
 17 45  1  0
 18 46  1  0
 21 47  1  0
 21 48  1  0
 23 49  1  0
 24 50  1  0
 24 51  1  0
 26 52  1  0
 26 53  1  0
 27 54  1  0
 27 55  1  0
 28 56  1  0
 29 57  1  0
 30 58  1  0
 31 59  1  0
M  END
> <Uni-Dock RESULT> 
ENERGY=   -4.161  LOWER_BOUND=   10.634  UPPER_BOUND=   12.602
INTER + INTRA:          -4.161
INTER:                  -4.161
INTRA:                   0.000
UNBOUND:                 0.000

$$$$

     RDKit          3D

 59 60  0  0  0  0  0  0  0  0999 V2000
   49.5396    5.9011   20.5965 N   0  0  0  0  0  0  0  0  0  0  0  0
   50.0975    6.0574   21.8359 C   0  0  0  0  0  0  0  0  0  0  0  0
   48.7864    4.6602   20.3216 C   0  0  0  0  0  0  0  0  0  0  0  0
   48.3754    4.4945   18.8721 C   0  0  0  0  0  0  0  0  0  0  0  0
   50.1184    7.1078   22.5738 N   0  0  0  0  0  0  0  0  0  0  0  0
   49.0427    7.0601   19.8476 C   0  0  0  0  0  0  0  0  0  0  0  0
   48.5374    5.5237   17.9319 C   0  0  0  0  0  0  0  0  0  0  0  0
   49.1798    6.8183   18.3463 C   0  0  0  0  0  0  0  0  0  0  0  0
   50.7333    4.9696   22.3170 N   0  0  0  0  0  0  0  0  0  0  0  0
   47.7914    3.2844   18.4629 C   0  0  0  0  0  0  0  0  0  0  0  0
   48.1517    5.3218   16.5994 C   0  0  0  0  0  0  0  0  0  0  0  0
   47.3969    3.0958   17.1386 C   0  0  0  0  0  0  0  0  0  0  0  0
   47.5804    4.1123   16.2058 C   0  0  0  0  0  0  0  0  0  0  0  0
   48.7727    5.1083   19.0186 S   0  0  0  0  0  0  0  0  0  0  0  0
   47.6763    5.4429   18.1486 O   0  0  0  0  0  0  0  0  0  0  0  0
   49.2318    3.7548   19.2155 O   0  0  0  0  0  0  0  0  0  0  0  0
   50.0533    5.9934   18.6281 O   0  0  0  0  0  0  0  0  0  0  0  0
   48.4043    5.6992   20.4648 O   0  0  0  0  0  0  0  0  0  0  0  0
   48.2699    4.5257   18.1684 N   0  0  0  0  0  0  0  0  0  0  0  0
   47.8976    3.3830   17.5319 C   0  0  0  0  0  0  0  0  0  0  0  0
   49.6794    4.8738   18.3933 C   0  0  0  0  0  0  0  0  0  0  0  0
   49.9218    5.6366   19.6838 C   0  0  0  0  0  0  0  0  0  0  0  0
   46.7982    2.7356   17.6806 N   0  0  0  0  0  0  0  0  0  0  0  0
   47.3080    5.4999   18.6784 C   0  0  0  0  0  0  0  0  0  0  0  0
   48.8699    6.0012   20.5450 C   0  0  0  0  0  0  0  0  0  0  0  0
   47.4550    5.6234   20.1905 C   0  0  0  0  0  0  0  0  0  0  0  0
   48.7766    2.8894   16.6380 N   0  0  0  0  0  0  0  0  0  0  0  0
   51.2358    5.9835   20.0326 C   0  0  0  0  0  0  0  0  0  0  0  0
   49.1443    6.6719   21.7442 C   0  0  0  0  0  0  0  0  0  0  0  0
   51.4986    6.6664   21.2215 C   0  0  0  0  0  0  0  0  0  0  0  0
   50.4552    7.0060   22.0772 C   0  0  0  0  0  0  0  0  0  0  0  0
   47.8800    4.6492   20.9432 H   0  0  0  0  0  0  0  0  0  0  0  0
   49.3954    3.7853   20.5842 H   0  0  0  0  0  0  0  0  0  0  0  0
   49.5993    7.8612   22.1302 H   0  0  0  0  0  0  0  0  0  0  0  0
   47.9976    7.2561   20.1220 H   0  0  0  0  0  0  0  0  0  0  0  0
   49.6190    7.9626   20.0837 H   0  0  0  0  0  0  0  0  0  0  0  0
   48.7187    7.6564   17.8089 H   0  0  0  0  0  0  0  0  0  0  0  0
   50.2404    6.7802   18.0695 H   0  0  0  0  0  0  0  0  0  0  0  0
   51.2614    5.2406   23.1388 H   0  0  0  0  0  0  0  0  0  0  0  0
   51.3466    4.5581   21.6258 H   0  0  0  0  0  0  0  0  0  0  0  0
   47.6425    2.4771   19.1775 H   0  0  0  0  0  0  0  0  0  0  0  0
   48.2934    6.1083   15.8625 H   0  0  0  0  0  0  0  0  0  0  0  0
   46.9517    2.1515   16.8357 H   0  0  0  0  0  0  0  0  0  0  0  0
   47.2816    3.9617   15.1713 H   0  0  0  0  0  0  0  0  0  0  0  0
   50.7674    5.7838   19.2561 H   0  0  0  0  0  0  0  0  0  0  0  0
   47.4368    5.6016   20.5845 H   0  0  0  0  0  0  0  0  0  0  0  0
   50.2830    3.9586   18.4464 H   0  0  0  0  0  0  0  0  0  0  0  0
   50.0351    5.4764   17.5488 H   0  0  0  0  0  0  0  0  0  0  0  0
   46.2540    3.1697   18.4228 H   0  0  0  0  0  0  0  0  0  0  0  0
   47.4919    6.4670   18.1943 H   0  0  0  0  0  0  0  0  0  0  0  0
   46.2781    5.2277   18.4291 H   0  0  0  0  0  0  0  0  0  0  0  0
   47.2149    4.6693   20.6732 H   0  0  0  0  0  0  0  0  0  0  0  0
   46.7586    6.3832   20.5607 H   0  0  0  0  0  0  0  0  0  0  0  0
   48.3283    2.1276   16.1371 H   0  0  0  0  0  0  0  0  0  0  0  0
   49.0913    3.6000   15.9927 H   0  0  0  0  0  0  0  0  0  0  0  0
   52.0642    5.7127   19.3818 H   0  0  0  0  0  0  0  0  0  0  0  0
   48.3414    6.9347   22.4254 H   0  0  0  0  0  0  0  0  0  0  0  0
   52.5210    6.9236   21.4858 H   0  0  0  0  0  0  0  0  0  0  0  0
   50.6645    7.5266   23.0077 H   0  0  0  0  0  0  0  0  0  0  0  0
  2  1  1  0
  3  1  1  0
  4  3  1  0
  5  2  2  3
  6  1  1  0
  7  8  1  0
  8  6  1  0
  9  2  1  0
 10  4  2  0
 11  7  2  0
 12 10  1  0
 13 11  1  0
  4  7  1  0
 12 13  2  0
 15 14  2  0
 16 14  2  0
 17 14  1  0
 18 14  1  0
 20 19  1  0
 21 19  1  0
 22 21  1  0
 23 20  2  3
 24 19  1  0
 25 26  1  0
 26 24  1  0
 27 20  1  0
 28 22  2  0
 29 25  2  0
 30 28  1  0
 31 29  1  0
 22 25  1  0
 30 31  2  0
  3 32  1  0
  3 33  1  0
  5 34  1  0
  6 35  1  0
  6 36  1  0
  8 37  1  0
  8 38  1  0
  9 39  1  0
  9 40  1  0
 10 41  1  0
 11 42  1  0
 12 43  1  0
 13 44  1  0
 17 45  1  0
 18 46  1  0
 21 47  1  0
 21 48  1  0
 23 49  1  0
 24 50  1  0
 24 51  1  0
 26 52  1  0
 26 53  1  0
 27 54  1  0
 27 55  1  0
 28 56  1  0
 29 57  1  0
 30 58  1  0
 31 59  1  0
M  END
> <Uni-Dock RESULT> 
ENERGY=   -4.010  LOWER_BOUND=    1.205  UPPER_BOUND=    2.041
INTER + INTRA:          -4.010
INTER:                  -4.010
INTRA:                   0.000
UNBOUND:                 0.000

$$$$

     RDKit          3D

 59 60  0  0  0  0  0  0  0  0999 V2000
   49.3010    4.9479   18.7068 N   0  0  0  0  0  0  0  0  0  0  0  0
   49.8864    4.4309   17.5833 C   0  0  0  0  0  0  0  0  0  0  0  0
   48.7397    6.3126   18.6363 C   0  0  0  0  0  0  0  0  0  0  0  0
   48.2907    6.8664   19.9739 C   0  0  0  0  0  0  0  0  0  0  0  0
   49.7774    3.2461   17.1011 N   0  0  0  0  0  0  0  0  0  0  0  0
   48.5929    4.0766   19.6504 C   0  0  0  0  0  0  0  0  0  0  0  0
   48.2437    6.0709   21.1291 C   0  0  0  0  0  0  0  0  0  0  0  0
   48.6940    4.6378   21.0667 C   0  0  0  0  0  0  0  0  0  0  0  0
   50.7074    5.2760   16.9271 N   0  0  0  0  0  0  0  0  0  0  0  0
   47.8851    8.2087   20.0548 C   0  0  0  0  0  0  0  0  0  0  0  0
   47.8310    6.6288   22.3471 C   0  0  0  0  0  0  0  0  0  0  0  0
   47.4619    8.7532   21.2670 C   0  0  0  0  0  0  0  0  0  0  0  0
   47.4385    7.9651   22.4140 C   0  0  0  0  0  0  0  0  0  0  0  0
   48.5933    6.1854   20.0006 S   0  0  0  0  0  0  0  0  0  0  0  0
   47.4174    6.2207   20.8295 O   0  0  0  0  0  0  0  0  0  0  0  0
   49.2682    7.3771   19.5469 O   0  0  0  0  0  0  0  0  0  0  0  0
   49.6987    5.2423   20.6821 O   0  0  0  0  0  0  0  0  0  0  0  0
   48.2065    5.3338   18.6961 O   0  0  0  0  0  0  0  0  0  0  0  0
   48.1480    7.0145   20.6558 N   0  0  0  0  0  0  0  0  0  0  0  0
   47.9296    8.3146   20.9899 C   0  0  0  0  0  0  0  0  0  0  0  0
   49.4944    6.4273   20.6310 C   0  0  0  0  0  0  0  0  0  0  0  0
   49.6757    5.3596   19.5664 C   0  0  0  0  0  0  0  0  0  0  0  0
   46.9540    9.0592   20.6111 N   0  0  0  0  0  0  0  0  0  0  0  0
   47.0706    6.0953   20.2970 C   0  0  0  0  0  0  0  0  0  0  0  0
   48.6222    4.9585   18.7237 C   0  0  0  0  0  0  0  0  0  0  0  0
   47.2688    5.6050   18.8673 C   0  0  0  0  0  0  0  0  0  0  0  0
   48.8312    8.8720   21.8216 N   0  0  0  0  0  0  0  0  0  0  0  0
   50.9342    4.7585   19.4130 C   0  0  0  0  0  0  0  0  0  0  0  0
   48.8451    3.9961   17.7300 C   0  0  0  0  0  0  0  0  0  0  0  0
   51.1432    3.7884   18.4311 C   0  0  0  0  0  0  0  0  0  0  0  0
   50.1018    3.4113   17.5889 C   0  0  0  0  0  0  0  0  0  0  0  0
   47.8773    6.3078   17.9550 H   0  0  0  0  0  0  0  0  0  0  0  0
   49.4905    7.0073   18.2374 H   0  0  0  0  0  0  0  0  0  0  0  0
   49.1257    2.6975   17.6564 H   0  0  0  0  0  0  0  0  0  0  0  0
   47.5444    3.9726   19.3410 H   0  0  0  0  0  0  0  0  0  0  0  0
   49.0309    3.0715   19.6689 H   0  0  0  0  0  0  0  0  0  0  0  0
   48.0817    4.0213   21.7367 H   0  0  0  0  0  0  0  0  0  0  0  0
   49.7328    4.5881   21.4149 H   0  0  0  0  0  0  0  0  0  0  0  0
   51.2253    4.7497   16.2325 H   0  0  0  0  0  0  0  0  0  0  0  0
   51.3438    5.7453   17.5581 H   0  0  0  0  0  0  0  0  0  0  0  0
   47.8993    8.8411   19.1691 H   0  0  0  0  0  0  0  0  0  0  0  0
   47.8118    6.0227   23.2492 H   0  0  0  0  0  0  0  0  0  0  0  0
   47.1565    9.7953   21.3150 H   0  0  0  0  0  0  0  0  0  0  0  0
   47.1177    8.3922   23.3609 H   0  0  0  0  0  0  0  0  0  0  0  0
   50.4662    5.1971   20.0845 H   0  0  0  0  0  0  0  0  0  0  0  0
   47.2732    5.5373   18.4782 H   0  0  0  0  0  0  0  0  0  0  0  0
   50.2361    7.2100   20.4262 H   0  0  0  0  0  0  0  0  0  0  0  0
   49.7101    5.9927   21.6146 H   0  0  0  0  0  0  0  0  0  0  0  0
   46.3846    8.5466   19.9413 H   0  0  0  0  0  0  0  0  0  0  0  0
   47.0769    5.2507   20.9970 H   0  0  0  0  0  0  0  0  0  0  0  0
   46.0854    6.5612   20.3937 H   0  0  0  0  0  0  0  0  0  0  0  0
   47.2050    6.4455   18.1669 H   0  0  0  0  0  0  0  0  0  0  0  0
   46.4804    4.8869   18.6187 H   0  0  0  0  0  0  0  0  0  0  0  0
   48.4846    9.7849   22.1022 H   0  0  0  0  0  0  0  0  0  0  0  0
   48.9991    8.2930   22.6321 H   0  0  0  0  0  0  0  0  0  0  0  0
   51.7626    5.0523   20.0538 H   0  0  0  0  0  0  0  0  0  0  0  0
   48.0446    3.6993   17.0601 H   0  0  0  0  0  0  0  0  0  0  0  0
   52.1240    3.3345   18.3159 H   0  0  0  0  0  0  0  0  0  0  0  0
   50.2711    2.6649   16.8176 H   0  0  0  0  0  0  0  0  0  0  0  0
  2  1  1  0
  3  1  1  0
  4  3  1  0
  5  2  2  3
  6  1  1  0
  7  8  1  0
  8  6  1  0
  9  2  1  0
 10  4  2  0
 11  7  2  0
 12 10  1  0
 13 11  1  0
  4  7  1  0
 12 13  2  0
 15 14  2  0
 16 14  2  0
 17 14  1  0
 18 14  1  0
 20 19  1  0
 21 19  1  0
 22 21  1  0
 23 20  2  3
 24 19  1  0
 25 26  1  0
 26 24  1  0
 27 20  1  0
 28 22  2  0
 29 25  2  0
 30 28  1  0
 31 29  1  0
 22 25  1  0
 30 31  2  0
  3 32  1  0
  3 33  1  0
  5 34  1  0
  6 35  1  0
  6 36  1  0
  8 37  1  0
  8 38  1  0
  9 39  1  0
  9 40  1  0
 10 41  1  0
 11 42  1  0
 12 43  1  0
 13 44  1  0
 17 45  1  0
 18 46  1  0
 21 47  1  0
 21 48  1  0
 23 49  1  0
 24 50  1  0
 24 51  1  0
 26 52  1  0
 26 53  1  0
 27 54  1  0
 27 55  1  0
 28 56  1  0
 29 57  1  0
 30 58  1  0
 31 59  1  0
M  END
> <Uni-Dock RESULT> 
ENERGY=   -3.994  LOWER_BOUND=    1.349  UPPER_BOUND=    4.484
INTER + INTRA:          -3.994
INTER:                  -3.994
INTRA:                   0.000
UNBOUND:                 0.000

$$$$

     RDKit          3D

 59 60  0  0  0  0  0  0  0  0999 V2000
   44.6778    5.5572   11.8067 N   0  0  0  0  0  0  0  0  0  0  0  0
   43.6332    5.1026   11.0491 C   0  0  0  0  0  0  0  0  0  0  0  0
   45.5349    6.6221   11.2464 C   0  0  0  0  0  0  0  0  0  0  0  0
   46.7708    6.9196   12.0720 C   0  0  0  0  0  0  0  0  0  0  0  0
   42.4345    4.8349   11.4231 N   0  0  0  0  0  0  0  0  0  0  0  0
   44.5785    5.6009   13.2693 C   0  0  0  0  0  0  0  0  0  0  0  0
   46.9667    6.3600   13.3439 C   0  0  0  0  0  0  0  0  0  0  0  0
   45.9542    5.3974   13.8994 C   0  0  0  0  0  0  0  0  0  0  0  0
   43.9240    4.8793    9.7512 N   0  0  0  0  0  0  0  0  0  0  0  0
   47.7366    7.8017   11.5602 C   0  0  0  0  0  0  0  0  0  0  0  0
   48.1304    6.6562   14.0674 C   0  0  0  0  0  0  0  0  0  0  0  0
   48.8851    8.1030   12.2918 C   0  0  0  0  0  0  0  0  0  0  0  0
   49.0844    7.5275   13.5433 C   0  0  0  0  0  0  0  0  0  0  0  0
   46.3407    6.3704   12.3356 S   0  0  0  0  0  0  0  0  0  0  0  0
   46.7508    7.2217   13.4210 O   0  0  0  0  0  0  0  0  0  0  0  0
   46.9973    6.3677   11.0509 O   0  0  0  0  0  0  0  0  0  0  0  0
   46.2813    4.8492   12.8433 O   0  0  0  0  0  0  0  0  0  0  0  0
   44.7878    6.6813   12.0738 O   0  0  0  0  0  0  0  0  0  0  0  0
   47.3164    6.9410   12.5293 N   0  0  0  0  0  0  0  0  0  0  0  0
   48.4501    7.5797   12.1340 C   0  0  0  0  0  0  0  0  0  0  0  0
   47.0741    5.5217   12.2371 C   0  0  0  0  0  0  0  0  0  0  0  0
   45.6107    5.1862   12.0091 C   0  0  0  0  0  0  0  0  0  0  0  0
   48.5892    8.8331   11.8903 N   0  0  0  0  0  0  0  0  0  0  0  0
   46.2498    7.6052   13.2746 C   0  0  0  0  0  0  0  0  0  0  0  0
   44.5964    6.1560   12.1165 C   0  0  0  0  0  0  0  0  0  0  0  0
   44.9607    7.5767   12.4616 C   0  0  0  0  0  0  0  0  0  0  0  0
   49.5477    6.8098   11.9995 N   0  0  0  0  0  0  0  0  0  0  0  0
   45.2586    3.8699   11.6744 C   0  0  0  0  0  0  0  0  0  0  0  0
   43.2631    5.8092   11.8606 C   0  0  0  0  0  0  0  0  0  0  0  0
   43.9257    3.5294   11.4372 C   0  0  0  0  0  0  0  0  0  0  0  0
   42.9309    4.4982   11.5261 C   0  0  0  0  0  0  0  0  0  0  0  0
   44.9444    7.5451   11.1596 H   0  0  0  0  0  0  0  0  0  0  0  0
   45.8799    6.3378   10.2437 H   0  0  0  0  0  0  0  0  0  0  0  0
   42.3153    5.0534   12.4091 H   0  0  0  0  0  0  0  0  0  0  0  0
   44.1394    6.5580   13.5808 H   0  0  0  0  0  0  0  0  0  0  0  0
   43.9284    4.8029   13.6476 H   0  0  0  0  0  0  0  0  0  0  0  0
   45.8690    5.5259   14.9857 H   0  0  0  0  0  0  0  0  0  0  0  0
   46.3067    4.3771   13.7051 H   0  0  0  0  0  0  0  0  0  0  0  0
   43.1516    4.3771    9.3284 H   0  0  0  0  0  0  0  0  0  0  0  0
   44.7831    4.3561    9.6447 H   0  0  0  0  0  0  0  0  0  0  0  0
   47.5994    8.2591   10.5821 H   0  0  0  0  0  0  0  0  0  0  0  0
   48.2969    6.2098   15.0444 H   0  0  0  0  0  0  0  0  0  0  0  0
   49.6264    8.7830   11.8799 H   0  0  0  0  0  0  0  0  0  0  0  0
   49.9843    7.7550   14.1095 H   0  0  0  0  0  0  0  0  0  0  0  0
   45.9594    4.2983   12.1077 H   0  0  0  0  0  0  0  0  0  0  0  0
   44.6501    7.6393   12.2258 H   0  0  0  0  0  0  0  0  0  0  0  0
   47.6124    5.2343   11.3248 H   0  0  0  0  0  0  0  0  0  0  0  0
   47.4545    4.9181   13.0700 H   0  0  0  0  0  0  0  0  0  0  0  0
   47.6825    9.2891   11.9640 H   0  0  0  0  0  0  0  0  0  0  0  0
   46.1114    7.0885   14.2324 H   0  0  0  0  0  0  0  0  0  0  0  0
   46.5062    8.6393   13.5229 H   0  0  0  0  0  0  0  0  0  0  0  0
   45.0873    8.1425   11.5316 H   0  0  0  0  0  0  0  0  0  0  0  0
   44.1566    8.0410   13.0422 H   0  0  0  0  0  0  0  0  0  0  0  0
   50.3461    7.4177   11.8406 H   0  0  0  0  0  0  0  0  0  0  0  0
   49.6999    6.2316   12.8137 H   0  0  0  0  0  0  0  0  0  0  0  0
   46.0259    3.1038   11.5867 H   0  0  0  0  0  0  0  0  0  0  0  0
   42.4782    6.5566   11.9172 H   0  0  0  0  0  0  0  0  0  0  0  0
   43.6648    2.5084   11.1712 H   0  0  0  0  0  0  0  0  0  0  0  0
   41.8959    4.2325   11.3288 H   0  0  0  0  0  0  0  0  0  0  0  0
  2  1  1  0
  3  1  1  0
  4  3  1  0
  5  2  2  3
  6  1  1  0
  7  8  1  0
  8  6  1  0
  9  2  1  0
 10  4  2  0
 11  7  2  0
 12 10  1  0
 13 11  1  0
  4  7  1  0
 12 13  2  0
 15 14  2  0
 16 14  2  0
 17 14  1  0
 18 14  1  0
 20 19  1  0
 21 19  1  0
 22 21  1  0
 23 20  2  3
 24 19  1  0
 25 26  1  0
 26 24  1  0
 27 20  1  0
 28 22  2  0
 29 25  2  0
 30 28  1  0
 31 29  1  0
 22 25  1  0
 30 31  2  0
  3 32  1  0
  3 33  1  0
  5 34  1  0
  6 35  1  0
  6 36  1  0
  8 37  1  0
  8 38  1  0
  9 39  1  0
  9 40  1  0
 10 41  1  0
 11 42  1  0
 12 43  1  0
 13 44  1  0
 17 45  1  0
 18 46  1  0
 21 47  1  0
 21 48  1  0
 23 49  1  0
 24 50  1  0
 24 51  1  0
 26 52  1  0
 26 53  1  0
 27 54  1  0
 27 55  1  0
 28 56  1  0
 29 57  1  0
 30 58  1  0
 31 59  1  0
M  END
> <Uni-Dock RESULT> 
ENERGY=   -3.975  LOWER_BOUND=    6.443  UPPER_BOUND=    8.658
INTER + INTRA:          -3.975
INTER:                  -3.975
INTRA:                   0.000
UNBOUND:                 0.000

$$$$

     RDKit          3D

 59 60  0  0  0  0  0  0  0  0999 V2000
   48.6770    4.9337   19.1658 N   0  0  0  0  0  0  0  0  0  0  0  0
   48.7560    4.0038   18.1653 C   0  0  0  0  0  0  0  0  0  0  0  0
   48.8455    4.4749   20.5599 C   0  0  0  0  0  0  0  0  0  0  0  0
   48.5501    5.5368   21.6004 C   0  0  0  0  0  0  0  0  0  0  0  0
   49.3537    4.1002   17.0330 N   0  0  0  0  0  0  0  0  0  0  0  0
   49.1367    6.3092   18.9474 C   0  0  0  0  0  0  0  0  0  0  0  0
   48.3249    6.8771   21.2505 C   0  0  0  0  0  0  0  0  0  0  0  0
   48.3255    7.2801   19.8021 C   0  0  0  0  0  0  0  0  0  0  0  0
   48.0869    2.8563   18.3983 N   0  0  0  0  0  0  0  0  0  0  0  0
   48.5263    5.1742   22.9571 C   0  0  0  0  0  0  0  0  0  0  0  0
   48.0455    7.8232   22.2465 C   0  0  0  0  0  0  0  0  0  0  0  0
   48.2619    6.1238   23.9438 C   0  0  0  0  0  0  0  0  0  0  0  0
   48.0175    7.4472   23.5888 C   0  0  0  0  0  0  0  0  0  0  0  0
   48.4498    5.7520   20.8935 S   0  0  0  0  0  0  0  0  0  0  0  0
   49.1323    6.7907   21.6190 O   0  0  0  0  0  0  0  0  0  0  0  0
   47.7366    4.6802   21.5448 O   0  0  0  0  0  0  0  0  0  0  0  0
   47.4467    6.4143   19.8301 O   0  0  0  0  0  0  0  0  0  0  0  0
   49.5404    5.0779   19.9278 O   0  0  0  0  0  0  0  0  0  0  0  0
   48.3587    6.1085   21.9796 N   0  0  0  0  0  0  0  0  0  0  0  0
   48.0784    5.9296   23.2983 C   0  0  0  0  0  0  0  0  0  0  0  0
   47.3409    5.9441   20.9329 C   0  0  0  0  0  0  0  0  0  0  0  0
   47.8919    5.4050   19.6245 C   0  0  0  0  0  0  0  0  0  0  0  0
   48.8955    5.5741   24.2234 N   0  0  0  0  0  0  0  0  0  0  0  0
   49.6856    6.4784   21.4931 C   0  0  0  0  0  0  0  0  0  0  0  0
   49.2618    5.1369   19.4448 C   0  0  0  0  0  0  0  0  0  0  0  0
   50.2218    5.3820   20.5799 C   0  0  0  0  0  0  0  0  0  0  0  0
   46.8057    6.1674   23.6711 N   0  0  0  0  0  0  0  0  0  0  0  0
   47.0073    5.1598   18.5634 C   0  0  0  0  0  0  0  0  0  0  0  0
   49.7202    4.6044   18.2325 C   0  0  0  0  0  0  0  0  0  0  0  0
   47.4750    4.6446   17.3531 C   0  0  0  0  0  0  0  0  0  0  0  0
   48.8279    4.3637   17.1899 C   0  0  0  0  0  0  0  0  0  0  0  0
   49.8801    4.1308   20.6986 H   0  0  0  0  0  0  0  0  0  0  0  0
   48.1717    3.6320   20.7618 H   0  0  0  0  0  0  0  0  0  0  0  0
   49.8393    4.9910   16.9649 H   0  0  0  0  0  0  0  0  0  0  0  0
   50.2080    6.3810   19.1776 H   0  0  0  0  0  0  0  0  0  0  0  0
   49.0046    6.6111   17.9016 H   0  0  0  0  0  0  0  0  0  0  0  0
   48.7473    8.2869   19.6917 H   0  0  0  0  0  0  0  0  0  0  0  0
   47.2864    7.3073   19.4521 H   0  0  0  0  0  0  0  0  0  0  0  0
   48.0525    2.3214   17.5378 H   0  0  0  0  0  0  0  0  0  0  0  0
   47.1511    3.0314   18.7403 H   0  0  0  0  0  0  0  0  0  0  0  0
   48.7123    4.1435   23.2536 H   0  0  0  0  0  0  0  0  0  0  0  0
   47.8504    8.8587   21.9796 H   0  0  0  0  0  0  0  0  0  0  0  0
   48.2411    5.8267   24.9892 H   0  0  0  0  0  0  0  0  0  0  0  0
   47.8019    8.1855   24.3573 H   0  0  0  0  0  0  0  0  0  0  0  0
   47.0301    5.6962   19.3210 H   0  0  0  0  0  0  0  0  0  0  0  0
   50.3942    5.0708   20.4083 H   0  0  0  0  0  0  0  0  0  0  0  0
   46.5732    5.2363   21.2707 H   0  0  0  0  0  0  0  0  0  0  0  0
   46.8627    6.9136   20.7478 H   0  0  0  0  0  0  0  0  0  0  0  0
   49.7996    5.3640   23.8063 H   0  0  0  0  0  0  0  0  0  0  0  0
   49.6122    7.4288   20.9501 H   0  0  0  0  0  0  0  0  0  0  0  0
   50.3889    6.6520   22.3130 H   0  0  0  0  0  0  0  0  0  0  0  0
   50.3469    4.4494   21.1417 H   0  0  0  0  0  0  0  0  0  0  0  0
   51.1989    5.6835   20.1880 H   0  0  0  0  0  0  0  0  0  0  0  0
   46.7594    6.1366   24.6856 H   0  0  0  0  0  0  0  0  0  0  0  0
   46.4772    7.0593   23.3290 H   0  0  0  0  0  0  0  0  0  0  0  0
   45.9445    5.3604   18.6796 H   0  0  0  0  0  0  0  0  0  0  0  0
   50.7712    4.3718   18.0945 H   0  0  0  0  0  0  0  0  0  0  0  0
   46.7800    4.4513   16.5401 H   0  0  0  0  0  0  0  0  0  0  0  0
   49.1868    3.9513   16.2509 H   0  0  0  0  0  0  0  0  0  0  0  0
  2  1  1  0
  3  1  1  0
  4  3  1  0
  5  2  2  3
  6  1  1  0
  7  8  1  0
  8  6  1  0
  9  2  1  0
 10  4  2  0
 11  7  2  0
 12 10  1  0
 13 11  1  0
  4  7  1  0
 12 13  2  0
 15 14  2  0
 16 14  2  0
 17 14  1  0
 18 14  1  0
 20 19  1  0
 21 19  1  0
 22 21  1  0
 23 20  2  3
 24 19  1  0
 25 26  1  0
 26 24  1  0
 27 20  1  0
 28 22  2  0
 29 25  2  0
 30 28  1  0
 31 29  1  0
 22 25  1  0
 30 31  2  0
  3 32  1  0
  3 33  1  0
  5 34  1  0
  6 35  1  0
  6 36  1  0
  8 37  1  0
  8 38  1  0
  9 39  1  0
  9 40  1  0
 10 41  1  0
 11 42  1  0
 12 43  1  0
 13 44  1  0
 17 45  1  0
 18 46  1  0
 21 47  1  0
 21 48  1  0
 23 49  1  0
 24 50  1  0
 24 51  1  0
 26 52  1  0
 26 53  1  0
 27 54  1  0
 27 55  1  0
 28 56  1  0
 29 57  1  0
 30 58  1  0
 31 59  1  0
M  END
> <Uni-Dock RESULT> 
ENERGY=   -3.949  LOWER_BOUND=    1.427  UPPER_BOUND=    4.727
INTER + INTRA:          -3.949
INTER:                  -3.949
INTRA:                   0.000
UNBOUND:                 0.000

$$$$

     RDKit          3D

 59 60  0  0  0  0  0  0  0  0999 V2000
   48.2937    7.0459   20.8117 N   0  0  0  0  0  0  0  0  0  0  0  0
   48.2283    8.0877   21.6962 C   0  0  0  0  0  0  0  0  0  0  0  0
   49.5903    6.3601   20.6357 C   0  0  0  0  0  0  0  0  0  0  0  0
   49.6092    5.3548   19.5015 C   0  0  0  0  0  0  0  0  0  0  0  0
   47.3089    8.3488   22.5535 N   0  0  0  0  0  0  0  0  0  0  0  0
   47.1385    6.1664   20.6042 C   0  0  0  0  0  0  0  0  0  0  0  0
   48.4411    4.9851   18.8172 C   0  0  0  0  0  0  0  0  0  0  0  0
   47.1312    5.6309   19.1744 C   0  0  0  0  0  0  0  0  0  0  0  0
   49.2513    8.9635   21.6233 N   0  0  0  0  0  0  0  0  0  0  0  0
   50.8276    4.7559   19.1413 C   0  0  0  0  0  0  0  0  0  0  0  0
   48.5082    4.0582   17.7676 C   0  0  0  0  0  0  0  0  0  0  0  0
   50.8844    3.8237   18.1055 C   0  0  0  0  0  0  0  0  0  0  0  0
   49.7261    3.4776   17.4159 C   0  0  0  0  0  0  0  0  0  0  0  0
   48.9652    5.7208   19.5872 S   0  0  0  0  0  0  0  0  0  0  0  0
   48.6974    4.3252   19.3594 O   0  0  0  0  0  0  0  0  0  0  0  0
   50.2355    6.3343   19.2849 O   0  0  0  0  0  0  0  0  0  0  0  0
   47.8286    6.6051   18.8787 O   0  0  0  0  0  0  0  0  0  0  0  0
   48.6632    5.9957   21.1395 O   0  0  0  0  0  0  0  0  0  0  0  0
   49.4937    4.9406   18.9337 N   0  0  0  0  0  0  0  0  0  0  0  0
   50.5773    4.4212   18.2969 C   0  0  0  0  0  0  0  0  0  0  0  0
   48.9488    6.2637   18.6008 C   0  0  0  0  0  0  0  0  0  0  0  0
   48.3531    6.9959   19.7904 C   0  0  0  0  0  0  0  0  0  0  0  0
   51.4161    3.5680   18.7641 N   0  0  0  0  0  0  0  0  0  0  0  0
   48.7816    4.2326   19.9949 C   0  0  0  0  0  0  0  0  0  0  0  0
   48.3019    6.4193   21.0733 C   0  0  0  0  0  0  0  0  0  0  0  0
   48.8576    5.0354   21.2884 C   0  0  0  0  0  0  0  0  0  0  0  0
   50.7788    4.8406   17.0324 N   0  0  0  0  0  0  0  0  0  0  0  0
   47.8437    8.2904   19.6072 C   0  0  0  0  0  0  0  0  0  0  0  0
   47.7772    7.1467   22.1499 C   0  0  0  0  0  0  0  0  0  0  0  0
   47.3077    9.0017   20.6821 C   0  0  0  0  0  0  0  0  0  0  0  0
   47.2785    8.4324   21.9514 C   0  0  0  0  0  0  0  0  0  0  0  0
   49.8454    5.8370   21.5680 H   0  0  0  0  0  0  0  0  0  0  0  0
   50.3784    7.0951   20.4259 H   0  0  0  0  0  0  0  0  0  0  0  0
   46.5976    7.6223   22.5405 H   0  0  0  0  0  0  0  0  0  0  0  0
   47.1644    5.3453   21.3330 H   0  0  0  0  0  0  0  0  0  0  0  0
   46.1959    6.7068   20.7519 H   0  0  0  0  0  0  0  0  0  0  0  0
   46.3138    4.9063   19.0716 H   0  0  0  0  0  0  0  0  0  0  0  0
   46.9484    6.4510   18.4695 H   0  0  0  0  0  0  0  0  0  0  0  0
   49.0180    9.7802   22.1767 H   0  0  0  0  0  0  0  0  0  0  0  0
   49.4475    9.2314   20.6678 H   0  0  0  0  0  0  0  0  0  0  0  0
   51.7442    5.0162   19.6673 H   0  0  0  0  0  0  0  0  0  0  0  0
   47.6098    3.7833   17.2208 H   0  0  0  0  0  0  0  0  0  0  0  0
   51.8357    3.3731   17.8345 H   0  0  0  0  0  0  0  0  0  0  0  0
   49.7720    2.7580   16.6021 H   0  0  0  0  0  0  0  0  0  0  0  0
   48.0040    7.5409   19.0828 H   0  0  0  0  0  0  0  0  0  0  0  0
   48.9397    5.1991   21.6384 H   0  0  0  0  0  0  0  0  0  0  0  0
   49.7464    6.9027   18.2007 H   0  0  0  0  0  0  0  0  0  0  0  0
   48.1777    6.1461   17.8299 H   0  0  0  0  0  0  0  0  0  0  0  0
   51.1937    3.3825   19.7396 H   0  0  0  0  0  0  0  0  0  0  0  0
   47.7371    4.0937   19.6898 H   0  0  0  0  0  0  0  0  0  0  0  0
   49.1847    3.2290   20.1597 H   0  0  0  0  0  0  0  0  0  0  0  0
   49.8989    5.1227   21.6189 H   0  0  0  0  0  0  0  0  0  0  0  0
   48.2891    4.5186   22.0687 H   0  0  0  0  0  0  0  0  0  0  0  0
   51.5239    4.2821   16.6261 H   0  0  0  0  0  0  0  0  0  0  0  0
   49.9385    4.7673   16.4767 H   0  0  0  0  0  0  0  0  0  0  0  0
   47.8722    8.7555   18.6242 H   0  0  0  0  0  0  0  0  0  0  0  0
   47.7567    6.7187   23.1469 H   0  0  0  0  0  0  0  0  0  0  0  0
   46.9226   10.0068   20.5307 H   0  0  0  0  0  0  0  0  0  0  0  0
   46.8718    8.9935   22.7883 H   0  0  0  0  0  0  0  0  0  0  0  0
  2  1  1  0
  3  1  1  0
  4  3  1  0
  5  2  2  3
  6  1  1  0
  7  8  1  0
  8  6  1  0
  9  2  1  0
 10  4  2  0
 11  7  2  0
 12 10  1  0
 13 11  1  0
  4  7  1  0
 12 13  2  0
 15 14  2  0
 16 14  2  0
 17 14  1  0
 18 14  1  0
 20 19  1  0
 21 19  1  0
 22 21  1  0
 23 20  2  3
 24 19  1  0
 25 26  1  0
 26 24  1  0
 27 20  1  0
 28 22  2  0
 29 25  2  0
 30 28  1  0
 31 29  1  0
 22 25  1  0
 30 31  2  0
  3 32  1  0
  3 33  1  0
  5 34  1  0
  6 35  1  0
  6 36  1  0
  8 37  1  0
  8 38  1  0
  9 39  1  0
  9 40  1  0
 10 41  1  0
 11 42  1  0
 12 43  1  0
 13 44  1  0
 17 45  1  0
 18 46  1  0
 21 47  1  0
 21 48  1  0
 23 49  1  0
 24 50  1  0
 24 51  1  0
 26 52  1  0
 26 53  1  0
 27 54  1  0
 27 55  1  0
 28 56  1  0
 29 57  1  0
 30 58  1  0
 31 59  1  0
M  END
> <Uni-Dock RESULT> 
ENERGY=   -3.889  LOWER_BOUND=    1.431  UPPER_BOUND=    2.712
INTER + INTRA:          -3.889
INTER:                  -3.889
INTRA:                   0.000
UNBOUND:                 0.000

$$$$

     RDKit          3D

 59 60  0  0  0  0  0  0  0  0999 V2000
   50.0709    8.9443   13.1910 N   0  0  0  0  0  0  0  0  0  0  0  0
   51.4179    9.1427   13.3261 C   0  0  0  0  0  0  0  0  0  0  0  0
   49.5163    7.6315   13.5801 C   0  0  0  0  0  0  0  0  0  0  0  0
   48.0574    7.4435   13.2144 C   0  0  0  0  0  0  0  0  0  0  0  0
   52.0298   10.1773   13.7774 N   0  0  0  0  0  0  0  0  0  0  0  0
   49.1284   10.0521   13.3799 C   0  0  0  0  0  0  0  0  0  0  0  0
   47.2725    8.4989   12.7250 C   0  0  0  0  0  0  0  0  0  0  0  0
   47.8931    9.8506   12.5056 C   0  0  0  0  0  0  0  0  0  0  0  0
   52.1908    8.1255   12.8940 N   0  0  0  0  0  0  0  0  0  0  0  0
   47.4662    6.1822   13.3946 C   0  0  0  0  0  0  0  0  0  0  0  0
   45.9296    8.2759   12.3904 C   0  0  0  0  0  0  0  0  0  0  0  0
   46.1256    5.9714   13.0731 C   0  0  0  0  0  0  0  0  0  0  0  0
   45.3581    7.0165   12.5673 C   0  0  0  0  0  0  0  0  0  0  0  0
   48.3530    8.0955   13.0055 S   0  0  0  0  0  0  0  0  0  0  0  0
   47.0476    8.3189   13.5689 O   0  0  0  0  0  0  0  0  0  0  0  0
   48.8028    6.7989   12.5606 O   0  0  0  0  0  0  0  0  0  0  0  0
   48.5964    9.1243   11.7980 O   0  0  0  0  0  0  0  0  0  0  0  0
   49.4137    8.6189   14.0906 O   0  0  0  0  0  0  0  0  0  0  0  0
   47.3902    7.4737   12.9670 N   0  0  0  0  0  0  0  0  0  0  0  0
   46.7003    6.3066   12.8602 C   0  0  0  0  0  0  0  0  0  0  0  0
   48.2557    7.9737   11.8903 C   0  0  0  0  0  0  0  0  0  0  0  0
   49.4696    8.7386   12.3879 C   0  0  0  0  0  0  0  0  0  0  0  0
   46.3237    5.5380   13.8180 N   0  0  0  0  0  0  0  0  0  0  0  0
   47.3297    8.3261   14.1520 C   0  0  0  0  0  0  0  0  0  0  0  0
   49.6972    8.9697   13.7574 C   0  0  0  0  0  0  0  0  0  0  0  0
   48.7170    8.4417   14.7727 C   0  0  0  0  0  0  0  0  0  0  0  0
   46.3656    5.9284   11.6111 N   0  0  0  0  0  0  0  0  0  0  0  0
   50.3972    9.2248   11.4541 C   0  0  0  0  0  0  0  0  0  0  0  0
   50.8505    9.6481   14.1731 C   0  0  0  0  0  0  0  0  0  0  0  0
   51.5354    9.9141   11.8762 C   0  0  0  0  0  0  0  0  0  0  0  0
   51.7634   10.1215   13.2330 C   0  0  0  0  0  0  0  0  0  0  0  0
   49.6205    7.5095   14.6674 H   0  0  0  0  0  0  0  0  0  0  0  0
   50.0767    6.8262   13.0874 H   0  0  0  0  0  0  0  0  0  0  0  0
   51.3598   10.8747   14.0913 H   0  0  0  0  0  0  0  0  0  0  0  0
   48.8535   10.1257   14.4406 H   0  0  0  0  0  0  0  0  0  0  0  0
   49.5772   11.0096   13.0898 H   0  0  0  0  0  0  0  0  0  0  0  0
   47.1658   10.6401   12.7325 H   0  0  0  0  0  0  0  0  0  0  0  0
   48.1669    9.9357   11.4470 H   0  0  0  0  0  0  0  0  0  0  0  0
   53.1538    8.4411   12.8640 H   0  0  0  0  0  0  0  0  0  0  0  0
   51.9010    7.7960   11.9826 H   0  0  0  0  0  0  0  0  0  0  0  0
   48.0514    5.3522   13.7863 H   0  0  0  0  0  0  0  0  0  0  0  0
   45.3223    9.0848   11.9920 H   0  0  0  0  0  0  0  0  0  0  0  0
   45.6838    4.9881   13.2126 H   0  0  0  0  0  0  0  0  0  0  0  0
   44.3156    6.8495   12.3077 H   0  0  0  0  0  0  0  0  0  0  0  0
   49.4998    8.9861   11.4619 H   0  0  0  0  0  0  0  0  0  0  0  0
   49.0533    8.4118   14.9778 H   0  0  0  0  0  0  0  0  0  0  0  0
   48.6322    7.1310   11.2963 H   0  0  0  0  0  0  0  0  0  0  0  0
   47.6657    8.6254   11.2346 H   0  0  0  0  0  0  0  0  0  0  0  0
   46.6906    5.8969   14.6967 H   0  0  0  0  0  0  0  0  0  0  0  0
   46.9564    9.3151   13.8589 H   0  0  0  0  0  0  0  0  0  0  0  0
   46.6238    7.9444   14.8955 H   0  0  0  0  0  0  0  0  0  0  0  0
   49.0613    7.4593   15.1152 H   0  0  0  0  0  0  0  0  0  0  0  0
   48.6718    9.1130   15.6368 H   0  0  0  0  0  0  0  0  0  0  0  0
   45.7417    5.1291   11.6762 H   0  0  0  0  0  0  0  0  0  0  0  0
   45.9253    6.6797   11.0992 H   0  0  0  0  0  0  0  0  0  0  0  0
   50.2412    9.0585   10.3905 H   0  0  0  0  0  0  0  0  0  0  0  0
   51.0457    9.8088   15.2285 H   0  0  0  0  0  0  0  0  0  0  0  0
   52.2514   10.2800   11.1448 H   0  0  0  0  0  0  0  0  0  0  0  0
   52.6565   10.6477   13.5588 H   0  0  0  0  0  0  0  0  0  0  0  0
  2  1  1  0
  3  1  1  0
  4  3  1  0
  5  2  2  3
  6  1  1  0
  7  8  1  0
  8  6  1  0
  9  2  1  0
 10  4  2  0
 11  7  2  0
 12 10  1  0
 13 11  1  0
  4  7  1  0
 12 13  2  0
 15 14  2  0
 16 14  2  0
 17 14  1  0
 18 14  1  0
 20 19  1  0
 21 19  1  0
 22 21  1  0
 23 20  2  3
 24 19  1  0
 25 26  1  0
 26 24  1  0
 27 20  1  0
 28 22  2  0
 29 25  2  0
 30 28  1  0
 31 29  1  0
 22 25  1  0
 30 31  2  0
  3 32  1  0
  3 33  1  0
  5 34  1  0
  6 35  1  0
  6 36  1  0
  8 37  1  0
  8 38  1  0
  9 39  1  0
  9 40  1  0
 10 41  1  0
 11 42  1  0
 12 43  1  0
 13 44  1  0
 17 45  1  0
 18 46  1  0
 21 47  1  0
 21 48  1  0
 23 49  1  0
 24 50  1  0
 24 51  1  0
 26 52  1  0
 26 53  1  0
 27 54  1  0
 27 55  1  0
 28 56  1  0
 29 57  1  0
 30 58  1  0
 31 59  1  0
M  END
> <Uni-Dock RESULT> 
ENERGY=   -3.623  LOWER_BOUND=    6.082  UPPER_BOUND=    7.553
INTER + INTRA:          -3.623
INTER:                  -3.623
INTRA:                   0.000
UNBOUND:                 0.000

$$$$
