
     RDKit          3D

 59 60  0  0  0  0  0  0  0  0999 V2000
   44.8802    4.7378   11.7515 N   0  0  0  0  0  0  0  0  0  0  0  0
   43.5900    4.5757   12.1744 C   0  0  0  0  0  0  0  0  0  0  0  0
   46.0193    4.6085   12.6743 C   0  0  0  0  0  0  0  0  0  0  0  0
   46.6512    5.9424   13.0317 C   0  0  0  0  0  0  0  0  0  0  0  0
   42.6028    5.2977   11.7735 N   0  0  0  0  0  0  0  0  0  0  0  0
   45.1532    5.6761   10.6534 C   0  0  0  0  0  0  0  0  0  0  0  0
   46.3566    7.1178   12.3139 C   0  0  0  0  0  0  0  0  0  0  0  0
   45.3381    7.0913   11.2000 C   0  0  0  0  0  0  0  0  0  0  0  0
   43.3964    3.5320   13.0116 N   0  0  0  0  0  0  0  0  0  0  0  0
   47.5889    5.9981   14.0754 C   0  0  0  0  0  0  0  0  0  0  0  0
   46.9710    8.3252   12.6697 C   0  0  0  0  0  0  0  0  0  0  0  0
   48.2052    7.2030   14.4146 C   0  0  0  0  0  0  0  0  0  0  0  0
   47.8943    8.3658   13.7139 C   0  0  0  0  0  0  0  0  0  0  0  0
   45.6665    5.6611   12.8618 S   0  0  0  0  0  0  0  0  0  0  0  0
   46.8094    4.8124   13.0841 O   0  0  0  0  0  0  0  0  0  0  0  0
   44.4793    5.6391   13.6776 O   0  0  0  0  0  0  0  0  0  0  0  0
   45.1781    5.4643   11.3461 O   0  0  0  0  0  0  0  0  0  0  0  0
   46.2206    7.1660   12.8154 O   0  0  0  0  0  0  0  0  0  0  0  0
   46.7113    6.9802   12.9391 N   0  0  0  0  0  0  0  0  0  0  0  0
   47.8437    7.6077   13.3763 C   0  0  0  0  0  0  0  0  0  0  0  0
   46.5000    5.5713   13.3298 C   0  0  0  0  0  0  0  0  0  0  0  0
   45.3500    4.9032   12.6030 C   0  0  0  0  0  0  0  0  0  0  0  0
   47.9533    8.7756   13.9021 N   0  0  0  0  0  0  0  0  0  0  0  0
   45.4600    7.7252   12.7631 C   0  0  0  0  0  0  0  0  0  0  0  0
   44.4440    5.6337   11.8158 C   0  0  0  0  0  0  0  0  0  0  0  0
   44.6390    7.1135   11.6285 C   0  0  0  0  0  0  0  0  0  0  0  0
   48.9832    6.9105   13.1853 N   0  0  0  0  0  0  0  0  0  0  0  0
   45.1655    3.5182   12.7451 C   0  0  0  0  0  0  0  0  0  0  0  0
   43.3971    4.9724   11.1584 C   0  0  0  0  0  0  0  0  0  0  0  0
   44.1138    2.8688   12.0977 C   0  0  0  0  0  0  0  0  0  0  0  0
   43.2320    3.5956   11.3026 C   0  0  0  0  0  0  0  0  0  0  0  0
   45.7292    4.1028   13.6039 H   0  0  0  0  0  0  0  0  0  0  0  0
   46.7834    3.9851   12.1928 H   0  0  0  0  0  0  0  0  0  0  0  0
   41.7459    4.9938   12.2352 H   0  0  0  0  0  0  0  0  0  0  0  0
   44.3543    5.6561    9.9032 H   0  0  0  0  0  0  0  0  0  0  0  0
   46.0640    5.3541   10.1316 H   0  0  0  0  0  0  0  0  0  0  0  0
   44.3896    7.4786   11.5906 H   0  0  0  0  0  0  0  0  0  0  0  0
   45.6593    7.7472   10.3827 H   0  0  0  0  0  0  0  0  0  0  0  0
   43.9906    2.7455   12.7747 H   0  0  0  0  0  0  0  0  0  0  0  0
   42.4330    3.2364   13.0983 H   0  0  0  0  0  0  0  0  0  0  0  0
   47.8409    5.1002   14.6357 H   0  0  0  0  0  0  0  0  0  0  0  0
   46.7291    9.2408   12.1348 H   0  0  0  0  0  0  0  0  0  0  0  0
   48.9244    7.2360   15.2293 H   0  0  0  0  0  0  0  0  0  0  0  0
   48.3678    9.3065   13.9835 H   0  0  0  0  0  0  0  0  0  0  0  0
   44.2491    5.7730   11.2994 H   0  0  0  0  0  0  0  0  0  0  0  0
   47.1512    7.1219   12.5111 H   0  0  0  0  0  0  0  0  0  0  0  0
   47.4017    4.9815   13.1284 H   0  0  0  0  0  0  0  0  0  0  0  0
   46.2969    5.5316   14.4075 H   0  0  0  0  0  0  0  0  0  0  0  0
   47.0321    9.1947   14.0149 H   0  0  0  0  0  0  0  0  0  0  0  0
   44.8928    7.7256   13.7024 H   0  0  0  0  0  0  0  0  0  0  0  0
   45.6584    8.7703   12.4972 H   0  0  0  0  0  0  0  0  0  0  0  0
   43.6680    7.6197   11.5789 H   0  0  0  0  0  0  0  0  0  0  0  0
   45.1527    7.2726   10.6723 H   0  0  0  0  0  0  0  0  0  0  0  0
   49.7766    7.5202   13.3586 H   0  0  0  0  0  0  0  0  0  0  0  0
   49.0298    6.5144   12.2556 H   0  0  0  0  0  0  0  0  0  0  0  0
   45.8480    2.9353   13.3606 H   0  0  0  0  0  0  0  0  0  0  0  0
   42.7063    5.5283   10.5280 H   0  0  0  0  0  0  0  0  0  0  0  0
   43.9853    1.7957   12.2105 H   0  0  0  0  0  0  0  0  0  0  0  0
   42.4170    3.0890   10.7924 H   0  0  0  0  0  0  0  0  0  0  0  0
  2  1  1  0
  3  1  1  0
  4  3  1  0
  5  2  2  3
  6  1  1  0
  7  8  1  0
  8  6  1  0
  9  2  1  0
 10  4  2  0
 11  7  2  0
 12 10  1  0
 13 11  1  0
  4  7  1  0
 12 13  2  0
 15 14  2  0
 16 14  2  0
 17 14  1  0
 18 14  1  0
 20 19  1  0
 21 19  1  0
 22 21  1  0
 23 20  2  3
 24 19  1  0
 25 26  1  0
 26 24  1  0
 27 20  1  0
 28 22  2  0
 29 25  2  0
 30 28  1  0
 31 29  1  0
 22 25  1  0
 30 31  2  0
  3 32  1  0
  3 33  1  0
  5 34  1  0
  6 35  1  0
  6 36  1  0
  8 37  1  0
  8 38  1  0
  9 39  1  0
  9 40  1  0
 10 41  1  0
 11 42  1  0
 12 43  1  0
 13 44  1  0
 17 45  1  0
 18 46  1  0
 21 47  1  0
 21 48  1  0
 23 49  1  0
 24 50  1  0
 24 51  1  0
 26 52  1  0
 26 53  1  0
 27 54  1  0
 27 55  1  0
 28 56  1  0
 29 57  1  0
 30 58  1  0
 31 59  1  0
M  END
> <Uni-Dock RESULT> 
ENERGY=   -6.195  LOWER_BOUND=    0.000  UPPER_BOUND=    0.000
INTER + INTRA:          -6.195
INTER:                  -6.195
INTRA:                   0.000
UNBOUND:                 0.000

$$$$

     RDKit          3D

 59 60  0  0  0  0  0  0  0  0999 V2000
   47.1037    7.4099   13.2931 N   0  0  0  0  0  0  0  0  0  0  0  0
   48.1772    7.5585   12.4594 C   0  0  0  0  0  0  0  0  0  0  0  0
   46.5474    6.0849   13.6102 C   0  0  0  0  0  0  0  0  0  0  0  0
   45.2253    5.8115   12.9149 C   0  0  0  0  0  0  0  0  0  0  0  0
   48.2913    8.5010   11.5903 N   0  0  0  0  0  0  0  0  0  0  0  0
   46.0844    8.4685   13.3313 C   0  0  0  0  0  0  0  0  0  0  0  0
   44.4912    6.8378   12.2892 C   0  0  0  0  0  0  0  0  0  0  0  0
   45.0440    8.2414   12.2350 C   0  0  0  0  0  0  0  0  0  0  0  0
   49.1755    6.6689   12.6590 N   0  0  0  0  0  0  0  0  0  0  0  0
   44.6970    4.5107   12.9353 C   0  0  0  0  0  0  0  0  0  0  0  0
   43.2700    6.5440   11.6693 C   0  0  0  0  0  0  0  0  0  0  0  0
   43.4737    4.2299   12.3258 C   0  0  0  0  0  0  0  0  0  0  0  0
   42.7624    5.2453   11.6912 C   0  0  0  0  0  0  0  0  0  0  0  0
   46.0797    6.3180   12.6130 S   0  0  0  0  0  0  0  0  0  0  0  0
   45.9193    5.4349   13.7401 O   0  0  0  0  0  0  0  0  0  0  0  0
   47.0438    6.1121   11.5625 O   0  0  0  0  0  0  0  0  0  0  0  0
   46.3231    7.8044   13.1662 O   0  0  0  0  0  0  0  0  0  0  0  0
   44.6288    6.4701   11.9454 O   0  0  0  0  0  0  0  0  0  0  0  0
   44.4385    6.1078   12.2963 N   0  0  0  0  0  0  0  0  0  0  0  0
   43.2792    5.3852   12.3273 C   0  0  0  0  0  0  0  0  0  0  0  0
   45.6373    5.5303   12.9380 C   0  0  0  0  0  0  0  0  0  0  0  0
   46.7928    6.5036   13.0586 C   0  0  0  0  0  0  0  0  0  0  0  0
   42.4620    5.1511   11.3631 N   0  0  0  0  0  0  0  0  0  0  0  0
   44.7541    6.9731   11.1546 C   0  0  0  0  0  0  0  0  0  0  0  0
   46.7851    7.7500   12.4100 C   0  0  0  0  0  0  0  0  0  0  0  0
   45.5791    8.1737   11.6169 C   0  0  0  0  0  0  0  0  0  0  0  0
   42.9509    4.8993   13.5426 N   0  0  0  0  0  0  0  0  0  0  0  0
   47.9179    6.1368   13.8151 C   0  0  0  0  0  0  0  0  0  0  0  0
   47.8750    8.6200   12.5534 C   0  0  0  0  0  0  0  0  0  0  0  0
   49.0042    7.0030   13.9431 C   0  0  0  0  0  0  0  0  0  0  0  0
   48.9811    8.2450   13.3146 C   0  0  0  0  0  0  0  0  0  0  0  0
   47.2479    5.2813   13.3502 H   0  0  0  0  0  0  0  0  0  0  0  0
   46.3825    6.0311   14.6938 H   0  0  0  0  0  0  0  0  0  0  0  0
   49.1704    8.3962   11.0843 H   0  0  0  0  0  0  0  0  0  0  0  0
   46.5366    9.4620   13.2310 H   0  0  0  0  0  0  0  0  0  0  0  0
   45.5995    8.4569   14.3162 H   0  0  0  0  0  0  0  0  0  0  0  0
   45.4890    8.3990   11.2454 H   0  0  0  0  0  0  0  0  0  0  0  0
   44.2336    8.9686   12.3601 H   0  0  0  0  0  0  0  0  0  0  0  0
   49.2809    6.4369   13.6403 H   0  0  0  0  0  0  0  0  0  0  0  0
   50.0647    6.9391   12.2599 H   0  0  0  0  0  0  0  0  0  0  0  0
   45.2409    3.7047   13.4233 H   0  0  0  0  0  0  0  0  0  0  0  0
   42.7105    7.3275   11.1635 H   0  0  0  0  0  0  0  0  0  0  0  0
   43.0775    3.2176   12.3414 H   0  0  0  0  0  0  0  0  0  0  0  0
   41.8134    5.0252   11.2088 H   0  0  0  0  0  0  0  0  0  0  0  0
   46.7425    8.3167   12.4435 H   0  0  0  0  0  0  0  0  0  0  0  0
   43.9679    6.3248   12.6544 H   0  0  0  0  0  0  0  0  0  0  0  0
   45.3966    5.1807   13.9486 H   0  0  0  0  0  0  0  0  0  0  0  0
   45.9721    4.6684   12.3469 H   0  0  0  0  0  0  0  0  0  0  0  0
   42.8228    5.5466   10.4968 H   0  0  0  0  0  0  0  0  0  0  0  0
   45.2919    6.3980   10.3903 H   0  0  0  0  0  0  0  0  0  0  0  0
   43.8398    7.3627   10.6917 H   0  0  0  0  0  0  0  0  0  0  0  0
   45.8880    8.7525   10.7388 H   0  0  0  0  0  0  0  0  0  0  0  0
   44.9635    8.8236   12.2512 H   0  0  0  0  0  0  0  0  0  0  0  0
   41.9984    4.5486   13.5120 H   0  0  0  0  0  0  0  0  0  0  0  0
   43.0542    5.5980   14.2669 H   0  0  0  0  0  0  0  0  0  0  0  0
   47.9501    5.1707   14.3151 H   0  0  0  0  0  0  0  0  0  0  0  0
   47.8652    9.5964   12.0736 H   0  0  0  0  0  0  0  0  0  0  0  0
   49.8663    6.7103   14.5364 H   0  0  0  0  0  0  0  0  0  0  0  0
   49.8241    8.9228   13.4200 H   0  0  0  0  0  0  0  0  0  0  0  0
  2  1  1  0
  3  1  1  0
  4  3  1  0
  5  2  2  3
  6  1  1  0
  7  8  1  0
  8  6  1  0
  9  2  1  0
 10  4  2  0
 11  7  2  0
 12 10  1  0
 13 11  1  0
  4  7  1  0
 12 13  2  0
 15 14  2  0
 16 14  2  0
 17 14  1  0
 18 14  1  0
 20 19  1  0
 21 19  1  0
 22 21  1  0
 23 20  2  3
 24 19  1  0
 25 26  1  0
 26 24  1  0
 27 20  1  0
 28 22  2  0
 29 25  2  0
 30 28  1  0
 31 29  1  0
 22 25  1  0
 30 31  2  0
  3 32  1  0
  3 33  1  0
  5 34  1  0
  6 35  1  0
  6 36  1  0
  8 37  1  0
  8 38  1  0
  9 39  1  0
  9 40  1  0
 10 41  1  0
 11 42  1  0
 12 43  1  0
 13 44  1  0
 17 45  1  0
 18 46  1  0
 21 47  1  0
 21 48  1  0
 23 49  1  0
 24 50  1  0
 24 51  1  0
 26 52  1  0
 26 53  1  0
 27 54  1  0
 27 55  1  0
 28 56  1  0
 29 57  1  0
 30 58  1  0
 31 59  1  0
M  END
> <Uni-Dock RESULT> 
ENERGY=   -6.052  LOWER_BOUND=    1.060  UPPER_BOUND=    4.362
INTER + INTRA:          -6.052
INTER:                  -6.052
INTRA:                   0.000
UNBOUND:                 0.000

$$$$

     RDKit          3D

 59 60  0  0  0  0  0  0  0  0999 V2000
   45.8745    7.7893   11.8725 N   0  0  0  0  0  0  0  0  0  0  0  0
   45.7979    8.6612   12.9230 C   0  0  0  0  0  0  0  0  0  0  0  0
   44.6703    7.1954   11.2701 C   0  0  0  0  0  0  0  0  0  0  0  0
   44.4820    5.7326   11.6323 C   0  0  0  0  0  0  0  0  0  0  0  0
   46.6161    8.6680   13.9166 N   0  0  0  0  0  0  0  0  0  0  0  0
   47.0458    6.9073   11.7677 C   0  0  0  0  0  0  0  0  0  0  0  0
   45.5125    4.9777   12.2255 C   0  0  0  0  0  0  0  0  0  0  0  0
   46.8242    5.6338   12.5831 C   0  0  0  0  0  0  0  0  0  0  0  0
   44.8225    9.5911   12.8160 N   0  0  0  0  0  0  0  0  0  0  0  0
   43.2650    5.1026   11.3265 C   0  0  0  0  0  0  0  0  0  0  0  0
   45.3004    3.6278   12.5329 C   0  0  0  0  0  0  0  0  0  0  0  0
   43.0671    3.7541   11.6251 C   0  0  0  0  0  0  0  0  0  0  0  0
   44.0832    3.0184   12.2301 C   0  0  0  0  0  0  0  0  0  0  0  0
   44.8446    6.5428   12.1707 S   0  0  0  0  0  0  0  0  0  0  0  0
   44.1195    6.5535   10.9258 O   0  0  0  0  0  0  0  0  0  0  0  0
   44.4073    7.2273   13.3606 O   0  0  0  0  0  0  0  0  0  0  0  0
   46.3434    7.0404   11.8870 O   0  0  0  0  0  0  0  0  0  0  0  0
   45.0946    5.0010   12.5372 O   0  0  0  0  0  0  0  0  0  0  0  0
   44.7997    4.8599   12.1086 N   0  0  0  0  0  0  0  0  0  0  0  0
   44.2302    3.6737   11.7401 C   0  0  0  0  0  0  0  0  0  0  0  0
   44.1575    6.1114   11.6573 C   0  0  0  0  0  0  0  0  0  0  0  0
   44.9917    7.3509   11.9122 C   0  0  0  0  0  0  0  0  0  0  0  0
   43.9896    2.6454   12.4728 N   0  0  0  0  0  0  0  0  0  0  0  0
   45.4868    4.9950   13.3975 C   0  0  0  0  0  0  0  0  0  0  0  0
   46.1491    7.3167   12.7081 C   0  0  0  0  0  0  0  0  0  0  0  0
   46.6234    6.0103   13.2837 C   0  0  0  0  0  0  0  0  0  0  0  0
   43.9271    3.5781   10.4286 N   0  0  0  0  0  0  0  0  0  0  0  0
   44.5792    8.5759   11.3629 C   0  0  0  0  0  0  0  0  0  0  0  0
   46.8919    8.4879   12.9133 C   0  0  0  0  0  0  0  0  0  0  0  0
   45.3169    9.7399   11.5818 C   0  0  0  0  0  0  0  0  0  0  0  0
   46.4741    9.6947   12.3544 C   0  0  0  0  0  0  0  0  0  0  0  0
   43.7640    7.7427   11.5582 H   0  0  0  0  0  0  0  0  0  0  0  0
   44.7588    7.2697   10.1788 H   0  0  0  0  0  0  0  0  0  0  0  0
   46.3499    9.3999   14.5749 H   0  0  0  0  0  0  0  0  0  0  0  0
   47.9599    7.4170   12.0935 H   0  0  0  0  0  0  0  0  0  0  0  0
   47.2035    6.6531   10.7113 H   0  0  0  0  0  0  0  0  0  0  0  0
   46.8147    5.8618   13.6556 H   0  0  0  0  0  0  0  0  0  0  0  0
   47.6532    4.9427   12.3925 H   0  0  0  0  0  0  0  0  0  0  0  0
   44.6912    9.8886   11.8557 H   0  0  0  0  0  0  0  0  0  0  0  0
   44.9368   10.3914   13.4237 H   0  0  0  0  0  0  0  0  0  0  0  0
   42.4592    5.6631   10.8572 H   0  0  0  0  0  0  0  0  0  0  0  0
   46.0839    3.0462   13.0131 H   0  0  0  0  0  0  0  0  0  0  0  0
   42.1182    3.2783   11.3904 H   0  0  0  0  0  0  0  0  0  0  0  0
   43.9264    1.9699   12.4707 H   0  0  0  0  0  0  0  0  0  0  0  0
   46.7170    7.3358   12.7436 H   0  0  0  0  0  0  0  0  0  0  0  0
   45.1107    4.5025   11.6935 H   0  0  0  0  0  0  0  0  0  0  0  0
   43.9553    6.0683   10.5808 H   0  0  0  0  0  0  0  0  0  0  0  0
   43.2007    6.2252   12.1824 H   0  0  0  0  0  0  0  0  0  0  0  0
   44.2389    2.8412   13.4406 H   0  0  0  0  0  0  0  0  0  0  0  0
   44.7689    5.2943   14.1715 H   0  0  0  0  0  0  0  0  0  0  0  0
   45.9294    4.0415   13.7093 H   0  0  0  0  0  0  0  0  0  0  0  0
   47.0584    6.1703   14.2770 H   0  0  0  0  0  0  0  0  0  0  0  0
   47.4100    5.6136   12.6298 H   0  0  0  0  0  0  0  0  0  0  0  0
   43.6927    2.6139   10.2131 H   0  0  0  0  0  0  0  0  0  0  0  0
   44.6851    3.9038    9.8432 H   0  0  0  0  0  0  0  0  0  0  0  0
   43.6786    8.6273   10.7541 H   0  0  0  0  0  0  0  0  0  0  0  0
   47.8022    8.4637   13.5086 H   0  0  0  0  0  0  0  0  0  0  0  0
   44.9908   10.6805   11.1462 H   0  0  0  0  0  0  0  0  0  0  0  0
   47.0528   10.5998   12.5191 H   0  0  0  0  0  0  0  0  0  0  0  0
  2  1  1  0
  3  1  1  0
  4  3  1  0
  5  2  2  3
  6  1  1  0
  7  8  1  0
  8  6  1  0
  9  2  1  0
 10  4  2  0
 11  7  2  0
 12 10  1  0
 13 11  1  0
  4  7  1  0
 12 13  2  0
 15 14  2  0
 16 14  2  0
 17 14  1  0
 18 14  1  0
 20 19  1  0
 21 19  1  0
 22 21  1  0
 23 20  2  3
 24 19  1  0
 25 26  1  0
 26 24  1  0
 27 20  1  0
 28 22  2  0
 29 25  2  0
 30 28  1  0
 31 29  1  0
 22 25  1  0
 30 31  2  0
  3 32  1  0
  3 33  1  0
  5 34  1  0
  6 35  1  0
  6 36  1  0
  8 37  1  0
  8 38  1  0
  9 39  1  0
  9 40  1  0
 10 41  1  0
 11 42  1  0
 12 43  1  0
 13 44  1  0
 17 45  1  0
 18 46  1  0
 21 47  1  0
 21 48  1  0
 23 49  1  0
 24 50  1  0
 24 51  1  0
 26 52  1  0
 26 53  1  0
 27 54  1  0
 27 55  1  0
 28 56  1  0
 29 57  1  0
 30 58  1  0
 31 59  1  0
M  END
> <Uni-Dock RESULT> 
ENERGY=   -5.832  LOWER_BOUND=    1.217  UPPER_BOUND=    4.550
INTER + INTRA:          -5.832
INTER:                  -5.832
INTRA:                   0.000
UNBOUND:                 0.000

$$$$

     RDKit          3D

 59 60  0  0  0  0  0  0  0  0999 V2000
   44.5304    5.0813   12.6374 N   0  0  0  0  0  0  0  0  0  0  0  0
   44.5392    4.2544   11.5484 C   0  0  0  0  0  0  0  0  0  0  0  0
   44.6128    6.5441   12.4992 C   0  0  0  0  0  0  0  0  0  0  0  0
   45.9682    7.1047   12.8930 C   0  0  0  0  0  0  0  0  0  0  0  0
   45.1627    3.1294   11.5013 N   0  0  0  0  0  0  0  0  0  0  0  0
   45.1239    4.6036   13.8945 C   0  0  0  0  0  0  0  0  0  0  0  0
   46.9149    6.3313   13.5925 C   0  0  0  0  0  0  0  0  0  0  0  0
   46.6262    4.8843   13.9110 C   0  0  0  0  0  0  0  0  0  0  0  0
   43.7704    4.6698   10.5169 N   0  0  0  0  0  0  0  0  0  0  0  0
   46.2690    8.4430   12.5930 C   0  0  0  0  0  0  0  0  0  0  0  0
   48.1489    6.8914   13.9466 C   0  0  0  0  0  0  0  0  0  0  0  0
   47.4961    8.9961   12.9607 C   0  0  0  0  0  0  0  0  0  0  0  0
   48.4359    8.2199   13.6345 C   0  0  0  0  0  0  0  0  0  0  0  0
   45.6895    6.2261   12.4153 S   0  0  0  0  0  0  0  0  0  0  0  0
   44.8897    7.3995   12.6593 O   0  0  0  0  0  0  0  0  0  0  0  0
   45.9358    5.6806   11.1048 O   0  0  0  0  0  0  0  0  0  0  0  0
   45.1074    5.0238   13.3042 O   0  0  0  0  0  0  0  0  0  0  0  0
   47.1027    6.4833   13.1299 O   0  0  0  0  0  0  0  0  0  0  0  0
   46.9387    6.9810   13.2563 N   0  0  0  0  0  0  0  0  0  0  0  0
   47.6172    8.0858   13.6882 C   0  0  0  0  0  0  0  0  0  0  0  0
   45.6981    7.1840   12.4804 C   0  0  0  0  0  0  0  0  0  0  0  0
   44.9026    5.9130   12.2594 C   0  0  0  0  0  0  0  0  0  0  0  0
   48.8788    8.3219   13.6185 N   0  0  0  0  0  0  0  0  0  0  0  0
   47.6556    5.7548   12.8900 C   0  0  0  0  0  0  0  0  0  0  0  0
   45.4262    4.6459   12.5668 C   0  0  0  0  0  0  0  0  0  0  0  0
   46.7908    4.5308   13.1893 C   0  0  0  0  0  0  0  0  0  0  0  0
   46.8509    9.0148   14.2969 N   0  0  0  0  0  0  0  0  0  0  0  0
   43.6165    6.0012   11.7021 C   0  0  0  0  0  0  0  0  0  0  0  0
   44.6521    3.4974   12.3492 C   0  0  0  0  0  0  0  0  0  0  0  0
   42.8568    4.8527   11.4768 C   0  0  0  0  0  0  0  0  0  0  0  0
   43.3738    3.6019   11.8030 C   0  0  0  0  0  0  0  0  0  0  0  0
   44.3902    6.8650   11.4737 H   0  0  0  0  0  0  0  0  0  0  0  0
   43.8531    6.9948   13.1504 H   0  0  0  0  0  0  0  0  0  0  0  0
   45.0289    2.7013   10.5855 H   0  0  0  0  0  0  0  0  0  0  0  0
   44.9317    3.5352   14.0462 H   0  0  0  0  0  0  0  0  0  0  0  0
   44.6373    5.1187   14.7332 H   0  0  0  0  0  0  0  0  0  0  0  0
   47.1413    4.2591   13.1721 H   0  0  0  0  0  0  0  0  0  0  0  0
   47.0225    4.6321   14.9012 H   0  0  0  0  0  0  0  0  0  0  0  0
   42.9268    5.1305   10.8392 H   0  0  0  0  0  0  0  0  0  0  0  0
   43.5470    3.9493    9.8430 H   0  0  0  0  0  0  0  0  0  0  0  0
   45.5481    9.0626   12.0640 H   0  0  0  0  0  0  0  0  0  0  0  0
   48.8934    6.2919   14.4654 H   0  0  0  0  0  0  0  0  0  0  0  0
   47.7214   10.0313   12.7170 H   0  0  0  0  0  0  0  0  0  0  0  0
   49.3955    8.6479   13.9136 H   0  0  0  0  0  0  0  0  0  0  0  0
   45.4274    4.1879   12.9050 H   0  0  0  0  0  0  0  0  0  0  0  0
   46.9417    7.0993   13.8750 H   0  0  0  0  0  0  0  0  0  0  0  0
   45.0415    7.8966   12.9927 H   0  0  0  0  0  0  0  0  0  0  0  0
   45.9606    7.6018   11.5001 H   0  0  0  0  0  0  0  0  0  0  0  0
   49.3480    7.5655   13.1238 H   0  0  0  0  0  0  0  0  0  0  0  0
   47.9330    5.7897   11.8289 H   0  0  0  0  0  0  0  0  0  0  0  0
   48.5807    5.6518   13.4695 H   0  0  0  0  0  0  0  0  0  0  0  0
   47.3016    3.6348   12.8180 H   0  0  0  0  0  0  0  0  0  0  0  0
   46.6643    4.4231   14.2738 H   0  0  0  0  0  0  0  0  0  0  0  0
   47.4536    9.6967   14.7475 H   0  0  0  0  0  0  0  0  0  0  0  0
   46.2157    8.5985   14.9652 H   0  0  0  0  0  0  0  0  0  0  0  0
   43.1968    6.9717   11.4445 H   0  0  0  0  0  0  0  0  0  0  0  0
   45.0421    2.5152   12.6073 H   0  0  0  0  0  0  0  0  0  0  0  0
   41.8604    4.9345   11.0509 H   0  0  0  0  0  0  0  0  0  0  0  0
   42.7795    2.7078   11.6343 H   0  0  0  0  0  0  0  0  0  0  0  0
  2  1  1  0
  3  1  1  0
  4  3  1  0
  5  2  2  3
  6  1  1  0
  7  8  1  0
  8  6  1  0
  9  2  1  0
 10  4  2  0
 11  7  2  0
 12 10  1  0
 13 11  1  0
  4  7  1  0
 12 13  2  0
 15 14  2  0
 16 14  2  0
 17 14  1  0
 18 14  1  0
 20 19  1  0
 21 19  1  0
 22 21  1  0
 23 20  2  3
 24 19  1  0
 25 26  1  0
 26 24  1  0
 27 20  1  0
 28 22  2  0
 29 25  2  0
 30 28  1  0
 31 29  1  0
 22 25  1  0
 30 31  2  0
  3 32  1  0
  3 33  1  0
  5 34  1  0
  6 35  1  0
  6 36  1  0
  8 37  1  0
  8 38  1  0
  9 39  1  0
  9 40  1  0
 10 41  1  0
 11 42  1  0
 12 43  1  0
 13 44  1  0
 17 45  1  0
 18 46  1  0
 21 47  1  0
 21 48  1  0
 23 49  1  0
 24 50  1  0
 24 51  1  0
 26 52  1  0
 26 53  1  0
 27 54  1  0
 27 55  1  0
 28 56  1  0
 29 57  1  0
 30 58  1  0
 31 59  1  0
M  END
> <Uni-Dock RESULT> 
ENERGY=   -5.537  LOWER_BOUND=    1.014  UPPER_BOUND=    2.318
INTER + INTRA:          -5.537
INTER:                  -5.537
INTRA:                   0.000
UNBOUND:                 0.000

$$$$

     RDKit          3D

 59 60  0  0  0  0  0  0  0  0999 V2000
   49.3172    3.9969   17.1025 N   0  0  0  0  0  0  0  0  0  0  0  0
   48.2680    4.1891   17.9581 C   0  0  0  0  0  0  0  0  0  0  0  0
   49.8954    2.6630   16.8742 C   0  0  0  0  0  0  0  0  0  0  0  0
   51.2459    2.4762   17.5432 C   0  0  0  0  0  0  0  0  0  0  0  0
   48.1591    5.1964   18.7519 N   0  0  0  0  0  0  0  0  0  0  0  0
   50.3082    5.0710   16.9442 C   0  0  0  0  0  0  0  0  0  0  0  0
   51.9744    3.5659   18.0586 C   0  0  0  0  0  0  0  0  0  0  0  0
   51.3891    4.9567   18.0187 C   0  0  0  0  0  0  0  0  0  0  0  0
   47.2861    3.2645   17.8653 N   0  0  0  0  0  0  0  0  0  0  0  0
   51.8051    1.1900   17.6094 C   0  0  0  0  0  0  0  0  0  0  0  0
   53.2220    3.3503   18.6577 C   0  0  0  0  0  0  0  0  0  0  0  0
   53.0542    0.9866   18.1970 C   0  0  0  0  0  0  0  0  0  0  0  0
   53.7605    2.0656   18.7229 C   0  0  0  0  0  0  0  0  0  0  0  0
   50.3895    2.9867   17.8326 S   0  0  0  0  0  0  0  0  0  0  0  0
   50.5348    2.0186   16.7755 O   0  0  0  0  0  0  0  0  0  0  0  0
   49.4655    2.8457   18.9290 O   0  0  0  0  0  0  0  0  0  0  0  0
   50.0915    4.4174   17.1703 O   0  0  0  0  0  0  0  0  0  0  0  0
   51.8572    3.2244   18.4355 O   0  0  0  0  0  0  0  0  0  0  0  0
   52.0448    2.8391   18.1084 N   0  0  0  0  0  0  0  0  0  0  0  0
   53.2199    2.1420   18.0958 C   0  0  0  0  0  0  0  0  0  0  0  0
   50.8404    2.1851   17.5571 C   0  0  0  0  0  0  0  0  0  0  0  0
   49.6578    3.1197   17.3984 C   0  0  0  0  0  0  0  0  0  0  0  0
   54.0737    2.0051   19.0470 N   0  0  0  0  0  0  0  0  0  0  0  0
   51.7453    3.7871   19.1870 C   0  0  0  0  0  0  0  0  0  0  0  0
   49.6559    4.4145   17.9439 C   0  0  0  0  0  0  0  0  0  0  0  0
   50.8763    4.9277   18.6582 C   0  0  0  0  0  0  0  0  0  0  0  0
   53.5204    1.5662   16.9129 N   0  0  0  0  0  0  0  0  0  0  0  0
   48.5181    2.6680   16.7131 C   0  0  0  0  0  0  0  0  0  0  0  0
   48.5407    5.2459   17.7686 C   0  0  0  0  0  0  0  0  0  0  0  0
   47.4071    3.4968   16.5534 C   0  0  0  0  0  0  0  0  0  0  0  0
   47.4200    4.7860   17.0786 C   0  0  0  0  0  0  0  0  0  0  0  0
   49.2239    1.8680   17.2220 H   0  0  0  0  0  0  0  0  0  0  0  0
   50.0262    2.5250   15.7933 H   0  0  0  0  0  0  0  0  0  0  0  0
   47.2998    5.1138   19.2947 H   0  0  0  0  0  0  0  0  0  0  0  0
   49.8351    6.0592   16.9797 H   0  0  0  0  0  0  0  0  0  0  0  0
   50.7609    4.9900   15.9472 H   0  0  0  0  0  0  0  0  0  0  0  0
   50.9729    5.1844   19.0071 H   0  0  0  0  0  0  0  0  0  0  0  0
   52.1768    5.6890   17.8075 H   0  0  0  0  0  0  0  0  0  0  0  0
   47.1545    2.9512   16.9101 H   0  0  0  0  0  0  0  0  0  0  0  0
   46.4040    3.5466   18.2717 H   0  0  0  0  0  0  0  0  0  0  0  0
   51.2657    0.3352   17.2070 H   0  0  0  0  0  0  0  0  0  0  0  0
   53.7781    4.1845   19.0792 H   0  0  0  0  0  0  0  0  0  0  0  0
   53.4746   -0.0147   18.2493 H   0  0  0  0  0  0  0  0  0  0  0  0
   54.7299    1.9064   19.1885 H   0  0  0  0  0  0  0  0  0  0  0  0
   49.6834    4.9774   17.8634 H   0  0  0  0  0  0  0  0  0  0  0  0
   52.4979    3.0366   17.7181 H   0  0  0  0  0  0  0  0  0  0  0  0
   51.0566    1.7598   16.5702 H   0  0  0  0  0  0  0  0  0  0  0  0
   50.5464    1.3669   18.2268 H   0  0  0  0  0  0  0  0  0  0  0  0
   53.7317    2.4617   19.8905 H   0  0  0  0  0  0  0  0  0  0  0  0
   51.2471    3.2644   20.0132 H   0  0  0  0  0  0  0  0  0  0  0  0
   52.6643    4.2331   19.5853 H   0  0  0  0  0  0  0  0  0  0  0  0
   50.5819    5.5691   19.4970 H   0  0  0  0  0  0  0  0  0  0  0  0
   51.4546    5.5374   17.9529 H   0  0  0  0  0  0  0  0  0  0  0  0
   54.4818    1.2402   16.9388 H   0  0  0  0  0  0  0  0  0  0  0  0
   53.3763    2.2013   16.1388 H   0  0  0  0  0  0  0  0  0  0  0  0
   48.4935    1.6640   16.2939 H   0  0  0  0  0  0  0  0  0  0  0  0
   48.5420    6.2580   18.1676 H   0  0  0  0  0  0  0  0  0  0  0  0
   46.5336    3.1379   16.0156 H   0  0  0  0  0  0  0  0  0  0  0  0
   46.5576    5.4343   16.9481 H   0  0  0  0  0  0  0  0  0  0  0  0
  2  1  1  0
  3  1  1  0
  4  3  1  0
  5  2  2  3
  6  1  1  0
  7  8  1  0
  8  6  1  0
  9  2  1  0
 10  4  2  0
 11  7  2  0
 12 10  1  0
 13 11  1  0
  4  7  1  0
 12 13  2  0
 15 14  2  0
 16 14  2  0
 17 14  1  0
 18 14  1  0
 20 19  1  0
 21 19  1  0
 22 21  1  0
 23 20  2  3
 24 19  1  0
 25 26  1  0
 26 24  1  0
 27 20  1  0
 28 22  2  0
 29 25  2  0
 30 28  1  0
 31 29  1  0
 22 25  1  0
 30 31  2  0
  3 32  1  0
  3 33  1  0
  5 34  1  0
  6 35  1  0
  6 36  1  0
  8 37  1  0
  8 38  1  0
  9 39  1  0
  9 40  1  0
 10 41  1  0
 11 42  1  0
 12 43  1  0
 13 44  1  0
 17 45  1  0
 18 46  1  0
 21 47  1  0
 21 48  1  0
 23 49  1  0
 24 50  1  0
 24 51  1  0
 26 52  1  0
 26 53  1  0
 27 54  1  0
 27 55  1  0
 28 56  1  0
 29 57  1  0
 30 58  1  0
 31 59  1  0
M  END
> <Uni-Dock RESULT> 
ENERGY=   -4.969  LOWER_BOUND=    6.264  UPPER_BOUND=    8.065
INTER + INTRA:          -4.969
INTER:                  -4.969
INTRA:                   0.000
UNBOUND:                 0.000

$$$$

     RDKit          3D

 59 60  0  0  0  0  0  0  0  0999 V2000
   48.2567    7.7213   14.3405 N   0  0  0  0  0  0  0  0  0  0  0  0
   49.4898    8.0379   13.8415 C   0  0  0  0  0  0  0  0  0  0  0  0
   47.8762    6.3314   14.6393 C   0  0  0  0  0  0  0  0  0  0  0  0
   46.9027    5.7497   13.6292 C   0  0  0  0  0  0  0  0  0  0  0  0
   49.6950    8.9296   12.9362 N   0  0  0  0  0  0  0  0  0  0  0  0
   47.1031    8.5470   13.9553 C   0  0  0  0  0  0  0  0  0  0  0  0
   46.2254    6.5628   12.6999 C   0  0  0  0  0  0  0  0  0  0  0  0
   46.5080    8.0444   12.6404 C   0  0  0  0  0  0  0  0  0  0  0  0
   50.5205    7.3871   14.4262 N   0  0  0  0  0  0  0  0  0  0  0  0
   46.6351    4.3715   13.6514 C   0  0  0  0  0  0  0  0  0  0  0  0
   45.3268    5.9864   11.7930 C   0  0  0  0  0  0  0  0  0  0  0  0
   45.7290    3.8080   12.7524 C   0  0  0  0  0  0  0  0  0  0  0  0
   45.0777    4.6147   11.8225 C   0  0  0  0  0  0  0  0  0  0  0  0
   47.7036    6.4026   13.5291 S   0  0  0  0  0  0  0  0  0  0  0  0
   47.3653    5.5748   14.6588 O   0  0  0  0  0  0  0  0  0  0  0  0
   48.9642    6.3374   12.8348 O   0  0  0  0  0  0  0  0  0  0  0  0
   47.4956    7.9377   13.9471 O   0  0  0  0  0  0  0  0  0  0  0  0
   46.5253    6.2114   12.4571 O   0  0  0  0  0  0  0  0  0  0  0  0
   46.3044    5.8395   12.7788 N   0  0  0  0  0  0  0  0  0  0  0  0
   45.3404    4.8962   12.5593 C   0  0  0  0  0  0  0  0  0  0  0  0
   47.3310    5.5615   13.8040 C   0  0  0  0  0  0  0  0  0  0  0  0
   48.2002    6.7578   14.1363 C   0  0  0  0  0  0  0  0  0  0  0  0
   44.9144    4.4409   11.4352 N   0  0  0  0  0  0  0  0  0  0  0  0
   46.7955    6.6809   11.6822 C   0  0  0  0  0  0  0  0  0  0  0  0
   48.1695    7.9345   13.3689 C   0  0  0  0  0  0  0  0  0  0  0  0
   47.2101    8.0516   12.2162 C   0  0  0  0  0  0  0  0  0  0  0  0
   44.7470    4.4270   13.6768 N   0  0  0  0  0  0  0  0  0  0  0  0
   49.0849    6.6774   15.2241 C   0  0  0  0  0  0  0  0  0  0  0  0
   48.9888    9.0178   13.7163 C   0  0  0  0  0  0  0  0  0  0  0  0
   49.9063    7.7553   15.5562 C   0  0  0  0  0  0  0  0  0  0  0  0
   49.8558    8.9257   14.8041 C   0  0  0  0  0  0  0  0  0  0  0  0
   48.7543    5.6756   14.6911 H   0  0  0  0  0  0  0  0  0  0  0  0
   47.3988    6.3100   15.6272 H   0  0  0  0  0  0  0  0  0  0  0  0
   50.6908    8.9783   12.7225 H   0  0  0  0  0  0  0  0  0  0  0  0
   47.3791    9.6045   13.8720 H   0  0  0  0  0  0  0  0  0  0  0  0
   46.3494    8.4947   14.7519 H   0  0  0  0  0  0  0  0  0  0  0  0
   47.1997    8.2306   11.8103 H   0  0  0  0  0  0  0  0  0  0  0  0
   45.5821    8.5948   12.4378 H   0  0  0  0  0  0  0  0  0  0  0  0
   50.3591    7.2414   15.4164 H   0  0  0  0  0  0  0  0  0  0  0  0
   51.4260    7.8105   14.2720 H   0  0  0  0  0  0  0  0  0  0  0  0
   47.1376    3.7260   14.3686 H   0  0  0  0  0  0  0  0  0  0  0  0
   44.8192    6.6057   11.0571 H   0  0  0  0  0  0  0  0  0  0  0  0
   45.5348    2.7386   12.7737 H   0  0  0  0  0  0  0  0  0  0  0  0
   44.3781    4.1748   11.1161 H   0  0  0  0  0  0  0  0  0  0  0  0
   48.0181    8.4811   13.3207 H   0  0  0  0  0  0  0  0  0  0  0  0
   45.7158    5.9758   12.9568 H   0  0  0  0  0  0  0  0  0  0  0  0
   46.8580    5.2312   14.7360 H   0  0  0  0  0  0  0  0  0  0  0  0
   47.9796    4.7534   13.4425 H   0  0  0  0  0  0  0  0  0  0  0  0
   45.4471    4.8496   10.6695 H   0  0  0  0  0  0  0  0  0  0  0  0
   47.6356    6.1844   11.1806 H   0  0  0  0  0  0  0  0  0  0  0  0
   46.0134    6.8449   10.9314 H   0  0  0  0  0  0  0  0  0  0  0  0
   47.6651    8.6278   11.4024 H   0  0  0  0  0  0  0  0  0  0  0  0
   46.3237    8.5974   12.5628 H   0  0  0  0  0  0  0  0  0  0  0  0
   43.9287    3.8861   13.4141 H   0  0  0  0  0  0  0  0  0  0  0  0
   44.4962    5.1743   14.3109 H   0  0  0  0  0  0  0  0  0  0  0  0
   49.1341    5.7707   15.8238 H   0  0  0  0  0  0  0  0  0  0  0  0
   48.9525    9.9405   13.1410 H   0  0  0  0  0  0  0  0  0  0  0  0
   50.5822    7.6831   16.4040 H   0  0  0  0  0  0  0  0  0  0  0  0
   50.4903    9.7680   15.0669 H   0  0  0  0  0  0  0  0  0  0  0  0
  2  1  1  0
  3  1  1  0
  4  3  1  0
  5  2  2  3
  6  1  1  0
  7  8  1  0
  8  6  1  0
  9  2  1  0
 10  4  2  0
 11  7  2  0
 12 10  1  0
 13 11  1  0
  4  7  1  0
 12 13  2  0
 15 14  2  0
 16 14  2  0
 17 14  1  0
 18 14  1  0
 20 19  1  0
 21 19  1  0
 22 21  1  0
 23 20  2  3
 24 19  1  0
 25 26  1  0
 26 24  1  0
 27 20  1  0
 28 22  2  0
 29 25  2  0
 30 28  1  0
 31 29  1  0
 22 25  1  0
 30 31  2  0
  3 32  1  0
  3 33  1  0
  5 34  1  0
  6 35  1  0
  6 36  1  0
  8 37  1  0
  8 38  1  0
  9 39  1  0
  9 40  1  0
 10 41  1  0
 11 42  1  0
 12 43  1  0
 13 44  1  0
 17 45  1  0
 18 46  1  0
 21 47  1  0
 21 48  1  0
 23 49  1  0
 24 50  1  0
 24 51  1  0
 26 52  1  0
 26 53  1  0
 27 54  1  0
 27 55  1  0
 28 56  1  0
 29 57  1  0
 30 58  1  0
 31 59  1  0
M  END
> <Uni-Dock RESULT> 
ENERGY=   -4.571  LOWER_BOUND=    1.369  UPPER_BOUND=    4.811
INTER + INTRA:          -4.571
INTER:                  -4.571
INTRA:                   0.000
UNBOUND:                 0.000

$$$$

     RDKit          3D

 59 60  0  0  0  0  0  0  0  0999 V2000
   48.2263    9.0647   12.3421 N   0  0  0  0  0  0  0  0  0  0  0  0
   48.5906    9.9395   13.3279 C   0  0  0  0  0  0  0  0  0  0  0  0
   46.8182    8.7084   12.1050 C   0  0  0  0  0  0  0  0  0  0  0  0
   46.4688    7.3097   12.5823 C   0  0  0  0  0  0  0  0  0  0  0  0
   49.6294    9.7945   14.0739 N   0  0  0  0  0  0  0  0  0  0  0  0
   49.1468    7.9755   11.9857 C   0  0  0  0  0  0  0  0  0  0  0  0
   47.4637    6.3749   12.9285 C   0  0  0  0  0  0  0  0  0  0  0  0
   48.9201    6.7708   12.8984 C   0  0  0  0  0  0  0  0  0  0  0  0
   47.8083   11.0376   13.4268 N   0  0  0  0  0  0  0  0  0  0  0  0
   45.1205    6.9216   12.6365 C   0  0  0  0  0  0  0  0  0  0  0  0
   47.0978    5.0912   13.3530 C   0  0  0  0  0  0  0  0  0  0  0  0
   44.7659    5.6366   13.0487 C   0  0  0  0  0  0  0  0  0  0  0  0
   45.7538    4.7234   13.4090 C   0  0  0  0  0  0  0  0  0  0  0  0
   47.1024    8.0382   12.9638 S   0  0  0  0  0  0  0  0  0  0  0  0
   46.0885    8.1817   11.9503 O   0  0  0  0  0  0  0  0  0  0  0  0
   47.1277    8.7983   14.1875 O   0  0  0  0  0  0  0  0  0  0  0  0
   48.5375    8.2403   12.2753 O   0  0  0  0  0  0  0  0  0  0  0  0
   47.1546    6.4785   13.3361 O   0  0  0  0  0  0  0  0  0  0  0  0
   46.7363    6.3944   13.0067 N   0  0  0  0  0  0  0  0  0  0  0  0
   45.8831    5.3368   12.8629 C   0  0  0  0  0  0  0  0  0  0  0  0
   46.2372    7.7434   12.6698 C   0  0  0  0  0  0  0  0  0  0  0  0
   47.3207    8.8025   12.6327 C   0  0  0  0  0  0  0  0  0  0  0  0
   45.6613    4.3760   13.6875 N   0  0  0  0  0  0  0  0  0  0  0  0
   47.7524    6.4014   14.0646 C   0  0  0  0  0  0  0  0  0  0  0  0
   48.6210    8.5519   13.1025 C   0  0  0  0  0  0  0  0  0  0  0  0
   48.9840    7.1814   13.6056 C   0  0  0  0  0  0  0  0  0  0  0  0
   45.2318    5.2953   11.6817 N   0  0  0  0  0  0  0  0  0  0  0  0
   47.0085   10.0814   12.1434 C   0  0  0  0  0  0  0  0  0  0  0  0
   49.5924    9.5611   13.0448 C   0  0  0  0  0  0  0  0  0  0  0  0
   47.9774   11.0846   12.1006 C   0  0  0  0  0  0  0  0  0  0  0  0
   49.2693   10.8232   12.5486 C   0  0  0  0  0  0  0  0  0  0  0  0
   46.1360    9.4194   12.5879 H   0  0  0  0  0  0  0  0  0  0  0  0
   46.6271    8.7601   11.0256 H   0  0  0  0  0  0  0  0  0  0  0  0
   49.6849   10.5663   14.7381 H   0  0  0  0  0  0  0  0  0  0  0  0
   50.1916    8.3033   12.0357 H   0  0  0  0  0  0  0  0  0  0  0  0
   48.9704    7.6917   10.9399 H   0  0  0  0  0  0  0  0  0  0  0  0
   49.2364    7.0007   13.9228 H   0  0  0  0  0  0  0  0  0  0  0  0
   49.5287    5.9338   12.5374 H   0  0  0  0  0  0  0  0  0  0  0  0
   47.4843   11.3508   12.5186 H   0  0  0  0  0  0  0  0  0  0  0  0
   48.2234   11.8040   13.9400 H   0  0  0  0  0  0  0  0  0  0  0  0
   44.3356    7.6233   12.3621 H   0  0  0  0  0  0  0  0  0  0  0  0
   47.8606    4.3731   13.6448 H   0  0  0  0  0  0  0  0  0  0  0  0
   43.7184    5.3491   13.0938 H   0  0  0  0  0  0  0  0  0  0  0  0
   45.4776    3.7249   13.7384 H   0  0  0  0  0  0  0  0  0  0  0  0
   49.1716    8.4627   12.9888 H   0  0  0  0  0  0  0  0  0  0  0  0
   46.8559    5.9827   12.5452 H   0  0  0  0  0  0  0  0  0  0  0  0
   45.7532    7.7353   11.6864 H   0  0  0  0  0  0  0  0  0  0  0  0
   45.4907    8.0394   13.4178 H   0  0  0  0  0  0  0  0  0  0  0  0
   46.1891    4.5247   14.5457 H   0  0  0  0  0  0  0  0  0  0  0  0
   47.3318    6.8351   14.9806 H   0  0  0  0  0  0  0  0  0  0  0  0
   48.0800    5.3824   14.3023 H   0  0  0  0  0  0  0  0  0  0  0  0
   49.6877    7.2598   14.4424 H   0  0  0  0  0  0  0  0  0  0  0  0
   49.4835    6.6397   12.7929 H   0  0  0  0  0  0  0  0  0  0  0  0
   44.7769    4.3925   11.5868 H   0  0  0  0  0  0  0  0  0  0  0  0
   45.8543    5.4684   10.9033 H   0  0  0  0  0  0  0  0  0  0  0  0
   46.0040   10.3008   11.7866 H   0  0  0  0  0  0  0  0  0  0  0  0
   50.6075    9.3665   13.3845 H   0  0  0  0  0  0  0  0  0  0  0  0
   47.7250   12.0683   11.7139 H   0  0  0  0  0  0  0  0  0  0  0  0
   50.0260   11.6022   12.5086 H   0  0  0  0  0  0  0  0  0  0  0  0
  2  1  1  0
  3  1  1  0
  4  3  1  0
  5  2  2  3
  6  1  1  0
  7  8  1  0
  8  6  1  0
  9  2  1  0
 10  4  2  0
 11  7  2  0
 12 10  1  0
 13 11  1  0
  4  7  1  0
 12 13  2  0
 15 14  2  0
 16 14  2  0
 17 14  1  0
 18 14  1  0
 20 19  1  0
 21 19  1  0
 22 21  1  0
 23 20  2  3
 24 19  1  0
 25 26  1  0
 26 24  1  0
 27 20  1  0
 28 22  2  0
 29 25  2  0
 30 28  1  0
 31 29  1  0
 22 25  1  0
 30 31  2  0
  3 32  1  0
  3 33  1  0
  5 34  1  0
  6 35  1  0
  6 36  1  0
  8 37  1  0
  8 38  1  0
  9 39  1  0
  9 40  1  0
 10 41  1  0
 11 42  1  0
 12 43  1  0
 13 44  1  0
 17 45  1  0
 18 46  1  0
 21 47  1  0
 21 48  1  0
 23 49  1  0
 24 50  1  0
 24 51  1  0
 26 52  1  0
 26 53  1  0
 27 54  1  0
 27 55  1  0
 28 56  1  0
 29 57  1  0
 30 58  1  0
 31 59  1  0
M  END
> <Uni-Dock RESULT> 
ENERGY=   -4.497  LOWER_BOUND=    1.773  UPPER_BOUND=    5.174
INTER + INTRA:          -4.497
INTER:                  -4.497
INTRA:                   0.000
UNBOUND:                 0.000

$$$$

     RDKit          3D

 59 60  0  0  0  0  0  0  0  0999 V2000
   48.5289    4.7248   18.0833 N   0  0  0  0  0  0  0  0  0  0  0  0
   47.5525    4.3825   17.1894 C   0  0  0  0  0  0  0  0  0  0  0  0
   48.3340    4.5816   19.5350 C   0  0  0  0  0  0  0  0  0  0  0  0
   48.1232    5.9090   20.2419 C   0  0  0  0  0  0  0  0  0  0  0  0
   47.2807    5.0536   16.1252 N   0  0  0  0  0  0  0  0  0  0  0  0
   49.4427    5.8262   17.7473 C   0  0  0  0  0  0  0  0  0  0  0  0
   48.3908    7.1373   19.6068 C   0  0  0  0  0  0  0  0  0  0  0  0
   48.8343    7.1647   18.1642 C   0  0  0  0  0  0  0  0  0  0  0  0
   46.9179    3.2206   17.4627 N   0  0  0  0  0  0  0  0  0  0  0  0
   47.6941    5.9122   21.5788 C   0  0  0  0  0  0  0  0  0  0  0  0
   48.1935    8.3387   20.2995 C   0  0  0  0  0  0  0  0  0  0  0  0
   47.5123    7.1135   22.2649 C   0  0  0  0  0  0  0  0  0  0  0  0
   47.7593    8.3255   21.6247 C   0  0  0  0  0  0  0  0  0  0  0  0
   47.8232    5.5597   19.3115 S   0  0  0  0  0  0  0  0  0  0  0  0
   48.3458    4.8032   20.4208 O   0  0  0  0  0  0  0  0  0  0  0  0
   46.5406    5.3119   18.7039 O   0  0  0  0  0  0  0  0  0  0  0  0
   48.9013    5.5252   18.1236 O   0  0  0  0  0  0  0  0  0  0  0  0
   47.8883    7.1033   19.7438 O   0  0  0  0  0  0  0  0  0  0  0  0
   48.0589    6.9508   20.2319 N   0  0  0  0  0  0  0  0  0  0  0  0
   48.1475    7.6192   21.4204 C   0  0  0  0  0  0  0  0  0  0  0  0
   47.8560    5.4879   20.2683 C   0  0  0  0  0  0  0  0  0  0  0  0
   48.0116    4.8171   18.9182 C   0  0  0  0  0  0  0  0  0  0  0  0
   47.5605    8.7095   21.7653 N   0  0  0  0  0  0  0  0  0  0  0  0
   47.4601    7.5882   19.0543 C   0  0  0  0  0  0  0  0  0  0  0  0
   48.1073    5.5571   17.7276 C   0  0  0  0  0  0  0  0  0  0  0  0
   48.1174    7.0605   17.7794 C   0  0  0  0  0  0  0  0  0  0  0  0
   48.9947    7.0681   22.3145 N   0  0  0  0  0  0  0  0  0  0  0  0
   48.0295    3.4144   18.8512 C   0  0  0  0  0  0  0  0  0  0  0  0
   48.2543    4.8936   16.5014 C   0  0  0  0  0  0  0  0  0  0  0  0
   48.1636    2.7608   17.6257 C   0  0  0  0  0  0  0  0  0  0  0  0
   48.2787    3.5006   16.4520 C   0  0  0  0  0  0  0  0  0  0  0  0
   47.4830    3.9281   19.7646 H   0  0  0  0  0  0  0  0  0  0  0  0
   49.2287    4.1066   19.9572 H   0  0  0  0  0  0  0  0  0  0  0  0
   46.5111    4.6080   15.6262 H   0  0  0  0  0  0  0  0  0  0  0  0
   49.6855    5.8315   16.6784 H   0  0  0  0  0  0  0  0  0  0  0  0
   50.3946    5.6679   18.2711 H   0  0  0  0  0  0  0  0  0  0  0  0
   47.9643    7.4015   17.5402 H   0  0  0  0  0  0  0  0  0  0  0  0
   49.5803    7.9540   18.0162 H   0  0  0  0  0  0  0  0  0  0  0  0
   47.5469    2.5349   17.8652 H   0  0  0  0  0  0  0  0  0  0  0  0
   46.4127    2.8242   16.6813 H   0  0  0  0  0  0  0  0  0  0  0  0
   47.4929    4.9750   22.0933 H   0  0  0  0  0  0  0  0  0  0  0  0
   48.3751    9.2909   19.8065 H   0  0  0  0  0  0  0  0  0  0  0  0
   47.1728    7.1045   23.2977 H   0  0  0  0  0  0  0  0  0  0  0  0
   47.6095    9.2620   22.1561 H   0  0  0  0  0  0  0  0  0  0  0  0
   48.4261    5.7461   17.2954 H   0  0  0  0  0  0  0  0  0  0  0  0
   48.6188    7.1913   20.3912 H   0  0  0  0  0  0  0  0  0  0  0  0
   48.5755    5.0211   20.9510 H   0  0  0  0  0  0  0  0  0  0  0  0
   46.8447    5.2821   20.6416 H   0  0  0  0  0  0  0  0  0  0  0  0
   46.9351    9.0183   21.0233 H   0  0  0  0  0  0  0  0  0  0  0  0
   46.3782    7.4056   19.0429 H   0  0  0  0  0  0  0  0  0  0  0  0
   47.6111    8.6741   19.0752 H   0  0  0  0  0  0  0  0  0  0  0  0
   47.5907    7.4724   16.9108 H   0  0  0  0  0  0  0  0  0  0  0  0
   49.1604    7.3976   17.7338 H   0  0  0  0  0  0  0  0  0  0  0  0
   49.1416    7.7223   23.0772 H   0  0  0  0  0  0  0  0  0  0  0  0
   49.8746    6.8090   21.8879 H   0  0  0  0  0  0  0  0  0  0  0  0
   47.9437    2.8218   19.7599 H   0  0  0  0  0  0  0  0  0  0  0  0
   48.3531    5.4608   15.5783 H   0  0  0  0  0  0  0  0  0  0  0  0
   48.1824    1.6750   17.5876 H   0  0  0  0  0  0  0  0  0  0  0  0
   48.3904    2.9919   15.4982 H   0  0  0  0  0  0  0  0  0  0  0  0
  2  1  1  0
  3  1  1  0
  4  3  1  0
  5  2  2  3
  6  1  1  0
  7  8  1  0
  8  6  1  0
  9  2  1  0
 10  4  2  0
 11  7  2  0
 12 10  1  0
 13 11  1  0
  4  7  1  0
 12 13  2  0
 15 14  2  0
 16 14  2  0
 17 14  1  0
 18 14  1  0
 20 19  1  0
 21 19  1  0
 22 21  1  0
 23 20  2  3
 24 19  1  0
 25 26  1  0
 26 24  1  0
 27 20  1  0
 28 22  2  0
 29 25  2  0
 30 28  1  0
 31 29  1  0
 22 25  1  0
 30 31  2  0
  3 32  1  0
  3 33  1  0
  5 34  1  0
  6 35  1  0
  6 36  1  0
  8 37  1  0
  8 38  1  0
  9 39  1  0
  9 40  1  0
 10 41  1  0
 11 42  1  0
 12 43  1  0
 13 44  1  0
 17 45  1  0
 18 46  1  0
 21 47  1  0
 21 48  1  0
 23 49  1  0
 24 50  1  0
 24 51  1  0
 26 52  1  0
 26 53  1  0
 27 54  1  0
 27 55  1  0
 28 56  1  0
 29 57  1  0
 30 58  1  0
 31 59  1  0
M  END
> <Uni-Dock RESULT> 
ENERGY=   -4.465  LOWER_BOUND=    5.796  UPPER_BOUND=    7.284
INTER + INTRA:          -4.465
INTER:                  -4.465
INTRA:                   0.000
UNBOUND:                 0.000

$$$$

     RDKit          3D

 59 60  0  0  0  0  0  0  0  0999 V2000
   48.0898   11.2590   19.8502 N   0  0  0  0  0  0  0  0  0  0  0  0
   47.0662   12.1528   20.0015 C   0  0  0  0  0  0  0  0  0  0  0  0
   47.9733   10.0919   18.9613 C   0  0  0  0  0  0  0  0  0  0  0  0
   47.8026    8.7840   19.7140 C   0  0  0  0  0  0  0  0  0  0  0  0
   46.7382   12.6916   21.1235 N   0  0  0  0  0  0  0  0  0  0  0  0
   48.9856   11.0083   20.9884 C   0  0  0  0  0  0  0  0  0  0  0  0
   48.0372    8.6906   21.0996 C   0  0  0  0  0  0  0  0  0  0  0  0
   48.4023    9.9225   21.8920 C   0  0  0  0  0  0  0  0  0  0  0  0
   46.4456   12.5016   18.8522 N   0  0  0  0  0  0  0  0  0  0  0  0
   47.4462    7.6265   19.0035 C   0  0  0  0  0  0  0  0  0  0  0  0
   47.8792    7.4617   21.7529 C   0  0  0  0  0  0  0  0  0  0  0  0
   47.3033    6.4040   19.6607 C   0  0  0  0  0  0  0  0  0  0  0  0
   47.5171    6.3226   21.0345 C   0  0  0  0  0  0  0  0  0  0  0  0
   47.4525    9.7440   19.8968 S   0  0  0  0  0  0  0  0  0  0  0  0
   48.0330    9.2235   18.6853 O   0  0  0  0  0  0  0  0  0  0  0  0
   46.1386   10.3307   19.9700 O   0  0  0  0  0  0  0  0  0  0  0  0
   48.4649   10.8215   20.5201 O   0  0  0  0  0  0  0  0  0  0  0  0
   47.5428    8.5687   20.9851 O   0  0  0  0  0  0  0  0  0  0  0  0
   47.7393    8.2422   20.6038 N   0  0  0  0  0  0  0  0  0  0  0  0
   47.8927    6.8854   20.5514 C   0  0  0  0  0  0  0  0  0  0  0  0
   47.5367    8.9704   19.3346 C   0  0  0  0  0  0  0  0  0  0  0  0
   47.6184   10.4771   19.4766 C   0  0  0  0  0  0  0  0  0  0  0  0
   47.3266    5.9921   21.2820 N   0  0  0  0  0  0  0  0  0  0  0  0
   47.0788    8.8797   21.7479 C   0  0  0  0  0  0  0  0  0  0  0  0
   47.6508   11.1042   20.7335 C   0  0  0  0  0  0  0  0  0  0  0  0
   47.6656   10.2707   21.9857 C   0  0  0  0  0  0  0  0  0  0  0  0
   48.7861    6.4548   19.6363 N   0  0  0  0  0  0  0  0  0  0  0  0
   47.6308   11.2720   18.3187 C   0  0  0  0  0  0  0  0  0  0  0  0
   47.7305   12.5014   20.8164 C   0  0  0  0  0  0  0  0  0  0  0  0
   47.6977   12.6627   18.4094 C   0  0  0  0  0  0  0  0  0  0  0  0
   47.7503   13.2765   19.6578 C   0  0  0  0  0  0  0  0  0  0  0  0
   47.1350   10.2006   18.2617 H   0  0  0  0  0  0  0  0  0  0  0  0
   48.8888   10.0244   18.3599 H   0  0  0  0  0  0  0  0  0  0  0  0
   45.9423   13.3138   20.9854 H   0  0  0  0  0  0  0  0  0  0  0  0
   49.1704   11.9249   21.5605 H   0  0  0  0  0  0  0  0  0  0  0  0
   49.9642   10.6908   20.6048 H   0  0  0  0  0  0  0  0  0  0  0  0
   47.5003   10.2876   22.3973 H   0  0  0  0  0  0  0  0  0  0  0  0
   49.1403    9.6682   22.6614 H   0  0  0  0  0  0  0  0  0  0  0  0
   47.0946   12.5492   18.0747 H   0  0  0  0  0  0  0  0  0  0  0  0
   45.8985   13.3502   18.9113 H   0  0  0  0  0  0  0  0  0  0  0  0
   47.2718    7.6726   17.9307 H   0  0  0  0  0  0  0  0  0  0  0  0
   48.0353    7.3886   22.8267 H   0  0  0  0  0  0  0  0  0  0  0  0
   47.0199    5.5156   19.1018 H   0  0  0  0  0  0  0  0  0  0  0  0
   47.3974    5.3721   21.5483 H   0  0  0  0  0  0  0  0  0  0  0  0
   47.9460   11.3869   21.1297 H   0  0  0  0  0  0  0  0  0  0  0  0
   48.3073    8.0065   20.7401 H   0  0  0  0  0  0  0  0  0  0  0  0
   48.2913    8.6692   18.5987 H   0  0  0  0  0  0  0  0  0  0  0  0
   46.5467    8.7144   18.9361 H   0  0  0  0  0  0  0  0  0  0  0  0
   46.6625    6.4311   21.9171 H   0  0  0  0  0  0  0  0  0  0  0  0
   45.9976    8.9350   21.5690 H   0  0  0  0  0  0  0  0  0  0  0  0
   47.2321    8.2985   22.6649 H   0  0  0  0  0  0  0  0  0  0  0  0
   47.0934   10.7677   22.7777 H   0  0  0  0  0  0  0  0  0  0  0  0
   48.7051   10.1809   22.3248 H   0  0  0  0  0  0  0  0  0  0  0  0
   48.9749    5.4700   19.7967 H   0  0  0  0  0  0  0  0  0  0  0  0
   49.6414    6.9943   19.6636 H   0  0  0  0  0  0  0  0  0  0  0  0
   47.5933   10.8073   17.3353 H   0  0  0  0  0  0  0  0  0  0  0  0
   47.7802   12.9922   21.7861 H   0  0  0  0  0  0  0  0  0  0  0  0
   47.7129   13.2665   17.5060 H   0  0  0  0  0  0  0  0  0  0  0  0
   47.8097   14.3593   19.7286 H   0  0  0  0  0  0  0  0  0  0  0  0
  2  1  1  0
  3  1  1  0
  4  3  1  0
  5  2  2  3
  6  1  1  0
  7  8  1  0
  8  6  1  0
  9  2  1  0
 10  4  2  0
 11  7  2  0
 12 10  1  0
 13 11  1  0
  4  7  1  0
 12 13  2  0
 15 14  2  0
 16 14  2  0
 17 14  1  0
 18 14  1  0
 20 19  1  0
 21 19  1  0
 22 21  1  0
 23 20  2  3
 24 19  1  0
 25 26  1  0
 26 24  1  0
 27 20  1  0
 28 22  2  0
 29 25  2  0
 30 28  1  0
 31 29  1  0
 22 25  1  0
 30 31  2  0
  3 32  1  0
  3 33  1  0
  5 34  1  0
  6 35  1  0
  6 36  1  0
  8 37  1  0
  8 38  1  0
  9 39  1  0
  9 40  1  0
 10 41  1  0
 11 42  1  0
 12 43  1  0
 13 44  1  0
 17 45  1  0
 18 46  1  0
 21 47  1  0
 21 48  1  0
 23 49  1  0
 24 50  1  0
 24 51  1  0
 26 52  1  0
 26 53  1  0
 27 54  1  0
 27 55  1  0
 28 56  1  0
 29 57  1  0
 30 58  1  0
 31 59  1  0
M  END
> <Uni-Dock RESULT> 
ENERGY=   -4.436  LOWER_BOUND=    7.545  UPPER_BOUND=    9.641
INTER + INTRA:          -4.436
INTER:                  -4.436
INTRA:                   0.000
UNBOUND:                 0.000

$$$$
