
     RDKit          3D

 59 60  0  0  0  0  0  0  0  0999 V2000
   44.3996    4.1503    9.9745 N   0  0  0  0  0  0  0  0  0  0  0  0
   43.3667    4.5974   10.7479 C   0  0  0  0  0  0  0  0  0  0  0  0
   44.6996    2.7154    9.8875 C   0  0  0  0  0  0  0  0  0  0  0  0
   45.6231    2.3583    8.7391 C   0  0  0  0  0  0  0  0  0  0  0  0
   42.6605    3.9310   11.5908 N   0  0  0  0  0  0  0  0  0  0  0  0
   45.5755    5.0014    9.7312 C   0  0  0  0  0  0  0  0  0  0  0  0
   46.2982    3.3431    7.9961 C   0  0  0  0  0  0  0  0  0  0  0  0
   46.0704    4.8005    8.2999 C   0  0  0  0  0  0  0  0  0  0  0  0
   43.0247    5.8887   10.5578 N   0  0  0  0  0  0  0  0  0  0  0  0
   45.8350    1.0054    8.4281 C   0  0  0  0  0  0  0  0  0  0  0  0
   47.1409    2.9679    6.9408 C   0  0  0  0  0  0  0  0  0  0  0  0
   46.6861    0.6399    7.3846 C   0  0  0  0  0  0  0  0  0  0  0  0
   47.3361    1.6208    6.6402 C   0  0  0  0  0  0  0  0  0  0  0  0
   45.1198    3.0182    9.1277 S   0  0  0  0  0  0  0  0  0  0  0  0
   44.1008    2.4379    8.2908 O   0  0  0  0  0  0  0  0  0  0  0  0
   45.6241    2.3976   10.3260 O   0  0  0  0  0  0  0  0  0  0  0  0
   44.6514    4.4949    9.5444 O   0  0  0  0  0  0  0  0  0  0  0  0
   46.3619    3.3476    8.1675 O   0  0  0  0  0  0  0  0  0  0  0  0
   46.1688    2.8294    7.9550 N   0  0  0  0  0  0  0  0  0  0  0  0
   46.9910    2.1090    7.1367 C   0  0  0  0  0  0  0  0  0  0  0  0
   45.2616    2.1485    8.8877 C   0  0  0  0  0  0  0  0  0  0  0  0
   44.6887    3.0638    9.9521 C   0  0  0  0  0  0  0  0  0  0  0  0
   46.9895    0.8400    6.9284 N   0  0  0  0  0  0  0  0  0  0  0  0
   45.6872    4.1595    7.5491 C   0  0  0  0  0  0  0  0  0  0  0  0
   44.8373    4.4608    9.8879 C   0  0  0  0  0  0  0  0  0  0  0  0
   45.6289    5.0807    8.7665 C   0  0  0  0  0  0  0  0  0  0  0  0
   47.9499    2.8242    6.5127 N   0  0  0  0  0  0  0  0  0  0  0  0
   43.9626    2.5042   11.0159 C   0  0  0  0  0  0  0  0  0  0  0  0
   44.2932    5.2690   10.8954 C   0  0  0  0  0  0  0  0  0  0  0  0
   43.4126    3.3170   12.0075 C   0  0  0  0  0  0  0  0  0  0  0  0
   43.5804    4.6980   11.9485 C   0  0  0  0  0  0  0  0  0  0  0  0
   43.7632    2.1617    9.7447 H   0  0  0  0  0  0  0  0  0  0  0  0
   45.1621    2.3838   10.8253 H   0  0  0  0  0  0  0  0  0  0  0  0
   43.0040    2.9753   11.6634 H   0  0  0  0  0  0  0  0  0  0  0  0
   45.3615    6.0661    9.8747 H   0  0  0  0  0  0  0  0  0  0  0  0
   46.3621    4.7423   10.4523 H   0  0  0  0  0  0  0  0  0  0  0  0
   47.0002    5.3647    8.1622 H   0  0  0  0  0  0  0  0  0  0  0  0
   45.3288    5.1886    7.5908 H   0  0  0  0  0  0  0  0  0  0  0  0
   42.9460    6.1164    9.5756 H   0  0  0  0  0  0  0  0  0  0  0  0
   42.1490    6.0687   11.0387 H   0  0  0  0  0  0  0  0  0  0  0  0
   45.3321    0.2261    8.9970 H   0  0  0  0  0  0  0  0  0  0  0  0
   47.6496    3.7245    6.3478 H   0  0  0  0  0  0  0  0  0  0  0  0
   46.8390   -0.4103    7.1501 H   0  0  0  0  0  0  0  0  0  0  0  0
   47.9938    1.3363    5.8229 H   0  0  0  0  0  0  0  0  0  0  0  0
   45.1889    4.7607   10.3190 H   0  0  0  0  0  0  0  0  0  0  0  0
   46.0012    3.4948    7.2687 H   0  0  0  0  0  0  0  0  0  0  0  0
   45.8090    1.3468    9.3990 H   0  0  0  0  0  0  0  0  0  0  0  0
   44.4318    1.7020    8.3260 H   0  0  0  0  0  0  0  0  0  0  0  0
   46.2268    0.3983    7.4381 H   0  0  0  0  0  0  0  0  0  0  0  0
   46.3289    4.6275    6.7944 H   0  0  0  0  0  0  0  0  0  0  0  0
   44.6935    4.0584    7.0928 H   0  0  0  0  0  0  0  0  0  0  0  0
   46.6437    5.2819    9.1311 H   0  0  0  0  0  0  0  0  0  0  0  0
   45.1789    6.0351    8.4695 H   0  0  0  0  0  0  0  0  0  0  0  0
   48.6059    2.1824    6.0786 H   0  0  0  0  0  0  0  0  0  0  0  0
   48.4285    3.4475    7.1493 H   0  0  0  0  0  0  0  0  0  0  0  0
   43.8251    1.4267   11.0798 H   0  0  0  0  0  0  0  0  0  0  0  0
   44.4226    6.3486   10.8640 H   0  0  0  0  0  0  0  0  0  0  0  0
   42.8562    2.8723   12.8287 H   0  0  0  0  0  0  0  0  0  0  0  0
   43.1577    5.3307   12.7245 H   0  0  0  0  0  0  0  0  0  0  0  0
  2  1  1  0
  3  1  1  0
  4  3  1  0
  5  2  2  3
  6  1  1  0
  7  8  1  0
  8  6  1  0
  9  2  1  0
 10  4  2  0
 11  7  2  0
 12 10  1  0
 13 11  1  0
  4  7  1  0
 12 13  2  0
 15 14  2  0
 16 14  2  0
 17 14  1  0
 18 14  1  0
 20 19  1  0
 21 19  1  0
 22 21  1  0
 23 20  2  3
 24 19  1  0
 25 26  1  0
 26 24  1  0
 27 20  1  0
 28 22  2  0
 29 25  2  0
 30 28  1  0
 31 29  1  0
 22 25  1  0
 30 31  2  0
  3 32  1  0
  3 33  1  0
  5 34  1  0
  6 35  1  0
  6 36  1  0
  8 37  1  0
  8 38  1  0
  9 39  1  0
  9 40  1  0
 10 41  1  0
 11 42  1  0
 12 43  1  0
 13 44  1  0
 17 45  1  0
 18 46  1  0
 21 47  1  0
 21 48  1  0
 23 49  1  0
 24 50  1  0
 24 51  1  0
 26 52  1  0
 26 53  1  0
 27 54  1  0
 27 55  1  0
 28 56  1  0
 29 57  1  0
 30 58  1  0
 31 59  1  0
M  END
> <Uni-Dock RESULT> 
ENERGY=   -8.308  LOWER_BOUND=    0.000  UPPER_BOUND=    0.000
INTER + INTRA:          -8.308
INTER:                  -8.308
INTRA:                   0.000
UNBOUND:                 0.000

$$$$

     RDKit          3D

 59 60  0  0  0  0  0  0  0  0999 V2000
   47.3533    6.9160   12.8215 N   0  0  0  0  0  0  0  0  0  0  0  0
   48.5213    7.5898   12.6060 C   0  0  0  0  0  0  0  0  0  0  0  0
   46.0765    7.4664   12.3488 C   0  0  0  0  0  0  0  0  0  0  0  0
   44.9451    6.4570   12.3482 C   0  0  0  0  0  0  0  0  0  0  0  0
   48.6768    8.7852   12.1585 N   0  0  0  0  0  0  0  0  0  0  0  0
   47.2036    6.0315   13.9883 C   0  0  0  0  0  0  0  0  0  0  0  0
   45.0722    5.1995   12.9650 C   0  0  0  0  0  0  0  0  0  0  0  0
   46.3779    4.8052   13.6036 C   0  0  0  0  0  0  0  0  0  0  0  0
   49.6447    6.8839   12.8518 N   0  0  0  0  0  0  0  0  0  0  0  0
   43.7251    6.7984   11.7422 C   0  0  0  0  0  0  0  0  0  0  0  0
   44.0010    4.2960   12.9383 C   0  0  0  0  0  0  0  0  0  0  0  0
   42.6591    5.8983   11.7319 C   0  0  0  0  0  0  0  0  0  0  0  0
   42.7983    4.6473   12.3272 C   0  0  0  0  0  0  0  0  0  0  0  0
   45.8470    6.5819   12.4517 S   0  0  0  0  0  0  0  0  0  0  0  0
   45.8212    6.3864   11.0246 O   0  0  0  0  0  0  0  0  0  0  0  0
   45.3867    7.7798   13.1064 O   0  0  0  0  0  0  0  0  0  0  0  0
   47.3440    6.3286   12.9698 O   0  0  0  0  0  0  0  0  0  0  0  0
   45.0811    5.3278   13.0951 O   0  0  0  0  0  0  0  0  0  0  0  0
   44.7577    5.4421   12.6120 N   0  0  0  0  0  0  0  0  0  0  0  0
   43.5033    4.9103   12.5217 C   0  0  0  0  0  0  0  0  0  0  0  0
   45.0489    6.7663   12.0477 C   0  0  0  0  0  0  0  0  0  0  0  0
   46.3598    7.3554   12.5307 C   0  0  0  0  0  0  0  0  0  0  0  0
   42.5036    5.3467   11.8407 N   0  0  0  0  0  0  0  0  0  0  0  0
   45.9394    4.5668   12.6696 C   0  0  0  0  0  0  0  0  0  0  0  0
   47.2939    6.5932   13.2548 C   0  0  0  0  0  0  0  0  0  0  0  0
   46.9790    5.1652   13.6157 C   0  0  0  0  0  0  0  0  0  0  0  0
   43.2863    3.8188   13.2848 N   0  0  0  0  0  0  0  0  0  0  0  0
   46.6645    8.6906   12.2201 C   0  0  0  0  0  0  0  0  0  0  0  0
   48.4925    7.1793   13.6839 C   0  0  0  0  0  0  0  0  0  0  0  0
   47.8661    9.2624   12.6394 C   0  0  0  0  0  0  0  0  0  0  0  0
   48.7778    8.5079   13.3731 C   0  0  0  0  0  0  0  0  0  0  0  0
   46.2006    7.8263   11.3198 H   0  0  0  0  0  0  0  0  0  0  0  0
   45.7896    8.3141   12.9832 H   0  0  0  0  0  0  0  0  0  0  0  0
   47.7723    9.2294   12.0132 H   0  0  0  0  0  0  0  0  0  0  0  0
   48.1663    5.6879   14.3824 H   0  0  0  0  0  0  0  0  0  0  0  0
   46.7157    6.5871   14.8003 H   0  0  0  0  0  0  0  0  0  0  0  0
   46.1926    4.2046   14.5018 H   0  0  0  0  0  0  0  0  0  0  0  0
   46.9375    4.1873   12.8906 H   0  0  0  0  0  0  0  0  0  0  0  0
   49.6072    5.9613   12.4393 H   0  0  0  0  0  0  0  0  0  0  0  0
   50.4411    7.4034   12.4962 H   0  0  0  0  0  0  0  0  0  0  0  0
   43.6003    7.7702   11.2690 H   0  0  0  0  0  0  0  0  0  0  0  0
   44.0990    3.3135   13.3943 H   0  0  0  0  0  0  0  0  0  0  0  0
   41.7211    6.1718   11.2559 H   0  0  0  0  0  0  0  0  0  0  0  0
   41.9701    3.9434   12.3132 H   0  0  0  0  0  0  0  0  0  0  0  0
   47.4142    6.7329   13.8594 H   0  0  0  0  0  0  0  0  0  0  0  0
   45.1781    4.5788   12.4711 H   0  0  0  0  0  0  0  0  0  0  0  0
   44.2484    7.4608   12.3317 H   0  0  0  0  0  0  0  0  0  0  0  0
   45.0786    6.6958   10.9533 H   0  0  0  0  0  0  0  0  0  0  0  0
   42.7745    6.1647   11.2985 H   0  0  0  0  0  0  0  0  0  0  0  0
   45.6985    3.5565   13.0183 H   0  0  0  0  0  0  0  0  0  0  0  0
   46.3546    4.4563   11.6590 H   0  0  0  0  0  0  0  0  0  0  0  0
   46.6016    5.1452   14.6455 H   0  0  0  0  0  0  0  0  0  0  0  0
   47.8895    4.5561   13.5754 H   0  0  0  0  0  0  0  0  0  0  0  0
   42.2924    3.6119   13.2839 H   0  0  0  0  0  0  0  0  0  0  0  0
   43.6233    3.9474   14.2296 H   0  0  0  0  0  0  0  0  0  0  0  0
   45.9619    9.2958   11.6511 H   0  0  0  0  0  0  0  0  0  0  0  0
   49.2102    6.6023   14.2629 H   0  0  0  0  0  0  0  0  0  0  0  0
   48.0892   10.2983   12.3970 H   0  0  0  0  0  0  0  0  0  0  0  0
   49.7108    8.9553   13.7056 H   0  0  0  0  0  0  0  0  0  0  0  0
  2  1  1  0
  3  1  1  0
  4  3  1  0
  5  2  2  3
  6  1  1  0
  7  8  1  0
  8  6  1  0
  9  2  1  0
 10  4  2  0
 11  7  2  0
 12 10  1  0
 13 11  1  0
  4  7  1  0
 12 13  2  0
 15 14  2  0
 16 14  2  0
 17 14  1  0
 18 14  1  0
 20 19  1  0
 21 19  1  0
 22 21  1  0
 23 20  2  3
 24 19  1  0
 25 26  1  0
 26 24  1  0
 27 20  1  0
 28 22  2  0
 29 25  2  0
 30 28  1  0
 31 29  1  0
 22 25  1  0
 30 31  2  0
  3 32  1  0
  3 33  1  0
  5 34  1  0
  6 35  1  0
  6 36  1  0
  8 37  1  0
  8 38  1  0
  9 39  1  0
  9 40  1  0
 10 41  1  0
 11 42  1  0
 12 43  1  0
 13 44  1  0
 17 45  1  0
 18 46  1  0
 21 47  1  0
 21 48  1  0
 23 49  1  0
 24 50  1  0
 24 51  1  0
 26 52  1  0
 26 53  1  0
 27 54  1  0
 27 55  1  0
 28 56  1  0
 29 57  1  0
 30 58  1  0
 31 59  1  0
M  END
> <Uni-Dock RESULT> 
ENERGY=   -6.823  LOWER_BOUND=    4.487  UPPER_BOUND=    6.210
INTER + INTRA:          -6.823
INTER:                  -6.823
INTRA:                   0.000
UNBOUND:                 0.000

$$$$

     RDKit          3D

 59 60  0  0  0  0  0  0  0  0999 V2000
   44.7643    5.4983   12.7695 N   0  0  0  0  0  0  0  0  0  0  0  0
   43.4533    5.1217   12.8348 C   0  0  0  0  0  0  0  0  0  0  0  0
   45.1542    6.7224   12.0581 C   0  0  0  0  0  0  0  0  0  0  0  0
   46.5646    7.1820   12.3721 C   0  0  0  0  0  0  0  0  0  0  0  0
   42.4522    5.6200   12.2001 N   0  0  0  0  0  0  0  0  0  0  0  0
   45.8357    4.4901   12.8131 C   0  0  0  0  0  0  0  0  0  0  0  0
   47.4668    6.3736   13.0864 C   0  0  0  0  0  0  0  0  0  0  0  0
   47.0223    5.0325   13.6079 C   0  0  0  0  0  0  0  0  0  0  0  0
   43.1828    4.1353   13.7147 N   0  0  0  0  0  0  0  0  0  0  0  0
   46.9929    8.4371   11.9102 C   0  0  0  0  0  0  0  0  0  0  0  0
   48.7608    6.8397   13.3565 C   0  0  0  0  0  0  0  0  0  0  0  0
   48.2872    8.8879   12.1717 C   0  0  0  0  0  0  0  0  0  0  0  0
   49.1691    8.0907   12.8966 C   0  0  0  0  0  0  0  0  0  0  0  0
   45.8919    6.6004   12.5933 S   0  0  0  0  0  0  0  0  0  0  0  0
   45.5060    7.7032   13.4362 O   0  0  0  0  0  0  0  0  0  0  0  0
   45.7265    6.5874   11.1623 O   0  0  0  0  0  0  0  0  0  0  0  0
   45.1828    5.2709   13.1439 O   0  0  0  0  0  0  0  0  0  0  0  0
   47.4301    6.2910   12.9274 O   0  0  0  0  0  0  0  0  0  0  0  0
   47.4110    6.8829   12.9455 N   0  0  0  0  0  0  0  0  0  0  0  0
   48.5843    7.5790   12.8865 C   0  0  0  0  0  0  0  0  0  0  0  0
   46.1931    7.4197   12.3249 C   0  0  0  0  0  0  0  0  0  0  0  0
   45.0891    6.3922   12.1695 C   0  0  0  0  0  0  0  0  0  0  0  0
   48.7723    8.7839   12.4785 N   0  0  0  0  0  0  0  0  0  0  0  0
   47.1335    5.9777   14.0723 C   0  0  0  0  0  0  0  0  0  0  0  0
   45.1614    5.1273   12.7798 C   0  0  0  0  0  0  0  0  0  0  0  0
   46.3846    4.7442   13.5707 C   0  0  0  0  0  0  0  0  0  0  0  0
   49.6811    6.8879   13.2607 N   0  0  0  0  0  0  0  0  0  0  0  0
   43.9480    6.7231   11.4208 C   0  0  0  0  0  0  0  0  0  0  0  0
   44.1186    4.2068   12.6074 C   0  0  0  0  0  0  0  0  0  0  0  0
   42.9082    5.8059   11.2654 C   0  0  0  0  0  0  0  0  0  0  0  0
   42.9950    4.5480   11.8560 C   0  0  0  0  0  0  0  0  0  0  0  0
   44.4707    7.5333   12.3392 H   0  0  0  0  0  0  0  0  0  0  0  0
   45.0726    6.5555   10.9770 H   0  0  0  0  0  0  0  0  0  0  0  0
   42.7648    6.3483   11.5611 H   0  0  0  0  0  0  0  0  0  0  0  0
   45.5120    3.5515   13.2761 H   0  0  0  0  0  0  0  0  0  0  0  0
   46.1384    4.2426   11.7869 H   0  0  0  0  0  0  0  0  0  0  0  0
   47.8475    4.3130   13.5513 H   0  0  0  0  0  0  0  0  0  0  0  0
   46.7434    5.1480   14.6625 H   0  0  0  0  0  0  0  0  0  0  0  0
   43.6196    4.3009   14.6117 H   0  0  0  0  0  0  0  0  0  0  0  0
   42.1758    4.0550   13.8160 H   0  0  0  0  0  0  0  0  0  0  0  0
   46.3156    9.0747   11.3457 H   0  0  0  0  0  0  0  0  0  0  0  0
   49.4571    6.2292   13.9269 H   0  0  0  0  0  0  0  0  0  0  0  0
   48.6062    9.8631   11.8131 H   0  0  0  0  0  0  0  0  0  0  0  0
   50.1751    8.4448   13.1062 H   0  0  0  0  0  0  0  0  0  0  0  0
   45.2133    4.6077   12.4236 H   0  0  0  0  0  0  0  0  0  0  0  0
   47.5891    6.5795   13.8500 H   0  0  0  0  0  0  0  0  0  0  0  0
   46.4376    7.7980   11.3244 H   0  0  0  0  0  0  0  0  0  0  0  0
   45.8140    8.2524   12.9304 H   0  0  0  0  0  0  0  0  0  0  0  0
   47.8849    9.2154   12.2276 H   0  0  0  0  0  0  0  0  0  0  0  0
   48.0459    5.6436   14.5785 H   0  0  0  0  0  0  0  0  0  0  0  0
   46.5383    6.5121   14.8246 H   0  0  0  0  0  0  0  0  0  0  0  0
   47.0398    4.1470   12.9246 H   0  0  0  0  0  0  0  0  0  0  0  0
   46.1000    4.1265   14.4304 H   0  0  0  0  0  0  0  0  0  0  0  0
   50.5060    7.4259   13.0144 H   0  0  0  0  0  0  0  0  0  0  0  0
   49.7120    5.9716   12.8340 H   0  0  0  0  0  0  0  0  0  0  0  0
   43.8653    7.7001   10.9492 H   0  0  0  0  0  0  0  0  0  0  0  0
   44.1771    3.2188   13.0585 H   0  0  0  0  0  0  0  0  0  0  0  0
   42.0317    6.0716   10.6800 H   0  0  0  0  0  0  0  0  0  0  0  0
   42.1881    3.8311   11.7293 H   0  0  0  0  0  0  0  0  0  0  0  0
  2  1  1  0
  3  1  1  0
  4  3  1  0
  5  2  2  3
  6  1  1  0
  7  8  1  0
  8  6  1  0
  9  2  1  0
 10  4  2  0
 11  7  2  0
 12 10  1  0
 13 11  1  0
  4  7  1  0
 12 13  2  0
 15 14  2  0
 16 14  2  0
 17 14  1  0
 18 14  1  0
 20 19  1  0
 21 19  1  0
 22 21  1  0
 23 20  2  3
 24 19  1  0
 25 26  1  0
 26 24  1  0
 27 20  1  0
 28 22  2  0
 29 25  2  0
 30 28  1  0
 31 29  1  0
 22 25  1  0
 30 31  2  0
  3 32  1  0
  3 33  1  0
  5 34  1  0
  6 35  1  0
  6 36  1  0
  8 37  1  0
  8 38  1  0
  9 39  1  0
  9 40  1  0
 10 41  1  0
 11 42  1  0
 12 43  1  0
 13 44  1  0
 17 45  1  0
 18 46  1  0
 21 47  1  0
 21 48  1  0
 23 49  1  0
 24 50  1  0
 24 51  1  0
 26 52  1  0
 26 53  1  0
 27 54  1  0
 27 55  1  0
 28 56  1  0
 29 57  1  0
 30 58  1  0
 31 59  1  0
M  END
> <Uni-Dock RESULT> 
ENERGY=   -6.280  LOWER_BOUND=    4.509  UPPER_BOUND=    5.829
INTER + INTRA:          -6.280
INTER:                  -6.280
INTRA:                   0.000
UNBOUND:                 0.000

$$$$

     RDKit          3D

 59 60  0  0  0  0  0  0  0  0999 V2000
   45.6640    5.0791   11.8694 N   0  0  0  0  0  0  0  0  0  0  0  0
   45.0209    4.5252   10.7996 C   0  0  0  0  0  0  0  0  0  0  0  0
   45.6975    4.3828   13.1619 C   0  0  0  0  0  0  0  0  0  0  0  0
   46.7268    4.9421   14.1245 C   0  0  0  0  0  0  0  0  0  0  0  0
   44.2567    3.4913   10.7815 N   0  0  0  0  0  0  0  0  0  0  0  0
   45.7806    6.5406   11.9981 C   0  0  0  0  0  0  0  0  0  0  0  0
   47.3994    6.1511   13.8717 C   0  0  0  0  0  0  0  0  0  0  0  0
   47.1425    6.8992   12.5902 C   0  0  0  0  0  0  0  0  0  0  0  0
   45.2656    5.1186    9.6128 N   0  0  0  0  0  0  0  0  0  0  0  0
   46.9940    4.2502   15.3170 C   0  0  0  0  0  0  0  0  0  0  0  0
   48.3454    6.6300   14.7884 C   0  0  0  0  0  0  0  0  0  0  0  0
   47.9275    4.7409   16.2306 C   0  0  0  0  0  0  0  0  0  0  0  0
   48.6043    5.9284   15.9648 C   0  0  0  0  0  0  0  0  0  0  0  0
   46.4074    4.9579   13.2658 S   0  0  0  0  0  0  0  0  0  0  0  0
   47.3490    3.8769   13.1231 O   0  0  0  0  0  0  0  0  0  0  0  0
   45.1511    4.8419   13.9611 O   0  0  0  0  0  0  0  0  0  0  0  0
   46.0664    5.5274   11.8053 O   0  0  0  0  0  0  0  0  0  0  0  0
   47.2218    6.1886   13.8948 O   0  0  0  0  0  0  0  0  0  0  0  0
   47.4486    5.7233   14.1831 N   0  0  0  0  0  0  0  0  0  0  0  0
   48.1573    5.9440   15.3293 C   0  0  0  0  0  0  0  0  0  0  0  0
   46.6183    4.5206   14.0393 C   0  0  0  0  0  0  0  0  0  0  0  0
   45.6390    4.5953   12.8842 C   0  0  0  0  0  0  0  0  0  0  0  0
   48.3481    5.1367   16.3119 N   0  0  0  0  0  0  0  0  0  0  0  0
   47.9243    6.2534   12.8952 C   0  0  0  0  0  0  0  0  0  0  0  0
   45.7034    5.6187   11.9218 C   0  0  0  0  0  0  0  0  0  0  0  0
   46.7337    6.7094   12.0535 C   0  0  0  0  0  0  0  0  0  0  0  0
   48.6753    7.1836   15.4541 N   0  0  0  0  0  0  0  0  0  0  0  0
   44.6591    3.5979   12.7535 C   0  0  0  0  0  0  0  0  0  0  0  0
   44.7758    5.6505   10.8715 C   0  0  0  0  0  0  0  0  0  0  0  0
   43.7481    3.6293   11.6972 C   0  0  0  0  0  0  0  0  0  0  0  0
   43.8050    4.6564   10.7589 C   0  0  0  0  0  0  0  0  0  0  0  0
   45.9404    3.3262   12.9934 H   0  0  0  0  0  0  0  0  0  0  0  0
   44.7084    4.4433   13.6324 H   0  0  0  0  0  0  0  0  0  0  0  0
   44.1328    3.1259   11.7237 H   0  0  0  0  0  0  0  0  0  0  0  0
   45.6764    7.0575   11.0378 H   0  0  0  0  0  0  0  0  0  0  0  0
   44.9703    6.9107   12.6401 H   0  0  0  0  0  0  0  0  0  0  0  0
   47.1790    7.9800   12.7702 H   0  0  0  0  0  0  0  0  0  0  0  0
   47.9374    6.6459   11.8779 H   0  0  0  0  0  0  0  0  0  0  0  0
   46.2531    5.2850    9.4718 H   0  0  0  0  0  0  0  0  0  0  0  0
   44.8914    4.5340    8.8720 H   0  0  0  0  0  0  0  0  0  0  0  0
   46.4772    3.3188   15.5388 H   0  0  0  0  0  0  0  0  0  0  0  0
   48.8852    7.5530   14.5896 H   0  0  0  0  0  0  0  0  0  0  0  0
   48.1295    4.1945   17.1482 H   0  0  0  0  0  0  0  0  0  0  0  0
   49.3364    6.3071   16.6733 H   0  0  0  0  0  0  0  0  0  0  0  0
   45.2383    6.0450   11.8831 H   0  0  0  0  0  0  0  0  0  0  0  0
   48.1581    6.0826   13.6268 H   0  0  0  0  0  0  0  0  0  0  0  0
   46.0370    4.3745   14.9583 H   0  0  0  0  0  0  0  0  0  0  0  0
   47.2665    3.6475   13.8931 H   0  0  0  0  0  0  0  0  0  0  0  0
   47.9244    4.2322   16.1147 H   0  0  0  0  0  0  0  0  0  0  0  0
   48.6057    7.1029   13.0153 H   0  0  0  0  0  0  0  0  0  0  0  0
   48.4910    5.4718   12.3719 H   0  0  0  0  0  0  0  0  0  0  0  0
   46.2568    7.5792   12.5221 H   0  0  0  0  0  0  0  0  0  0  0  0
   47.0928    7.0111   11.0628 H   0  0  0  0  0  0  0  0  0  0  0  0
   49.0225    7.2987   16.4011 H   0  0  0  0  0  0  0  0  0  0  0  0
   47.9957    7.8992   15.2335 H   0  0  0  0  0  0  0  0  0  0  0  0
   44.5979    2.7902   13.4799 H   0  0  0  0  0  0  0  0  0  0  0  0
   44.8059    6.4508   10.1355 H   0  0  0  0  0  0  0  0  0  0  0  0
   42.9911    2.8543   11.6087 H   0  0  0  0  0  0  0  0  0  0  0  0
   43.0910    4.6847    9.9399 H   0  0  0  0  0  0  0  0  0  0  0  0
  2  1  1  0
  3  1  1  0
  4  3  1  0
  5  2  2  3
  6  1  1  0
  7  8  1  0
  8  6  1  0
  9  2  1  0
 10  4  2  0
 11  7  2  0
 12 10  1  0
 13 11  1  0
  4  7  1  0
 12 13  2  0
 15 14  2  0
 16 14  2  0
 17 14  1  0
 18 14  1  0
 20 19  1  0
 21 19  1  0
 22 21  1  0
 23 20  2  3
 24 19  1  0
 25 26  1  0
 26 24  1  0
 27 20  1  0
 28 22  2  0
 29 25  2  0
 30 28  1  0
 31 29  1  0
 22 25  1  0
 30 31  2  0
  3 32  1  0
  3 33  1  0
  5 34  1  0
  6 35  1  0
  6 36  1  0
  8 37  1  0
  8 38  1  0
  9 39  1  0
  9 40  1  0
 10 41  1  0
 11 42  1  0
 12 43  1  0
 13 44  1  0
 17 45  1  0
 18 46  1  0
 21 47  1  0
 21 48  1  0
 23 49  1  0
 24 50  1  0
 24 51  1  0
 26 52  1  0
 26 53  1  0
 27 54  1  0
 27 55  1  0
 28 56  1  0
 29 57  1  0
 30 58  1  0
 31 59  1  0
M  END
> <Uni-Dock RESULT> 
ENERGY=   -6.170  LOWER_BOUND=    4.117  UPPER_BOUND=    5.858
INTER + INTRA:          -6.170
INTER:                  -6.170
INTRA:                   0.000
UNBOUND:                 0.000

$$$$

     RDKit          3D

 59 60  0  0  0  0  0  0  0  0999 V2000
   44.8068    5.4075   11.8044 N   0  0  0  0  0  0  0  0  0  0  0  0
   44.2062    4.4588   11.0272 C   0  0  0  0  0  0  0  0  0  0  0  0
   45.7857    5.0221   12.8291 C   0  0  0  0  0  0  0  0  0  0  0  0
   46.6071    6.1854   13.3497 C   0  0  0  0  0  0  0  0  0  0  0  0
   44.2494    3.1806   11.1602 N   0  0  0  0  0  0  0  0  0  0  0  0
   44.1159    6.6700   12.1123 C   0  0  0  0  0  0  0  0  0  0  0  0
   46.2832    7.5189   13.0423 C   0  0  0  0  0  0  0  0  0  0  0  0
   45.1232    7.8184   12.1296 C   0  0  0  0  0  0  0  0  0  0  0  0
   43.5264    4.9348    9.9633 N   0  0  0  0  0  0  0  0  0  0  0  0
   47.7038    5.9265   14.1878 C   0  0  0  0  0  0  0  0  0  0  0  0
   47.0719    8.5636   13.5434 C   0  0  0  0  0  0  0  0  0  0  0  0
   48.4757    6.9730   14.6934 C   0  0  0  0  0  0  0  0  0  0  0  0
   48.1613    8.2900   14.3691 C   0  0  0  0  0  0  0  0  0  0  0  0
   46.0019    5.9092   12.7195 S   0  0  0  0  0  0  0  0  0  0  0  0
   47.2123    5.5635   12.0187 O   0  0  0  0  0  0  0  0  0  0  0  0
   45.4895    5.1741   13.8475 O   0  0  0  0  0  0  0  0  0  0  0  0
   44.8067    5.9941   11.6528 O   0  0  0  0  0  0  0  0  0  0  0  0
   46.1476    7.4494   13.1434 O   0  0  0  0  0  0  0  0  0  0  0  0
   46.6952    7.2401   13.2288 N   0  0  0  0  0  0  0  0  0  0  0  0
   47.5637    7.9670   13.9916 C   0  0  0  0  0  0  0  0  0  0  0  0
   46.7331    5.7721   13.2492 C   0  0  0  0  0  0  0  0  0  0  0  0
   45.5038    5.1261   12.6408 C   0  0  0  0  0  0  0  0  0  0  0  0
   48.5812    7.5454   14.6553 N   0  0  0  0  0  0  0  0  0  0  0  0
   46.1692    7.7861   11.9674 C   0  0  0  0  0  0  0  0  0  0  0  0
   44.5513    5.8721   11.9240 C   0  0  0  0  0  0  0  0  0  0  0  0
   44.7117    7.3637   11.7905 C   0  0  0  0  0  0  0  0  0  0  0  0
   47.2780    9.2820   14.0911 N   0  0  0  0  0  0  0  0  0  0  0  0
   45.3262    3.7390   12.7696 C   0  0  0  0  0  0  0  0  0  0  0  0
   43.4280    5.2340   11.3803 C   0  0  0  0  0  0  0  0  0  0  0  0
   44.2122    3.1095   12.2136 C   0  0  0  0  0  0  0  0  0  0  0  0
   43.2627    3.8571   11.5221 C   0  0  0  0  0  0  0  0  0  0  0  0
   46.4817    4.2893   12.4020 H   0  0  0  0  0  0  0  0  0  0  0  0
   45.2628    4.5566   13.6736 H   0  0  0  0  0  0  0  0  0  0  0  0
   44.7784    2.9287   11.9928 H   0  0  0  0  0  0  0  0  0  0  0  0
   43.3333    6.9101   11.3843 H   0  0  0  0  0  0  0  0  0  0  0  0
   43.6171    6.5785   13.0864 H   0  0  0  0  0  0  0  0  0  0  0  0
   44.6142    8.7336   12.4539 H   0  0  0  0  0  0  0  0  0  0  0  0
   45.5145    7.9867   11.1187 H   0  0  0  0  0  0  0  0  0  0  0  0
   44.0626    5.6225    9.4512 H   0  0  0  0  0  0  0  0  0  0  0  0
   43.2744    4.1566    9.3620 H   0  0  0  0  0  0  0  0  0  0  0  0
   47.9660    4.9031   14.4482 H   0  0  0  0  0  0  0  0  0  0  0  0
   46.8405    9.5963   13.2925 H   0  0  0  0  0  0  0  0  0  0  0  0
   49.3250    6.7603   15.3375 H   0  0  0  0  0  0  0  0  0  0  0  0
   48.7667    9.1049   14.7575 H   0  0  0  0  0  0  0  0  0  0  0  0
   43.9671    5.9427   12.1549 H   0  0  0  0  0  0  0  0  0  0  0  0
   46.7471    7.8723   12.4943 H   0  0  0  0  0  0  0  0  0  0  0  0
   46.8075    5.4301   14.2891 H   0  0  0  0  0  0  0  0  0  0  0  0
   47.6185    5.4244   12.7027 H   0  0  0  0  0  0  0  0  0  0  0  0
   48.7116    6.5466   14.5071 H   0  0  0  0  0  0  0  0  0  0  0  0
   46.2170    8.8800   11.9298 H   0  0  0  0  0  0  0  0  0  0  0  0
   46.7821    7.4192   11.1334 H   0  0  0  0  0  0  0  0  0  0  0  0
   44.0880    7.8471   12.5525 H   0  0  0  0  0  0  0  0  0  0  0  0
   44.3623    7.6943   10.8054 H   0  0  0  0  0  0  0  0  0  0  0  0
   47.8667    9.6907   14.8101 H   0  0  0  0  0  0  0  0  0  0  0  0
   46.3006    9.4400   14.2975 H   0  0  0  0  0  0  0  0  0  0  0  0
   46.0563    3.1401   13.3101 H   0  0  0  0  0  0  0  0  0  0  0  0
   42.6761    5.8078   10.8432 H   0  0  0  0  0  0  0  0  0  0  0  0
   44.0830    2.0358   12.3235 H   0  0  0  0  0  0  0  0  0  0  0  0
   42.3914    3.3678   11.0948 H   0  0  0  0  0  0  0  0  0  0  0  0
  2  1  1  0
  3  1  1  0
  4  3  1  0
  5  2  2  3
  6  1  1  0
  7  8  1  0
  8  6  1  0
  9  2  1  0
 10  4  2  0
 11  7  2  0
 12 10  1  0
 13 11  1  0
  4  7  1  0
 12 13  2  0
 15 14  2  0
 16 14  2  0
 17 14  1  0
 18 14  1  0
 20 19  1  0
 21 19  1  0
 22 21  1  0
 23 20  2  3
 24 19  1  0
 25 26  1  0
 26 24  1  0
 27 20  1  0
 28 22  2  0
 29 25  2  0
 30 28  1  0
 31 29  1  0
 22 25  1  0
 30 31  2  0
  3 32  1  0
  3 33  1  0
  5 34  1  0
  6 35  1  0
  6 36  1  0
  8 37  1  0
  8 38  1  0
  9 39  1  0
  9 40  1  0
 10 41  1  0
 11 42  1  0
 12 43  1  0
 13 44  1  0
 17 45  1  0
 18 46  1  0
 21 47  1  0
 21 48  1  0
 23 49  1  0
 24 50  1  0
 24 51  1  0
 26 52  1  0
 26 53  1  0
 27 54  1  0
 27 55  1  0
 28 56  1  0
 29 57  1  0
 30 58  1  0
 31 59  1  0
M  END
> <Uni-Dock RESULT> 
ENERGY=   -5.901  LOWER_BOUND=    3.774  UPPER_BOUND=    5.815
INTER + INTRA:          -5.901
INTER:                  -5.901
INTRA:                   0.000
UNBOUND:                 0.000

$$$$

     RDKit          3D

 59 60  0  0  0  0  0  0  0  0999 V2000
   46.8761    9.2145   12.2297 N   0  0  0  0  0  0  0  0  0  0  0  0
   46.9594   10.3983   11.5540 C   0  0  0  0  0  0  0  0  0  0  0  0
   45.6139    8.4648   12.2681 C   0  0  0  0  0  0  0  0  0  0  0  0
   45.7739    7.0337   12.7430 C   0  0  0  0  0  0  0  0  0  0  0  0
   46.0036   11.0859   11.0374 N   0  0  0  0  0  0  0  0  0  0  0  0
   47.7366    8.9558   13.3953 C   0  0  0  0  0  0  0  0  0  0  0  0
   46.9748    6.5694   13.3085 C   0  0  0  0  0  0  0  0  0  0  0  0
   48.1635    7.4890   13.4059 C   0  0  0  0  0  0  0  0  0  0  0  0
   48.2111   10.8681   11.3718 N   0  0  0  0  0  0  0  0  0  0  0  0
   44.6828    6.1552   12.6443 C   0  0  0  0  0  0  0  0  0  0  0  0
   47.0793    5.2374   13.7320 C   0  0  0  0  0  0  0  0  0  0  0  0
   44.7910    4.8344   13.0808 C   0  0  0  0  0  0  0  0  0  0  0  0
   45.9892    4.3756   13.6216 C   0  0  0  0  0  0  0  0  0  0  0  0
   46.2088    7.7978   12.4846 S   0  0  0  0  0  0  0  0  0  0  0  0
   46.0543    7.1912   11.1870 O   0  0  0  0  0  0  0  0  0  0  0  0
   45.1289    8.4030   13.2216 O   0  0  0  0  0  0  0  0  0  0  0  0
   47.3690    8.9018   12.3917 O   0  0  0  0  0  0  0  0  0  0  0  0
   46.9047    6.6962   13.4202 O   0  0  0  0  0  0  0  0  0  0  0  0
   46.5298    6.3715   13.0961 N   0  0  0  0  0  0  0  0  0  0  0  0
   46.2211    5.1101   13.5182 C   0  0  0  0  0  0  0  0  0  0  0  0
   45.5245    7.1970   12.4145 C   0  0  0  0  0  0  0  0  0  0  0  0
   45.9011    8.6633   12.3301 C   0  0  0  0  0  0  0  0  0  0  0  0
   45.1641    4.4241   13.2616 N   0  0  0  0  0  0  0  0  0  0  0  0
   47.9106    6.7194   12.7240 C   0  0  0  0  0  0  0  0  0  0  0  0
   47.1890    9.1191   12.6638 C   0  0  0  0  0  0  0  0  0  0  0  0
   48.2213    8.1468   13.1711 C   0  0  0  0  0  0  0  0  0  0  0  0
   47.1245    4.5446   14.3455 N   0  0  0  0  0  0  0  0  0  0  0  0
   44.9472    9.5888   11.8766 C   0  0  0  0  0  0  0  0  0  0  0  0
   47.4929   10.4843   12.5735 C   0  0  0  0  0  0  0  0  0  0  0  0
   45.2622   10.9443   11.7766 C   0  0  0  0  0  0  0  0  0  0  0  0
   46.5332   11.3916   12.1275 C   0  0  0  0  0  0  0  0  0  0  0  0
   45.1850    8.4335   11.2587 H   0  0  0  0  0  0  0  0  0  0  0  0
   44.9073    8.9775   12.9323 H   0  0  0  0  0  0  0  0  0  0  0  0
   45.1055   10.6500   11.2372 H   0  0  0  0  0  0  0  0  0  0  0  0
   48.6392    9.5766   13.3984 H   0  0  0  0  0  0  0  0  0  0  0  0
   47.1849    9.2046   14.3117 H   0  0  0  0  0  0  0  0  0  0  0  0
   48.7222    7.2875   14.3274 H   0  0  0  0  0  0  0  0  0  0  0  0
   48.8261    7.2872   12.5553 H   0  0  0  0  0  0  0  0  0  0  0  0
   48.8388   10.1478   11.0403 H   0  0  0  0  0  0  0  0  0  0  0  0
   48.1769   11.6428   10.7166 H   0  0  0  0  0  0  0  0  0  0  0  0
   43.7403    6.4959   12.2206 H   0  0  0  0  0  0  0  0  0  0  0  0
   48.0117    4.8652   14.1505 H   0  0  0  0  0  0  0  0  0  0  0  0
   43.9412    4.1621   12.9953 H   0  0  0  0  0  0  0  0  0  0  0  0
   46.0756    3.3448   13.9554 H   0  0  0  0  0  0  0  0  0  0  0  0
   47.2713    9.4898   13.1691 H   0  0  0  0  0  0  0  0  0  0  0  0
   47.4270    6.1088   12.8355 H   0  0  0  0  0  0  0  0  0  0  0  0
   44.5752    7.1291   12.9603 H   0  0  0  0  0  0  0  0  0  0  0  0
   45.3709    6.8157   11.3973 H   0  0  0  0  0  0  0  0  0  0  0  0
   44.5547    4.9364   12.6270 H   0  0  0  0  0  0  0  0  0  0  0  0
   48.6500    6.0490   13.1759 H   0  0  0  0  0  0  0  0  0  0  0  0
   48.0255    6.6212   11.6363 H   0  0  0  0  0  0  0  0  0  0  0  0
   48.2358    8.1998   14.2667 H   0  0  0  0  0  0  0  0  0  0  0  0
   49.2157    8.4263   12.8040 H   0  0  0  0  0  0  0  0  0  0  0  0
   46.7238    3.6980   14.7372 H   0  0  0  0  0  0  0  0  0  0  0  0
   47.4094    5.1779   15.0807 H   0  0  0  0  0  0  0  0  0  0  0  0
   43.9480    9.2571   11.6020 H   0  0  0  0  0  0  0  0  0  0  0  0
   48.4802   10.8472   12.8504 H   0  0  0  0  0  0  0  0  0  0  0  0
   44.5143   11.6521   11.4285 H   0  0  0  0  0  0  0  0  0  0  0  0
   46.7765   12.4485   12.0561 H   0  0  0  0  0  0  0  0  0  0  0  0
  2  1  1  0
  3  1  1  0
  4  3  1  0
  5  2  2  3
  6  1  1  0
  7  8  1  0
  8  6  1  0
  9  2  1  0
 10  4  2  0
 11  7  2  0
 12 10  1  0
 13 11  1  0
  4  7  1  0
 12 13  2  0
 15 14  2  0
 16 14  2  0
 17 14  1  0
 18 14  1  0
 20 19  1  0
 21 19  1  0
 22 21  1  0
 23 20  2  3
 24 19  1  0
 25 26  1  0
 26 24  1  0
 27 20  1  0
 28 22  2  0
 29 25  2  0
 30 28  1  0
 31 29  1  0
 22 25  1  0
 30 31  2  0
  3 32  1  0
  3 33  1  0
  5 34  1  0
  6 35  1  0
  6 36  1  0
  8 37  1  0
  8 38  1  0
  9 39  1  0
  9 40  1  0
 10 41  1  0
 11 42  1  0
 12 43  1  0
 13 44  1  0
 17 45  1  0
 18 46  1  0
 21 47  1  0
 21 48  1  0
 23 49  1  0
 24 50  1  0
 24 51  1  0
 26 52  1  0
 26 53  1  0
 27 54  1  0
 27 55  1  0
 28 56  1  0
 29 57  1  0
 30 58  1  0
 31 59  1  0
M  END
> <Uni-Dock RESULT> 
ENERGY=   -5.578  LOWER_BOUND=    5.023  UPPER_BOUND=    6.691
INTER + INTRA:          -5.578
INTER:                  -5.578
INTRA:                   0.000
UNBOUND:                 0.000

$$$$

     RDKit          3D

 59 60  0  0  0  0  0  0  0  0999 V2000
   47.0530    6.0688   13.7422 N   0  0  0  0  0  0  0  0  0  0  0  0
   47.6447    6.5988   14.8531 C   0  0  0  0  0  0  0  0  0  0  0  0
   46.3995    4.7549   13.8003 C   0  0  0  0  0  0  0  0  0  0  0  0
   45.5022    4.4720   12.6113 C   0  0  0  0  0  0  0  0  0  0  0  0
   47.8702    6.0257   15.9818 N   0  0  0  0  0  0  0  0  0  0  0  0
   47.5444    6.4100   12.3975 C   0  0  0  0  0  0  0  0  0  0  0  0
   45.4994    5.2953   11.4711 C   0  0  0  0  0  0  0  0  0  0  0  0
   46.3662    6.5262   11.4320 C   0  0  0  0  0  0  0  0  0  0  0  0
   47.9860    7.9006   14.7555 N   0  0  0  0  0  0  0  0  0  0  0  0
   44.6730    3.3389   12.6355 C   0  0  0  0  0  0  0  0  0  0  0  0
   44.6516    4.9974   10.3955 C   0  0  0  0  0  0  0  0  0  0  0  0
   43.8419    3.0420   11.5548 C   0  0  0  0  0  0  0  0  0  0  0  0
   43.8295    3.8724   10.4372 C   0  0  0  0  0  0  0  0  0  0  0  0
   46.0032    5.1034   13.0472 S   0  0  0  0  0  0  0  0  0  0  0  0
   44.7597    5.2963   13.7488 O   0  0  0  0  0  0  0  0  0  0  0  0
   46.8681    3.9682   13.2438 O   0  0  0  0  0  0  0  0  0  0  0  0
   46.9117    6.4082   13.2607 O   0  0  0  0  0  0  0  0  0  0  0  0
   45.6637    5.2158   11.4834 O   0  0  0  0  0  0  0  0  0  0  0  0
   45.1950    4.9224   11.6961 N   0  0  0  0  0  0  0  0  0  0  0  0
   44.3848    4.2580   10.8205 C   0  0  0  0  0  0  0  0  0  0  0  0
   45.4376    4.3863   13.0417 C   0  0  0  0  0  0  0  0  0  0  0  0
   46.6114    5.0346   13.7493 C   0  0  0  0  0  0  0  0  0  0  0  0
   43.6255    3.2466   11.0532 N   0  0  0  0  0  0  0  0  0  0  0  0
   45.3344    6.3857   11.6242 C   0  0  0  0  0  0  0  0  0  0  0  0
   47.2364    6.1890   13.2449 C   0  0  0  0  0  0  0  0  0  0  0  0
   46.7755    6.7828   11.9398 C   0  0  0  0  0  0  0  0  0  0  0  0
   44.4338    4.6983    9.5460 N   0  0  0  0  0  0  0  0  0  0  0  0
   47.0682    4.4858   14.9585 C   0  0  0  0  0  0  0  0  0  0  0  0
   48.3204    6.7538   13.9307 C   0  0  0  0  0  0  0  0  0  0  0  0
   48.1392    5.0622   15.6420 C   0  0  0  0  0  0  0  0  0  0  0  0
   48.7663    6.1936   15.1268 C   0  0  0  0  0  0  0  0  0  0  0  0
   45.7794    4.7029   14.7038 H   0  0  0  0  0  0  0  0  0  0  0  0
   47.1649    3.9710   13.8561 H   0  0  0  0  0  0  0  0  0  0  0  0
   47.5834    5.0495   15.9469 H   0  0  0  0  0  0  0  0  0  0  0  0
   48.0986    7.3548   12.3790 H   0  0  0  0  0  0  0  0  0  0  0  0
   48.2437    5.6325   12.0623 H   0  0  0  0  0  0  0  0  0  0  0  0
   46.7513    6.6847   10.4179 H   0  0  0  0  0  0  0  0  0  0  0  0
   45.7480    7.3918   11.7002 H   0  0  0  0  0  0  0  0  0  0  0  0
   47.2357    8.4584   14.3700 H   0  0  0  0  0  0  0  0  0  0  0  0
   48.2479    8.2394   15.6760 H   0  0  0  0  0  0  0  0  0  0  0  0
   44.6671    2.6814   13.5024 H   0  0  0  0  0  0  0  0  0  0  0  0
   44.6281    5.6414    9.5193 H   0  0  0  0  0  0  0  0  0  0  0  0
   43.2010    2.1648   11.5866 H   0  0  0  0  0  0  0  0  0  0  0  0
   43.1771    3.6449    9.5981 H   0  0  0  0  0  0  0  0  0  0  0  0
   47.8321    6.1594   13.0357 H   0  0  0  0  0  0  0  0  0  0  0  0
   44.8735    5.7888   11.3997 H   0  0  0  0  0  0  0  0  0  0  0  0
   45.6473    3.3120   12.9670 H   0  0  0  0  0  0  0  0  0  0  0  0
   44.5386    4.5251   13.6550 H   0  0  0  0  0  0  0  0  0  0  0  0
   43.6563    3.0003   12.0406 H   0  0  0  0  0  0  0  0  0  0  0  0
   45.0760    6.7853   10.6374 H   0  0  0  0  0  0  0  0  0  0  0  0
   44.6405    6.8485   12.3385 H   0  0  0  0  0  0  0  0  0  0  0  0
   47.4429    6.4279   11.1448 H   0  0  0  0  0  0  0  0  0  0  0  0
   46.8432    7.8762   11.9777 H   0  0  0  0  0  0  0  0  0  0  0  0
   43.9424    4.0371    8.9528 H   0  0  0  0  0  0  0  0  0  0  0  0
   45.3855    4.8245    9.2280 H   0  0  0  0  0  0  0  0  0  0  0  0
   46.5924    3.5996   15.3734 H   0  0  0  0  0  0  0  0  0  0  0  0
   48.8226    7.6340   13.5356 H   0  0  0  0  0  0  0  0  0  0  0  0
   48.4871    4.6260   16.5749 H   0  0  0  0  0  0  0  0  0  0  0  0
   49.6050    6.6387   15.6557 H   0  0  0  0  0  0  0  0  0  0  0  0
  2  1  1  0
  3  1  1  0
  4  3  1  0
  5  2  2  3
  6  1  1  0
  7  8  1  0
  8  6  1  0
  9  2  1  0
 10  4  2  0
 11  7  2  0
 12 10  1  0
 13 11  1  0
  4  7  1  0
 12 13  2  0
 15 14  2  0
 16 14  2  0
 17 14  1  0
 18 14  1  0
 20 19  1  0
 21 19  1  0
 22 21  1  0
 23 20  2  3
 24 19  1  0
 25 26  1  0
 26 24  1  0
 27 20  1  0
 28 22  2  0
 29 25  2  0
 30 28  1  0
 31 29  1  0
 22 25  1  0
 30 31  2  0
  3 32  1  0
  3 33  1  0
  5 34  1  0
  6 35  1  0
  6 36  1  0
  8 37  1  0
  8 38  1  0
  9 39  1  0
  9 40  1  0
 10 41  1  0
 11 42  1  0
 12 43  1  0
 13 44  1  0
 17 45  1  0
 18 46  1  0
 21 47  1  0
 21 48  1  0
 23 49  1  0
 24 50  1  0
 24 51  1  0
 26 52  1  0
 26 53  1  0
 27 54  1  0
 27 55  1  0
 28 56  1  0
 29 57  1  0
 30 58  1  0
 31 59  1  0
M  END
> <Uni-Dock RESULT> 
ENERGY=   -5.438  LOWER_BOUND=    3.785  UPPER_BOUND=    5.088
INTER + INTRA:          -5.438
INTER:                  -5.438
INTRA:                   0.000
UNBOUND:                 0.000

$$$$
