
     RDKit          3D

 59 60  0  0  0  0  0  0  0  0999 V2000
   44.8240    5.3760   12.8578 N   0  0  0  0  0  0  0  0  0  0  0  0
   43.5832    4.8451   12.6552 C   0  0  0  0  0  0  0  0  0  0  0  0
   45.0680    6.8073   12.6395 C   0  0  0  0  0  0  0  0  0  0  0  0
   46.5414    7.1607   12.5592 C   0  0  0  0  0  0  0  0  0  0  0  0
   42.4721    5.4685   12.4873 N   0  0  0  0  0  0  0  0  0  0  0  0
   45.7365    4.7796   13.8463 C   0  0  0  0  0  0  0  0  0  0  0  0
   47.5450    6.2373   12.9048 C   0  0  0  0  0  0  0  0  0  0  0  0
   47.1698    4.8372   13.3189 C   0  0  0  0  0  0  0  0  0  0  0  0
   43.5453    3.4988   12.5890 N   0  0  0  0  0  0  0  0  0  0  0  0
   46.9136    8.4498   12.1481 C   0  0  0  0  0  0  0  0  0  0  0  0
   48.8945    6.6021   12.8052 C   0  0  0  0  0  0  0  0  0  0  0  0
   48.2590    8.8068   12.0602 C   0  0  0  0  0  0  0  0  0  0  0  0
   49.2478    7.8838   12.3876 C   0  0  0  0  0  0  0  0  0  0  0  0
   45.9520    5.9615   12.4147 S   0  0  0  0  0  0  0  0  0  0  0  0
   44.9200    4.9867   12.1725 O   0  0  0  0  0  0  0  0  0  0  0  0
   46.9911    6.2456   11.4553 O   0  0  0  0  0  0  0  0  0  0  0  0
   46.6936    5.5409   13.7747 O   0  0  0  0  0  0  0  0  0  0  0  0
   45.2823    7.3614   12.8234 O   0  0  0  0  0  0  0  0  0  0  0  0
   47.0552    7.2034   13.5965 N   0  0  0  0  0  0  0  0  0  0  0  0
   48.1490    7.5776   12.8723 C   0  0  0  0  0  0  0  0  0  0  0  0
   45.6968    7.4721   13.1130 C   0  0  0  0  0  0  0  0  0  0  0  0
   45.0752    6.2665   12.4379 C   0  0  0  0  0  0  0  0  0  0  0  0
   48.2263    7.7774   11.6072 N   0  0  0  0  0  0  0  0  0  0  0  0
   47.1231    5.9586   14.3811 C   0  0  0  0  0  0  0  0  0  0  0  0
   45.5881    4.9690   12.6399 C   0  0  0  0  0  0  0  0  0  0  0  0
   46.8339    4.7610   13.4700 C   0  0  0  0  0  0  0  0  0  0  0  0
   49.2485    7.7868   13.6226 N   0  0  0  0  0  0  0  0  0  0  0  0
   43.9321    6.4363   11.6429 C   0  0  0  0  0  0  0  0  0  0  0  0
   44.9735    3.8746   12.0168 C   0  0  0  0  0  0  0  0  0  0  0  0
   43.3209    5.3381   11.0378 C   0  0  0  0  0  0  0  0  0  0  0  0
   43.8425    4.0595   11.2229 C   0  0  0  0  0  0  0  0  0  0  0  0
   44.6138    7.3838   13.4554 H   0  0  0  0  0  0  0  0  0  0  0  0
   44.5991    7.1080   11.6946 H   0  0  0  0  0  0  0  0  0  0  0  0
   42.6165    6.4718   12.5760 H   0  0  0  0  0  0  0  0  0  0  0  0
   45.6491    5.3316   14.7913 H   0  0  0  0  0  0  0  0  0  0  0  0
   45.4909    3.7339   14.0661 H   0  0  0  0  0  0  0  0  0  0  0  0
   47.8512    4.4778   14.0976 H   0  0  0  0  0  0  0  0  0  0  0  0
   47.2715    4.1816   12.4454 H   0  0  0  0  0  0  0  0  0  0  0  0
   42.6325    3.2066   12.2558 H   0  0  0  0  0  0  0  0  0  0  0  0
   44.2804    3.1271   12.0032 H   0  0  0  0  0  0  0  0  0  0  0  0
   46.1533    9.1804   11.8813 H   0  0  0  0  0  0  0  0  0  0  0  0
   49.6779    5.8870   13.0482 H   0  0  0  0  0  0  0  0  0  0  0  0
   48.5361    9.8016   11.7257 H   0  0  0  0  0  0  0  0  0  0  0  0
   50.2958    8.1568   12.3067 H   0  0  0  0  0  0  0  0  0  0  0  0
   47.0961    4.6590   13.6312 H   0  0  0  0  0  0  0  0  0  0  0  0
   45.9986    7.9991   13.0070 H   0  0  0  0  0  0  0  0  0  0  0  0
   45.6934    8.3324   12.4326 H   0  0  0  0  0  0  0  0  0  0  0  0
   45.0689    7.7442   13.9708 H   0  0  0  0  0  0  0  0  0  0  0  0
   47.3309    7.5402   11.1758 H   0  0  0  0  0  0  0  0  0  0  0  0
   46.3830    6.0048   15.1904 H   0  0  0  0  0  0  0  0  0  0  0  0
   48.0993    5.8346   14.8631 H   0  0  0  0  0  0  0  0  0  0  0  0
   47.6769    4.6053   12.7851 H   0  0  0  0  0  0  0  0  0  0  0  0
   46.7276    3.8612   14.0878 H   0  0  0  0  0  0  0  0  0  0  0  0
   49.0342    8.2844   14.4740 H   0  0  0  0  0  0  0  0  0  0  0  0
   49.9502    8.2675   13.0696 H   0  0  0  0  0  0  0  0  0  0  0  0
   43.5111    7.4277   11.4868 H   0  0  0  0  0  0  0  0  0  0  0  0
   45.3776    2.8722   12.1427 H   0  0  0  0  0  0  0  0  0  0  0  0
   42.4392    5.4809   10.4177 H   0  0  0  0  0  0  0  0  0  0  0  0
   43.3722    3.2060   10.7426 H   0  0  0  0  0  0  0  0  0  0  0  0
  2  1  1  0
  3  1  1  0
  4  3  1  0
  5  2  2  3
  6  1  1  0
  7  8  1  0
  8  6  1  0
  9  2  1  0
 10  4  2  0
 11  7  2  0
 12 10  1  0
 13 11  1  0
  4  7  1  0
 12 13  2  0
 15 14  2  0
 16 14  2  0
 17 14  1  0
 18 14  1  0
 20 19  1  0
 21 19  1  0
 22 21  1  0
 23 20  2  3
 24 19  1  0
 25 26  1  0
 26 24  1  0
 27 20  1  0
 28 22  2  0
 29 25  2  0
 30 28  1  0
 31 29  1  0
 22 25  1  0
 30 31  2  0
  3 32  1  0
  3 33  1  0
  5 34  1  0
  6 35  1  0
  6 36  1  0
  8 37  1  0
  8 38  1  0
  9 39  1  0
  9 40  1  0
 10 41  1  0
 11 42  1  0
 12 43  1  0
 13 44  1  0
 17 45  1  0
 18 46  1  0
 21 47  1  0
 21 48  1  0
 23 49  1  0
 24 50  1  0
 24 51  1  0
 26 52  1  0
 26 53  1  0
 27 54  1  0
 27 55  1  0
 28 56  1  0
 29 57  1  0
 30 58  1  0
 31 59  1  0
M  END
> <Uni-Dock RESULT> 
ENERGY=   -5.735  LOWER_BOUND=    0.000  UPPER_BOUND=    0.000
INTER + INTRA:          -5.735
INTER:                  -5.735
INTRA:                   0.000
UNBOUND:                 0.000

$$$$

     RDKit          3D

 59 60  0  0  0  0  0  0  0  0999 V2000
   46.5365    7.0581   13.0765 N   0  0  0  0  0  0  0  0  0  0  0  0
   47.5595    7.7877   13.6093 C   0  0  0  0  0  0  0  0  0  0  0  0
   46.3875    5.6340   13.4012 C   0  0  0  0  0  0  0  0  0  0  0  0
   45.4417    4.9004   12.4688 C   0  0  0  0  0  0  0  0  0  0  0  0
   48.3490    7.4621   14.5694 N   0  0  0  0  0  0  0  0  0  0  0  0
   45.2623    7.7066   12.7282 C   0  0  0  0  0  0  0  0  0  0  0  0
   44.6219    5.5868   11.5543 C   0  0  0  0  0  0  0  0  0  0  0  0
   44.7076    7.0878   11.4455 C   0  0  0  0  0  0  0  0  0  0  0  0
   47.7762    8.9793   13.0164 N   0  0  0  0  0  0  0  0  0  0  0  0
   45.3673    3.5006   12.5333 C   0  0  0  0  0  0  0  0  0  0  0  0
   43.7707    4.8687   10.7034 C   0  0  0  0  0  0  0  0  0  0  0  0
   44.5108    2.7947   11.6885 C   0  0  0  0  0  0  0  0  0  0  0  0
   43.7144    3.4781   10.7745 C   0  0  0  0  0  0  0  0  0  0  0  0
   46.0638    6.0775   12.2850 S   0  0  0  0  0  0  0  0  0  0  0  0
   47.0260    7.1353   12.4561 O   0  0  0  0  0  0  0  0  0  0  0  0
   46.0667    5.2047   11.1364 O   0  0  0  0  0  0  0  0  0  0  0  0
   44.6061    6.7471   12.3417 O   0  0  0  0  0  0  0  0  0  0  0  0
   46.0508    5.1474   13.5928 O   0  0  0  0  0  0  0  0  0  0  0  0
   44.3254    5.0993   12.7059 N   0  0  0  0  0  0  0  0  0  0  0  0
   44.1073    4.2159   11.6895 C   0  0  0  0  0  0  0  0  0  0  0  0
   45.5506    5.0431   13.5103 C   0  0  0  0  0  0  0  0  0  0  0  0
   46.5905    6.0438   13.0491 C   0  0  0  0  0  0  0  0  0  0  0  0
   44.9793    3.5623   11.0122 N   0  0  0  0  0  0  0  0  0  0  0  0
   43.8271    6.4777   12.5591 C   0  0  0  0  0  0  0  0  0  0  0  0
   46.2400    7.1428   12.2387 C   0  0  0  0  0  0  0  0  0  0  0  0
   44.8238    7.2989   11.7343 C   0  0  0  0  0  0  0  0  0  0  0  0
   42.8026    4.0084   11.4242 N   0  0  0  0  0  0  0  0  0  0  0  0
   47.9170    5.9076   13.4841 C   0  0  0  0  0  0  0  0  0  0  0  0
   47.2248    8.0609   11.8499 C   0  0  0  0  0  0  0  0  0  0  0  0
   48.8865    6.8345   13.1013 C   0  0  0  0  0  0  0  0  0  0  0  0
   48.5409    7.9083   12.2834 C   0  0  0  0  0  0  0  0  0  0  0  0
   46.0162    5.5306   14.4286 H   0  0  0  0  0  0  0  0  0  0  0  0
   47.3689    5.1490   13.3328 H   0  0  0  0  0  0  0  0  0  0  0  0
   48.0817    6.5577   14.9514 H   0  0  0  0  0  0  0  0  0  0  0  0
   44.5562    7.5748   13.5585 H   0  0  0  0  0  0  0  0  0  0  0  0
   45.3704    8.7865   12.5723 H   0  0  0  0  0  0  0  0  0  0  0  0
   43.7169    7.5097   11.2453 H   0  0  0  0  0  0  0  0  0  0  0  0
   45.3620    7.3343   10.6003 H   0  0  0  0  0  0  0  0  0  0  0  0
   48.6558    9.3617   13.3477 H   0  0  0  0  0  0  0  0  0  0  0  0
   47.7696    8.9079   12.0081 H   0  0  0  0  0  0  0  0  0  0  0  0
   45.9887    2.9511   13.2367 H   0  0  0  0  0  0  0  0  0  0  0  0
   43.1501    5.3898    9.9771 H   0  0  0  0  0  0  0  0  0  0  0  0
   44.4730    1.7109   11.7359 H   0  0  0  0  0  0  0  0  0  0  0  0
   43.0570    2.9285   10.1072 H   0  0  0  0  0  0  0  0  0  0  0  0
   44.5420    7.3790   11.5954 H   0  0  0  0  0  0  0  0  0  0  0  0
   45.3755    4.4537   13.4658 H   0  0  0  0  0  0  0  0  0  0  0  0
   45.9695    4.0294   13.5036 H   0  0  0  0  0  0  0  0  0  0  0  0
   45.2944    5.2731   14.5522 H   0  0  0  0  0  0  0  0  0  0  0  0
   45.9149    3.8557   11.3001 H   0  0  0  0  0  0  0  0  0  0  0  0
   43.7047    6.9221   13.5553 H   0  0  0  0  0  0  0  0  0  0  0  0
   42.8389    6.5045   12.0863 H   0  0  0  0  0  0  0  0  0  0  0  0
   44.7973    6.9701   10.6878 H   0  0  0  0  0  0  0  0  0  0  0  0
   44.5279    8.3544   11.7663 H   0  0  0  0  0  0  0  0  0  0  0  0
   42.2555    3.9251   12.2682 H   0  0  0  0  0  0  0  0  0  0  0  0
   42.7032    3.1944   10.8269 H   0  0  0  0  0  0  0  0  0  0  0  0
   48.2053    5.0749   14.1228 H   0  0  0  0  0  0  0  0  0  0  0  0
   46.9713    8.8970   11.2013 H   0  0  0  0  0  0  0  0  0  0  0  0
   49.9136    6.7164   13.4380 H   0  0  0  0  0  0  0  0  0  0  0  0
   49.2988    8.6239   11.9770 H   0  0  0  0  0  0  0  0  0  0  0  0
  2  1  1  0
  3  1  1  0
  4  3  1  0
  5  2  2  3
  6  1  1  0
  7  8  1  0
  8  6  1  0
  9  2  1  0
 10  4  2  0
 11  7  2  0
 12 10  1  0
 13 11  1  0
  4  7  1  0
 12 13  2  0
 15 14  2  0
 16 14  2  0
 17 14  1  0
 18 14  1  0
 20 19  1  0
 21 19  1  0
 22 21  1  0
 23 20  2  3
 24 19  1  0
 25 26  1  0
 26 24  1  0
 27 20  1  0
 28 22  2  0
 29 25  2  0
 30 28  1  0
 31 29  1  0
 22 25  1  0
 30 31  2  0
  3 32  1  0
  3 33  1  0
  5 34  1  0
  6 35  1  0
  6 36  1  0
  8 37  1  0
  8 38  1  0
  9 39  1  0
  9 40  1  0
 10 41  1  0
 11 42  1  0
 12 43  1  0
 13 44  1  0
 17 45  1  0
 18 46  1  0
 21 47  1  0
 21 48  1  0
 23 49  1  0
 24 50  1  0
 24 51  1  0
 26 52  1  0
 26 53  1  0
 27 54  1  0
 27 55  1  0
 28 56  1  0
 29 57  1  0
 30 58  1  0
 31 59  1  0
M  END
> <Uni-Dock RESULT> 
ENERGY=   -5.488  LOWER_BOUND=    1.010  UPPER_BOUND=    4.569
INTER + INTRA:          -5.488
INTER:                  -5.488
INTRA:                   0.000
UNBOUND:                 0.000

$$$$

     RDKit          3D

 59 60  0  0  0  0  0  0  0  0999 V2000
   48.6661    4.9327   18.3467 N   0  0  0  0  0  0  0  0  0  0  0  0
   48.7633    4.0670   17.2961 C   0  0  0  0  0  0  0  0  0  0  0  0
   48.8913    4.4667   19.7207 C   0  0  0  0  0  0  0  0  0  0  0  0
   48.4025    5.4429   20.7744 C   0  0  0  0  0  0  0  0  0  0  0  0
   49.2482    2.8770   17.2919 N   0  0  0  0  0  0  0  0  0  0  0  0
   48.9700    6.3610   18.1649 C   0  0  0  0  0  0  0  0  0  0  0  0
   48.0047    6.7515   20.4448 C   0  0  0  0  0  0  0  0  0  0  0  0
   48.0074    7.1994   19.0054 C   0  0  0  0  0  0  0  0  0  0  0  0
   48.2471    4.5215   16.1361 N   0  0  0  0  0  0  0  0  0  0  0  0
   48.3645    5.0369   22.1171 C   0  0  0  0  0  0  0  0  0  0  0  0
   47.5490    7.6171   21.4484 C   0  0  0  0  0  0  0  0  0  0  0  0
   47.9176    5.9080   23.1106 C   0  0  0  0  0  0  0  0  0  0  0  0
   47.5098    7.1959   22.7763 C   0  0  0  0  0  0  0  0  0  0  0  0
   48.0742    5.3714   19.4731 S   0  0  0  0  0  0  0  0  0  0  0  0
   47.9042    4.8198   18.1537 O   0  0  0  0  0  0  0  0  0  0  0  0
   46.9651    5.6023   20.3661 O   0  0  0  0  0  0  0  0  0  0  0  0
   48.8227    6.7815   19.3060 O   0  0  0  0  0  0  0  0  0  0  0  0
   49.1652    4.5121   20.2773 O   0  0  0  0  0  0  0  0  0  0  0  0
   49.1202    6.3385   20.9314 N   0  0  0  0  0  0  0  0  0  0  0  0
   48.2248    6.6933   21.8976 C   0  0  0  0  0  0  0  0  0  0  0  0
   49.3002    4.9360   20.5418 C   0  0  0  0  0  0  0  0  0  0  0  0
   48.5251    4.5806   19.2894 C   0  0  0  0  0  0  0  0  0  0  0  0
   47.1781    6.0545   22.2753 N   0  0  0  0  0  0  0  0  0  0  0  0
   49.3326    7.2553   19.7982 C   0  0  0  0  0  0  0  0  0  0  0  0
   48.0535    5.5787   18.4126 C   0  0  0  0  0  0  0  0  0  0  0  0
   48.2346    7.0405   18.7512 C   0  0  0  0  0  0  0  0  0  0  0  0
   48.5379    7.8414   22.5295 N   0  0  0  0  0  0  0  0  0  0  0  0
   48.3229    3.2310   18.9650 C   0  0  0  0  0  0  0  0  0  0  0  0
   47.3597    5.2116   17.2517 C   0  0  0  0  0  0  0  0  0  0  0  0
   47.6420    2.8770   17.8003 C   0  0  0  0  0  0  0  0  0  0  0  0
   47.1592    3.8663   16.9462 C   0  0  0  0  0  0  0  0  0  0  0  0
   49.9635    4.2921   19.8760 H   0  0  0  0  0  0  0  0  0  0  0  0
   48.3573    3.5200   19.8673 H   0  0  0  0  0  0  0  0  0  0  0  0
   49.6239    2.6486   18.2094 H   0  0  0  0  0  0  0  0  0  0  0  0
   50.0093    6.5459   18.4667 H   0  0  0  0  0  0  0  0  0  0  0  0
   48.8822    6.6784   17.1192 H   0  0  0  0  0  0  0  0  0  0  0  0
   48.2994    8.2529   18.9377 H   0  0  0  0  0  0  0  0  0  0  0  0
   46.9879    7.1005   18.6129 H   0  0  0  0  0  0  0  0  0  0  0  0
   48.1947    3.7563   15.4718 H   0  0  0  0  0  0  0  0  0  0  0  0
   47.3411    4.9502   16.2664 H   0  0  0  0  0  0  0  0  0  0  0  0
   48.6725    4.0312   22.3940 H   0  0  0  0  0  0  0  0  0  0  0  0
   47.2175    8.6233   21.1996 H   0  0  0  0  0  0  0  0  0  0  0  0
   47.8772    5.5782   24.1440 H   0  0  0  0  0  0  0  0  0  0  0  0
   47.1492    7.8703   23.5473 H   0  0  0  0  0  0  0  0  0  0  0  0
   48.2406    7.3638   18.7746 H   0  0  0  0  0  0  0  0  0  0  0  0
   49.2828    4.9175   21.1577 H   0  0  0  0  0  0  0  0  0  0  0  0
   49.0185    4.2684   21.3652 H   0  0  0  0  0  0  0  0  0  0  0  0
   50.3656    4.7631   20.3442 H   0  0  0  0  0  0  0  0  0  0  0  0
   47.0542    5.2335   21.6797 H   0  0  0  0  0  0  0  0  0  0  0  0
   50.3184    7.0575   19.3577 H   0  0  0  0  0  0  0  0  0  0  0  0
   49.3433    8.3029   20.1193 H   0  0  0  0  0  0  0  0  0  0  0  0
   47.2794    7.4219   19.1335 H   0  0  0  0  0  0  0  0  0  0  0  0
   48.4890    7.6067   17.8472 H   0  0  0  0  0  0  0  0  0  0  0  0
   49.5245    7.9020   22.7334 H   0  0  0  0  0  0  0  0  0  0  0  0
   47.9721    7.9332   23.3665 H   0  0  0  0  0  0  0  0  0  0  0  0
   48.6925    2.4448   19.6206 H   0  0  0  0  0  0  0  0  0  0  0  0
   46.9664    5.9740   16.5822 H   0  0  0  0  0  0  0  0  0  0  0  0
   47.4842    1.8281   17.5611 H   0  0  0  0  0  0  0  0  0  0  0  0
   46.6197    3.5898   16.0446 H   0  0  0  0  0  0  0  0  0  0  0  0
  2  1  1  0
  3  1  1  0
  4  3  1  0
  5  2  2  3
  6  1  1  0
  7  8  1  0
  8  6  1  0
  9  2  1  0
 10  4  2  0
 11  7  2  0
 12 10  1  0
 13 11  1  0
  4  7  1  0
 12 13  2  0
 15 14  2  0
 16 14  2  0
 17 14  1  0
 18 14  1  0
 20 19  1  0
 21 19  1  0
 22 21  1  0
 23 20  2  3
 24 19  1  0
 25 26  1  0
 26 24  1  0
 27 20  1  0
 28 22  2  0
 29 25  2  0
 30 28  1  0
 31 29  1  0
 22 25  1  0
 30 31  2  0
  3 32  1  0
  3 33  1  0
  5 34  1  0
  6 35  1  0
  6 36  1  0
  8 37  1  0
  8 38  1  0
  9 39  1  0
  9 40  1  0
 10 41  1  0
 11 42  1  0
 12 43  1  0
 13 44  1  0
 17 45  1  0
 18 46  1  0
 21 47  1  0
 21 48  1  0
 23 49  1  0
 24 50  1  0
 24 51  1  0
 26 52  1  0
 26 53  1  0
 27 54  1  0
 27 55  1  0
 28 56  1  0
 29 57  1  0
 30 58  1  0
 31 59  1  0
M  END
> <Uni-Dock RESULT> 
ENERGY=   -4.504  LOWER_BOUND=    6.251  UPPER_BOUND=    8.078
INTER + INTRA:          -4.504
INTER:                  -4.504
INTRA:                   0.000
UNBOUND:                 0.000

$$$$

     RDKit          3D

 59 60  0  0  0  0  0  0  0  0999 V2000
   48.7681    7.1175   19.7859 N   0  0  0  0  0  0  0  0  0  0  0  0
   48.8066    8.3584   20.3529 C   0  0  0  0  0  0  0  0  0  0  0  0
   48.6171    6.9653   18.3333 C   0  0  0  0  0  0  0  0  0  0  0  0
   48.2373    5.5579   17.9125 C   0  0  0  0  0  0  0  0  0  0  0  0
   48.9430    9.4937   19.7668 N   0  0  0  0  0  0  0  0  0  0  0  0
   49.4753    5.9900   20.4135 C   0  0  0  0  0  0  0  0  0  0  0  0
   48.2733    4.4793   18.8151 C   0  0  0  0  0  0  0  0  0  0  0  0
   48.6465    4.7156   20.2564 C   0  0  0  0  0  0  0  0  0  0  0  0
   48.6420    8.3766   21.6912 N   0  0  0  0  0  0  0  0  0  0  0  0
   47.8587    5.3209   16.5822 C   0  0  0  0  0  0  0  0  0  0  0  0
   47.9035    3.1971   18.3869 C   0  0  0  0  0  0  0  0  0  0  0  0
   47.5006    4.0399   16.1627 C   0  0  0  0  0  0  0  0  0  0  0  0
   47.5222    2.9799   17.0641 C   0  0  0  0  0  0  0  0  0  0  0  0
   48.1321    6.1345   19.1220 S   0  0  0  0  0  0  0  0  0  0  0  0
   48.0495    7.1698   20.1196 O   0  0  0  0  0  0  0  0  0  0  0  0
   46.9904    5.3475   18.7245 O   0  0  0  0  0  0  0  0  0  0  0  0
   49.2528    5.0935   19.6089 O   0  0  0  0  0  0  0  0  0  0  0  0
   48.7924    6.7288   17.7855 O   0  0  0  0  0  0  0  0  0  0  0  0
   49.1330    4.8234   17.9239 N   0  0  0  0  0  0  0  0  0  0  0  0
   48.2146    3.9321   17.4515 C   0  0  0  0  0  0  0  0  0  0  0  0
   48.9897    6.2623   17.6787 C   0  0  0  0  0  0  0  0  0  0  0  0
   48.3759    6.9905   18.8571 C   0  0  0  0  0  0  0  0  0  0  0  0
   46.9848    4.1487   17.1567 N   0  0  0  0  0  0  0  0  0  0  0  0
   49.7791    4.5482   19.2187 C   0  0  0  0  0  0  0  0  0  0  0  0
   48.3523    6.4129   20.1429 C   0  0  0  0  0  0  0  0  0  0  0  0
   48.8623    5.0065   20.3578 C   0  0  0  0  0  0  0  0  0  0  0  0
   48.7137    2.6966   17.2511 N   0  0  0  0  0  0  0  0  0  0  0  0
   47.8738    8.2880   18.6786 C   0  0  0  0  0  0  0  0  0  0  0  0
   47.7965    7.1253   21.2140 C   0  0  0  0  0  0  0  0  0  0  0  0
   47.3345    8.9929   19.7546 C   0  0  0  0  0  0  0  0  0  0  0  0
   47.2939    8.4111   21.0199 C   0  0  0  0  0  0  0  0  0  0  0  0
   49.5578    7.2368   17.8379 H   0  0  0  0  0  0  0  0  0  0  0  0
   47.8288    7.6437   17.9846 H   0  0  0  0  0  0  0  0  0  0  0  0
   49.0779    9.3581   18.7674 H   0  0  0  0  0  0  0  0  0  0  0  0
   50.4573    5.8746   19.9362 H   0  0  0  0  0  0  0  0  0  0  0  0
   49.6593    6.1532   21.4819 H   0  0  0  0  0  0  0  0  0  0  0  0
   49.2208    3.8666   20.6424 H   0  0  0  0  0  0  0  0  0  0  0  0
   47.7223    4.7983   20.8415 H   0  0  0  0  0  0  0  0  0  0  0  0
   48.4994    9.3336   21.9968 H   0  0  0  0  0  0  0  0  0  0  0  0
   47.8782    7.7845   21.9874 H   0  0  0  0  0  0  0  0  0  0  0  0
   47.8292    6.1399   15.8671 H   0  0  0  0  0  0  0  0  0  0  0  0
   47.9061    2.3613   19.0838 H   0  0  0  0  0  0  0  0  0  0  0  0
   47.1940    3.8708   15.1352 H   0  0  0  0  0  0  0  0  0  0  0  0
   47.2308    1.9847   16.7416 H   0  0  0  0  0  0  0  0  0  0  0  0
   48.9518    4.7121   20.4600 H   0  0  0  0  0  0  0  0  0  0  0  0
   48.8616    6.0057   17.1330 H   0  0  0  0  0  0  0  0  0  0  0  0
   48.3991    6.4415   16.7719 H   0  0  0  0  0  0  0  0  0  0  0  0
   49.9855    6.6858   17.4971 H   0  0  0  0  0  0  0  0  0  0  0  0
   46.7474    5.1125   17.3996 H   0  0  0  0  0  0  0  0  0  0  0  0
   50.7348    5.0863   19.2633 H   0  0  0  0  0  0  0  0  0  0  0  0
   50.0183    3.4852   19.3358 H   0  0  0  0  0  0  0  0  0  0  0  0
   47.9955    4.3372   20.4269 H   0  0  0  0  0  0  0  0  0  0  0  0
   49.4134    4.9473   21.3040 H   0  0  0  0  0  0  0  0  0  0  0  0
   49.6288    2.7246   16.8266 H   0  0  0  0  0  0  0  0  0  0  0  0
   48.0582    2.1509   16.7018 H   0  0  0  0  0  0  0  0  0  0  0  0
   47.8967    8.7581   17.6972 H   0  0  0  0  0  0  0  0  0  0  0  0
   47.7471    6.6782   22.2048 H   0  0  0  0  0  0  0  0  0  0  0  0
   46.9414    9.9956   19.6046 H   0  0  0  0  0  0  0  0  0  0  0  0
   46.8640    8.9567   21.8553 H   0  0  0  0  0  0  0  0  0  0  0  0
  2  1  1  0
  3  1  1  0
  4  3  1  0
  5  2  2  3
  6  1  1  0
  7  8  1  0
  8  6  1  0
  9  2  1  0
 10  4  2  0
 11  7  2  0
 12 10  1  0
 13 11  1  0
  4  7  1  0
 12 13  2  0
 15 14  2  0
 16 14  2  0
 17 14  1  0
 18 14  1  0
 20 19  1  0
 21 19  1  0
 22 21  1  0
 23 20  2  3
 24 19  1  0
 25 26  1  0
 26 24  1  0
 27 20  1  0
 28 22  2  0
 29 25  2  0
 30 28  1  0
 31 29  1  0
 22 25  1  0
 30 31  2  0
  3 32  1  0
  3 33  1  0
  5 34  1  0
  6 35  1  0
  6 36  1  0
  8 37  1  0
  8 38  1  0
  9 39  1  0
  9 40  1  0
 10 41  1  0
 11 42  1  0
 12 43  1  0
 13 44  1  0
 17 45  1  0
 18 46  1  0
 21 47  1  0
 21 48  1  0
 23 49  1  0
 24 50  1  0
 24 51  1  0
 26 52  1  0
 26 53  1  0
 27 54  1  0
 27 55  1  0
 28 56  1  0
 29 57  1  0
 30 58  1  0
 31 59  1  0
M  END
> <Uni-Dock RESULT> 
ENERGY=   -4.423  LOWER_BOUND=    5.584  UPPER_BOUND=    7.716
INTER + INTRA:          -4.423
INTER:                  -4.423
INTRA:                   0.000
UNBOUND:                 0.000

$$$$

     RDKit          3D

 59 60  0  0  0  0  0  0  0  0999 V2000
   48.9811    6.0518   20.9919 N   0  0  0  0  0  0  0  0  0  0  0  0
   48.7995    6.7236   22.1659 C   0  0  0  0  0  0  0  0  0  0  0  0
   47.8601    5.8536   20.0645 C   0  0  0  0  0  0  0  0  0  0  0  0
   48.1348    4.8026   19.0052 C   0  0  0  0  0  0  0  0  0  0  0  0
   47.7897    7.4324   22.5255 N   0  0  0  0  0  0  0  0  0  0  0  0
   50.2899    6.0686   20.3194 C   0  0  0  0  0  0  0  0  0  0  0  0
   49.4212    4.2687   18.8069 C   0  0  0  0  0  0  0  0  0  0  0  0
   50.5608    4.7005   19.6942 C   0  0  0  0  0  0  0  0  0  0  0  0
   49.7982    6.5832   23.0610 N   0  0  0  0  0  0  0  0  0  0  0  0
   47.0818    4.3651   18.1873 C   0  0  0  0  0  0  0  0  0  0  0  0
   49.6282    3.2911   17.8242 C   0  0  0  0  0  0  0  0  0  0  0  0
   47.2988    3.3980   17.2059 C   0  0  0  0  0  0  0  0  0  0  0  0
   48.5701    2.8614   17.0254 C   0  0  0  0  0  0  0  0  0  0  0  0
   48.7609    5.0032   20.1774 S   0  0  0  0  0  0  0  0  0  0  0  0
   48.9884    5.4620   21.5234 O   0  0  0  0  0  0  0  0  0  0  0  0
   48.4882    3.6216   19.8646 O   0  0  0  0  0  0  0  0  0  0  0  0
   50.0457    5.4192   19.3098 O   0  0  0  0  0  0  0  0  0  0  0  0
   47.6046    5.8848   19.4983 O   0  0  0  0  0  0  0  0  0  0  0  0
   48.8116    5.1882   18.1478 N   0  0  0  0  0  0  0  0  0  0  0  0
   48.6052    3.9442   17.6274 C   0  0  0  0  0  0  0  0  0  0  0  0
   47.8251    5.8126   19.0356 C   0  0  0  0  0  0  0  0  0  0  0  0
   48.1851    5.6569   20.4990 C   0  0  0  0  0  0  0  0  0  0  0  0
   47.8652    3.0065   18.0958 N   0  0  0  0  0  0  0  0  0  0  0  0
   50.1877    5.5897   18.4867 C   0  0  0  0  0  0  0  0  0  0  0  0
   49.4964    5.3288   20.8994 C   0  0  0  0  0  0  0  0  0  0  0  0
   50.5594    5.0351   19.8660 C   0  0  0  0  0  0  0  0  0  0  0  0
   49.2469    3.7326   16.4616 N   0  0  0  0  0  0  0  0  0  0  0  0
   47.2099    5.9007   21.4773 C   0  0  0  0  0  0  0  0  0  0  0  0
   49.7980    5.2151   22.2631 C   0  0  0  0  0  0  0  0  0  0  0  0
   47.5246    5.7971   22.8322 C   0  0  0  0  0  0  0  0  0  0  0  0
   48.8164    5.4526   23.2242 C   0  0  0  0  0  0  0  0  0  0  0  0
   47.6279    6.8023   19.5642 H   0  0  0  0  0  0  0  0  0  0  0  0
   46.9794    5.5331   20.6343 H   0  0  0  0  0  0  0  0  0  0  0  0
   47.1110    7.4843   21.7692 H   0  0  0  0  0  0  0  0  0  0  0  0
   50.2859    6.8519   19.5502 H   0  0  0  0  0  0  0  0  0  0  0  0
   51.1112    6.3032   21.0067 H   0  0  0  0  0  0  0  0  0  0  0  0
   51.4911    4.7495   19.1181 H   0  0  0  0  0  0  0  0  0  0  0  0
   50.6857    3.9489   20.4833 H   0  0  0  0  0  0  0  0  0  0  0  0
   49.4986    6.9549   23.9563 H   0  0  0  0  0  0  0  0  0  0  0  0
   50.0955    5.6212   23.1497 H   0  0  0  0  0  0  0  0  0  0  0  0
   46.0807    4.7688   18.3206 H   0  0  0  0  0  0  0  0  0  0  0  0
   50.6149    2.8557   17.6793 H   0  0  0  0  0  0  0  0  0  0  0  0
   46.4737    3.0552   16.5895 H   0  0  0  0  0  0  0  0  0  0  0  0
   48.7372    2.0988   16.2705 H   0  0  0  0  0  0  0  0  0  0  0  0
   50.8218    4.9585   19.6915 H   0  0  0  0  0  0  0  0  0  0  0  0
   47.4845    5.5739   18.5806 H   0  0  0  0  0  0  0  0  0  0  0  0
   46.8241    5.4065   18.8452 H   0  0  0  0  0  0  0  0  0  0  0  0
   47.7804    6.8850   18.8076 H   0  0  0  0  0  0  0  0  0  0  0  0
   47.4820    3.3010   18.9962 H   0  0  0  0  0  0  0  0  0  0  0  0
   50.2502    6.6856   18.4909 H   0  0  0  0  0  0  0  0  0  0  0  0
   50.9084    5.2429   17.7376 H   0  0  0  0  0  0  0  0  0  0  0  0
   50.6837    3.9466   19.8056 H   0  0  0  0  0  0  0  0  0  0  0  0
   51.5168    5.4695   20.1781 H   0  0  0  0  0  0  0  0  0  0  0  0
   49.1889    4.5327   15.8494 H   0  0  0  0  0  0  0  0  0  0  0  0
   48.8844    2.8929   16.0225 H   0  0  0  0  0  0  0  0  0  0  0  0
   46.1954    6.1704   21.1897 H   0  0  0  0  0  0  0  0  0  0  0  0
   50.7995    4.9346   22.5830 H   0  0  0  0  0  0  0  0  0  0  0  0
   46.7598    5.9813   23.5829 H   0  0  0  0  0  0  0  0  0  0  0  0
   49.0580    5.3617   24.2795 H   0  0  0  0  0  0  0  0  0  0  0  0
  2  1  1  0
  3  1  1  0
  4  3  1  0
  5  2  2  3
  6  1  1  0
  7  8  1  0
  8  6  1  0
  9  2  1  0
 10  4  2  0
 11  7  2  0
 12 10  1  0
 13 11  1  0
  4  7  1  0
 12 13  2  0
 15 14  2  0
 16 14  2  0
 17 14  1  0
 18 14  1  0
 20 19  1  0
 21 19  1  0
 22 21  1  0
 23 20  2  3
 24 19  1  0
 25 26  1  0
 26 24  1  0
 27 20  1  0
 28 22  2  0
 29 25  2  0
 30 28  1  0
 31 29  1  0
 22 25  1  0
 30 31  2  0
  3 32  1  0
  3 33  1  0
  5 34  1  0
  6 35  1  0
  6 36  1  0
  8 37  1  0
  8 38  1  0
  9 39  1  0
  9 40  1  0
 10 41  1  0
 11 42  1  0
 12 43  1  0
 13 44  1  0
 17 45  1  0
 18 46  1  0
 21 47  1  0
 21 48  1  0
 23 49  1  0
 24 50  1  0
 24 51  1  0
 26 52  1  0
 26 53  1  0
 27 54  1  0
 27 55  1  0
 28 56  1  0
 29 57  1  0
 30 58  1  0
 31 59  1  0
M  END
> <Uni-Dock RESULT> 
ENERGY=   -4.335  LOWER_BOUND=    6.604  UPPER_BOUND=    8.633
INTER + INTRA:          -4.335
INTER:                  -4.335
INTRA:                   0.000
UNBOUND:                 0.000

$$$$

     RDKit          3D

 59 60  0  0  0  0  0  0  0  0999 V2000
   48.0794    4.3008   18.9156 N   0  0  0  0  0  0  0  0  0  0  0  0
   47.9959    3.2690   18.0261 C   0  0  0  0  0  0  0  0  0  0  0  0
   47.2616    5.5072   18.7378 C   0  0  0  0  0  0  0  0  0  0  0  0
   47.7253    6.6779   19.5844 C   0  0  0  0  0  0  0  0  0  0  0  0
   47.1150    3.0822   17.1094 N   0  0  0  0  0  0  0  0  0  0  0  0
   48.4323    4.0451   20.3211 C   0  0  0  0  0  0  0  0  0  0  0  0
   48.6845    6.5230   20.6017 C   0  0  0  0  0  0  0  0  0  0  0  0
   49.3196    5.1766   20.8392 C   0  0  0  0  0  0  0  0  0  0  0  0
   48.9914    2.3634   18.1116 N   0  0  0  0  0  0  0  0  0  0  0  0
   47.1681    7.9463   19.3605 C   0  0  0  0  0  0  0  0  0  0  0  0
   49.0926    7.6338   21.3526 C   0  0  0  0  0  0  0  0  0  0  0  0
   47.5738    9.0446   20.1184 C   0  0  0  0  0  0  0  0  0  0  0  0
   48.5353    8.8884   21.1124 C   0  0  0  0  0  0  0  0  0  0  0  0
   48.3991    5.5678   19.2379 S   0  0  0  0  0  0  0  0  0  0  0  0
   48.7550    4.3798   18.5059 O   0  0  0  0  0  0  0  0  0  0  0  0
   49.1591    6.7907   19.1488 O   0  0  0  0  0  0  0  0  0  0  0  0
   48.3565    5.1730   20.7932 O   0  0  0  0  0  0  0  0  0  0  0  0
   46.8641    5.9363   18.9490 O   0  0  0  0  0  0  0  0  0  0  0  0
   47.4045    6.5909   20.6941 N   0  0  0  0  0  0  0  0  0  0  0  0
   48.0048    7.8107   20.8071 C   0  0  0  0  0  0  0  0  0  0  0  0
   46.8277    6.1441   19.4217 C   0  0  0  0  0  0  0  0  0  0  0  0
   47.7608    5.2296   18.6544 C   0  0  0  0  0  0  0  0  0  0  0  0
   48.5377    8.5163   19.8774 N   0  0  0  0  0  0  0  0  0  0  0  0
   47.9429    5.4663   21.4784 C   0  0  0  0  0  0  0  0  0  0  0  0
   48.8387    4.5819   19.2916 C   0  0  0  0  0  0  0  0  0  0  0  0
   49.1434    4.8576   20.7460 C   0  0  0  0  0  0  0  0  0  0  0  0
   47.9790    8.3121   22.0575 N   0  0  0  0  0  0  0  0  0  0  0  0
   47.5135    4.9761   17.2971 C   0  0  0  0  0  0  0  0  0  0  0  0
   49.6676    3.7253   18.5547 C   0  0  0  0  0  0  0  0  0  0  0  0
   48.3376    4.1116   16.5766 C   0  0  0  0  0  0  0  0  0  0  0  0
   49.4144    3.4890   17.2043 C   0  0  0  0  0  0  0  0  0  0  0  0
   46.2184    5.2822   18.9932 H   0  0  0  0  0  0  0  0  0  0  0  0
   47.3064    5.8155   17.6861 H   0  0  0  0  0  0  0  0  0  0  0  0
   46.4067    3.8115   17.1503 H   0  0  0  0  0  0  0  0  0  0  0  0
   47.5105    3.9738   20.9132 H   0  0  0  0  0  0  0  0  0  0  0  0
   48.9680    3.0977   20.4531 H   0  0  0  0  0  0  0  0  0  0  0  0
   49.5001    5.0270   21.9092 H   0  0  0  0  0  0  0  0  0  0  0  0
   50.2871    5.1571   20.3226 H   0  0  0  0  0  0  0  0  0  0  0  0
   48.9519    1.7472   17.3065 H   0  0  0  0  0  0  0  0  0  0  0  0
   49.8985    2.8030   18.1867 H   0  0  0  0  0  0  0  0  0  0  0  0
   46.4213    8.0867   18.5824 H   0  0  0  0  0  0  0  0  0  0  0  0
   49.8508    7.5278   22.1259 H   0  0  0  0  0  0  0  0  0  0  0  0
   47.1479   10.0243   19.9261 H   0  0  0  0  0  0  0  0  0  0  0  0
   48.8614    9.7455   21.6941 H   0  0  0  0  0  0  0  0  0  0  0  0
   49.2567    4.8819   21.0488 H   0  0  0  0  0  0  0  0  0  0  0  0
   46.6375    6.7281   19.4734 H   0  0  0  0  0  0  0  0  0  0  0  0
   46.5459    7.0050   18.8032 H   0  0  0  0  0  0  0  0  0  0  0  0
   45.9045    5.5900   19.6329 H   0  0  0  0  0  0  0  0  0  0  0  0
   48.5161    7.9885   19.0027 H   0  0  0  0  0  0  0  0  0  0  0  0
   47.1568    4.7112   21.6076 H   0  0  0  0  0  0  0  0  0  0  0  0
   48.2388    5.7785   22.4863 H   0  0  0  0  0  0  0  0  0  0  0  0
   49.9934    5.5501   20.7901 H   0  0  0  0  0  0  0  0  0  0  0  0
   49.4351    3.9291   21.2512 H   0  0  0  0  0  0  0  0  0  0  0  0
   47.0857    8.1653   22.5036 H   0  0  0  0  0  0  0  0  0  0  0  0
   48.2339    9.2938   22.0347 H   0  0  0  0  0  0  0  0  0  0  0  0
   46.6773    5.4539   16.7902 H   0  0  0  0  0  0  0  0  0  0  0  0
   50.5194    3.2423   19.0293 H   0  0  0  0  0  0  0  0  0  0  0  0
   48.1418    3.9269   15.5231 H   0  0  0  0  0  0  0  0  0  0  0  0
   50.0621    2.8241   16.6398 H   0  0  0  0  0  0  0  0  0  0  0  0
  2  1  1  0
  3  1  1  0
  4  3  1  0
  5  2  2  3
  6  1  1  0
  7  8  1  0
  8  6  1  0
  9  2  1  0
 10  4  2  0
 11  7  2  0
 12 10  1  0
 13 11  1  0
  4  7  1  0
 12 13  2  0
 15 14  2  0
 16 14  2  0
 17 14  1  0
 18 14  1  0
 20 19  1  0
 21 19  1  0
 22 21  1  0
 23 20  2  3
 24 19  1  0
 25 26  1  0
 26 24  1  0
 27 20  1  0
 28 22  2  0
 29 25  2  0
 30 28  1  0
 31 29  1  0
 22 25  1  0
 30 31  2  0
  3 32  1  0
  3 33  1  0
  5 34  1  0
  6 35  1  0
  6 36  1  0
  8 37  1  0
  8 38  1  0
  9 39  1  0
  9 40  1  0
 10 41  1  0
 11 42  1  0
 12 43  1  0
 13 44  1  0
 17 45  1  0
 18 46  1  0
 21 47  1  0
 21 48  1  0
 23 49  1  0
 24 50  1  0
 24 51  1  0
 26 52  1  0
 26 53  1  0
 27 54  1  0
 27 55  1  0
 28 56  1  0
 29 57  1  0
 30 58  1  0
 31 59  1  0
M  END
> <Uni-Dock RESULT> 
ENERGY=   -4.166  LOWER_BOUND=    6.060  UPPER_BOUND=    7.531
INTER + INTRA:          -4.166
INTER:                  -4.166
INTRA:                   0.000
UNBOUND:                 0.000

$$$$

     RDKit          3D

 59 60  0  0  0  0  0  0  0  0999 V2000
   49.1432    5.2107   18.5545 N   0  0  0  0  0  0  0  0  0  0  0  0
   49.6745    4.7874   17.3708 C   0  0  0  0  0  0  0  0  0  0  0  0
   50.0005    5.4026   19.7310 C   0  0  0  0  0  0  0  0  0  0  0  0
   49.2229    5.5225   21.0284 C   0  0  0  0  0  0  0  0  0  0  0  0
   50.9138    4.7168   17.0385 N   0  0  0  0  0  0  0  0  0  0  0  0
   47.9439    6.0633   18.5695 C   0  0  0  0  0  0  0  0  0  0  0  0
   47.8245    5.6759   21.0429 C   0  0  0  0  0  0  0  0  0  0  0  0
   47.0530    5.6714   19.7479 C   0  0  0  0  0  0  0  0  0  0  0  0
   48.7727    4.3594   16.4642 N   0  0  0  0  0  0  0  0  0  0  0  0
   49.9188    5.4998   22.2468 C   0  0  0  0  0  0  0  0  0  0  0  0
   47.1447    5.7716   22.2647 C   0  0  0  0  0  0  0  0  0  0  0  0
   49.2348    5.6045   23.4578 C   0  0  0  0  0  0  0  0  0  0  0  0
   47.8497    5.7394   23.4665 C   0  0  0  0  0  0  0  0  0  0  0  0
   48.8225    5.0205   19.8477 S   0  0  0  0  0  0  0  0  0  0  0  0
   48.9034    4.4543   18.5260 O   0  0  0  0  0  0  0  0  0  0  0  0
   48.4286    4.2471   21.0000 O   0  0  0  0  0  0  0  0  0  0  0  0
   47.8121    6.2654   19.7706 O   0  0  0  0  0  0  0  0  0  0  0  0
   50.2094    5.7431   20.2077 O   0  0  0  0  0  0  0  0  0  0  0  0
   48.7420    6.5661   21.1746 N   0  0  0  0  0  0  0  0  0  0  0  0
   48.3386    6.0467   22.3698 C   0  0  0  0  0  0  0  0  0  0  0  0
   49.9535    6.0798   20.5061 C   0  0  0  0  0  0  0  0  0  0  0  0
   49.6478    5.0641   19.4242 C   0  0  0  0  0  0  0  0  0  0  0  0
   48.6059    4.8903   22.8574 N   0  0  0  0  0  0  0  0  0  0  0  0
   47.7139    6.9900   20.2087 C   0  0  0  0  0  0  0  0  0  0  0  0
   48.3542    4.9450   18.8766 C   0  0  0  0  0  0  0  0  0  0  0  0
   47.2141    5.7728   19.4235 C   0  0  0  0  0  0  0  0  0  0  0  0
   47.6034    6.8999   23.1096 N   0  0  0  0  0  0  0  0  0  0  0  0
   50.6840    4.2668   18.9162 C   0  0  0  0  0  0  0  0  0  0  0  0
   48.1135    4.0096   17.8612 C   0  0  0  0  0  0  0  0  0  0  0  0
   50.4356    3.3480   17.8965 C   0  0  0  0  0  0  0  0  0  0  0  0
   49.1516    3.2183   17.3716 C   0  0  0  0  0  0  0  0  0  0  0  0
   50.6036    6.3099   19.5994 H   0  0  0  0  0  0  0  0  0  0  0  0
   50.6758    4.5432   19.8230 H   0  0  0  0  0  0  0  0  0  0  0  0
   51.4986    5.0817   17.7870 H   0  0  0  0  0  0  0  0  0  0  0  0
   48.2536    7.1135   18.6507 H   0  0  0  0  0  0  0  0  0  0  0  0
   47.3563    5.9764   17.6480 H   0  0  0  0  0  0  0  0  0  0  0  0
   46.2114    6.3700   19.8067 H   0  0  0  0  0  0  0  0  0  0  0  0
   46.6507    4.6630   19.5910 H   0  0  0  0  0  0  0  0  0  0  0  0
   49.2587    3.8975   15.7026 H   0  0  0  0  0  0  0  0  0  0  0  0
   48.0817    3.7476   16.8764 H   0  0  0  0  0  0  0  0  0  0  0  0
   51.0005    5.3872   22.2576 H   0  0  0  0  0  0  0  0  0  0  0  0
   46.0610    5.8672   22.2863 H   0  0  0  0  0  0  0  0  0  0  0  0
   49.7814    5.5697   24.3950 H   0  0  0  0  0  0  0  0  0  0  0  0
   47.3151    5.8076   24.4093 H   0  0  0  0  0  0  0  0  0  0  0  0
   46.9356    5.9184   19.5031 H   0  0  0  0  0  0  0  0  0  0  0  0
   50.1239    6.1404   21.0954 H   0  0  0  0  0  0  0  0  0  0  0  0
   50.6535    5.6571   21.2372 H   0  0  0  0  0  0  0  0  0  0  0  0
   50.4605    6.9335   20.0391 H   0  0  0  0  0  0  0  0  0  0  0  0
   49.1321    4.3501   22.1679 H   0  0  0  0  0  0  0  0  0  0  0  0
   48.1493    7.7287   19.5235 H   0  0  0  0  0  0  0  0  0  0  0  0
   46.8719    7.4874   20.7033 H   0  0  0  0  0  0  0  0  0  0  0  0
   46.6121    5.1313   20.0793 H   0  0  0  0  0  0  0  0  0  0  0  0
   46.5728    6.1171   18.6033 H   0  0  0  0  0  0  0  0  0  0  0  0
   47.9779    7.8367   23.0869 H   0  0  0  0  0  0  0  0  0  0  0  0
   47.5250    6.5464   24.0573 H   0  0  0  0  0  0  0  0  0  0  0  0
   51.6930    4.3541   19.3145 H   0  0  0  0  0  0  0  0  0  0  0  0
   47.1130    3.8891   17.4508 H   0  0  0  0  0  0  0  0  0  0  0  0
   51.2442    2.7295   17.5142 H   0  0  0  0  0  0  0  0  0  0  0  0
   48.9568    2.4949   16.5847 H   0  0  0  0  0  0  0  0  0  0  0  0
  2  1  1  0
  3  1  1  0
  4  3  1  0
  5  2  2  3
  6  1  1  0
  7  8  1  0
  8  6  1  0
  9  2  1  0
 10  4  2  0
 11  7  2  0
 12 10  1  0
 13 11  1  0
  4  7  1  0
 12 13  2  0
 15 14  2  0
 16 14  2  0
 17 14  1  0
 18 14  1  0
 20 19  1  0
 21 19  1  0
 22 21  1  0
 23 20  2  3
 24 19  1  0
 25 26  1  0
 26 24  1  0
 27 20  1  0
 28 22  2  0
 29 25  2  0
 30 28  1  0
 31 29  1  0
 22 25  1  0
 30 31  2  0
  3 32  1  0
  3 33  1  0
  5 34  1  0
  6 35  1  0
  6 36  1  0
  8 37  1  0
  8 38  1  0
  9 39  1  0
  9 40  1  0
 10 41  1  0
 11 42  1  0
 12 43  1  0
 13 44  1  0
 17 45  1  0
 18 46  1  0
 21 47  1  0
 21 48  1  0
 23 49  1  0
 24 50  1  0
 24 51  1  0
 26 52  1  0
 26 53  1  0
 27 54  1  0
 27 55  1  0
 28 56  1  0
 29 57  1  0
 30 58  1  0
 31 59  1  0
M  END
> <Uni-Dock RESULT> 
ENERGY=   -4.158  LOWER_BOUND=    6.688  UPPER_BOUND=    8.659
INTER + INTRA:          -4.158
INTER:                  -4.158
INTRA:                   0.000
UNBOUND:                 0.000

$$$$

     RDKit          3D

 59 60  0  0  0  0  0  0  0  0999 V2000
   48.9554    6.0336   20.7180 N   0  0  0  0  0  0  0  0  0  0  0  0
   49.5378    6.4876   21.8657 C   0  0  0  0  0  0  0  0  0  0  0  0
   49.0693    4.6217   20.3315 C   0  0  0  0  0  0  0  0  0  0  0  0
   48.6865    4.3611   18.8866 C   0  0  0  0  0  0  0  0  0  0  0  0
   50.0323    5.7974   22.8303 N   0  0  0  0  0  0  0  0  0  0  0  0
   47.7414    6.6790   20.1936 C   0  0  0  0  0  0  0  0  0  0  0  0
   48.0600    5.3428   18.0972 C   0  0  0  0  0  0  0  0  0  0  0  0
   47.8000    6.7140   18.6668 C   0  0  0  0  0  0  0  0  0  0  0  0
   49.6299    7.8294   21.9636 N   0  0  0  0  0  0  0  0  0  0  0  0
   48.9460    3.1004   18.3275 C   0  0  0  0  0  0  0  0  0  0  0  0
   47.7337    5.0633   16.7632 C   0  0  0  0  0  0  0  0  0  0  0  0
   48.6099    2.8282   17.0015 C   0  0  0  0  0  0  0  0  0  0  0  0
   48.0054    3.8087   16.2205 C   0  0  0  0  0  0  0  0  0  0  0  0
   49.0213    5.5223   19.4747 S   0  0  0  0  0  0  0  0  0  0  0  0
   49.5826    6.4326   20.4391 O   0  0  0  0  0  0  0  0  0  0  0  0
   49.6095    5.3096   18.1748 O   0  0  0  0  0  0  0  0  0  0  0  0
   47.5043    5.9792   19.2165 O   0  0  0  0  0  0  0  0  0  0  0  0
   48.8211    4.0807   20.1510 O   0  0  0  0  0  0  0  0  0  0  0  0
   47.5408    4.3435   18.7165 N   0  0  0  0  0  0  0  0  0  0  0  0
   47.8873    4.0428   17.4318 C   0  0  0  0  0  0  0  0  0  0  0  0
   48.4163    3.9941   19.8402 C   0  0  0  0  0  0  0  0  0  0  0  0
   49.2658    5.1631   20.2955 C   0  0  0  0  0  0  0  0  0  0  0  0
   49.0641    3.8566   16.9556 N   0  0  0  0  0  0  0  0  0  0  0  0
   46.7897    5.5849   18.9705 C   0  0  0  0  0  0  0  0  0  0  0  0
   48.9321    6.4886   19.9504 C   0  0  0  0  0  0  0  0  0  0  0  0
   47.7610    6.7683   19.0369 C   0  0  0  0  0  0  0  0  0  0  0  0
   46.8317    3.8975   16.6070 N   0  0  0  0  0  0  0  0  0  0  0  0
   50.3724    4.9279   21.1247 C   0  0  0  0  0  0  0  0  0  0  0  0
   49.7286    7.5468   20.4084 C   0  0  0  0  0  0  0  0  0  0  0  0
   51.1507    5.9899   21.5851 C   0  0  0  0  0  0  0  0  0  0  0  0
   50.8302    7.2973   21.2254 C   0  0  0  0  0  0  0  0  0  0  0  0
   48.4260    4.0127   20.9792 H   0  0  0  0  0  0  0  0  0  0  0  0
   50.1087    4.2986   20.4664 H   0  0  0  0  0  0  0  0  0  0  0  0
   49.8904    4.8045   22.6593 H   0  0  0  0  0  0  0  0  0  0  0  0
   46.8624    6.1164   20.5345 H   0  0  0  0  0  0  0  0  0  0  0  0
   47.6216    7.7059   20.5585 H   0  0  0  0  0  0  0  0  0  0  0  0
   46.8538    7.1100   18.2824 H   0  0  0  0  0  0  0  0  0  0  0  0
   48.6079    7.3804   18.3406 H   0  0  0  0  0  0  0  0  0  0  0  0
   50.2322    8.0664   22.7450 H   0  0  0  0  0  0  0  0  0  0  0  0
   49.9650    8.2499   21.1077 H   0  0  0  0  0  0  0  0  0  0  0  0
   49.4249    2.3257   18.9221 H   0  0  0  0  0  0  0  0  0  0  0  0
   47.2701    5.8240   16.1384 H   0  0  0  0  0  0  0  0  0  0  0  0
   48.8297    1.8548   16.5743 H   0  0  0  0  0  0  0  0  0  0  0  0
   47.7554    3.6020   15.1840 H   0  0  0  0  0  0  0  0  0  0  0  0
   47.5280    6.8853   18.8441 H   0  0  0  0  0  0  0  0  0  0  0  0
   48.4172    3.4876   19.4888 H   0  0  0  0  0  0  0  0  0  0  0  0
   49.0534    3.1398   19.5808 H   0  0  0  0  0  0  0  0  0  0  0  0
   47.7907    3.6779   20.6843 H   0  0  0  0  0  0  0  0  0  0  0  0
   49.7538    4.0405   17.6869 H   0  0  0  0  0  0  0  0  0  0  0  0
   46.2477    5.4875   19.9200 H   0  0  0  0  0  0  0  0  0  0  0  0
   46.0316    5.7662   18.2002 H   0  0  0  0  0  0  0  0  0  0  0  0
   48.1543    6.9805   18.0348 H   0  0  0  0  0  0  0  0  0  0  0  0
   47.2178    7.6556   19.3836 H   0  0  0  0  0  0  0  0  0  0  0  0
   46.0816    3.3819   17.0429 H   0  0  0  0  0  0  0  0  0  0  0  0
   47.1350    3.4650   15.7409 H   0  0  0  0  0  0  0  0  0  0  0  0
   50.6380    3.9133   21.4155 H   0  0  0  0  0  0  0  0  0  0  0  0
   49.4971    8.5715   20.1249 H   0  0  0  0  0  0  0  0  0  0  0  0
   52.0107    5.7967   22.2219 H   0  0  0  0  0  0  0  0  0  0  0  0
   51.4432    8.1230   21.5758 H   0  0  0  0  0  0  0  0  0  0  0  0
  2  1  1  0
  3  1  1  0
  4  3  1  0
  5  2  2  3
  6  1  1  0
  7  8  1  0
  8  6  1  0
  9  2  1  0
 10  4  2  0
 11  7  2  0
 12 10  1  0
 13 11  1  0
  4  7  1  0
 12 13  2  0
 15 14  2  0
 16 14  2  0
 17 14  1  0
 18 14  1  0
 20 19  1  0
 21 19  1  0
 22 21  1  0
 23 20  2  3
 24 19  1  0
 25 26  1  0
 26 24  1  0
 27 20  1  0
 28 22  2  0
 29 25  2  0
 30 28  1  0
 31 29  1  0
 22 25  1  0
 30 31  2  0
  3 32  1  0
  3 33  1  0
  5 34  1  0
  6 35  1  0
  6 36  1  0
  8 37  1  0
  8 38  1  0
  9 39  1  0
  9 40  1  0
 10 41  1  0
 11 42  1  0
 12 43  1  0
 13 44  1  0
 17 45  1  0
 18 46  1  0
 21 47  1  0
 21 48  1  0
 23 49  1  0
 24 50  1  0
 24 51  1  0
 26 52  1  0
 26 53  1  0
 27 54  1  0
 27 55  1  0
 28 56  1  0
 29 57  1  0
 30 58  1  0
 31 59  1  0
M  END
> <Uni-Dock RESULT> 
ENERGY=   -3.902  LOWER_BOUND=    6.150  UPPER_BOUND=    8.483
INTER + INTRA:          -3.902
INTER:                  -3.902
INTRA:                   0.000
UNBOUND:                 0.000

$$$$

     RDKit          3D

 59 60  0  0  0  0  0  0  0  0999 V2000
   44.5071   12.2670   10.5587 N   0  0  0  0  0  0  0  0  0  0  0  0
   45.7528   12.8233   10.5969 C   0  0  0  0  0  0  0  0  0  0  0  0
   43.3351   13.0301   11.0059 C   0  0  0  0  0  0  0  0  0  0  0  0
   42.1080   12.1677   11.2354 C   0  0  0  0  0  0  0  0  0  0  0  0
   46.0650   14.0558   10.7833 N   0  0  0  0  0  0  0  0  0  0  0  0
   44.1796   11.2431    9.5539 C   0  0  0  0  0  0  0  0  0  0  0  0
   42.0583   10.8241   10.8213 C   0  0  0  0  0  0  0  0  0  0  0  0
   43.2645   10.1895   10.1771 C   0  0  0  0  0  0  0  0  0  0  0  0
   46.7698   11.9490   10.4567 N   0  0  0  0  0  0  0  0  0  0  0  0
   40.9842   12.7304   11.8597 C   0  0  0  0  0  0  0  0  0  0  0  0
   40.9085   10.0602   11.0635 C   0  0  0  0  0  0  0  0  0  0  0  0
   39.8409   11.9652   12.0888 C   0  0  0  0  0  0  0  0  0  0  0  0
   39.8037   10.6318   11.6919 C   0  0  0  0  0  0  0  0  0  0  0  0
   43.3976   11.7971   11.1584 S   0  0  0  0  0  0  0  0  0  0  0  0
   44.8338   11.8998   11.1824 O   0  0  0  0  0  0  0  0  0  0  0  0
   42.6474   11.1648   12.2159 O   0  0  0  0  0  0  0  0  0  0  0  0
   42.9979   11.0369    9.8023 O   0  0  0  0  0  0  0  0  0  0  0  0
   42.7596   13.2506   10.9221 O   0  0  0  0  0  0  0  0  0  0  0  0
   41.5727   11.8691   10.2524 N   0  0  0  0  0  0  0  0  0  0  0  0
   40.6837   11.2687   11.0952 C   0  0  0  0  0  0  0  0  0  0  0  0
   42.3575   13.0319   10.6804 C   0  0  0  0  0  0  0  0  0  0  0  0
   43.7560   12.6531   11.1237 C   0  0  0  0  0  0  0  0  0  0  0  0
   40.6838   11.2783   12.3783 N   0  0  0  0  0  0  0  0  0  0  0  0
   42.3126   11.0287    9.2954 C   0  0  0  0  0  0  0  0  0  0  0  0
   44.3285   11.4164   10.7626 C   0  0  0  0  0  0  0  0  0  0  0  0
   43.5204   10.3960    9.9945 C   0  0  0  0  0  0  0  0  0  0  0  0
   39.6814   10.6313   10.4591 N   0  0  0  0  0  0  0  0  0  0  0  0
   44.5180   13.5735   11.8582 C   0  0  0  0  0  0  0  0  0  0  0  0
   45.6331   11.1095   11.1718 C   0  0  0  0  0  0  0  0  0  0  0  0
   45.8203   13.2624   12.2493 C   0  0  0  0  0  0  0  0  0  0  0  0
   46.3759   12.0310   11.9083 C   0  0  0  0  0  0  0  0  0  0  0  0
   43.0904   13.7950   10.2581 H   0  0  0  0  0  0  0  0  0  0  0  0
   43.5757   13.5295   11.9523 H   0  0  0  0  0  0  0  0  0  0  0  0
   45.2236   14.6231   10.8565 H   0  0  0  0  0  0  0  0  0  0  0  0
   43.6882   11.7261    8.6992 H   0  0  0  0  0  0  0  0  0  0  0  0
   45.0714   10.7388    9.1633 H   0  0  0  0  0  0  0  0  0  0  0  0
   42.9510    9.4844    9.3998 H   0  0  0  0  0  0  0  0  0  0  0  0
   43.8108    9.6304   10.9467 H   0  0  0  0  0  0  0  0  0  0  0  0
   47.6432   12.4143   10.6813 H   0  0  0  0  0  0  0  0  0  0  0  0
   46.6422   11.1243   11.0270 H   0  0  0  0  0  0  0  0  0  0  0  0
   40.9999   13.7688   12.1829 H   0  0  0  0  0  0  0  0  0  0  0  0
   40.8697    9.0138   10.7675 H   0  0  0  0  0  0  0  0  0  0  0  0
   38.9831   12.4061   12.5869 H   0  0  0  0  0  0  0  0  0  0  0  0
   38.9188   10.0316   11.8818 H   0  0  0  0  0  0  0  0  0  0  0  0
   43.3949   10.1416    9.8374 H   0  0  0  0  0  0  0  0  0  0  0  0
   41.7888   13.1541   10.8843 H   0  0  0  0  0  0  0  0  0  0  0  0
   41.8387   13.5732   11.4810 H   0  0  0  0  0  0  0  0  0  0  0  0
   42.4440   13.7248    9.8340 H   0  0  0  0  0  0  0  0  0  0  0  0
   41.5207   11.7623   12.7091 H   0  0  0  0  0  0  0  0  0  0  0  0
   42.6460   11.6516    8.4553 H   0  0  0  0  0  0  0  0  0  0  0  0
   41.6771   10.2463    8.8655 H   0  0  0  0  0  0  0  0  0  0  0  0
   43.1788    9.6301   10.7022 H   0  0  0  0  0  0  0  0  0  0  0  0
   44.1509    9.9065    9.2425 H   0  0  0  0  0  0  0  0  0  0  0  0
   39.3288   11.1674    9.6802 H   0  0  0  0  0  0  0  0  0  0  0  0
   38.9495   10.4022   11.1231 H   0  0  0  0  0  0  0  0  0  0  0  0
   44.1003   14.5399   12.1339 H   0  0  0  0  0  0  0  0  0  0  0  0
   46.0749   10.1466   10.9232 H   0  0  0  0  0  0  0  0  0  0  0  0
   46.4006   13.9799   12.8244 H   0  0  0  0  0  0  0  0  0  0  0  0
   47.3865   11.7853   12.2225 H   0  0  0  0  0  0  0  0  0  0  0  0
  2  1  1  0
  3  1  1  0
  4  3  1  0
  5  2  2  3
  6  1  1  0
  7  8  1  0
  8  6  1  0
  9  2  1  0
 10  4  2  0
 11  7  2  0
 12 10  1  0
 13 11  1  0
  4  7  1  0
 12 13  2  0
 15 14  2  0
 16 14  2  0
 17 14  1  0
 18 14  1  0
 20 19  1  0
 21 19  1  0
 22 21  1  0
 23 20  2  3
 24 19  1  0
 25 26  1  0
 26 24  1  0
 27 20  1  0
 28 22  2  0
 29 25  2  0
 30 28  1  0
 31 29  1  0
 22 25  1  0
 30 31  2  0
  3 32  1  0
  3 33  1  0
  5 34  1  0
  6 35  1  0
  6 36  1  0
  8 37  1  0
  8 38  1  0
  9 39  1  0
  9 40  1  0
 10 41  1  0
 11 42  1  0
 12 43  1  0
 13 44  1  0
 17 45  1  0
 18 46  1  0
 21 47  1  0
 21 48  1  0
 23 49  1  0
 24 50  1  0
 24 51  1  0
 26 52  1  0
 26 53  1  0
 27 54  1  0
 27 55  1  0
 28 56  1  0
 29 57  1  0
 30 58  1  0
 31 59  1  0
M  END
> <Uni-Dock RESULT> 
ENERGY=   -3.891  LOWER_BOUND=    5.769  UPPER_BOUND=    7.916
INTER + INTRA:          -3.891
INTER:                  -3.891
INTRA:                   0.000
UNBOUND:                 0.000

$$$$
