
     RDKit          3D

 59 60  0  0  0  0  0  0  0  0999 V2000
   49.7682    6.5232   20.2098 N   0  0  0  0  0  0  0  0  0  0  0  0
   50.3435    7.6521   20.7241 C   0  0  0  0  0  0  0  0  0  0  0  0
   49.6862    6.3934   18.7396 C   0  0  0  0  0  0  0  0  0  0  0  0
   48.8964    5.1887   18.2653 C   0  0  0  0  0  0  0  0  0  0  0  0
   51.2000    7.7444   21.6781 N   0  0  0  0  0  0  0  0  0  0  0  0
   49.8895    5.2384   20.9068 C   0  0  0  0  0  0  0  0  0  0  0  0
   48.4249    4.2102   19.1555 C   0  0  0  0  0  0  0  0  0  0  0  0
   48.6637    4.3693   20.6313 C   0  0  0  0  0  0  0  0  0  0  0  0
   49.9189    8.8066   20.1697 N   0  0  0  0  0  0  0  0  0  0  0  0
   48.6487    5.0348   16.8913 C   0  0  0  0  0  0  0  0  0  0  0  0
   47.6899    3.1191   18.6721 C   0  0  0  0  0  0  0  0  0  0  0  0
   47.9291    3.9383   16.4155 C   0  0  0  0  0  0  0  0  0  0  0  0
   47.4475    2.9828   17.3061 C   0  0  0  0  0  0  0  0  0  0  0  0
   49.1994    5.1289   19.5817 S   0  0  0  0  0  0  0  0  0  0  0  0
   50.3803    4.3244   19.3980 O   0  0  0  0  0  0  0  0  0  0  0  0
   48.2161    4.8892   20.6069 O   0  0  0  0  0  0  0  0  0  0  0  0
   49.6499    6.6608   19.7347 O   0  0  0  0  0  0  0  0  0  0  0  0
   48.4516    5.1670   18.1629 O   0  0  0  0  0  0  0  0  0  0  0  0
   49.6281    6.5229   20.2943 N   0  0  0  0  0  0  0  0  0  0  0  0
   50.3915    7.3610   21.0587 C   0  0  0  0  0  0  0  0  0  0  0  0
   50.3098    5.4299   19.5691 C   0  0  0  0  0  0  0  0  0  0  0  0
   49.4098    4.6521   18.6284 C   0  0  0  0  0  0  0  0  0  0  0  0
   50.1587    7.7840   22.2500 N   0  0  0  0  0  0  0  0  0  0  0  0
   48.2524    6.1988   20.6862 C   0  0  0  0  0  0  0  0  0  0  0  0
   48.0224    4.8649   18.5798 C   0  0  0  0  0  0  0  0  0  0  0  0
   47.4006    5.9228   19.4484 C   0  0  0  0  0  0  0  0  0  0  0  0
   51.5086    7.8175   20.4551 N   0  0  0  0  0  0  0  0  0  0  0  0
   49.9776    3.6728   17.7970 C   0  0  0  0  0  0  0  0  0  0  0  0
   47.2317    4.1292   17.6865 C   0  0  0  0  0  0  0  0  0  0  0  0
   49.1823    2.9338   16.9206 C   0  0  0  0  0  0  0  0  0  0  0  0
   47.8106    3.1644   16.8635 C   0  0  0  0  0  0  0  0  0  0  0  0
   50.7036    6.3209   18.3349 H   0  0  0  0  0  0  0  0  0  0  0  0
   49.2076    7.2822   18.3114 H   0  0  0  0  0  0  0  0  0  0  0  0
   51.4631    6.8154   22.0026 H   0  0  0  0  0  0  0  0  0  0  0  0
   50.8107    4.7318   20.5918 H   0  0  0  0  0  0  0  0  0  0  0  0
   49.9476    5.3854   21.9917 H   0  0  0  0  0  0  0  0  0  0  0  0
   47.7722    4.8272   21.0773 H   0  0  0  0  0  0  0  0  0  0  0  0
   48.8109    3.3890   21.0994 H   0  0  0  0  0  0  0  0  0  0  0  0
   50.2584    9.5832   20.7286 H   0  0  0  0  0  0  0  0  0  0  0  0
   48.9106    8.8373   20.0893 H   0  0  0  0  0  0  0  0  0  0  0  0
   49.0149    5.7750   16.1826 H   0  0  0  0  0  0  0  0  0  0  0  0
   47.3030    2.3692   19.3584 H   0  0  0  0  0  0  0  0  0  0  0  0
   47.7409    3.8322   15.3502 H   0  0  0  0  0  0  0  0  0  0  0  0
   46.8808    2.1321   16.9369 H   0  0  0  0  0  0  0  0  0  0  0  0
   48.8982    7.1444   20.1358 H   0  0  0  0  0  0  0  0  0  0  0  0
   49.1354    5.0423   17.4725 H   0  0  0  0  0  0  0  0  0  0  0  0
   50.7313    4.7301   20.3018 H   0  0  0  0  0  0  0  0  0  0  0  0
   51.1320    5.8355   18.9675 H   0  0  0  0  0  0  0  0  0  0  0  0
   49.3067    7.3588   22.6115 H   0  0  0  0  0  0  0  0  0  0  0  0
   47.7895    7.0372   21.2200 H   0  0  0  0  0  0  0  0  0  0  0  0
   48.2541    5.3356   21.3640 H   0  0  0  0  0  0  0  0  0  0  0  0
   46.3997    5.6106   19.7685 H   0  0  0  0  0  0  0  0  0  0  0  0
   47.2957    6.8390   18.8541 H   0  0  0  0  0  0  0  0  0  0  0  0
   51.9072    8.5602   21.0211 H   0  0  0  0  0  0  0  0  0  0  0  0
   51.3222    8.1444   19.5157 H   0  0  0  0  0  0  0  0  0  0  0  0
   51.0489    3.4834   17.8266 H   0  0  0  0  0  0  0  0  0  0  0  0
   46.1599    4.3045   17.6281 H   0  0  0  0  0  0  0  0  0  0  0  0
   49.6341    2.1810   16.2798 H   0  0  0  0  0  0  0  0  0  0  0  0
   47.1915    2.5940   16.1761 H   0  0  0  0  0  0  0  0  0  0  0  0
  2  1  1  0
  3  1  1  0
  4  3  1  0
  5  2  2  3
  6  1  1  0
  7  8  1  0
  8  6  1  0
  9  2  1  0
 10  4  2  0
 11  7  2  0
 12 10  1  0
 13 11  1  0
  4  7  1  0
 12 13  2  0
 15 14  2  0
 16 14  2  0
 17 14  1  0
 18 14  1  0
 20 19  1  0
 21 19  1  0
 22 21  1  0
 23 20  2  3
 24 19  1  0
 25 26  1  0
 26 24  1  0
 27 20  1  0
 28 22  2  0
 29 25  2  0
 30 28  1  0
 31 29  1  0
 22 25  1  0
 30 31  2  0
  3 32  1  0
  3 33  1  0
  5 34  1  0
  6 35  1  0
  6 36  1  0
  8 37  1  0
  8 38  1  0
  9 39  1  0
  9 40  1  0
 10 41  1  0
 11 42  1  0
 12 43  1  0
 13 44  1  0
 17 45  1  0
 18 46  1  0
 21 47  1  0
 21 48  1  0
 23 49  1  0
 24 50  1  0
 24 51  1  0
 26 52  1  0
 26 53  1  0
 27 54  1  0
 27 55  1  0
 28 56  1  0
 29 57  1  0
 30 58  1  0
 31 59  1  0
M  END
> <Uni-Dock RESULT> 
ENERGY=   -4.500  LOWER_BOUND=    0.000  UPPER_BOUND=    0.000
INTER + INTRA:          -4.500
INTER:                  -4.500
INTRA:                   0.000
UNBOUND:                 0.000

$$$$

     RDKit          3D

 59 60  0  0  0  0  0  0  0  0999 V2000
   51.6485    5.0710   19.4242 N   0  0  0  0  0  0  0  0  0  0  0  0
   52.6506    5.1872   20.3472 C   0  0  0  0  0  0  0  0  0  0  0  0
   50.4241    4.3415   19.8165 C   0  0  0  0  0  0  0  0  0  0  0  0
   49.4378    4.1289   18.6842 C   0  0  0  0  0  0  0  0  0  0  0  0
   53.3377    6.2311   20.6480 N   0  0  0  0  0  0  0  0  0  0  0  0
   51.4094    6.1342   18.4425 C   0  0  0  0  0  0  0  0  0  0  0  0
   49.6176    4.7149   17.4206 C   0  0  0  0  0  0  0  0  0  0  0  0
   50.8420    5.5450   17.1523 C   0  0  0  0  0  0  0  0  0  0  0  0
   52.9662    4.0421   20.9873 N   0  0  0  0  0  0  0  0  0  0  0  0
   48.2979    3.3408   18.9129 C   0  0  0  0  0  0  0  0  0  0  0  0
   48.6846    4.4814   16.4010 C   0  0  0  0  0  0  0  0  0  0  0  0
   47.3657    3.1247   17.8977 C   0  0  0  0  0  0  0  0  0  0  0  0
   47.5609    3.6924   16.6417 C   0  0  0  0  0  0  0  0  0  0  0  0
   50.3964    5.0324   18.3787 S   0  0  0  0  0  0  0  0  0  0  0  0
   49.6040    6.1786   18.7446 O   0  0  0  0  0  0  0  0  0  0  0  0
   51.1974    4.9585   17.1835 O   0  0  0  0  0  0  0  0  0  0  0  0
   51.3734    4.6818   19.6017 O   0  0  0  0  0  0  0  0  0  0  0  0
   49.4063    3.7704   18.4027 O   0  0  0  0  0  0  0  0  0  0  0  0
   51.7344    5.0132   19.2976 N   0  0  0  0  0  0  0  0  0  0  0  0
   52.7328    5.5311   20.0751 C   0  0  0  0  0  0  0  0  0  0  0  0
   50.4121    5.6730   19.3344 C   0  0  0  0  0  0  0  0  0  0  0  0
   49.3301    4.9399   18.5651 C   0  0  0  0  0  0  0  0  0  0  0  0
   53.9574    5.7528   19.7535 N   0  0  0  0  0  0  0  0  0  0  0  0
   52.0407    4.3836   18.0088 C   0  0  0  0  0  0  0  0  0  0  0  0
   49.6133    3.8194   17.7671 C   0  0  0  0  0  0  0  0  0  0  0  0
   51.0192    3.2913   17.6973 C   0  0  0  0  0  0  0  0  0  0  0  0
   52.3753    5.8052   21.3470 N   0  0  0  0  0  0  0  0  0  0  0  0
   48.0082    5.4095   18.6341 C   0  0  0  0  0  0  0  0  0  0  0  0
   48.5787    3.1675   17.0822 C   0  0  0  0  0  0  0  0  0  0  0  0
   46.9855    4.7644   17.9379 C   0  0  0  0  0  0  0  0  0  0  0  0
   47.2706    3.6422   17.1650 C   0  0  0  0  0  0  0  0  0  0  0  0
   49.9197    4.9024   20.6135 H   0  0  0  0  0  0  0  0  0  0  0  0
   50.6872    3.3508   20.2058 H   0  0  0  0  0  0  0  0  0  0  0  0
   52.9991    7.0356   20.1231 H   0  0  0  0  0  0  0  0  0  0  0  0
   50.7286    6.8833   18.8665 H   0  0  0  0  0  0  0  0  0  0  0  0
   52.3439    6.6457   18.1838 H   0  0  0  0  0  0  0  0  0  0  0  0
   51.5926    4.9064   16.6705 H   0  0  0  0  0  0  0  0  0  0  0  0
   50.6018    6.3635   16.4636 H   0  0  0  0  0  0  0  0  0  0  0  0
   53.8251    4.1843   21.5096 H   0  0  0  0  0  0  0  0  0  0  0  0
   53.0622    3.2660   20.3451 H   0  0  0  0  0  0  0  0  0  0  0  0
   48.1329    2.8867   19.8880 H   0  0  0  0  0  0  0  0  0  0  0  0
   48.8291    4.9143   15.4136 H   0  0  0  0  0  0  0  0  0  0  0  0
   46.4892    2.5100   18.0861 H   0  0  0  0  0  0  0  0  0  0  0  0
   46.8387    3.5188   15.8483 H   0  0  0  0  0  0  0  0  0  0  0  0
   52.0845    4.1081   19.2483 H   0  0  0  0  0  0  0  0  0  0  0  0
   48.6922    3.9754   19.0412 H   0  0  0  0  0  0  0  0  0  0  0  0
   50.5102    6.6826   18.9157 H   0  0  0  0  0  0  0  0  0  0  0  0
   50.0668    5.7621   20.3714 H   0  0  0  0  0  0  0  0  0  0  0  0
   54.1060    5.5320   18.7703 H   0  0  0  0  0  0  0  0  0  0  0  0
   53.0289    3.9093   18.0298 H   0  0  0  0  0  0  0  0  0  0  0  0
   52.0562    5.1455   17.2189 H   0  0  0  0  0  0  0  0  0  0  0  0
   51.2238    2.8880   16.6987 H   0  0  0  0  0  0  0  0  0  0  0  0
   51.1157    2.4714   18.4199 H   0  0  0  0  0  0  0  0  0  0  0  0
   53.2112    6.0098   21.8859 H   0  0  0  0  0  0  0  0  0  0  0  0
   51.8577    5.0428   21.7652 H   0  0  0  0  0  0  0  0  0  0  0  0
   47.7682    6.2830   19.2372 H   0  0  0  0  0  0  0  0  0  0  0  0
   48.7876    2.2862   16.4801 H   0  0  0  0  0  0  0  0  0  0  0  0
   45.9659    5.1355   18.0021 H   0  0  0  0  0  0  0  0  0  0  0  0
   46.4734    3.1351   16.6279 H   0  0  0  0  0  0  0  0  0  0  0  0
  2  1  1  0
  3  1  1  0
  4  3  1  0
  5  2  2  3
  6  1  1  0
  7  8  1  0
  8  6  1  0
  9  2  1  0
 10  4  2  0
 11  7  2  0
 12 10  1  0
 13 11  1  0
  4  7  1  0
 12 13  2  0
 15 14  2  0
 16 14  2  0
 17 14  1  0
 18 14  1  0
 20 19  1  0
 21 19  1  0
 22 21  1  0
 23 20  2  3
 24 19  1  0
 25 26  1  0
 26 24  1  0
 27 20  1  0
 28 22  2  0
 29 25  2  0
 30 28  1  0
 31 29  1  0
 22 25  1  0
 30 31  2  0
  3 32  1  0
  3 33  1  0
  5 34  1  0
  6 35  1  0
  6 36  1  0
  8 37  1  0
  8 38  1  0
  9 39  1  0
  9 40  1  0
 10 41  1  0
 11 42  1  0
 12 43  1  0
 13 44  1  0
 17 45  1  0
 18 46  1  0
 21 47  1  0
 21 48  1  0
 23 49  1  0
 24 50  1  0
 24 51  1  0
 26 52  1  0
 26 53  1  0
 27 54  1  0
 27 55  1  0
 28 56  1  0
 29 57  1  0
 30 58  1  0
 31 59  1  0
M  END
> <Uni-Dock RESULT> 
ENERGY=   -4.318  LOWER_BOUND=    1.776  UPPER_BOUND=    2.983
INTER + INTRA:          -4.318
INTER:                  -4.318
INTRA:                   0.000
UNBOUND:                 0.000

$$$$

     RDKit          3D

 59 60  0  0  0  0  0  0  0  0999 V2000
   47.7219    4.5107   16.2084 N   0  0  0  0  0  0  0  0  0  0  0  0
   47.4459    4.6396   14.8753 C   0  0  0  0  0  0  0  0  0  0  0  0
   48.1753    5.7107   16.9430 C   0  0  0  0  0  0  0  0  0  0  0  0
   48.6055    5.4389   18.3717 C   0  0  0  0  0  0  0  0  0  0  0  0
   46.4363    4.1822   14.2243 N   0  0  0  0  0  0  0  0  0  0  0  0
   46.9719    3.5624   17.0387 C   0  0  0  0  0  0  0  0  0  0  0  0
   48.4346    4.1818   18.9742 C   0  0  0  0  0  0  0  0  0  0  0  0
   47.8494    3.0483   18.1786 C   0  0  0  0  0  0  0  0  0  0  0  0
   48.3812    5.3042   14.1654 N   0  0  0  0  0  0  0  0  0  0  0  0
   49.1709    6.4824   19.1228 C   0  0  0  0  0  0  0  0  0  0  0  0
   48.8574    3.9745   20.2943 C   0  0  0  0  0  0  0  0  0  0  0  0
   49.5760    6.2729   20.4413 C   0  0  0  0  0  0  0  0  0  0  0  0
   49.4219    5.0186   21.0254 C   0  0  0  0  0  0  0  0  0  0  0  0
   47.9340    4.4017   17.8225 S   0  0  0  0  0  0  0  0  0  0  0  0
   46.6556    4.7830   18.3665 O   0  0  0  0  0  0  0  0  0  0  0  0
   48.4348    3.0509   17.8200 O   0  0  0  0  0  0  0  0  0  0  0  0
   48.0120    4.9170   16.3054 O   0  0  0  0  0  0  0  0  0  0  0  0
   49.0253    5.3443   18.5255 O   0  0  0  0  0  0  0  0  0  0  0  0
   47.8226    4.3820   16.2032 N   0  0  0  0  0  0  0  0  0  0  0  0
   47.2066    4.2800   14.9868 C   0  0  0  0  0  0  0  0  0  0  0  0
   47.0480    4.9454   17.3291 C   0  0  0  0  0  0  0  0  0  0  0  0
   47.8578    5.1641   18.5926 C   0  0  0  0  0  0  0  0  0  0  0  0
   47.2156    3.2862   14.1715 N   0  0  0  0  0  0  0  0  0  0  0  0
   48.8282    3.3977   16.6168 C   0  0  0  0  0  0  0  0  0  0  0  0
   49.1850    4.7207   18.7123 C   0  0  0  0  0  0  0  0  0  0  0  0
   49.8525    4.0461   17.5463 C   0  0  0  0  0  0  0  0  0  0  0  0
   46.5386    5.3854   14.5961 N   0  0  0  0  0  0  0  0  0  0  0  0
   47.2547    5.8092   19.6849 C   0  0  0  0  0  0  0  0  0  0  0  0
   49.8978    4.9547   19.8962 C   0  0  0  0  0  0  0  0  0  0  0  0
   47.9656    6.0257   20.8658 C   0  0  0  0  0  0  0  0  0  0  0  0
   49.2873    5.6013   20.9698 C   0  0  0  0  0  0  0  0  0  0  0  0
   47.3577    6.4425   16.9615 H   0  0  0  0  0  0  0  0  0  0  0  0
   49.0313    6.1633   16.4286 H   0  0  0  0  0  0  0  0  0  0  0  0
   45.7891    3.7215   14.8617 H   0  0  0  0  0  0  0  0  0  0  0  0
   46.0658    4.0455   17.4260 H   0  0  0  0  0  0  0  0  0  0  0  0
   46.6570    2.6917   16.4517 H   0  0  0  0  0  0  0  0  0  0  0  0
   48.6745    2.4487   17.7748 H   0  0  0  0  0  0  0  0  0  0  0  0
   47.2468    2.4015   18.8270 H   0  0  0  0  0  0  0  0  0  0  0  0
   48.1824    5.1930   13.1760 H   0  0  0  0  0  0  0  0  0  0  0  0
   49.3163    4.9830   14.3809 H   0  0  0  0  0  0  0  0  0  0  0  0
   49.3019    7.4676   18.6794 H   0  0  0  0  0  0  0  0  0  0  0  0
   48.7481    2.9975   20.7597 H   0  0  0  0  0  0  0  0  0  0  0  0
   50.0154    7.0875   21.0112 H   0  0  0  0  0  0  0  0  0  0  0  0
   49.7436    4.8528   22.0502 H   0  0  0  0  0  0  0  0  0  0  0  0
   48.7339    4.4197   15.8680 H   0  0  0  0  0  0  0  0  0  0  0  0
   48.5707    6.1749   18.7767 H   0  0  0  0  0  0  0  0  0  0  0  0
   46.2198    4.2645   17.5628 H   0  0  0  0  0  0  0  0  0  0  0  0
   46.6258    5.9165   17.0442 H   0  0  0  0  0  0  0  0  0  0  0  0
   47.7271    2.5051   14.5784 H   0  0  0  0  0  0  0  0  0  0  0  0
   49.3752    3.0086   15.7499 H   0  0  0  0  0  0  0  0  0  0  0  0
   48.3352    2.5475   17.1055 H   0  0  0  0  0  0  0  0  0  0  0  0
   50.5479    3.2763   17.9007 H   0  0  0  0  0  0  0  0  0  0  0  0
   50.4319    4.7992   16.9978 H   0  0  0  0  0  0  0  0  0  0  0  0
   46.2734    5.2812   13.6216 H   0  0  0  0  0  0  0  0  0  0  0  0
   47.0886    6.2243   14.7294 H   0  0  0  0  0  0  0  0  0  0  0  0
   46.2236    6.1507   19.6181 H   0  0  0  0  0  0  0  0  0  0  0  0
   50.9329    4.6335   19.9876 H   0  0  0  0  0  0  0  0  0  0  0  0
   47.4888    6.5291   21.7029 H   0  0  0  0  0  0  0  0  0  0  0  0
   49.8439    5.7757   21.8869 H   0  0  0  0  0  0  0  0  0  0  0  0
  2  1  1  0
  3  1  1  0
  4  3  1  0
  5  2  2  3
  6  1  1  0
  7  8  1  0
  8  6  1  0
  9  2  1  0
 10  4  2  0
 11  7  2  0
 12 10  1  0
 13 11  1  0
  4  7  1  0
 12 13  2  0
 15 14  2  0
 16 14  2  0
 17 14  1  0
 18 14  1  0
 20 19  1  0
 21 19  1  0
 22 21  1  0
 23 20  2  3
 24 19  1  0
 25 26  1  0
 26 24  1  0
 27 20  1  0
 28 22  2  0
 29 25  2  0
 30 28  1  0
 31 29  1  0
 22 25  1  0
 30 31  2  0
  3 32  1  0
  3 33  1  0
  5 34  1  0
  6 35  1  0
  6 36  1  0
  8 37  1  0
  8 38  1  0
  9 39  1  0
  9 40  1  0
 10 41  1  0
 11 42  1  0
 12 43  1  0
 13 44  1  0
 17 45  1  0
 18 46  1  0
 21 47  1  0
 21 48  1  0
 23 49  1  0
 24 50  1  0
 24 51  1  0
 26 52  1  0
 26 53  1  0
 27 54  1  0
 27 55  1  0
 28 56  1  0
 29 57  1  0
 30 58  1  0
 31 59  1  0
M  END
> <Uni-Dock RESULT> 
ENERGY=   -4.309  LOWER_BOUND=    2.940  UPPER_BOUND=    4.899
INTER + INTRA:          -4.309
INTER:                  -4.309
INTRA:                   0.000
UNBOUND:                 0.000

$$$$

     RDKit          3D

 59 60  0  0  0  0  0  0  0  0999 V2000
   49.8366    5.6935   21.5100 N   0  0  0  0  0  0  0  0  0  0  0  0
   50.7552    5.9586   22.4876 C   0  0  0  0  0  0  0  0  0  0  0  0
   50.3029    5.0079   20.2862 C   0  0  0  0  0  0  0  0  0  0  0  0
   49.2527    4.8970   19.1977 C   0  0  0  0  0  0  0  0  0  0  0  0
   50.6403    5.7825   23.7557 N   0  0  0  0  0  0  0  0  0  0  0  0
   48.4426    5.3954   21.8552 C   0  0  0  0  0  0  0  0  0  0  0  0
   47.9177    5.2782   19.4098 C   0  0  0  0  0  0  0  0  0  0  0  0
   47.5104    5.8566   20.7363 C   0  0  0  0  0  0  0  0  0  0  0  0
   51.9076    6.5057   22.0482 N   0  0  0  0  0  0  0  0  0  0  0  0
   49.6211    4.3757   17.9466 C   0  0  0  0  0  0  0  0  0  0  0  0
   46.9840    5.1675   18.3703 C   0  0  0  0  0  0  0  0  0  0  0  0
   48.6831    4.2545   16.9210 C   0  0  0  0  0  0  0  0  0  0  0  0
   47.3660    4.6532   17.1322 C   0  0  0  0  0  0  0  0  0  0  0  0
   48.7309    5.2594   20.3914 S   0  0  0  0  0  0  0  0  0  0  0  0
   48.3593    3.9208   20.7729 O   0  0  0  0  0  0  0  0  0  0  0  0
   47.8797    6.4089   20.5635 O   0  0  0  0  0  0  0  0  0  0  0  0
   50.1255    5.6179   21.0984 O   0  0  0  0  0  0  0  0  0  0  0  0
   49.1752    5.1852   18.8517 O   0  0  0  0  0  0  0  0  0  0  0  0
   49.7704    5.8422   21.4936 N   0  0  0  0  0  0  0  0  0  0  0  0
   50.3719    5.9586   22.7159 C   0  0  0  0  0  0  0  0  0  0  0  0
   49.2521    4.5156   21.0979 C   0  0  0  0  0  0  0  0  0  0  0  0
   48.7451    4.4470   19.6702 C   0  0  0  0  0  0  0  0  0  0  0  0
   50.2081    6.8786   23.5986 N   0  0  0  0  0  0  0  0  0  0  0  0
   49.0146    6.9620   20.9226 C   0  0  0  0  0  0  0  0  0  0  0  0
   48.6414    5.5905   18.8614 C   0  0  0  0  0  0  0  0  0  0  0  0
   49.0836    6.9238   19.3970 C   0  0  0  0  0  0  0  0  0  0  0  0
   51.2731    4.9946   22.9974 N   0  0  0  0  0  0  0  0  0  0  0  0
   48.3451    3.2058   19.1484 C   0  0  0  0  0  0  0  0  0  0  0  0
   48.1770    5.4769   17.5439 C   0  0  0  0  0  0  0  0  0  0  0  0
   47.8697    3.1024   17.8407 C   0  0  0  0  0  0  0  0  0  0  0  0
   47.7889    4.2371   17.0383 C   0  0  0  0  0  0  0  0  0  0  0  0
   50.6324    3.9958   20.5531 H   0  0  0  0  0  0  0  0  0  0  0  0
   51.1565    5.5464   19.8576 H   0  0  0  0  0  0  0  0  0  0  0  0
   49.7450    5.3458   23.9683 H   0  0  0  0  0  0  0  0  0  0  0  0
   48.3297    4.3202   22.0440 H   0  0  0  0  0  0  0  0  0  0  0  0
   48.1433    5.9244   22.7676 H   0  0  0  0  0  0  0  0  0  0  0  0
   47.5333    6.9505   20.6569 H   0  0  0  0  0  0  0  0  0  0  0  0
   46.4849    5.5566   20.9819 H   0  0  0  0  0  0  0  0  0  0  0  0
   52.4432    6.8288   22.8478 H   0  0  0  0  0  0  0  0  0  0  0  0
   51.7409    7.2639   21.3991 H   0  0  0  0  0  0  0  0  0  0  0  0
   50.6475    4.0634   17.7643 H   0  0  0  0  0  0  0  0  0  0  0  0
   45.9536    5.4813   18.5209 H   0  0  0  0  0  0  0  0  0  0  0  0
   48.9812    3.8528   15.9560 H   0  0  0  0  0  0  0  0  0  0  0  0
   46.6364    4.5656   16.3315 H   0  0  0  0  0  0  0  0  0  0  0  0
   50.2210    6.5925   21.0715 H   0  0  0  0  0  0  0  0  0  0  0  0
   49.5001    4.2756   18.6882 H   0  0  0  0  0  0  0  0  0  0  0  0
   48.4287    4.2440   21.7706 H   0  0  0  0  0  0  0  0  0  0  0  0
   50.0411    3.7606   21.1968 H   0  0  0  0  0  0  0  0  0  0  0  0
   49.4929    7.5351   23.2905 H   0  0  0  0  0  0  0  0  0  0  0  0
   49.4348    7.9223   21.2439 H   0  0  0  0  0  0  0  0  0  0  0  0
   47.9746    6.9228   21.2711 H   0  0  0  0  0  0  0  0  0  0  0  0
   48.4519    7.7234   18.9927 H   0  0  0  0  0  0  0  0  0  0  0  0
   50.1132    7.1047   19.0641 H   0  0  0  0  0  0  0  0  0  0  0  0
   51.7892    5.2610   23.8303 H   0  0  0  0  0  0  0  0  0  0  0  0
   51.9036    4.8310   22.2230 H   0  0  0  0  0  0  0  0  0  0  0  0
   48.4061    2.3088   19.7615 H   0  0  0  0  0  0  0  0  0  0  0  0
   48.1150    6.3549   16.9050 H   0  0  0  0  0  0  0  0  0  0  0  0
   47.5664    2.1357   17.4473 H   0  0  0  0  0  0  0  0  0  0  0  0
   47.4252    4.1562   16.0172 H   0  0  0  0  0  0  0  0  0  0  0  0
  2  1  1  0
  3  1  1  0
  4  3  1  0
  5  2  2  3
  6  1  1  0
  7  8  1  0
  8  6  1  0
  9  2  1  0
 10  4  2  0
 11  7  2  0
 12 10  1  0
 13 11  1  0
  4  7  1  0
 12 13  2  0
 15 14  2  0
 16 14  2  0
 17 14  1  0
 18 14  1  0
 20 19  1  0
 21 19  1  0
 22 21  1  0
 23 20  2  3
 24 19  1  0
 25 26  1  0
 26 24  1  0
 27 20  1  0
 28 22  2  0
 29 25  2  0
 30 28  1  0
 31 29  1  0
 22 25  1  0
 30 31  2  0
  3 32  1  0
  3 33  1  0
  5 34  1  0
  6 35  1  0
  6 36  1  0
  8 37  1  0
  8 38  1  0
  9 39  1  0
  9 40  1  0
 10 41  1  0
 11 42  1  0
 12 43  1  0
 13 44  1  0
 17 45  1  0
 18 46  1  0
 21 47  1  0
 21 48  1  0
 23 49  1  0
 24 50  1  0
 24 51  1  0
 26 52  1  0
 26 53  1  0
 27 54  1  0
 27 55  1  0
 28 56  1  0
 29 57  1  0
 30 58  1  0
 31 59  1  0
M  END
> <Uni-Dock RESULT> 
ENERGY=   -4.290  LOWER_BOUND=    1.330  UPPER_BOUND=    1.927
INTER + INTRA:          -4.290
INTER:                  -4.290
INTRA:                   0.000
UNBOUND:                 0.000

$$$$

     RDKit          3D

 59 60  0  0  0  0  0  0  0  0999 V2000
   50.9647    6.7855   18.4551 N   0  0  0  0  0  0  0  0  0  0  0  0
   51.5532    7.9261   18.9265 C   0  0  0  0  0  0  0  0  0  0  0  0
   49.4880    6.7193   18.4440 C   0  0  0  0  0  0  0  0  0  0  0  0
   48.9297    5.3643   18.0535 C   0  0  0  0  0  0  0  0  0  0  0  0
   52.5330    8.5843   18.4176 N   0  0  0  0  0  0  0  0  0  0  0  0
   51.5954    6.0065   17.3842 C   0  0  0  0  0  0  0  0  0  0  0  0
   49.7539    4.3233   17.5962 C   0  0  0  0  0  0  0  0  0  0  0  0
   51.2418    4.5273   17.5274 C   0  0  0  0  0  0  0  0  0  0  0  0
   51.0500    8.3825   20.0923 N   0  0  0  0  0  0  0  0  0  0  0  0
   47.5434    5.1514   18.1296 C   0  0  0  0  0  0  0  0  0  0  0  0
   49.1940    3.0841   17.2565 C   0  0  0  0  0  0  0  0  0  0  0  0
   46.9912    3.9200   17.7758 C   0  0  0  0  0  0  0  0  0  0  0  0
   47.8168    2.8862   17.3425 C   0  0  0  0  0  0  0  0  0  0  0  0
   50.2486    5.4838   17.7805 S   0  0  0  0  0  0  0  0  0  0  0  0
   50.0536    5.8690   16.4060 O   0  0  0  0  0  0  0  0  0  0  0  0
   51.2334    4.5257   18.2138 O   0  0  0  0  0  0  0  0  0  0  0  0
   50.4946    6.8107   18.6476 O   0  0  0  0  0  0  0  0  0  0  0  0
   48.8146    5.0180   18.3286 O   0  0  0  0  0  0  0  0  0  0  0  0
   51.0453    6.6743   18.5439 N   0  0  0  0  0  0  0  0  0  0  0  0
   51.8730    7.7556   18.6664 C   0  0  0  0  0  0  0  0  0  0  0  0
   50.2813    6.5229   17.2875 C   0  0  0  0  0  0  0  0  0  0  0  0
   49.2772    5.3865   17.3038 C   0  0  0  0  0  0  0  0  0  0  0  0
   53.0786    7.7881   19.1112 N   0  0  0  0  0  0  0  0  0  0  0  0
   51.3830    5.3981   19.1830 C   0  0  0  0  0  0  0  0  0  0  0  0
   49.2034    4.4735   18.3685 C   0  0  0  0  0  0  0  0  0  0  0  0
   50.1104    4.6397   19.5559 C   0  0  0  0  0  0  0  0  0  0  0  0
   51.3242    8.9329   18.3009 N   0  0  0  0  0  0  0  0  0  0  0  0
   48.4101    5.2281   16.2102 C   0  0  0  0  0  0  0  0  0  0  0  0
   48.2518    3.4448   18.3446 C   0  0  0  0  0  0  0  0  0  0  0  0
   47.4750    4.1928   16.1864 C   0  0  0  0  0  0  0  0  0  0  0  0
   47.3942    3.3039   17.2546 C   0  0  0  0  0  0  0  0  0  0  0  0
   49.1070    7.4669   17.7369 H   0  0  0  0  0  0  0  0  0  0  0  0
   49.0952    6.9554   19.4402 H   0  0  0  0  0  0  0  0  0  0  0  0
   52.8145    8.1642   17.5335 H   0  0  0  0  0  0  0  0  0  0  0  0
   51.2783    6.3948   16.4079 H   0  0  0  0  0  0  0  0  0  0  0  0
   52.6877    6.0868   17.4328 H   0  0  0  0  0  0  0  0  0  0  0  0
   51.6880    4.1228   18.4443 H   0  0  0  0  0  0  0  0  0  0  0  0
   51.6609    3.9779   16.6763 H   0  0  0  0  0  0  0  0  0  0  0  0
   51.6581    9.1133   20.4484 H   0  0  0  0  0  0  0  0  0  0  0  0
   50.9448    7.6410   20.7729 H   0  0  0  0  0  0  0  0  0  0  0  0
   46.8849    5.9481   18.4703 H   0  0  0  0  0  0  0  0  0  0  0  0
   49.8290    2.2667   16.9225 H   0  0  0  0  0  0  0  0  0  0  0  0
   45.9172    3.7664   17.8423 H   0  0  0  0  0  0  0  0  0  0  0  0
   47.3881    1.9245   17.0733 H   0  0  0  0  0  0  0  0  0  0  0  0
   50.9009    6.5315   19.4942 H   0  0  0  0  0  0  0  0  0  0  0  0
   48.1368    5.4941   17.8055 H   0  0  0  0  0  0  0  0  0  0  0  0
   50.9866    6.3493   16.4649 H   0  0  0  0  0  0  0  0  0  0  0  0
   49.7240    7.4431   17.0751 H   0  0  0  0  0  0  0  0  0  0  0  0
   53.3945    6.8457   19.3338 H   0  0  0  0  0  0  0  0  0  0  0  0
   51.9483    5.5609   20.1082 H   0  0  0  0  0  0  0  0  0  0  0  0
   52.0138    4.8027   18.5105 H   0  0  0  0  0  0  0  0  0  0  0  0
   50.3869    3.6598   19.9621 H   0  0  0  0  0  0  0  0  0  0  0  0
   49.5631    5.1865   20.3338 H   0  0  0  0  0  0  0  0  0  0  0  0
   51.9392    9.6862   18.5927 H   0  0  0  0  0  0  0  0  0  0  0  0
   50.3989    9.0544   18.6923 H   0  0  0  0  0  0  0  0  0  0  0  0
   48.4579    5.9172   15.3693 H   0  0  0  0  0  0  0  0  0  0  0  0
   48.1746    2.7477   19.1758 H   0  0  0  0  0  0  0  0  0  0  0  0
   46.8072    4.0829   15.3359 H   0  0  0  0  0  0  0  0  0  0  0  0
   46.6614    2.5013   17.2399 H   0  0  0  0  0  0  0  0  0  0  0  0
  2  1  1  0
  3  1  1  0
  4  3  1  0
  5  2  2  3
  6  1  1  0
  7  8  1  0
  8  6  1  0
  9  2  1  0
 10  4  2  0
 11  7  2  0
 12 10  1  0
 13 11  1  0
  4  7  1  0
 12 13  2  0
 15 14  2  0
 16 14  2  0
 17 14  1  0
 18 14  1  0
 20 19  1  0
 21 19  1  0
 22 21  1  0
 23 20  2  3
 24 19  1  0
 25 26  1  0
 26 24  1  0
 27 20  1  0
 28 22  2  0
 29 25  2  0
 30 28  1  0
 31 29  1  0
 22 25  1  0
 30 31  2  0
  3 32  1  0
  3 33  1  0
  5 34  1  0
  6 35  1  0
  6 36  1  0
  8 37  1  0
  8 38  1  0
  9 39  1  0
  9 40  1  0
 10 41  1  0
 11 42  1  0
 12 43  1  0
 13 44  1  0
 17 45  1  0
 18 46  1  0
 21 47  1  0
 21 48  1  0
 23 49  1  0
 24 50  1  0
 24 51  1  0
 26 52  1  0
 26 53  1  0
 27 54  1  0
 27 55  1  0
 28 56  1  0
 29 57  1  0
 30 58  1  0
 31 59  1  0
M  END
> <Uni-Dock RESULT> 
ENERGY=   -4.241  LOWER_BOUND=    1.481  UPPER_BOUND=    2.461
INTER + INTRA:          -4.241
INTER:                  -4.241
INTRA:                   0.000
UNBOUND:                 0.000

$$$$

     RDKit          3D

 59 60  0  0  0  0  0  0  0  0999 V2000
   40.7171   12.0567   11.6544 N   0  0  0  0  0  0  0  0  0  0  0  0
   41.5365   11.3564   10.8131 C   0  0  0  0  0  0  0  0  0  0  0  0
   40.8944   11.8716   13.1102 C   0  0  0  0  0  0  0  0  0  0  0  0
   39.8441   12.5642   13.9571 C   0  0  0  0  0  0  0  0  0  0  0  0
   42.1581   11.7820    9.7716 N   0  0  0  0  0  0  0  0  0  0  0  0
   40.2333   13.3917   11.2868 C   0  0  0  0  0  0  0  0  0  0  0  0
   38.8877   13.4275   13.3981 C   0  0  0  0  0  0  0  0  0  0  0  0
   38.8628   13.6482   11.9112 C   0  0  0  0  0  0  0  0  0  0  0  0
   41.6683   10.0471   11.1114 N   0  0  0  0  0  0  0  0  0  0  0  0
   39.8420   12.3541   15.3459 C   0  0  0  0  0  0  0  0  0  0  0  0
   37.9294   14.0372   14.2193 C   0  0  0  0  0  0  0  0  0  0  0  0
   38.8943   12.9760   16.1592 C   0  0  0  0  0  0  0  0  0  0  0  0
   37.9368   13.8146   15.5953 C   0  0  0  0  0  0  0  0  0  0  0  0
   39.8329   12.9782   12.6699 S   0  0  0  0  0  0  0  0  0  0  0  0
   40.6651   14.1303   12.9057 O   0  0  0  0  0  0  0  0  0  0  0  0
   38.6422   13.0002   11.8591 O   0  0  0  0  0  0  0  0  0  0  0  0
   40.7538   11.7991   12.0913 O   0  0  0  0  0  0  0  0  0  0  0  0
   39.4508   12.3918   14.1134 O   0  0  0  0  0  0  0  0  0  0  0  0
   40.5719   12.0180   11.5897 N   0  0  0  0  0  0  0  0  0  0  0  0
   41.4099   11.6994   10.5574 C   0  0  0  0  0  0  0  0  0  0  0  0
   40.9560   13.1366   12.4765 C   0  0  0  0  0  0  0  0  0  0  0  0
   40.0501   13.3151   13.6796 C   0  0  0  0  0  0  0  0  0  0  0  0
   41.1050   11.4460    9.3347 N   0  0  0  0  0  0  0  0  0  0  0  0
   39.1214   11.8469   11.4553 C   0  0  0  0  0  0  0  0  0  0  0  0
   38.8677   12.5740   13.8377 C   0  0  0  0  0  0  0  0  0  0  0  0
   38.4968   11.5369   12.8145 C   0  0  0  0  0  0  0  0  0  0  0  0
   42.7138   11.6113   10.8934 N   0  0  0  0  0  0  0  0  0  0  0  0
   40.3919   14.2673   14.6541 C   0  0  0  0  0  0  0  0  0  0  0  0
   38.0670   12.7659   14.9719 C   0  0  0  0  0  0  0  0  0  0  0  0
   39.5823   14.4634   15.7734 C   0  0  0  0  0  0  0  0  0  0  0  0
   38.4223   13.7107   15.9333 C   0  0  0  0  0  0  0  0  0  0  0  0
   41.8802   12.2588   13.3972 H   0  0  0  0  0  0  0  0  0  0  0  0
   40.8575   10.8044   13.3591 H   0  0  0  0  0  0  0  0  0  0  0  0
   42.0050   12.7825    9.6577 H   0  0  0  0  0  0  0  0  0  0  0  0
   40.9599   14.1497   11.6061 H   0  0  0  0  0  0  0  0  0  0  0  0
   40.1183   13.4811   10.2002 H   0  0  0  0  0  0  0  0  0  0  0  0
   38.1196   12.9699   11.4744 H   0  0  0  0  0  0  0  0  0  0  0  0
   38.5565   14.6764   11.6856 H   0  0  0  0  0  0  0  0  0  0  0  0
   42.1391    9.5811   10.3420 H   0  0  0  0  0  0  0  0  0  0  0  0
   40.7744    9.6121   11.3002 H   0  0  0  0  0  0  0  0  0  0  0  0
   40.5813   11.6982   15.8015 H   0  0  0  0  0  0  0  0  0  0  0  0
   37.1723   14.6896   13.7900 H   0  0  0  0  0  0  0  0  0  0  0  0
   38.9009   12.8027   17.2322 H   0  0  0  0  0  0  0  0  0  0  0  0
   37.1939   14.2940   16.2274 H   0  0  0  0  0  0  0  0  0  0  0  0
   40.1564   11.1437   11.6749 H   0  0  0  0  0  0  0  0  0  0  0  0
   40.1714   12.6436   14.7275 H   0  0  0  0  0  0  0  0  0  0  0  0
   40.9457   14.0670   11.8948 H   0  0  0  0  0  0  0  0  0  0  0  0
   41.9721   12.9800   12.8580 H   0  0  0  0  0  0  0  0  0  0  0  0
   40.1034   11.5645    9.1925 H   0  0  0  0  0  0  0  0  0  0  0  0
   38.8861   11.0082   10.7895 H   0  0  0  0  0  0  0  0  0  0  0  0
   38.6810   12.7513   11.0163 H   0  0  0  0  0  0  0  0  0  0  0  0
   37.4075   11.4877   12.7019 H   0  0  0  0  0  0  0  0  0  0  0  0
   38.8447   10.5598   13.1723 H   0  0  0  0  0  0  0  0  0  0  0  0
   43.2252   11.2002   10.1185 H   0  0  0  0  0  0  0  0  0  0  0  0
   42.8491   11.0709   11.7382 H   0  0  0  0  0  0  0  0  0  0  0  0
   41.2976   14.8608   14.5458 H   0  0  0  0  0  0  0  0  0  0  0  0
   37.1615   12.1796   15.1114 H   0  0  0  0  0  0  0  0  0  0  0  0
   39.8594   15.2009   16.5222 H   0  0  0  0  0  0  0  0  0  0  0  0
   37.7948   13.8581   16.8084 H   0  0  0  0  0  0  0  0  0  0  0  0
  2  1  1  0
  3  1  1  0
  4  3  1  0
  5  2  2  3
  6  1  1  0
  7  8  1  0
  8  6  1  0
  9  2  1  0
 10  4  2  0
 11  7  2  0
 12 10  1  0
 13 11  1  0
  4  7  1  0
 12 13  2  0
 15 14  2  0
 16 14  2  0
 17 14  1  0
 18 14  1  0
 20 19  1  0
 21 19  1  0
 22 21  1  0
 23 20  2  3
 24 19  1  0
 25 26  1  0
 26 24  1  0
 27 20  1  0
 28 22  2  0
 29 25  2  0
 30 28  1  0
 31 29  1  0
 22 25  1  0
 30 31  2  0
  3 32  1  0
  3 33  1  0
  5 34  1  0
  6 35  1  0
  6 36  1  0
  8 37  1  0
  8 38  1  0
  9 39  1  0
  9 40  1  0
 10 41  1  0
 11 42  1  0
 12 43  1  0
 13 44  1  0
 17 45  1  0
 18 46  1  0
 21 47  1  0
 21 48  1  0
 23 49  1  0
 24 50  1  0
 24 51  1  0
 26 52  1  0
 26 53  1  0
 27 54  1  0
 27 55  1  0
 28 56  1  0
 29 57  1  0
 30 58  1  0
 31 59  1  0
M  END
> <Uni-Dock RESULT> 
ENERGY=   -4.234  LOWER_BOUND=   12.546  UPPER_BOUND=   13.975
INTER + INTRA:          -4.234
INTER:                  -4.234
INTRA:                   0.000
UNBOUND:                 0.000

$$$$

     RDKit          3D

 59 60  0  0  0  0  0  0  0  0999 V2000
   48.2128    4.2442   18.2822 N   0  0  0  0  0  0  0  0  0  0  0  0
   47.9225    3.2566   17.3821 C   0  0  0  0  0  0  0  0  0  0  0  0
   48.1712    3.9070   19.7208 C   0  0  0  0  0  0  0  0  0  0  0  0
   48.3523    5.0970   20.6434 C   0  0  0  0  0  0  0  0  0  0  0  0
   48.5468    2.9595   16.2985 N   0  0  0  0  0  0  0  0  0  0  0  0
   49.1826    5.2941   17.9530 C   0  0  0  0  0  0  0  0  0  0  0  0
   48.6840    6.3722   20.1572 C   0  0  0  0  0  0  0  0  0  0  0  0
   48.8242    6.5910   18.6764 C   0  0  0  0  0  0  0  0  0  0  0  0
   46.8175    2.5371   17.6681 N   0  0  0  0  0  0  0  0  0  0  0  0
   48.2066    4.9134   22.0283 C   0  0  0  0  0  0  0  0  0  0  0  0
   48.8310    7.4449   21.0472 C   0  0  0  0  0  0  0  0  0  0  0  0
   48.3689    5.9826   22.9097 C   0  0  0  0  0  0  0  0  0  0  0  0
   48.6779    7.2481   22.4187 C   0  0  0  0  0  0  0  0  0  0  0  0
   48.6779    5.3764   19.3611 S   0  0  0  0  0  0  0  0  0  0  0  0
   50.0864    5.1294   19.5369 O   0  0  0  0  0  0  0  0  0  0  0  0
   48.1443    6.5035   18.6397 O   0  0  0  0  0  0  0  0  0  0  0  0
   48.0120    4.0679   18.7149 O   0  0  0  0  0  0  0  0  0  0  0  0
   48.0284    5.3614   20.8279 O   0  0  0  0  0  0  0  0  0  0  0  0
   48.1117    4.3610   18.2283 N   0  0  0  0  0  0  0  0  0  0  0  0
   48.1655    3.5391   17.1369 C   0  0  0  0  0  0  0  0  0  0  0  0
   49.3117    4.4563   19.0862 C   0  0  0  0  0  0  0  0  0  0  0  0
   49.1077    5.2651   20.3526 C   0  0  0  0  0  0  0  0  0  0  0  0
   47.7652    3.7799   15.9394 N   0  0  0  0  0  0  0  0  0  0  0  0
   47.3111    5.5895   18.2002 C   0  0  0  0  0  0  0  0  0  0  0  0
   47.9244    5.9815   20.5959 C   0  0  0  0  0  0  0  0  0  0  0  0
   46.7989    5.9197   19.6011 C   0  0  0  0  0  0  0  0  0  0  0  0
   48.6754    2.3129   17.3763 N   0  0  0  0  0  0  0  0  0  0  0  0
   50.1426    5.3185   21.3008 C   0  0  0  0  0  0  0  0  0  0  0  0
   47.7767    6.7070   21.7860 C   0  0  0  0  0  0  0  0  0  0  0  0
   49.9944    6.0547   22.4767 C   0  0  0  0  0  0  0  0  0  0  0  0
   48.8107    6.7459   22.7201 C   0  0  0  0  0  0  0  0  0  0  0  0
   48.9641    3.1794   19.9354 H   0  0  0  0  0  0  0  0  0  0  0  0
   47.2066    3.4491   19.9702 H   0  0  0  0  0  0  0  0  0  0  0  0
   49.3715    3.5486   16.1976 H   0  0  0  0  0  0  0  0  0  0  0  0
   50.1938    4.9608   18.2192 H   0  0  0  0  0  0  0  0  0  0  0  0
   49.1777    5.5086   16.8778 H   0  0  0  0  0  0  0  0  0  0  0  0
   47.8734    6.9824   18.2943 H   0  0  0  0  0  0  0  0  0  0  0  0
   49.6023    7.3366   18.4753 H   0  0  0  0  0  0  0  0  0  0  0  0
   46.5847    1.9604   16.8656 H   0  0  0  0  0  0  0  0  0  0  0  0
   46.0373    3.1298   17.9212 H   0  0  0  0  0  0  0  0  0  0  0  0
   47.9612    3.9313   22.4276 H   0  0  0  0  0  0  0  0  0  0  0  0
   49.0662    8.4396   20.6755 H   0  0  0  0  0  0  0  0  0  0  0  0
   48.2502    5.8286   23.9791 H   0  0  0  0  0  0  0  0  0  0  0  0
   48.7977    8.0830   23.1043 H   0  0  0  0  0  0  0  0  0  0  0  0
   47.1470    4.3378   18.3425 H   0  0  0  0  0  0  0  0  0  0  0  0
   48.5927    4.7889   21.3879 H   0  0  0  0  0  0  0  0  0  0  0  0
   50.1224    4.9176   18.5081 H   0  0  0  0  0  0  0  0  0  0  0  0
   49.6339    3.4537   19.3919 H   0  0  0  0  0  0  0  0  0  0  0  0
   47.4228    4.7367   15.8712 H   0  0  0  0  0  0  0  0  0  0  0  0
   46.4346    5.4711   17.5523 H   0  0  0  0  0  0  0  0  0  0  0  0
   47.9122    6.4141   17.7960 H   0  0  0  0  0  0  0  0  0  0  0  0
   46.2683    6.8784   19.5685 H   0  0  0  0  0  0  0  0  0  0  0  0
   46.0891    5.1509   19.9310 H   0  0  0  0  0  0  0  0  0  0  0  0
   48.5096    1.7247   16.5655 H   0  0  0  0  0  0  0  0  0  0  0  0
   48.2778    1.8958   18.2082 H   0  0  0  0  0  0  0  0  0  0  0  0
   51.0724    4.7804   21.1273 H   0  0  0  0  0  0  0  0  0  0  0  0
   46.8544    7.2460   21.9906 H   0  0  0  0  0  0  0  0  0  0  0  0
   50.8012    6.0855   23.2043 H   0  0  0  0  0  0  0  0  0  0  0  0
   48.6919    7.3140   23.6390 H   0  0  0  0  0  0  0  0  0  0  0  0
  2  1  1  0
  3  1  1  0
  4  3  1  0
  5  2  2  3
  6  1  1  0
  7  8  1  0
  8  6  1  0
  9  2  1  0
 10  4  2  0
 11  7  2  0
 12 10  1  0
 13 11  1  0
  4  7  1  0
 12 13  2  0
 15 14  2  0
 16 14  2  0
 17 14  1  0
 18 14  1  0
 20 19  1  0
 21 19  1  0
 22 21  1  0
 23 20  2  3
 24 19  1  0
 25 26  1  0
 26 24  1  0
 27 20  1  0
 28 22  2  0
 29 25  2  0
 30 28  1  0
 31 29  1  0
 22 25  1  0
 30 31  2  0
  3 32  1  0
  3 33  1  0
  5 34  1  0
  6 35  1  0
  6 36  1  0
  8 37  1  0
  8 38  1  0
  9 39  1  0
  9 40  1  0
 10 41  1  0
 11 42  1  0
 12 43  1  0
 13 44  1  0
 17 45  1  0
 18 46  1  0
 21 47  1  0
 21 48  1  0
 23 49  1  0
 24 50  1  0
 24 51  1  0
 26 52  1  0
 26 53  1  0
 27 54  1  0
 27 55  1  0
 28 56  1  0
 29 57  1  0
 30 58  1  0
 31 59  1  0
M  END
> <Uni-Dock RESULT> 
ENERGY=   -4.160  LOWER_BOUND=    2.371  UPPER_BOUND=    4.661
INTER + INTRA:          -4.160
INTER:                  -4.160
INTRA:                   0.000
UNBOUND:                 0.000

$$$$

     RDKit          3D

 59 60  0  0  0  0  0  0  0  0999 V2000
   55.5574    5.2964    9.2112 N   0  0  0  0  0  0  0  0  0  0  0  0
   56.3798    4.6444   10.0877 C   0  0  0  0  0  0  0  0  0  0  0  0
   55.8930    6.6897    8.8491 C   0  0  0  0  0  0  0  0  0  0  0  0
   54.8444    7.3805    7.9986 C   0  0  0  0  0  0  0  0  0  0  0  0
   56.8396    3.4468   10.0062 N   0  0  0  0  0  0  0  0  0  0  0  0
   54.8696    4.5618    8.1441 C   0  0  0  0  0  0  0  0  0  0  0  0
   53.7344    6.6929    7.4813 C   0  0  0  0  0  0  0  0  0  0  0  0
   53.5417    5.2380    7.8075 C   0  0  0  0  0  0  0  0  0  0  0  0
   56.7105    5.3529   11.1874 N   0  0  0  0  0  0  0  0  0  0  0  0
   55.0000    8.7441    7.7000 C   0  0  0  0  0  0  0  0  0  0  0  0
   52.7851    7.3758    6.7087 C   0  0  0  0  0  0  0  0  0  0  0  0
   54.0588    9.4141    6.9179 C   0  0  0  0  0  0  0  0  0  0  0  0
   52.9505    8.7307    6.4253 C   0  0  0  0  0  0  0  0  0  0  0  0
   54.6583    6.0432    8.0727 S   0  0  0  0  0  0  0  0  0  0  0  0
   55.3497    5.7561    6.8418 O   0  0  0  0  0  0  0  0  0  0  0  0
   53.4046    5.4413    8.4487 O   0  0  0  0  0  0  0  0  0  0  0  0
   55.6685    5.7860    9.2919 O   0  0  0  0  0  0  0  0  0  0  0  0
   54.4937    7.6376    8.1390 O   0  0  0  0  0  0  0  0  0  0  0  0
   55.4132    5.2690    9.2833 N   0  0  0  0  0  0  0  0  0  0  0  0
   56.1856    4.3061    9.8712 C   0  0  0  0  0  0  0  0  0  0  0  0
   55.7277    5.6587    7.8925 C   0  0  0  0  0  0  0  0  0  0  0  0
   54.9227    6.8375    7.3803 C   0  0  0  0  0  0  0  0  0  0  0  0
   55.8038    3.2968   10.5696 N   0  0  0  0  0  0  0  0  0  0  0  0
   53.9918    5.3969    9.6217 C   0  0  0  0  0  0  0  0  0  0  0  0
   53.8684    7.3969    8.1205 C   0  0  0  0  0  0  0  0  0  0  0  0
   53.5434    6.8506    9.4829 C   0  0  0  0  0  0  0  0  0  0  0  0
   57.5154    4.4740    9.7154 N   0  0  0  0  0  0  0  0  0  0  0  0
   55.2256    7.3715    6.1169 C   0  0  0  0  0  0  0  0  0  0  0  0
   53.1590    8.4930    7.6109 C   0  0  0  0  0  0  0  0  0  0  0  0
   54.5055    8.4534    5.6094 C   0  0  0  0  0  0  0  0  0  0  0  0
   53.4749    9.0155    6.3577 C   0  0  0  0  0  0  0  0  0  0  0  0
   56.8417    6.6918    8.2975 H   0  0  0  0  0  0  0  0  0  0  0  0
   56.0207    7.2919    9.7566 H   0  0  0  0  0  0  0  0  0  0  0  0
   56.5459    3.0185    9.1301 H   0  0  0  0  0  0  0  0  0  0  0  0
   55.5165    4.5016    7.2596 H   0  0  0  0  0  0  0  0  0  0  0  0
   54.6427    3.5362    8.4581 H   0  0  0  0  0  0  0  0  0  0  0  0
   52.8568    5.1639    8.6612 H   0  0  0  0  0  0  0  0  0  0  0  0
   53.0827    4.7169    6.9592 H   0  0  0  0  0  0  0  0  0  0  0  0
   57.1645    4.7341   11.8520 H   0  0  0  0  0  0  0  0  0  0  0  0
   55.9033    5.7973   11.6058 H   0  0  0  0  0  0  0  0  0  0  0  0
   55.8587    9.2935    8.0809 H   0  0  0  0  0  0  0  0  0  0  0  0
   51.9118    6.8545    6.3233 H   0  0  0  0  0  0  0  0  0  0  0  0
   54.1885   10.4704    6.6966 H   0  0  0  0  0  0  0  0  0  0  0  0
   52.2133    9.2536    5.8218 H   0  0  0  0  0  0  0  0  0  0  0  0
   55.1265    5.7035   10.1038 H   0  0  0  0  0  0  0  0  0  0  0  0
   55.2290    8.0258    7.6209 H   0  0  0  0  0  0  0  0  0  0  0  0
   55.5404    4.8003    7.2350 H   0  0  0  0  0  0  0  0  0  0  0  0
   56.7868    5.9309    7.8104 H   0  0  0  0  0  0  0  0  0  0  0  0
   54.7865    3.2582   10.6007 H   0  0  0  0  0  0  0  0  0  0  0  0
   53.8079    5.0969   10.6601 H   0  0  0  0  0  0  0  0  0  0  0  0
   53.3968    4.7377    8.9767 H   0  0  0  0  0  0  0  0  0  0  0  0
   52.4644    6.9087    9.6674 H   0  0  0  0  0  0  0  0  0  0  0  0
   54.0491    7.4716   10.2328 H   0  0  0  0  0  0  0  0  0  0  0  0
   58.0018    3.8259   10.3272 H   0  0  0  0  0  0  0  0  0  0  0  0
   57.7993    5.4266    9.9051 H   0  0  0  0  0  0  0  0  0  0  0  0
   56.0310    6.9461    5.5214 H   0  0  0  0  0  0  0  0  0  0  0  0
   52.3558    8.9449    8.1885 H   0  0  0  0  0  0  0  0  0  0  0  0
   54.7516    8.8598    4.6319 H   0  0  0  0  0  0  0  0  0  0  0  0
   52.9181    9.8627    5.9660 H   0  0  0  0  0  0  0  0  0  0  0  0
  2  1  1  0
  3  1  1  0
  4  3  1  0
  5  2  2  3
  6  1  1  0
  7  8  1  0
  8  6  1  0
  9  2  1  0
 10  4  2  0
 11  7  2  0
 12 10  1  0
 13 11  1  0
  4  7  1  0
 12 13  2  0
 15 14  2  0
 16 14  2  0
 17 14  1  0
 18 14  1  0
 20 19  1  0
 21 19  1  0
 22 21  1  0
 23 20  2  3
 24 19  1  0
 25 26  1  0
 26 24  1  0
 27 20  1  0
 28 22  2  0
 29 25  2  0
 30 28  1  0
 31 29  1  0
 22 25  1  0
 30 31  2  0
  3 32  1  0
  3 33  1  0
  5 34  1  0
  6 35  1  0
  6 36  1  0
  8 37  1  0
  8 38  1  0
  9 39  1  0
  9 40  1  0
 10 41  1  0
 11 42  1  0
 12 43  1  0
 13 44  1  0
 17 45  1  0
 18 46  1  0
 21 47  1  0
 21 48  1  0
 23 49  1  0
 24 50  1  0
 24 51  1  0
 26 52  1  0
 26 53  1  0
 27 54  1  0
 27 55  1  0
 28 56  1  0
 29 57  1  0
 30 58  1  0
 31 59  1  0
M  END
> <Uni-Dock RESULT> 
ENERGY=   -4.032  LOWER_BOUND=   11.476  UPPER_BOUND=   12.814
INTER + INTRA:          -4.032
INTER:                  -4.032
INTRA:                   0.000
UNBOUND:                 0.000

$$$$

     RDKit          3D

 59 60  0  0  0  0  0  0  0  0999 V2000
   48.3067    7.2410   21.4380 N   0  0  0  0  0  0  0  0  0  0  0  0
   48.1988    6.0115   22.0264 C   0  0  0  0  0  0  0  0  0  0  0  0
   47.1775    8.1835   21.5859 C   0  0  0  0  0  0  0  0  0  0  0  0
   47.3196    9.4559   20.7729 C   0  0  0  0  0  0  0  0  0  0  0  0
   49.0789    5.3817   22.7200 N   0  0  0  0  0  0  0  0  0  0  0  0
   49.6111    7.9014   21.3201 C   0  0  0  0  0  0  0  0  0  0  0  0
   48.4964    9.7630   20.0706 C   0  0  0  0  0  0  0  0  0  0  0  0
   49.6433    8.7911   20.0786 C   0  0  0  0  0  0  0  0  0  0  0  0
   47.0251    5.3819   21.8107 N   0  0  0  0  0  0  0  0  0  0  0  0
   46.2502   10.3659   20.7401 C   0  0  0  0  0  0  0  0  0  0  0  0
   48.5779   10.9463   19.3239 C   0  0  0  0  0  0  0  0  0  0  0  0
   46.3438   11.5491   20.0066 C   0  0  0  0  0  0  0  0  0  0  0  0
   47.5061   11.8372   19.2966 C   0  0  0  0  0  0  0  0  0  0  0  0
   48.4726    8.7537   20.8491 S   0  0  0  0  0  0  0  0  0  0  0  0
   48.9979    9.5030   21.9618 O   0  0  0  0  0  0  0  0  0  0  0  0
   49.2481    8.3834   19.6927 O   0  0  0  0  0  0  0  0  0  0  0  0
   47.8240    7.3991   21.4127 O   0  0  0  0  0  0  0  0  0  0  0  0
   47.1651    9.5383   20.3509 O   0  0  0  0  0  0  0  0  0  0  0  0
   48.3486    7.1954   21.2866 N   0  0  0  0  0  0  0  0  0  0  0  0
   48.6408    6.0606   21.9909 C   0  0  0  0  0  0  0  0  0  0  0  0
   48.5040    8.4968   21.9702 C   0  0  0  0  0  0  0  0  0  0  0  0
   48.0100    9.6840   21.1662 C   0  0  0  0  0  0  0  0  0  0  0  0
   49.3213    5.0396   21.6077 N   0  0  0  0  0  0  0  0  0  0  0  0
   48.5860    7.2598   19.8406 C   0  0  0  0  0  0  0  0  0  0  0  0
   47.5893    9.5566   19.8323 C   0  0  0  0  0  0  0  0  0  0  0  0
   47.5807    8.2018   19.1806 C   0  0  0  0  0  0  0  0  0  0  0  0
   48.1095    6.0111   23.2303 N   0  0  0  0  0  0  0  0  0  0  0  0
   47.9945   10.9539   21.7663 C   0  0  0  0  0  0  0  0  0  0  0  0
   47.1307   10.6807   19.1320 C   0  0  0  0  0  0  0  0  0  0  0  0
   47.5504   12.0712   21.0583 C   0  0  0  0  0  0  0  0  0  0  0  0
   47.1160   11.9336   19.7430 C   0  0  0  0  0  0  0  0  0  0  0  0
   47.0839    8.4581   22.6442 H   0  0  0  0  0  0  0  0  0  0  0  0
   46.2442    7.7017   21.2710 H   0  0  0  0  0  0  0  0  0  0  0  0
   49.9103    5.9584   22.8363 H   0  0  0  0  0  0  0  0  0  0  0  0
   49.8146    8.4838   22.2277 H   0  0  0  0  0  0  0  0  0  0  0  0
   50.4152    7.1639   21.2135 H   0  0  0  0  0  0  0  0  0  0  0  0
   49.5784    8.1739   19.1740 H   0  0  0  0  0  0  0  0  0  0  0  0
   50.5974    9.3303   20.0527 H   0  0  0  0  0  0  0  0  0  0  0  0
   47.1057    4.4204   22.1267 H   0  0  0  0  0  0  0  0  0  0  0  0
   46.7524    5.4169   20.8369 H   0  0  0  0  0  0  0  0  0  0  0  0
   45.3334   10.1534   21.2865 H   0  0  0  0  0  0  0  0  0  0  0  0
   49.4781   11.1798   18.7599 H   0  0  0  0  0  0  0  0  0  0  0  0
   45.5080   12.2438   19.9862 H   0  0  0  0  0  0  0  0  0  0  0  0
   47.5770   12.7554   18.7194 H   0  0  0  0  0  0  0  0  0  0  0  0
   47.7349    6.7843   20.6552 H   0  0  0  0  0  0  0  0  0  0  0  0
   46.8070   10.0228   21.1234 H   0  0  0  0  0  0  0  0  0  0  0  0
   49.5665    8.6510   22.1972 H   0  0  0  0  0  0  0  0  0  0  0  0
   47.9470    8.4924   22.9148 H   0  0  0  0  0  0  0  0  0  0  0  0
   49.6899    5.1969   20.6713 H   0  0  0  0  0  0  0  0  0  0  0  0
   48.4601    6.2734   19.3788 H   0  0  0  0  0  0  0  0  0  0  0  0
   49.6163    7.5857   19.6487 H   0  0  0  0  0  0  0  0  0  0  0  0
   47.8244    8.2917   18.1156 H   0  0  0  0  0  0  0  0  0  0  0  0
   46.5686    7.7864   19.2626 H   0  0  0  0  0  0  0  0  0  0  0  0
   48.2260    5.0726   23.6000 H   0  0  0  0  0  0  0  0  0  0  0  0
   47.1333    6.2778   23.2324 H   0  0  0  0  0  0  0  0  0  0  0  0
   48.3270   11.0774   22.7952 H   0  0  0  0  0  0  0  0  0  0  0  0
   46.7828   10.5852   18.1059 H   0  0  0  0  0  0  0  0  0  0  0  0
   47.5400   13.0480   21.5349 H   0  0  0  0  0  0  0  0  0  0  0  0
   46.7634   12.8023   19.1931 H   0  0  0  0  0  0  0  0  0  0  0  0
  2  1  1  0
  3  1  1  0
  4  3  1  0
  5  2  2  3
  6  1  1  0
  7  8  1  0
  8  6  1  0
  9  2  1  0
 10  4  2  0
 11  7  2  0
 12 10  1  0
 13 11  1  0
  4  7  1  0
 12 13  2  0
 15 14  2  0
 16 14  2  0
 17 14  1  0
 18 14  1  0
 20 19  1  0
 21 19  1  0
 22 21  1  0
 23 20  2  3
 24 19  1  0
 25 26  1  0
 26 24  1  0
 27 20  1  0
 28 22  2  0
 29 25  2  0
 30 28  1  0
 31 29  1  0
 22 25  1  0
 30 31  2  0
  3 32  1  0
  3 33  1  0
  5 34  1  0
  6 35  1  0
  6 36  1  0
  8 37  1  0
  8 38  1  0
  9 39  1  0
  9 40  1  0
 10 41  1  0
 11 42  1  0
 12 43  1  0
 13 44  1  0
 17 45  1  0
 18 46  1  0
 21 47  1  0
 21 48  1  0
 23 49  1  0
 24 50  1  0
 24 51  1  0
 26 52  1  0
 26 53  1  0
 27 54  1  0
 27 55  1  0
 28 56  1  0
 29 57  1  0
 30 58  1  0
 31 59  1  0
M  END
> <Uni-Dock RESULT> 
ENERGY=   -3.988  LOWER_BOUND=    3.362  UPPER_BOUND=    5.522
INTER + INTRA:          -3.988
INTER:                  -3.988
INTRA:                   0.000
UNBOUND:                 0.000

$$$$
