
     RDKit          3D

 59 60  0  0  0  0  0  0  0  0999 V2000
   44.4122    4.5498   11.4884 N   0  0  0  0  0  0  0  0  0  0  0  0
   44.1028    3.2293   11.3128 C   0  0  0  0  0  0  0  0  0  0  0  0
   45.6002    4.8764   12.3061 C   0  0  0  0  0  0  0  0  0  0  0  0
   45.8059    6.3591   12.5460 C   0  0  0  0  0  0  0  0  0  0  0  0
   43.7722    2.6286   10.2261 N   0  0  0  0  0  0  0  0  0  0  0  0
   44.1377    5.5263   10.4291 C   0  0  0  0  0  0  0  0  0  0  0  0
   45.0054    7.3318   11.9259 C   0  0  0  0  0  0  0  0  0  0  0  0
   43.8760    6.9043   11.0317 C   0  0  0  0  0  0  0  0  0  0  0  0
   44.1235    2.4877   12.4392 N   0  0  0  0  0  0  0  0  0  0  0  0
   46.8446    6.7733   13.3952 C   0  0  0  0  0  0  0  0  0  0  0  0
   45.2287    8.6914   12.1829 C   0  0  0  0  0  0  0  0  0  0  0  0
   47.0723    8.1289   13.6333 C   0  0  0  0  0  0  0  0  0  0  0  0
   46.2631    9.0868   13.0292 C   0  0  0  0  0  0  0  0  0  0  0  0
   44.7386    6.1737   12.0550 S   0  0  0  0  0  0  0  0  0  0  0  0
   44.1384    5.7499   13.2954 O   0  0  0  0  0  0  0  0  0  0  0  0
   44.7242    7.5452   11.6102 O   0  0  0  0  0  0  0  0  0  0  0  0
   44.1631    5.2277   10.8913 O   0  0  0  0  0  0  0  0  0  0  0  0
   46.2756    5.7155   12.1108 O   0  0  0  0  0  0  0  0  0  0  0  0
   44.4085    4.5492   11.7227 N   0  0  0  0  0  0  0  0  0  0  0  0
   44.1851    3.2093   11.5531 C   0  0  0  0  0  0  0  0  0  0  0  0
   45.7484    4.9914   12.1562 C   0  0  0  0  0  0  0  0  0  0  0  0
   45.9066    6.4993   12.1999 C   0  0  0  0  0  0  0  0  0  0  0  0
   43.1660    2.5757   12.0185 N   0  0  0  0  0  0  0  0  0  0  0  0
   43.3267    5.3440   12.3297 C   0  0  0  0  0  0  0  0  0  0  0  0
   44.8028    7.3632   12.0959 C   0  0  0  0  0  0  0  0  0  0  0  0
   43.4262    6.7971   11.8683 C   0  0  0  0  0  0  0  0  0  0  0  0
   45.1153    2.5808   10.8015 N   0  0  0  0  0  0  0  0  0  0  0  0
   47.1856    7.0479   12.3904 C   0  0  0  0  0  0  0  0  0  0  0  0
   44.9930    8.7512   12.1482 C   0  0  0  0  0  0  0  0  0  0  0  0
   47.3650    8.4302   12.4531 C   0  0  0  0  0  0  0  0  0  0  0  0
   46.2694    9.2809   12.3298 C   0  0  0  0  0  0  0  0  0  0  0  0
   45.5192    4.3978   13.2892 H   0  0  0  0  0  0  0  0  0  0  0  0
   46.4911    4.4831   11.8019 H   0  0  0  0  0  0  0  0  0  0  0  0
   43.8137    3.2776    9.4423 H   0  0  0  0  0  0  0  0  0  0  0  0
   43.2433    5.2433    9.8608 H   0  0  0  0  0  0  0  0  0  0  0  0
   44.9804    5.5567    9.7264 H   0  0  0  0  0  0  0  0  0  0  0  0
   42.9547    6.8860   11.6266 H   0  0  0  0  0  0  0  0  0  0  0  0
   43.7395    7.6271   10.2187 H   0  0  0  0  0  0  0  0  0  0  0  0
   43.6213    2.9361   13.1944 H   0  0  0  0  0  0  0  0  0  0  0  0
   43.7302    1.5726   12.2359 H   0  0  0  0  0  0  0  0  0  0  0  0
   47.4826    6.0368   13.8795 H   0  0  0  0  0  0  0  0  0  0  0  0
   44.5990    9.4490   11.7222 H   0  0  0  0  0  0  0  0  0  0  0  0
   47.8792    8.4377   14.2927 H   0  0  0  0  0  0  0  0  0  0  0  0
   46.4368   10.1433   13.2189 H   0  0  0  0  0  0  0  0  0  0  0  0
   44.3126    4.2985   11.1530 H   0  0  0  0  0  0  0  0  0  0  0  0
   46.7641    6.3774   12.6454 H   0  0  0  0  0  0  0  0  0  0  0  0
   46.5106    4.6021   11.4709 H   0  0  0  0  0  0  0  0  0  0  0  0
   45.9526    4.5918   13.1575 H   0  0  0  0  0  0  0  0  0  0  0  0
   43.2378    1.5882   11.7775 H   0  0  0  0  0  0  0  0  0  0  0  0
   43.3844    5.2747   13.4239 H   0  0  0  0  0  0  0  0  0  0  0  0
   42.3418    4.9665   12.0284 H   0  0  0  0  0  0  0  0  0  0  0  0
   42.6788    7.3917   12.4055 H   0  0  0  0  0  0  0  0  0  0  0  0
   43.2023    6.8624   10.7963 H   0  0  0  0  0  0  0  0  0  0  0  0
   44.8007    1.7051   10.4104 H   0  0  0  0  0  0  0  0  0  0  0  0
   45.4601    3.1867   10.0655 H   0  0  0  0  0  0  0  0  0  0  0  0
   48.0518    6.3966   12.4906 H   0  0  0  0  0  0  0  0  0  0  0  0
   44.1450    9.4250   12.0477 H   0  0  0  0  0  0  0  0  0  0  0  0
   48.3594    8.8433   12.5973 H   0  0  0  0  0  0  0  0  0  0  0  0
   46.4096   10.3576   12.3733 H   0  0  0  0  0  0  0  0  0  0  0  0
  2  1  1  0
  3  1  1  0
  4  3  1  0
  5  2  2  3
  6  1  1  0
  7  8  1  0
  8  6  1  0
  9  2  1  0
 10  4  2  0
 11  7  2  0
 12 10  1  0
 13 11  1  0
  4  7  1  0
 12 13  2  0
 15 14  2  0
 16 14  2  0
 17 14  1  0
 18 14  1  0
 20 19  1  0
 21 19  1  0
 22 21  1  0
 23 20  2  3
 24 19  1  0
 25 26  1  0
 26 24  1  0
 27 20  1  0
 28 22  2  0
 29 25  2  0
 30 28  1  0
 31 29  1  0
 22 25  1  0
 30 31  2  0
  3 32  1  0
  3 33  1  0
  5 34  1  0
  6 35  1  0
  6 36  1  0
  8 37  1  0
  8 38  1  0
  9 39  1  0
  9 40  1  0
 10 41  1  0
 11 42  1  0
 12 43  1  0
 13 44  1  0
 17 45  1  0
 18 46  1  0
 21 47  1  0
 21 48  1  0
 23 49  1  0
 24 50  1  0
 24 51  1  0
 26 52  1  0
 26 53  1  0
 27 54  1  0
 27 55  1  0
 28 56  1  0
 29 57  1  0
 30 58  1  0
 31 59  1  0
M  END
> <Uni-Dock RESULT> 
ENERGY=   -6.000  LOWER_BOUND=    0.000  UPPER_BOUND=    0.000
INTER + INTRA:          -6.000
INTER:                  -6.000
INTRA:                   0.000
UNBOUND:                 0.000

$$$$

     RDKit          3D

 59 60  0  0  0  0  0  0  0  0999 V2000
   45.4121    6.4391   12.0077 N   0  0  0  0  0  0  0  0  0  0  0  0
   45.7002    7.6730   12.5220 C   0  0  0  0  0  0  0  0  0  0  0  0
   45.4930    6.2677   10.5411 C   0  0  0  0  0  0  0  0  0  0  0  0
   45.0484    4.9060   10.0451 C   0  0  0  0  0  0  0  0  0  0  0  0
   46.4349    7.9589   13.5367 N   0  0  0  0  0  0  0  0  0  0  0  0
   45.7339    5.2237   12.7630 C   0  0  0  0  0  0  0  0  0  0  0  0
   44.7191    3.8635   10.9262 C   0  0  0  0  0  0  0  0  0  0  0  0
   44.7581    4.1043   12.4090 C   0  0  0  0  0  0  0  0  0  0  0  0
   45.1042    8.7042   11.8890 N   0  0  0  0  0  0  0  0  0  0  0  0
   44.9874    4.6722    8.6619 C   0  0  0  0  0  0  0  0  0  0  0  0
   44.3069    2.6228   10.4215 C   0  0  0  0  0  0  0  0  0  0  0  0
   44.5927    3.4295    8.1661 C   0  0  0  0  0  0  0  0  0  0  0  0
   44.2505    2.4065    9.0458 C   0  0  0  0  0  0  0  0  0  0  0  0
   44.7709    5.0272   11.1952 S   0  0  0  0  0  0  0  0  0  0  0  0
   43.6099    5.8382   10.9254 O   0  0  0  0  0  0  0  0  0  0  0  0
   44.7089    3.5915   11.3137 O   0  0  0  0  0  0  0  0  0  0  0  0
   45.4986    5.6400   12.4896 O   0  0  0  0  0  0  0  0  0  0  0  0
   45.8367    5.3563   10.0415 O   0  0  0  0  0  0  0  0  0  0  0  0
   45.2412    6.5076   11.8627 N   0  0  0  0  0  0  0  0  0  0  0  0
   45.5852    7.7549   12.3100 C   0  0  0  0  0  0  0  0  0  0  0  0
   45.6644    6.1027   10.5078 C   0  0  0  0  0  0  0  0  0  0  0  0
   45.3237    4.6641   10.1687 C   0  0  0  0  0  0  0  0  0  0  0  0
   44.7718    8.5760   12.8763 N   0  0  0  0  0  0  0  0  0  0  0  0
   43.8974    6.0120   12.2073 C   0  0  0  0  0  0  0  0  0  0  0  0
   44.4589    3.8991   10.9701 C   0  0  0  0  0  0  0  0  0  0  0  0
   43.8978    4.4845   12.2389 C   0  0  0  0  0  0  0  0  0  0  0  0
   46.8911    8.0623   12.1516 N   0  0  0  0  0  0  0  0  0  0  0  0
   45.8539    4.0926    9.0003 C   0  0  0  0  0  0  0  0  0  0  0  0
   44.1651    2.5747   10.6162 C   0  0  0  0  0  0  0  0  0  0  0  0
   45.5473    2.7775    8.6488 C   0  0  0  0  0  0  0  0  0  0  0  0
   44.7053    2.0188    9.4577 C   0  0  0  0  0  0  0  0  0  0  0  0
   44.8637    7.0148   10.0432 H   0  0  0  0  0  0  0  0  0  0  0  0
   46.5319    6.4254   10.2271 H   0  0  0  0  0  0  0  0  0  0  0  0
   46.8492    7.1101   13.9176 H   0  0  0  0  0  0  0  0  0  0  0  0
   45.6491    5.4018   13.8418 H   0  0  0  0  0  0  0  0  0  0  0  0
   46.7696    4.9237   12.5575 H   0  0  0  0  0  0  0  0  0  0  0  0
   43.7466    4.3679   12.7410 H   0  0  0  0  0  0  0  0  0  0  0  0
   45.0598    3.1910   12.9352 H   0  0  0  0  0  0  0  0  0  0  0  0
   44.1177    8.5351   11.7403 H   0  0  0  0  0  0  0  0  0  0  0  0
   45.2483    9.5501   12.4340 H   0  0  0  0  0  0  0  0  0  0  0  0
   45.2464    5.4632    7.9609 H   0  0  0  0  0  0  0  0  0  0  0  0
   44.0305    1.8178   11.0985 H   0  0  0  0  0  0  0  0  0  0  0  0
   44.5491    3.2601    7.0934 H   0  0  0  0  0  0  0  0  0  0  0  0
   43.9374    1.4394    8.6597 H   0  0  0  0  0  0  0  0  0  0  0  0
   45.6584    6.5900   12.3273 H   0  0  0  0  0  0  0  0  0  0  0  0
   45.5836    4.8399    9.2467 H   0  0  0  0  0  0  0  0  0  0  0  0
   46.7503    6.2147   10.4060 H   0  0  0  0  0  0  0  0  0  0  0  0
   45.1824    6.7567    9.7701 H   0  0  0  0  0  0  0  0  0  0  0  0
   45.2596    9.4426   13.0981 H   0  0  0  0  0  0  0  0  0  0  0  0
   43.1652    6.3895   11.4815 H   0  0  0  0  0  0  0  0  0  0  0  0
   43.5882    6.3646   13.1990 H   0  0  0  0  0  0  0  0  0  0  0  0
   42.8720    4.1327   12.3968 H   0  0  0  0  0  0  0  0  0  0  0  0
   44.5089    4.1306   13.0784 H   0  0  0  0  0  0  0  0  0  0  0  0
   47.2101    8.8101   12.7498 H   0  0  0  0  0  0  0  0  0  0  0  0
   47.4764    7.2438   12.2757 H   0  0  0  0  0  0  0  0  0  0  0  0
   46.5120    4.6729    8.3563 H   0  0  0  0  0  0  0  0  0  0  0  0
   43.5128    1.9713   11.2436 H   0  0  0  0  0  0  0  0  0  0  0  0
   45.9660    2.3448    7.7445 H   0  0  0  0  0  0  0  0  0  0  0  0
   44.4706    0.9929    9.1870 H   0  0  0  0  0  0  0  0  0  0  0  0
  2  1  1  0
  3  1  1  0
  4  3  1  0
  5  2  2  3
  6  1  1  0
  7  8  1  0
  8  6  1  0
  9  2  1  0
 10  4  2  0
 11  7  2  0
 12 10  1  0
 13 11  1  0
  4  7  1  0
 12 13  2  0
 15 14  2  0
 16 14  2  0
 17 14  1  0
 18 14  1  0
 20 19  1  0
 21 19  1  0
 22 21  1  0
 23 20  2  3
 24 19  1  0
 25 26  1  0
 26 24  1  0
 27 20  1  0
 28 22  2  0
 29 25  2  0
 30 28  1  0
 31 29  1  0
 22 25  1  0
 30 31  2  0
  3 32  1  0
  3 33  1  0
  5 34  1  0
  6 35  1  0
  6 36  1  0
  8 37  1  0
  8 38  1  0
  9 39  1  0
  9 40  1  0
 10 41  1  0
 11 42  1  0
 12 43  1  0
 13 44  1  0
 17 45  1  0
 18 46  1  0
 21 47  1  0
 21 48  1  0
 23 49  1  0
 24 50  1  0
 24 51  1  0
 26 52  1  0
 26 53  1  0
 27 54  1  0
 27 55  1  0
 28 56  1  0
 29 57  1  0
 30 58  1  0
 31 59  1  0
M  END
> <Uni-Dock RESULT> 
ENERGY=   -5.860  LOWER_BOUND=    2.214  UPPER_BOUND=    4.743
INTER + INTRA:          -5.860
INTER:                  -5.860
INTRA:                   0.000
UNBOUND:                 0.000

$$$$

     RDKit          3D

 59 60  0  0  0  0  0  0  0  0999 V2000
   47.2393    7.2212   13.1996 N   0  0  0  0  0  0  0  0  0  0  0  0
   48.4868    7.5554   13.6490 C   0  0  0  0  0  0  0  0  0  0  0  0
   46.8403    5.7989   13.2677 C   0  0  0  0  0  0  0  0  0  0  0  0
   45.4912    5.4972   12.6457 C   0  0  0  0  0  0  0  0  0  0  0  0
   48.8212    8.5369   14.4079 N   0  0  0  0  0  0  0  0  0  0  0  0
   46.1192    8.1565   13.3470 C   0  0  0  0  0  0  0  0  0  0  0  0
   44.6463    6.5131   12.1707 C   0  0  0  0  0  0  0  0  0  0  0  0
   45.0997    7.9445   12.2306 C   0  0  0  0  0  0  0  0  0  0  0  0
   49.4814    6.7605   13.2039 N   0  0  0  0  0  0  0  0  0  0  0  0
   45.0626    4.1625   12.5642 C   0  0  0  0  0  0  0  0  0  0  0  0
   43.4101    6.1858   11.5972 C   0  0  0  0  0  0  0  0  0  0  0  0
   43.8234    3.8450   12.0078 C   0  0  0  0  0  0  0  0  0  0  0  0
   42.9991    4.8562   11.5226 C   0  0  0  0  0  0  0  0  0  0  0  0
   45.8197    6.6086   12.3784 S   0  0  0  0  0  0  0  0  0  0  0  0
   46.7286    6.1894   11.3407 O   0  0  0  0  0  0  0  0  0  0  0  0
   44.4394    6.9361   12.1205 O   0  0  0  0  0  0  0  0  0  0  0  0
   46.5173    7.8181   13.1727 O   0  0  0  0  0  0  0  0  0  0  0  0
   45.8266    5.4492   13.4880 O   0  0  0  0  0  0  0  0  0  0  0  0
   47.3074    7.0629   13.0407 N   0  0  0  0  0  0  0  0  0  0  0  0
   48.5505    7.3304   13.5479 C   0  0  0  0  0  0  0  0  0  0  0  0
   46.6508    5.7951   13.4153 C   0  0  0  0  0  0  0  0  0  0  0  0
   45.2361    5.6629   12.8845 C   0  0  0  0  0  0  0  0  0  0  0  0
   49.5485    7.7462   12.8495 N   0  0  0  0  0  0  0  0  0  0  0  0
   47.0531    7.4391   11.6392 C   0  0  0  0  0  0  0  0  0  0  0  0
   44.7225    6.5439   11.9174 C   0  0  0  0  0  0  0  0  0  0  0  0
   45.5614    7.6960   11.4314 C   0  0  0  0  0  0  0  0  0  0  0  0
   48.6535    7.1651   14.8847 N   0  0  0  0  0  0  0  0  0  0  0  0
   44.4299    4.6071   13.3410 C   0  0  0  0  0  0  0  0  0  0  0  0
   43.4111    6.3815   11.4487 C   0  0  0  0  0  0  0  0  0  0  0  0
   43.1298    4.4453   12.8609 C   0  0  0  0  0  0  0  0  0  0  0  0
   42.6205    5.3335   11.9171 C   0  0  0  0  0  0  0  0  0  0  0  0
   47.5813    5.1785   12.7499 H   0  0  0  0  0  0  0  0  0  0  0  0
   46.8089    5.4942   14.3208 H   0  0  0  0  0  0  0  0  0  0  0  0
   47.9916    9.0505   14.6998 H   0  0  0  0  0  0  0  0  0  0  0  0
   46.4670    9.1944   13.2788 H   0  0  0  0  0  0  0  0  0  0  0  0
   45.6562    8.0267   14.3337 H   0  0  0  0  0  0  0  0  0  0  0  0
   45.5428    8.2055   11.2618 H   0  0  0  0  0  0  0  0  0  0  0  0
   44.2438    8.6082   12.4009 H   0  0  0  0  0  0  0  0  0  0  0  0
   49.4251    6.6107   12.2048 H   0  0  0  0  0  0  0  0  0  0  0  0
   50.3728    7.1783   13.4577 H   0  0  0  0  0  0  0  0  0  0  0  0
   45.6976    3.3600   12.9340 H   0  0  0  0  0  0  0  0  0  0  0  0
   42.7601    6.9663   11.2085 H   0  0  0  0  0  0  0  0  0  0  0  0
   43.5022    2.8083   11.9499 H   0  0  0  0  0  0  0  0  0  0  0  0
   42.0355    4.6086   11.0837 H   0  0  0  0  0  0  0  0  0  0  0  0
   47.4022    7.5217   13.4616 H   0  0  0  0  0  0  0  0  0  0  0  0
   45.2351    4.7326   13.1731 H   0  0  0  0  0  0  0  0  0  0  0  0
   46.6003    5.7084   14.5072 H   0  0  0  0  0  0  0  0  0  0  0  0
   47.2450    4.9556   13.0327 H   0  0  0  0  0  0  0  0  0  0  0  0
   50.3657    7.8511   13.4491 H   0  0  0  0  0  0  0  0  0  0  0  0
   47.4116    6.6452   10.9710 H   0  0  0  0  0  0  0  0  0  0  0  0
   47.5887    8.3587   11.3733 H   0  0  0  0  0  0  0  0  0  0  0  0
   45.3775    7.8754   10.3661 H   0  0  0  0  0  0  0  0  0  0  0  0
   45.2593    8.5955   11.9821 H   0  0  0  0  0  0  0  0  0  0  0  0
   49.4334    7.6549   15.2979 H   0  0  0  0  0  0  0  0  0  0  0  0
   47.7923    7.4251   15.3521 H   0  0  0  0  0  0  0  0  0  0  0  0
   44.8139    3.9031   14.0770 H   0  0  0  0  0  0  0  0  0  0  0  0
   43.0014    7.0726   10.7154 H   0  0  0  0  0  0  0  0  0  0  0  0
   42.5142    3.6270   13.2238 H   0  0  0  0  0  0  0  0  0  0  0  0
   41.6062    5.2109   11.5470 H   0  0  0  0  0  0  0  0  0  0  0  0
  2  1  1  0
  3  1  1  0
  4  3  1  0
  5  2  2  3
  6  1  1  0
  7  8  1  0
  8  6  1  0
  9  2  1  0
 10  4  2  0
 11  7  2  0
 12 10  1  0
 13 11  1  0
  4  7  1  0
 12 13  2  0
 15 14  2  0
 16 14  2  0
 17 14  1  0
 18 14  1  0
 20 19  1  0
 21 19  1  0
 22 21  1  0
 23 20  2  3
 24 19  1  0
 25 26  1  0
 26 24  1  0
 27 20  1  0
 28 22  2  0
 29 25  2  0
 30 28  1  0
 31 29  1  0
 22 25  1  0
 30 31  2  0
  3 32  1  0
  3 33  1  0
  5 34  1  0
  6 35  1  0
  6 36  1  0
  8 37  1  0
  8 38  1  0
  9 39  1  0
  9 40  1  0
 10 41  1  0
 11 42  1  0
 12 43  1  0
 13 44  1  0
 17 45  1  0
 18 46  1  0
 21 47  1  0
 21 48  1  0
 23 49  1  0
 24 50  1  0
 24 51  1  0
 26 52  1  0
 26 53  1  0
 27 54  1  0
 27 55  1  0
 28 56  1  0
 29 57  1  0
 30 58  1  0
 31 59  1  0
M  END
> <Uni-Dock RESULT> 
ENERGY=   -5.786  LOWER_BOUND=    2.624  UPPER_BOUND=    4.477
INTER + INTRA:          -5.786
INTER:                  -5.786
INTRA:                   0.000
UNBOUND:                 0.000

$$$$

     RDKit          3D

 59 60  0  0  0  0  0  0  0  0999 V2000
   44.4786    5.6868   12.1565 N   0  0  0  0  0  0  0  0  0  0  0  0
   43.3451    5.2905   11.5021 C   0  0  0  0  0  0  0  0  0  0  0  0
   44.9597    7.0663   11.9279 C   0  0  0  0  0  0  0  0  0  0  0  0
   46.2808    7.3872   12.5985 C   0  0  0  0  0  0  0  0  0  0  0  0
   42.3374    4.6493   11.9759 N   0  0  0  0  0  0  0  0  0  0  0  0
   44.7871    5.1677   13.4930 C   0  0  0  0  0  0  0  0  0  0  0  0
   46.9129    6.4844   13.4685 C   0  0  0  0  0  0  0  0  0  0  0  0
   46.2971    5.1361   13.7152 C   0  0  0  0  0  0  0  0  0  0  0  0
   43.3139    5.5936   10.1882 N   0  0  0  0  0  0  0  0  0  0  0  0
   46.8787    8.6354   12.3616 C   0  0  0  0  0  0  0  0  0  0  0  0
   48.1374    6.8221   14.0608 C   0  0  0  0  0  0  0  0  0  0  0  0
   48.0891    8.9721   12.9679 C   0  0  0  0  0  0  0  0  0  0  0  0
   48.7188    8.0647   13.8150 C   0  0  0  0  0  0  0  0  0  0  0  0
   46.0661    6.2195   12.6674 S   0  0  0  0  0  0  0  0  0  0  0  0
   46.4733    5.9701   11.3070 O   0  0  0  0  0  0  0  0  0  0  0  0
   46.9769    6.1353   13.7820 O   0  0  0  0  0  0  0  0  0  0  0  0
   44.7759    5.3084   12.9606 O   0  0  0  0  0  0  0  0  0  0  0  0
   45.4311    7.6931   12.6917 O   0  0  0  0  0  0  0  0  0  0  0  0
   44.6015    5.7481   11.9666 N   0  0  0  0  0  0  0  0  0  0  0  0
   43.4391    5.4352   11.3147 C   0  0  0  0  0  0  0  0  0  0  0  0
   44.9495    7.1716   12.1436 C   0  0  0  0  0  0  0  0  0  0  0  0
   46.1978    7.3935   12.9762 C   0  0  0  0  0  0  0  0  0  0  0  0
   43.3432    4.5611   10.3748 N   0  0  0  0  0  0  0  0  0  0  0  0
   45.7796    4.9079   11.6901 C   0  0  0  0  0  0  0  0  0  0  0  0
   47.0652    6.3381   13.3063 C   0  0  0  0  0  0  0  0  0  0  0  0
   46.7287    4.9315   12.8872 C   0  0  0  0  0  0  0  0  0  0  0  0
   42.3516    6.0963   11.7679 N   0  0  0  0  0  0  0  0  0  0  0  0
   46.5184    8.6954   13.3950 C   0  0  0  0  0  0  0  0  0  0  0  0
   48.2124    6.5886   14.0724 C   0  0  0  0  0  0  0  0  0  0  0  0
   47.6682    8.9381   14.1473 C   0  0  0  0  0  0  0  0  0  0  0  0
   48.5131    7.8847   14.4875 C   0  0  0  0  0  0  0  0  0  0  0  0
   45.0910    7.2423   10.8537 H   0  0  0  0  0  0  0  0  0  0  0  0
   44.2045    7.7672   12.3037 H   0  0  0  0  0  0  0  0  0  0  0  0
   42.4594    4.4972   12.9755 H   0  0  0  0  0  0  0  0  0  0  0  0
   44.4189    4.1408   13.6065 H   0  0  0  0  0  0  0  0  0  0  0  0
   44.2894    5.7836   14.2532 H   0  0  0  0  0  0  0  0  0  0  0  0
   46.7629    4.4154   13.0321 H   0  0  0  0  0  0  0  0  0  0  0  0
   46.4980    4.8078   14.7418 H   0  0  0  0  0  0  0  0  0  0  0  0
   44.1747    5.3375    9.7222 H   0  0  0  0  0  0  0  0  0  0  0  0
   42.5186    5.1244    9.7629 H   0  0  0  0  0  0  0  0  0  0  0  0
   46.4020    9.3537   11.6977 H   0  0  0  0  0  0  0  0  0  0  0  0
   48.6425    6.1192   14.7192 H   0  0  0  0  0  0  0  0  0  0  0  0
   48.5427    9.9411   12.7770 H   0  0  0  0  0  0  0  0  0  0  0  0
   49.6651    8.3246   14.2834 H   0  0  0  0  0  0  0  0  0  0  0  0
   44.1123    5.4888   12.2668 H   0  0  0  0  0  0  0  0  0  0  0  0
   46.1716    8.3355   12.7298 H   0  0  0  0  0  0  0  0  0  0  0  0
   44.1266    7.6989   12.6404 H   0  0  0  0  0  0  0  0  0  0  0  0
   45.1036    7.6294   11.1582 H   0  0  0  0  0  0  0  0  0  0  0  0
   42.3824    4.5254   10.0374 H   0  0  0  0  0  0  0  0  0  0  0  0
   46.2840    5.2634   10.7821 H   0  0  0  0  0  0  0  0  0  0  0  0
   45.4891    3.8643   11.5171 H   0  0  0  0  0  0  0  0  0  0  0  0
   47.6422    4.3854   12.6263 H   0  0  0  0  0  0  0  0  0  0  0  0
   46.2631    4.4225   13.7402 H   0  0  0  0  0  0  0  0  0  0  0  0
   41.4762    5.6523   11.5323 H   0  0  0  0  0  0  0  0  0  0  0  0
   42.4069    6.2470   12.7689 H   0  0  0  0  0  0  0  0  0  0  0  0
   45.8695    9.5298   13.1357 H   0  0  0  0  0  0  0  0  0  0  0  0
   48.8765    5.7723   14.3482 H   0  0  0  0  0  0  0  0  0  0  0  0
   47.9043    9.9487   14.4687 H   0  0  0  0  0  0  0  0  0  0  0  0
   49.4058    8.0728   15.0779 H   0  0  0  0  0  0  0  0  0  0  0  0
  2  1  1  0
  3  1  1  0
  4  3  1  0
  5  2  2  3
  6  1  1  0
  7  8  1  0
  8  6  1  0
  9  2  1  0
 10  4  2  0
 11  7  2  0
 12 10  1  0
 13 11  1  0
  4  7  1  0
 12 13  2  0
 15 14  2  0
 16 14  2  0
 17 14  1  0
 18 14  1  0
 20 19  1  0
 21 19  1  0
 22 21  1  0
 23 20  2  3
 24 19  1  0
 25 26  1  0
 26 24  1  0
 27 20  1  0
 28 22  2  0
 29 25  2  0
 30 28  1  0
 31 29  1  0
 22 25  1  0
 30 31  2  0
  3 32  1  0
  3 33  1  0
  5 34  1  0
  6 35  1  0
  6 36  1  0
  8 37  1  0
  8 38  1  0
  9 39  1  0
  9 40  1  0
 10 41  1  0
 11 42  1  0
 12 43  1  0
 13 44  1  0
 17 45  1  0
 18 46  1  0
 21 47  1  0
 21 48  1  0
 23 49  1  0
 24 50  1  0
 24 51  1  0
 26 52  1  0
 26 53  1  0
 27 54  1  0
 27 55  1  0
 28 56  1  0
 29 57  1  0
 30 58  1  0
 31 59  1  0
M  END
> <Uni-Dock RESULT> 
ENERGY=   -5.379  LOWER_BOUND=    1.444  UPPER_BOUND=    2.797
INTER + INTRA:          -5.379
INTER:                  -5.379
INTRA:                   0.000
UNBOUND:                 0.000

$$$$

     RDKit          3D

 59 60  0  0  0  0  0  0  0  0999 V2000
   52.1901    3.8287   18.6146 N   0  0  0  0  0  0  0  0  0  0  0  0
   53.5015    3.4652   18.7484 C   0  0  0  0  0  0  0  0  0  0  0  0
   51.3362    3.0132   17.7243 C   0  0  0  0  0  0  0  0  0  0  0  0
   49.9301    3.5497   17.5426 C   0  0  0  0  0  0  0  0  0  0  0  0
   54.1947    3.3743   19.8266 N   0  0  0  0  0  0  0  0  0  0  0  0
   51.4657    4.4307   19.7389 C   0  0  0  0  0  0  0  0  0  0  0  0
   49.4540    4.6523   18.2700 C   0  0  0  0  0  0  0  0  0  0  0  0
   50.3697    5.3620   19.2270 C   0  0  0  0  0  0  0  0  0  0  0  0
   54.1380    3.2024   17.5886 N   0  0  0  0  0  0  0  0  0  0  0  0
   49.0692    2.9094   16.6368 C   0  0  0  0  0  0  0  0  0  0  0  0
   48.1480    5.1172   18.0638 C   0  0  0  0  0  0  0  0  0  0  0  0
   47.7648    3.3667   16.4488 C   0  0  0  0  0  0  0  0  0  0  0  0
   47.3058    4.4715   17.1604 C   0  0  0  0  0  0  0  0  0  0  0  0
   50.6001    4.3553   18.1052 S   0  0  0  0  0  0  0  0  0  0  0  0
   51.2483    4.7976   16.8956 O   0  0  0  0  0  0  0  0  0  0  0  0
   49.4005    4.9704   18.6168 O   0  0  0  0  0  0  0  0  0  0  0  0
   51.7138    4.3107   19.2620 O   0  0  0  0  0  0  0  0  0  0  0  0
   50.2792    2.7954   17.9078 O   0  0  0  0  0  0  0  0  0  0  0  0
   52.1906    3.8532   18.3816 N   0  0  0  0  0  0  0  0  0  0  0  0
   53.4788    3.4055   18.5018 C   0  0  0  0  0  0  0  0  0  0  0  0
   51.1660    2.9231   17.8678 C   0  0  0  0  0  0  0  0  0  0  0  0
   49.7613    3.4953   17.8863 C   0  0  0  0  0  0  0  0  0  0  0  0
   54.5148    4.0463   18.0862 N   0  0  0  0  0  0  0  0  0  0  0  0
   51.9956    5.2317   17.9002 C   0  0  0  0  0  0  0  0  0  0  0  0
   49.5207    4.8605   18.1181 C   0  0  0  0  0  0  0  0  0  0  0  0
   50.6704    5.7835   18.4236 C   0  0  0  0  0  0  0  0  0  0  0  0
   53.5996    2.2248   19.1470 N   0  0  0  0  0  0  0  0  0  0  0  0
   48.6733    2.6465   17.6244 C   0  0  0  0  0  0  0  0  0  0  0  0
   48.2065    5.3491   18.1196 C   0  0  0  0  0  0  0  0  0  0  0  0
   47.3692    3.1428   17.6161 C   0  0  0  0  0  0  0  0  0  0  0  0
   47.1364    4.4928   17.8659 C   0  0  0  0  0  0  0  0  0  0  0  0
   51.7897    2.9500   16.7281 H   0  0  0  0  0  0  0  0  0  0  0  0
   51.2665    1.9999   18.1379 H   0  0  0  0  0  0  0  0  0  0  0  0
   53.6083    3.5703   20.6358 H   0  0  0  0  0  0  0  0  0  0  0  0
   52.1408    5.0315   20.3602 H   0  0  0  0  0  0  0  0  0  0  0  0
   51.0464    3.6402   20.3747 H   0  0  0  0  0  0  0  0  0  0  0  0
   50.8160    6.2173   18.7052 H   0  0  0  0  0  0  0  0  0  0  0  0
   49.8022    5.7463   20.0828 H   0  0  0  0  0  0  0  0  0  0  0  0
   53.9742    3.9232   16.8976 H   0  0  0  0  0  0  0  0  0  0  0  0
   55.1319    3.1002   17.7765 H   0  0  0  0  0  0  0  0  0  0  0  0
   49.4146    2.0479   16.0687 H   0  0  0  0  0  0  0  0  0  0  0  0
   47.7799    5.9834   18.6087 H   0  0  0  0  0  0  0  0  0  0  0  0
   47.1075    2.8632   15.7448 H   0  0  0  0  0  0  0  0  0  0  0  0
   46.2908    4.8317   17.0100 H   0  0  0  0  0  0  0  0  0  0  0  0
   52.4609    3.7676   18.9440 H   0  0  0  0  0  0  0  0  0  0  0  0
   49.4615    2.7257   17.3702 H   0  0  0  0  0  0  0  0  0  0  0  0
   51.1547    2.0082   18.4719 H   0  0  0  0  0  0  0  0  0  0  0  0
   51.4152    2.6482   16.8351 H   0  0  0  0  0  0  0  0  0  0  0  0
   55.3534    3.4981   18.2719 H   0  0  0  0  0  0  0  0  0  0  0  0
   52.0220    5.2489   16.8028 H   0  0  0  0  0  0  0  0  0  0  0  0
   52.7949    5.8923   18.2581 H   0  0  0  0  0  0  0  0  0  0  0  0
   50.4947    6.7682   17.9759 H   0  0  0  0  0  0  0  0  0  0  0  0
   50.7258    5.9126   19.5116 H   0  0  0  0  0  0  0  0  0  0  0  0
   54.5229    2.0546   19.5177 H   0  0  0  0  0  0  0  0  0  0  0  0
   52.9078    2.1385   19.8831 H   0  0  0  0  0  0  0  0  0  0  0  0
   48.8386    1.5893   17.4253 H   0  0  0  0  0  0  0  0  0  0  0  0
   48.0129    6.4008   18.3187 H   0  0  0  0  0  0  0  0  0  0  0  0
   46.5351    2.4762   17.4158 H   0  0  0  0  0  0  0  0  0  0  0  0
   46.1205    4.8786   17.8647 H   0  0  0  0  0  0  0  0  0  0  0  0
  2  1  1  0
  3  1  1  0
  4  3  1  0
  5  2  2  3
  6  1  1  0
  7  8  1  0
  8  6  1  0
  9  2  1  0
 10  4  2  0
 11  7  2  0
 12 10  1  0
 13 11  1  0
  4  7  1  0
 12 13  2  0
 15 14  2  0
 16 14  2  0
 17 14  1  0
 18 14  1  0
 20 19  1  0
 21 19  1  0
 22 21  1  0
 23 20  2  3
 24 19  1  0
 25 26  1  0
 26 24  1  0
 27 20  1  0
 28 22  2  0
 29 25  2  0
 30 28  1  0
 31 29  1  0
 22 25  1  0
 30 31  2  0
  3 32  1  0
  3 33  1  0
  5 34  1  0
  6 35  1  0
  6 36  1  0
  8 37  1  0
  8 38  1  0
  9 39  1  0
  9 40  1  0
 10 41  1  0
 11 42  1  0
 12 43  1  0
 13 44  1  0
 17 45  1  0
 18 46  1  0
 21 47  1  0
 21 48  1  0
 23 49  1  0
 24 50  1  0
 24 51  1  0
 26 52  1  0
 26 53  1  0
 27 54  1  0
 27 55  1  0
 28 56  1  0
 29 57  1  0
 30 58  1  0
 31 59  1  0
M  END
> <Uni-Dock RESULT> 
ENERGY=   -4.886  LOWER_BOUND=    7.882  UPPER_BOUND=    9.392
INTER + INTRA:          -4.886
INTER:                  -4.886
INTRA:                   0.000
UNBOUND:                 0.000

$$$$

     RDKit          3D

 59 60  0  0  0  0  0  0  0  0999 V2000
   48.1611    8.9834   12.6216 N   0  0  0  0  0  0  0  0  0  0  0  0
   48.5757   10.2623   12.3716 C   0  0  0  0  0  0  0  0  0  0  0  0
   46.7572    8.6405   12.3082 C   0  0  0  0  0  0  0  0  0  0  0  0
   46.3484    7.2402   12.7207 C   0  0  0  0  0  0  0  0  0  0  0  0
   49.6611   10.6485   11.8023 N   0  0  0  0  0  0  0  0  0  0  0  0
   49.0902    7.8578   12.4783 C   0  0  0  0  0  0  0  0  0  0  0  0
   47.2723    6.3151   13.2326 C   0  0  0  0  0  0  0  0  0  0  0  0
   48.7044    6.7263   13.4277 C   0  0  0  0  0  0  0  0  0  0  0  0
   47.7409   11.2254   12.8128 N   0  0  0  0  0  0  0  0  0  0  0  0
   45.0093    6.8481   12.5633 C   0  0  0  0  0  0  0  0  0  0  0  0
   46.8469    5.0332   13.6069 C   0  0  0  0  0  0  0  0  0  0  0  0
   44.5959    5.5649   12.9219 C   0  0  0  0  0  0  0  0  0  0  0  0
   45.5140    4.6592   13.4456 C   0  0  0  0  0  0  0  0  0  0  0  0
   47.4149    7.5008   13.1781 S   0  0  0  0  0  0  0  0  0  0  0  0
   46.8654    8.2999   14.2448 O   0  0  0  0  0  0  0  0  0  0  0  0
   47.6805    6.0904   13.3175 O   0  0  0  0  0  0  0  0  0  0  0  0
   48.7366    8.2443   12.6483 O   0  0  0  0  0  0  0  0  0  0  0  0
   46.4269    7.6697   11.9248 O   0  0  0  0  0  0  0  0  0  0  0  0
   47.9828    9.0383   12.7635 N   0  0  0  0  0  0  0  0  0  0  0  0
   48.3396   10.3214   12.4468 C   0  0  0  0  0  0  0  0  0  0  0  0
   46.7716    8.4690   12.1406 C   0  0  0  0  0  0  0  0  0  0  0  0
   46.5426    7.0085   12.4796 C   0  0  0  0  0  0  0  0  0  0  0  0
   48.6664   11.2206   13.3078 N   0  0  0  0  0  0  0  0  0  0  0  0
   48.1500    8.6158   14.1648 C   0  0  0  0  0  0  0  0  0  0  0  0
   47.2677    6.3612   13.4948 C   0  0  0  0  0  0  0  0  0  0  0  0
   48.3511    7.1027   14.2322 C   0  0  0  0  0  0  0  0  0  0  0  0
   48.3694   10.5796   11.1211 N   0  0  0  0  0  0  0  0  0  0  0  0
   45.5507    6.2930   11.7887 C   0  0  0  0  0  0  0  0  0  0  0  0
   47.0192    5.0113   13.7806 C   0  0  0  0  0  0  0  0  0  0  0  0
   45.3015    4.9530   12.0870 C   0  0  0  0  0  0  0  0  0  0  0  0
   46.0370    4.3124   13.0808 C   0  0  0  0  0  0  0  0  0  0  0  0
   46.0806    9.3379   12.8160 H   0  0  0  0  0  0  0  0  0  0  0  0
   46.6063    8.7377   11.2263 H   0  0  0  0  0  0  0  0  0  0  0  0
   50.1982    9.8411   11.4913 H   0  0  0  0  0  0  0  0  0  0  0  0
   50.1129    8.1622   12.7317 H   0  0  0  0  0  0  0  0  0  0  0  0
   49.0962    7.5133   11.4361 H   0  0  0  0  0  0  0  0  0  0  0  0
   48.8306    7.0489   14.4684 H   0  0  0  0  0  0  0  0  0  0  0  0
   49.3722    5.8742   13.2543 H   0  0  0  0  0  0  0  0  0  0  0  0
   47.4485   11.0617   13.7675 H   0  0  0  0  0  0  0  0  0  0  0  0
   48.2046   12.1258   12.7256 H   0  0  0  0  0  0  0  0  0  0  0  0
   44.2781    7.5460   12.1606 H   0  0  0  0  0  0  0  0  0  0  0  0
   47.5533    4.3189   14.0235 H   0  0  0  0  0  0  0  0  0  0  0  0
   43.5567    5.2726   12.7957 H   0  0  0  0  0  0  0  0  0  0  0  0
   45.1910    3.6608   13.7304 H   0  0  0  0  0  0  0  0  0  0  0  0
   48.4986    9.1652   12.4252 H   0  0  0  0  0  0  0  0  0  0  0  0
   45.6635    7.0697   12.0649 H   0  0  0  0  0  0  0  0  0  0  0  0
   46.8417    8.5446   11.0490 H   0  0  0  0  0  0  0  0  0  0  0  0
   45.8954    9.0428   12.4676 H   0  0  0  0  0  0  0  0  0  0  0  0
   48.8690   12.0963   12.8278 H   0  0  0  0  0  0  0  0  0  0  0  0
   47.2741    8.9219   14.7518 H   0  0  0  0  0  0  0  0  0  0  0  0
   49.0302    9.0883   14.6179 H   0  0  0  0  0  0  0  0  0  0  0  0
   48.3729    6.7943   15.2835 H   0  0  0  0  0  0  0  0  0  0  0  0
   49.3154    6.8360   13.7822 H   0  0  0  0  0  0  0  0  0  0  0  0
   48.9256   11.3850   10.8742 H   0  0  0  0  0  0  0  0  0  0  0  0
   48.6803    9.7686   10.5981 H   0  0  0  0  0  0  0  0  0  0  0  0
   44.9657    6.7798   11.0106 H   0  0  0  0  0  0  0  0  0  0  0  0
   47.5915    4.4997   14.5513 H   0  0  0  0  0  0  0  0  0  0  0  0
   44.5342    4.4087   11.5436 H   0  0  0  0  0  0  0  0  0  0  0  0
   45.8468    3.2673   13.3097 H   0  0  0  0  0  0  0  0  0  0  0  0
  2  1  1  0
  3  1  1  0
  4  3  1  0
  5  2  2  3
  6  1  1  0
  7  8  1  0
  8  6  1  0
  9  2  1  0
 10  4  2  0
 11  7  2  0
 12 10  1  0
 13 11  1  0
  4  7  1  0
 12 13  2  0
 15 14  2  0
 16 14  2  0
 17 14  1  0
 18 14  1  0
 20 19  1  0
 21 19  1  0
 22 21  1  0
 23 20  2  3
 24 19  1  0
 25 26  1  0
 26 24  1  0
 27 20  1  0
 28 22  2  0
 29 25  2  0
 30 28  1  0
 31 29  1  0
 22 25  1  0
 30 31  2  0
  3 32  1  0
  3 33  1  0
  5 34  1  0
  6 35  1  0
  6 36  1  0
  8 37  1  0
  8 38  1  0
  9 39  1  0
  9 40  1  0
 10 41  1  0
 11 42  1  0
 12 43  1  0
 13 44  1  0
 17 45  1  0
 18 46  1  0
 21 47  1  0
 21 48  1  0
 23 49  1  0
 24 50  1  0
 24 51  1  0
 26 52  1  0
 26 53  1  0
 27 54  1  0
 27 55  1  0
 28 56  1  0
 29 57  1  0
 30 58  1  0
 31 59  1  0
M  END
> <Uni-Dock RESULT> 
ENERGY=   -4.809  LOWER_BOUND=    3.527  UPPER_BOUND=    5.554
INTER + INTRA:          -4.809
INTER:                  -4.809
INTRA:                   0.000
UNBOUND:                 0.000

$$$$

     RDKit          3D

 59 60  0  0  0  0  0  0  0  0999 V2000
   48.1531    7.1289   14.3646 N   0  0  0  0  0  0  0  0  0  0  0  0
   49.0706    7.5024   15.3074 C   0  0  0  0  0  0  0  0  0  0  0  0
   47.6056    5.7574   14.4412 C   0  0  0  0  0  0  0  0  0  0  0  0
   46.6845    5.3868   13.2956 C   0  0  0  0  0  0  0  0  0  0  0  0
   49.1199    8.5976   15.9778 N   0  0  0  0  0  0  0  0  0  0  0  0
   47.2142    8.1095   13.8096 C   0  0  0  0  0  0  0  0  0  0  0  0
   46.2892    6.3218   12.3256 C   0  0  0  0  0  0  0  0  0  0  0  0
   46.8248    7.7245   12.3845 C   0  0  0  0  0  0  0  0  0  0  0  0
   50.0567    6.6081   15.5242 N   0  0  0  0  0  0  0  0  0  0  0  0
   46.1920    4.0743   13.2158 C   0  0  0  0  0  0  0  0  0  0  0  0
   45.4408    5.9316   11.2805 C   0  0  0  0  0  0  0  0  0  0  0  0
   45.3342    3.6969   12.1825 C   0  0  0  0  0  0  0  0  0  0  0  0
   44.9610    4.6248   11.2143 C   0  0  0  0  0  0  0  0  0  0  0  0
   47.2279    6.4180   13.0595 S   0  0  0  0  0  0  0  0  0  0  0  0
   48.4625    5.7846   12.6683 O   0  0  0  0  0  0  0  0  0  0  0  0
   46.1815    6.7342   12.1192 O   0  0  0  0  0  0  0  0  0  0  0  0
   47.6047    7.7324   13.9027 O   0  0  0  0  0  0  0  0  0  0  0  0
   46.5748    5.4865   14.1913 O   0  0  0  0  0  0  0  0  0  0  0  0
   48.2690    6.9418   14.2843 N   0  0  0  0  0  0  0  0  0  0  0  0
   49.1476    7.2607   15.2845 C   0  0  0  0  0  0  0  0  0  0  0  0
   47.3700    5.7871   14.4770 C   0  0  0  0  0  0  0  0  0  0  0  0
   46.3683    5.6019   13.3531 C   0  0  0  0  0  0  0  0  0  0  0  0
   50.3979    7.5077   15.1049 N   0  0  0  0  0  0  0  0  0  0  0  0
   48.7518    7.0575   12.8973 C   0  0  0  0  0  0  0  0  0  0  0  0
   46.4788    6.3024   12.1397 C   0  0  0  0  0  0  0  0  0  0  0  0
   47.5762    7.3171   11.9566 C   0  0  0  0  0  0  0  0  0  0  0  0
   48.5878    7.3447   16.5111 N   0  0  0  0  0  0  0  0  0  0  0  0
   45.3248    4.6753   13.5124 C   0  0  0  0  0  0  0  0  0  0  0  0
   45.5347    6.0960   11.1240 C   0  0  0  0  0  0  0  0  0  0  0  0
   44.3959    4.4670   12.4922 C   0  0  0  0  0  0  0  0  0  0  0  0
   44.5000    5.1788   11.2998 C   0  0  0  0  0  0  0  0  0  0  0  0
   48.4248    5.0287   14.4464 H   0  0  0  0  0  0  0  0  0  0  0  0
   47.0458    5.6557   15.3788 H   0  0  0  0  0  0  0  0  0  0  0  0
   48.3174    9.1820   15.7507 H   0  0  0  0  0  0  0  0  0  0  0  0
   47.6719    9.1051   13.7653 H   0  0  0  0  0  0  0  0  0  0  0  0
   46.3290    8.1806   14.4547 H   0  0  0  0  0  0  0  0  0  0  0  0
   47.6996    7.7862   11.7257 H   0  0  0  0  0  0  0  0  0  0  0  0
   46.0742    8.4344   12.0176 H   0  0  0  0  0  0  0  0  0  0  0  0
   50.4611    6.2763   14.6581 H   0  0  0  0  0  0  0  0  0  0  0  0
   50.7650    7.0381   16.1131 H   0  0  0  0  0  0  0  0  0  0  0  0
   46.4785    3.3356   13.9616 H   0  0  0  0  0  0  0  0  0  0  0  0
   45.1475    6.6456   10.5143 H   0  0  0  0  0  0  0  0  0  0  0  0
   44.9593    2.6780   12.1308 H   0  0  0  0  0  0  0  0  0  0  0  0
   44.2968    4.3295   10.4056 H   0  0  0  0  0  0  0  0  0  0  0  0
   48.2071    7.4679   14.6249 H   0  0  0  0  0  0  0  0  0  0  0  0
   46.1224    4.7424   13.7396 H   0  0  0  0  0  0  0  0  0  0  0  0
   46.8007    5.9073   15.4064 H   0  0  0  0  0  0  0  0  0  0  0  0
   47.9713    4.8730   14.5601 H   0  0  0  0  0  0  0  0  0  0  0  0
   50.8416    7.6974   16.0023 H   0  0  0  0  0  0  0  0  0  0  0  0
   49.2872    6.1421   12.6131 H   0  0  0  0  0  0  0  0  0  0  0  0
   49.4531    7.8943   12.7912 H   0  0  0  0  0  0  0  0  0  0  0  0
   47.9388    7.3000   10.9226 H   0  0  0  0  0  0  0  0  0  0  0  0
   47.1578    8.3124   12.1510 H   0  0  0  0  0  0  0  0  0  0  0  0
   49.1319    7.8787   17.1727 H   0  0  0  0  0  0  0  0  0  0  0  0
   47.6451    7.7138   16.4576 H   0  0  0  0  0  0  0  0  0  0  0  0
   45.2308    4.1095   14.4374 H   0  0  0  0  0  0  0  0  0  0  0  0
   45.6034    6.6505   10.1906 H   0  0  0  0  0  0  0  0  0  0  0  0
   43.5909    3.7503   12.6279 H   0  0  0  0  0  0  0  0  0  0  0  0
   43.7736    5.0207   10.5072 H   0  0  0  0  0  0  0  0  0  0  0  0
  2  1  1  0
  3  1  1  0
  4  3  1  0
  5  2  2  3
  6  1  1  0
  7  8  1  0
  8  6  1  0
  9  2  1  0
 10  4  2  0
 11  7  2  0
 12 10  1  0
 13 11  1  0
  4  7  1  0
 12 13  2  0
 15 14  2  0
 16 14  2  0
 17 14  1  0
 18 14  1  0
 20 19  1  0
 21 19  1  0
 22 21  1  0
 23 20  2  3
 24 19  1  0
 25 26  1  0
 26 24  1  0
 27 20  1  0
 28 22  2  0
 29 25  2  0
 30 28  1  0
 31 29  1  0
 22 25  1  0
 30 31  2  0
  3 32  1  0
  3 33  1  0
  5 34  1  0
  6 35  1  0
  6 36  1  0
  8 37  1  0
  8 38  1  0
  9 39  1  0
  9 40  1  0
 10 41  1  0
 11 42  1  0
 12 43  1  0
 13 44  1  0
 17 45  1  0
 18 46  1  0
 21 47  1  0
 21 48  1  0
 23 49  1  0
 24 50  1  0
 24 51  1  0
 26 52  1  0
 26 53  1  0
 27 54  1  0
 27 55  1  0
 28 56  1  0
 29 57  1  0
 30 58  1  0
 31 59  1  0
M  END
> <Uni-Dock RESULT> 
ENERGY=   -4.744  LOWER_BOUND=    3.279  UPPER_BOUND=    5.055
INTER + INTRA:          -4.744
INTER:                  -4.744
INTRA:                   0.000
UNBOUND:                 0.000

$$$$

     RDKit          3D

 59 60  0  0  0  0  0  0  0  0999 V2000
   48.4241    5.7525   21.1900 N   0  0  0  0  0  0  0  0  0  0  0  0
   48.7581    6.0704   22.4775 C   0  0  0  0  0  0  0  0  0  0  0  0
   48.9986    4.5177   20.6139 C   0  0  0  0  0  0  0  0  0  0  0  0
   48.6713    4.2995   19.1499 C   0  0  0  0  0  0  0  0  0  0  0  0
   47.9845    6.4653   23.4244 N   0  0  0  0  0  0  0  0  0  0  0  0
   47.0998    6.0916   20.6588 C   0  0  0  0  0  0  0  0  0  0  0  0
   47.7867    5.1371   18.4518 C   0  0  0  0  0  0  0  0  0  0  0  0
   47.1744    6.3180   19.1509 C   0  0  0  0  0  0  0  0  0  0  0  0
   50.0738    5.9809   22.7604 N   0  0  0  0  0  0  0  0  0  0  0  0
   49.2517    3.2119   18.4776 C   0  0  0  0  0  0  0  0  0  0  0  0
   47.5191    4.9002   17.0966 C   0  0  0  0  0  0  0  0  0  0  0  0
   48.9678    2.9717   17.1331 C   0  0  0  0  0  0  0  0  0  0  0  0
   48.1038    3.8171   16.4428 C   0  0  0  0  0  0  0  0  0  0  0  0
   48.3425    5.3943   19.4784 S   0  0  0  0  0  0  0  0  0  0  0  0
   49.6840    5.9180   19.4108 O   0  0  0  0  0  0  0  0  0  0  0  0
   47.4315    5.4370   18.3616 O   0  0  0  0  0  0  0  0  0  0  0  0
   47.6366    6.0380   20.7698 O   0  0  0  0  0  0  0  0  0  0  0  0
   48.4738    3.8562   19.9172 O   0  0  0  0  0  0  0  0  0  0  0  0
   48.6424    5.7420   21.1055 N   0  0  0  0  0  0  0  0  0  0  0  0
   48.9841    5.9737   22.4107 C   0  0  0  0  0  0  0  0  0  0  0  0
   48.8089    4.3789   20.5643 C   0  0  0  0  0  0  0  0  0  0  0  0
   48.2928    4.2200   19.1469 C   0  0  0  0  0  0  0  0  0  0  0  0
   49.7049    6.9622   22.8109 N   0  0  0  0  0  0  0  0  0  0  0  0
   48.9795    6.7861   20.1223 C   0  0  0  0  0  0  0  0  0  0  0  0
   47.9448    5.3291   18.3567 C   0  0  0  0  0  0  0  0  0  0  0  0
   48.0168    6.7163   18.9379 C   0  0  0  0  0  0  0  0  0  0  0  0
   48.4608    5.0899   23.2883 N   0  0  0  0  0  0  0  0  0  0  0  0
   48.1983    2.9325   18.5934 C   0  0  0  0  0  0  0  0  0  0  0  0
   47.4784    5.1376   17.0485 C   0  0  0  0  0  0  0  0  0  0  0  0
   47.7442    2.7512   17.2865 C   0  0  0  0  0  0  0  0  0  0  0  0
   47.3825    3.8532   16.5158 C   0  0  0  0  0  0  0  0  0  0  0  0
   50.0913    4.5386   20.7016 H   0  0  0  0  0  0  0  0  0  0  0  0
   48.6221    3.6583   21.1819 H   0  0  0  0  0  0  0  0  0  0  0  0
   47.0174    6.4720   23.1050 H   0  0  0  0  0  0  0  0  0  0  0  0
   46.7248    7.0182   21.1099 H   0  0  0  0  0  0  0  0  0  0  0  0
   46.3875    5.2928   20.9029 H   0  0  0  0  0  0  0  0  0  0  0  0
   47.7864    7.2016   18.9329 H   0  0  0  0  0  0  0  0  0  0  0  0
   46.1635    6.5041   18.7695 H   0  0  0  0  0  0  0  0  0  0  0  0
   50.6417    6.4372   22.0582 H   0  0  0  0  0  0  0  0  0  0  0  0
   50.2395    6.3848   23.6784 H   0  0  0  0  0  0  0  0  0  0  0  0
   49.9335    2.5450   19.0014 H   0  0  0  0  0  0  0  0  0  0  0  0
   46.8511    5.5574   16.5447 H   0  0  0  0  0  0  0  0  0  0  0  0
   49.4230    2.1269   16.6230 H   0  0  0  0  0  0  0  0  0  0  0  0
   47.8865    3.6334   15.3933 H   0  0  0  0  0  0  0  0  0  0  0  0
   48.2091    5.8718   21.5438 H   0  0  0  0  0  0  0  0  0  0  0  0
   48.7028    3.3371   19.1168 H   0  0  0  0  0  0  0  0  0  0  0  0
   48.2699    3.6590   21.1915 H   0  0  0  0  0  0  0  0  0  0  0  0
   49.8738    4.1142   20.5777 H   0  0  0  0  0  0  0  0  0  0  0  0
   49.8355    6.9040   23.8198 H   0  0  0  0  0  0  0  0  0  0  0  0
   50.0189    6.6624   19.7912 H   0  0  0  0  0  0  0  0  0  0  0  0
   48.8922    7.7869   20.5627 H   0  0  0  0  0  0  0  0  0  0  0  0
   48.3427    7.4306   18.1734 H   0  0  0  0  0  0  0  0  0  0  0  0
   47.0088    7.0045   19.2612 H   0  0  0  0  0  0  0  0  0  0  0  0
   48.4331    5.4265   24.2395 H   0  0  0  0  0  0  0  0  0  0  0  0
   47.5367    4.7908   22.9979 H   0  0  0  0  0  0  0  0  0  0  0  0
   48.4790    2.0611   19.1819 H   0  0  0  0  0  0  0  0  0  0  0  0
   47.1882    5.9910   16.4395 H   0  0  0  0  0  0  0  0  0  0  0  0
   47.6719    1.7504   16.8701 H   0  0  0  0  0  0  0  0  0  0  0  0
   47.0238    3.7118   15.4998 H   0  0  0  0  0  0  0  0  0  0  0  0
  2  1  1  0
  3  1  1  0
  4  3  1  0
  5  2  2  3
  6  1  1  0
  7  8  1  0
  8  6  1  0
  9  2  1  0
 10  4  2  0
 11  7  2  0
 12 10  1  0
 13 11  1  0
  4  7  1  0
 12 13  2  0
 15 14  2  0
 16 14  2  0
 17 14  1  0
 18 14  1  0
 20 19  1  0
 21 19  1  0
 22 21  1  0
 23 20  2  3
 24 19  1  0
 25 26  1  0
 26 24  1  0
 27 20  1  0
 28 22  2  0
 29 25  2  0
 30 28  1  0
 31 29  1  0
 22 25  1  0
 30 31  2  0
  3 32  1  0
  3 33  1  0
  5 34  1  0
  6 35  1  0
  6 36  1  0
  8 37  1  0
  8 38  1  0
  9 39  1  0
  9 40  1  0
 10 41  1  0
 11 42  1  0
 12 43  1  0
 13 44  1  0
 17 45  1  0
 18 46  1  0
 21 47  1  0
 21 48  1  0
 23 49  1  0
 24 50  1  0
 24 51  1  0
 26 52  1  0
 26 53  1  0
 27 54  1  0
 27 55  1  0
 28 56  1  0
 29 57  1  0
 30 58  1  0
 31 59  1  0
M  END
> <Uni-Dock RESULT> 
ENERGY=   -4.625  LOWER_BOUND=    7.926  UPPER_BOUND=    9.379
INTER + INTRA:          -4.625
INTER:                  -4.625
INTRA:                   0.000
UNBOUND:                 0.000

$$$$

     RDKit          3D

 59 60  0  0  0  0  0  0  0  0999 V2000
   47.9084    7.3064   22.5669 N   0  0  0  0  0  0  0  0  0  0  0  0
   47.9675    5.9535   22.7578 C   0  0  0  0  0  0  0  0  0  0  0  0
   47.6486    7.7983   21.1967 C   0  0  0  0  0  0  0  0  0  0  0  0
   47.7127    9.3058   21.0508 C   0  0  0  0  0  0  0  0  0  0  0  0
   47.4214    5.2582   23.6902 N   0  0  0  0  0  0  0  0  0  0  0  0
   47.3860    8.1848   23.6188 C   0  0  0  0  0  0  0  0  0  0  0  0
   47.8728   10.1549   22.1576 C   0  0  0  0  0  0  0  0  0  0  0  0
   48.0344    9.5640   23.5297 C   0  0  0  0  0  0  0  0  0  0  0  0
   48.7240    5.2872   21.8617 N   0  0  0  0  0  0  0  0  0  0  0  0
   47.5836    9.8718   19.7723 C   0  0  0  0  0  0  0  0  0  0  0  0
   47.9332   11.5430   21.9733 C   0  0  0  0  0  0  0  0  0  0  0  0
   47.6273   11.2552   19.5979 C   0  0  0  0  0  0  0  0  0  0  0  0
   47.8044   12.0897   20.6978 C   0  0  0  0  0  0  0  0  0  0  0  0
   48.1205    8.9860   22.1213 S   0  0  0  0  0  0  0  0  0  0  0  0
   49.4073    8.5807   21.6129 O   0  0  0  0  0  0  0  0  0  0  0  0
   47.8566   10.3198   22.6012 O   0  0  0  0  0  0  0  0  0  0  0  0
   47.6845    7.9188   23.2400 O   0  0  0  0  0  0  0  0  0  0  0  0
   47.0549    8.6869   20.9593 O   0  0  0  0  0  0  0  0  0  0  0  0
   48.0757    7.3197   22.4034 N   0  0  0  0  0  0  0  0  0  0  0  0
   48.0774    5.9564   22.5280 C   0  0  0  0  0  0  0  0  0  0  0  0
   47.4410    7.9181   21.2127 C   0  0  0  0  0  0  0  0  0  0  0  0
   47.4018    9.4341   21.2416 C   0  0  0  0  0  0  0  0  0  0  0  0
   49.1109    5.2541   22.8368 N   0  0  0  0  0  0  0  0  0  0  0  0
   49.2934    8.0384   22.8167 C   0  0  0  0  0  0  0  0  0  0  0  0
   48.1371   10.1762   22.1818 C   0  0  0  0  0  0  0  0  0  0  0  0
   48.9392    9.4636   23.2383 C   0  0  0  0  0  0  0  0  0  0  0  0
   46.8704    5.3790   22.3414 N   0  0  0  0  0  0  0  0  0  0  0  0
   46.6425   10.1175   20.2775 C   0  0  0  0  0  0  0  0  0  0  0  0
   48.0778   11.5769   22.1689 C   0  0  0  0  0  0  0  0  0  0  0  0
   46.5980   11.5121   20.2641 C   0  0  0  0  0  0  0  0  0  0  0  0
   47.3136   12.2408   21.2107 C   0  0  0  0  0  0  0  0  0  0  0  0
   48.3839    7.3745   20.5027 H   0  0  0  0  0  0  0  0  0  0  0  0
   46.6499    7.4655   20.8888 H   0  0  0  0  0  0  0  0  0  0  0  0
   46.8590    5.8594   24.2898 H   0  0  0  0  0  0  0  0  0  0  0  0
   47.6138    7.7805   24.6125 H   0  0  0  0  0  0  0  0  0  0  0  0
   46.2940    8.2562   23.5329 H   0  0  0  0  0  0  0  0  0  0  0  0
   49.1068    9.4904   23.7480 H   0  0  0  0  0  0  0  0  0  0  0  0
   47.5800   10.2191   24.2823 H   0  0  0  0  0  0  0  0  0  0  0  0
   49.6245    5.7285   21.7272 H   0  0  0  0  0  0  0  0  0  0  0  0
   48.8347    4.3270   22.1765 H   0  0  0  0  0  0  0  0  0  0  0  0
   47.4502    9.2330   18.9016 H   0  0  0  0  0  0  0  0  0  0  0  0
   48.0779   12.2051   22.8239 H   0  0  0  0  0  0  0  0  0  0  0  0
   47.5265   11.6820   18.6035 H   0  0  0  0  0  0  0  0  0  0  0  0
   47.8442   13.1678   20.5616 H   0  0  0  0  0  0  0  0  0  0  0  0
   47.7362    7.0266   22.8455 H   0  0  0  0  0  0  0  0  0  0  0  0
   47.1024    9.4251   20.3149 H   0  0  0  0  0  0  0  0  0  0  0  0
   46.4066    7.5656   21.1232 H   0  0  0  0  0  0  0  0  0  0  0  0
   47.9888    7.6022   20.3159 H   0  0  0  0  0  0  0  0  0  0  0  0
   48.8627    4.2658   22.8460 H   0  0  0  0  0  0  0  0  0  0  0  0
   50.0199    8.0415   21.9936 H   0  0  0  0  0  0  0  0  0  0  0  0
   49.7707    7.5474   23.6738 H   0  0  0  0  0  0  0  0  0  0  0  0
   49.8648   10.0125   23.4455 H   0  0  0  0  0  0  0  0  0  0  0  0
   48.3463    9.4413   24.1611 H   0  0  0  0  0  0  0  0  0  0  0  0
   46.7943    4.4543   22.7388 H   0  0  0  0  0  0  0  0  0  0  0  0
   46.1249    5.9704   22.6910 H   0  0  0  0  0  0  0  0  0  0  0  0
   46.0793    9.5627   19.5296 H   0  0  0  0  0  0  0  0  0  0  0  0
   48.6287   12.1559   22.9069 H   0  0  0  0  0  0  0  0  0  0  0  0
   46.0046   12.0298   19.5158 H   0  0  0  0  0  0  0  0  0  0  0  0
   47.2749   13.3267   21.2038 H   0  0  0  0  0  0  0  0  0  0  0  0
  2  1  1  0
  3  1  1  0
  4  3  1  0
  5  2  2  3
  6  1  1  0
  7  8  1  0
  8  6  1  0
  9  2  1  0
 10  4  2  0
 11  7  2  0
 12 10  1  0
 13 11  1  0
  4  7  1  0
 12 13  2  0
 15 14  2  0
 16 14  2  0
 17 14  1  0
 18 14  1  0
 20 19  1  0
 21 19  1  0
 22 21  1  0
 23 20  2  3
 24 19  1  0
 25 26  1  0
 26 24  1  0
 27 20  1  0
 28 22  2  0
 29 25  2  0
 30 28  1  0
 31 29  1  0
 22 25  1  0
 30 31  2  0
  3 32  1  0
  3 33  1  0
  5 34  1  0
  6 35  1  0
  6 36  1  0
  8 37  1  0
  8 38  1  0
  9 39  1  0
  9 40  1  0
 10 41  1  0
 11 42  1  0
 12 43  1  0
 13 44  1  0
 17 45  1  0
 18 46  1  0
 21 47  1  0
 21 48  1  0
 23 49  1  0
 24 50  1  0
 24 51  1  0
 26 52  1  0
 26 53  1  0
 27 54  1  0
 27 55  1  0
 28 56  1  0
 29 57  1  0
 30 58  1  0
 31 59  1  0
M  END
> <Uni-Dock RESULT> 
ENERGY=   -4.613  LOWER_BOUND=    9.583  UPPER_BOUND=   10.990
INTER + INTRA:          -4.613
INTER:                  -4.613
INTRA:                   0.000
UNBOUND:                 0.000

$$$$
