
     RDKit          3D

 59 60  0  0  0  0  0  0  0  0999 V2000
   44.5816    4.6789   12.1806 N   0  0  0  0  0  0  0  0  0  0  0  0
   44.4184    4.3516   10.8656 C   0  0  0  0  0  0  0  0  0  0  0  0
   45.8447    4.6010   12.9193 C   0  0  0  0  0  0  0  0  0  0  0  0
   46.4911    5.9654   13.0674 C   0  0  0  0  0  0  0  0  0  0  0  0
   43.4641    4.7911   10.1185 N   0  0  0  0  0  0  0  0  0  0  0  0
   43.6855    5.6948   12.7611 C   0  0  0  0  0  0  0  0  0  0  0  0
   45.7374    7.1492   12.9218 C   0  0  0  0  0  0  0  0  0  0  0  0
   44.2781    7.0860   12.5232 C   0  0  0  0  0  0  0  0  0  0  0  0
   45.2929    3.4732   10.3267 N   0  0  0  0  0  0  0  0  0  0  0  0
   47.8463    6.0567   13.4205 C   0  0  0  0  0  0  0  0  0  0  0  0
   46.3576    8.3944   13.0912 C   0  0  0  0  0  0  0  0  0  0  0  0
   48.4504    7.3019   13.5975 C   0  0  0  0  0  0  0  0  0  0  0  0
   47.7079    8.4686   13.4294 C   0  0  0  0  0  0  0  0  0  0  0  0
   45.6942    5.8615   12.0037 S   0  0  0  0  0  0  0  0  0  0  0  0
   44.5433    5.2799   11.3596 O   0  0  0  0  0  0  0  0  0  0  0  0
   46.9904    5.9646   11.3794 O   0  0  0  0  0  0  0  0  0  0  0  0
   45.3132    7.3311   12.5262 O   0  0  0  0  0  0  0  0  0  0  0  0
   45.8760    5.0686   13.3861 O   0  0  0  0  0  0  0  0  0  0  0  0
   46.8690    6.9183   12.7152 N   0  0  0  0  0  0  0  0  0  0  0  0
   47.7356    7.7080   13.4143 C   0  0  0  0  0  0  0  0  0  0  0  0
   46.6459    5.5372   13.1827 C   0  0  0  0  0  0  0  0  0  0  0  0
   45.4499    4.8728   12.5317 C   0  0  0  0  0  0  0  0  0  0  0  0
   48.7071    8.4139   12.9568 N   0  0  0  0  0  0  0  0  0  0  0  0
   46.7173    7.0656   11.2638 C   0  0  0  0  0  0  0  0  0  0  0  0
   44.8152    5.4281   11.4071 C   0  0  0  0  0  0  0  0  0  0  0  0
   45.2773    6.7510   10.8578 C   0  0  0  0  0  0  0  0  0  0  0  0
   47.4839    7.7716   14.7380 N   0  0  0  0  0  0  0  0  0  0  0  0
   44.9860    3.6503   13.0428 C   0  0  0  0  0  0  0  0  0  0  0  0
   43.7121    4.7785   10.8359 C   0  0  0  0  0  0  0  0  0  0  0  0
   43.8954    3.0048   12.4609 C   0  0  0  0  0  0  0  0  0  0  0  0
   43.2577    3.5697   11.3597 C   0  0  0  0  0  0  0  0  0  0  0  0
   46.5516    3.9090   12.4499 H   0  0  0  0  0  0  0  0  0  0  0  0
   45.6430    4.2080   13.9241 H   0  0  0  0  0  0  0  0  0  0  0  0
   43.6001    4.3438    9.2051 H   0  0  0  0  0  0  0  0  0  0  0  0
   43.5865    5.5099   13.8390 H   0  0  0  0  0  0  0  0  0  0  0  0
   42.6702    5.6310   12.3527 H   0  0  0  0  0  0  0  0  0  0  0  0
   44.2036    7.3478   11.4608 H   0  0  0  0  0  0  0  0  0  0  0  0
   43.7018    7.8221   13.0948 H   0  0  0  0  0  0  0  0  0  0  0  0
   45.3906    2.6743   10.9463 H   0  0  0  0  0  0  0  0  0  0  0  0
   46.2217    3.8828   10.2910 H   0  0  0  0  0  0  0  0  0  0  0  0
   48.4414    5.1572   13.5604 H   0  0  0  0  0  0  0  0  0  0  0  0
   45.7893    9.3123   12.9579 H   0  0  0  0  0  0  0  0  0  0  0  0
   49.5018    7.3640   13.8666 H   0  0  0  0  0  0  0  0  0  0  0  0
   48.1813    9.4381   13.5613 H   0  0  0  0  0  0  0  0  0  0  0  0
   46.1419    7.7560   12.8341 H   0  0  0  0  0  0  0  0  0  0  0  0
   45.1897    4.3649   13.4004 H   0  0  0  0  0  0  0  0  0  0  0  0
   46.4846    5.5236   14.2672 H   0  0  0  0  0  0  0  0  0  0  0  0
   47.5383    4.9386   12.9642 H   0  0  0  0  0  0  0  0  0  0  0  0
   48.8058    8.2567   11.9554 H   0  0  0  0  0  0  0  0  0  0  0  0
   47.4259    6.4055   10.7462 H   0  0  0  0  0  0  0  0  0  0  0  0
   46.9333    8.0937   10.9488 H   0  0  0  0  0  0  0  0  0  0  0  0
   45.2070    6.7524    9.7644 H   0  0  0  0  0  0  0  0  0  0  0  0
   44.6091    7.5320   11.2404 H   0  0  0  0  0  0  0  0  0  0  0  0
   46.4963    7.8871   14.9225 H   0  0  0  0  0  0  0  0  0  0  0  0
   48.0240    8.5285   15.1435 H   0  0  0  0  0  0  0  0  0  0  0  0
   45.4726    3.1959   13.9036 H   0  0  0  0  0  0  0  0  0  0  0  0
   43.2010    5.2131    9.9797 H   0  0  0  0  0  0  0  0  0  0  0  0
   43.5419    2.0621   12.8681 H   0  0  0  0  0  0  0  0  0  0  0  0
   42.4061    3.0679   10.9084 H   0  0  0  0  0  0  0  0  0  0  0  0
  2  1  1  0
  3  1  1  0
  4  3  1  0
  5  2  2  3
  6  1  1  0
  7  8  1  0
  8  6  1  0
  9  2  1  0
 10  4  2  0
 11  7  2  0
 12 10  1  0
 13 11  1  0
  4  7  1  0
 12 13  2  0
 15 14  2  0
 16 14  2  0
 17 14  1  0
 18 14  1  0
 20 19  1  0
 21 19  1  0
 22 21  1  0
 23 20  2  3
 24 19  1  0
 25 26  1  0
 26 24  1  0
 27 20  1  0
 28 22  2  0
 29 25  2  0
 30 28  1  0
 31 29  1  0
 22 25  1  0
 30 31  2  0
  3 32  1  0
  3 33  1  0
  5 34  1  0
  6 35  1  0
  6 36  1  0
  8 37  1  0
  8 38  1  0
  9 39  1  0
  9 40  1  0
 10 41  1  0
 11 42  1  0
 12 43  1  0
 13 44  1  0
 17 45  1  0
 18 46  1  0
 21 47  1  0
 21 48  1  0
 23 49  1  0
 24 50  1  0
 24 51  1  0
 26 52  1  0
 26 53  1  0
 27 54  1  0
 27 55  1  0
 28 56  1  0
 29 57  1  0
 30 58  1  0
 31 59  1  0
M  END
> <Uni-Dock RESULT> 
ENERGY=   -4.324  LOWER_BOUND=    0.000  UPPER_BOUND=    0.000
INTER + INTRA:          -4.324
INTER:                  -4.324
INTRA:                   0.000
UNBOUND:                 0.000

$$$$

     RDKit          3D

 59 60  0  0  0  0  0  0  0  0999 V2000
   39.5457   11.2936   11.3798 N   0  0  0  0  0  0  0  0  0  0  0  0
   38.7473   11.9480   10.4868 C   0  0  0  0  0  0  0  0  0  0  0  0
   40.4761   10.2120   11.0455 C   0  0  0  0  0  0  0  0  0  0  0  0
   41.9070   10.7094   10.9667 C   0  0  0  0  0  0  0  0  0  0  0  0
   38.2587   13.1262   10.6737 N   0  0  0  0  0  0  0  0  0  0  0  0
   39.9833   12.0207   12.5848 C   0  0  0  0  0  0  0  0  0  0  0  0
   42.2948   11.9164   11.5861 C   0  0  0  0  0  0  0  0  0  0  0  0
   41.2672   12.7927   12.2703 C   0  0  0  0  0  0  0  0  0  0  0  0
   38.4134   11.2952    9.3514 N   0  0  0  0  0  0  0  0  0  0  0  0
   42.8795    9.9270   10.3249 C   0  0  0  0  0  0  0  0  0  0  0  0
   43.6302   12.3356   11.5184 C   0  0  0  0  0  0  0  0  0  0  0  0
   44.2083   10.3492   10.2735 C   0  0  0  0  0  0  0  0  0  0  0  0
   44.5820   11.5533   10.8661 C   0  0  0  0  0  0  0  0  0  0  0  0
   40.9968   11.6519   10.7211 S   0  0  0  0  0  0  0  0  0  0  0  0
   39.6780   12.1960   10.9270 O   0  0  0  0  0  0  0  0  0  0  0  0
   41.5997   11.4927    9.4205 O   0  0  0  0  0  0  0  0  0  0  0  0
   42.0453   12.4695   11.6211 O   0  0  0  0  0  0  0  0  0  0  0  0
   41.0034   10.2205   11.4447 O   0  0  0  0  0  0  0  0  0  0  0  0
   42.7037   11.3651   10.6345 N   0  0  0  0  0  0  0  0  0  0  0  0
   44.0315   11.0553   10.6973 C   0  0  0  0  0  0  0  0  0  0  0  0
   41.7209   10.2898   10.8668 C   0  0  0  0  0  0  0  0  0  0  0  0
   40.3126   10.8051   11.0829 C   0  0  0  0  0  0  0  0  0  0  0  0
   44.9509   11.3381    9.8451 N   0  0  0  0  0  0  0  0  0  0  0  0
   42.2138   12.4046    9.7230 C   0  0  0  0  0  0  0  0  0  0  0  0
   39.9606   12.1375   10.8053 C   0  0  0  0  0  0  0  0  0  0  0  0
   41.0092   13.1131   10.3429 C   0  0  0  0  0  0  0  0  0  0  0  0
   44.3996   10.4170   11.8273 N   0  0  0  0  0  0  0  0  0  0  0  0
   39.3235    9.9186   11.5375 C   0  0  0  0  0  0  0  0  0  0  0  0
   38.6448   12.5712   11.0189 C   0  0  0  0  0  0  0  0  0  0  0  0
   38.0142   10.3557   11.7357 C   0  0  0  0  0  0  0  0  0  0  0  0
   37.6758   11.6815   11.4787 C   0  0  0  0  0  0  0  0  0  0  0  0
   40.2075    9.7164   10.1068 H   0  0  0  0  0  0  0  0  0  0  0  0
   40.4237    9.4457   11.8295 H   0  0  0  0  0  0  0  0  0  0  0  0
   37.6854   13.3219    9.8454 H   0  0  0  0  0  0  0  0  0  0  0  0
   40.1694   11.2980   13.3903 H   0  0  0  0  0  0  0  0  0  0  0  0
   39.2075   12.6965   12.9632 H   0  0  0  0  0  0  0  0  0  0  0  0
   41.0433   13.6367   11.6067 H   0  0  0  0  0  0  0  0  0  0  0  0
   41.6794   13.1948   13.2026 H   0  0  0  0  0  0  0  0  0  0  0  0
   38.0985   10.3579    9.5836 H   0  0  0  0  0  0  0  0  0  0  0  0
   39.2380   11.1516    8.7761 H   0  0  0  0  0  0  0  0  0  0  0  0
   42.6081    8.9819    9.8602 H   0  0  0  0  0  0  0  0  0  0  0  0
   43.9330   13.2763   11.9731 H   0  0  0  0  0  0  0  0  0  0  0  0
   44.9546    9.7394    9.7706 H   0  0  0  0  0  0  0  0  0  0  0  0
   45.6163   11.8842   10.8198 H   0  0  0  0  0  0  0  0  0  0  0  0
   42.9446   12.1755   11.3622 H   0  0  0  0  0  0  0  0  0  0  0  0
   40.0939   10.0732   11.7878 H   0  0  0  0  0  0  0  0  0  0  0  0
   41.9999    9.7034   11.7503 H   0  0  0  0  0  0  0  0  0  0  0  0
   41.7166    9.6179   10.0003 H   0  0  0  0  0  0  0  0  0  0  0  0
   44.5391   11.7926    9.0321 H   0  0  0  0  0  0  0  0  0  0  0  0
   41.9529   11.9580    8.7543 H   0  0  0  0  0  0  0  0  0  0  0  0
   42.9858   13.1620    9.5401 H   0  0  0  0  0  0  0  0  0  0  0  0
   40.5848   13.8046    9.6066 H   0  0  0  0  0  0  0  0  0  0  0  0
   41.3352   13.7007   11.2097 H   0  0  0  0  0  0  0  0  0  0  0  0
   43.9808   10.8397   12.6451 H   0  0  0  0  0  0  0  0  0  0  0  0
   45.4118   10.4141   11.8933 H   0  0  0  0  0  0  0  0  0  0  0  0
   39.5718    8.8794   11.7441 H   0  0  0  0  0  0  0  0  0  0  0  0
   38.3695   13.6062   10.8284 H   0  0  0  0  0  0  0  0  0  0  0  0
   37.2586    9.6622   12.0929 H   0  0  0  0  0  0  0  0  0  0  0  0
   36.6562   12.0225   11.6360 H   0  0  0  0  0  0  0  0  0  0  0  0
  2  1  1  0
  3  1  1  0
  4  3  1  0
  5  2  2  3
  6  1  1  0
  7  8  1  0
  8  6  1  0
  9  2  1  0
 10  4  2  0
 11  7  2  0
 12 10  1  0
 13 11  1  0
  4  7  1  0
 12 13  2  0
 15 14  2  0
 16 14  2  0
 17 14  1  0
 18 14  1  0
 20 19  1  0
 21 19  1  0
 22 21  1  0
 23 20  2  3
 24 19  1  0
 25 26  1  0
 26 24  1  0
 27 20  1  0
 28 22  2  0
 29 25  2  0
 30 28  1  0
 31 29  1  0
 22 25  1  0
 30 31  2  0
  3 32  1  0
  3 33  1  0
  5 34  1  0
  6 35  1  0
  6 36  1  0
  8 37  1  0
  8 38  1  0
  9 39  1  0
  9 40  1  0
 10 41  1  0
 11 42  1  0
 12 43  1  0
 13 44  1  0
 17 45  1  0
 18 46  1  0
 21 47  1  0
 21 48  1  0
 23 49  1  0
 24 50  1  0
 24 51  1  0
 26 52  1  0
 26 53  1  0
 27 54  1  0
 27 55  1  0
 28 56  1  0
 29 57  1  0
 30 58  1  0
 31 59  1  0
M  END
> <Uni-Dock RESULT> 
ENERGY=   -4.182  LOWER_BOUND=    6.357  UPPER_BOUND=    7.631
INTER + INTRA:          -4.182
INTER:                  -4.182
INTRA:                   0.000
UNBOUND:                 0.000

$$$$

     RDKit          3D

 59 60  0  0  0  0  0  0  0  0999 V2000
   47.3098    7.1546   12.6615 N   0  0  0  0  0  0  0  0  0  0  0  0
   46.9546    8.4049   13.0782 C   0  0  0  0  0  0  0  0  0  0  0  0
   46.9227    5.9038   13.3195 C   0  0  0  0  0  0  0  0  0  0  0  0
   45.7769    5.2223   12.5956 C   0  0  0  0  0  0  0  0  0  0  0  0
   46.9273    9.4457   12.3182 N   0  0  0  0  0  0  0  0  0  0  0  0
   47.5625    6.9458   11.2246 C   0  0  0  0  0  0  0  0  0  0  0  0
   45.4793    5.5277   11.2506 C   0  0  0  0  0  0  0  0  0  0  0  0
   46.2432    6.6136   10.5229 C   0  0  0  0  0  0  0  0  0  0  0  0
   46.6546    8.5662   14.3862 N   0  0  0  0  0  0  0  0  0  0  0  0
   45.0396    4.2229   13.2491 C   0  0  0  0  0  0  0  0  0  0  0  0
   44.4315    4.8615   10.6011 C   0  0  0  0  0  0  0  0  0  0  0  0
   44.0057    3.5584   12.5886 C   0  0  0  0  0  0  0  0  0  0  0  0
   43.7000    3.8800   11.2681 C   0  0  0  0  0  0  0  0  0  0  0  0
   45.8153    6.5429   12.4167 S   0  0  0  0  0  0  0  0  0  0  0  0
   46.5697    7.7676   12.3251 O   0  0  0  0  0  0  0  0  0  0  0  0
   44.6231    6.3983   13.2157 O   0  0  0  0  0  0  0  0  0  0  0  0
   45.4436    6.0464   10.9357 O   0  0  0  0  0  0  0  0  0  0  0  0
   46.8571    5.4144   12.8793 O   0  0  0  0  0  0  0  0  0  0  0  0
   44.7970    5.1690   12.1352 N   0  0  0  0  0  0  0  0  0  0  0  0
   44.1265    4.0066   11.8858 C   0  0  0  0  0  0  0  0  0  0  0  0
   45.9903    5.1184   13.0009 C   0  0  0  0  0  0  0  0  0  0  0  0
   46.8190    6.3858   12.9495 C   0  0  0  0  0  0  0  0  0  0  0  0
   42.8649    3.7837   11.9879 N   0  0  0  0  0  0  0  0  0  0  0  0
   44.0852    6.4492   12.2116 C   0  0  0  0  0  0  0  0  0  0  0  0
   46.3331    7.5651   12.3585 C   0  0  0  0  0  0  0  0  0  0  0  0
   44.9825    7.5739   11.6945 C   0  0  0  0  0  0  0  0  0  0  0  0
   44.9053    3.0031   11.4319 N   0  0  0  0  0  0  0  0  0  0  0  0
   48.0922    6.3934   13.5408 C   0  0  0  0  0  0  0  0  0  0  0  0
   47.1339    8.7154   12.3343 C   0  0  0  0  0  0  0  0  0  0  0  0
   48.8773    7.5458   13.5229 C   0  0  0  0  0  0  0  0  0  0  0  0
   48.3992    8.7051   12.9181 C   0  0  0  0  0  0  0  0  0  0  0  0
   46.6528    6.0598   14.3691 H   0  0  0  0  0  0  0  0  0  0  0  0
   47.7826    5.2217   13.3160 H   0  0  0  0  0  0  0  0  0  0  0  0
   46.6532   10.2250   12.9269 H   0  0  0  0  0  0  0  0  0  0  0  0
   48.2701    6.1149   11.1033 H   0  0  0  0  0  0  0  0  0  0  0  0
   48.0407    7.8156   10.7593 H   0  0  0  0  0  0  0  0  0  0  0  0
   45.6076    7.5063   10.4791 H   0  0  0  0  0  0  0  0  0  0  0  0
   46.4551    6.2977    9.4952 H   0  0  0  0  0  0  0  0  0  0  0  0
   47.3745    8.1267   14.9521 H   0  0  0  0  0  0  0  0  0  0  0  0
   45.8054    8.0578   14.6147 H   0  0  0  0  0  0  0  0  0  0  0  0
   45.2661    3.9546   14.2785 H   0  0  0  0  0  0  0  0  0  0  0  0
   44.1803    5.1075    9.5717 H   0  0  0  0  0  0  0  0  0  0  0  0
   43.4365    2.7885   13.1034 H   0  0  0  0  0  0  0  0  0  0  0  0
   42.8902    3.3660   10.7567 H   0  0  0  0  0  0  0  0  0  0  0  0
   44.8194    5.2954   11.0271 H   0  0  0  0  0  0  0  0  0  0  0  0
   47.7166    5.8676   13.0285 H   0  0  0  0  0  0  0  0  0  0  0  0
   46.6389    4.2846   12.7071 H   0  0  0  0  0  0  0  0  0  0  0  0
   45.6719    4.9526   14.0370 H   0  0  0  0  0  0  0  0  0  0  0  0
   42.3987    4.6076   12.3635 H   0  0  0  0  0  0  0  0  0  0  0  0
   43.7712    6.6398   13.2465 H   0  0  0  0  0  0  0  0  0  0  0  0
   43.1817    6.4337   11.5900 H   0  0  0  0  0  0  0  0  0  0  0  0
   44.4833    8.5344   11.8640 H   0  0  0  0  0  0  0  0  0  0  0  0
   45.1320    7.4568   10.6143 H   0  0  0  0  0  0  0  0  0  0  0  0
   45.5539    3.3270   10.7268 H   0  0  0  0  0  0  0  0  0  0  0  0
   44.3152    2.2597   11.0740 H   0  0  0  0  0  0  0  0  0  0  0  0
   48.4811    5.4953   14.0167 H   0  0  0  0  0  0  0  0  0  0  0  0
   46.7745    9.6254   11.8588 H   0  0  0  0  0  0  0  0  0  0  0  0
   49.8629    7.5384   13.9788 H   0  0  0  0  0  0  0  0  0  0  0  0
   49.0124    9.6020   12.9016 H   0  0  0  0  0  0  0  0  0  0  0  0
  2  1  1  0
  3  1  1  0
  4  3  1  0
  5  2  2  3
  6  1  1  0
  7  8  1  0
  8  6  1  0
  9  2  1  0
 10  4  2  0
 11  7  2  0
 12 10  1  0
 13 11  1  0
  4  7  1  0
 12 13  2  0
 15 14  2  0
 16 14  2  0
 17 14  1  0
 18 14  1  0
 20 19  1  0
 21 19  1  0
 22 21  1  0
 23 20  2  3
 24 19  1  0
 25 26  1  0
 26 24  1  0
 27 20  1  0
 28 22  2  0
 29 25  2  0
 30 28  1  0
 31 29  1  0
 22 25  1  0
 30 31  2  0
  3 32  1  0
  3 33  1  0
  5 34  1  0
  6 35  1  0
  6 36  1  0
  8 37  1  0
  8 38  1  0
  9 39  1  0
  9 40  1  0
 10 41  1  0
 11 42  1  0
 12 43  1  0
 13 44  1  0
 17 45  1  0
 18 46  1  0
 21 47  1  0
 21 48  1  0
 23 49  1  0
 24 50  1  0
 24 51  1  0
 26 52  1  0
 26 53  1  0
 27 54  1  0
 27 55  1  0
 28 56  1  0
 29 57  1  0
 30 58  1  0
 31 59  1  0
M  END
> <Uni-Dock RESULT> 
ENERGY=   -4.173  LOWER_BOUND=    0.995  UPPER_BOUND=    4.409
INTER + INTRA:          -4.173
INTER:                  -4.173
INTRA:                   0.000
UNBOUND:                 0.000

$$$$

     RDKit          3D

 59 60  0  0  0  0  0  0  0  0999 V2000
   48.9083    4.1353   18.0582 N   0  0  0  0  0  0  0  0  0  0  0  0
   48.3881    5.1822   17.3536 C   0  0  0  0  0  0  0  0  0  0  0  0
   49.9636    3.2377   17.5806 C   0  0  0  0  0  0  0  0  0  0  0  0
   51.3129    3.5948   18.1749 C   0  0  0  0  0  0  0  0  0  0  0  0
   47.7914    6.1935   17.8856 N   0  0  0  0  0  0  0  0  0  0  0  0
   48.9008    4.2149   19.5298 C   0  0  0  0  0  0  0  0  0  0  0  0
   51.4102    4.3660   19.3525 C   0  0  0  0  0  0  0  0  0  0  0  0
   50.1666    4.9339   20.0030 C   0  0  0  0  0  0  0  0  0  0  0  0
   48.4675    5.1294   16.0053 N   0  0  0  0  0  0  0  0  0  0  0  0
   52.4849    3.0968   17.5850 C   0  0  0  0  0  0  0  0  0  0  0  0
   52.6704    4.6565   19.8919 C   0  0  0  0  0  0  0  0  0  0  0  0
   53.7336    3.3833   18.1374 C   0  0  0  0  0  0  0  0  0  0  0  0
   53.8261    4.1649   19.2869 C   0  0  0  0  0  0  0  0  0  0  0  0
   50.4664    4.6226   18.1089 S   0  0  0  0  0  0  0  0  0  0  0  0
   49.1173    5.1299   18.1198 O   0  0  0  0  0  0  0  0  0  0  0  0
   51.4539    5.0036   17.1290 O   0  0  0  0  0  0  0  0  0  0  0  0
   51.1274    4.8658   19.5518 O   0  0  0  0  0  0  0  0  0  0  0  0
   50.3384    3.0240   18.0820 O   0  0  0  0  0  0  0  0  0  0  0  0
   52.1298    4.2593   18.4320 N   0  0  0  0  0  0  0  0  0  0  0  0
   53.3887    3.8416   18.7542 C   0  0  0  0  0  0  0  0  0  0  0  0
   51.1944    3.2801   17.8469 C   0  0  0  0  0  0  0  0  0  0  0  0
   49.7591    3.7648   17.8261 C   0  0  0  0  0  0  0  0  0  0  0  0
   54.5080    4.3924   18.4455 N   0  0  0  0  0  0  0  0  0  0  0  0
   51.8834    5.6320   17.9780 C   0  0  0  0  0  0  0  0  0  0  0  0
   49.4269    5.1074   18.0781 C   0  0  0  0  0  0  0  0  0  0  0  0
   50.5029    6.0935   18.4454 C   0  0  0  0  0  0  0  0  0  0  0  0
   53.4259    2.7410   19.5333 N   0  0  0  0  0  0  0  0  0  0  0  0
   48.7363    2.8566   17.5102 C   0  0  0  0  0  0  0  0  0  0  0  0
   48.0853    5.5124   18.0472 C   0  0  0  0  0  0  0  0  0  0  0  0
   47.4054    3.2709   17.4699 C   0  0  0  0  0  0  0  0  0  0  0  0
   47.0801    4.5973   17.7404 C   0  0  0  0  0  0  0  0  0  0  0  0
   50.0335    3.2328   16.4879 H   0  0  0  0  0  0  0  0  0  0  0  0
   49.7183    2.2115   17.8827 H   0  0  0  0  0  0  0  0  0  0  0  0
   47.4939    6.7831   17.1002 H   0  0  0  0  0  0  0  0  0  0  0  0
   48.8721    3.1977   19.9425 H   0  0  0  0  0  0  0  0  0  0  0  0
   48.0041    4.7172   19.9111 H   0  0  0  0  0  0  0  0  0  0  0  0
   50.1074    5.9999   19.7521 H   0  0  0  0  0  0  0  0  0  0  0  0
   50.2409    4.8459   21.0928 H   0  0  0  0  0  0  0  0  0  0  0  0
   48.1565    4.2165   15.6865 H   0  0  0  0  0  0  0  0  0  0  0  0
   49.4379    5.1851   15.7104 H   0  0  0  0  0  0  0  0  0  0  0  0
   52.4329    2.4812   16.6899 H   0  0  0  0  0  0  0  0  0  0  0  0
   52.7555    5.2698   20.7863 H   0  0  0  0  0  0  0  0  0  0  0  0
   54.6369    2.9973   17.6718 H   0  0  0  0  0  0  0  0  0  0  0  0
   54.7999    4.3927   19.7126 H   0  0  0  0  0  0  0  0  0  0  0  0
   52.0794    4.6410   19.4789 H   0  0  0  0  0  0  0  0  0  0  0  0
   49.3787    2.8184   18.0259 H   0  0  0  0  0  0  0  0  0  0  0  0
   51.2207    2.3423   18.4144 H   0  0  0  0  0  0  0  0  0  0  0  0
   51.5036    3.0633   16.8174 H   0  0  0  0  0  0  0  0  0  0  0  0
   54.3423    5.1926   17.8377 H   0  0  0  0  0  0  0  0  0  0  0  0
   51.9667    5.6834   16.8842 H   0  0  0  0  0  0  0  0  0  0  0  0
   52.6238    6.3234   18.3983 H   0  0  0  0  0  0  0  0  0  0  0  0
   50.2860    7.0726   18.0039 H   0  0  0  0  0  0  0  0  0  0  0  0
   50.5039    6.2076   19.5362 H   0  0  0  0  0  0  0  0  0  0  0  0
   52.7468    2.7928   20.2809 H   0  0  0  0  0  0  0  0  0  0  0  0
   54.3650    2.6230   19.8980 H   0  0  0  0  0  0  0  0  0  0  0  0
   48.9736    1.8161   17.2973 H   0  0  0  0  0  0  0  0  0  0  0  0
   47.8176    6.5444   18.2636 H   0  0  0  0  0  0  0  0  0  0  0  0
   46.6219    2.5582   17.2296 H   0  0  0  0  0  0  0  0  0  0  0  0
   46.0427    4.9192   17.7118 H   0  0  0  0  0  0  0  0  0  0  0  0
  2  1  1  0
  3  1  1  0
  4  3  1  0
  5  2  2  3
  6  1  1  0
  7  8  1  0
  8  6  1  0
  9  2  1  0
 10  4  2  0
 11  7  2  0
 12 10  1  0
 13 11  1  0
  4  7  1  0
 12 13  2  0
 15 14  2  0
 16 14  2  0
 17 14  1  0
 18 14  1  0
 20 19  1  0
 21 19  1  0
 22 21  1  0
 23 20  2  3
 24 19  1  0
 25 26  1  0
 26 24  1  0
 27 20  1  0
 28 22  2  0
 29 25  2  0
 30 28  1  0
 31 29  1  0
 22 25  1  0
 30 31  2  0
  3 32  1  0
  3 33  1  0
  5 34  1  0
  6 35  1  0
  6 36  1  0
  8 37  1  0
  8 38  1  0
  9 39  1  0
  9 40  1  0
 10 41  1  0
 11 42  1  0
 12 43  1  0
 13 44  1  0
 17 45  1  0
 18 46  1  0
 21 47  1  0
 21 48  1  0
 23 49  1  0
 24 50  1  0
 24 51  1  0
 26 52  1  0
 26 53  1  0
 27 54  1  0
 27 55  1  0
 28 56  1  0
 29 57  1  0
 30 58  1  0
 31 59  1  0
M  END
> <Uni-Dock RESULT> 
ENERGY=   -4.076  LOWER_BOUND=    6.461  UPPER_BOUND=    8.096
INTER + INTRA:          -4.076
INTER:                  -4.076
INTRA:                   0.000
UNBOUND:                 0.000

$$$$

     RDKit          3D

 59 60  0  0  0  0  0  0  0  0999 V2000
   40.3590   11.8857   11.4199 N   0  0  0  0  0  0  0  0  0  0  0  0
   40.4755   12.7866   10.4011 C   0  0  0  0  0  0  0  0  0  0  0  0
   40.9723   12.0244   12.7435 C   0  0  0  0  0  0  0  0  0  0  0  0
   39.9683   12.4958   13.7785 C   0  0  0  0  0  0  0  0  0  0  0  0
   39.6430   12.8912    9.4225 N   0  0  0  0  0  0  0  0  0  0  0  0
   39.1420   11.0566   11.4797 C   0  0  0  0  0  0  0  0  0  0  0  0
   38.5807   12.3541   13.5661 C   0  0  0  0  0  0  0  0  0  0  0  0
   38.0567   11.8081   12.2548 C   0  0  0  0  0  0  0  0  0  0  0  0
   41.5615   13.5912   10.3992 N   0  0  0  0  0  0  0  0  0  0  0  0
   40.4233   13.0216   14.9976 C   0  0  0  0  0  0  0  0  0  0  0  0
   37.6791   12.7747   14.5530 C   0  0  0  0  0  0  0  0  0  0  0  0
   39.5164   13.4268   15.9774 C   0  0  0  0  0  0  0  0  0  0  0  0
   38.1466   13.3069   15.7536 C   0  0  0  0  0  0  0  0  0  0  0  0
   39.6661   12.8605   12.5323 S   0  0  0  0  0  0  0  0  0  0  0  0
   39.7122   12.6101   11.1136 O   0  0  0  0  0  0  0  0  0  0  0  0
   39.9955   14.1317   13.1290 O   0  0  0  0  0  0  0  0  0  0  0  0
   38.2171   12.4491   13.0884 O   0  0  0  0  0  0  0  0  0  0  0  0
   40.5966   11.7434   13.2099 O   0  0  0  0  0  0  0  0  0  0  0  0
   39.1966   13.1448   14.1762 N   0  0  0  0  0  0  0  0  0  0  0  0
   38.8575   13.2174   15.4963 C   0  0  0  0  0  0  0  0  0  0  0  0
   40.4323   12.4283   13.8079 C   0  0  0  0  0  0  0  0  0  0  0  0
   40.5374   12.1442   12.3234 C   0  0  0  0  0  0  0  0  0  0  0  0
   38.5252   14.2592   16.1715 N   0  0  0  0  0  0  0  0  0  0  0  0
   38.8665   14.2344   13.2514 C   0  0  0  0  0  0  0  0  0  0  0  0
   39.6814   12.7542   11.3900 C   0  0  0  0  0  0  0  0  0  0  0  0
   38.5810   13.6666   11.8609 C   0  0  0  0  0  0  0  0  0  0  0  0
   38.8303   12.0261   16.1286 N   0  0  0  0  0  0  0  0  0  0  0  0
   41.5409   11.2766   11.8638 C   0  0  0  0  0  0  0  0  0  0  0  0
   39.8152   12.4631   10.0253 C   0  0  0  0  0  0  0  0  0  0  0  0
   41.6745   11.0021   10.5031 C   0  0  0  0  0  0  0  0  0  0  0  0
   40.8108   11.5932    9.5850 C   0  0  0  0  0  0  0  0  0  0  0  0
   41.8303   12.7045   12.7280 H   0  0  0  0  0  0  0  0  0  0  0  0
   41.3549   11.0456   13.0602 H   0  0  0  0  0  0  0  0  0  0  0  0
   40.0201   13.6287    8.8168 H   0  0  0  0  0  0  0  0  0  0  0  0
   39.3778   10.1119   11.9874 H   0  0  0  0  0  0  0  0  0  0  0  0
   38.7833   10.7780   10.4820 H   0  0  0  0  0  0  0  0  0  0  0  0
   37.6866   12.6509   11.6585 H   0  0  0  0  0  0  0  0  0  0  0  0
   37.2164   11.1298   12.4409 H   0  0  0  0  0  0  0  0  0  0  0  0
   42.3940   13.0314   10.5582 H   0  0  0  0  0  0  0  0  0  0  0  0
   41.5267   14.2263   11.1911 H   0  0  0  0  0  0  0  0  0  0  0  0
   41.4888   13.1190   15.1927 H   0  0  0  0  0  0  0  0  0  0  0  0
   36.6072   12.6906   14.3877 H   0  0  0  0  0  0  0  0  0  0  0  0
   39.8769   13.8371   16.9172 H   0  0  0  0  0  0  0  0  0  0  0  0
   37.4410   13.6288   16.5151 H   0  0  0  0  0  0  0  0  0  0  0  0
   38.1635   12.7545   14.0190 H   0  0  0  0  0  0  0  0  0  0  0  0
   40.9914   11.2217   12.4761 H   0  0  0  0  0  0  0  0  0  0  0  0
   40.4874   11.4684   14.3351 H   0  0  0  0  0  0  0  0  0  0  0  0
   41.2970   13.0316   14.1090 H   0  0  0  0  0  0  0  0  0  0  0  0
   38.6123   15.0898   15.5886 H   0  0  0  0  0  0  0  0  0  0  0  0
   39.6911   14.9588   13.2196 H   0  0  0  0  0  0  0  0  0  0  0  0
   37.9684   14.7707   13.5812 H   0  0  0  0  0  0  0  0  0  0  0  0
   38.4498   14.4962   11.1573 H   0  0  0  0  0  0  0  0  0  0  0  0
   37.6470   13.0921   11.8838 H   0  0  0  0  0  0  0  0  0  0  0  0
   38.3726   11.3194   15.5684 H   0  0  0  0  0  0  0  0  0  0  0  0
   38.3717   12.1364   17.0267 H   0  0  0  0  0  0  0  0  0  0  0  0
   42.2235   10.8056   12.5684 H   0  0  0  0  0  0  0  0  0  0  0  0
   39.1422   12.9131    9.2988 H   0  0  0  0  0  0  0  0  0  0  0  0
   42.4512   10.3251   10.1595 H   0  0  0  0  0  0  0  0  0  0  0  0
   40.9133   11.3767    8.5251 H   0  0  0  0  0  0  0  0  0  0  0  0
  2  1  1  0
  3  1  1  0
  4  3  1  0
  5  2  2  3
  6  1  1  0
  7  8  1  0
  8  6  1  0
  9  2  1  0
 10  4  2  0
 11  7  2  0
 12 10  1  0
 13 11  1  0
  4  7  1  0
 12 13  2  0
 15 14  2  0
 16 14  2  0
 17 14  1  0
 18 14  1  0
 20 19  1  0
 21 19  1  0
 22 21  1  0
 23 20  2  3
 24 19  1  0
 25 26  1  0
 26 24  1  0
 27 20  1  0
 28 22  2  0
 29 25  2  0
 30 28  1  0
 31 29  1  0
 22 25  1  0
 30 31  2  0
  3 32  1  0
  3 33  1  0
  5 34  1  0
  6 35  1  0
  6 36  1  0
  8 37  1  0
  8 38  1  0
  9 39  1  0
  9 40  1  0
 10 41  1  0
 11 42  1  0
 12 43  1  0
 13 44  1  0
 17 45  1  0
 18 46  1  0
 21 47  1  0
 21 48  1  0
 23 49  1  0
 24 50  1  0
 24 51  1  0
 26 52  1  0
 26 53  1  0
 27 54  1  0
 27 55  1  0
 28 56  1  0
 29 57  1  0
 30 58  1  0
 31 59  1  0
M  END
> <Uni-Dock RESULT> 
ENERGY=   -3.972  LOWER_BOUND=    8.028  UPPER_BOUND=    9.486
INTER + INTRA:          -3.972
INTER:                  -3.972
INTRA:                   0.000
UNBOUND:                 0.000

$$$$

     RDKit          3D

 59 60  0  0  0  0  0  0  0  0999 V2000
   43.9122   12.2427    7.5296 N   0  0  0  0  0  0  0  0  0  0  0  0
   45.0302   13.0008    7.7260 C   0  0  0  0  0  0  0  0  0  0  0  0
   43.6103   10.9883    8.2245 C   0  0  0  0  0  0  0  0  0  0  0  0
   42.6055   11.1958    9.3419 C   0  0  0  0  0  0  0  0  0  0  0  0
   45.1147   14.2581    7.4541 N   0  0  0  0  0  0  0  0  0  0  0  0
   42.6789   12.9216    7.0936 C   0  0  0  0  0  0  0  0  0  0  0  0
   41.7666   12.3300    9.3672 C   0  0  0  0  0  0  0  0  0  0  0  0
   41.9134   13.4167    8.3232 C   0  0  0  0  0  0  0  0  0  0  0  0
   46.1336   12.3776    8.1959 N   0  0  0  0  0  0  0  0  0  0  0  0
   42.4575   10.2137   10.3334 C   0  0  0  0  0  0  0  0  0  0  0  0
   40.8297   12.4797   10.3984 C   0  0  0  0  0  0  0  0  0  0  0  0
   41.5134   10.3683   11.3490 C   0  0  0  0  0  0  0  0  0  0  0  0
   40.7036   11.5013   11.3832 C   0  0  0  0  0  0  0  0  0  0  0  0
   43.3159   12.2854    9.0496 S   0  0  0  0  0  0  0  0  0  0  0  0
   44.0396   13.0825    8.0912 O   0  0  0  0  0  0  0  0  0  0  0  0
   43.8231   11.9577   10.3595 O   0  0  0  0  0  0  0  0  0  0  0  0
   41.8574   12.9220    9.2632 O   0  0  0  0  0  0  0  0  0  0  0  0
   42.9580   10.9116    8.3031 O   0  0  0  0  0  0  0  0  0  0  0  0
   42.2076   11.6704   10.2315 N   0  0  0  0  0  0  0  0  0  0  0  0
   41.2633   11.1125   11.0440 C   0  0  0  0  0  0  0  0  0  0  0  0
   42.8520   10.8163    9.2160 C   0  0  0  0  0  0  0  0  0  0  0  0
   43.6346   11.6029    8.1843 C   0  0  0  0  0  0  0  0  0  0  0  0
   41.1849   11.1759   12.3252 N   0  0  0  0  0  0  0  0  0  0  0  0
   43.0798   12.7455   10.7159 C   0  0  0  0  0  0  0  0  0  0  0  0
   43.9327   12.9653    8.3613 C   0  0  0  0  0  0  0  0  0  0  0  0
   43.4144   13.6992    9.5688 C   0  0  0  0  0  0  0  0  0  0  0  0
   40.2797   10.4634   10.3875 N   0  0  0  0  0  0  0  0  0  0  0  0
   44.1068   10.9445    7.0379 C   0  0  0  0  0  0  0  0  0  0  0  0
   44.6608   13.6540    7.3812 C   0  0  0  0  0  0  0  0  0  0  0  0
   44.8409   11.6345    6.0737 C   0  0  0  0  0  0  0  0  0  0  0  0
   45.1156   12.9887    6.2443 C   0  0  0  0  0  0  0  0  0  0  0  0
   44.5125   10.5149    8.6254 H   0  0  0  0  0  0  0  0  0  0  0  0
   43.1793   10.2805    7.5049 H   0  0  0  0  0  0  0  0  0  0  0  0
   46.0786   14.5258    7.6826 H   0  0  0  0  0  0  0  0  0  0  0  0
   42.0605   12.2112    6.5291 H   0  0  0  0  0  0  0  0  0  0  0  0
   42.8853   13.7500    6.4059 H   0  0  0  0  0  0  0  0  0  0  0  0
   42.4456   14.2593    8.7812 H   0  0  0  0  0  0  0  0  0  0  0  0
   40.9248   13.7705    8.0097 H   0  0  0  0  0  0  0  0  0  0  0  0
   46.2936   11.5295    7.6603 H   0  0  0  0  0  0  0  0  0  0  0  0
   45.9736   12.0530    9.1449 H   0  0  0  0  0  0  0  0  0  0  0  0
   43.0774    9.3201   10.3212 H   0  0  0  0  0  0  0  0  0  0  0  0
   40.1952   13.3625   10.4383 H   0  0  0  0  0  0  0  0  0  0  0  0
   41.4081    9.6049   12.1158 H   0  0  0  0  0  0  0  0  0  0  0  0
   39.9729   11.6236   12.1786 H   0  0  0  0  0  0  0  0  0  0  0  0
   41.4389   12.4489   10.0137 H   0  0  0  0  0  0  0  0  0  0  0  0
   43.3725   10.9576    7.4128 H   0  0  0  0  0  0  0  0  0  0  0  0
   42.0987   10.2248    8.6822 H   0  0  0  0  0  0  0  0  0  0  0  0
   43.5369   10.1219    9.7172 H   0  0  0  0  0  0  0  0  0  0  0  0
   41.9965   11.6667   12.6962 H   0  0  0  0  0  0  0  0  0  0  0  0
   43.9924   12.3173   11.1514 H   0  0  0  0  0  0  0  0  0  0  0  0
   42.5833   13.3308   11.4994 H   0  0  0  0  0  0  0  0  0  0  0  0
   44.1552   14.4280    9.9159 H   0  0  0  0  0  0  0  0  0  0  0  0
   42.5123   14.2488    9.2735 H   0  0  0  0  0  0  0  0  0  0  0  0
   39.9537   10.9932    9.5901 H   0  0  0  0  0  0  0  0  0  0  0  0
   39.5219   10.2675   11.0327 H   0  0  0  0  0  0  0  0  0  0  0  0
   43.8998    9.8866    6.8889 H   0  0  0  0  0  0  0  0  0  0  0  0
   44.8759   14.7137    7.4996 H   0  0  0  0  0  0  0  0  0  0  0  0
   45.1965   11.1161    5.1881 H   0  0  0  0  0  0  0  0  0  0  0  0
   45.6850   13.5268    5.4914 H   0  0  0  0  0  0  0  0  0  0  0  0
  2  1  1  0
  3  1  1  0
  4  3  1  0
  5  2  2  3
  6  1  1  0
  7  8  1  0
  8  6  1  0
  9  2  1  0
 10  4  2  0
 11  7  2  0
 12 10  1  0
 13 11  1  0
  4  7  1  0
 12 13  2  0
 15 14  2  0
 16 14  2  0
 17 14  1  0
 18 14  1  0
 20 19  1  0
 21 19  1  0
 22 21  1  0
 23 20  2  3
 24 19  1  0
 25 26  1  0
 26 24  1  0
 27 20  1  0
 28 22  2  0
 29 25  2  0
 30 28  1  0
 31 29  1  0
 22 25  1  0
 30 31  2  0
  3 32  1  0
  3 33  1  0
  5 34  1  0
  6 35  1  0
  6 36  1  0
  8 37  1  0
  8 38  1  0
  9 39  1  0
  9 40  1  0
 10 41  1  0
 11 42  1  0
 12 43  1  0
 13 44  1  0
 17 45  1  0
 18 46  1  0
 21 47  1  0
 21 48  1  0
 23 49  1  0
 24 50  1  0
 24 51  1  0
 26 52  1  0
 26 53  1  0
 27 54  1  0
 27 55  1  0
 28 56  1  0
 29 57  1  0
 30 58  1  0
 31 59  1  0
M  END
> <Uni-Dock RESULT> 
ENERGY=   -3.954  LOWER_BOUND=    6.625  UPPER_BOUND=    8.364
INTER + INTRA:          -3.954
INTER:                  -3.954
INTRA:                   0.000
UNBOUND:                 0.000

$$$$

     RDKit          3D

 59 60  0  0  0  0  0  0  0  0999 V2000
   48.6509    7.8478   18.7999 N   0  0  0  0  0  0  0  0  0  0  0  0
   48.8208    8.8357   17.8734 C   0  0  0  0  0  0  0  0  0  0  0  0
   47.5800    6.8478   18.7808 C   0  0  0  0  0  0  0  0  0  0  0  0
   48.0708    5.5128   18.2532 C   0  0  0  0  0  0  0  0  0  0  0  0
   49.9393    9.4337   17.6429 N   0  0  0  0  0  0  0  0  0  0  0  0
   49.8431    7.3398   19.5019 C   0  0  0  0  0  0  0  0  0  0  0  0
   49.4450    5.1931   18.2431 C   0  0  0  0  0  0  0  0  0  0  0  0
   50.4741    6.2154   18.6767 C   0  0  0  0  0  0  0  0  0  0  0  0
   47.7307    9.2412   17.1848 N   0  0  0  0  0  0  0  0  0  0  0  0
   47.1417    4.5503   17.8288 C   0  0  0  0  0  0  0  0  0  0  0  0
   49.8647    3.9410   17.7745 C   0  0  0  0  0  0  0  0  0  0  0  0
   47.5707    3.3028   17.3747 C   0  0  0  0  0  0  0  0  0  0  0  0
   48.9303    3.0003   17.3443 C   0  0  0  0  0  0  0  0  0  0  0  0
   48.7704    6.5563   17.8072 S   0  0  0  0  0  0  0  0  0  0  0  0
   49.2807    7.8903   18.0009 O   0  0  0  0  0  0  0  0  0  0  0  0
   48.1050    6.1239   16.6028 O   0  0  0  0  0  0  0  0  0  0  0  0
   49.9467    5.5009   18.0913 O   0  0  0  0  0  0  0  0  0  0  0  0
   47.7850    6.2754   19.0413 O   0  0  0  0  0  0  0  0  0  0  0  0
   48.5636    4.8555   17.5461 N   0  0  0  0  0  0  0  0  0  0  0  0
   48.3797    3.5040   17.4951 C   0  0  0  0  0  0  0  0  0  0  0  0
   47.6394    5.6584   18.3691 C   0  0  0  0  0  0  0  0  0  0  0  0
   48.1234    7.0755   18.5995 C   0  0  0  0  0  0  0  0  0  0  0  0
   48.3210    2.7525   16.4542 N   0  0  0  0  0  0  0  0  0  0  0  0
   49.0896    5.5896   16.3904 C   0  0  0  0  0  0  0  0  0  0  0  0
   49.1908    7.6222   17.8661 C   0  0  0  0  0  0  0  0  0  0  0  0
   49.9305    6.7743   16.8666 C   0  0  0  0  0  0  0  0  0  0  0  0
   48.3027    2.9084   18.7030 N   0  0  0  0  0  0  0  0  0  0  0  0
   47.4640    7.8769   19.5450 C   0  0  0  0  0  0  0  0  0  0  0  0
   49.6048    8.9388   18.1115 C   0  0  0  0  0  0  0  0  0  0  0  0
   47.8747    9.1897   19.7740 C   0  0  0  0  0  0  0  0  0  0  0  0
   48.9457    9.7193   19.0593 C   0  0  0  0  0  0  0  0  0  0  0  0
   46.7191    7.1811   18.1921 H   0  0  0  0  0  0  0  0  0  0  0  0
   47.2183    6.6976   19.8061 H   0  0  0  0  0  0  0  0  0  0  0  0
   49.7340   10.1354   16.9229 H   0  0  0  0  0  0  0  0  0  0  0  0
   49.5423    6.9576   20.4864 H   0  0  0  0  0  0  0  0  0  0  0  0
   50.5741    8.1324   19.6999 H   0  0  0  0  0  0  0  0  0  0  0  0
   50.9429    6.6300   17.7760 H   0  0  0  0  0  0  0  0  0  0  0  0
   51.2554    5.7305   19.2727 H   0  0  0  0  0  0  0  0  0  0  0  0
   46.9660    9.4044   17.8332 H   0  0  0  0  0  0  0  0  0  0  0  0
   47.3994    8.4926   16.5835 H   0  0  0  0  0  0  0  0  0  0  0  0
   46.0759    4.7661   17.8493 H   0  0  0  0  0  0  0  0  0  0  0  0
   50.9239    3.6952   17.7414 H   0  0  0  0  0  0  0  0  0  0  0  0
   46.8449    2.5644   17.0435 H   0  0  0  0  0  0  0  0  0  0  0  0
   49.2636    2.0304   16.9842 H   0  0  0  0  0  0  0  0  0  0  0  0
   49.6179    4.6170   17.8216 H   0  0  0  0  0  0  0  0  0  0  0  0
   47.7503    7.1039   19.5692 H   0  0  0  0  0  0  0  0  0  0  0  0
   47.4997    5.1907   19.3510 H   0  0  0  0  0  0  0  0  0  0  0  0
   46.6636    5.7005   17.8707 H   0  0  0  0  0  0  0  0  0  0  0  0
   48.3644    3.3250   15.6130 H   0  0  0  0  0  0  0  0  0  0  0  0
   48.2606    5.9255   15.7534 H   0  0  0  0  0  0  0  0  0  0  0  0
   49.7366    4.9484   15.7794 H   0  0  0  0  0  0  0  0  0  0  0  0
   50.2201    7.3774   15.9990 H   0  0  0  0  0  0  0  0  0  0  0  0
   50.8471    6.4057   17.3430 H   0  0  0  0  0  0  0  0  0  0  0  0
   49.0104    3.2586   19.3348 H   0  0  0  0  0  0  0  0  0  0  0  0
   48.3810    1.9040   18.5844 H   0  0  0  0  0  0  0  0  0  0  0  0
   46.6258    7.4777   20.1127 H   0  0  0  0  0  0  0  0  0  0  0  0
   50.4447    9.3618   17.5646 H   0  0  0  0  0  0  0  0  0  0  0  0
   47.3605    9.7986   20.5118 H   0  0  0  0  0  0  0  0  0  0  0  0
   49.2675   10.7413   19.2401 H   0  0  0  0  0  0  0  0  0  0  0  0
  2  1  1  0
  3  1  1  0
  4  3  1  0
  5  2  2  3
  6  1  1  0
  7  8  1  0
  8  6  1  0
  9  2  1  0
 10  4  2  0
 11  7  2  0
 12 10  1  0
 13 11  1  0
  4  7  1  0
 12 13  2  0
 15 14  2  0
 16 14  2  0
 17 14  1  0
 18 14  1  0
 20 19  1  0
 21 19  1  0
 22 21  1  0
 23 20  2  3
 24 19  1  0
 25 26  1  0
 26 24  1  0
 27 20  1  0
 28 22  2  0
 29 25  2  0
 30 28  1  0
 31 29  1  0
 22 25  1  0
 30 31  2  0
  3 32  1  0
  3 33  1  0
  5 34  1  0
  6 35  1  0
  6 36  1  0
  8 37  1  0
  8 38  1  0
  9 39  1  0
  9 40  1  0
 10 41  1  0
 11 42  1  0
 12 43  1  0
 13 44  1  0
 17 45  1  0
 18 46  1  0
 21 47  1  0
 21 48  1  0
 23 49  1  0
 24 50  1  0
 24 51  1  0
 26 52  1  0
 26 53  1  0
 27 54  1  0
 27 55  1  0
 28 56  1  0
 29 57  1  0
 30 58  1  0
 31 59  1  0
M  END
> <Uni-Dock RESULT> 
ENERGY=   -3.920  LOWER_BOUND=    5.648  UPPER_BOUND=    7.685
INTER + INTRA:          -3.920
INTER:                  -3.920
INTRA:                   0.000
UNBOUND:                 0.000

$$$$

     RDKit          3D

 59 60  0  0  0  0  0  0  0  0999 V2000
   48.4710    4.6818   17.3854 N   0  0  0  0  0  0  0  0  0  0  0  0
   47.9251    4.8739   18.6216 C   0  0  0  0  0  0  0  0  0  0  0  0
   48.0495    5.3673   16.1608 C   0  0  0  0  0  0  0  0  0  0  0  0
   48.9949    6.4972   15.7987 C   0  0  0  0  0  0  0  0  0  0  0  0
   48.5263    4.6135   19.7318 N   0  0  0  0  0  0  0  0  0  0  0  0
   49.8825    4.2653   17.3052 C   0  0  0  0  0  0  0  0  0  0  0  0
   50.3081    6.5424   16.3125 C   0  0  0  0  0  0  0  0  0  0  0  0
   50.7767    5.5077   17.3136 C   0  0  0  0  0  0  0  0  0  0  0  0
   46.6527    5.3261   18.6798 N   0  0  0  0  0  0  0  0  0  0  0  0
   48.5836    7.4804   14.8856 C   0  0  0  0  0  0  0  0  0  0  0  0
   51.1665    7.5847   15.9378 C   0  0  0  0  0  0  0  0  0  0  0  0
   49.4508    8.5073   14.5113 C   0  0  0  0  0  0  0  0  0  0  0  0
   50.7388    8.5611   15.0396 C   0  0  0  0  0  0  0  0  0  0  0  0
   48.9772    6.2082   17.1000 S   0  0  0  0  0  0  0  0  0  0  0  0
   48.8021    5.2502   18.1626 O   0  0  0  0  0  0  0  0  0  0  0  0
   48.3550    7.5095   17.0888 O   0  0  0  0  0  0  0  0  0  0  0  0
   50.5476    6.4433   16.8623 O   0  0  0  0  0  0  0  0  0  0  0  0
   48.5597    5.4520   15.7485 O   0  0  0  0  0  0  0  0  0  0  0  0
   49.5717    7.3955   15.9862 N   0  0  0  0  0  0  0  0  0  0  0  0
   50.0628    8.2123   15.0091 C   0  0  0  0  0  0  0  0  0  0  0  0
   48.5860    6.3649   15.6089 C   0  0  0  0  0  0  0  0  0  0  0  0
   48.3565    5.3330   16.6942 C   0  0  0  0  0  0  0  0  0  0  0  0
   50.1449    9.4947   15.0176 N   0  0  0  0  0  0  0  0  0  0  0  0
   49.3984    7.8813   17.3593 C   0  0  0  0  0  0  0  0  0  0  0  0
   48.8265    5.5203   18.0058 C   0  0  0  0  0  0  0  0  0  0  0  0
   49.6387    6.7402   18.3480 C   0  0  0  0  0  0  0  0  0  0  0  0
   50.5594    7.5597   13.9380 N   0  0  0  0  0  0  0  0  0  0  0  0
   47.6225    4.1752   16.3912 C   0  0  0  0  0  0  0  0  0  0  0  0
   48.5902    4.5394   18.9790 C   0  0  0  0  0  0  0  0  0  0  0  0
   47.3818    3.2103   17.3687 C   0  0  0  0  0  0  0  0  0  0  0  0
   47.8672    3.3914   18.6610 C   0  0  0  0  0  0  0  0  0  0  0  0
   47.0281    5.7541   16.2389 H   0  0  0  0  0  0  0  0  0  0  0  0
   48.0479    4.6453   15.3342 H   0  0  0  0  0  0  0  0  0  0  0  0
   47.8496    4.8346   20.4708 H   0  0  0  0  0  0  0  0  0  0  0  0
   50.0360    3.7003   16.3762 H   0  0  0  0  0  0  0  0  0  0  0  0
   50.1582    3.5837   18.1183 H   0  0  0  0  0  0  0  0  0  0  0  0
   50.7680    5.9683   18.3089 H   0  0  0  0  0  0  0  0  0  0  0  0
   51.8063    5.2080   17.0879 H   0  0  0  0  0  0  0  0  0  0  0  0
   46.0737    4.7805   18.0484 H   0  0  0  0  0  0  0  0  0  0  0  0
   46.6022    6.2735   18.3172 H   0  0  0  0  0  0  0  0  0  0  0  0
   47.5836    7.4530   14.4590 H   0  0  0  0  0  0  0  0  0  0  0  0
   52.1727    7.6400   16.3475 H   0  0  0  0  0  0  0  0  0  0  0  0
   49.1231    9.2676   13.8069 H   0  0  0  0  0  0  0  0  0  0  0  0
   51.4112    9.3652   14.7521 H   0  0  0  0  0  0  0  0  0  0  0  0
   50.6397    7.1934   16.2370 H   0  0  0  0  0  0  0  0  0  0  0  0
   48.2459    4.5580   16.0105 H   0  0  0  0  0  0  0  0  0  0  0  0
   48.9165    5.8333   14.7087 H   0  0  0  0  0  0  0  0  0  0  0  0
   47.6297    6.8521   15.3840 H   0  0  0  0  0  0  0  0  0  0  0  0
   49.7137    9.8621   15.8640 H   0  0  0  0  0  0  0  0  0  0  0  0
   48.3919    8.3030   17.4811 H   0  0  0  0  0  0  0  0  0  0  0  0
   50.1192    8.6757   17.5885 H   0  0  0  0  0  0  0  0  0  0  0  0
   49.3944    7.0867   19.3583 H   0  0  0  0  0  0  0  0  0  0  0  0
   50.6989    6.4598   18.3341 H   0  0  0  0  0  0  0  0  0  0  0  0
   51.1285    6.7711   14.2154 H   0  0  0  0  0  0  0  0  0  0  0  0
   51.0877    8.2108   13.3672 H   0  0  0  0  0  0  0  0  0  0  0  0
   47.2370    4.0180   15.3858 H   0  0  0  0  0  0  0  0  0  0  0  0
   48.9702    4.6659   19.9904 H   0  0  0  0  0  0  0  0  0  0  0  0
   46.8173    2.3160   17.1214 H   0  0  0  0  0  0  0  0  0  0  0  0
   47.6820    2.6379   19.4217 H   0  0  0  0  0  0  0  0  0  0  0  0
  2  1  1  0
  3  1  1  0
  4  3  1  0
  5  2  2  3
  6  1  1  0
  7  8  1  0
  8  6  1  0
  9  2  1  0
 10  4  2  0
 11  7  2  0
 12 10  1  0
 13 11  1  0
  4  7  1  0
 12 13  2  0
 15 14  2  0
 16 14  2  0
 17 14  1  0
 18 14  1  0
 20 19  1  0
 21 19  1  0
 22 21  1  0
 23 20  2  3
 24 19  1  0
 25 26  1  0
 26 24  1  0
 27 20  1  0
 28 22  2  0
 29 25  2  0
 30 28  1  0
 31 29  1  0
 22 25  1  0
 30 31  2  0
  3 32  1  0
  3 33  1  0
  5 34  1  0
  6 35  1  0
  6 36  1  0
  8 37  1  0
  8 38  1  0
  9 39  1  0
  9 40  1  0
 10 41  1  0
 11 42  1  0
 12 43  1  0
 13 44  1  0
 17 45  1  0
 18 46  1  0
 21 47  1  0
 21 48  1  0
 23 49  1  0
 24 50  1  0
 24 51  1  0
 26 52  1  0
 26 53  1  0
 27 54  1  0
 27 55  1  0
 28 56  1  0
 29 57  1  0
 30 58  1  0
 31 59  1  0
M  END
> <Uni-Dock RESULT> 
ENERGY=   -3.911  LOWER_BOUND=    4.859  UPPER_BOUND=    6.296
INTER + INTRA:          -3.911
INTER:                  -3.911
INTRA:                   0.000
UNBOUND:                 0.000

$$$$

     RDKit          3D

 59 60  0  0  0  0  0  0  0  0999 V2000
   48.7540    6.5974   20.3771 N   0  0  0  0  0  0  0  0  0  0  0  0
   49.4682    7.7231   20.0840 C   0  0  0  0  0  0  0  0  0  0  0  0
   47.5579    6.1464   19.6607 C   0  0  0  0  0  0  0  0  0  0  0  0
   47.8775    5.0271   18.6878 C   0  0  0  0  0  0  0  0  0  0  0  0
   50.7022    7.9079   20.4082 N   0  0  0  0  0  0  0  0  0  0  0  0
   49.4644    5.4643   20.9962 C   0  0  0  0  0  0  0  0  0  0  0  0
   49.0499    4.2542   18.8248 C   0  0  0  0  0  0  0  0  0  0  0  0
   50.0659    4.5843   19.8976 C   0  0  0  0  0  0  0  0  0  0  0  0
   48.8215    8.7265   19.4502 N   0  0  0  0  0  0  0  0  0  0  0  0
   46.9627    4.7078   17.6725 C   0  0  0  0  0  0  0  0  0  0  0  0
   49.3036    3.2094   17.9260 C   0  0  0  0  0  0  0  0  0  0  0  0
   47.2207    3.6582   16.7903 C   0  0  0  0  0  0  0  0  0  0  0  0
   48.3911    2.9128   16.9148 C   0  0  0  0  0  0  0  0  0  0  0  0
   48.9132    5.8257   18.9464 S   0  0  0  0  0  0  0  0  0  0  0  0
   49.6180    6.7016   19.8483 O   0  0  0  0  0  0  0  0  0  0  0  0
   48.6383    6.1530   17.5687 O   0  0  0  0  0  0  0  0  0  0  0  0
   49.6298    4.3888   18.9473 O   0  0  0  0  0  0  0  0  0  0  0  0
   47.5170    5.4862   19.6591 O   0  0  0  0  0  0  0  0  0  0  0  0
   48.4212    4.5514   17.8797 N   0  0  0  0  0  0  0  0  0  0  0  0
   47.9570    3.4873   17.1619 C   0  0  0  0  0  0  0  0  0  0  0  0
   47.4800    5.2661   18.7625 C   0  0  0  0  0  0  0  0  0  0  0  0
   48.1673    6.2087   19.7293 C   0  0  0  0  0  0  0  0  0  0  0  0
   48.0983    3.2589   15.9052 N   0  0  0  0  0  0  0  0  0  0  0  0
   49.4800    5.4161   17.3479 C   0  0  0  0  0  0  0  0  0  0  0  0
   49.5219    6.5568   19.5877 C   0  0  0  0  0  0  0  0  0  0  0  0
   50.3485    5.9376   18.4930 C   0  0  0  0  0  0  0  0  0  0  0  0
   47.3184    2.5561   17.9001 N   0  0  0  0  0  0  0  0  0  0  0  0
   47.4217    6.7790   20.7732 C   0  0  0  0  0  0  0  0  0  0  0  0
   50.1171    7.4339   20.5050 C   0  0  0  0  0  0  0  0  0  0  0  0
   48.0189    7.6601   21.6741 C   0  0  0  0  0  0  0  0  0  0  0  0
   49.3661    7.9854   21.5413 C   0  0  0  0  0  0  0  0  0  0  0  0
   47.0661    6.9668   19.1277 H   0  0  0  0  0  0  0  0  0  0  0  0
   46.8308    5.7673   20.3902 H   0  0  0  0  0  0  0  0  0  0  0  0
   50.9366    8.8503   20.0769 H   0  0  0  0  0  0  0  0  0  0  0  0
   48.7527    4.8806   21.5950 H   0  0  0  0  0  0  0  0  0  0  0  0
   50.2408    5.7965   21.6952 H   0  0  0  0  0  0  0  0  0  0  0  0
   50.9074    5.1025   19.4219 H   0  0  0  0  0  0  0  0  0  0  0  0
   50.4476    3.6613   20.3484 H   0  0  0  0  0  0  0  0  0  0  0  0
   47.9371    8.9035   19.9173 H   0  0  0  0  0  0  0  0  0  0  0  0
   48.5606    8.4360   18.5125 H   0  0  0  0  0  0  0  0  0  0  0  0
   46.0414    5.2752   17.5619 H   0  0  0  0  0  0  0  0  0  0  0  0
   50.2163    2.6236   18.0103 H   0  0  0  0  0  0  0  0  0  0  0  0
   46.5091    3.4200   16.0038 H   0  0  0  0  0  0  0  0  0  0  0  0
   48.5939    2.0994   16.2229 H   0  0  0  0  0  0  0  0  0  0  0  0
   49.2215    3.8580   18.2306 H   0  0  0  0  0  0  0  0  0  0  0  0
   47.4915    6.0067   20.4927 H   0  0  0  0  0  0  0  0  0  0  0  0
   46.8950    4.5515   19.3537 H   0  0  0  0  0  0  0  0  0  0  0  0
   46.7841    5.8469   18.1455 H   0  0  0  0  0  0  0  0  0  0  0  0
   48.5707    4.0454   15.4629 H   0  0  0  0  0  0  0  0  0  0  0  0
   49.0348    6.2450   16.7818 H   0  0  0  0  0  0  0  0  0  0  0  0
   50.1328    4.8614   16.6629 H   0  0  0  0  0  0  0  0  0  0  0  0
   51.0601    6.6697   18.0955 H   0  0  0  0  0  0  0  0  0  0  0  0
   50.9223    5.1088   18.9252 H   0  0  0  0  0  0  0  0  0  0  0  0
   47.8161    2.3577   18.7578 H   0  0  0  0  0  0  0  0  0  0  0  0
   47.1967    1.7166   17.3438 H   0  0  0  0  0  0  0  0  0  0  0  0
   46.3680    6.5343   20.8915 H   0  0  0  0  0  0  0  0  0  0  0  0
   51.1705    7.6905   20.4162 H   0  0  0  0  0  0  0  0  0  0  0  0
   47.4336    8.0911   22.4810 H   0  0  0  0  0  0  0  0  0  0  0  0
   49.8319    8.6697   22.2452 H   0  0  0  0  0  0  0  0  0  0  0  0
  2  1  1  0
  3  1  1  0
  4  3  1  0
  5  2  2  3
  6  1  1  0
  7  8  1  0
  8  6  1  0
  9  2  1  0
 10  4  2  0
 11  7  2  0
 12 10  1  0
 13 11  1  0
  4  7  1  0
 12 13  2  0
 15 14  2  0
 16 14  2  0
 17 14  1  0
 18 14  1  0
 20 19  1  0
 21 19  1  0
 22 21  1  0
 23 20  2  3
 24 19  1  0
 25 26  1  0
 26 24  1  0
 27 20  1  0
 28 22  2  0
 29 25  2  0
 30 28  1  0
 31 29  1  0
 22 25  1  0
 30 31  2  0
  3 32  1  0
  3 33  1  0
  5 34  1  0
  6 35  1  0
  6 36  1  0
  8 37  1  0
  8 38  1  0
  9 39  1  0
  9 40  1  0
 10 41  1  0
 11 42  1  0
 12 43  1  0
 13 44  1  0
 17 45  1  0
 18 46  1  0
 21 47  1  0
 21 48  1  0
 23 49  1  0
 24 50  1  0
 24 51  1  0
 26 52  1  0
 26 53  1  0
 27 54  1  0
 27 55  1  0
 28 56  1  0
 29 57  1  0
 30 58  1  0
 31 59  1  0
M  END
> <Uni-Dock RESULT> 
ENERGY=   -3.892  LOWER_BOUND=    6.130  UPPER_BOUND=    8.520
INTER + INTRA:          -3.892
INTER:                  -3.892
INTRA:                   0.000
UNBOUND:                 0.000

$$$$
