
     RDKit          3D

 59 60  0  0  0  0  0  0  0  0999 V2000
   44.6610    4.2079    9.9703 N   0  0  0  0  0  0  0  0  0  0  0  0
   44.4063    5.1252   10.9440 C   0  0  0  0  0  0  0  0  0  0  0  0
   45.4228    4.5544    8.7635 C   0  0  0  0  0  0  0  0  0  0  0  0
   46.0111    3.3516    8.0487 C   0  0  0  0  0  0  0  0  0  0  0  0
   44.0893    4.8721   12.1652 N   0  0  0  0  0  0  0  0  0  0  0  0
   43.8864    2.9699    9.8652 C   0  0  0  0  0  0  0  0  0  0  0  0
   45.7152    2.0338    8.4406 C   0  0  0  0  0  0  0  0  0  0  0  0
   44.8243    1.7887    9.6303 C   0  0  0  0  0  0  0  0  0  0  0  0
   44.4924    6.4237   10.5892 N   0  0  0  0  0  0  0  0  0  0  0  0
   46.8605    3.5603    6.9500 C   0  0  0  0  0  0  0  0  0  0  0  0
   46.2892    0.9542    7.7546 C   0  0  0  0  0  0  0  0  0  0  0  0
   47.4148    2.4800    6.2628 C   0  0  0  0  0  0  0  0  0  0  0  0
   47.1308    1.1784    6.6661 C   0  0  0  0  0  0  0  0  0  0  0  0
   45.5324    3.6323    8.7862 S   0  0  0  0  0  0  0  0  0  0  0  0
   44.5504    4.6724    8.5983 O   0  0  0  0  0  0  0  0  0  0  0  0
   46.7524    3.5470    8.0235 O   0  0  0  0  0  0  0  0  0  0  0  0
   45.8906    3.5957   10.3495 O   0  0  0  0  0  0  0  0  0  0  0  0
   44.7920    2.2225    8.5960 O   0  0  0  0  0  0  0  0  0  0  0  0
   46.3231    2.6806    7.9891 N   0  0  0  0  0  0  0  0  0  0  0  0
   47.1922    1.9189    7.2564 C   0  0  0  0  0  0  0  0  0  0  0  0
   45.4249    2.0385    8.9609 C   0  0  0  0  0  0  0  0  0  0  0  0
   44.6929    3.0079    9.8679 C   0  0  0  0  0  0  0  0  0  0  0  0
   47.3400    0.6413    7.2718 N   0  0  0  0  0  0  0  0  0  0  0  0
   45.7832    3.9401    7.4460 C   0  0  0  0  0  0  0  0  0  0  0  0
   44.7597    4.3993    9.6790 C   0  0  0  0  0  0  0  0  0  0  0  0
   45.6084    4.9596    8.5705 C   0  0  0  0  0  0  0  0  0  0  0  0
   48.0227    2.5962    6.4382 N   0  0  0  0  0  0  0  0  0  0  0  0
   43.9068    2.5004   10.9140 C   0  0  0  0  0  0  0  0  0  0  0  0
   44.0753    5.2577   10.5505 C   0  0  0  0  0  0  0  0  0  0  0  0
   43.2163    3.3606   11.7683 C   0  0  0  0  0  0  0  0  0  0  0  0
   43.3027    4.7376   11.5888 C   0  0  0  0  0  0  0  0  0  0  0  0
   46.2544    5.2173    9.0342 H   0  0  0  0  0  0  0  0  0  0  0  0
   44.7647    5.0848    8.0641 H   0  0  0  0  0  0  0  0  0  0  0  0
   44.1288    3.8627   12.3081 H   0  0  0  0  0  0  0  0  0  0  0  0
   43.2897    2.7767   10.7635 H   0  0  0  0  0  0  0  0  0  0  0  0
   43.1718    3.0639    9.0365 H   0  0  0  0  0  0  0  0  0  0  0  0
   45.4574    1.6310   10.5121 H   0  0  0  0  0  0  0  0  0  0  0  0
   44.2256    0.8840    9.4734 H   0  0  0  0  0  0  0  0  0  0  0  0
   44.1875    6.9892   11.3761 H   0  0  0  0  0  0  0  0  0  0  0  0
   43.9339    6.6406    9.7759 H   0  0  0  0  0  0  0  0  0  0  0  0
   47.1002    4.5711    6.6266 H   0  0  0  0  0  0  0  0  0  0  0  0
   46.0834   -0.0673    8.0655 H   0  0  0  0  0  0  0  0  0  0  0  0
   48.0739    2.6542    5.4159 H   0  0  0  0  0  0  0  0  0  0  0  0
   47.5686    0.3372    6.1353 H   0  0  0  0  0  0  0  0  0  0  0  0
   45.0555    3.6670   10.8510 H   0  0  0  0  0  0  0  0  0  0  0  0
   45.2715    1.7425    7.8882 H   0  0  0  0  0  0  0  0  0  0  0  0
   46.0137    1.3722    9.6040 H   0  0  0  0  0  0  0  0  0  0  0  0
   44.6818    1.4387    8.4199 H   0  0  0  0  0  0  0  0  0  0  0  0
   46.6889    0.2093    7.9232 H   0  0  0  0  0  0  0  0  0  0  0  0
   44.8241    3.7376    6.9514 H   0  0  0  0  0  0  0  0  0  0  0  0
   46.4353    4.3879    6.6891 H   0  0  0  0  0  0  0  0  0  0  0  0
   46.5862    5.2329    8.9859 H   0  0  0  0  0  0  0  0  0  0  0  0
   45.1458    5.8655    8.1610 H   0  0  0  0  0  0  0  0  0  0  0  0
   48.4771    3.3675    6.9066 H   0  0  0  0  0  0  0  0  0  0  0  0
   48.7136    1.9480    6.0717 H   0  0  0  0  0  0  0  0  0  0  0  0
   43.8279    1.4261   11.0702 H   0  0  0  0  0  0  0  0  0  0  0  0
   44.1403    6.3360   10.4251 H   0  0  0  0  0  0  0  0  0  0  0  0
   42.6143    2.9557   12.5766 H   0  0  0  0  0  0  0  0  0  0  0  0
   42.7697    5.4080   12.2585 H   0  0  0  0  0  0  0  0  0  0  0  0
  2  1  1  0
  3  1  1  0
  4  3  1  0
  5  2  2  3
  6  1  1  0
  7  8  1  0
  8  6  1  0
  9  2  1  0
 10  4  2  0
 11  7  2  0
 12 10  1  0
 13 11  1  0
  4  7  1  0
 12 13  2  0
 15 14  2  0
 16 14  2  0
 17 14  1  0
 18 14  1  0
 20 19  1  0
 21 19  1  0
 22 21  1  0
 23 20  2  3
 24 19  1  0
 25 26  1  0
 26 24  1  0
 27 20  1  0
 28 22  2  0
 29 25  2  0
 30 28  1  0
 31 29  1  0
 22 25  1  0
 30 31  2  0
  3 32  1  0
  3 33  1  0
  5 34  1  0
  6 35  1  0
  6 36  1  0
  8 37  1  0
  8 38  1  0
  9 39  1  0
  9 40  1  0
 10 41  1  0
 11 42  1  0
 12 43  1  0
 13 44  1  0
 17 45  1  0
 18 46  1  0
 21 47  1  0
 21 48  1  0
 23 49  1  0
 24 50  1  0
 24 51  1  0
 26 52  1  0
 26 53  1  0
 27 54  1  0
 27 55  1  0
 28 56  1  0
 29 57  1  0
 30 58  1  0
 31 59  1  0
M  END
> <Uni-Dock RESULT> 
ENERGY=   -7.883  LOWER_BOUND=    0.000  UPPER_BOUND=    0.000
INTER + INTRA:          -7.883
INTER:                  -7.883
INTRA:                   0.000
UNBOUND:                 0.000

$$$$

     RDKit          3D

 59 60  0  0  0  0  0  0  0  0999 V2000
   46.0814    3.2086    7.7007 N   0  0  0  0  0  0  0  0  0  0  0  0
   46.5246    3.1747    6.4136 C   0  0  0  0  0  0  0  0  0  0  0  0
   45.7146    4.4697    8.3580 C   0  0  0  0  0  0  0  0  0  0  0  0
   44.8165    4.2870    9.5677 C   0  0  0  0  0  0  0  0  0  0  0  0
   46.5234    2.1510    5.6340 N   0  0  0  0  0  0  0  0  0  0  0  0
   46.3095    2.0898    8.6172 C   0  0  0  0  0  0  0  0  0  0  0  0
   44.5029    3.0143   10.0775 C   0  0  0  0  0  0  0  0  0  0  0  0
   45.0293    1.7818    9.3896 C   0  0  0  0  0  0  0  0  0  0  0  0
   47.0148    4.3270    5.9121 N   0  0  0  0  0  0  0  0  0  0  0  0
   44.2992    5.4237   10.2102 C   0  0  0  0  0  0  0  0  0  0  0  0
   43.6620    2.8950   11.1929 C   0  0  0  0  0  0  0  0  0  0  0  0
   43.4761    5.2966   11.3295 C   0  0  0  0  0  0  0  0  0  0  0  0
   43.1564    4.0333   11.8190 C   0  0  0  0  0  0  0  0  0  0  0  0
   45.2472    3.8556    8.8748 S   0  0  0  0  0  0  0  0  0  0  0  0
   46.5766    4.2955    8.5276 O   0  0  0  0  0  0  0  0  0  0  0  0
   44.2263    4.7393    9.3791 O   0  0  0  0  0  0  0  0  0  0  0  0
   44.6674    3.0561    7.6106 O   0  0  0  0  0  0  0  0  0  0  0  0
   45.3895    2.6805    9.9569 O   0  0  0  0  0  0  0  0  0  0  0  0
   44.2778    3.9790    9.9755 N   0  0  0  0  0  0  0  0  0  0  0  0
   43.3026    4.2294   10.9021 C   0  0  0  0  0  0  0  0  0  0  0  0
   44.6874    2.5939    9.6976 C   0  0  0  0  0  0  0  0  0  0  0  0
   45.5937    2.4420    8.4920 C   0  0  0  0  0  0  0  0  0  0  0  0
   42.6612    3.3862   11.6315 N   0  0  0  0  0  0  0  0  0  0  0  0
   45.3484    4.9608    9.7247 C   0  0  0  0  0  0  0  0  0  0  0  0
   46.1126    3.5539    7.8059 C   0  0  0  0  0  0  0  0  0  0  0  0
   45.7365    4.9421    8.2469 C   0  0  0  0  0  0  0  0  0  0  0  0
   42.9446    5.5214   11.0453 N   0  0  0  0  0  0  0  0  0  0  0  0
   45.9436    1.1529    8.0612 C   0  0  0  0  0  0  0  0  0  0  0  0
   46.9374    3.3645    6.6884 C   0  0  0  0  0  0  0  0  0  0  0  0
   46.7773    0.9724    6.9571 C   0  0  0  0  0  0  0  0  0  0  0  0
   47.2713    2.0767    6.2697 C   0  0  0  0  0  0  0  0  0  0  0  0
   45.1820    5.1118    7.6450 H   0  0  0  0  0  0  0  0  0  0  0  0
   46.6280    4.9852    8.6798 H   0  0  0  0  0  0  0  0  0  0  0  0
   46.0664    1.3766    6.1161 H   0  0  0  0  0  0  0  0  0  0  0  0
   46.6349    1.1844    8.0933 H   0  0  0  0  0  0  0  0  0  0  0  0
   47.1214    2.3529    9.3084 H   0  0  0  0  0  0  0  0  0  0  0  0
   44.2578    1.4098    8.7043 H   0  0  0  0  0  0  0  0  0  0  0  0
   45.2378    0.9981   10.1271 H   0  0  0  0  0  0  0  0  0  0  0  0
   47.3932    4.1363    4.9888 H   0  0  0  0  0  0  0  0  0  0  0  0
   47.7316    4.7304    6.4984 H   0  0  0  0  0  0  0  0  0  0  0  0
   44.5318    6.4183    9.8358 H   0  0  0  0  0  0  0  0  0  0  0  0
   43.3965    1.9138   11.5794 H   0  0  0  0  0  0  0  0  0  0  0  0
   43.0787    6.1838   11.8162 H   0  0  0  0  0  0  0  0  0  0  0  0
   42.5092    3.9343   12.6864 H   0  0  0  0  0  0  0  0  0  0  0  0
   45.3745    2.4723    7.2740 H   0  0  0  0  0  0  0  0  0  0  0  0
   44.8746    2.9552   10.7447 H   0  0  0  0  0  0  0  0  0  0  0  0
   43.7917    1.9884    9.5100 H   0  0  0  0  0  0  0  0  0  0  0  0
   45.2065    2.1908   10.5768 H   0  0  0  0  0  0  0  0  0  0  0  0
   42.9796    2.4367   11.4524 H   0  0  0  0  0  0  0  0  0  0  0  0
   46.2130    4.7207   10.3575 H   0  0  0  0  0  0  0  0  0  0  0  0
   45.0517    5.9837    9.9780 H   0  0  0  0  0  0  0  0  0  0  0  0
   44.8951    5.2858    7.6327 H   0  0  0  0  0  0  0  0  0  0  0  0
   46.5768    5.6291    8.0909 H   0  0  0  0  0  0  0  0  0  0  0  0
   42.7659    5.9700   10.1579 H   0  0  0  0  0  0  0  0  0  0  0  0
   42.1191    5.5635   11.6359 H   0  0  0  0  0  0  0  0  0  0  0  0
   45.5662    0.2772    8.5862 H   0  0  0  0  0  0  0  0  0  0  0  0
   47.3242    4.2193    6.1385 H   0  0  0  0  0  0  0  0  0  0  0  0
   47.0377   -0.0304    6.6313 H   0  0  0  0  0  0  0  0  0  0  0  0
   47.9157    1.9358    5.4055 H   0  0  0  0  0  0  0  0  0  0  0  0
  2  1  1  0
  3  1  1  0
  4  3  1  0
  5  2  2  3
  6  1  1  0
  7  8  1  0
  8  6  1  0
  9  2  1  0
 10  4  2  0
 11  7  2  0
 12 10  1  0
 13 11  1  0
  4  7  1  0
 12 13  2  0
 15 14  2  0
 16 14  2  0
 17 14  1  0
 18 14  1  0
 20 19  1  0
 21 19  1  0
 22 21  1  0
 23 20  2  3
 24 19  1  0
 25 26  1  0
 26 24  1  0
 27 20  1  0
 28 22  2  0
 29 25  2  0
 30 28  1  0
 31 29  1  0
 22 25  1  0
 30 31  2  0
  3 32  1  0
  3 33  1  0
  5 34  1  0
  6 35  1  0
  6 36  1  0
  8 37  1  0
  8 38  1  0
  9 39  1  0
  9 40  1  0
 10 41  1  0
 11 42  1  0
 12 43  1  0
 13 44  1  0
 17 45  1  0
 18 46  1  0
 21 47  1  0
 21 48  1  0
 23 49  1  0
 24 50  1  0
 24 51  1  0
 26 52  1  0
 26 53  1  0
 27 54  1  0
 27 55  1  0
 28 56  1  0
 29 57  1  0
 30 58  1  0
 31 59  1  0
M  END
> <Uni-Dock RESULT> 
ENERGY=   -7.116  LOWER_BOUND=    0.921  UPPER_BOUND=    4.437
INTER + INTRA:          -7.116
INTER:                  -7.116
INTRA:                   0.000
UNBOUND:                 0.000

$$$$

     RDKit          3D

 59 60  0  0  0  0  0  0  0  0999 V2000
   44.5230    5.8622   12.1618 N   0  0  0  0  0  0  0  0  0  0  0  0
   43.2165    5.5715   11.9114 C   0  0  0  0  0  0  0  0  0  0  0  0
   45.0213    7.2437   12.1563 C   0  0  0  0  0  0  0  0  0  0  0  0
   46.3301    7.4218   12.9039 C   0  0  0  0  0  0  0  0  0  0  0  0
   42.6004    4.4899   12.2377 N   0  0  0  0  0  0  0  0  0  0  0  0
   45.5662    4.8398   12.0616 C   0  0  0  0  0  0  0  0  0  0  0  0
   47.0511    6.3278   13.4149 C   0  0  0  0  0  0  0  0  0  0  0  0
   46.5022    4.9331   13.2638 C   0  0  0  0  0  0  0  0  0  0  0  0
   42.5032    6.5092   11.2545 N   0  0  0  0  0  0  0  0  0  0  0  0
   46.8475    8.7165   13.0728 C   0  0  0  0  0  0  0  0  0  0  0  0
   48.2519    6.5425   14.1058 C   0  0  0  0  0  0  0  0  0  0  0  0
   48.0515    8.9199   13.7478 C   0  0  0  0  0  0  0  0  0  0  0  0
   48.7518    7.8340   14.2654 C   0  0  0  0  0  0  0  0  0  0  0  0
   45.6679    6.8219   12.6727 S   0  0  0  0  0  0  0  0  0  0  0  0
   45.1258    6.8956   11.3377 O   0  0  0  0  0  0  0  0  0  0  0  0
   46.1382    7.9728   13.4018 O   0  0  0  0  0  0  0  0  0  0  0  0
   44.6012    6.0329   13.5744 O   0  0  0  0  0  0  0  0  0  0  0  0
   46.8911    5.7850   12.6456 O   0  0  0  0  0  0  0  0  0  0  0  0
   46.8316    7.2989   13.4373 N   0  0  0  0  0  0  0  0  0  0  0  0
   47.8060    7.8788   14.2033 C   0  0  0  0  0  0  0  0  0  0  0  0
   46.7205    5.8334   13.3778 C   0  0  0  0  0  0  0  0  0  0  0  0
   45.4642    5.3310   12.6943 C   0  0  0  0  0  0  0  0  0  0  0  0
   48.7133    7.3020   14.9093 N   0  0  0  0  0  0  0  0  0  0  0  0
   46.3309    7.9673   12.2226 C   0  0  0  0  0  0  0  0  0  0  0  0
   44.5724    6.2009   12.0429 C   0  0  0  0  0  0  0  0  0  0  0  0
   44.8402    7.6811   12.0477 C   0  0  0  0  0  0  0  0  0  0  0  0
   47.7931    9.2262   14.2510 N   0  0  0  0  0  0  0  0  0  0  0  0
   45.1946    3.9536   12.6921 C   0  0  0  0  0  0  0  0  0  0  0  0
   43.4167    5.6918   11.4346 C   0  0  0  0  0  0  0  0  0  0  0  0
   44.0498    3.4527   12.0714 C   0  0  0  0  0  0  0  0  0  0  0  0
   43.1604    4.3208   11.4460 C   0  0  0  0  0  0  0  0  0  0  0  0
   44.2797    7.9014   12.6272 H   0  0  0  0  0  0  0  0  0  0  0  0
   45.1686    7.5676   11.1185 H   0  0  0  0  0  0  0  0  0  0  0  0
   43.2355    3.9068   12.7833 H   0  0  0  0  0  0  0  0  0  0  0  0
   45.1509    3.8272   12.0124 H   0  0  0  0  0  0  0  0  0  0  0  0
   46.1245    4.9882   11.1275 H   0  0  0  0  0  0  0  0  0  0  0  0
   45.9617    4.6709   14.1816 H   0  0  0  0  0  0  0  0  0  0  0  0
   47.3219    4.2171   13.1338 H   0  0  0  0  0  0  0  0  0  0  0  0
   41.5844    6.1260   11.0525 H   0  0  0  0  0  0  0  0  0  0  0  0
   42.9474    6.8025   10.3960 H   0  0  0  0  0  0  0  0  0  0  0  0
   46.3088    9.5773   12.6824 H   0  0  0  0  0  0  0  0  0  0  0  0
   48.8039    5.7038   14.5237 H   0  0  0  0  0  0  0  0  0  0  0  0
   48.4401    9.9271   13.8755 H   0  0  0  0  0  0  0  0  0  0  0  0
   49.6858    7.9934   14.7976 H   0  0  0  0  0  0  0  0  0  0  0  0
   44.2839    5.2645   13.0616 H   0  0  0  0  0  0  0  0  0  0  0  0
   47.6783    6.2647   12.9795 H   0  0  0  0  0  0  0  0  0  0  0  0
   46.7166    5.4347   14.4002 H   0  0  0  0  0  0  0  0  0  0  0  0
   47.5918    5.4296   12.8462 H   0  0  0  0  0  0  0  0  0  0  0  0
   48.6445    6.2901   14.8306 H   0  0  0  0  0  0  0  0  0  0  0  0
   46.9005    7.6108   11.3543 H   0  0  0  0  0  0  0  0  0  0  0  0
   46.4597    9.0541   12.2547 H   0  0  0  0  0  0  0  0  0  0  0  0
   44.2712    8.1345   12.8686 H   0  0  0  0  0  0  0  0  0  0  0  0
   44.4996    8.1301   11.1070 H   0  0  0  0  0  0  0  0  0  0  0  0
   46.8722    9.5939   14.4446 H   0  0  0  0  0  0  0  0  0  0  0  0
   48.4522    9.5299   14.9618 H   0  0  0  0  0  0  0  0  0  0  0  0
   45.8786    3.2594   13.1769 H   0  0  0  0  0  0  0  0  0  0  0  0
   42.7102    6.3605   10.9485 H   0  0  0  0  0  0  0  0  0  0  0  0
   43.8504    2.3851   12.0799 H   0  0  0  0  0  0  0  0  0  0  0  0
   42.2652    3.9310   10.9680 H   0  0  0  0  0  0  0  0  0  0  0  0
  2  1  1  0
  3  1  1  0
  4  3  1  0
  5  2  2  3
  6  1  1  0
  7  8  1  0
  8  6  1  0
  9  2  1  0
 10  4  2  0
 11  7  2  0
 12 10  1  0
 13 11  1  0
  4  7  1  0
 12 13  2  0
 15 14  2  0
 16 14  2  0
 17 14  1  0
 18 14  1  0
 20 19  1  0
 21 19  1  0
 22 21  1  0
 23 20  2  3
 24 19  1  0
 25 26  1  0
 26 24  1  0
 27 20  1  0
 28 22  2  0
 29 25  2  0
 30 28  1  0
 31 29  1  0
 22 25  1  0
 30 31  2  0
  3 32  1  0
  3 33  1  0
  5 34  1  0
  6 35  1  0
  6 36  1  0
  8 37  1  0
  8 38  1  0
  9 39  1  0
  9 40  1  0
 10 41  1  0
 11 42  1  0
 12 43  1  0
 13 44  1  0
 17 45  1  0
 18 46  1  0
 21 47  1  0
 21 48  1  0
 23 49  1  0
 24 50  1  0
 24 51  1  0
 26 52  1  0
 26 53  1  0
 27 54  1  0
 27 55  1  0
 28 56  1  0
 29 57  1  0
 30 58  1  0
 31 59  1  0
M  END
> <Uni-Dock RESULT> 
ENERGY=   -6.657  LOWER_BOUND=    4.279  UPPER_BOUND=    5.986
INTER + INTRA:          -6.657
INTER:                  -6.657
INTRA:                   0.000
UNBOUND:                 0.000

$$$$

     RDKit          3D

 59 60  0  0  0  0  0  0  0  0999 V2000
   44.2501    3.7914   10.3942 N   0  0  0  0  0  0  0  0  0  0  0  0
   43.1626    3.8046   11.2135 C   0  0  0  0  0  0  0  0  0  0  0  0
   44.7279    2.5532    9.7653 C   0  0  0  0  0  0  0  0  0  0  0  0
   45.6083    2.7874    8.5514 C   0  0  0  0  0  0  0  0  0  0  0  0
   42.4489    4.8318   11.5159 N   0  0  0  0  0  0  0  0  0  0  0  0
   45.2231    4.8854   10.3979 C   0  0  0  0  0  0  0  0  0  0  0  0
   46.0324    4.0745    8.1757 C   0  0  0  0  0  0  0  0  0  0  0  0
   45.5738    5.2736    8.9638 C   0  0  0  0  0  0  0  0  0  0  0  0
   42.8038    2.6256   11.7618 N   0  0  0  0  0  0  0  0  0  0  0  0
   46.0293    1.6835    7.7920 C   0  0  0  0  0  0  0  0  0  0  0  0
   46.8389    4.2422    7.0413 C   0  0  0  0  0  0  0  0  0  0  0  0
   46.8451    1.8578    6.6737 C   0  0  0  0  0  0  0  0  0  0  0  0
   47.2478    3.1361    6.2978 C   0  0  0  0  0  0  0  0  0  0  0  0
   45.0932    3.1937    9.2005 S   0  0  0  0  0  0  0  0  0  0  0  0
   45.1586    2.6674   10.5423 O   0  0  0  0  0  0  0  0  0  0  0  0
   45.2353    2.3774    8.0212 O   0  0  0  0  0  0  0  0  0  0  0  0
   43.7348    4.0398    9.0891 O   0  0  0  0  0  0  0  0  0  0  0  0
   46.1990    4.3485    9.0753 O   0  0  0  0  0  0  0  0  0  0  0  0
   45.8395    3.1280    7.9336 N   0  0  0  0  0  0  0  0  0  0  0  0
   46.4150    2.9374    6.7068 C   0  0  0  0  0  0  0  0  0  0  0  0
   45.7393    4.4843    8.4940 C   0  0  0  0  0  0  0  0  0  0  0  0
   44.8746    4.5834    9.7351 C   0  0  0  0  0  0  0  0  0  0  0  0
   46.9355    3.8166    5.9256 N   0  0  0  0  0  0  0  0  0  0  0  0
   45.9021    2.0780    8.9663 C   0  0  0  0  0  0  0  0  0  0  0  0
   44.3502    3.4440   10.3700 C   0  0  0  0  0  0  0  0  0  0  0  0
   44.6158    2.0812    9.7909 C   0  0  0  0  0  0  0  0  0  0  0  0
   46.4055    1.6715    6.2426 N   0  0  0  0  0  0  0  0  0  0  0  0
   44.6079    5.8490   10.2799 C   0  0  0  0  0  0  0  0  0  0  0  0
   43.5454    3.5854   11.5089 C   0  0  0  0  0  0  0  0  0  0  0  0
   43.8183    5.9808   11.4227 C   0  0  0  0  0  0  0  0  0  0  0  0
   43.2852    4.8508   12.0348 C   0  0  0  0  0  0  0  0  0  0  0  0
   43.8684    1.9538    9.4394 H   0  0  0  0  0  0  0  0  0  0  0  0
   45.3000    1.9748   10.5014 H   0  0  0  0  0  0  0  0  0  0  0  0
   42.7888    5.6317   10.9817 H   0  0  0  0  0  0  0  0  0  0  0  0
   44.8496    5.7706   10.9244 H   0  0  0  0  0  0  0  0  0  0  0  0
   46.1225    4.5630   10.9395 H   0  0  0  0  0  0  0  0  0  0  0  0
   44.6954    5.7019    8.4655 H   0  0  0  0  0  0  0  0  0  0  0  0
   46.3611    6.0360    8.9833 H   0  0  0  0  0  0  0  0  0  0  0  0
   42.0468    2.7970   12.4172 H   0  0  0  0  0  0  0  0  0  0  0  0
   43.5703    2.1704   12.2367 H   0  0  0  0  0  0  0  0  0  0  0  0
   45.7168    0.6782    8.0663 H   0  0  0  0  0  0  0  0  0  0  0  0
   47.1524    5.2362    6.7311 H   0  0  0  0  0  0  0  0  0  0  0  0
   47.1616    0.9959    6.0915 H   0  0  0  0  0  0  0  0  0  0  0  0
   47.8772    3.2723    5.4224 H   0  0  0  0  0  0  0  0  0  0  0  0
   43.6478    4.5769    9.9002 H   0  0  0  0  0  0  0  0  0  0  0  0
   46.7829    4.1034    8.3268 H   0  0  0  0  0  0  0  0  0  0  0  0
   45.3028    5.1503    7.7390 H   0  0  0  0  0  0  0  0  0  0  0  0
   46.7461    4.8449    8.7410 H   0  0  0  0  0  0  0  0  0  0  0  0
   46.8892    4.7437    6.3419 H   0  0  0  0  0  0  0  0  0  0  0  0
   46.7761    2.2544    9.6071 H   0  0  0  0  0  0  0  0  0  0  0  0
   46.0237    1.0756    8.5430 H   0  0  0  0  0  0  0  0  0  0  0  0
   43.7638    1.7997    9.1601 H   0  0  0  0  0  0  0  0  0  0  0  0
   44.7061    1.3401   10.5941 H   0  0  0  0  0  0  0  0  0  0  0  0
   45.4939    1.2425    6.3185 H   0  0  0  0  0  0  0  0  0  0  0  0
   46.7129    1.6810    5.2745 H   0  0  0  0  0  0  0  0  0  0  0  0
   45.0159    6.7443    9.8143 H   0  0  0  0  0  0  0  0  0  0  0  0
   43.1171    2.7105   11.9925 H   0  0  0  0  0  0  0  0  0  0  0  0
   43.6160    6.9661   11.8325 H   0  0  0  0  0  0  0  0  0  0  0  0
   42.6647    4.9541   12.9215 H   0  0  0  0  0  0  0  0  0  0  0  0
  2  1  1  0
  3  1  1  0
  4  3  1  0
  5  2  2  3
  6  1  1  0
  7  8  1  0
  8  6  1  0
  9  2  1  0
 10  4  2  0
 11  7  2  0
 12 10  1  0
 13 11  1  0
  4  7  1  0
 12 13  2  0
 15 14  2  0
 16 14  2  0
 17 14  1  0
 18 14  1  0
 20 19  1  0
 21 19  1  0
 22 21  1  0
 23 20  2  3
 24 19  1  0
 25 26  1  0
 26 24  1  0
 27 20  1  0
 28 22  2  0
 29 25  2  0
 30 28  1  0
 31 29  1  0
 22 25  1  0
 30 31  2  0
  3 32  1  0
  3 33  1  0
  5 34  1  0
  6 35  1  0
  6 36  1  0
  8 37  1  0
  8 38  1  0
  9 39  1  0
  9 40  1  0
 10 41  1  0
 11 42  1  0
 12 43  1  0
 13 44  1  0
 17 45  1  0
 18 46  1  0
 21 47  1  0
 21 48  1  0
 23 49  1  0
 24 50  1  0
 24 51  1  0
 26 52  1  0
 26 53  1  0
 27 54  1  0
 27 55  1  0
 28 56  1  0
 29 57  1  0
 30 58  1  0
 31 59  1  0
M  END
> <Uni-Dock RESULT> 
ENERGY=   -6.607  LOWER_BOUND=    1.020  UPPER_BOUND=    2.346
INTER + INTRA:          -6.607
INTER:                  -6.607
INTRA:                   0.000
UNBOUND:                 0.000

$$$$

     RDKit          3D

 59 60  0  0  0  0  0  0  0  0999 V2000
   44.9914    4.8277   12.4483 N   0  0  0  0  0  0  0  0  0  0  0  0
   44.4608    3.7106   11.8785 C   0  0  0  0  0  0  0  0  0  0  0  0
   46.2364    4.7807   13.2259 C   0  0  0  0  0  0  0  0  0  0  0  0
   46.9170    6.1299   13.3675 C   0  0  0  0  0  0  0  0  0  0  0  0
   43.6188    3.6778   10.9059 N   0  0  0  0  0  0  0  0  0  0  0  0
   44.1872    6.0326   12.6612 C   0  0  0  0  0  0  0  0  0  0  0  0
   46.3160    7.3186   12.9162 C   0  0  0  0  0  0  0  0  0  0  0  0
   44.9760    7.2664   12.2300 C   0  0  0  0  0  0  0  0  0  0  0  0
   44.8559    2.5257   12.3878 N   0  0  0  0  0  0  0  0  0  0  0  0
   48.1761    6.1962   13.9861 C   0  0  0  0  0  0  0  0  0  0  0  0
   46.9871    8.5409   13.0615 C   0  0  0  0  0  0  0  0  0  0  0  0
   48.8300    7.4189   14.1411 C   0  0  0  0  0  0  0  0  0  0  0  0
   48.2368    8.5897   13.6775 C   0  0  0  0  0  0  0  0  0  0  0  0
   46.2071    5.6781   12.9882 S   0  0  0  0  0  0  0  0  0  0  0  0
   45.5433    4.6737   13.7832 O   0  0  0  0  0  0  0  0  0  0  0  0
   47.6149    5.9690   13.0928 O   0  0  0  0  0  0  0  0  0  0  0  0
   45.8483    5.3808   11.4532 O   0  0  0  0  0  0  0  0  0  0  0  0
   45.4484    7.0704   13.2288 O   0  0  0  0  0  0  0  0  0  0  0  0
   47.1360    6.8073   13.1570 N   0  0  0  0  0  0  0  0  0  0  0  0
   48.1313    7.7397   13.2690 C   0  0  0  0  0  0  0  0  0  0  0  0
   45.8329    7.1898   12.5920 C   0  0  0  0  0  0  0  0  0  0  0  0
   44.9113    6.0212   12.3041 C   0  0  0  0  0  0  0  0  0  0  0  0
   48.0942    8.9865   12.9555 N   0  0  0  0  0  0  0  0  0  0  0  0
   47.0482    5.6817   14.1047 C   0  0  0  0  0  0  0  0  0  0  0  0
   45.2295    4.7085   12.6940 C   0  0  0  0  0  0  0  0  0  0  0  0
   46.5369    4.4342   13.3856 C   0  0  0  0  0  0  0  0  0  0  0  0
   49.3122    7.2867   13.7363 N   0  0  0  0  0  0  0  0  0  0  0  0
   43.6936    6.2598   11.6485 C   0  0  0  0  0  0  0  0  0  0  0  0
   44.3516    3.6574   12.3953 C   0  0  0  0  0  0  0  0  0  0  0  0
   42.8178    5.2104   11.3681 C   0  0  0  0  0  0  0  0  0  0  0  0
   43.1476    3.9104   11.7383 C   0  0  0  0  0  0  0  0  0  0  0  0
   46.9468    4.1018   12.7375 H   0  0  0  0  0  0  0  0  0  0  0  0
   46.0176    4.3965   14.2300 H   0  0  0  0  0  0  0  0  0  0  0  0
   43.4641    4.6316   10.5785 H   0  0  0  0  0  0  0  0  0  0  0  0
   43.2423    6.0036   12.1075 H   0  0  0  0  0  0  0  0  0  0  0  0
   43.9183    6.1005   13.7238 H   0  0  0  0  0  0  0  0  0  0  0  0
   45.1412    7.2463   11.1458 H   0  0  0  0  0  0  0  0  0  0  0  0
   44.3938    8.1635   12.4703 H   0  0  0  0  0  0  0  0  0  0  0  0
   44.3162    1.7911   11.9394 H   0  0  0  0  0  0  0  0  0  0  0  0
   44.7353    2.4754   13.3894 H   0  0  0  0  0  0  0  0  0  0  0  0
   48.6582    5.2900   14.3464 H   0  0  0  0  0  0  0  0  0  0  0  0
   46.5392    9.4615   12.6949 H   0  0  0  0  0  0  0  0  0  0  0  0
   49.8060    7.4572   14.6184 H   0  0  0  0  0  0  0  0  0  0  0  0
   48.7496    9.5410   13.7917 H   0  0  0  0  0  0  0  0  0  0  0  0
   44.8952    5.1737   11.4019 H   0  0  0  0  0  0  0  0  0  0  0  0
   46.1208    7.7100   13.5452 H   0  0  0  0  0  0  0  0  0  0  0  0
   45.9968    7.7167   11.6435 H   0  0  0  0  0  0  0  0  0  0  0  0
   45.3262    7.8698   13.2889 H   0  0  0  0  0  0  0  0  0  0  0  0
   47.1766    9.2429   12.5986 H   0  0  0  0  0  0  0  0  0  0  0  0
   46.3790    5.9571   14.9304 H   0  0  0  0  0  0  0  0  0  0  0  0
   48.0141    5.4332   14.5564 H   0  0  0  0  0  0  0  0  0  0  0  0
   47.2660    4.1080   12.6338 H   0  0  0  0  0  0  0  0  0  0  0  0
   46.4155    3.6264   14.1171 H   0  0  0  0  0  0  0  0  0  0  0  0
   49.6142    6.4463   13.2638 H   0  0  0  0  0  0  0  0  0  0  0  0
   50.0048    8.0218   13.6286 H   0  0  0  0  0  0  0  0  0  0  0  0
   43.4189    7.2701   11.3507 H   0  0  0  0  0  0  0  0  0  0  0  0
   44.6010    2.6360   12.6732 H   0  0  0  0  0  0  0  0  0  0  0  0
   41.8800    5.4075   10.8568 H   0  0  0  0  0  0  0  0  0  0  0  0
   42.4681    3.0920   11.5139 H   0  0  0  0  0  0  0  0  0  0  0  0
  2  1  1  0
  3  1  1  0
  4  3  1  0
  5  2  2  3
  6  1  1  0
  7  8  1  0
  8  6  1  0
  9  2  1  0
 10  4  2  0
 11  7  2  0
 12 10  1  0
 13 11  1  0
  4  7  1  0
 12 13  2  0
 15 14  2  0
 16 14  2  0
 17 14  1  0
 18 14  1  0
 20 19  1  0
 21 19  1  0
 22 21  1  0
 23 20  2  3
 24 19  1  0
 25 26  1  0
 26 24  1  0
 27 20  1  0
 28 22  2  0
 29 25  2  0
 30 28  1  0
 31 29  1  0
 22 25  1  0
 30 31  2  0
  3 32  1  0
  3 33  1  0
  5 34  1  0
  6 35  1  0
  6 36  1  0
  8 37  1  0
  8 38  1  0
  9 39  1  0
  9 40  1  0
 10 41  1  0
 11 42  1  0
 12 43  1  0
 13 44  1  0
 17 45  1  0
 18 46  1  0
 21 47  1  0
 21 48  1  0
 23 49  1  0
 24 50  1  0
 24 51  1  0
 26 52  1  0
 26 53  1  0
 27 54  1  0
 27 55  1  0
 28 56  1  0
 29 57  1  0
 30 58  1  0
 31 59  1  0
M  END
> <Uni-Dock RESULT> 
ENERGY=   -6.383  LOWER_BOUND=    3.900  UPPER_BOUND=    6.009
INTER + INTRA:          -6.383
INTER:                  -6.383
INTRA:                   0.000
UNBOUND:                 0.000

$$$$

     RDKit          3D

 59 60  0  0  0  0  0  0  0  0999 V2000
   46.6607    7.5845   12.6803 N   0  0  0  0  0  0  0  0  0  0  0  0
   47.3732    8.7002   12.3614 C   0  0  0  0  0  0  0  0  0  0  0  0
   45.2614    7.4176   12.2667 C   0  0  0  0  0  0  0  0  0  0  0  0
   44.7910    5.9746   12.2789 C   0  0  0  0  0  0  0  0  0  0  0  0
   48.6555    8.8052   12.3400 N   0  0  0  0  0  0  0  0  0  0  0  0
   47.0878    6.6862   13.7548 C   0  0  0  0  0  0  0  0  0  0  0  0
   45.5910    4.9344   12.7846 C   0  0  0  0  0  0  0  0  0  0  0  0
   46.9765    5.2353   13.2938 C   0  0  0  0  0  0  0  0  0  0  0  0
   46.6623    9.8008   12.0405 N   0  0  0  0  0  0  0  0  0  0  0  0
   43.5101    5.6715   11.7893 C   0  0  0  0  0  0  0  0  0  0  0  0
   45.1166    3.6152   12.7676 C   0  0  0  0  0  0  0  0  0  0  0  0
   43.0394    4.3581   11.7907 C   0  0  0  0  0  0  0  0  0  0  0  0
   43.8428    3.3309   12.2776 C   0  0  0  0  0  0  0  0  0  0  0  0
   45.5126    6.5349   12.4100 S   0  0  0  0  0  0  0  0  0  0  0  0
   45.2795    7.7909   13.0807 O   0  0  0  0  0  0  0  0  0  0  0  0
   44.5394    5.8987   11.5583 O   0  0  0  0  0  0  0  0  0  0  0  0
   46.8952    6.6752   11.6086 O   0  0  0  0  0  0  0  0  0  0  0  0
   45.9000    5.4506   13.5263 O   0  0  0  0  0  0  0  0  0  0  0  0
   44.8483    5.2391   12.1953 N   0  0  0  0  0  0  0  0  0  0  0  0
   44.1730    4.1041   11.8376 C   0  0  0  0  0  0  0  0  0  0  0  0
   46.1426    5.1355   12.8864 C   0  0  0  0  0  0  0  0  0  0  0  0
   46.8906    6.4483   13.0088 C   0  0  0  0  0  0  0  0  0  0  0  0
   44.5069    2.8794   12.0449 N   0  0  0  0  0  0  0  0  0  0  0  0
   44.1197    6.4804   12.5138 C   0  0  0  0  0  0  0  0  0  0  0  0
   46.3130    7.6724   12.6289 C   0  0  0  0  0  0  0  0  0  0  0  0
   44.9257    7.6917   12.0474 C   0  0  0  0  0  0  0  0  0  0  0  0
   43.0279    4.2923   11.1509 N   0  0  0  0  0  0  0  0  0  0  0  0
   48.1904    6.4447   13.5382 C   0  0  0  0  0  0  0  0  0  0  0  0
   47.0475    8.8602   12.7490 C   0  0  0  0  0  0  0  0  0  0  0  0
   48.9098    7.6330   13.6688 C   0  0  0  0  0  0  0  0  0  0  0  0
   48.3404    8.8389   13.2720 C   0  0  0  0  0  0  0  0  0  0  0  0
   45.1347    7.7978   11.2451 H   0  0  0  0  0  0  0  0  0  0  0  0
   44.6171    7.9973   12.9393 H   0  0  0  0  0  0  0  0  0  0  0  0
   49.0593    7.8885   12.5336 H   0  0  0  0  0  0  0  0  0  0  0  0
   48.1183    6.8801   14.0722 H   0  0  0  0  0  0  0  0  0  0  0  0
   46.4574    6.8584   14.6374 H   0  0  0  0  0  0  0  0  0  0  0  0
   47.6932    5.0420   12.4862 H   0  0  0  0  0  0  0  0  0  0  0  0
   47.2216    4.5747   14.1335 H   0  0  0  0  0  0  0  0  0  0  0  0
   47.3102   10.5739   11.9206 H   0  0  0  0  0  0  0  0  0  0  0  0
   45.9755   10.0363   12.7427 H   0  0  0  0  0  0  0  0  0  0  0  0
   42.8723    6.4607   11.3969 H   0  0  0  0  0  0  0  0  0  0  0  0
   45.7378    2.8022   13.1359 H   0  0  0  0  0  0  0  0  0  0  0  0
   42.0474    4.1352   11.4057 H   0  0  0  0  0  0  0  0  0  0  0  0
   43.4788    2.3069   12.2719 H   0  0  0  0  0  0  0  0  0  0  0  0
   47.5387    7.1186   12.1945 H   0  0  0  0  0  0  0  0  0  0  0  0
   45.2612    4.7119   13.4393 H   0  0  0  0  0  0  0  0  0  0  0  0
   46.7884    4.4433   12.3313 H   0  0  0  0  0  0  0  0  0  0  0  0
   45.9792    4.7323   13.8941 H   0  0  0  0  0  0  0  0  0  0  0  0
   45.3864    2.8251   12.5533 H   0  0  0  0  0  0  0  0  0  0  0  0
   43.9401    6.5253   13.5960 H   0  0  0  0  0  0  0  0  0  0  0  0
   43.1373    6.5290   12.0329 H   0  0  0  0  0  0  0  0  0  0  0  0
   45.0075    7.6906   10.9535 H   0  0  0  0  0  0  0  0  0  0  0  0
   44.4015    8.6060   12.3501 H   0  0  0  0  0  0  0  0  0  0  0  0
   43.1439    4.9376   10.3823 H   0  0  0  0  0  0  0  0  0  0  0  0
   42.7042    3.3914   10.8111 H   0  0  0  0  0  0  0  0  0  0  0  0
   48.6524    5.5109   13.8533 H   0  0  0  0  0  0  0  0  0  0  0  0
   46.6164    9.8083   12.4360 H   0  0  0  0  0  0  0  0  0  0  0  0
   49.9164    7.6166   14.0764 H   0  0  0  0  0  0  0  0  0  0  0  0
   48.9035    9.7639   13.3678 H   0  0  0  0  0  0  0  0  0  0  0  0
  2  1  1  0
  3  1  1  0
  4  3  1  0
  5  2  2  3
  6  1  1  0
  7  8  1  0
  8  6  1  0
  9  2  1  0
 10  4  2  0
 11  7  2  0
 12 10  1  0
 13 11  1  0
  4  7  1  0
 12 13  2  0
 15 14  2  0
 16 14  2  0
 17 14  1  0
 18 14  1  0
 20 19  1  0
 21 19  1  0
 22 21  1  0
 23 20  2  3
 24 19  1  0
 25 26  1  0
 26 24  1  0
 27 20  1  0
 28 22  2  0
 29 25  2  0
 30 28  1  0
 31 29  1  0
 22 25  1  0
 30 31  2  0
  3 32  1  0
  3 33  1  0
  5 34  1  0
  6 35  1  0
  6 36  1  0
  8 37  1  0
  8 38  1  0
  9 39  1  0
  9 40  1  0
 10 41  1  0
 11 42  1  0
 12 43  1  0
 13 44  1  0
 17 45  1  0
 18 46  1  0
 21 47  1  0
 21 48  1  0
 23 49  1  0
 24 50  1  0
 24 51  1  0
 26 52  1  0
 26 53  1  0
 27 54  1  0
 27 55  1  0
 28 56  1  0
 29 57  1  0
 30 58  1  0
 31 59  1  0
M  END
> <Uni-Dock RESULT> 
ENERGY=   -6.196  LOWER_BOUND=    4.056  UPPER_BOUND=    5.630
INTER + INTRA:          -6.196
INTER:                  -6.196
INTRA:                   0.000
UNBOUND:                 0.000

$$$$

     RDKit          3D

 59 60  0  0  0  0  0  0  0  0999 V2000
   49.3945    4.3449   17.8594 N   0  0  0  0  0  0  0  0  0  0  0  0
   48.4239    5.1862   18.3114 C   0  0  0  0  0  0  0  0  0  0  0  0
   50.8180    4.5998   18.1157 C   0  0  0  0  0  0  0  0  0  0  0  0
   51.6921    3.3671   17.9755 C   0  0  0  0  0  0  0  0  0  0  0  0
   47.1800    4.8983   18.4717 N   0  0  0  0  0  0  0  0  0  0  0  0
   49.1331    3.3823   16.7876 C   0  0  0  0  0  0  0  0  0  0  0  0
   51.1855    2.1446   17.4994 C   0  0  0  0  0  0  0  0  0  0  0  0
   49.7242    2.0234   17.1543 C   0  0  0  0  0  0  0  0  0  0  0  0
   48.8068    6.4431   18.6165 N   0  0  0  0  0  0  0  0  0  0  0  0
   53.0528    3.4549   18.3120 C   0  0  0  0  0  0  0  0  0  0  0  0
   52.0300    1.0304   17.3947 C   0  0  0  0  0  0  0  0  0  0  0  0
   53.8899    2.3455   18.1896 C   0  0  0  0  0  0  0  0  0  0  0  0
   53.3783    1.1340   17.7333 C   0  0  0  0  0  0  0  0  0  0  0  0
   50.8263    3.6858   17.9510 S   0  0  0  0  0  0  0  0  0  0  0  0
   50.5955    4.9672   17.3297 O   0  0  0  0  0  0  0  0  0  0  0  0
   52.0365    3.3556   18.6609 O   0  0  0  0  0  0  0  0  0  0  0  0
   49.5671    3.3848   18.8983 O   0  0  0  0  0  0  0  0  0  0  0  0
   50.6532    2.5587   16.8233 O   0  0  0  0  0  0  0  0  0  0  0  0
   51.8666    2.6471   18.0241 N   0  0  0  0  0  0  0  0  0  0  0  0
   52.8860    1.7619   18.2470 C   0  0  0  0  0  0  0  0  0  0  0  0
   50.5911    2.1717   17.4667 C   0  0  0  0  0  0  0  0  0  0  0  0
   49.4772    3.1995   17.4948 C   0  0  0  0  0  0  0  0  0  0  0  0
   52.9104    0.4982   18.0087 N   0  0  0  0  0  0  0  0  0  0  0  0
   52.1505    4.0568   17.7002 C   0  0  0  0  0  0  0  0  0  0  0  0
   49.7038    4.5326   17.8792 C   0  0  0  0  0  0  0  0  0  0  0  0
   51.0798    4.9579   18.3136 C   0  0  0  0  0  0  0  0  0  0  0  0
   53.9943    2.2728   18.8202 N   0  0  0  0  0  0  0  0  0  0  0  0
   48.1854    2.8144   17.1040 C   0  0  0  0  0  0  0  0  0  0  0  0
   48.6400    5.4452   17.9014 C   0  0  0  0  0  0  0  0  0  0  0  0
   47.1346    3.7323   17.1143 C   0  0  0  0  0  0  0  0  0  0  0  0
   47.3608    5.0452   17.5153 C   0  0  0  0  0  0  0  0  0  0  0  0
   50.9429    4.9791   19.1378 H   0  0  0  0  0  0  0  0  0  0  0  0
   51.1780    5.3612   17.4126 H   0  0  0  0  0  0  0  0  0  0  0  0
   47.0480    3.9067   18.2711 H   0  0  0  0  0  0  0  0  0  0  0  0
   48.0622    3.2623   16.5901 H   0  0  0  0  0  0  0  0  0  0  0  0
   49.5772    3.7554   15.8550 H   0  0  0  0  0  0  0  0  0  0  0  0
   49.1959    1.6057   18.0201 H   0  0  0  0  0  0  0  0  0  0  0  0
   49.5915    1.3374   16.3097 H   0  0  0  0  0  0  0  0  0  0  0  0
   47.9764    6.9816   18.8453 H   0  0  0  0  0  0  0  0  0  0  0  0
   49.3062    6.8898   17.8607 H   0  0  0  0  0  0  0  0  0  0  0  0
   53.4674    4.3915   18.6787 H   0  0  0  0  0  0  0  0  0  0  0  0
   51.6409    0.0756   17.0489 H   0  0  0  0  0  0  0  0  0  0  0  0
   54.9408    2.4247   18.4567 H   0  0  0  0  0  0  0  0  0  0  0  0
   54.0289    0.2680   17.6451 H   0  0  0  0  0  0  0  0  0  0  0  0
   48.7575    3.6254   18.4076 H   0  0  0  0  0  0  0  0  0  0  0  0
   51.4885    2.0460   16.8028 H   0  0  0  0  0  0  0  0  0  0  0  0
   50.2496    1.3053   18.0471 H   0  0  0  0  0  0  0  0  0  0  0  0
   50.7496    1.8580   16.4269 H   0  0  0  0  0  0  0  0  0  0  0  0
   52.0344    0.1913   17.5922 H   0  0  0  0  0  0  0  0  0  0  0  0
   52.1821    4.1766   16.6093 H   0  0  0  0  0  0  0  0  0  0  0  0
   53.1224    4.3899   18.0783 H   0  0  0  0  0  0  0  0  0  0  0  0
   51.1291    4.9092   19.4083 H   0  0  0  0  0  0  0  0  0  0  0  0
   51.2691    5.9941   18.0086 H   0  0  0  0  0  0  0  0  0  0  0  0
   53.7811    2.8366   19.6310 H   0  0  0  0  0  0  0  0  0  0  0  0
   54.6088    1.5049   19.0746 H   0  0  0  0  0  0  0  0  0  0  0  0
   47.9893    1.7914   16.7879 H   0  0  0  0  0  0  0  0  0  0  0  0
   48.8023    6.4724   18.2194 H   0  0  0  0  0  0  0  0  0  0  0  0
   46.1385    3.4210   16.8132 H   0  0  0  0  0  0  0  0  0  0  0  0
   46.5406    5.7586   17.5294 H   0  0  0  0  0  0  0  0  0  0  0  0
  2  1  1  0
  3  1  1  0
  4  3  1  0
  5  2  2  3
  6  1  1  0
  7  8  1  0
  8  6  1  0
  9  2  1  0
 10  4  2  0
 11  7  2  0
 12 10  1  0
 13 11  1  0
  4  7  1  0
 12 13  2  0
 15 14  2  0
 16 14  2  0
 17 14  1  0
 18 14  1  0
 20 19  1  0
 21 19  1  0
 22 21  1  0
 23 20  2  3
 24 19  1  0
 25 26  1  0
 26 24  1  0
 27 20  1  0
 28 22  2  0
 29 25  2  0
 30 28  1  0
 31 29  1  0
 22 25  1  0
 30 31  2  0
  3 32  1  0
  3 33  1  0
  5 34  1  0
  6 35  1  0
  6 36  1  0
  8 37  1  0
  8 38  1  0
  9 39  1  0
  9 40  1  0
 10 41  1  0
 11 42  1  0
 12 43  1  0
 13 44  1  0
 17 45  1  0
 18 46  1  0
 21 47  1  0
 21 48  1  0
 23 49  1  0
 24 50  1  0
 24 51  1  0
 26 52  1  0
 26 53  1  0
 27 54  1  0
 27 55  1  0
 28 56  1  0
 29 57  1  0
 30 58  1  0
 31 59  1  0
M  END
> <Uni-Dock RESULT> 
ENERGY=   -5.915  LOWER_BOUND=    9.540  UPPER_BOUND=   10.452
INTER + INTRA:          -5.915
INTER:                  -5.915
INTRA:                   0.000
UNBOUND:                 0.000

$$$$

     RDKit          3D

 59 60  0  0  0  0  0  0  0  0999 V2000
   46.7323    7.6767   12.8944 N   0  0  0  0  0  0  0  0  0  0  0  0
   46.9485    6.5710   13.6591 C   0  0  0  0  0  0  0  0  0  0  0  0
   45.3995    8.0064   12.3731 C   0  0  0  0  0  0  0  0  0  0  0  0
   45.2452    9.4624   11.9735 C   0  0  0  0  0  0  0  0  0  0  0  0
   47.9426    6.3756   14.4525 N   0  0  0  0  0  0  0  0  0  0  0  0
   47.8347    8.3716   12.2269 C   0  0  0  0  0  0  0  0  0  0  0  0
   46.3328   10.3540   11.9721 C   0  0  0  0  0  0  0  0  0  0  0  0
   47.6907    9.8791   12.4190 C   0  0  0  0  0  0  0  0  0  0  0  0
   46.0312    5.5859   13.5712 N   0  0  0  0  0  0  0  0  0  0  0  0
   43.9823    9.9290   11.5735 C   0  0  0  0  0  0  0  0  0  0  0  0
   46.1398   11.6926   11.6027 C   0  0  0  0  0  0  0  0  0  0  0  0
   43.8023   11.2588   11.1920 C   0  0  0  0  0  0  0  0  0  0  0  0
   44.8797   12.1401   11.2085 C   0  0  0  0  0  0  0  0  0  0  0  0
   45.8142    8.8370   12.3434 S   0  0  0  0  0  0  0  0  0  0  0  0
   45.8353    7.5162   11.7631 O   0  0  0  0  0  0  0  0  0  0  0  0
   44.6339    9.6628   12.3914 O   0  0  0  0  0  0  0  0  0  0  0  0
   46.4263    8.7150   13.8212 O   0  0  0  0  0  0  0  0  0  0  0  0
   46.9369    9.7121   11.6047 O   0  0  0  0  0  0  0  0  0  0  0  0
   45.3507   10.1959   12.0194 N   0  0  0  0  0  0  0  0  0  0  0  0
   44.7709   11.4183   11.8150 C   0  0  0  0  0  0  0  0  0  0  0  0
   46.8023   10.0997   12.2365 C   0  0  0  0  0  0  0  0  0  0  0  0
   47.2760    8.7315   12.6854 C   0  0  0  0  0  0  0  0  0  0  0  0
   45.3396   12.5706   11.7583 N   0  0  0  0  0  0  0  0  0  0  0  0
   44.7728    8.9786   11.4218 C   0  0  0  0  0  0  0  0  0  0  0  0
   46.4120    7.6234   12.7337 C   0  0  0  0  0  0  0  0  0  0  0  0
   44.9630    7.7935   12.3672 C   0  0  0  0  0  0  0  0  0  0  0  0
   43.4283   11.4195   11.6901 N   0  0  0  0  0  0  0  0  0  0  0  0
   48.6225    8.5602   13.0422 C   0  0  0  0  0  0  0  0  0  0  0  0
   46.8922    6.3799   13.1670 C   0  0  0  0  0  0  0  0  0  0  0  0
   49.0966    7.3157   13.4581 C   0  0  0  0  0  0  0  0  0  0  0  0
   48.2320    6.2275   13.5234 C   0  0  0  0  0  0  0  0  0  0  0  0
   44.6442    7.7923   13.1398 H   0  0  0  0  0  0  0  0  0  0  0  0
   45.1939    7.3827   11.4943 H   0  0  0  0  0  0  0  0  0  0  0  0
   48.5134    7.2210   14.4716 H   0  0  0  0  0  0  0  0  0  0  0  0
   48.8133    8.0570   12.6060 H   0  0  0  0  0  0  0  0  0  0  0  0
   47.8234    8.1177   11.1585 H   0  0  0  0  0  0  0  0  0  0  0  0
   47.8179   10.1364   13.4778 H   0  0  0  0  0  0  0  0  0  0  0  0
   48.4754   10.3879   11.8473 H   0  0  0  0  0  0  0  0  0  0  0  0
   46.3631    4.7932   14.1129 H   0  0  0  0  0  0  0  0  0  0  0  0
   45.8600    5.3004   12.6175 H   0  0  0  0  0  0  0  0  0  0  0  0
   43.1275    9.2561   11.5631 H   0  0  0  0  0  0  0  0  0  0  0  0
   46.9709   12.3937   11.6206 H   0  0  0  0  0  0  0  0  0  0  0  0
   42.8192   11.6092   10.8877 H   0  0  0  0  0  0  0  0  0  0  0  0
   44.7376   13.1777   10.9184 H   0  0  0  0  0  0  0  0  0  0  0  0
   47.2167    8.1431   13.7730 H   0  0  0  0  0  0  0  0  0  0  0  0
   46.4861   10.5008   11.2360 H   0  0  0  0  0  0  0  0  0  0  0  0
   47.0945   10.8167   13.0142 H   0  0  0  0  0  0  0  0  0  0  0  0
   47.3216   10.3601   11.3053 H   0  0  0  0  0  0  0  0  0  0  0  0
   46.3463   12.4836   11.8760 H   0  0  0  0  0  0  0  0  0  0  0  0
   45.2565    8.7872   10.4550 H   0  0  0  0  0  0  0  0  0  0  0  0
   43.7010    9.0748   11.2200 H   0  0  0  0  0  0  0  0  0  0  0  0
   44.3879    7.9507   13.2880 H   0  0  0  0  0  0  0  0  0  0  0  0
   44.5871    6.8857   11.8802 H   0  0  0  0  0  0  0  0  0  0  0  0
   42.9752   10.8884   12.4205 H   0  0  0  0  0  0  0  0  0  0  0  0
   43.1046   12.3822   11.6996 H   0  0  0  0  0  0  0  0  0  0  0  0
   49.3133    9.4002   12.9981 H   0  0  0  0  0  0  0  0  0  0  0  0
   46.2250    5.5233   13.2290 H   0  0  0  0  0  0  0  0  0  0  0  0
   50.1400    7.1968   13.7352 H   0  0  0  0  0  0  0  0  0  0  0  0
   48.6002    5.2593   13.8537 H   0  0  0  0  0  0  0  0  0  0  0  0
  2  1  1  0
  3  1  1  0
  4  3  1  0
  5  2  2  3
  6  1  1  0
  7  8  1  0
  8  6  1  0
  9  2  1  0
 10  4  2  0
 11  7  2  0
 12 10  1  0
 13 11  1  0
  4  7  1  0
 12 13  2  0
 15 14  2  0
 16 14  2  0
 17 14  1  0
 18 14  1  0
 20 19  1  0
 21 19  1  0
 22 21  1  0
 23 20  2  3
 24 19  1  0
 25 26  1  0
 26 24  1  0
 27 20  1  0
 28 22  2  0
 29 25  2  0
 30 28  1  0
 31 29  1  0
 22 25  1  0
 30 31  2  0
  3 32  1  0
  3 33  1  0
  5 34  1  0
  6 35  1  0
  6 36  1  0
  8 37  1  0
  8 38  1  0
  9 39  1  0
  9 40  1  0
 10 41  1  0
 11 42  1  0
 12 43  1  0
 13 44  1  0
 17 45  1  0
 18 46  1  0
 21 47  1  0
 21 48  1  0
 23 49  1  0
 24 50  1  0
 24 51  1  0
 26 52  1  0
 26 53  1  0
 27 54  1  0
 27 55  1  0
 28 56  1  0
 29 57  1  0
 30 58  1  0
 31 59  1  0
M  END
> <Uni-Dock RESULT> 
ENERGY=   -5.203  LOWER_BOUND=    5.811  UPPER_BOUND=    7.861
INTER + INTRA:          -5.203
INTER:                  -5.203
INTRA:                   0.000
UNBOUND:                 0.000

$$$$

     RDKit          3D

 59 60  0  0  0  0  0  0  0  0999 V2000
   47.7204    9.4223   19.3660 N   0  0  0  0  0  0  0  0  0  0  0  0
   48.0847   10.3737   18.4625 C   0  0  0  0  0  0  0  0  0  0  0  0
   47.8497    7.9891   19.0725 C   0  0  0  0  0  0  0  0  0  0  0  0
   47.8616    7.1127   20.3116 C   0  0  0  0  0  0  0  0  0  0  0  0
   48.3607   11.6038   18.7206 N   0  0  0  0  0  0  0  0  0  0  0  0
   46.8358    9.7348   20.4901 C   0  0  0  0  0  0  0  0  0  0  0  0
   47.6201    7.6339   21.5953 C   0  0  0  0  0  0  0  0  0  0  0  0
   47.3836    9.1112   21.7712 C   0  0  0  0  0  0  0  0  0  0  0  0
   48.1593    9.9861   17.1726 N   0  0  0  0  0  0  0  0  0  0  0  0
   48.1008    5.7360   20.1701 C   0  0  0  0  0  0  0  0  0  0  0  0
   47.6494    6.7862   22.7116 C   0  0  0  0  0  0  0  0  0  0  0  0
   48.1123    4.8968   21.2845 C   0  0  0  0  0  0  0  0  0  0  0  0
   47.8888    5.4219   22.5541 C   0  0  0  0  0  0  0  0  0  0  0  0
   47.8354    7.9815   20.0012 S   0  0  0  0  0  0  0  0  0  0  0  0
   47.0285    8.2592   18.8379 O   0  0  0  0  0  0  0  0  0  0  0  0
   48.5188    6.7300   20.2114 O   0  0  0  0  0  0  0  0  0  0  0  0
   48.8896    9.1822   20.1443 O   0  0  0  0  0  0  0  0  0  0  0  0
   46.9174    8.2075   21.2967 O   0  0  0  0  0  0  0  0  0  0  0  0
   48.0164    6.9290   21.0141 N   0  0  0  0  0  0  0  0  0  0  0  0
   48.3211    5.8903   21.8511 C   0  0  0  0  0  0  0  0  0  0  0  0
   47.6176    8.2294   21.5739 C   0  0  0  0  0  0  0  0  0  0  0  0
   47.5424    9.3496   20.5554 C   0  0  0  0  0  0  0  0  0  0  0  0
   48.2901    5.8675   23.1368 N   0  0  0  0  0  0  0  0  0  0  0  0
   47.4521    6.6772   19.6757 C   0  0  0  0  0  0  0  0  0  0  0  0
   47.6916    9.1142   19.1774 C   0  0  0  0  0  0  0  0  0  0  0  0
   47.9715    7.7200   18.6870 C   0  0  0  0  0  0  0  0  0  0  0  0
   48.7393    4.7562   21.2537 N   0  0  0  0  0  0  0  0  0  0  0  0
   47.2941   10.6578   20.9990 C   0  0  0  0  0  0  0  0  0  0  0  0
   47.6264   10.1836   18.2736 C   0  0  0  0  0  0  0  0  0  0  0  0
   47.2154   11.7149   20.0919 C   0  0  0  0  0  0  0  0  0  0  0  0
   47.3843   11.4788   18.7311 C   0  0  0  0  0  0  0  0  0  0  0  0
   48.7878    7.8101   18.5321 H   0  0  0  0  0  0  0  0  0  0  0  0
   47.0129    7.6766   18.4356 H   0  0  0  0  0  0  0  0  0  0  0  0
   48.3316   11.7375   19.7317 H   0  0  0  0  0  0  0  0  0  0  0  0
   46.7222   10.8141   20.6406 H   0  0  0  0  0  0  0  0  0  0  0  0
   45.8311    9.3478   20.2735 H   0  0  0  0  0  0  0  0  0  0  0  0
   48.3347    9.5856   22.0426 H   0  0  0  0  0  0  0  0  0  0  0  0
   46.6706    9.2849   22.5853 H   0  0  0  0  0  0  0  0  0  0  0  0
   48.3448   10.8073   16.6041 H   0  0  0  0  0  0  0  0  0  0  0  0
   47.3136    9.5345   16.8547 H   0  0  0  0  0  0  0  0  0  0  0  0
   48.2861    5.3102   19.1862 H   0  0  0  0  0  0  0  0  0  0  0  0
   47.4861    7.1852   23.7099 H   0  0  0  0  0  0  0  0  0  0  0  0
   48.3022    3.8333   21.1628 H   0  0  0  0  0  0  0  0  0  0  0  0
   47.9051    4.7692   23.4229 H   0  0  0  0  0  0  0  0  0  0  0  0
   48.4137   10.0205   19.9868 H   0  0  0  0  0  0  0  0  0  0  0  0
   46.9325    7.3698   21.8059 H   0  0  0  0  0  0  0  0  0  0  0  0
   48.3496    8.5294   22.3344 H   0  0  0  0  0  0  0  0  0  0  0  0
   46.6352    8.1271   22.0525 H   0  0  0  0  0  0  0  0  0  0  0  0
   47.9799    6.7627   23.5074 H   0  0  0  0  0  0  0  0  0  0  0  0
   46.3562    6.7085   19.7349 H   0  0  0  0  0  0  0  0  0  0  0  0
   47.7148    5.6886   19.2855 H   0  0  0  0  0  0  0  0  0  0  0  0
   49.0550    7.6083   18.5570 H   0  0  0  0  0  0  0  0  0  0  0  0
   47.4920    7.5579   17.7142 H   0  0  0  0  0  0  0  0  0  0  0  0
   49.4586    4.9285   20.5655 H   0  0  0  0  0  0  0  0  0  0  0  0
   49.0793    4.1211   21.9699 H   0  0  0  0  0  0  0  0  0  0  0  0
   47.1600   10.8617   22.0598 H   0  0  0  0  0  0  0  0  0  0  0  0
   47.7635   10.0132   17.2083 H   0  0  0  0  0  0  0  0  0  0  0  0
   47.0265   12.7234   20.4480 H   0  0  0  0  0  0  0  0  0  0  0  0
   47.3294   12.3036   18.0250 H   0  0  0  0  0  0  0  0  0  0  0  0
  2  1  1  0
  3  1  1  0
  4  3  1  0
  5  2  2  3
  6  1  1  0
  7  8  1  0
  8  6  1  0
  9  2  1  0
 10  4  2  0
 11  7  2  0
 12 10  1  0
 13 11  1  0
  4  7  1  0
 12 13  2  0
 15 14  2  0
 16 14  2  0
 17 14  1  0
 18 14  1  0
 20 19  1  0
 21 19  1  0
 22 21  1  0
 23 20  2  3
 24 19  1  0
 25 26  1  0
 26 24  1  0
 27 20  1  0
 28 22  2  0
 29 25  2  0
 30 28  1  0
 31 29  1  0
 22 25  1  0
 30 31  2  0
  3 32  1  0
  3 33  1  0
  5 34  1  0
  6 35  1  0
  6 36  1  0
  8 37  1  0
  8 38  1  0
  9 39  1  0
  9 40  1  0
 10 41  1  0
 11 42  1  0
 12 43  1  0
 13 44  1  0
 17 45  1  0
 18 46  1  0
 21 47  1  0
 21 48  1  0
 23 49  1  0
 24 50  1  0
 24 51  1  0
 26 52  1  0
 26 53  1  0
 27 54  1  0
 27 55  1  0
 28 56  1  0
 29 57  1  0
 30 58  1  0
 31 59  1  0
M  END
> <Uni-Dock RESULT> 
ENERGY=   -4.957  LOWER_BOUND=   11.263  UPPER_BOUND=   12.978
INTER + INTRA:          -4.957
INTER:                  -4.957
INTRA:                   0.000
UNBOUND:                 0.000

$$$$
