
     RDKit          3D

 59 60  0  0  0  0  0  0  0  0999 V2000
   44.8234    5.0118   11.7289 N   0  0  0  0  0  0  0  0  0  0  0  0
   43.8757    4.4734   10.9053 C   0  0  0  0  0  0  0  0  0  0  0  0
   45.7737    5.9930   11.1802 C   0  0  0  0  0  0  0  0  0  0  0  0
   46.8863    6.4009   12.1249 C   0  0  0  0  0  0  0  0  0  0  0  0
   44.0455    4.1022    9.6848 N   0  0  0  0  0  0  0  0  0  0  0  0
   44.6381    5.0745   13.1837 C   0  0  0  0  0  0  0  0  0  0  0  0
   46.9857    5.8819   13.4255 C   0  0  0  0  0  0  0  0  0  0  0  0
   45.9728    4.8779   13.8995 C   0  0  0  0  0  0  0  0  0  0  0  0
   42.6368    4.3235   11.4173 N   0  0  0  0  0  0  0  0  0  0  0  0
   47.8475    7.3271   11.6864 C   0  0  0  0  0  0  0  0  0  0  0  0
   48.0485    6.2660   14.2546 C   0  0  0  0  0  0  0  0  0  0  0  0
   48.8947    7.7168   12.5223 C   0  0  0  0  0  0  0  0  0  0  0  0
   48.9962    7.1838   13.8045 C   0  0  0  0  0  0  0  0  0  0  0  0
   45.9993    6.1090   12.1035 S   0  0  0  0  0  0  0  0  0  0  0  0
   47.2704    6.6955   11.7628 O   0  0  0  0  0  0  0  0  0  0  0  0
   44.7330    6.6093   11.6320 O   0  0  0  0  0  0  0  0  0  0  0  0
   46.0422    4.5545   11.7100 O   0  0  0  0  0  0  0  0  0  0  0  0
   45.9495    6.0238   13.7051 O   0  0  0  0  0  0  0  0  0  0  0  0
   46.7129    6.7735   13.2156 N   0  0  0  0  0  0  0  0  0  0  0  0
   47.2365    7.9254   13.7353 C   0  0  0  0  0  0  0  0  0  0  0  0
   46.1626    6.8198   11.8441 C   0  0  0  0  0  0  0  0  0  0  0  0
   45.4823    5.5384   11.4014 C   0  0  0  0  0  0  0  0  0  0  0  0
   48.3386    8.0779   14.3782 N   0  0  0  0  0  0  0  0  0  0  0  0
   47.2706    5.4675   13.5834 C   0  0  0  0  0  0  0  0  0  0  0  0
   45.5081    4.3726   12.1837 C   0  0  0  0  0  0  0  0  0  0  0  0
   46.1865    4.3930   13.5252 C   0  0  0  0  0  0  0  0  0  0  0  0
   46.4657    9.0208   13.5725 N   0  0  0  0  0  0  0  0  0  0  0  0
   44.8259    5.5100   10.1602 C   0  0  0  0  0  0  0  0  0  0  0  0
   44.8590    3.2136   11.7365 C   0  0  0  0  0  0  0  0  0  0  0  0
   44.1930    4.3489    9.7151 C   0  0  0  0  0  0  0  0  0  0  0  0
   44.2084    3.2021   10.5038 C   0  0  0  0  0  0  0  0  0  0  0  0
   46.2514    5.5862   10.2817 H   0  0  0  0  0  0  0  0  0  0  0  0
   45.2158    6.8940   10.8942 H   0  0  0  0  0  0  0  0  0  0  0  0
   45.0307    4.2009    9.4413 H   0  0  0  0  0  0  0  0  0  0  0  0
   43.9614    4.2854   13.5329 H   0  0  0  0  0  0  0  0  0  0  0  0
   44.1868    6.0382   13.4531 H   0  0  0  0  0  0  0  0  0  0  0  0
   45.8149    4.9790   14.9798 H   0  0  0  0  0  0  0  0  0  0  0  0
   46.3627    3.8712   13.7055 H   0  0  0  0  0  0  0  0  0  0  0  0
   42.0139    4.0239   10.6729 H   0  0  0  0  0  0  0  0  0  0  0  0
   42.2878    5.1688   11.8474 H   0  0  0  0  0  0  0  0  0  0  0  0
   47.7883    7.7458   10.6838 H   0  0  0  0  0  0  0  0  0  0  0  0
   48.1426    5.8522   15.2558 H   0  0  0  0  0  0  0  0  0  0  0  0
   49.6340    8.4320   12.1709 H   0  0  0  0  0  0  0  0  0  0  0  0
   49.8159    7.4813   14.4538 H   0  0  0  0  0  0  0  0  0  0  0  0
   45.1171    4.2759   11.5438 H   0  0  0  0  0  0  0  0  0  0  0  0
   46.8700    5.8990   14.0173 H   0  0  0  0  0  0  0  0  0  0  0  0
   45.4198    7.6228   11.7674 H   0  0  0  0  0  0  0  0  0  0  0  0
   46.9799    7.0364   11.1440 H   0  0  0  0  0  0  0  0  0  0  0  0
   48.8432    7.1944   14.4212 H   0  0  0  0  0  0  0  0  0  0  0  0
   47.6583    5.4836   14.6092 H   0  0  0  0  0  0  0  0  0  0  0  0
   48.1071    5.2202   12.9169 H   0  0  0  0  0  0  0  0  0  0  0  0
   45.4258    4.5860   14.2923 H   0  0  0  0  0  0  0  0  0  0  0  0
   46.6406    3.4177   13.7369 H   0  0  0  0  0  0  0  0  0  0  0  0
   46.8450    9.7751   14.1361 H   0  0  0  0  0  0  0  0  0  0  0  0
   45.5010    8.8402   13.8212 H   0  0  0  0  0  0  0  0  0  0  0  0
   44.8029    6.3988    9.5328 H   0  0  0  0  0  0  0  0  0  0  0  0
   44.8600    2.3130   12.3454 H   0  0  0  0  0  0  0  0  0  0  0  0
   43.6863    4.3411    8.7537 H   0  0  0  0  0  0  0  0  0  0  0  0
   43.7113    2.2989   10.1596 H   0  0  0  0  0  0  0  0  0  0  0  0
  2  1  1  0
  3  1  1  0
  4  3  1  0
  5  2  2  3
  6  1  1  0
  7  8  1  0
  8  6  1  0
  9  2  1  0
 10  4  2  0
 11  7  2  0
 12 10  1  0
 13 11  1  0
  4  7  1  0
 12 13  2  0
 15 14  2  0
 16 14  2  0
 17 14  1  0
 18 14  1  0
 20 19  1  0
 21 19  1  0
 22 21  1  0
 23 20  2  3
 24 19  1  0
 25 26  1  0
 26 24  1  0
 27 20  1  0
 28 22  2  0
 29 25  2  0
 30 28  1  0
 31 29  1  0
 22 25  1  0
 30 31  2  0
  3 32  1  0
  3 33  1  0
  5 34  1  0
  6 35  1  0
  6 36  1  0
  8 37  1  0
  8 38  1  0
  9 39  1  0
  9 40  1  0
 10 41  1  0
 11 42  1  0
 12 43  1  0
 13 44  1  0
 17 45  1  0
 18 46  1  0
 21 47  1  0
 21 48  1  0
 23 49  1  0
 24 50  1  0
 24 51  1  0
 26 52  1  0
 26 53  1  0
 27 54  1  0
 27 55  1  0
 28 56  1  0
 29 57  1  0
 30 58  1  0
 31 59  1  0
M  END
> <Uni-Dock RESULT> 
ENERGY=   -5.768  LOWER_BOUND=    0.000  UPPER_BOUND=    0.000
INTER + INTRA:          -5.768
INTER:                  -5.768
INTRA:                   0.000
UNBOUND:                 0.000

$$$$

     RDKit          3D

 59 60  0  0  0  0  0  0  0  0999 V2000
   44.9649    5.4791   12.0320 N   0  0  0  0  0  0  0  0  0  0  0  0
   44.1326    4.4482   11.6995 C   0  0  0  0  0  0  0  0  0  0  0  0
   46.0396    5.2437   13.0101 C   0  0  0  0  0  0  0  0  0  0  0  0
   46.7966    6.4851   13.4374 C   0  0  0  0  0  0  0  0  0  0  0  0
   43.6426    3.5714   12.5042 N   0  0  0  0  0  0  0  0  0  0  0  0
   45.1849    6.6168   11.1309 C   0  0  0  0  0  0  0  0  0  0  0  0
   46.4922    7.7558   12.9241 C   0  0  0  0  0  0  0  0  0  0  0  0
   45.3721    7.9030   11.9329 C   0  0  0  0  0  0  0  0  0  0  0  0
   43.7972    4.3305   10.3983 N   0  0  0  0  0  0  0  0  0  0  0  0
   47.8353    6.3610   14.3753 C   0  0  0  0  0  0  0  0  0  0  0  0
   47.2000    8.8804   13.3699 C   0  0  0  0  0  0  0  0  0  0  0  0
   48.5462    7.4827   14.8038 C   0  0  0  0  0  0  0  0  0  0  0  0
   48.2261    8.7418   14.3031 C   0  0  0  0  0  0  0  0  0  0  0  0
   46.3250    6.1114   12.7230 S   0  0  0  0  0  0  0  0  0  0  0  0
   47.1131    6.2931   13.9153 O   0  0  0  0  0  0  0  0  0  0  0  0
   46.4794    4.9982   11.8213 O   0  0  0  0  0  0  0  0  0  0  0  0
   44.7754    6.1425   13.1361 O   0  0  0  0  0  0  0  0  0  0  0  0
   46.4502    7.4713   11.8804 O   0  0  0  0  0  0  0  0  0  0  0  0
   47.2696    7.2492   12.6951 N   0  0  0  0  0  0  0  0  0  0  0  0
   48.5654    7.6838   12.7485 C   0  0  0  0  0  0  0  0  0  0  0  0
   47.0121    5.8096   12.9126 C   0  0  0  0  0  0  0  0  0  0  0  0
   45.5684    5.3952   12.7010 C   0  0  0  0  0  0  0  0  0  0  0  0
   49.0320    8.7199   13.3487 N   0  0  0  0  0  0  0  0  0  0  0  0
   46.1722    8.1175   13.1352 C   0  0  0  0  0  0  0  0  0  0  0  0
   44.5516    6.3334   12.4607 C   0  0  0  0  0  0  0  0  0  0  0  0
   44.8964    7.7933   12.3602 C   0  0  0  0  0  0  0  0  0  0  0  0
   49.4422    6.9359   12.0466 N   0  0  0  0  0  0  0  0  0  0  0  0
   45.2341    4.0330   12.7704 C   0  0  0  0  0  0  0  0  0  0  0  0
   43.2324    5.9027   12.2641 C   0  0  0  0  0  0  0  0  0  0  0  0
   43.9166    3.6122   12.5868 C   0  0  0  0  0  0  0  0  0  0  0  0
   42.9169    4.5467   12.3322 C   0  0  0  0  0  0  0  0  0  0  0  0
   45.6235    4.7952   13.9194 H   0  0  0  0  0  0  0  0  0  0  0  0
   46.7559    4.5351   12.5747 H   0  0  0  0  0  0  0  0  0  0  0  0
   43.9117    3.8090   13.4585 H   0  0  0  0  0  0  0  0  0  0  0  0
   44.3265    6.7692   10.4658 H   0  0  0  0  0  0  0  0  0  0  0  0
   46.0600    6.4179   10.4988 H   0  0  0  0  0  0  0  0  0  0  0  0
   45.5840    8.7260   11.2400 H   0  0  0  0  0  0  0  0  0  0  0  0
   44.4528    8.1466   12.4794 H   0  0  0  0  0  0  0  0  0  0  0  0
   43.2752    3.4678   10.2762 H   0  0  0  0  0  0  0  0  0  0  0  0
   44.6011    4.3433    9.7858 H   0  0  0  0  0  0  0  0  0  0  0  0
   48.0917    5.3856   14.7838 H   0  0  0  0  0  0  0  0  0  0  0  0
   46.9554    9.8701   12.9914 H   0  0  0  0  0  0  0  0  0  0  0  0
   49.3459    7.3746   15.5319 H   0  0  0  0  0  0  0  0  0  0  0  0
   48.7745    9.6173   14.6419 H   0  0  0  0  0  0  0  0  0  0  0  0
   44.2889    5.6244   12.4609 H   0  0  0  0  0  0  0  0  0  0  0  0
   46.5650    8.2013   12.5240 H   0  0  0  0  0  0  0  0  0  0  0  0
   47.6233    5.2135   12.2245 H   0  0  0  0  0  0  0  0  0  0  0  0
   47.2979    5.5524   13.9408 H   0  0  0  0  0  0  0  0  0  0  0  0
   48.2882    9.1923   13.8592 H   0  0  0  0  0  0  0  0  0  0  0  0
   46.4088    9.1716   12.9463 H   0  0  0  0  0  0  0  0  0  0  0  0
   46.0175    8.0012   14.2158 H   0  0  0  0  0  0  0  0  0  0  0  0
   45.0282    8.0433   11.2998 H   0  0  0  0  0  0  0  0  0  0  0  0
   44.0763    8.4060   12.7529 H   0  0  0  0  0  0  0  0  0  0  0  0
   50.3288    7.4280   11.9999 H   0  0  0  0  0  0  0  0  0  0  0  0
   49.0987    6.7308   11.1165 H   0  0  0  0  0  0  0  0  0  0  0  0
   46.0044    3.2898   12.9664 H   0  0  0  0  0  0  0  0  0  0  0  0
   42.4436    6.6223   12.0599 H   0  0  0  0  0  0  0  0  0  0  0  0
   43.6717    2.5548   12.6405 H   0  0  0  0  0  0  0  0  0  0  0  0
   41.8912    4.2188   12.1843 H   0  0  0  0  0  0  0  0  0  0  0  0
  2  1  1  0
  3  1  1  0
  4  3  1  0
  5  2  2  3
  6  1  1  0
  7  8  1  0
  8  6  1  0
  9  2  1  0
 10  4  2  0
 11  7  2  0
 12 10  1  0
 13 11  1  0
  4  7  1  0
 12 13  2  0
 15 14  2  0
 16 14  2  0
 17 14  1  0
 18 14  1  0
 20 19  1  0
 21 19  1  0
 22 21  1  0
 23 20  2  3
 24 19  1  0
 25 26  1  0
 26 24  1  0
 27 20  1  0
 28 22  2  0
 29 25  2  0
 30 28  1  0
 31 29  1  0
 22 25  1  0
 30 31  2  0
  3 32  1  0
  3 33  1  0
  5 34  1  0
  6 35  1  0
  6 36  1  0
  8 37  1  0
  8 38  1  0
  9 39  1  0
  9 40  1  0
 10 41  1  0
 11 42  1  0
 12 43  1  0
 13 44  1  0
 17 45  1  0
 18 46  1  0
 21 47  1  0
 21 48  1  0
 23 49  1  0
 24 50  1  0
 24 51  1  0
 26 52  1  0
 26 53  1  0
 27 54  1  0
 27 55  1  0
 28 56  1  0
 29 57  1  0
 30 58  1  0
 31 59  1  0
M  END
> <Uni-Dock RESULT> 
ENERGY=   -5.614  LOWER_BOUND=    1.229  UPPER_BOUND=    2.398
INTER + INTRA:          -5.614
INTER:                  -5.614
INTRA:                   0.000
UNBOUND:                 0.000

$$$$

     RDKit          3D

 59 60  0  0  0  0  0  0  0  0999 V2000
   44.9651    5.4800   12.0322 N   0  0  0  0  0  0  0  0  0  0  0  0
   44.1325    4.4492   11.6996 C   0  0  0  0  0  0  0  0  0  0  0  0
   46.0397    5.2443   13.0102 C   0  0  0  0  0  0  0  0  0  0  0  0
   46.7969    6.4855   13.4376 C   0  0  0  0  0  0  0  0  0  0  0  0
   43.6424    3.5724   12.5042 N   0  0  0  0  0  0  0  0  0  0  0  0
   45.1853    6.6177   11.1311 C   0  0  0  0  0  0  0  0  0  0  0  0
   46.4927    7.7563   12.9244 C   0  0  0  0  0  0  0  0  0  0  0  0
   45.3727    7.9037   11.9332 C   0  0  0  0  0  0  0  0  0  0  0  0
   43.7971    4.3316   10.3983 N   0  0  0  0  0  0  0  0  0  0  0  0
   47.8356    6.3611   14.3755 C   0  0  0  0  0  0  0  0  0  0  0  0
   47.2007    8.8807   13.3703 C   0  0  0  0  0  0  0  0  0  0  0  0
   48.5468    7.4827   14.8040 C   0  0  0  0  0  0  0  0  0  0  0  0
   48.2268    8.7418   14.3035 C   0  0  0  0  0  0  0  0  0  0  0  0
   46.3252    6.1120   12.7232 S   0  0  0  0  0  0  0  0  0  0  0  0
   47.1134    6.2934   13.9155 O   0  0  0  0  0  0  0  0  0  0  0  0
   46.4795    4.9988   11.8214 O   0  0  0  0  0  0  0  0  0  0  0  0
   44.7756    6.1433   13.1364 O   0  0  0  0  0  0  0  0  0  0  0  0
   46.4506    7.4719   11.8807 O   0  0  0  0  0  0  0  0  0  0  0  0
   47.2700    7.2496   12.6953 N   0  0  0  0  0  0  0  0  0  0  0  0
   48.5659    7.6839   12.7488 C   0  0  0  0  0  0  0  0  0  0  0  0
   47.0123    5.8100   12.9128 C   0  0  0  0  0  0  0  0  0  0  0  0
   45.5686    5.3959   12.7012 C   0  0  0  0  0  0  0  0  0  0  0  0
   49.0327    8.7199   13.3490 N   0  0  0  0  0  0  0  0  0  0  0  0
   46.1728    8.1181   13.1356 C   0  0  0  0  0  0  0  0  0  0  0  0
   44.5519    6.3343   12.4609 C   0  0  0  0  0  0  0  0  0  0  0  0
   44.8970    7.7941   12.3605 C   0  0  0  0  0  0  0  0  0  0  0  0
   49.4425    6.9359   12.0468 N   0  0  0  0  0  0  0  0  0  0  0  0
   45.2340    4.0337   12.7705 C   0  0  0  0  0  0  0  0  0  0  0  0
   43.2326    5.9038   12.2643 C   0  0  0  0  0  0  0  0  0  0  0  0
   43.9164    3.6132   12.5868 C   0  0  0  0  0  0  0  0  0  0  0  0
   42.9169    4.5478   12.3323 C   0  0  0  0  0  0  0  0  0  0  0  0
   45.6236    4.7958   13.9194 H   0  0  0  0  0  0  0  0  0  0  0  0
   46.7559    4.5356   12.5747 H   0  0  0  0  0  0  0  0  0  0  0  0
   43.9115    3.8099   13.4586 H   0  0  0  0  0  0  0  0  0  0  0  0
   44.3268    6.7702   10.4660 H   0  0  0  0  0  0  0  0  0  0  0  0
   46.0602    6.4187   10.4990 H   0  0  0  0  0  0  0  0  0  0  0  0
   45.5846    8.7268   11.2404 H   0  0  0  0  0  0  0  0  0  0  0  0
   44.4534    8.1474   12.4797 H   0  0  0  0  0  0  0  0  0  0  0  0
   43.2749    3.4690   10.2762 H   0  0  0  0  0  0  0  0  0  0  0  0
   44.6010    4.3444    9.7859 H   0  0  0  0  0  0  0  0  0  0  0  0
   48.0919    5.3857   14.7839 H   0  0  0  0  0  0  0  0  0  0  0  0
   46.9563    9.8705   12.9919 H   0  0  0  0  0  0  0  0  0  0  0  0
   49.3464    7.3744   15.5321 H   0  0  0  0  0  0  0  0  0  0  0  0
   48.7754    9.6172   14.6423 H   0  0  0  0  0  0  0  0  0  0  0  0
   44.2890    5.6253   12.4611 H   0  0  0  0  0  0  0  0  0  0  0  0
   46.5656    8.2018   12.5243 H   0  0  0  0  0  0  0  0  0  0  0  0
   47.6234    5.2138   12.2246 H   0  0  0  0  0  0  0  0  0  0  0  0
   47.2981    5.5527   13.9409 H   0  0  0  0  0  0  0  0  0  0  0  0
   48.2891    9.1924   13.8596 H   0  0  0  0  0  0  0  0  0  0  0  0
   46.4096    9.1721   12.9467 H   0  0  0  0  0  0  0  0  0  0  0  0
   46.0181    8.0017   14.2161 H   0  0  0  0  0  0  0  0  0  0  0  0
   45.0288    8.0442   11.3002 H   0  0  0  0  0  0  0  0  0  0  0  0
   44.0769    8.4069   12.7533 H   0  0  0  0  0  0  0  0  0  0  0  0
   50.3293    7.4279   12.0001 H   0  0  0  0  0  0  0  0  0  0  0  0
   49.0991    6.7309   11.1167 H   0  0  0  0  0  0  0  0  0  0  0  0
   46.0041    3.2903   12.9664 H   0  0  0  0  0  0  0  0  0  0  0  0
   42.4439    6.6236   12.0602 H   0  0  0  0  0  0  0  0  0  0  0  0
   43.6713    2.5558   12.6404 H   0  0  0  0  0  0  0  0  0  0  0  0
   41.8911    4.2202   12.1844 H   0  0  0  0  0  0  0  0  0  0  0  0
  2  1  1  0
  3  1  1  0
  4  3  1  0
  5  2  2  3
  6  1  1  0
  7  8  1  0
  8  6  1  0
  9  2  1  0
 10  4  2  0
 11  7  2  0
 12 10  1  0
 13 11  1  0
  4  7  1  0
 12 13  2  0
 15 14  2  0
 16 14  2  0
 17 14  1  0
 18 14  1  0
 20 19  1  0
 21 19  1  0
 22 21  1  0
 23 20  2  3
 24 19  1  0
 25 26  1  0
 26 24  1  0
 27 20  1  0
 28 22  2  0
 29 25  2  0
 30 28  1  0
 31 29  1  0
 22 25  1  0
 30 31  2  0
  3 32  1  0
  3 33  1  0
  5 34  1  0
  6 35  1  0
  6 36  1  0
  8 37  1  0
  8 38  1  0
  9 39  1  0
  9 40  1  0
 10 41  1  0
 11 42  1  0
 12 43  1  0
 13 44  1  0
 17 45  1  0
 18 46  1  0
 21 47  1  0
 21 48  1  0
 23 49  1  0
 24 50  1  0
 24 51  1  0
 26 52  1  0
 26 53  1  0
 27 54  1  0
 27 55  1  0
 28 56  1  0
 29 57  1  0
 30 58  1  0
 31 59  1  0
M  END
> <Uni-Dock RESULT> 
ENERGY=   -5.614  LOWER_BOUND=    1.229  UPPER_BOUND=    2.399
INTER + INTRA:          -5.614
INTER:                  -5.614
INTRA:                   0.000
UNBOUND:                 0.000

$$$$

     RDKit          3D

 59 60  0  0  0  0  0  0  0  0999 V2000
   46.8769    6.8744   13.1723 N   0  0  0  0  0  0  0  0  0  0  0  0
   47.8989    7.4834   13.8437 C   0  0  0  0  0  0  0  0  0  0  0  0
   46.6933    5.4208   13.3151 C   0  0  0  0  0  0  0  0  0  0  0  0
   45.6447    4.8175   12.4025 C   0  0  0  0  0  0  0  0  0  0  0  0
   49.0923    7.0266   13.9968 N   0  0  0  0  0  0  0  0  0  0  0  0
   45.6795    7.6123   12.7522 C   0  0  0  0  0  0  0  0  0  0  0  0
   44.9047    5.5986   11.5007 C   0  0  0  0  0  0  0  0  0  0  0  0
   45.1646    7.0766   11.4180 C   0  0  0  0  0  0  0  0  0  0  0  0
   47.6301    8.6776   14.4107 N   0  0  0  0  0  0  0  0  0  0  0  0
   45.4049    3.4343   12.4606 C   0  0  0  0  0  0  0  0  0  0  0  0
   43.9651    4.9931   10.6552 C   0  0  0  0  0  0  0  0  0  0  0  0
   44.4571    2.8398   11.6265 C   0  0  0  0  0  0  0  0  0  0  0  0
   43.7403    3.6190   10.7225 C   0  0  0  0  0  0  0  0  0  0  0  0
   45.8734    5.6019   12.8549 S   0  0  0  0  0  0  0  0  0  0  0  0
   45.7438    4.2236   12.4561 O   0  0  0  0  0  0  0  0  0  0  0  0
   46.0088    6.0315   14.2236 O   0  0  0  0  0  0  0  0  0  0  0  0
   47.1118    6.2401   12.0598 O   0  0  0  0  0  0  0  0  0  0  0  0
   44.6403    6.3873   12.1935 O   0  0  0  0  0  0  0  0  0  0  0  0
   44.5548    5.2191   12.3051 N   0  0  0  0  0  0  0  0  0  0  0  0
   43.4303    4.4484   12.4158 C   0  0  0  0  0  0  0  0  0  0  0  0
   45.6521    4.9860   13.2682 C   0  0  0  0  0  0  0  0  0  0  0  0
   46.7986    5.9730   13.1586 C   0  0  0  0  0  0  0  0  0  0  0  0
   42.7762    3.8581   11.4803 N   0  0  0  0  0  0  0  0  0  0  0  0
   45.0122    5.6882   10.9925 C   0  0  0  0  0  0  0  0  0  0  0  0
   46.8625    6.9296   12.1325 C   0  0  0  0  0  0  0  0  0  0  0  0
   45.7442    7.0216   11.1319 C   0  0  0  0  0  0  0  0  0  0  0  0
   42.9427    4.3361   13.6689 N   0  0  0  0  0  0  0  0  0  0  0  0
   47.8401    5.9137   14.0987 C   0  0  0  0  0  0  0  0  0  0  0  0
   47.9385    7.8260   12.0757 C   0  0  0  0  0  0  0  0  0  0  0  0
   48.9150    6.8006   14.0286 C   0  0  0  0  0  0  0  0  0  0  0  0
   48.9629    7.7570   13.0185 C   0  0  0  0  0  0  0  0  0  0  0  0
   47.6362    4.9041   13.1029 H   0  0  0  0  0  0  0  0  0  0  0  0
   46.4112    5.2072   14.3541 H   0  0  0  0  0  0  0  0  0  0  0  0
   49.1869    6.1601   13.4679 H   0  0  0  0  0  0  0  0  0  0  0  0
   45.8973    8.6781   12.6135 H   0  0  0  0  0  0  0  0  0  0  0  0
   44.9096    7.5322   13.5305 H   0  0  0  0  0  0  0  0  0  0  0  0
   44.2438    7.6096   11.1527 H   0  0  0  0  0  0  0  0  0  0  0  0
   45.9021    7.2570   10.6265 H   0  0  0  0  0  0  0  0  0  0  0  0
   48.4325    8.9592   14.9661 H   0  0  0  0  0  0  0  0  0  0  0  0
   46.7971    8.6589   14.9826 H   0  0  0  0  0  0  0  0  0  0  0  0
   45.9634    2.8096   13.1546 H   0  0  0  0  0  0  0  0  0  0  0  0
   43.4033    5.5896    9.9403 H   0  0  0  0  0  0  0  0  0  0  0  0
   44.2824    1.7684   11.6786 H   0  0  0  0  0  0  0  0  0  0  0  0
   43.0070    3.1556   10.0671 H   0  0  0  0  0  0  0  0  0  0  0  0
   47.4505    6.9810   12.6051 H   0  0  0  0  0  0  0  0  0  0  0  0
   44.4244    5.9323   11.3530 H   0  0  0  0  0  0  0  0  0  0  0  0
   45.2681    5.0498   14.2934 H   0  0  0  0  0  0  0  0  0  0  0  0
   46.0504    3.9754   13.1102 H   0  0  0  0  0  0  0  0  0  0  0  0
   43.2454    3.9939   10.5868 H   0  0  0  0  0  0  0  0  0  0  0  0
   44.1624    5.8522   10.3189 H   0  0  0  0  0  0  0  0  0  0  0  0
   45.6585    4.9297   10.5319 H   0  0  0  0  0  0  0  0  0  0  0  0
   45.0462    7.7993   11.4669 H   0  0  0  0  0  0  0  0  0  0  0  0
   46.1347    7.3173   10.1509 H   0  0  0  0  0  0  0  0  0  0  0  0
   42.0254    3.9033   13.6261 H   0  0  0  0  0  0  0  0  0  0  0  0
   42.8918    5.2346   14.1328 H   0  0  0  0  0  0  0  0  0  0  0  0
   47.8164    5.1733   14.8958 H   0  0  0  0  0  0  0  0  0  0  0  0
   47.9851    8.5805   11.2944 H   0  0  0  0  0  0  0  0  0  0  0  0
   49.7132    6.7457   14.7640 H   0  0  0  0  0  0  0  0  0  0  0  0
   49.7976    8.4513   12.9664 H   0  0  0  0  0  0  0  0  0  0  0  0
  2  1  1  0
  3  1  1  0
  4  3  1  0
  5  2  2  3
  6  1  1  0
  7  8  1  0
  8  6  1  0
  9  2  1  0
 10  4  2  0
 11  7  2  0
 12 10  1  0
 13 11  1  0
  4  7  1  0
 12 13  2  0
 15 14  2  0
 16 14  2  0
 17 14  1  0
 18 14  1  0
 20 19  1  0
 21 19  1  0
 22 21  1  0
 23 20  2  3
 24 19  1  0
 25 26  1  0
 26 24  1  0
 27 20  1  0
 28 22  2  0
 29 25  2  0
 30 28  1  0
 31 29  1  0
 22 25  1  0
 30 31  2  0
  3 32  1  0
  3 33  1  0
  5 34  1  0
  6 35  1  0
  6 36  1  0
  8 37  1  0
  8 38  1  0
  9 39  1  0
  9 40  1  0
 10 41  1  0
 11 42  1  0
 12 43  1  0
 13 44  1  0
 17 45  1  0
 18 46  1  0
 21 47  1  0
 21 48  1  0
 23 49  1  0
 24 50  1  0
 24 51  1  0
 26 52  1  0
 26 53  1  0
 27 54  1  0
 27 55  1  0
 28 56  1  0
 29 57  1  0
 30 58  1  0
 31 59  1  0
M  END
> <Uni-Dock RESULT> 
ENERGY=   -5.328  LOWER_BOUND=    0.864  UPPER_BOUND=    4.697
INTER + INTRA:          -5.328
INTER:                  -5.328
INTRA:                   0.000
UNBOUND:                 0.000

$$$$

     RDKit          3D

 59 60  0  0  0  0  0  0  0  0999 V2000
   46.7806    7.8375   12.3826 N   0  0  0  0  0  0  0  0  0  0  0  0
   47.3775    9.0652   12.3315 C   0  0  0  0  0  0  0  0  0  0  0  0
   45.3293    7.7379   12.1575 C   0  0  0  0  0  0  0  0  0  0  0  0
   44.7385    6.3641   12.4024 C   0  0  0  0  0  0  0  0  0  0  0  0
   46.9067   10.1644   12.8072 N   0  0  0  0  0  0  0  0  0  0  0  0
   47.5326    6.6012   12.1357 C   0  0  0  0  0  0  0  0  0  0  0  0
   45.5284    5.2751   12.8037 C   0  0  0  0  0  0  0  0  0  0  0  0
   47.0032    5.4711   13.0161 C   0  0  0  0  0  0  0  0  0  0  0  0
   48.5746    9.1362   11.7137 N   0  0  0  0  0  0  0  0  0  0  0  0
   43.3582    6.1736   12.2218 C   0  0  0  0  0  0  0  0  0  0  0  0
   44.9341    4.0292   13.0466 C   0  0  0  0  0  0  0  0  0  0  0  0
   42.7750    4.9266   12.4508 C   0  0  0  0  0  0  0  0  0  0  0  0
   43.5628    3.8564   12.8658 C   0  0  0  0  0  0  0  0  0  0  0  0
   45.5201    6.7999   12.1350 S   0  0  0  0  0  0  0  0  0  0  0  0
   44.1434    6.4706   12.4035 O   0  0  0  0  0  0  0  0  0  0  0  0
   45.9478    7.6203   11.0303 O   0  0  0  0  0  0  0  0  0  0  0  0
   46.1439    7.4641   13.4551 O   0  0  0  0  0  0  0  0  0  0  0  0
   46.3200    5.4101   12.0776 O   0  0  0  0  0  0  0  0  0  0  0  0
   45.1529    5.3817   11.9313 N   0  0  0  0  0  0  0  0  0  0  0  0
   44.3953    4.4641   11.2568 C   0  0  0  0  0  0  0  0  0  0  0  0
   44.9067    6.8147   11.6631 C   0  0  0  0  0  0  0  0  0  0  0  0
   45.8802    7.7540   12.3491 C   0  0  0  0  0  0  0  0  0  0  0  0
   43.8130    3.4177   11.7231 N   0  0  0  0  0  0  0  0  0  0  0  0
   45.6168    5.1086   13.2959 C   0  0  0  0  0  0  0  0  0  0  0  0
   46.8363    7.2941   13.2692 C   0  0  0  0  0  0  0  0  0  0  0  0
   46.9416    5.8225   13.5580 C   0  0  0  0  0  0  0  0  0  0  0  0
   44.2884    4.6845    9.9299 N   0  0  0  0  0  0  0  0  0  0  0  0
   45.8085    9.1291   12.0731 C   0  0  0  0  0  0  0  0  0  0  0  0
   47.7200    8.1989   13.8732 C   0  0  0  0  0  0  0  0  0  0  0  0
   46.6828   10.0260   12.6880 C   0  0  0  0  0  0  0  0  0  0  0  0
   47.6388    9.5605   13.5862 C   0  0  0  0  0  0  0  0  0  0  0  0
   44.8016    8.4345   12.8189 H   0  0  0  0  0  0  0  0  0  0  0  0
   45.1187    8.0244   11.1191 H   0  0  0  0  0  0  0  0  0  0  0  0
   46.0392    9.9665   13.3052 H   0  0  0  0  0  0  0  0  0  0  0  0
   48.5958    6.7284   12.3725 H   0  0  0  0  0  0  0  0  0  0  0  0
   47.4614    6.3366   11.0728 H   0  0  0  0  0  0  0  0  0  0  0  0
   47.5471    4.5497   12.7766 H   0  0  0  0  0  0  0  0  0  0  0  0
   47.1752    5.7022   14.0744 H   0  0  0  0  0  0  0  0  0  0  0  0
   48.8467   10.1126   11.6481 H   0  0  0  0  0  0  0  0  0  0  0  0
   48.5655    8.7125   10.7962 H   0  0  0  0  0  0  0  0  0  0  0  0
   42.7268    7.0020   11.9072 H   0  0  0  0  0  0  0  0  0  0  0  0
   45.5373    3.1870   13.3772 H   0  0  0  0  0  0  0  0  0  0  0  0
   41.7057    4.7922   12.3105 H   0  0  0  0  0  0  0  0  0  0  0  0
   43.1081    2.8864   13.0515 H   0  0  0  0  0  0  0  0  0  0  0  0
   46.8807    8.0416   13.1639 H   0  0  0  0  0  0  0  0  0  0  0  0
   45.8677    4.7902   12.6870 H   0  0  0  0  0  0  0  0  0  0  0  0
   44.9748    7.0094   10.5860 H   0  0  0  0  0  0  0  0  0  0  0  0
   43.8915    7.0659   11.9966 H   0  0  0  0  0  0  0  0  0  0  0  0
   43.9434    3.3655   12.7316 H   0  0  0  0  0  0  0  0  0  0  0  0
   45.7910    4.0356   13.4414 H   0  0  0  0  0  0  0  0  0  0  0  0
   44.8510    5.4208   14.0177 H   0  0  0  0  0  0  0  0  0  0  0  0
   47.7273    5.4018   12.9177 H   0  0  0  0  0  0  0  0  0  0  0  0
   47.2328    5.6595   14.6024 H   0  0  0  0  0  0  0  0  0  0  0  0
   43.8664    3.8699    9.4953 H   0  0  0  0  0  0  0  0  0  0  0  0
   45.1874    4.8870    9.5105 H   0  0  0  0  0  0  0  0  0  0  0  0
   45.0683    9.5086   11.3717 H   0  0  0  0  0  0  0  0  0  0  0  0
   48.4741    7.8472   14.5728 H   0  0  0  0  0  0  0  0  0  0  0  0
   46.6184   11.0874   12.4637 H   0  0  0  0  0  0  0  0  0  0  0  0
   48.3232   10.2583   14.0617 H   0  0  0  0  0  0  0  0  0  0  0  0
  2  1  1  0
  3  1  1  0
  4  3  1  0
  5  2  2  3
  6  1  1  0
  7  8  1  0
  8  6  1  0
  9  2  1  0
 10  4  2  0
 11  7  2  0
 12 10  1  0
 13 11  1  0
  4  7  1  0
 12 13  2  0
 15 14  2  0
 16 14  2  0
 17 14  1  0
 18 14  1  0
 20 19  1  0
 21 19  1  0
 22 21  1  0
 23 20  2  3
 24 19  1  0
 25 26  1  0
 26 24  1  0
 27 20  1  0
 28 22  2  0
 29 25  2  0
 30 28  1  0
 31 29  1  0
 22 25  1  0
 30 31  2  0
  3 32  1  0
  3 33  1  0
  5 34  1  0
  6 35  1  0
  6 36  1  0
  8 37  1  0
  8 38  1  0
  9 39  1  0
  9 40  1  0
 10 41  1  0
 11 42  1  0
 12 43  1  0
 13 44  1  0
 17 45  1  0
 18 46  1  0
 21 47  1  0
 21 48  1  0
 23 49  1  0
 24 50  1  0
 24 51  1  0
 26 52  1  0
 26 53  1  0
 27 54  1  0
 27 55  1  0
 28 56  1  0
 29 57  1  0
 30 58  1  0
 31 59  1  0
M  END
> <Uni-Dock RESULT> 
ENERGY=   -5.016  LOWER_BOUND=    1.415  UPPER_BOUND=    4.568
INTER + INTRA:          -5.016
INTER:                  -5.016
INTRA:                   0.000
UNBOUND:                 0.000

$$$$

     RDKit          3D

 59 60  0  0  0  0  0  0  0  0999 V2000
   48.5743    5.0334   19.1358 N   0  0  0  0  0  0  0  0  0  0  0  0
   48.7181    4.1484   18.1051 C   0  0  0  0  0  0  0  0  0  0  0  0
   48.3441    4.5170   20.4950 C   0  0  0  0  0  0  0  0  0  0  0  0
   48.0293    5.5740   21.5342 C   0  0  0  0  0  0  0  0  0  0  0  0
   48.0405    3.0694   17.9239 N   0  0  0  0  0  0  0  0  0  0  0  0
   49.1323    6.3897   19.0740 C   0  0  0  0  0  0  0  0  0  0  0  0
   47.9741    6.9397   21.2136 C   0  0  0  0  0  0  0  0  0  0  0  0
   48.2164    7.3757   19.7959 C   0  0  0  0  0  0  0  0  0  0  0  0
   49.6702    4.4264   17.1908 N   0  0  0  0  0  0  0  0  0  0  0  0
   47.7857    5.1758   22.8595 C   0  0  0  0  0  0  0  0  0  0  0  0
   47.6506    7.8797   22.2016 C   0  0  0  0  0  0  0  0  0  0  0  0
   47.4790    6.1184   23.8417 C   0  0  0  0  0  0  0  0  0  0  0  0
   47.4087    7.4690   23.5115 C   0  0  0  0  0  0  0  0  0  0  0  0
   48.4935    5.4314   20.7364 S   0  0  0  0  0  0  0  0  0  0  0  0
   47.8356    5.2480   22.0050 O   0  0  0  0  0  0  0  0  0  0  0  0
   49.6131    4.6409   20.2918 O   0  0  0  0  0  0  0  0  0  0  0  0
   47.3875    5.3339   19.5788 O   0  0  0  0  0  0  0  0  0  0  0  0
   48.8981    6.9819   20.6511 O   0  0  0  0  0  0  0  0  0  0  0  0
   48.6764    6.5268   21.7133 N   0  0  0  0  0  0  0  0  0  0  0  0
   49.1476    6.9277   22.9332 C   0  0  0  0  0  0  0  0  0  0  0  0
   48.7492    5.0879   21.3812 C   0  0  0  0  0  0  0  0  0  0  0  0
   48.3326    4.7534   19.9617 C   0  0  0  0  0  0  0  0  0  0  0  0
   48.6016    7.7365   23.7693 N   0  0  0  0  0  0  0  0  0  0  0  0
   47.5472    7.2206   21.0843 C   0  0  0  0  0  0  0  0  0  0  0  0
   47.7911    5.7186   19.0972 C   0  0  0  0  0  0  0  0  0  0  0  0
   47.6579    7.1418   19.5628 C   0  0  0  0  0  0  0  0  0  0  0  0
   50.3558    6.4270   23.2652 N   0  0  0  0  0  0  0  0  0  0  0  0
   48.4710    3.4327   19.5049 C   0  0  0  0  0  0  0  0  0  0  0  0
   47.4268    5.3643   17.7909 C   0  0  0  0  0  0  0  0  0  0  0  0
   48.0941    3.0840   18.2075 C   0  0  0  0  0  0  0  0  0  0  0  0
   47.5738    4.0499   17.3509 C   0  0  0  0  0  0  0  0  0  0  0  0
   47.5024    3.8152   20.4888 H   0  0  0  0  0  0  0  0  0  0  0  0
   49.2419    3.9733   20.8163 H   0  0  0  0  0  0  0  0  0  0  0  0
   47.3136    3.0097   18.6365 H   0  0  0  0  0  0  0  0  0  0  0  0
   49.2288    6.7332   18.0371 H   0  0  0  0  0  0  0  0  0  0  0  0
   50.1369    6.3916   19.5163 H   0  0  0  0  0  0  0  0  0  0  0  0
   48.6798    8.3693   19.7782 H   0  0  0  0  0  0  0  0  0  0  0  0
   47.2498    7.4421   19.2816 H   0  0  0  0  0  0  0  0  0  0  0  0
   49.7452    3.6393   16.5533 H   0  0  0  0  0  0  0  0  0  0  0  0
   50.5679    4.6243   17.6106 H   0  0  0  0  0  0  0  0  0  0  0  0
   47.8271    4.1233   23.1322 H   0  0  0  0  0  0  0  0  0  0  0  0
   47.5862    8.9369   21.9551 H   0  0  0  0  0  0  0  0  0  0  0  0
   47.2897    5.7979   24.8629 H   0  0  0  0  0  0  0  0  0  0  0  0
   47.1626    8.2033   24.2746 H   0  0  0  0  0  0  0  0  0  0  0  0
   47.8500    5.0418   18.7652 H   0  0  0  0  0  0  0  0  0  0  0  0
   48.2255    7.4849   21.1558 H   0  0  0  0  0  0  0  0  0  0  0  0
   49.7768    4.7272   21.5096 H   0  0  0  0  0  0  0  0  0  0  0  0
   48.0994    4.5341   22.0712 H   0  0  0  0  0  0  0  0  0  0  0  0
   47.6900    8.0322   23.4248 H   0  0  0  0  0  0  0  0  0  0  0  0
   47.5421    8.2833   21.3557 H   0  0  0  0  0  0  0  0  0  0  0  0
   46.6024    6.7847   21.4341 H   0  0  0  0  0  0  0  0  0  0  0  0
   48.5395    7.6992   19.2217 H   0  0  0  0  0  0  0  0  0  0  0  0
   46.7705    7.6066   19.1171 H   0  0  0  0  0  0  0  0  0  0  0  0
   50.6963    6.9121   24.0894 H   0  0  0  0  0  0  0  0  0  0  0  0
   51.0177    6.5102   22.5036 H   0  0  0  0  0  0  0  0  0  0  0  0
   48.8782    2.6664   20.1615 H   0  0  0  0  0  0  0  0  0  0  0  0
   47.0237    6.1105   17.1109 H   0  0  0  0  0  0  0  0  0  0  0  0
   48.2089    2.0588   17.8657 H   0  0  0  0  0  0  0  0  0  0  0  0
   47.2846    3.7796   16.3386 H   0  0  0  0  0  0  0  0  0  0  0  0
  2  1  1  0
  3  1  1  0
  4  3  1  0
  5  2  2  3
  6  1  1  0
  7  8  1  0
  8  6  1  0
  9  2  1  0
 10  4  2  0
 11  7  2  0
 12 10  1  0
 13 11  1  0
  4  7  1  0
 12 13  2  0
 15 14  2  0
 16 14  2  0
 17 14  1  0
 18 14  1  0
 20 19  1  0
 21 19  1  0
 22 21  1  0
 23 20  2  3
 24 19  1  0
 25 26  1  0
 26 24  1  0
 27 20  1  0
 28 22  2  0
 29 25  2  0
 30 28  1  0
 31 29  1  0
 22 25  1  0
 30 31  2  0
  3 32  1  0
  3 33  1  0
  5 34  1  0
  6 35  1  0
  6 36  1  0
  8 37  1  0
  8 38  1  0
  9 39  1  0
  9 40  1  0
 10 41  1  0
 11 42  1  0
 12 43  1  0
 13 44  1  0
 17 45  1  0
 18 46  1  0
 21 47  1  0
 21 48  1  0
 23 49  1  0
 24 50  1  0
 24 51  1  0
 26 52  1  0
 26 53  1  0
 27 54  1  0
 27 55  1  0
 28 56  1  0
 29 57  1  0
 30 58  1  0
 31 59  1  0
M  END
> <Uni-Dock RESULT> 
ENERGY=   -4.493  LOWER_BOUND=    7.020  UPPER_BOUND=    9.007
INTER + INTRA:          -4.493
INTER:                  -4.493
INTRA:                   0.000
UNBOUND:                 0.000

$$$$

     RDKit          3D

 59 60  0  0  0  0  0  0  0  0999 V2000
   48.4134    7.1855   20.9373 N   0  0  0  0  0  0  0  0  0  0  0  0
   48.2530    8.3618   21.6132 C   0  0  0  0  0  0  0  0  0  0  0  0
   47.7634    7.0192   19.6269 C   0  0  0  0  0  0  0  0  0  0  0  0
   47.8602    5.6258   19.0391 C   0  0  0  0  0  0  0  0  0  0  0  0
   47.1676    9.0468   21.7083 N   0  0  0  0  0  0  0  0  0  0  0  0
   49.5677    6.3097   21.1725 C   0  0  0  0  0  0  0  0  0  0  0  0
   48.5303    4.5842   19.6999 C   0  0  0  0  0  0  0  0  0  0  0  0
   49.1598    4.8440   21.0397 C   0  0  0  0  0  0  0  0  0  0  0  0
   49.3407    8.8608   22.2355 N   0  0  0  0  0  0  0  0  0  0  0  0
   47.2618    5.3681   17.7942 C   0  0  0  0  0  0  0  0  0  0  0  0
   48.5697    3.3036   19.1317 C   0  0  0  0  0  0  0  0  0  0  0  0
   47.3176    4.0945   17.2268 C   0  0  0  0  0  0  0  0  0  0  0  0
   47.9688    3.0626   17.8972 C   0  0  0  0  0  0  0  0  0  0  0  0
   48.3055    6.2306   19.5943 S   0  0  0  0  0  0  0  0  0  0  0  0
   47.4649    5.6437   18.5820 O   0  0  0  0  0  0  0  0  0  0  0  0
   48.9438    7.5155   19.4610 O   0  0  0  0  0  0  0  0  0  0  0  0
   47.4770    6.2813   20.9670 O   0  0  0  0  0  0  0  0  0  0  0  0
   49.4268    5.1384   19.9473 O   0  0  0  0  0  0  0  0  0  0  0  0
   48.8577    5.0340   18.9228 N   0  0  0  0  0  0  0  0  0  0  0  0
   49.2808    4.4453   17.7630 C   0  0  0  0  0  0  0  0  0  0  0  0
   48.2621    6.3846   18.8370 C   0  0  0  0  0  0  0  0  0  0  0  0
   47.9476    7.0142   20.1806 C   0  0  0  0  0  0  0  0  0  0  0  0
   49.0869    3.2379   17.3679 N   0  0  0  0  0  0  0  0  0  0  0  0
   48.3207    4.2215   20.0198 C   0  0  0  0  0  0  0  0  0  0  0  0
   48.0830    6.3055   21.3854 C   0  0  0  0  0  0  0  0  0  0  0  0
   48.5994    4.8938   21.3628 C   0  0  0  0  0  0  0  0  0  0  0  0
   50.0240    5.2392   16.9641 N   0  0  0  0  0  0  0  0  0  0  0  0
   47.4847    8.3395   20.2197 C   0  0  0  0  0  0  0  0  0  0  0  0
   47.7871    6.9314   22.6040 C   0  0  0  0  0  0  0  0  0  0  0  0
   47.1794    8.9523   21.4354 C   0  0  0  0  0  0  0  0  0  0  0  0
   47.3322    8.2488   22.6268 C   0  0  0  0  0  0  0  0  0  0  0  0
   46.6969    7.2579   19.7077 H   0  0  0  0  0  0  0  0  0  0  0  0
   48.2205    7.7245   18.9209 H   0  0  0  0  0  0  0  0  0  0  0  0
   46.4100    8.5334   21.2589 H   0  0  0  0  0  0  0  0  0  0  0  0
   49.9708    6.4458   22.1831 H   0  0  0  0  0  0  0  0  0  0  0  0
   50.3667    6.5603   20.4628 H   0  0  0  0  0  0  0  0  0  0  0  0
   50.0483    4.2147   21.1701 H   0  0  0  0  0  0  0  0  0  0  0  0
   48.4376    4.5787   21.8214 H   0  0  0  0  0  0  0  0  0  0  0  0
   49.1119    9.7823   22.5964 H   0  0  0  0  0  0  0  0  0  0  0  0
   50.1475    8.9124   21.6290 H   0  0  0  0  0  0  0  0  0  0  0  0
   46.7405    6.1610   17.2617 H   0  0  0  0  0  0  0  0  0  0  0  0
   49.0697    2.4876   19.6482 H   0  0  0  0  0  0  0  0  0  0  0  0
   46.8485    3.9066   16.2646 H   0  0  0  0  0  0  0  0  0  0  0  0
   48.0065    2.0682   17.4593 H   0  0  0  0  0  0  0  0  0  0  0  0
   47.8496    7.0157   21.4989 H   0  0  0  0  0  0  0  0  0  0  0  0
   49.0224    4.2555   19.8165 H   0  0  0  0  0  0  0  0  0  0  0  0
   48.9487    7.0623   18.3157 H   0  0  0  0  0  0  0  0  0  0  0  0
   47.3312    6.3227   18.2584 H   0  0  0  0  0  0  0  0  0  0  0  0
   48.4997    2.7419   18.0359 H   0  0  0  0  0  0  0  0  0  0  0  0
   48.7984    3.2346   20.0444 H   0  0  0  0  0  0  0  0  0  0  0  0
   47.2441    4.0649   19.8731 H   0  0  0  0  0  0  0  0  0  0  0  0
   49.6801    4.9199   21.5518 H   0  0  0  0  0  0  0  0  0  0  0  0
   48.1307    4.3042   22.1597 H   0  0  0  0  0  0  0  0  0  0  0  0
   50.4341    4.6722   16.2287 H   0  0  0  0  0  0  0  0  0  0  0  0
   50.7445    5.7243   17.4842 H   0  0  0  0  0  0  0  0  0  0  0  0
   47.3620    8.9037   19.2974 H   0  0  0  0  0  0  0  0  0  0  0  0
   47.9068    6.3942   23.5415 H   0  0  0  0  0  0  0  0  0  0  0  0
   46.8245    9.9793   21.4519 H   0  0  0  0  0  0  0  0  0  0  0  0
   47.0991    8.7275   23.5744 H   0  0  0  0  0  0  0  0  0  0  0  0
  2  1  1  0
  3  1  1  0
  4  3  1  0
  5  2  2  3
  6  1  1  0
  7  8  1  0
  8  6  1  0
  9  2  1  0
 10  4  2  0
 11  7  2  0
 12 10  1  0
 13 11  1  0
  4  7  1  0
 12 13  2  0
 15 14  2  0
 16 14  2  0
 17 14  1  0
 18 14  1  0
 20 19  1  0
 21 19  1  0
 22 21  1  0
 23 20  2  3
 24 19  1  0
 25 26  1  0
 26 24  1  0
 27 20  1  0
 28 22  2  0
 29 25  2  0
 30 28  1  0
 31 29  1  0
 22 25  1  0
 30 31  2  0
  3 32  1  0
  3 33  1  0
  5 34  1  0
  6 35  1  0
  6 36  1  0
  8 37  1  0
  8 38  1  0
  9 39  1  0
  9 40  1  0
 10 41  1  0
 11 42  1  0
 12 43  1  0
 13 44  1  0
 17 45  1  0
 18 46  1  0
 21 47  1  0
 21 48  1  0
 23 49  1  0
 24 50  1  0
 24 51  1  0
 26 52  1  0
 26 53  1  0
 27 54  1  0
 27 55  1  0
 28 56  1  0
 29 57  1  0
 30 58  1  0
 31 59  1  0
M  END
> <Uni-Dock RESULT> 
ENERGY=   -4.462  LOWER_BOUND=    6.399  UPPER_BOUND=    8.993
INTER + INTRA:          -4.462
INTER:                  -4.462
INTRA:                   0.000
UNBOUND:                 0.000

$$$$

     RDKit          3D

 59 60  0  0  0  0  0  0  0  0999 V2000
   43.9118   11.7431   10.7840 N   0  0  0  0  0  0  0  0  0  0  0  0
   45.1963   12.2075   10.8088 C   0  0  0  0  0  0  0  0  0  0  0  0
   42.8522   12.5356   11.4292 C   0  0  0  0  0  0  0  0  0  0  0  0
   41.4988   11.8570   11.4957 C   0  0  0  0  0  0  0  0  0  0  0  0
   45.7850   12.7745   11.8029 N   0  0  0  0  0  0  0  0  0  0  0  0
   43.4463   10.8109    9.7500 C   0  0  0  0  0  0  0  0  0  0  0  0
   41.2832   10.5736   10.9691 C   0  0  0  0  0  0  0  0  0  0  0  0
   42.4269    9.8346   10.3331 C   0  0  0  0  0  0  0  0  0  0  0  0
   45.9175   12.0671    9.6776 N   0  0  0  0  0  0  0  0  0  0  0  0
   40.4265   12.5327   12.1021 C   0  0  0  0  0  0  0  0  0  0  0  0
   40.0215    9.9732   11.0789 C   0  0  0  0  0  0  0  0  0  0  0  0
   39.1688   11.9353   12.1947 C   0  0  0  0  0  0  0  0  0  0  0  0
   38.9680   10.6551   11.6858 C   0  0  0  0  0  0  0  0  0  0  0  0
   42.2812   11.9063   10.9880 S   0  0  0  0  0  0  0  0  0  0  0  0
   41.1897   12.2081   11.8787 O   0  0  0  0  0  0  0  0  0  0  0  0
   42.9658   12.8951   10.1944 O   0  0  0  0  0  0  0  0  0  0  0  0
   43.4145   11.1394   11.8248 O   0  0  0  0  0  0  0  0  0  0  0  0
   41.7679   10.7379   10.0151 O   0  0  0  0  0  0  0  0  0  0  0  0
   40.9602   11.3832   10.5770 N   0  0  0  0  0  0  0  0  0  0  0  0
   39.6690   11.6484   10.2117 C   0  0  0  0  0  0  0  0  0  0  0  0
   41.8076   12.5183   11.0004 C   0  0  0  0  0  0  0  0  0  0  0  0
   43.2575   12.1533   11.2557 C   0  0  0  0  0  0  0  0  0  0  0  0
   38.6023   11.0150   10.5467 N   0  0  0  0  0  0  0  0  0  0  0  0
   41.3066   10.1144   11.2267 C   0  0  0  0  0  0  0  0  0  0  0  0
   43.7070   10.8232   11.2271 C   0  0  0  0  0  0  0  0  0  0  0  0
   42.7431    9.7205   10.8880 C   0  0  0  0  0  0  0  0  0  0  0  0
   39.5233   12.6883    9.3643 N   0  0  0  0  0  0  0  0  0  0  0  0
   44.1745   13.1747   11.5525 C   0  0  0  0  0  0  0  0  0  0  0  0
   45.0582   10.5347   11.4623 C   0  0  0  0  0  0  0  0  0  0  0  0
   45.5156   12.8791   11.7987 C   0  0  0  0  0  0  0  0  0  0  0  0
   45.9571   11.5599   11.7520 C   0  0  0  0  0  0  0  0  0  0  0  0
   43.1405   12.7735   12.4594 H   0  0  0  0  0  0  0  0  0  0  0  0
   42.7394   13.4781   10.8781 H   0  0  0  0  0  0  0  0  0  0  0  0
   45.1635   12.7576   12.6110 H   0  0  0  0  0  0  0  0  0  0  0  0
   44.2754   10.2158    9.3488 H   0  0  0  0  0  0  0  0  0  0  0  0
   43.0138   11.3777    8.9155 H   0  0  0  0  0  0  0  0  0  0  0  0
   42.0592    9.1838    9.5309 H   0  0  0  0  0  0  0  0  0  0  0  0
   42.8996    9.2021   11.0944 H   0  0  0  0  0  0  0  0  0  0  0  0
   46.8026   12.5510    9.7968 H   0  0  0  0  0  0  0  0  0  0  0  0
   45.4344   12.4161    8.8614 H   0  0  0  0  0  0  0  0  0  0  0  0
   40.5690   13.5299   12.5135 H   0  0  0  0  0  0  0  0  0  0  0  0
   39.8534    8.9713   10.6912 H   0  0  0  0  0  0  0  0  0  0  0  0
   38.3477   12.4668   12.6686 H   0  0  0  0  0  0  0  0  0  0  0  0
   37.9904   10.1859   11.7641 H   0  0  0  0  0  0  0  0  0  0  0  0
   44.2678   11.3090   11.3729 H   0  0  0  0  0  0  0  0  0  0  0  0
   41.1260   10.1992   10.5230 H   0  0  0  0  0  0  0  0  0  0  0  0
   41.8017   13.2964   10.2277 H   0  0  0  0  0  0  0  0  0  0  0  0
   41.3911   12.9436   11.9228 H   0  0  0  0  0  0  0  0  0  0  0  0
   38.8302   10.2684   11.2007 H   0  0  0  0  0  0  0  0  0  0  0  0
   40.6555    9.3051   10.8745 H   0  0  0  0  0  0  0  0  0  0  0  0
   41.1674   10.2031   12.3120 H   0  0  0  0  0  0  0  0  0  0  0  0
   42.8299    9.5056    9.8154 H   0  0  0  0  0  0  0  0  0  0  0  0
   43.0006    8.8075   11.4379 H   0  0  0  0  0  0  0  0  0  0  0  0
   38.5698   12.6959    9.0158 H   0  0  0  0  0  0  0  0  0  0  0  0
   40.1828   12.6418    8.5976 H   0  0  0  0  0  0  0  0  0  0  0  0
   43.8456   14.2113   11.5906 H   0  0  0  0  0  0  0  0  0  0  0  0
   45.4162    9.5089   11.4241 H   0  0  0  0  0  0  0  0  0  0  0  0
   46.2155   13.6791   12.0247 H   0  0  0  0  0  0  0  0  0  0  0  0
   47.0028   11.3297   11.9389 H   0  0  0  0  0  0  0  0  0  0  0  0
  2  1  1  0
  3  1  1  0
  4  3  1  0
  5  2  2  3
  6  1  1  0
  7  8  1  0
  8  6  1  0
  9  2  1  0
 10  4  2  0
 11  7  2  0
 12 10  1  0
 13 11  1  0
  4  7  1  0
 12 13  2  0
 15 14  2  0
 16 14  2  0
 17 14  1  0
 18 14  1  0
 20 19  1  0
 21 19  1  0
 22 21  1  0
 23 20  2  3
 24 19  1  0
 25 26  1  0
 26 24  1  0
 27 20  1  0
 28 22  2  0
 29 25  2  0
 30 28  1  0
 31 29  1  0
 22 25  1  0
 30 31  2  0
  3 32  1  0
  3 33  1  0
  5 34  1  0
  6 35  1  0
  6 36  1  0
  8 37  1  0
  8 38  1  0
  9 39  1  0
  9 40  1  0
 10 41  1  0
 11 42  1  0
 12 43  1  0
 13 44  1  0
 17 45  1  0
 18 46  1  0
 21 47  1  0
 21 48  1  0
 23 49  1  0
 24 50  1  0
 24 51  1  0
 26 52  1  0
 26 53  1  0
 27 54  1  0
 27 55  1  0
 28 56  1  0
 29 57  1  0
 30 58  1  0
 31 59  1  0
M  END
> <Uni-Dock RESULT> 
ENERGY=   -4.415  LOWER_BOUND=    6.318  UPPER_BOUND=    8.159
INTER + INTRA:          -4.415
INTER:                  -4.415
INTRA:                   0.000
UNBOUND:                 0.000

$$$$

     RDKit          3D

 59 60  0  0  0  0  0  0  0  0999 V2000
   52.4038    5.0871   18.1469 N   0  0  0  0  0  0  0  0  0  0  0  0
   53.7526    5.0886   18.3641 C   0  0  0  0  0  0  0  0  0  0  0  0
   51.7207    3.8068   17.8999 C   0  0  0  0  0  0  0  0  0  0  0  0
   50.2630    3.9276   17.5034 C   0  0  0  0  0  0  0  0  0  0  0  0
   54.6274    4.3768   17.7443 N   0  0  0  0  0  0  0  0  0  0  0  0
   51.5397    6.1657   18.6416 C   0  0  0  0  0  0  0  0  0  0  0  0
   49.6224    5.1719   17.3934 C   0  0  0  0  0  0  0  0  0  0  0  0
   50.4015    6.4295   17.6582 C   0  0  0  0  0  0  0  0  0  0  0  0
   54.2139    5.9101   19.3295 N   0  0  0  0  0  0  0  0  0  0  0  0
   49.5296    2.7588   17.2385 C   0  0  0  0  0  0  0  0  0  0  0  0
   48.2800    5.2370   16.9956 C   0  0  0  0  0  0  0  0  0  0  0  0
   48.1890    2.8299   16.8574 C   0  0  0  0  0  0  0  0  0  0  0  0
   47.5662    4.0688   16.7333 C   0  0  0  0  0  0  0  0  0  0  0  0
   50.9356    4.3461   17.9982 S   0  0  0  0  0  0  0  0  0  0  0  0
   50.1281    3.3705   17.3111 O   0  0  0  0  0  0  0  0  0  0  0  0
   51.7256    4.0535   19.1672 O   0  0  0  0  0  0  0  0  0  0  0  0
   51.9369    5.0079   16.9341 O   0  0  0  0  0  0  0  0  0  0  0  0
   49.9716    5.5849   18.3312 O   0  0  0  0  0  0  0  0  0  0  0  0
   49.4734    4.5445   18.0989 N   0  0  0  0  0  0  0  0  0  0  0  0
   48.2622    4.0623   18.5128 C   0  0  0  0  0  0  0  0  0  0  0  0
   50.6557    3.6697   18.2500 C   0  0  0  0  0  0  0  0  0  0  0  0
   51.9723    4.3332   17.8935 C   0  0  0  0  0  0  0  0  0  0  0  0
   47.1324    4.1232   17.9037 N   0  0  0  0  0  0  0  0  0  0  0  0
   49.5611    5.4624   16.9579 C   0  0  0  0  0  0  0  0  0  0  0  0
   52.0306    5.6198   17.3337 C   0  0  0  0  0  0  0  0  0  0  0  0
   50.7604    6.3948   17.1189 C   0  0  0  0  0  0  0  0  0  0  0  0
   48.2701    3.4855   19.7327 N   0  0  0  0  0  0  0  0  0  0  0  0
   53.1689    3.6304   18.1084 C   0  0  0  0  0  0  0  0  0  0  0  0
   53.2712    6.1953   17.0269 C   0  0  0  0  0  0  0  0  0  0  0  0
   54.3999    4.2041   17.7884 C   0  0  0  0  0  0  0  0  0  0  0  0
   54.4506    5.4865   17.2495 C   0  0  0  0  0  0  0  0  0  0  0  0
   52.2267    3.2647   17.0930 H   0  0  0  0  0  0  0  0  0  0  0  0
   51.7814    3.1994   18.8121 H   0  0  0  0  0  0  0  0  0  0  0  0
   54.1650    3.8560   16.9995 H   0  0  0  0  0  0  0  0  0  0  0  0
   52.0979    7.1029   18.7535 H   0  0  0  0  0  0  0  0  0  0  0  0
   51.1485    5.8953   19.6309 H   0  0  0  0  0  0  0  0  0  0  0  0
   49.7445    7.2026   18.0743 H   0  0  0  0  0  0  0  0  0  0  0  0
   50.8008    6.7992   16.7058 H   0  0  0  0  0  0  0  0  0  0  0  0
   55.2046    5.7289   19.4614 H   0  0  0  0  0  0  0  0  0  0  0  0
   53.7183    5.8014   20.2036 H   0  0  0  0  0  0  0  0  0  0  0  0
   50.0039    1.7831   17.3213 H   0  0  0  0  0  0  0  0  0  0  0  0
   47.7839    6.1988   16.8888 H   0  0  0  0  0  0  0  0  0  0  0  0
   47.6328    1.9189   16.6523 H   0  0  0  0  0  0  0  0  0  0  0  0
   46.5239    4.1255   16.4293 H   0  0  0  0  0  0  0  0  0  0  0  0
   52.7187    5.3231   17.4347 H   0  0  0  0  0  0  0  0  0  0  0  0
   49.2985    5.6274   17.6204 H   0  0  0  0  0  0  0  0  0  0  0  0
   50.7369    3.3289   19.2891 H   0  0  0  0  0  0  0  0  0  0  0  0
   50.5272    2.7899   17.6063 H   0  0  0  0  0  0  0  0  0  0  0  0
   47.2510    4.5572   16.9901 H   0  0  0  0  0  0  0  0  0  0  0  0
   48.6655    6.0922   16.8940 H   0  0  0  0  0  0  0  0  0  0  0  0
   49.6300    4.8887   16.0246 H   0  0  0  0  0  0  0  0  0  0  0  0
   50.6094    7.0539   17.9831 H   0  0  0  0  0  0  0  0  0  0  0  0
   50.8447    7.0234   16.2245 H   0  0  0  0  0  0  0  0  0  0  0  0
   47.3114    3.3227   20.0243 H   0  0  0  0  0  0  0  0  0  0  0  0
   48.7579    4.0550   20.4129 H   0  0  0  0  0  0  0  0  0  0  0  0
   53.1465    2.6279   18.5310 H   0  0  0  0  0  0  0  0  0  0  0  0
   53.3243    7.1979   16.6099 H   0  0  0  0  0  0  0  0  0  0  0  0
   55.3187    3.6504   17.9621 H   0  0  0  0  0  0  0  0  0  0  0  0
   55.4096    5.9357   17.0046 H   0  0  0  0  0  0  0  0  0  0  0  0
  2  1  1  0
  3  1  1  0
  4  3  1  0
  5  2  2  3
  6  1  1  0
  7  8  1  0
  8  6  1  0
  9  2  1  0
 10  4  2  0
 11  7  2  0
 12 10  1  0
 13 11  1  0
  4  7  1  0
 12 13  2  0
 15 14  2  0
 16 14  2  0
 17 14  1  0
 18 14  1  0
 20 19  1  0
 21 19  1  0
 22 21  1  0
 23 20  2  3
 24 19  1  0
 25 26  1  0
 26 24  1  0
 27 20  1  0
 28 22  2  0
 29 25  2  0
 30 28  1  0
 31 29  1  0
 22 25  1  0
 30 31  2  0
  3 32  1  0
  3 33  1  0
  5 34  1  0
  6 35  1  0
  6 36  1  0
  8 37  1  0
  8 38  1  0
  9 39  1  0
  9 40  1  0
 10 41  1  0
 11 42  1  0
 12 43  1  0
 13 44  1  0
 17 45  1  0
 18 46  1  0
 21 47  1  0
 21 48  1  0
 23 49  1  0
 24 50  1  0
 24 51  1  0
 26 52  1  0
 26 53  1  0
 27 54  1  0
 27 55  1  0
 28 56  1  0
 29 57  1  0
 30 58  1  0
 31 59  1  0
M  END
> <Uni-Dock RESULT> 
ENERGY=   -4.204  LOWER_BOUND=    6.035  UPPER_BOUND=    8.756
INTER + INTRA:          -4.204
INTER:                  -4.204
INTRA:                   0.000
UNBOUND:                 0.000

$$$$
