
     RDKit          3D

 59 60  0  0  0  0  0  0  0  0999 V2000
   45.8593    2.5379    8.1713 N   0  0  0  0  0  0  0  0  0  0  0  0
   46.8317    1.7527    7.6326 C   0  0  0  0  0  0  0  0  0  0  0  0
   45.0307    2.0887    9.2970 C   0  0  0  0  0  0  0  0  0  0  0  0
   44.4307    3.2277   10.1013 C   0  0  0  0  0  0  0  0  0  0  0  0
   47.8406    2.1508    6.9400 N   0  0  0  0  0  0  0  0  0  0  0  0
   45.3681    3.7384    7.4941 C   0  0  0  0  0  0  0  0  0  0  0  0
   44.5666    4.5716    9.7069 C   0  0  0  0  0  0  0  0  0  0  0  0
   45.3550    4.9127    8.4692 C   0  0  0  0  0  0  0  0  0  0  0  0
   46.7226    0.4259    7.8487 N   0  0  0  0  0  0  0  0  0  0  0  0
   43.7068    2.9305   11.2674 C   0  0  0  0  0  0  0  0  0  0  0  0
   44.0100    5.5908   10.4913 C   0  0  0  0  0  0  0  0  0  0  0  0
   43.1431    3.9504   12.0346 C   0  0  0  0  0  0  0  0  0  0  0  0
   43.2972    5.2792   11.6481 C   0  0  0  0  0  0  0  0  0  0  0  0
   45.0438    3.6077    8.8579 S   0  0  0  0  0  0  0  0  0  0  0  0
   44.3676    3.1842    7.6584 O   0  0  0  0  0  0  0  0  0  0  0  0
   45.6315    4.9117    9.0305 O   0  0  0  0  0  0  0  0  0  0  0  0
   44.0536    3.3885   10.1008 O   0  0  0  0  0  0  0  0  0  0  0  0
   46.1672    2.5029    9.1592 O   0  0  0  0  0  0  0  0  0  0  0  0
   44.1344    3.7745   10.3161 N   0  0  0  0  0  0  0  0  0  0  0  0
   43.4482    4.5057   11.2456 C   0  0  0  0  0  0  0  0  0  0  0  0
   45.2498    4.4304    9.6014 C   0  0  0  0  0  0  0  0  0  0  0  0
   45.8479    3.5972    8.4845 C   0  0  0  0  0  0  0  0  0  0  0  0
   43.0821    4.1498   12.4252 N   0  0  0  0  0  0  0  0  0  0  0  0
   44.3163    2.3292   10.4876 C   0  0  0  0  0  0  0  0  0  0  0  0
   45.4667    2.2634    8.2647 C   0  0  0  0  0  0  0  0  0  0  0  0
   44.4030    1.6415    9.1262 C   0  0  0  0  0  0  0  0  0  0  0  0
   43.0897    5.7420   10.8410 N   0  0  0  0  0  0  0  0  0  0  0  0
   46.8298    4.1692    7.6588 C   0  0  0  0  0  0  0  0  0  0  0  0
   46.0395    1.5353    7.2130 C   0  0  0  0  0  0  0  0  0  0  0  0
   47.4064    3.4338    6.6228 C   0  0  0  0  0  0  0  0  0  0  0  0
   47.0089    2.1185    6.3985 C   0  0  0  0  0  0  0  0  0  0  0  0
   44.2146    1.4644    8.9132 H   0  0  0  0  0  0  0  0  0  0  0  0
   45.6382    1.4866    9.9843 H   0  0  0  0  0  0  0  0  0  0  0  0
   47.8363    3.1707    6.9121 H   0  0  0  0  0  0  0  0  0  0  0  0
   45.9763    4.0019    6.6222 H   0  0  0  0  0  0  0  0  0  0  0  0
   44.3566    3.5445    7.1132 H   0  0  0  0  0  0  0  0  0  0  0  0
   44.9175    5.7853    7.9705 H   0  0  0  0  0  0  0  0  0  0  0  0
   46.3791    5.1677    8.7678 H   0  0  0  0  0  0  0  0  0  0  0  0
   47.4471   -0.0452    7.3145 H   0  0  0  0  0  0  0  0  0  0  0  0
   45.8146    0.0638    7.5922 H   0  0  0  0  0  0  0  0  0  0  0  0
   43.5852    1.8980   11.5886 H   0  0  0  0  0  0  0  0  0  0  0  0
   44.1298    6.6332   10.2046 H   0  0  0  0  0  0  0  0  0  0  0  0
   42.5894    3.7084   12.9381 H   0  0  0  0  0  0  0  0  0  0  0  0
   42.8654    6.0741   12.2507 H   0  0  0  0  0  0  0  0  0  0  0  0
   44.3967    3.9290   10.8424 H   0  0  0  0  0  0  0  0  0  0  0  0
   45.8546    1.6596    8.7708 H   0  0  0  0  0  0  0  0  0  0  0  0
   46.0434    4.6616   10.3233 H   0  0  0  0  0  0  0  0  0  0  0  0
   44.9063    5.3709    9.1543 H   0  0  0  0  0  0  0  0  0  0  0  0
   43.4253    3.2129   12.6299 H   0  0  0  0  0  0  0  0  0  0  0  0
   45.2174    2.1377   11.0841 H   0  0  0  0  0  0  0  0  0  0  0  0
   43.4665    1.8882   11.0218 H   0  0  0  0  0  0  0  0  0  0  0  0
   43.4427    1.7253    8.6026 H   0  0  0  0  0  0  0  0  0  0  0  0
   44.6134    0.5766    9.2790 H   0  0  0  0  0  0  0  0  0  0  0  0
   42.6798    5.7311    9.9159 H   0  0  0  0  0  0  0  0  0  0  0  0
   42.4405    6.1329   11.5167 H   0  0  0  0  0  0  0  0  0  0  0  0
   47.1484    5.1974    7.8186 H   0  0  0  0  0  0  0  0  0  0  0  0
   45.7328    0.5091    7.0236 H   0  0  0  0  0  0  0  0  0  0  0  0
   48.1628    3.8887    5.9886 H   0  0  0  0  0  0  0  0  0  0  0  0
   47.4526    1.5473    5.5873 H   0  0  0  0  0  0  0  0  0  0  0  0
  2  1  1  0
  3  1  1  0
  4  3  1  0
  5  2  2  3
  6  1  1  0
  7  8  1  0
  8  6  1  0
  9  2  1  0
 10  4  2  0
 11  7  2  0
 12 10  1  0
 13 11  1  0
  4  7  1  0
 12 13  2  0
 15 14  2  0
 16 14  2  0
 17 14  1  0
 18 14  1  0
 20 19  1  0
 21 19  1  0
 22 21  1  0
 23 20  2  3
 24 19  1  0
 25 26  1  0
 26 24  1  0
 27 20  1  0
 28 22  2  0
 29 25  2  0
 30 28  1  0
 31 29  1  0
 22 25  1  0
 30 31  2  0
  3 32  1  0
  3 33  1  0
  5 34  1  0
  6 35  1  0
  6 36  1  0
  8 37  1  0
  8 38  1  0
  9 39  1  0
  9 40  1  0
 10 41  1  0
 11 42  1  0
 12 43  1  0
 13 44  1  0
 17 45  1  0
 18 46  1  0
 21 47  1  0
 21 48  1  0
 23 49  1  0
 24 50  1  0
 24 51  1  0
 26 52  1  0
 26 53  1  0
 27 54  1  0
 27 55  1  0
 28 56  1  0
 29 57  1  0
 30 58  1  0
 31 59  1  0
M  END
> <Uni-Dock RESULT> 
ENERGY=   -7.983  LOWER_BOUND=    0.000  UPPER_BOUND=    0.000
INTER + INTRA:          -7.983
INTER:                  -7.983
INTRA:                   0.000
UNBOUND:                 0.000

$$$$

     RDKit          3D

 59 60  0  0  0  0  0  0  0  0999 V2000
   44.4310    5.7608   12.1602 N   0  0  0  0  0  0  0  0  0  0  0  0
   43.1446    5.3256   12.0699 C   0  0  0  0  0  0  0  0  0  0  0  0
   44.7649    7.1870   12.2609 C   0  0  0  0  0  0  0  0  0  0  0  0
   46.1168    7.4500   12.8994 C   0  0  0  0  0  0  0  0  0  0  0  0
   42.7130    4.1481   12.3583 N   0  0  0  0  0  0  0  0  0  0  0  0
   45.5674    4.8883   11.8634 C   0  0  0  0  0  0  0  0  0  0  0  0
   46.9988    6.4061   13.2347 C   0  0  0  0  0  0  0  0  0  0  0  0
   46.5939    4.9758   12.9898 C   0  0  0  0  0  0  0  0  0  0  0  0
   42.2352    6.2214   11.6341 N   0  0  0  0  0  0  0  0  0  0  0  0
   46.5047    8.7760   13.1510 C   0  0  0  0  0  0  0  0  0  0  0  0
   48.2295    6.6967   13.8388 C   0  0  0  0  0  0  0  0  0  0  0  0
   47.7382    9.0575   13.7392 C   0  0  0  0  0  0  0  0  0  0  0  0
   48.5982    8.0184   14.0851 C   0  0  0  0  0  0  0  0  0  0  0  0
   45.8525    6.0785   12.5594 S   0  0  0  0  0  0  0  0  0  0  0  0
   45.8065    5.7680   11.1533 O   0  0  0  0  0  0  0  0  0  0  0  0
   46.4897    5.2437   13.5456 O   0  0  0  0  0  0  0  0  0  0  0  0
   46.4794    7.5448   12.7332 O   0  0  0  0  0  0  0  0  0  0  0  0
   44.3363    6.3344   13.0170 O   0  0  0  0  0  0  0  0  0  0  0  0
   46.7488    7.4585   13.0822 N   0  0  0  0  0  0  0  0  0  0  0  0
   47.8623    8.0635   13.5955 C   0  0  0  0  0  0  0  0  0  0  0  0
   46.4421    6.0805   13.5208 C   0  0  0  0  0  0  0  0  0  0  0  0
   45.2829    5.4374   12.7846 C   0  0  0  0  0  0  0  0  0  0  0  0
   47.9792    9.2599   14.0505 N   0  0  0  0  0  0  0  0  0  0  0  0
   45.5581    8.2461   12.7457 C   0  0  0  0  0  0  0  0  0  0  0  0
   44.4852    6.1563   11.8793 C   0  0  0  0  0  0  0  0  0  0  0  0
   44.8038    7.5962   11.5870 C   0  0  0  0  0  0  0  0  0  0  0  0
   48.9769    7.3030   13.5818 N   0  0  0  0  0  0  0  0  0  0  0  0
   44.9832    4.0876   13.0325 C   0  0  0  0  0  0  0  0  0  0  0  0
   43.4304    5.5167   11.2139 C   0  0  0  0  0  0  0  0  0  0  0  0
   43.9226    3.4613   12.3775 C   0  0  0  0  0  0  0  0  0  0  0  0
   43.1488    4.1749   11.4664 C   0  0  0  0  0  0  0  0  0  0  0  0
   44.7619    7.6266   11.2560 H   0  0  0  0  0  0  0  0  0  0  0  0
   44.0097    7.7001   12.8694 H   0  0  0  0  0  0  0  0  0  0  0  0
   43.4862    3.5995   12.7355 H   0  0  0  0  0  0  0  0  0  0  0  0
   45.2660    3.8436   11.7319 H   0  0  0  0  0  0  0  0  0  0  0  0
   46.0161    5.1987   10.9103 H   0  0  0  0  0  0  0  0  0  0  0  0
   47.4705    4.3752   12.7208 H   0  0  0  0  0  0  0  0  0  0  0  0
   46.1728    4.5693   13.9174 H   0  0  0  0  0  0  0  0  0  0  0  0
   41.3460    5.7435   11.5194 H   0  0  0  0  0  0  0  0  0  0  0  0
   42.5064    6.6584   10.7641 H   0  0  0  0  0  0  0  0  0  0  0  0
   45.8404    9.5990   12.8955 H   0  0  0  0  0  0  0  0  0  0  0  0
   48.9069    5.8939   14.1210 H   0  0  0  0  0  0  0  0  0  0  0  0
   48.0252   10.0876   13.9339 H   0  0  0  0  0  0  0  0  0  0  0  0
   49.5552    8.2374   14.5513 H   0  0  0  0  0  0  0  0  0  0  0  0
   46.7672    7.6274   13.6660 H   0  0  0  0  0  0  0  0  0  0  0  0
   43.8453    6.6458   12.2285 H   0  0  0  0  0  0  0  0  0  0  0  0
   46.2051    6.0963   14.5922 H   0  0  0  0  0  0  0  0  0  0  0  0
   47.3170    5.4367   13.3711 H   0  0  0  0  0  0  0  0  0  0  0  0
   47.0757    9.7300   14.0337 H   0  0  0  0  0  0  0  0  0  0  0  0
   44.9154    8.3418   13.6301 H   0  0  0  0  0  0  0  0  0  0  0  0
   45.8350    9.2581   12.4274 H   0  0  0  0  0  0  0  0  0  0  0  0
   45.4120    7.6364   10.6749 H   0  0  0  0  0  0  0  0  0  0  0  0
   43.8812    8.1590   11.4037 H   0  0  0  0  0  0  0  0  0  0  0  0
   49.1099    6.8462   12.6886 H   0  0  0  0  0  0  0  0  0  0  0  0
   49.7756    7.8873   13.8087 H   0  0  0  0  0  0  0  0  0  0  0  0
   45.5812    3.5149   13.7387 H   0  0  0  0  0  0  0  0  0  0  0  0
   42.8226    6.0617   10.4953 H   0  0  0  0  0  0  0  0  0  0  0  0
   43.7028    2.4154   12.5754 H   0  0  0  0  0  0  0  0  0  0  0  0
   42.3266    3.6857   10.9506 H   0  0  0  0  0  0  0  0  0  0  0  0
  2  1  1  0
  3  1  1  0
  4  3  1  0
  5  2  2  3
  6  1  1  0
  7  8  1  0
  8  6  1  0
  9  2  1  0
 10  4  2  0
 11  7  2  0
 12 10  1  0
 13 11  1  0
  4  7  1  0
 12 13  2  0
 15 14  2  0
 16 14  2  0
 17 14  1  0
 18 14  1  0
 20 19  1  0
 21 19  1  0
 22 21  1  0
 23 20  2  3
 24 19  1  0
 25 26  1  0
 26 24  1  0
 27 20  1  0
 28 22  2  0
 29 25  2  0
 30 28  1  0
 31 29  1  0
 22 25  1  0
 30 31  2  0
  3 32  1  0
  3 33  1  0
  5 34  1  0
  6 35  1  0
  6 36  1  0
  8 37  1  0
  8 38  1  0
  9 39  1  0
  9 40  1  0
 10 41  1  0
 11 42  1  0
 12 43  1  0
 13 44  1  0
 17 45  1  0
 18 46  1  0
 21 47  1  0
 21 48  1  0
 23 49  1  0
 24 50  1  0
 24 51  1  0
 26 52  1  0
 26 53  1  0
 27 54  1  0
 27 55  1  0
 28 56  1  0
 29 57  1  0
 30 58  1  0
 31 59  1  0
M  END
> <Uni-Dock RESULT> 
ENERGY=   -6.863  LOWER_BOUND=    3.926  UPPER_BOUND=    5.959
INTER + INTRA:          -6.863
INTER:                  -6.863
INTRA:                   0.000
UNBOUND:                 0.000

$$$$

     RDKit          3D

 59 60  0  0  0  0  0  0  0  0999 V2000
   44.8435    4.8560   12.3124 N   0  0  0  0  0  0  0  0  0  0  0  0
   44.9934    3.5296   12.0464 C   0  0  0  0  0  0  0  0  0  0  0  0
   45.9312    5.6644   12.8770 C   0  0  0  0  0  0  0  0  0  0  0  0
   45.7979    7.1485   12.5868 C   0  0  0  0  0  0  0  0  0  0  0  0
   44.2891    2.8287   11.2286 N   0  0  0  0  0  0  0  0  0  0  0  0
   43.5285    5.4968   12.3437 C   0  0  0  0  0  0  0  0  0  0  0  0
   44.6646    7.6844   11.9475 C   0  0  0  0  0  0  0  0  0  0  0  0
   43.5539    6.7696   11.5013 C   0  0  0  0  0  0  0  0  0  0  0  0
   45.9795    2.8906   12.7085 N   0  0  0  0  0  0  0  0  0  0  0  0
   46.8309    8.0148   12.9801 C   0  0  0  0  0  0  0  0  0  0  0  0
   44.5940    9.0591   11.6850 C   0  0  0  0  0  0  0  0  0  0  0  0
   46.7458    9.3844   12.7281 C   0  0  0  0  0  0  0  0  0  0  0  0
   45.6296    9.9052   12.0787 C   0  0  0  0  0  0  0  0  0  0  0  0
   44.6441    6.3524   12.2684 S   0  0  0  0  0  0  0  0  0  0  0  0
   43.9198    5.8042   13.3866 O   0  0  0  0  0  0  0  0  0  0  0  0
   44.0137    6.9253   11.1066 O   0  0  0  0  0  0  0  0  0  0  0  0
   45.6665    7.4581   12.8212 O   0  0  0  0  0  0  0  0  0  0  0  0
   45.6589    5.2094   11.7811 O   0  0  0  0  0  0  0  0  0  0  0  0
   45.5999    7.7706   12.5053 N   0  0  0  0  0  0  0  0  0  0  0  0
   45.8111    9.1201   12.4447 C   0  0  0  0  0  0  0  0  0  0  0  0
   44.7264    7.1573   11.4826 C   0  0  0  0  0  0  0  0  0  0  0  0
   44.4260    5.6901   11.7207 C   0  0  0  0  0  0  0  0  0  0  0  0
   46.9204    9.7579   12.5666 N   0  0  0  0  0  0  0  0  0  0  0  0
   46.6489    6.8712   12.9972 C   0  0  0  0  0  0  0  0  0  0  0  0
   45.0551    4.9573   12.7404 C   0  0  0  0  0  0  0  0  0  0  0  0
   46.0259    5.6441   13.6604 C   0  0  0  0  0  0  0  0  0  0  0  0
   44.6966    9.8600   12.2682 N   0  0  0  0  0  0  0  0  0  0  0  0
   43.5076    5.0380   10.8814 C   0  0  0  0  0  0  0  0  0  0  0  0
   44.7378    3.6053   12.9295 C   0  0  0  0  0  0  0  0  0  0  0  0
   43.2073    3.6882   11.0663 C   0  0  0  0  0  0  0  0  0  0  0  0
   43.8200    2.9734   12.0919 C   0  0  0  0  0  0  0  0  0  0  0  0
   45.9552    5.5220   13.9643 H   0  0  0  0  0  0  0  0  0  0  0  0
   46.8907    5.3338   12.4597 H   0  0  0  0  0  0  0  0  0  0  0  0
   43.6314    3.4457   10.7514 H   0  0  0  0  0  0  0  0  0  0  0  0
   42.7359    4.8372   11.9747 H   0  0  0  0  0  0  0  0  0  0  0  0
   43.2704    5.7310   13.3851 H   0  0  0  0  0  0  0  0  0  0  0  0
   42.5865    7.2768   11.5924 H   0  0  0  0  0  0  0  0  0  0  0  0
   43.7109    6.5206   10.4448 H   0  0  0  0  0  0  0  0  0  0  0  0
   45.9168    1.8992   12.4952 H   0  0  0  0  0  0  0  0  0  0  0  0
   45.9315    3.0319   13.7080 H   0  0  0  0  0  0  0  0  0  0  0  0
   47.7142    7.6227   13.4800 H   0  0  0  0  0  0  0  0  0  0  0  0
   43.7312    9.4774   11.1715 H   0  0  0  0  0  0  0  0  0  0  0  0
   47.5541   10.0443   13.0325 H   0  0  0  0  0  0  0  0  0  0  0  0
   45.5676   10.9710   11.8747 H   0  0  0  0  0  0  0  0  0  0  0  0
   45.9344    8.0111   12.0582 H   0  0  0  0  0  0  0  0  0  0  0  0
   45.8568    4.6480   12.5591 H   0  0  0  0  0  0  0  0  0  0  0  0
   45.2087    7.2567   10.5018 H   0  0  0  0  0  0  0  0  0  0  0  0
   43.7645    7.6825   11.4482 H   0  0  0  0  0  0  0  0  0  0  0  0
   47.6915    9.1008   12.6717 H   0  0  0  0  0  0  0  0  0  0  0  0
   47.3059    6.5800   12.1677 H   0  0  0  0  0  0  0  0  0  0  0  0
   47.2698    7.3691   13.7513 H   0  0  0  0  0  0  0  0  0  0  0  0
   45.4878    5.9421   14.5688 H   0  0  0  0  0  0  0  0  0  0  0  0
   46.8256    4.9534   13.9519 H   0  0  0  0  0  0  0  0  0  0  0  0
   43.9503    9.5700   12.8871 H   0  0  0  0  0  0  0  0  0  0  0  0
   44.9254   10.8382   12.4156 H   0  0  0  0  0  0  0  0  0  0  0  0
   43.0171    5.5838   10.0778 H   0  0  0  0  0  0  0  0  0  0  0  0
   45.2050    3.0378   13.7311 H   0  0  0  0  0  0  0  0  0  0  0  0
   42.4924    3.1956   10.4124 H   0  0  0  0  0  0  0  0  0  0  0  0
   43.5814    1.9235   12.2408 H   0  0  0  0  0  0  0  0  0  0  0  0
  2  1  1  0
  3  1  1  0
  4  3  1  0
  5  2  2  3
  6  1  1  0
  7  8  1  0
  8  6  1  0
  9  2  1  0
 10  4  2  0
 11  7  2  0
 12 10  1  0
 13 11  1  0
  4  7  1  0
 12 13  2  0
 15 14  2  0
 16 14  2  0
 17 14  1  0
 18 14  1  0
 20 19  1  0
 21 19  1  0
 22 21  1  0
 23 20  2  3
 24 19  1  0
 25 26  1  0
 26 24  1  0
 27 20  1  0
 28 22  2  0
 29 25  2  0
 30 28  1  0
 31 29  1  0
 22 25  1  0
 30 31  2  0
  3 32  1  0
  3 33  1  0
  5 34  1  0
  6 35  1  0
  6 36  1  0
  8 37  1  0
  8 38  1  0
  9 39  1  0
  9 40  1  0
 10 41  1  0
 11 42  1  0
 12 43  1  0
 13 44  1  0
 17 45  1  0
 18 46  1  0
 21 47  1  0
 21 48  1  0
 23 49  1  0
 24 50  1  0
 24 51  1  0
 26 52  1  0
 26 53  1  0
 27 54  1  0
 27 55  1  0
 28 56  1  0
 29 57  1  0
 30 58  1  0
 31 59  1  0
M  END
> <Uni-Dock RESULT> 
ENERGY=   -6.837  LOWER_BOUND=    3.544  UPPER_BOUND=    5.215
INTER + INTRA:          -6.837
INTER:                  -6.837
INTRA:                   0.000
UNBOUND:                 0.000

$$$$

     RDKit          3D

 59 60  0  0  0  0  0  0  0  0999 V2000
   47.2137    6.9053   13.3868 N   0  0  0  0  0  0  0  0  0  0  0  0
   48.1170    7.4066   14.2729 C   0  0  0  0  0  0  0  0  0  0  0  0
   46.7354    5.5194   13.4629 C   0  0  0  0  0  0  0  0  0  0  0  0
   45.3848    5.3065   12.8032 C   0  0  0  0  0  0  0  0  0  0  0  0
   48.3126    8.6487   14.5463 N   0  0  0  0  0  0  0  0  0  0  0  0
   46.8876    7.5948   12.1382 C   0  0  0  0  0  0  0  0  0  0  0  0
   44.7370    6.3278   12.0839 C   0  0  0  0  0  0  0  0  0  0  0  0
   45.3722    7.6900   11.9812 C   0  0  0  0  0  0  0  0  0  0  0  0
   48.8810    6.5079   14.9271 N   0  0  0  0  0  0  0  0  0  0  0  0
   44.7692    4.0482   12.9026 C   0  0  0  0  0  0  0  0  0  0  0  0
   43.4825    6.0896   11.5067 C   0  0  0  0  0  0  0  0  0  0  0  0
   43.5267    3.8150   12.3122 C   0  0  0  0  0  0  0  0  0  0  0  0
   42.8832    4.8358   11.6174 C   0  0  0  0  0  0  0  0  0  0  0  0
   46.0023    6.5788   12.5460 S   0  0  0  0  0  0  0  0  0  0  0  0
   47.1811    6.5593   11.7179 O   0  0  0  0  0  0  0  0  0  0  0  0
   44.9594    7.5665   12.4350 O   0  0  0  0  0  0  0  0  0  0  0  0
   45.2851    5.1480   12.4386 O   0  0  0  0  0  0  0  0  0  0  0  0
   46.5154    6.5539   14.0658 O   0  0  0  0  0  0  0  0  0  0  0  0
   44.8605    5.2913   12.4060 N   0  0  0  0  0  0  0  0  0  0  0  0
   43.7040    4.7363   11.9329 C   0  0  0  0  0  0  0  0  0  0  0  0
   44.8908    6.7528   12.6257 C   0  0  0  0  0  0  0  0  0  0  0  0
   46.2558    7.2969   13.0003 C   0  0  0  0  0  0  0  0  0  0  0  0
   43.1086    3.6717   12.3384 N   0  0  0  0  0  0  0  0  0  0  0  0
   45.7301    4.5422   13.3193 C   0  0  0  0  0  0  0  0  0  0  0  0
   47.3474    6.4528   13.2622 C   0  0  0  0  0  0  0  0  0  0  0  0
   47.1860    4.9640   13.1289 C   0  0  0  0  0  0  0  0  0  0  0  0
   43.1523    5.3842   10.8857 N   0  0  0  0  0  0  0  0  0  0  0  0
   46.4282    8.6865   13.1111 C   0  0  0  0  0  0  0  0  0  0  0  0
   48.5934    7.0016   13.5947 C   0  0  0  0  0  0  0  0  0  0  0  0
   47.6677    9.2254   13.4569 C   0  0  0  0  0  0  0  0  0  0  0  0
   48.7503    8.3831   13.6955 C   0  0  0  0  0  0  0  0  0  0  0  0
   47.4678    4.8614   12.9793 H   0  0  0  0  0  0  0  0  0  0  0  0
   46.6373    5.2207   14.5142 H   0  0  0  0  0  0  0  0  0  0  0  0
   47.6281    9.2077   14.0364 H   0  0  0  0  0  0  0  0  0  0  0  0
   47.3174    8.6013   12.0947 H   0  0  0  0  0  0  0  0  0  0  0  0
   47.3262    7.0392   11.2987 H   0  0  0  0  0  0  0  0  0  0  0  0
   45.1421    8.1424   11.0097 H   0  0  0  0  0  0  0  0  0  0  0  0
   44.9504    8.3310   12.7650 H   0  0  0  0  0  0  0  0  0  0  0  0
   49.5712    7.0141   15.4744 H   0  0  0  0  0  0  0  0  0  0  0  0
   49.3429    5.8623   14.3017 H   0  0  0  0  0  0  0  0  0  0  0  0
   45.2543    3.2426   13.4500 H   0  0  0  0  0  0  0  0  0  0  0  0
   42.9657    6.8807   10.9681 H   0  0  0  0  0  0  0  0  0  0  0  0
   43.0577    2.8385   12.4003 H   0  0  0  0  0  0  0  0  0  0  0  0
   41.9113    4.6565   11.1651 H   0  0  0  0  0  0  0  0  0  0  0  0
   44.3660    5.2607   12.7584 H   0  0  0  0  0  0  0  0  0  0  0  0
   47.3878    6.1082   14.0689 H   0  0  0  0  0  0  0  0  0  0  0  0
   44.1866    7.0030   13.4293 H   0  0  0  0  0  0  0  0  0  0  0  0
   44.5738    7.2748   11.7150 H   0  0  0  0  0  0  0  0  0  0  0  0
   43.5983    3.2821   13.1421 H   0  0  0  0  0  0  0  0  0  0  0  0
   45.4053    4.7033   14.3552 H   0  0  0  0  0  0  0  0  0  0  0  0
   45.6738    3.4658   13.1190 H   0  0  0  0  0  0  0  0  0  0  0  0
   47.5343    4.6674   12.1318 H   0  0  0  0  0  0  0  0  0  0  0  0
   47.8054    4.4475   13.8713 H   0  0  0  0  0  0  0  0  0  0  0  0
   43.8399    5.6109   10.1787 H   0  0  0  0  0  0  0  0  0  0  0  0
   42.4131    4.8078   10.4958 H   0  0  0  0  0  0  0  0  0  0  0  0
   45.5929    9.3584   12.9238 H   0  0  0  0  0  0  0  0  0  0  0  0
   49.4483    6.3544   13.7773 H   0  0  0  0  0  0  0  0  0  0  0  0
   47.7894   10.3025   13.5362 H   0  0  0  0  0  0  0  0  0  0  0  0
   49.7179    8.8025   13.9581 H   0  0  0  0  0  0  0  0  0  0  0  0
  2  1  1  0
  3  1  1  0
  4  3  1  0
  5  2  2  3
  6  1  1  0
  7  8  1  0
  8  6  1  0
  9  2  1  0
 10  4  2  0
 11  7  2  0
 12 10  1  0
 13 11  1  0
  4  7  1  0
 12 13  2  0
 15 14  2  0
 16 14  2  0
 17 14  1  0
 18 14  1  0
 20 19  1  0
 21 19  1  0
 22 21  1  0
 23 20  2  3
 24 19  1  0
 25 26  1  0
 26 24  1  0
 27 20  1  0
 28 22  2  0
 29 25  2  0
 30 28  1  0
 31 29  1  0
 22 25  1  0
 30 31  2  0
  3 32  1  0
  3 33  1  0
  5 34  1  0
  6 35  1  0
  6 36  1  0
  8 37  1  0
  8 38  1  0
  9 39  1  0
  9 40  1  0
 10 41  1  0
 11 42  1  0
 12 43  1  0
 13 44  1  0
 17 45  1  0
 18 46  1  0
 21 47  1  0
 21 48  1  0
 23 49  1  0
 24 50  1  0
 24 51  1  0
 26 52  1  0
 26 53  1  0
 27 54  1  0
 27 55  1  0
 28 56  1  0
 29 57  1  0
 30 58  1  0
 31 59  1  0
M  END
> <Uni-Dock RESULT> 
ENERGY=   -6.391  LOWER_BOUND=    4.187  UPPER_BOUND=    5.742
INTER + INTRA:          -6.391
INTER:                  -6.391
INTRA:                   0.000
UNBOUND:                 0.000

$$$$

     RDKit          3D

 59 60  0  0  0  0  0  0  0  0999 V2000
   47.1951    7.9307   12.5178 N   0  0  0  0  0  0  0  0  0  0  0  0
   48.2581    8.6617   12.0841 C   0  0  0  0  0  0  0  0  0  0  0  0
   45.8396    8.1428   11.9952 C   0  0  0  0  0  0  0  0  0  0  0  0
   44.9350    6.9330   12.1459 C   0  0  0  0  0  0  0  0  0  0  0  0
   49.4989    8.3300   12.1648 N   0  0  0  0  0  0  0  0  0  0  0  0
   47.2605    7.1088   13.7265 C   0  0  0  0  0  0  0  0  0  0  0  0
   45.3432    5.7786   12.8392 C   0  0  0  0  0  0  0  0  0  0  0  0
   46.7277    5.7096   13.4292 C   0  0  0  0  0  0  0  0  0  0  0  0
   47.9781    9.8514   11.5138 N   0  0  0  0  0  0  0  0  0  0  0  0
   43.6469    6.9722   11.5879 C   0  0  0  0  0  0  0  0  0  0  0  0
   44.4795    4.6793   12.9374 C   0  0  0  0  0  0  0  0  0  0  0  0
   42.7878    5.8789   11.7031 C   0  0  0  0  0  0  0  0  0  0  0  0
   43.2051    4.7328   12.3748 C   0  0  0  0  0  0  0  0  0  0  0  0
   46.1840    6.8603   12.8538 S   0  0  0  0  0  0  0  0  0  0  0  0
   46.3325    7.7501   13.9770 O   0  0  0  0  0  0  0  0  0  0  0  0
   46.6165    5.4861   12.8554 O   0  0  0  0  0  0  0  0  0  0  0  0
   44.6402    6.8494   12.4181 O   0  0  0  0  0  0  0  0  0  0  0  0
   46.8542    7.5999   11.5978 O   0  0  0  0  0  0  0  0  0  0  0  0
   44.5958    6.4075   12.3500 N   0  0  0  0  0  0  0  0  0  0  0  0
   43.5281    5.5543   12.3118 C   0  0  0  0  0  0  0  0  0  0  0  0
   45.9477    5.8234   12.4783 C   0  0  0  0  0  0  0  0  0  0  0  0
   47.0511    6.8461   12.6691 C   0  0  0  0  0  0  0  0  0  0  0  0
   42.5165    5.5811   11.5193 N   0  0  0  0  0  0  0  0  0  0  0  0
   44.5704    7.6707   11.6050 C   0  0  0  0  0  0  0  0  0  0  0  0
   46.8111    8.2266   12.5743 C   0  0  0  0  0  0  0  0  0  0  0  0
   45.4152    8.7238   12.3198 C   0  0  0  0  0  0  0  0  0  0  0  0
   43.5399    4.5902   13.2558 N   0  0  0  0  0  0  0  0  0  0  0  0
   48.3576    6.3986   12.9258 C   0  0  0  0  0  0  0  0  0  0  0  0
   47.8605    9.1351   12.7686 C   0  0  0  0  0  0  0  0  0  0  0  0
   49.4003    7.3082   13.1037 C   0  0  0  0  0  0  0  0  0  0  0  0
   49.1508    8.6758   13.0281 C   0  0  0  0  0  0  0  0  0  0  0  0
   45.3817    8.9889   12.5220 H   0  0  0  0  0  0  0  0  0  0  0  0
   45.8904    8.3827   10.9257 H   0  0  0  0  0  0  0  0  0  0  0  0
   49.5612    7.3877   12.5509 H   0  0  0  0  0  0  0  0  0  0  0  0
   48.2794    7.0293   14.1203 H   0  0  0  0  0  0  0  0  0  0  0  0
   46.6648    7.5867   14.5156 H   0  0  0  0  0  0  0  0  0  0  0  0
   46.7144    5.1283   14.3584 H   0  0  0  0  0  0  0  0  0  0  0  0
   47.3853    5.1983   12.7157 H   0  0  0  0  0  0  0  0  0  0  0  0
   48.8546   10.3313   11.3297 H   0  0  0  0  0  0  0  0  0  0  0  0
   47.3836   10.4291   12.0919 H   0  0  0  0  0  0  0  0  0  0  0  0
   43.3087    7.8565   11.0516 H   0  0  0  0  0  0  0  0  0  0  0  0
   44.7962    3.7753   13.4526 H   0  0  0  0  0  0  0  0  0  0  0  0
   41.7949    5.9189   11.2625 H   0  0  0  0  0  0  0  0  0  0  0  0
   42.5389    3.8779   12.4568 H   0  0  0  0  0  0  0  0  0  0  0  0
   44.5015    6.0523   11.8656 H   0  0  0  0  0  0  0  0  0  0  0  0
   46.7930    8.5635   11.7635 H   0  0  0  0  0  0  0  0  0  0  0  0
   46.1678    5.2422   11.5738 H   0  0  0  0  0  0  0  0  0  0  0  0
   45.9826    5.1461   13.3399 H   0  0  0  0  0  0  0  0  0  0  0  0
   42.6255    6.3312   10.8388 H   0  0  0  0  0  0  0  0  0  0  0  0
   44.9308    7.5043   10.5818 H   0  0  0  0  0  0  0  0  0  0  0  0
   43.5494    8.0640   11.5358 H   0  0  0  0  0  0  0  0  0  0  0  0
   44.9587    8.9783   13.2844 H   0  0  0  0  0  0  0  0  0  0  0  0
   45.4421    9.6328   11.7079 H   0  0  0  0  0  0  0  0  0  0  0  0
   43.7594    4.9622   14.1710 H   0  0  0  0  0  0  0  0  0  0  0  0
   42.6362    4.1276   13.2636 H   0  0  0  0  0  0  0  0  0  0  0  0
   48.5682    5.3329   12.9919 H   0  0  0  0  0  0  0  0  0  0  0  0
   47.6770   10.2060   12.7183 H   0  0  0  0  0  0  0  0  0  0  0  0
   50.4063    6.9496   13.3051 H   0  0  0  0  0  0  0  0  0  0  0  0
   49.9613    9.3852   13.1735 H   0  0  0  0  0  0  0  0  0  0  0  0
  2  1  1  0
  3  1  1  0
  4  3  1  0
  5  2  2  3
  6  1  1  0
  7  8  1  0
  8  6  1  0
  9  2  1  0
 10  4  2  0
 11  7  2  0
 12 10  1  0
 13 11  1  0
  4  7  1  0
 12 13  2  0
 15 14  2  0
 16 14  2  0
 17 14  1  0
 18 14  1  0
 20 19  1  0
 21 19  1  0
 22 21  1  0
 23 20  2  3
 24 19  1  0
 25 26  1  0
 26 24  1  0
 27 20  1  0
 28 22  2  0
 29 25  2  0
 30 28  1  0
 31 29  1  0
 22 25  1  0
 30 31  2  0
  3 32  1  0
  3 33  1  0
  5 34  1  0
  6 35  1  0
  6 36  1  0
  8 37  1  0
  8 38  1  0
  9 39  1  0
  9 40  1  0
 10 41  1  0
 11 42  1  0
 12 43  1  0
 13 44  1  0
 17 45  1  0
 18 46  1  0
 21 47  1  0
 21 48  1  0
 23 49  1  0
 24 50  1  0
 24 51  1  0
 26 52  1  0
 26 53  1  0
 27 54  1  0
 27 55  1  0
 28 56  1  0
 29 57  1  0
 30 58  1  0
 31 59  1  0
M  END
> <Uni-Dock RESULT> 
ENERGY=   -6.186  LOWER_BOUND=    4.640  UPPER_BOUND=    6.023
INTER + INTRA:          -6.186
INTER:                  -6.186
INTRA:                   0.000
UNBOUND:                 0.000

$$$$

     RDKit          3D

 59 60  0  0  0  0  0  0  0  0999 V2000
   44.1535    3.8671   10.6935 N   0  0  0  0  0  0  0  0  0  0  0  0
   43.0533    3.9462   11.4907 C   0  0  0  0  0  0  0  0  0  0  0  0
   44.5762    2.6053   10.0733 C   0  0  0  0  0  0  0  0  0  0  0  0
   45.4258    2.7951    8.8297 C   0  0  0  0  0  0  0  0  0  0  0  0
   42.3807    5.0089   11.7636 N   0  0  0  0  0  0  0  0  0  0  0  0
   45.1505    4.9367   10.6394 C   0  0  0  0  0  0  0  0  0  0  0  0
   45.8583    4.0664    8.4090 C   0  0  0  0  0  0  0  0  0  0  0  0
   45.4494    5.2912    9.1851 C   0  0  0  0  0  0  0  0  0  0  0  0
   42.6297    2.7934   12.0482 N   0  0  0  0  0  0  0  0  0  0  0  0
   45.8028    1.6666    8.0837 C   0  0  0  0  0  0  0  0  0  0  0  0
   46.6268    4.1940    7.2441 C   0  0  0  0  0  0  0  0  0  0  0  0
   46.5806    1.8011    6.9332 C   0  0  0  0  0  0  0  0  0  0  0  0
   46.9896    3.0640    6.5127 C   0  0  0  0  0  0  0  0  0  0  0  0
   45.1929    3.9836    9.6039 S   0  0  0  0  0  0  0  0  0  0  0  0
   45.8377    4.0424   10.8909 O   0  0  0  0  0  0  0  0  0  0  0  0
   45.1105    5.0988    8.6955 O   0  0  0  0  0  0  0  0  0  0  0  0
   45.8310    2.7685    8.7736 O   0  0  0  0  0  0  0  0  0  0  0  0
   43.7087    3.4336    9.8651 O   0  0  0  0  0  0  0  0  0  0  0  0
   45.8672    2.9745    8.3759 N   0  0  0  0  0  0  0  0  0  0  0  0
   46.6259    2.7580    7.2593 C   0  0  0  0  0  0  0  0  0  0  0  0
   45.1958    4.2839    8.5168 C   0  0  0  0  0  0  0  0  0  0  0  0
   44.5085    4.4895    9.8528 C   0  0  0  0  0  0  0  0  0  0  0  0
   46.6511    1.7182    6.5041 N   0  0  0  0  0  0  0  0  0  0  0  0
   45.1397    1.8705    9.0110 C   0  0  0  0  0  0  0  0  0  0  0  0
   44.3977    3.4579   10.7995 C   0  0  0  0  0  0  0  0  0  0  0  0
   45.0120    2.1158   10.5134 C   0  0  0  0  0  0  0  0  0  0  0  0
   47.4733    3.7608    6.9476 N   0  0  0  0  0  0  0  0  0  0  0  0
   43.9452    5.7431   10.1432 C   0  0  0  0  0  0  0  0  0  0  0  0
   43.7625    3.6976   12.0257 C   0  0  0  0  0  0  0  0  0  0  0  0
   43.3016    5.9703   11.3600 C   0  0  0  0  0  0  0  0  0  0  0  0
   43.2132    4.9488   12.3017 C   0  0  0  0  0  0  0  0  0  0  0  0
   45.1515    2.0231   10.8036 H   0  0  0  0  0  0  0  0  0  0  0  0
   43.6925    2.0243    9.7809 H   0  0  0  0  0  0  0  0  0  0  0  0
   42.7663    5.7867   11.2276 H   0  0  0  0  0  0  0  0  0  0  0  0
   44.8226    5.8376   11.1690 H   0  0  0  0  0  0  0  0  0  0  0  0
   46.0637    4.5993   11.1476 H   0  0  0  0  0  0  0  0  0  0  0  0
   46.2488    6.0406    9.1578 H   0  0  0  0  0  0  0  0  0  0  0  0
   44.5598    5.7232    8.7108 H   0  0  0  0  0  0  0  0  0  0  0  0
   41.8722    3.0087   12.6902 H   0  0  0  0  0  0  0  0  0  0  0  0
   43.3668    2.3040   12.5365 H   0  0  0  0  0  0  0  0  0  0  0  0
   45.4835    0.6735    8.3933 H   0  0  0  0  0  0  0  0  0  0  0  0
   46.9461    5.1753    6.9005 H   0  0  0  0  0  0  0  0  0  0  0  0
   46.8617    0.9208    6.3611 H   0  0  0  0  0  0  0  0  0  0  0  0
   47.5882    3.1693    5.6116 H   0  0  0  0  0  0  0  0  0  0  0  0
   45.6043    2.9118    7.8313 H   0  0  0  0  0  0  0  0  0  0  0  0
   43.7421    2.8866   10.6772 H   0  0  0  0  0  0  0  0  0  0  0  0
   44.4446    4.3819    7.7228 H   0  0  0  0  0  0  0  0  0  0  0  0
   45.9264    5.0935    8.4015 H   0  0  0  0  0  0  0  0  0  0  0  0
   45.9589    1.0407    6.8191 H   0  0  0  0  0  0  0  0  0  0  0  0
   44.1526    1.7606    8.5442 H   0  0  0  0  0  0  0  0  0  0  0  0
   45.6746    0.9224    8.8800 H   0  0  0  0  0  0  0  0  0  0  0  0
   46.0026    2.0829   10.9837 H   0  0  0  0  0  0  0  0  0  0  0  0
   44.4020    1.3182   10.9530 H   0  0  0  0  0  0  0  0  0  0  0  0
   47.9851    4.0865    7.7575 H   0  0  0  0  0  0  0  0  0  0  0  0
   48.1106    3.4393    6.2255 H   0  0  0  0  0  0  0  0  0  0  0  0
   44.0094    6.5531    9.4193 H   0  0  0  0  0  0  0  0  0  0  0  0
   43.6926    2.9095   12.7720 H   0  0  0  0  0  0  0  0  0  0  0  0
   42.8726    6.9457   11.5744 H   0  0  0  0  0  0  0  0  0  0  0  0
   42.7180    5.1272   13.2525 H   0  0  0  0  0  0  0  0  0  0  0  0
  2  1  1  0
  3  1  1  0
  4  3  1  0
  5  2  2  3
  6  1  1  0
  7  8  1  0
  8  6  1  0
  9  2  1  0
 10  4  2  0
 11  7  2  0
 12 10  1  0
 13 11  1  0
  4  7  1  0
 12 13  2  0
 15 14  2  0
 16 14  2  0
 17 14  1  0
 18 14  1  0
 20 19  1  0
 21 19  1  0
 22 21  1  0
 23 20  2  3
 24 19  1  0
 25 26  1  0
 26 24  1  0
 27 20  1  0
 28 22  2  0
 29 25  2  0
 30 28  1  0
 31 29  1  0
 22 25  1  0
 30 31  2  0
  3 32  1  0
  3 33  1  0
  5 34  1  0
  6 35  1  0
  6 36  1  0
  8 37  1  0
  8 38  1  0
  9 39  1  0
  9 40  1  0
 10 41  1  0
 11 42  1  0
 12 43  1  0
 13 44  1  0
 17 45  1  0
 18 46  1  0
 21 47  1  0
 21 48  1  0
 23 49  1  0
 24 50  1  0
 24 51  1  0
 26 52  1  0
 26 53  1  0
 27 54  1  0
 27 55  1  0
 28 56  1  0
 29 57  1  0
 30 58  1  0
 31 59  1  0
M  END
> <Uni-Dock RESULT> 
ENERGY=   -5.899  LOWER_BOUND=    0.882  UPPER_BOUND=    4.463
INTER + INTRA:          -5.899
INTER:                  -5.899
INTRA:                   0.000
UNBOUND:                 0.000

$$$$

     RDKit          3D

 59 60  0  0  0  0  0  0  0  0999 V2000
   45.7423    6.3864   12.7121 N   0  0  0  0  0  0  0  0  0  0  0  0
   45.2031    5.2636   13.2608 C   0  0  0  0  0  0  0  0  0  0  0  0
   44.9077    7.4764   12.1916 C   0  0  0  0  0  0  0  0  0  0  0  0
   45.6176    8.8176   12.1504 C   0  0  0  0  0  0  0  0  0  0  0  0
   45.7870    4.4508   14.0696 N   0  0  0  0  0  0  0  0  0  0  0  0
   47.1521    6.4615   12.3277 C   0  0  0  0  0  0  0  0  0  0  0  0
   46.9828    8.9486   12.4651 C   0  0  0  0  0  0  0  0  0  0  0  0
   47.7732    7.7381   12.8889 C   0  0  0  0  0  0  0  0  0  0  0  0
   43.9296    4.9788   12.9196 N   0  0  0  0  0  0  0  0  0  0  0  0
   44.8931    9.9603   11.7741 C   0  0  0  0  0  0  0  0  0  0  0  0
   47.5910   10.2107   12.4301 C   0  0  0  0  0  0  0  0  0  0  0  0
   45.5100   11.2108   11.7274 C   0  0  0  0  0  0  0  0  0  0  0  0
   46.8569   11.3358   12.0578 C   0  0  0  0  0  0  0  0  0  0  0  0
   46.4587    7.6834   12.4197 S   0  0  0  0  0  0  0  0  0  0  0  0
   46.6609    6.7664   11.3272 O   0  0  0  0  0  0  0  0  0  0  0  0
   47.5035    8.1060   13.3171 O   0  0  0  0  0  0  0  0  0  0  0  0
   45.7905    9.0215   11.8397 O   0  0  0  0  0  0  0  0  0  0  0  0
   45.2516    7.0889   13.2933 O   0  0  0  0  0  0  0  0  0  0  0  0
   46.0345    9.3202   12.0701 N   0  0  0  0  0  0  0  0  0  0  0  0
   46.3311   10.6432   11.8937 C   0  0  0  0  0  0  0  0  0  0  0  0
   46.8507    8.5471   13.0300 C   0  0  0  0  0  0  0  0  0  0  0  0
   46.5522    7.0604   13.0436 C   0  0  0  0  0  0  0  0  0  0  0  0
   45.5207   11.6394   11.8381 N   0  0  0  0  0  0  0  0  0  0  0  0
   44.6525    8.8422   11.9562 C   0  0  0  0  0  0  0  0  0  0  0  0
   45.4857    6.5085   12.3152 C   0  0  0  0  0  0  0  0  0  0  0  0
   44.6313    7.3988   11.4563 C   0  0  0  0  0  0  0  0  0  0  0  0
   47.6426   10.9116   11.7242 N   0  0  0  0  0  0  0  0  0  0  0  0
   47.3525    6.2121   13.8267 C   0  0  0  0  0  0  0  0  0  0  0  0
   45.2545    5.1266   12.3500 C   0  0  0  0  0  0  0  0  0  0  0  0
   47.1075    4.8394   13.8681 C   0  0  0  0  0  0  0  0  0  0  0  0
   46.0609    4.2968   13.1275 C   0  0  0  0  0  0  0  0  0  0  0  0
   44.5813    7.2228   11.1756 H   0  0  0  0  0  0  0  0  0  0  0  0
   44.0195    7.5950   12.8249 H   0  0  0  0  0  0  0  0  0  0  0  0
   46.7117    4.8196   14.2932 H   0  0  0  0  0  0  0  0  0  0  0  0
   47.7255    5.5976   12.6803 H   0  0  0  0  0  0  0  0  0  0  0  0
   47.2243    6.4491   11.2320 H   0  0  0  0  0  0  0  0  0  0  0  0
   48.8069    7.8177   12.5333 H   0  0  0  0  0  0  0  0  0  0  0  0
   47.7909    7.6997   13.9848 H   0  0  0  0  0  0  0  0  0  0  0  0
   43.6884    4.0739   13.3137 H   0  0  0  0  0  0  0  0  0  0  0  0
   43.7887    4.9676   11.9189 H   0  0  0  0  0  0  0  0  0  0  0  0
   43.8375    9.8814   11.5221 H   0  0  0  0  0  0  0  0  0  0  0  0
   48.6403   10.3231   12.6934 H   0  0  0  0  0  0  0  0  0  0  0  0
   44.9376   12.0889   11.4398 H   0  0  0  0  0  0  0  0  0  0  0  0
   47.3351   12.3115   12.0299 H   0  0  0  0  0  0  0  0  0  0  0  0
   45.9204    9.7236   12.5104 H   0  0  0  0  0  0  0  0  0  0  0  0
   44.6928    6.5569   12.6895 H   0  0  0  0  0  0  0  0  0  0  0  0
   46.6781    8.9436   14.0386 H   0  0  0  0  0  0  0  0  0  0  0  0
   47.9152    8.6607   12.7928 H   0  0  0  0  0  0  0  0  0  0  0  0
   44.5663   11.3230   12.0009 H   0  0  0  0  0  0  0  0  0  0  0  0
   44.1490    8.9304   12.9273 H   0  0  0  0  0  0  0  0  0  0  0  0
   44.0878    9.4450   11.2352 H   0  0  0  0  0  0  0  0  0  0  0  0
   45.0109    7.3530   10.4280 H   0  0  0  0  0  0  0  0  0  0  0  0
   43.5955    7.0399   11.4509 H   0  0  0  0  0  0  0  0  0  0  0  0
   48.0723   10.2830   11.0577 H   0  0  0  0  0  0  0  0  0  0  0  0
   47.7440   11.8764   11.4247 H   0  0  0  0  0  0  0  0  0  0  0  0
   48.1770    6.6202   14.4080 H   0  0  0  0  0  0  0  0  0  0  0  0
   44.4439    4.6900   11.7709 H   0  0  0  0  0  0  0  0  0  0  0  0
   47.7359    4.1929   14.4752 H   0  0  0  0  0  0  0  0  0  0  0  0
   45.8737    3.2266   13.1539 H   0  0  0  0  0  0  0  0  0  0  0  0
  2  1  1  0
  3  1  1  0
  4  3  1  0
  5  2  2  3
  6  1  1  0
  7  8  1  0
  8  6  1  0
  9  2  1  0
 10  4  2  0
 11  7  2  0
 12 10  1  0
 13 11  1  0
  4  7  1  0
 12 13  2  0
 15 14  2  0
 16 14  2  0
 17 14  1  0
 18 14  1  0
 20 19  1  0
 21 19  1  0
 22 21  1  0
 23 20  2  3
 24 19  1  0
 25 26  1  0
 26 24  1  0
 27 20  1  0
 28 22  2  0
 29 25  2  0
 30 28  1  0
 31 29  1  0
 22 25  1  0
 30 31  2  0
  3 32  1  0
  3 33  1  0
  5 34  1  0
  6 35  1  0
  6 36  1  0
  8 37  1  0
  8 38  1  0
  9 39  1  0
  9 40  1  0
 10 41  1  0
 11 42  1  0
 12 43  1  0
 13 44  1  0
 17 45  1  0
 18 46  1  0
 21 47  1  0
 21 48  1  0
 23 49  1  0
 24 50  1  0
 24 51  1  0
 26 52  1  0
 26 53  1  0
 27 54  1  0
 27 55  1  0
 28 56  1  0
 29 57  1  0
 30 58  1  0
 31 59  1  0
M  END
> <Uni-Dock RESULT> 
ENERGY=   -5.792  LOWER_BOUND=    4.589  UPPER_BOUND=    6.486
INTER + INTRA:          -5.792
INTER:                  -5.792
INTRA:                   0.000
UNBOUND:                 0.000

$$$$

     RDKit          3D

 59 60  0  0  0  0  0  0  0  0999 V2000
   47.6354    8.8305   12.5692 N   0  0  0  0  0  0  0  0  0  0  0  0
   48.1692    9.9010   11.9201 C   0  0  0  0  0  0  0  0  0  0  0  0
   46.2226    8.4579   12.4248 C   0  0  0  0  0  0  0  0  0  0  0  0
   45.9458    6.9974   12.7328 C   0  0  0  0  0  0  0  0  0  0  0  0
   49.4145   10.0957   11.6606 N   0  0  0  0  0  0  0  0  0  0  0  0
   48.3313    8.1659   13.6714 C   0  0  0  0  0  0  0  0  0  0  0  0
   46.9429    6.1383   13.2307 C   0  0  0  0  0  0  0  0  0  0  0  0
   48.3416    6.6570   13.4408 C   0  0  0  0  0  0  0  0  0  0  0  0
   47.3026   10.8498   11.5100 N   0  0  0  0  0  0  0  0  0  0  0  0
   44.6520    6.4915   12.5270 C   0  0  0  0  0  0  0  0  0  0  0  0
   46.6446    4.7927   13.4838 C   0  0  0  0  0  0  0  0  0  0  0  0
   44.3597    5.1539   12.7957 C   0  0  0  0  0  0  0  0  0  0  0  0
   45.3560    4.3051   13.2709 C   0  0  0  0  0  0  0  0  0  0  0  0
   47.2570    7.4647   13.0912 S   0  0  0  0  0  0  0  0  0  0  0  0
   47.3237    8.3965   14.1880 O   0  0  0  0  0  0  0  0  0  0  0  0
   48.1847    6.3786   12.9029 O   0  0  0  0  0  0  0  0  0  0  0  0
   45.7896    6.8173   13.0662 O   0  0  0  0  0  0  0  0  0  0  0  0
   47.2295    8.3444   11.7500 O   0  0  0  0  0  0  0  0  0  0  0  0
   45.9086    6.3915   12.9865 N   0  0  0  0  0  0  0  0  0  0  0  0
   45.2976    5.1829   13.1745 C   0  0  0  0  0  0  0  0  0  0  0  0
   47.3644    6.4017   12.7299 C   0  0  0  0  0  0  0  0  0  0  0  0
   47.9788    7.7876   12.6898 C   0  0  0  0  0  0  0  0  0  0  0  0
   44.1919    4.7637   12.6708 N   0  0  0  0  0  0  0  0  0  0  0  0
   45.1920    7.4999   12.3467 C   0  0  0  0  0  0  0  0  0  0  0  0
   47.1941    8.9514   12.7392 C   0  0  0  0  0  0  0  0  0  0  0  0
   45.7016    8.8376   12.8803 C   0  0  0  0  0  0  0  0  0  0  0  0
   45.9347    4.3531   14.0269 N   0  0  0  0  0  0  0  0  0  0  0  0
   49.3734    7.9114   12.5766 C   0  0  0  0  0  0  0  0  0  0  0  0
   47.8072   10.2114   12.7098 C   0  0  0  0  0  0  0  0  0  0  0  0
   49.9758    9.1689   12.5331 C   0  0  0  0  0  0  0  0  0  0  0  0
   49.1930   10.3181   12.6028 C   0  0  0  0  0  0  0  0  0  0  0  0
   45.6189    9.0774   13.0991 H   0  0  0  0  0  0  0  0  0  0  0  0
   45.8963    8.6429   11.3937 H   0  0  0  0  0  0  0  0  0  0  0  0
   49.9435    9.2774   11.9631 H   0  0  0  0  0  0  0  0  0  0  0  0
   49.3617    8.5192   13.7855 H   0  0  0  0  0  0  0  0  0  0  0  0
   47.8201    8.4068   14.6130 H   0  0  0  0  0  0  0  0  0  0  0  0
   48.8005    6.1671   14.3074 H   0  0  0  0  0  0  0  0  0  0  0  0
   48.9401    6.4141   12.5544 H   0  0  0  0  0  0  0  0  0  0  0  0
   47.8362   11.6289   11.1352 H   0  0  0  0  0  0  0  0  0  0  0  0
   46.6984   11.1717   12.2534 H   0  0  0  0  0  0  0  0  0  0  0  0
   43.8645    7.1390   12.1472 H   0  0  0  0  0  0  0  0  0  0  0  0
   47.4157    4.1174   13.8477 H   0  0  0  0  0  0  0  0  0  0  0  0
   43.3559    4.7724   12.6276 H   0  0  0  0  0  0  0  0  0  0  0  0
   45.1303    3.2610   13.4718 H   0  0  0  0  0  0  0  0  0  0  0  0
   45.8419    6.0037   12.5229 H   0  0  0  0  0  0  0  0  0  0  0  0
   46.8353    9.2110   11.9809 H   0  0  0  0  0  0  0  0  0  0  0  0
   47.5560    5.9106   11.7674 H   0  0  0  0  0  0  0  0  0  0  0  0
   47.8865    5.8395   13.5134 H   0  0  0  0  0  0  0  0  0  0  0  0
   43.8142    5.4590   12.0294 H   0  0  0  0  0  0  0  0  0  0  0  0
   45.3118    7.4386   11.2575 H   0  0  0  0  0  0  0  0  0  0  0  0
   44.1187    7.4498   12.5645 H   0  0  0  0  0  0  0  0  0  0  0  0
   45.4472    8.9383   13.9427 H   0  0  0  0  0  0  0  0  0  0  0  0
   45.2062    9.6494   12.3351 H   0  0  0  0  0  0  0  0  0  0  0  0
   46.2160    4.8282   14.8749 H   0  0  0  0  0  0  0  0  0  0  0  0
   45.3247    3.5698   14.2396 H   0  0  0  0  0  0  0  0  0  0  0  0
   49.9995    7.0228   12.5252 H   0  0  0  0  0  0  0  0  0  0  0  0
   47.2070   11.1165   12.7698 H   0  0  0  0  0  0  0  0  0  0  0  0
   51.0563    9.2517   12.4488 H   0  0  0  0  0  0  0  0  0  0  0  0
   49.6622   11.2981   12.5759 H   0  0  0  0  0  0  0  0  0  0  0  0
  2  1  1  0
  3  1  1  0
  4  3  1  0
  5  2  2  3
  6  1  1  0
  7  8  1  0
  8  6  1  0
  9  2  1  0
 10  4  2  0
 11  7  2  0
 12 10  1  0
 13 11  1  0
  4  7  1  0
 12 13  2  0
 15 14  2  0
 16 14  2  0
 17 14  1  0
 18 14  1  0
 20 19  1  0
 21 19  1  0
 22 21  1  0
 23 20  2  3
 24 19  1  0
 25 26  1  0
 26 24  1  0
 27 20  1  0
 28 22  2  0
 29 25  2  0
 30 28  1  0
 31 29  1  0
 22 25  1  0
 30 31  2  0
  3 32  1  0
  3 33  1  0
  5 34  1  0
  6 35  1  0
  6 36  1  0
  8 37  1  0
  8 38  1  0
  9 39  1  0
  9 40  1  0
 10 41  1  0
 11 42  1  0
 12 43  1  0
 13 44  1  0
 17 45  1  0
 18 46  1  0
 21 47  1  0
 21 48  1  0
 23 49  1  0
 24 50  1  0
 24 51  1  0
 26 52  1  0
 26 53  1  0
 27 54  1  0
 27 55  1  0
 28 56  1  0
 29 57  1  0
 30 58  1  0
 31 59  1  0
M  END
> <Uni-Dock RESULT> 
ENERGY=   -5.746  LOWER_BOUND=    4.979  UPPER_BOUND=    6.757
INTER + INTRA:          -5.746
INTER:                  -5.746
INTRA:                   0.000
UNBOUND:                 0.000

$$$$

     RDKit          3D

 59 60  0  0  0  0  0  0  0  0999 V2000
   49.4662    4.6958   17.6386 N   0  0  0  0  0  0  0  0  0  0  0  0
   48.4982    5.4487   17.0484 C   0  0  0  0  0  0  0  0  0  0  0  0
   49.5957    3.2556   17.3839 C   0  0  0  0  0  0  0  0  0  0  0  0
   50.9900    2.7159   17.6466 C   0  0  0  0  0  0  0  0  0  0  0  0
   48.5146    6.7251   16.8852 N   0  0  0  0  0  0  0  0  0  0  0  0
   50.2424    5.1852   18.7784 C   0  0  0  0  0  0  0  0  0  0  0  0
   52.0062    3.5146   18.2029 C   0  0  0  0  0  0  0  0  0  0  0  0
   51.7307    4.9604   18.5245 C   0  0  0  0  0  0  0  0  0  0  0  0
   47.4159    4.7867   16.5909 N   0  0  0  0  0  0  0  0  0  0  0  0
   51.2706    1.3751   17.3374 C   0  0  0  0  0  0  0  0  0  0  0  0
   53.2835    2.9771   18.4111 C   0  0  0  0  0  0  0  0  0  0  0  0
   52.5410    0.8437   17.5617 C   0  0  0  0  0  0  0  0  0  0  0  0
   53.5469    1.6451   18.0955 C   0  0  0  0  0  0  0  0  0  0  0  0
   50.7510    4.0559   18.1088 S   0  0  0  0  0  0  0  0  0  0  0  0
   49.8477    4.1942   19.2226 O   0  0  0  0  0  0  0  0  0  0  0  0
   51.9768    4.8003   17.9720 O   0  0  0  0  0  0  0  0  0  0  0  0
   51.1425    2.5069   17.9646 O   0  0  0  0  0  0  0  0  0  0  0  0
   49.8742    4.2776   16.7838 O   0  0  0  0  0  0  0  0  0  0  0  0
   51.5820    2.5588   17.8869 N   0  0  0  0  0  0  0  0  0  0  0  0
   52.6715    1.7418   18.0094 C   0  0  0  0  0  0  0  0  0  0  0  0
   51.8156    4.0110   17.7391 C   0  0  0  0  0  0  0  0  0  0  0  0
   50.5525    4.8497   17.7673 C   0  0  0  0  0  0  0  0  0  0  0  0
   52.8970    0.6229   17.4184 N   0  0  0  0  0  0  0  0  0  0  0  0
   50.3666    2.0883   17.2141 C   0  0  0  0  0  0  0  0  0  0  0  0
   49.2736    4.2693   17.7774 C   0  0  0  0  0  0  0  0  0  0  0  0
   49.1355    2.7725   17.8057 C   0  0  0  0  0  0  0  0  0  0  0  0
   53.5996    2.1646   18.8929 N   0  0  0  0  0  0  0  0  0  0  0  0
   50.6643    6.2499   17.7598 C   0  0  0  0  0  0  0  0  0  0  0  0
   48.1344    5.0850   17.8141 C   0  0  0  0  0  0  0  0  0  0  0  0
   49.5257    7.0558   17.7816 C   0  0  0  0  0  0  0  0  0  0  0  0
   48.2616    6.4732   17.8118 C   0  0  0  0  0  0  0  0  0  0  0  0
   48.8860    2.7147   18.0217 H   0  0  0  0  0  0  0  0  0  0  0  0
   49.3546    3.0440   16.3346 H   0  0  0  0  0  0  0  0  0  0  0  0
   49.4113    7.0853   17.2125 H   0  0  0  0  0  0  0  0  0  0  0  0
   50.0676    6.2485   18.9742 H   0  0  0  0  0  0  0  0  0  0  0  0
   49.9225    4.6516   19.6833 H   0  0  0  0  0  0  0  0  0  0  0  0
   52.2940    5.2639   19.4145 H   0  0  0  0  0  0  0  0  0  0  0  0
   52.0674    5.5752   17.6810 H   0  0  0  0  0  0  0  0  0  0  0  0
   46.7361    5.4699   16.2694 H   0  0  0  0  0  0  0  0  0  0  0  0
   46.9998    4.1903   17.2927 H   0  0  0  0  0  0  0  0  0  0  0  0
   50.4985    0.7380   16.9108 H   0  0  0  0  0  0  0  0  0  0  0  0
   54.0802    3.5946   18.8201 H   0  0  0  0  0  0  0  0  0  0  0  0
   52.7478   -0.1941   17.3135 H   0  0  0  0  0  0  0  0  0  0  0  0
   54.5389    1.2333   18.2620 H   0  0  0  0  0  0  0  0  0  0  0  0
   51.9513    2.4634   17.4134 H   0  0  0  0  0  0  0  0  0  0  0  0
   48.9545    4.0175   16.9990 H   0  0  0  0  0  0  0  0  0  0  0  0
   52.3283    4.1901   16.7855 H   0  0  0  0  0  0  0  0  0  0  0  0
   52.4604    4.3708   18.5498 H   0  0  0  0  0  0  0  0  0  0  0  0
   52.1457    0.4166   16.7622 H   0  0  0  0  0  0  0  0  0  0  0  0
   50.4431    2.2783   16.1359 H   0  0  0  0  0  0  0  0  0  0  0  0
   50.2364    1.0083   17.3508 H   0  0  0  0  0  0  0  0  0  0  0  0
   48.9973    2.4587   18.8478 H   0  0  0  0  0  0  0  0  0  0  0  0
   48.2500    2.4626   17.2387 H   0  0  0  0  0  0  0  0  0  0  0  0
   53.1816    2.4563   19.7671 H   0  0  0  0  0  0  0  0  0  0  0  0
   54.2700    1.4179   19.0470 H   0  0  0  0  0  0  0  0  0  0  0  0
   51.6453    6.7206   17.7403 H   0  0  0  0  0  0  0  0  0  0  0  0
   47.1415    4.6418   17.8443 H   0  0  0  0  0  0  0  0  0  0  0  0
   49.6254    8.1381   17.7789 H   0  0  0  0  0  0  0  0  0  0  0  0
   47.3743    7.1004   17.8358 H   0  0  0  0  0  0  0  0  0  0  0  0
  2  1  1  0
  3  1  1  0
  4  3  1  0
  5  2  2  3
  6  1  1  0
  7  8  1  0
  8  6  1  0
  9  2  1  0
 10  4  2  0
 11  7  2  0
 12 10  1  0
 13 11  1  0
  4  7  1  0
 12 13  2  0
 15 14  2  0
 16 14  2  0
 17 14  1  0
 18 14  1  0
 20 19  1  0
 21 19  1  0
 22 21  1  0
 23 20  2  3
 24 19  1  0
 25 26  1  0
 26 24  1  0
 27 20  1  0
 28 22  2  0
 29 25  2  0
 30 28  1  0
 31 29  1  0
 22 25  1  0
 30 31  2  0
  3 32  1  0
  3 33  1  0
  5 34  1  0
  6 35  1  0
  6 36  1  0
  8 37  1  0
  8 38  1  0
  9 39  1  0
  9 40  1  0
 10 41  1  0
 11 42  1  0
 12 43  1  0
 13 44  1  0
 17 45  1  0
 18 46  1  0
 21 47  1  0
 21 48  1  0
 23 49  1  0
 24 50  1  0
 24 51  1  0
 26 52  1  0
 26 53  1  0
 27 54  1  0
 27 55  1  0
 28 56  1  0
 29 57  1  0
 30 58  1  0
 31 59  1  0
M  END
> <Uni-Dock RESULT> 
ENERGY=   -5.570  LOWER_BOUND=    9.798  UPPER_BOUND=   11.070
INTER + INTRA:          -5.570
INTER:                  -5.570
INTRA:                   0.000
UNBOUND:                 0.000

$$$$
