
     RDKit          3D

 24 24  0  0  0  0  0  0  0  0999 V2000
    3.6875    0.7042    0.0621 C   0  0  0  0  0  0  0  0  0  0  0  0
    3.8379    1.5311    1.1132 O   0  0  0  0  0  0  0  0  0  0  0  0
    4.2976    0.8933   -0.9764 O   0  0  0  0  0  0  0  0  0  0  0  0
   -1.1486   -0.5527    0.1799 C   0  0  0  0  0  0  0  0  0  0  0  0
    2.7062   -0.3995    0.3267 C   0  0  0  0  0  0  0  0  0  0  0  0
    1.2783    0.0936    0.1321 C   0  0  0  0  0  0  0  0  0  0  0  0
    0.2692   -1.0301    0.3680 C   0  0  0  0  0  0  0  0  0  0  0  0
   -1.8703   -0.0260    1.2594 C   0  0  0  0  0  0  0  0  0  0  0  0
   -1.7534   -0.6025   -1.0831 C   0  0  0  0  0  0  0  0  0  0  0  0
   -3.0600   -0.1443   -1.2599 C   0  0  0  0  0  0  0  0  0  0  0  0
   -3.1767    0.4316    1.0805 C   0  0  0  0  0  0  0  0  0  0  0  0
   -3.7715    0.3714   -0.1783 C   0  0  0  0  0  0  0  0  0  0  0  0
    4.4814    2.2007    0.7994 H   0  0  0  0  0  0  0  0  0  0  0  0
    2.9325   -1.2246   -0.3585 H   0  0  0  0  0  0  0  0  0  0  0  0
    2.8654   -0.7809    1.3417 H   0  0  0  0  0  0  0  0  0  0  0  0
    1.1632    0.4976   -0.8823 H   0  0  0  0  0  0  0  0  0  0  0  0
    1.0782    0.9284    0.8163 H   0  0  0  0  0  0  0  0  0  0  0  0
    0.3852   -1.4367    1.3807 H   0  0  0  0  0  0  0  0  0  0  0  0
    0.4653   -1.8655   -0.3162 H   0  0  0  0  0  0  0  0  0  0  0  0
   -1.4180    0.0318    2.2468 H   0  0  0  0  0  0  0  0  0  0  0  0
   -1.2092   -0.9979   -1.9377 H   0  0  0  0  0  0  0  0  0  0  0  0
   -3.5219   -0.1884   -2.2427 H   0  0  0  0  0  0  0  0  0  0  0  0
   -3.7299    0.8367    1.9237 H   0  0  0  0  0  0  0  0  0  0  0  0
   -4.7884    0.7285   -0.3170 H   0  0  0  0  0  0  0  0  0  0  0  0
  2  1  1  0
  3  1  2  0
  4  7  1  0
  5  1  1  0
  6  5  1  0
  7  6  1  0
  8  4  2  0
  9  4  1  0
 10  9  2  0
 11  8  1  0
 12 11  2  0
 12 10  1  0
  2 13  1  0
  5 14  1  0
  5 15  1  0
  6 16  1  0
  6 17  1  0
  7 18  1  0
  7 19  1  0
  8 20  1  0
  9 21  1  0
 10 22  1  0
 11 23  1  0
 12 24  1  0
M  END
$$$$
