
     RDKit          3D

 24 24  0  0  0  0  0  0  0  0999 V2000
    3.4055   -0.2117    0.3189 C   0  0  0  0  0  0  0  0  0  0  0  0
    4.6444    0.2775    0.5233 O   0  0  0  0  0  0  0  0  0  0  0  0
    3.0257   -1.2046    0.9143 O   0  0  0  0  0  0  0  0  0  0  0  0
   -1.0910    0.2178    0.2681 C   0  0  0  0  0  0  0  0  0  0  0  0
    2.6456    0.5976   -0.6981 C   0  0  0  0  0  0  0  0  0  0  0  0
    1.1793    0.1834   -0.8093 C   0  0  0  0  0  0  0  0  0  0  0  0
    0.3562    0.6194    0.4074 C   0  0  0  0  0  0  0  0  0  0  0  0
   -1.5104   -1.0599    0.6625 C   0  0  0  0  0  0  0  0  0  0  0  0
   -2.0282    1.1026   -0.2810 C   0  0  0  0  0  0  0  0  0  0  0  0
   -3.3629    0.7192   -0.4227 C   0  0  0  0  0  0  0  0  0  0  0  0
   -2.8453   -1.4413    0.5199 C   0  0  0  0  0  0  0  0  0  0  0  0
   -3.7712   -0.5516   -0.0216 C   0  0  0  0  0  0  0  0  0  0  0  0
    5.0354   -0.3322    1.1839 H   0  0  0  0  0  0  0  0  0  0  0  0
    2.7167    1.6585   -0.4345 H   0  0  0  0  0  0  0  0  0  0  0  0
    3.1338    0.4443   -1.6671 H   0  0  0  0  0  0  0  0  0  0  0  0
    0.7567    0.6421   -1.7125 H   0  0  0  0  0  0  0  0  0  0  0  0
    1.1046   -0.9028   -0.9470 H   0  0  0  0  0  0  0  0  0  0  0  0
    0.4221    1.7074    0.5350 H   0  0  0  0  0  0  0  0  0  0  0  0
    0.7593    0.1850    1.3300 H   0  0  0  0  0  0  0  0  0  0  0  0
   -0.7960   -1.7653    1.0823 H   0  0  0  0  0  0  0  0  0  0  0  0
   -1.7241    2.0959   -0.6021 H   0  0  0  0  0  0  0  0  0  0  0  0
   -4.0843    1.4122   -0.8474 H   0  0  0  0  0  0  0  0  0  0  0  0
   -3.1614   -2.4336    0.8303 H   0  0  0  0  0  0  0  0  0  0  0  0
   -4.8104   -0.8494   -0.1325 H   0  0  0  0  0  0  0  0  0  0  0  0
  2  1  1  0
  3  1  2  0
  4  7  1  0
  5  1  1  0
  6  5  1  0
  7  6  1  0
  8  4  2  0
  9  4  1  0
 10  9  2  0
 11  8  1  0
 12 11  2  0
 12 10  1  0
  2 13  1  0
  5 14  1  0
  5 15  1  0
  6 16  1  0
  6 17  1  0
  7 18  1  0
  7 19  1  0
  8 20  1  0
  9 21  1  0
 10 22  1  0
 11 23  1  0
 12 24  1  0
M  END
$$$$
