
     RDKit          3D

 24 24  0  0  0  0  0  0  0  0999 V2000
    3.3592   -0.2290    0.7603 C   0  0  0  0  0  0  0  0  0  0  0  0
    3.4335    0.3397    1.9773 O   0  0  0  0  0  0  0  0  0  0  0  0
    4.0248    0.1932   -0.1699 O   0  0  0  0  0  0  0  0  0  0  0  0
   -0.8778    0.2278   -0.6228 C   0  0  0  0  0  0  0  0  0  0  0  0
    2.3893   -1.3740    0.7077 C   0  0  0  0  0  0  0  0  0  0  0  0
    0.9408   -0.8987    0.6953 C   0  0  0  0  0  0  0  0  0  0  0  0
    0.5760   -0.1748   -0.6048 C   0  0  0  0  0  0  0  0  0  0  0  0
   -1.8460   -0.6272   -1.1657 C   0  0  0  0  0  0  0  0  0  0  0  0
   -1.2826    1.4505   -0.0708 C   0  0  0  0  0  0  0  0  0  0  0  0
   -2.6299    1.8152   -0.0716 C   0  0  0  0  0  0  0  0  0  0  0  0
   -3.1928   -0.2607   -1.1656 C   0  0  0  0  0  0  0  0  0  0  0  0
   -3.5843    0.9603   -0.6195 C   0  0  0  0  0  0  0  0  0  0  0  0
    4.0896    1.0595    1.8665 H   0  0  0  0  0  0  0  0  0  0  0  0
    2.6122   -1.9786   -0.1788 H   0  0  0  0  0  0  0  0  0  0  0  0
    2.5739   -2.0171    1.5761 H   0  0  0  0  0  0  0  0  0  0  0  0
    0.2880   -1.7717    0.8226 H   0  0  0  0  0  0  0  0  0  0  0  0
    0.7538   -0.2404    1.5531 H   0  0  0  0  0  0  0  0  0  0  0  0
    0.7865   -0.8188   -1.4680 H   0  0  0  0  0  0  0  0  0  0  0  0
    1.1963    0.7201   -0.7370 H   0  0  0  0  0  0  0  0  0  0  0  0
   -1.5564   -1.5847   -1.5925 H   0  0  0  0  0  0  0  0  0  0  0  0
   -0.5494    2.1265    0.3631 H   0  0  0  0  0  0  0  0  0  0  0  0
   -2.9346    2.7666    0.3562 H   0  0  0  0  0  0  0  0  0  0  0  0
   -3.9369   -0.9287   -1.5912 H   0  0  0  0  0  0  0  0  0  0  0  0
   -4.6330    1.2449   -0.6200 H   0  0  0  0  0  0  0  0  0  0  0  0
  2  1  1  0
  3  1  2  0
  4  7  1  0
  5  1  1  0
  6  5  1  0
  7  6  1  0
  8  4  2  0
  9  4  1  0
 10  9  2  0
 11  8  1  0
 12 11  2  0
 12 10  1  0
  2 13  1  0
  5 14  1  0
  5 15  1  0
  6 16  1  0
  6 17  1  0
  7 18  1  0
  7 19  1  0
  8 20  1  0
  9 21  1  0
 10 22  1  0
 11 23  1  0
 12 24  1  0
M  END
$$$$
