
     RDKit          3D

 24 24  0  0  0  0  0  0  0  0999 V2000
    3.4102   -0.3398   -0.1442 C   0  0  0  0  0  0  0  0  0  0  0  0
    4.6631    0.0973   -0.3790 O   0  0  0  0  0  0  0  0  0  0  0  0
    3.1455   -0.9385    0.8834 O   0  0  0  0  0  0  0  0  0  0  0  0
   -1.0284    0.3513    0.3327 C   0  0  0  0  0  0  0  0  0  0  0  0
    2.4801   -0.0075   -1.2805 C   0  0  0  0  0  0  0  0  0  0  0  0
    1.0191   -0.3198   -0.9611 C   0  0  0  0  0  0  0  0  0  0  0  0
    0.4188    0.6661    0.0466 C   0  0  0  0  0  0  0  0  0  0  0  0
   -2.0517    0.9701   -0.3970 C   0  0  0  0  0  0  0  0  0  0  0  0
   -1.3656   -0.5879    1.3166 C   0  0  0  0  0  0  0  0  0  0  0  0
   -2.7028   -0.8942    1.5729 C   0  0  0  0  0  0  0  0  0  0  0  0
   -3.3886    0.6624   -0.1391 C   0  0  0  0  0  0  0  0  0  0  0  0
   -3.7138   -0.2685    0.8460 C   0  0  0  0  0  0  0  0  0  0  0  0
    5.1667   -0.1862    0.4129 H   0  0  0  0  0  0  0  0  0  0  0  0
    2.7924   -0.6069   -2.1431 H   0  0  0  0  0  0  0  0  0  0  0  0
    2.5904    1.0527   -1.5329 H   0  0  0  0  0  0  0  0  0  0  0  0
    0.4428   -0.2758   -1.8942 H   0  0  0  0  0  0  0  0  0  0  0  0
    0.9273   -1.3470   -0.5860 H   0  0  0  0  0  0  0  0  0  0  0  0
    0.5002    1.6912   -0.3368 H   0  0  0  0  0  0  0  0  0  0  0  0
    0.9791    0.6539    0.9891 H   0  0  0  0  0  0  0  0  0  0  0  0
   -1.8136    1.6955   -1.1713 H   0  0  0  0  0  0  0  0  0  0  0  0
   -0.5851   -1.0867    1.8878 H   0  0  0  0  0  0  0  0  0  0  0  0
   -2.9545   -1.6225    2.3392 H   0  0  0  0  0  0  0  0  0  0  0  0
   -4.1768    1.1485   -0.7079 H   0  0  0  0  0  0  0  0  0  0  0  0
   -4.7547   -0.5078    1.0459 H   0  0  0  0  0  0  0  0  0  0  0  0
  2  1  1  0
  3  1  2  0
  4  7  1  0
  5  1  1  0
  6  5  1  0
  7  6  1  0
  8  4  2  0
  9  4  1  0
 10  9  2  0
 11  8  1  0
 12 11  2  0
 12 10  1  0
  2 13  1  0
  5 14  1  0
  5 15  1  0
  6 16  1  0
  6 17  1  0
  7 18  1  0
  7 19  1  0
  8 20  1  0
  9 21  1  0
 10 22  1  0
 11 23  1  0
 12 24  1  0
M  END
$$$$
