
     RDKit          3D

 12 12  0  0  0  0  0  0  0  0999 V2000
    3.1626   -0.1371   -0.3531 C   0  0  0  0  0  0  0  0  0  0  0  0
    4.0942   -0.6148    0.5668 O   0  0  0  0  0  0  0  0  0  0  0  0
    2.8833   -0.7905   -1.4159 O   0  0  0  0  0  0  0  0  0  0  0  0
   -1.0418   -0.2098   -0.1923 C   0  0  0  0  0  0  0  0  0  0  0  0
    2.4766    1.1720   -0.0845 C   0  0  0  0  0  0  0  0  0  0  0  0
    1.0714    0.8656    0.4021 C   0  0  0  0  0  0  0  0  0  0  0  0
    0.3407    0.0894   -0.6757 C   0  0  0  0  0  0  0  0  0  0  0  0
   -2.0625    0.6866   -0.4509 C   0  0  0  0  0  0  0  0  0  0  0  0
   -1.3494   -1.3554    0.5097 C   0  0  0  0  0  0  0  0  0  0  0  0
   -2.6115   -1.6588    0.9676 C   0  0  0  0  0  0  0  0  0  0  0  0
   -3.3312    0.3764    0.0123 C   0  0  0  0  0  0  0  0  0  0  0  0
   -3.6323   -0.7713    0.7140 C   0  0  0  0  0  0  0  0  0  0  0  0
  2  1  1  0
  3  1  2  0
  4  7  1  0
  5  1  1  0
  6  5  1  0
  7  6  1  0
  8  4  2  0
  9  4  1  0
 10  9  2  0
 11  8  1  0
 12 11  2  0
 12 10  1  0
M  END
