
     RDKit          3D

 57 59  0  0  0  0  0  0  0  0999 V2000
   42.1623    6.0167   11.7579 C   0  0  0  0  0  0  0  0  0  0  0  0
   43.5199    5.3355   11.6769 C   0  0  0  0  0  0  0  0  0  0  0  0
   43.4211    3.8520   12.0329 C   0  0  0  0  0  0  0  0  0  0  0  0
   44.7785    3.1435   12.0797 C   0  0  0  0  0  0  0  0  0  0  0  0
   45.5908    3.1731   10.7815 C   0  0  0  0  0  0  0  0  0  0  0  0
   44.8709    2.5186    9.5995 C   0  0  0  0  0  0  0  0  0  0  0  0
   46.4991    1.3233    8.0910 C   0  0  0  0  0  0  0  0  0  0  0  0
   47.3246    1.2708    6.9671 C   0  0  0  0  0  0  0  0  0  0  0  0
   46.6743    3.5251    6.3753 C   0  0  0  0  0  0  0  0  0  0  0  0
   45.7463    2.4743    8.3691 C   0  0  0  0  0  0  0  0  0  0  0  0
   47.4050    2.3688    6.1194 C   0  0  0  0  0  0  0  0  0  0  0  0
   45.8511    3.5696    7.5017 C   0  0  0  0  0  0  0  0  0  0  0  0
   48.2256    2.2697    5.0338 O   0  0  0  0  0  0  0  0  0  0  0  0
   45.1277    4.6966    7.7790 O   0  0  0  0  0  0  0  0  0  0  0  0
   43.1022    4.9876   12.3438 C   0  0  0  0  0  0  0  0  0  0  0  0
   46.6712    1.6675    6.8488 C   0  0  0  0  0  0  0  0  0  0  0  0
   43.7885    6.1390   11.9871 C   0  0  0  0  0  0  0  0  0  0  0  0
   47.2621    2.8965    6.6017 C   0  0  0  0  0  0  0  0  0  0  0  0
   43.2975    3.8201   11.6083 C   0  0  0  0  0  0  0  0  0  0  0  0
   45.7321    1.5512    7.8736 C   0  0  0  0  0  0  0  0  0  0  0  0
   44.6632    6.1120   10.8982 C   0  0  0  0  0  0  0  0  0  0  0  0
   46.9144    3.9971    7.3863 C   0  0  0  0  0  0  0  0  0  0  0  0
   44.1853    3.7862   10.5066 C   0  0  0  0  0  0  0  0  0  0  0  0
   45.3649    2.6669    8.6701 C   0  0  0  0  0  0  0  0  0  0  0  0
   44.8753    4.9590   10.1524 C   0  0  0  0  0  0  0  0  0  0  0  0
   45.9858    3.9062    8.4149 C   0  0  0  0  0  0  0  0  0  0  0  0
   44.4068    2.6301    9.7177 C   0  0  0  0  0  0  0  0  0  0  0  0
   43.8200    1.3985   10.1345 N   0  0  0  0  0  0  0  0  0  0  0  0
   45.7383    5.0132    9.1285 N   0  0  0  0  0  0  0  0  0  0  0  0
   42.2534    7.0755   11.4963 H   0  0  0  0  0  0  0  0  0  0  0  0
   41.7496    5.9513   12.7697 H   0  0  0  0  0  0  0  0  0  0  0  0
   41.4506    5.5556   11.0655 H   0  0  0  0  0  0  0  0  0  0  0  0
   43.9117    5.4585   10.6616 H   0  0  0  0  0  0  0  0  0  0  0  0
   44.2153    5.8374   12.3594 H   0  0  0  0  0  0  0  0  0  0  0  0
   42.7555    3.3433   11.3261 H   0  0  0  0  0  0  0  0  0  0  0  0
   42.9530    3.7507   13.0203 H   0  0  0  0  0  0  0  0  0  0  0  0
   45.3845    3.5928   12.8764 H   0  0  0  0  0  0  0  0  0  0  0  0
   44.6139    2.0987   12.3715 H   0  0  0  0  0  0  0  0  0  0  0  0
   46.5381    2.6483   10.9638 H   0  0  0  0  0  0  0  0  0  0  0  0
   45.8657    4.2056   10.5360 H   0  0  0  0  0  0  0  0  0  0  0  0
   43.9427    3.0502    9.3603 H   0  0  0  0  0  0  0  0  0  0  0  0
   44.5673    1.4985    9.8676 H   0  0  0  0  0  0  0  0  0  0  0  0
   46.4472    0.4603    8.7508 H   0  0  0  0  0  0  0  0  0  0  0  0
   47.9038    0.3763    6.7556 H   0  0  0  0  0  0  0  0  0  0  0  0
   46.7453    4.3778    5.7107 H   0  0  0  0  0  0  0  0  0  0  0  0
   48.1852    3.0996    4.5320 H   0  0  0  0  0  0  0  0  0  0  0  0
   45.3052    5.3636    7.0970 H   0  0  0  0  0  0  0  0  0  0  0  0
   42.4139    4.9952   13.1844 H   0  0  0  0  0  0  0  0  0  0  0  0
   46.9363    0.8015    6.2479 H   0  0  0  0  0  0  0  0  0  0  0  0
   43.6470    7.0593   12.5472 H   0  0  0  0  0  0  0  0  0  0  0  0
   47.9946    3.0059    5.8065 H   0  0  0  0  0  0  0  0  0  0  0  0
   42.7423    2.9263   11.8858 H   0  0  0  0  0  0  0  0  0  0  0  0
   45.2893    0.5744    8.0420 H   0  0  0  0  0  0  0  0  0  0  0  0
   45.1981    7.0181   10.6228 H   0  0  0  0  0  0  0  0  0  0  0  0
   47.3875    4.9577    7.1933 H   0  0  0  0  0  0  0  0  0  0  0  0
   43.7183    0.7348    9.3746 H   0  0  0  0  0  0  0  0  0  0  0  0
   44.3794    0.9890   10.8813 H   0  0  0  0  0  0  0  0  0  0  0  0
  2  1  1  0
  3  2  1  0
  4  3  1  0
  5  4  1  0
  6  5  1  0
  8  7  2  0
 10  6  1  0
 10  7  1  0
 11  8  1  0
 11  9  2  0
 12  9  1  0
 12 10  2  0
 13 11  1  0
 14 12  1  0
 17 15  2  0
 18 16  1  0
 19 15  1  0
 20 16  2  0
 21 17  1  0
 22 18  2  0
 23 19  2  0
 24 20  1  0
 25 21  2  0
 25 23  1  0
 26 22  1  0
 26 24  1  0
 27 23  1  0
 27 24  2  0
 28 27  1  0
 29 25  1  0
 29 26  2  0
  1 30  1  0
  1 31  1  0
  1 32  1  0
  2 33  1  0
  2 34  1  0
  3 35  1  0
  3 36  1  0
  4 37  1  0
  4 38  1  0
  5 39  1  0
  5 40  1  0
  6 41  1  0
  6 42  1  0
  7 43  1  0
  8 44  1  0
  9 45  1  0
 13 46  1  0
 14 47  1  0
 15 48  1  0
 16 49  1  0
 17 50  1  0
 18 51  1  0
 19 52  1  0
 20 53  1  0
 21 54  1  0
 22 55  1  0
 28 56  1  0
 28 57  1  0
M  END
> <Uni-Dock RESULT> 
ENERGY=  -10.523  LOWER_BOUND=    0.000  UPPER_BOUND=    0.000
INTER + INTRA:         -10.523
INTER:                 -10.523
INTRA:                   0.000
UNBOUND:                 0.000

$$$$
