
     RDKit          3D

 57 59  0  0  0  0  0  0  0  0999 V2000
   46.4047   11.3805   20.2756 C   0  0  0  0  0  0  0  0  0  0  0  0
   47.8610   10.9895   20.4745 C   0  0  0  0  0  0  0  0  0  0  0  0
   48.3078    9.8251   19.5878 C   0  0  0  0  0  0  0  0  0  0  0  0
   47.6062    8.5063   19.9200 C   0  0  0  0  0  0  0  0  0  0  0  0
   48.1640    7.3551   19.0795 C   0  0  0  0  0  0  0  0  0  0  0  0
   47.4585    6.0367   19.4076 C   0  0  0  0  0  0  0  0  0  0  0  0
   47.3106    4.5162   17.4190 C   0  0  0  0  0  0  0  0  0  0  0  0
   47.7706    3.4669   16.6206 C   0  0  0  0  0  0  0  0  0  0  0  0
   49.6288    3.1380   18.1247 C   0  0  0  0  0  0  0  0  0  0  0  0
   47.9987    4.8906   18.5868 C   0  0  0  0  0  0  0  0  0  0  0  0
   48.9244    2.7850   16.9803 C   0  0  0  0  0  0  0  0  0  0  0  0
   49.1668    4.1888   18.9180 C   0  0  0  0  0  0  0  0  0  0  0  0
   49.3398    1.7660   16.1748 O   0  0  0  0  0  0  0  0  0  0  0  0
   49.9255    4.4759   20.0181 O   0  0  0  0  0  0  0  0  0  0  0  0
   47.2795   10.2357   20.4751 C   0  0  0  0  0  0  0  0  0  0  0  0
   48.6149    3.8671   17.0674 C   0  0  0  0  0  0  0  0  0  0  0  0
   47.2485    9.5061   21.6544 C   0  0  0  0  0  0  0  0  0  0  0  0
   48.5341    3.2769   18.3187 C   0  0  0  0  0  0  0  0  0  0  0  0
   47.4869    9.5731   19.2667 C   0  0  0  0  0  0  0  0  0  0  0  0
   48.4060    5.2405   16.9415 C   0  0  0  0  0  0  0  0  0  0  0  0
   47.4251    8.1210   21.6140 C   0  0  0  0  0  0  0  0  0  0  0  0
   48.2525    4.0663   19.4346 C   0  0  0  0  0  0  0  0  0  0  0  0
   47.6700    8.1704   19.2205 C   0  0  0  0  0  0  0  0  0  0  0  0
   48.1093    6.0495   18.0690 C   0  0  0  0  0  0  0  0  0  0  0  0
   47.6358    7.4399   20.4214 C   0  0  0  0  0  0  0  0  0  0  0  0
   48.0449    5.4359   19.3363 C   0  0  0  0  0  0  0  0  0  0  0  0
   47.8684    7.4481   18.0177 C   0  0  0  0  0  0  0  0  0  0  0  0
   48.0363    8.1791   16.8042 N   0  0  0  0  0  0  0  0  0  0  0  0
   47.8063    6.1115   20.4687 N   0  0  0  0  0  0  0  0  0  0  0  0
   46.1734   12.2759   20.8613 H   0  0  0  0  0  0  0  0  0  0  0  0
   46.1969   11.6010   19.2237 H   0  0  0  0  0  0  0  0  0  0  0  0
   45.7275   10.5867   20.6040 H   0  0  0  0  0  0  0  0  0  0  0  0
   48.0318   10.7429   21.5288 H   0  0  0  0  0  0  0  0  0  0  0  0
   48.4888   11.8593   20.2469 H   0  0  0  0  0  0  0  0  0  0  0  0
   48.1388   10.0793   18.5343 H   0  0  0  0  0  0  0  0  0  0  0  0
   49.3902    9.6966   19.7119 H   0  0  0  0  0  0  0  0  0  0  0  0
   47.7360    8.2788   20.9849 H   0  0  0  0  0  0  0  0  0  0  0  0
   46.5300    8.5964   19.7346 H   0  0  0  0  0  0  0  0  0  0  0  0
   49.2423    7.2612   19.2580 H   0  0  0  0  0  0  0  0  0  0  0  0
   48.0407    7.5859   18.0137 H   0  0  0  0  0  0  0  0  0  0  0  0
   46.3809    6.1413   19.2257 H   0  0  0  0  0  0  0  0  0  0  0  0
   47.5476    5.8021   20.4753 H   0  0  0  0  0  0  0  0  0  0  0  0
   46.4057    5.0417   17.1207 H   0  0  0  0  0  0  0  0  0  0  0  0
   47.2299    3.1843   15.7219 H   0  0  0  0  0  0  0  0  0  0  0  0
   50.5343    2.6153   18.4140 H   0  0  0  0  0  0  0  0  0  0  0  0
   50.1503    1.3879   16.5545 H   0  0  0  0  0  0  0  0  0  0  0  0
   49.5615    5.2526   20.4686 H   0  0  0  0  0  0  0  0  0  0  0  0
   47.1373   11.3128   20.4902 H   0  0  0  0  0  0  0  0  0  0  0  0
   48.8379    3.2643   16.1908 H   0  0  0  0  0  0  0  0  0  0  0  0
   47.0854   10.0053   22.6056 H   0  0  0  0  0  0  0  0  0  0  0  0
   48.6926    2.2083   18.4354 H   0  0  0  0  0  0  0  0  0  0  0  0
   47.4931   10.1520   18.3454 H   0  0  0  0  0  0  0  0  0  0  0  0
   48.4781    5.6714   15.9477 H   0  0  0  0  0  0  0  0  0  0  0  0
   47.3992    7.5541   22.5419 H   0  0  0  0  0  0  0  0  0  0  0  0
   48.1983    3.5991   20.4158 H   0  0  0  0  0  0  0  0  0  0  0  0
   48.9917    8.5285   16.7450 H   0  0  0  0  0  0  0  0  0  0  0  0
   47.8175    7.6290   15.9808 H   0  0  0  0  0  0  0  0  0  0  0  0
  2  1  1  0
  3  2  1  0
  4  3  1  0
  5  4  1  0
  6  5  1  0
  8  7  2  0
 10  6  1  0
 10  7  1  0
 11  8  1  0
 11  9  2  0
 12  9  1  0
 12 10  2  0
 13 11  1  0
 14 12  1  0
 17 15  2  0
 18 16  1  0
 19 15  1  0
 20 16  2  0
 21 17  1  0
 22 18  2  0
 23 19  2  0
 24 20  1  0
 25 21  2  0
 25 23  1  0
 26 22  1  0
 26 24  1  0
 27 23  1  0
 27 24  2  0
 28 27  1  0
 29 25  1  0
 29 26  2  0
  1 30  1  0
  1 31  1  0
  1 32  1  0
  2 33  1  0
  2 34  1  0
  3 35  1  0
  3 36  1  0
  4 37  1  0
  4 38  1  0
  5 39  1  0
  5 40  1  0
  6 41  1  0
  6 42  1  0
  7 43  1  0
  8 44  1  0
  9 45  1  0
 13 46  1  0
 14 47  1  0
 15 48  1  0
 16 49  1  0
 17 50  1  0
 18 51  1  0
 19 52  1  0
 20 53  1  0
 21 54  1  0
 22 55  1  0
 28 56  1  0
 28 57  1  0
M  END
> <Uni-Dock RESULT> 
ENERGY=   -6.684  LOWER_BOUND=    0.000  UPPER_BOUND=    0.000
INTER + INTRA:          -6.684
INTER:                  -6.684
INTRA:                   0.000
UNBOUND:                 0.000

$$$$

     RDKit          3D

 57 59  0  0  0  0  0  0  0  0999 V2000
   43.5643    3.5317   11.2516 C   0  0  0  0  0  0  0  0  0  0  0  0
   43.4164    4.0777   12.6634 C   0  0  0  0  0  0  0  0  0  0  0  0
   43.9605    5.4983   12.8293 C   0  0  0  0  0  0  0  0  0  0  0  0
   45.4761    5.5930   12.6398 C   0  0  0  0  0  0  0  0  0  0  0  0
   45.9820    7.0100   12.9204 C   0  0  0  0  0  0  0  0  0  0  0  0
   47.4973    7.1064   12.7254 C   0  0  0  0  0  0  0  0  0  0  0  0
   48.2100    9.3693   11.9131 C   0  0  0  0  0  0  0  0  0  0  0  0
   48.6788   10.6696   12.1119 C   0  0  0  0  0  0  0  0  0  0  0  0
   48.7568   10.2771   14.4916 C   0  0  0  0  0  0  0  0  0  0  0  0
   48.0120    8.4989   12.9997 C   0  0  0  0  0  0  0  0  0  0  0  0
   48.9502   11.1128   13.3986 C   0  0  0  0  0  0  0  0  0  0  0  0
   48.2857    8.9795   14.2884 C   0  0  0  0  0  0  0  0  0  0  0  0
   49.4073   12.3885   13.5503 O   0  0  0  0  0  0  0  0  0  0  0  0
   48.1140    8.2299   15.4184 O   0  0  0  0  0  0  0  0  0  0  0  0
   44.2885    4.2197   12.3088 C   0  0  0  0  0  0  0  0  0  0  0  0
   48.1609   10.4259   12.9749 C   0  0  0  0  0  0  0  0  0  0  0  0
   45.3209    3.5965   12.9942 C   0  0  0  0  0  0  0  0  0  0  0  0
   49.1154    9.6614   13.6269 C   0  0  0  0  0  0  0  0  0  0  0  0
   44.3831    5.5799   12.0198 C   0  0  0  0  0  0  0  0  0  0  0  0
   47.0112    9.8113   12.4788 C   0  0  0  0  0  0  0  0  0  0  0  0
   46.4380    4.3393   13.3839 C   0  0  0  0  0  0  0  0  0  0  0  0
   48.9087    8.2902   13.7838 C   0  0  0  0  0  0  0  0  0  0  0  0
   45.5110    6.3378   12.4156 C   0  0  0  0  0  0  0  0  0  0  0  0
   46.7971    8.4161   12.6247 C   0  0  0  0  0  0  0  0  0  0  0  0
   46.5525    5.6964   13.1090 C   0  0  0  0  0  0  0  0  0  0  0  0
   47.7710    7.6556   13.3028 C   0  0  0  0  0  0  0  0  0  0  0  0
   45.6624    7.7180   12.1328 C   0  0  0  0  0  0  0  0  0  0  0  0
   44.5657    8.4175   11.5472 N   0  0  0  0  0  0  0  0  0  0  0  0
   47.6519    6.3396   13.5257 N   0  0  0  0  0  0  0  0  0  0  0  0
   43.0716    2.5573   11.1728 H   0  0  0  0  0  0  0  0  0  0  0  0
   43.1045    4.2036   10.5199 H   0  0  0  0  0  0  0  0  0  0  0  0
   44.6155    3.3931   10.9828 H   0  0  0  0  0  0  0  0  0  0  0  0
   43.9136    3.4026   13.3696 H   0  0  0  0  0  0  0  0  0  0  0  0
   42.3516    4.0816   12.9250 H   0  0  0  0  0  0  0  0  0  0  0  0
   43.4565    6.1699   12.1237 H   0  0  0  0  0  0  0  0  0  0  0  0
   43.7027    5.8477   13.8368 H   0  0  0  0  0  0  0  0  0  0  0  0
   45.9757    4.8857   13.3126 H   0  0  0  0  0  0  0  0  0  0  0  0
   45.7445    5.3133   11.6148 H   0  0  0  0  0  0  0  0  0  0  0  0
   45.7138    7.2979   13.9444 H   0  0  0  0  0  0  0  0  0  0  0  0
   45.4767    7.7189   12.2520 H   0  0  0  0  0  0  0  0  0  0  0  0
   47.7549    6.8166   11.6982 H   0  0  0  0  0  0  0  0  0  0  0  0
   48.0194    6.3855   13.3662 H   0  0  0  0  0  0  0  0  0  0  0  0
   47.9998    9.0393   10.8978 H   0  0  0  0  0  0  0  0  0  0  0  0
   48.8307   11.3329   11.2652 H   0  0  0  0  0  0  0  0  0  0  0  0
   48.9613   10.6133   15.5026 H   0  0  0  0  0  0  0  0  0  0  0  0
   49.5528   12.5501   14.4972 H   0  0  0  0  0  0  0  0  0  0  0  0
   47.7295    7.3724   15.1827 H   0  0  0  0  0  0  0  0  0  0  0  0
   43.4163    3.6536   11.9936 H   0  0  0  0  0  0  0  0  0  0  0  0
   48.3076   11.4956   12.8501 H   0  0  0  0  0  0  0  0  0  0  0  0
   45.2657    2.5364   13.2259 H   0  0  0  0  0  0  0  0  0  0  0  0
   50.0177   10.1230   14.0187 H   0  0  0  0  0  0  0  0  0  0  0  0
   43.5756    6.0561   11.4674 H   0  0  0  0  0  0  0  0  0  0  0  0
   46.2828   10.4389   11.9747 H   0  0  0  0  0  0  0  0  0  0  0  0
   47.2446    3.8449   13.9206 H   0  0  0  0  0  0  0  0  0  0  0  0
   49.6576    7.6962   14.3037 H   0  0  0  0  0  0  0  0  0  0  0  0
   43.8822    8.6461   12.2677 H   0  0  0  0  0  0  0  0  0  0  0  0
   44.8518    9.2607   11.0617 H   0  0  0  0  0  0  0  0  0  0  0  0
  2  1  1  0
  3  2  1  0
  4  3  1  0
  5  4  1  0
  6  5  1  0
  8  7  2  0
 10  6  1  0
 10  7  1  0
 11  8  1  0
 11  9  2  0
 12  9  1  0
 12 10  2  0
 13 11  1  0
 14 12  1  0
 17 15  2  0
 18 16  1  0
 19 15  1  0
 20 16  2  0
 21 17  1  0
 22 18  2  0
 23 19  2  0
 24 20  1  0
 25 21  2  0
 25 23  1  0
 26 22  1  0
 26 24  1  0
 27 23  1  0
 27 24  2  0
 28 27  1  0
 29 25  1  0
 29 26  2  0
  1 30  1  0
  1 31  1  0
  1 32  1  0
  2 33  1  0
  2 34  1  0
  3 35  1  0
  3 36  1  0
  4 37  1  0
  4 38  1  0
  5 39  1  0
  5 40  1  0
  6 41  1  0
  6 42  1  0
  7 43  1  0
  8 44  1  0
  9 45  1  0
 13 46  1  0
 14 47  1  0
 15 48  1  0
 16 49  1  0
 17 50  1  0
 18 51  1  0
 19 52  1  0
 20 53  1  0
 21 54  1  0
 22 55  1  0
 28 56  1  0
 28 57  1  0
M  END
> <Uni-Dock RESULT> 
ENERGY=   -6.011  LOWER_BOUND=    5.647  UPPER_BOUND=    8.222
INTER + INTRA:          -6.011
INTER:                  -6.011
INTRA:                   0.000
UNBOUND:                 0.000

$$$$

     RDKit          3D

 57 59  0  0  0  0  0  0  0  0999 V2000
   48.7942    5.1449   22.4422 C   0  0  0  0  0  0  0  0  0  0  0  0
   47.3661    5.4815   22.0418 C   0  0  0  0  0  0  0  0  0  0  0  0
   47.2735    6.5360   20.9368 C   0  0  0  0  0  0  0  0  0  0  0  0
   47.7852    7.9123   21.3678 C   0  0  0  0  0  0  0  0  0  0  0  0
   47.5726    8.9524   20.2652 C   0  0  0  0  0  0  0  0  0  0  0  0
   48.0893   10.3282   20.6939 C   0  0  0  0  0  0  0  0  0  0  0  0
   48.9584   11.6638   18.7577 C   0  0  0  0  0  0  0  0  0  0  0  0
   48.8217   12.6113   17.7410 C   0  0  0  0  0  0  0  0  0  0  0  0
   46.5311   12.9873   18.4005 C   0  0  0  0  0  0  0  0  0  0  0  0
   47.8857   11.3660   19.6166 C   0  0  0  0  0  0  0  0  0  0  0  0
   47.6103   13.2668   17.5714 C   0  0  0  0  0  0  0  0  0  0  0  0
   46.6716   12.0379   19.4134 C   0  0  0  0  0  0  0  0  0  0  0  0
   47.5178   14.1856   16.5680 O   0  0  0  0  0  0  0  0  0  0  0  0
   45.5580   11.8172   20.1746 O   0  0  0  0  0  0  0  0  0  0  0  0
   47.8970    6.2595   22.1810 C   0  0  0  0  0  0  0  0  0  0  0  0
   47.8755   12.2136   17.8796 C   0  0  0  0  0  0  0  0  0  0  0  0
   47.4748    7.0956   23.2041 C   0  0  0  0  0  0  0  0  0  0  0  0
   47.4739   12.9201   19.0022 C   0  0  0  0  0  0  0  0  0  0  0  0
   48.1523    6.7968   20.9207 C   0  0  0  0  0  0  0  0  0  0  0  0
   48.1304   10.8462   17.9841 C   0  0  0  0  0  0  0  0  0  0  0  0
   47.3122    8.4608   22.9571 C   0  0  0  0  0  0  0  0  0  0  0  0
   47.3233   12.2518   20.2180 C   0  0  0  0  0  0  0  0  0  0  0  0
   47.9856    8.1786   20.6641 C   0  0  0  0  0  0  0  0  0  0  0  0
   47.9898   10.1602   19.2183 C   0  0  0  0  0  0  0  0  0  0  0  0
   47.5583    9.0178   21.7082 C   0  0  0  0  0  0  0  0  0  0  0  0
   47.5667   10.8907   20.3470 C   0  0  0  0  0  0  0  0  0  0  0  0
   48.2466    8.7762   19.4061 C   0  0  0  0  0  0  0  0  0  0  0  0
   48.5548    7.9289   18.3005 N   0  0  0  0  0  0  0  0  0  0  0  0
   47.3689   10.3350   21.5503 N   0  0  0  0  0  0  0  0  0  0  0  0
   48.7975    4.3197   23.1615 H   0  0  0  0  0  0  0  0  0  0  0  0
   49.3845    4.8385   21.5728 H   0  0  0  0  0  0  0  0  0  0  0  0
   49.2902    5.9975   22.9152 H   0  0  0  0  0  0  0  0  0  0  0  0
   46.8089    5.8159   22.9246 H   0  0  0  0  0  0  0  0  0  0  0  0
   46.8789    4.5650   21.6882 H   0  0  0  0  0  0  0  0  0  0  0  0
   47.8288    6.1940   20.0549 H   0  0  0  0  0  0  0  0  0  0  0  0
   46.2226    6.6227   20.6341 H   0  0  0  0  0  0  0  0  0  0  0  0
   47.2622    8.2307   22.2775 H   0  0  0  0  0  0  0  0  0  0  0  0
   48.8530    7.8577   21.6075 H   0  0  0  0  0  0  0  0  0  0  0  0
   46.5054    9.0101   20.0179 H   0  0  0  0  0  0  0  0  0  0  0  0
   48.0899    8.6304   19.3525 H   0  0  0  0  0  0  0  0  0  0  0  0
   49.1573   10.2596   20.9390 H   0  0  0  0  0  0  0  0  0  0  0  0
   47.6030   10.6558   21.6207 H   0  0  0  0  0  0  0  0  0  0  0  0
   49.9145   11.1575   18.8746 H   0  0  0  0  0  0  0  0  0  0  0  0
   49.6576   12.8355   17.0847 H   0  0  0  0  0  0  0  0  0  0  0  0
   45.5779   13.4900   18.2753 H   0  0  0  0  0  0  0  0  0  0  0  0
   46.6203   14.5574   16.5765 H   0  0  0  0  0  0  0  0  0  0  0  0
   45.7339   11.1041   20.8064 H   0  0  0  0  0  0  0  0  0  0  0  0
   48.0341    5.1965   22.3598 H   0  0  0  0  0  0  0  0  0  0  0  0
   47.9922   12.7213   16.9256 H   0  0  0  0  0  0  0  0  0  0  0  0
   47.2734    6.6949   24.1938 H   0  0  0  0  0  0  0  0  0  0  0  0
   47.2722   13.9860   18.9396 H   0  0  0  0  0  0  0  0  0  0  0  0
   48.4989    6.1355   20.1290 H   0  0  0  0  0  0  0  0  0  0  0  0
   48.4417   10.3224   17.0857 H   0  0  0  0  0  0  0  0  0  0  0  0
   46.9814    9.1116   23.7635 H   0  0  0  0  0  0  0  0  0  0  0  0
   46.9998   12.8098   21.0944 H   0  0  0  0  0  0  0  0  0  0  0  0
   47.6953    7.5296   17.9260 H   0  0  0  0  0  0  0  0  0  0  0  0
   49.0615    8.4105   17.5658 H   0  0  0  0  0  0  0  0  0  0  0  0
  2  1  1  0
  3  2  1  0
  4  3  1  0
  5  4  1  0
  6  5  1  0
  8  7  2  0
 10  6  1  0
 10  7  1  0
 11  8  1  0
 11  9  2  0
 12  9  1  0
 12 10  2  0
 13 11  1  0
 14 12  1  0
 17 15  2  0
 18 16  1  0
 19 15  1  0
 20 16  2  0
 21 17  1  0
 22 18  2  0
 23 19  2  0
 24 20  1  0
 25 21  2  0
 25 23  1  0
 26 22  1  0
 26 24  1  0
 27 23  1  0
 27 24  2  0
 28 27  1  0
 29 25  1  0
 29 26  2  0
  1 30  1  0
  1 31  1  0
  1 32  1  0
  2 33  1  0
  2 34  1  0
  3 35  1  0
  3 36  1  0
  4 37  1  0
  4 38  1  0
  5 39  1  0
  5 40  1  0
  6 41  1  0
  6 42  1  0
  7 43  1  0
  8 44  1  0
  9 45  1  0
 13 46  1  0
 14 47  1  0
 15 48  1  0
 16 49  1  0
 17 50  1  0
 18 51  1  0
 19 52  1  0
 20 53  1  0
 21 54  1  0
 22 55  1  0
 28 56  1  0
 28 57  1  0
M  END
> <Uni-Dock RESULT> 
ENERGY=   -5.600  LOWER_BOUND=    3.867  UPPER_BOUND=    6.468
INTER + INTRA:          -5.600
INTER:                  -5.600
INTRA:                   0.000
UNBOUND:                 0.000

$$$$

     RDKit          3D

 57 59  0  0  0  0  0  0  0  0999 V2000
   43.4054    3.9588   13.0251 C   0  0  0  0  0  0  0  0  0  0  0  0
   44.6264    3.4181   12.2972 C   0  0  0  0  0  0  0  0  0  0  0  0
   45.9485    3.9913   12.8121 C   0  0  0  0  0  0  0  0  0  0  0  0
   46.0996    5.4923   12.5549 C   0  0  0  0  0  0  0  0  0  0  0  0
   47.4785    5.9930   12.9914 C   0  0  0  0  0  0  0  0  0  0  0  0
   47.6279    7.4955   12.7394 C   0  0  0  0  0  0  0  0  0  0  0  0
   49.1125    8.6010   14.4312 C   0  0  0  0  0  0  0  0  0  0  0  0
   50.3455    9.0833   14.8754 C   0  0  0  0  0  0  0  0  0  0  0  0
   51.3660    8.3792   12.8052 C   0  0  0  0  0  0  0  0  0  0  0  0
   48.9842    8.0047   13.1642 C   0  0  0  0  0  0  0  0  0  0  0  0
   51.4618    8.9705   14.0588 C   0  0  0  0  0  0  0  0  0  0  0  0
   50.1325    7.8964   12.3665 C   0  0  0  0  0  0  0  0  0  0  0  0
   52.6468    9.4545   14.5287 O   0  0  0  0  0  0  0  0  0  0  0  0
   50.1306    7.3207   11.1268 O   0  0  0  0  0  0  0  0  0  0  0  0
   44.6475    4.3657   12.3871 C   0  0  0  0  0  0  0  0  0  0  0  0
   50.5677    8.3032   14.2315 C   0  0  0  0  0  0  0  0  0  0  0  0
   44.6429    5.0788   11.1974 C   0  0  0  0  0  0  0  0  0  0  0  0
   50.4194    8.9422   13.0107 C   0  0  0  0  0  0  0  0  0  0  0  0
   45.6119    4.6517   13.3517 C   0  0  0  0  0  0  0  0  0  0  0  0
   49.6496    7.3234   14.6092 C   0  0  0  0  0  0  0  0  0  0  0  0
   45.6026    6.0712   10.9838 C   0  0  0  0  0  0  0  0  0  0  0  0
   49.3586    8.5908   12.1748 C   0  0  0  0  0  0  0  0  0  0  0  0
   46.5887    5.6535   13.1388 C   0  0  0  0  0  0  0  0  0  0  0  0
   48.5622    6.9664   13.7704 C   0  0  0  0  0  0  0  0  0  0  0  0
   46.5748    6.3715   11.9299 C   0  0  0  0  0  0  0  0  0  0  0  0
   48.4340    7.6159   12.5260 C   0  0  0  0  0  0  0  0  0  0  0  0
   47.5798    5.9929   14.0929 C   0  0  0  0  0  0  0  0  0  0  0  0
   47.6952    5.1935   15.2688 N   0  0  0  0  0  0  0  0  0  0  0  0
   47.4658    7.3308   11.6444 N   0  0  0  0  0  0  0  0  0  0  0  0
   42.5040    3.4416   12.6810 H   0  0  0  0  0  0  0  0  0  0  0  0
   43.4919    3.8058   14.1055 H   0  0  0  0  0  0  0  0  0  0  0  0
   43.2658    5.0272   12.8361 H   0  0  0  0  0  0  0  0  0  0  0  0
   44.5274    3.6143   11.2232 H   0  0  0  0  0  0  0  0  0  0  0  0
   44.6499    2.3286   12.4194 H   0  0  0  0  0  0  0  0  0  0  0  0
   46.0440    3.7881   13.8857 H   0  0  0  0  0  0  0  0  0  0  0  0
   46.7687    3.4581   12.3157 H   0  0  0  0  0  0  0  0  0  0  0  0
   45.9558    5.6987   11.4875 H   0  0  0  0  0  0  0  0  0  0  0  0
   45.3279    6.0463   13.1011 H   0  0  0  0  0  0  0  0  0  0  0  0
   48.2563    5.4401   12.4505 H   0  0  0  0  0  0  0  0  0  0  0  0
   47.6254    5.7799   14.0579 H   0  0  0  0  0  0  0  0  0  0  0  0
   46.8454    8.0393   13.2849 H   0  0  0  0  0  0  0  0  0  0  0  0
   47.4577    7.7323   11.6821 H   0  0  0  0  0  0  0  0  0  0  0  0
   48.2483    8.6953   15.0856 H   0  0  0  0  0  0  0  0  0  0  0  0
   50.4330    9.5444   15.8550 H   0  0  0  0  0  0  0  0  0  0  0  0
   52.2322    8.2814   12.1593 H   0  0  0  0  0  0  0  0  0  0  0  0
   53.3270    9.3074   13.8507 H   0  0  0  0  0  0  0  0  0  0  0  0
   49.2500    6.9643   10.9368 H   0  0  0  0  0  0  0  0  0  0  0  0
   43.9034    3.5953   12.5701 H   0  0  0  0  0  0  0  0  0  0  0  0
   51.3922    8.5644   14.8899 H   0  0  0  0  0  0  0  0  0  0  0  0
   43.8971    4.8714   10.4349 H   0  0  0  0  0  0  0  0  0  0  0  0
   51.1243    9.7089   12.7006 H   0  0  0  0  0  0  0  0  0  0  0  0
   45.5972    4.0981   14.2884 H   0  0  0  0  0  0  0  0  0  0  0  0
   49.7955    6.8412   15.5709 H   0  0  0  0  0  0  0  0  0  0  0  0
   45.5935    6.6275   10.0491 H   0  0  0  0  0  0  0  0  0  0  0  0
   49.2516    9.0899   11.2139 H   0  0  0  0  0  0  0  0  0  0  0  0
   48.2052    4.3383   15.0519 H   0  0  0  0  0  0  0  0  0  0  0  0
   48.1484    5.6822   16.0331 H   0  0  0  0  0  0  0  0  0  0  0  0
  2  1  1  0
  3  2  1  0
  4  3  1  0
  5  4  1  0
  6  5  1  0
  8  7  2  0
 10  6  1  0
 10  7  1  0
 11  8  1  0
 11  9  2  0
 12  9  1  0
 12 10  2  0
 13 11  1  0
 14 12  1  0
 17 15  2  0
 18 16  1  0
 19 15  1  0
 20 16  2  0
 21 17  1  0
 22 18  2  0
 23 19  2  0
 24 20  1  0
 25 21  2  0
 25 23  1  0
 26 22  1  0
 26 24  1  0
 27 23  1  0
 27 24  2  0
 28 27  1  0
 29 25  1  0
 29 26  2  0
  1 30  1  0
  1 31  1  0
  1 32  1  0
  2 33  1  0
  2 34  1  0
  3 35  1  0
  3 36  1  0
  4 37  1  0
  4 38  1  0
  5 39  1  0
  5 40  1  0
  6 41  1  0
  6 42  1  0
  7 43  1  0
  8 44  1  0
  9 45  1  0
 13 46  1  0
 14 47  1  0
 15 48  1  0
 16 49  1  0
 17 50  1  0
 18 51  1  0
 19 52  1  0
 20 53  1  0
 21 54  1  0
 22 55  1  0
 28 56  1  0
 28 57  1  0
M  END
> <Uni-Dock RESULT> 
ENERGY=   -5.557  LOWER_BOUND=    5.471  UPPER_BOUND=    7.951
INTER + INTRA:          -5.557
INTER:                  -5.557
INTRA:                   0.000
UNBOUND:                 0.000

$$$$

     RDKit          3D

 57 59  0  0  0  0  0  0  0  0999 V2000
   47.1133   13.9335   17.0017 C   0  0  0  0  0  0  0  0  0  0  0  0
   48.4016   13.6854   17.7710 C   0  0  0  0  0  0  0  0  0  0  0  0
   48.7391   12.2020   17.9356 C   0  0  0  0  0  0  0  0  0  0  0  0
   47.7328   11.4440   18.8044 C   0  0  0  0  0  0  0  0  0  0  0  0
   48.1723    9.9945   19.0245 C   0  0  0  0  0  0  0  0  0  0  0  0
   47.1630    9.2345   19.8889 C   0  0  0  0  0  0  0  0  0  0  0  0
   47.0391    6.8024   19.2907 C   0  0  0  0  0  0  0  0  0  0  0  0
   47.3984    5.4629   19.4545 C   0  0  0  0  0  0  0  0  0  0  0  0
   48.8671    6.0793   21.2673 C   0  0  0  0  0  0  0  0  0  0  0  0
   47.5833    7.8023   20.1160 C   0  0  0  0  0  0  0  0  0  0  0  0
   48.3077    5.1115   20.4422 C   0  0  0  0  0  0  0  0  0  0  0  0
   48.5070    7.4168   21.0983 C   0  0  0  0  0  0  0  0  0  0  0  0
   48.6317    3.7932   20.5705 O   0  0  0  0  0  0  0  0  0  0  0  0
   49.1125    8.3028   21.9448 O   0  0  0  0  0  0  0  0  0  0  0  0
   47.6843   13.1402   18.0787 C   0  0  0  0  0  0  0  0  0  0  0  0
   48.2199    6.0113   19.7660 C   0  0  0  0  0  0  0  0  0  0  0  0
   47.3041   13.3414   19.3974 C   0  0  0  0  0  0  0  0  0  0  0  0
   47.8086    6.3681   21.0404 C   0  0  0  0  0  0  0  0  0  0  0  0
   47.9498   11.8463   17.6338 C   0  0  0  0  0  0  0  0  0  0  0  0
   48.3256    6.9916   18.7793 C   0  0  0  0  0  0  0  0  0  0  0  0
   47.1928   12.2470   20.2584 C   0  0  0  0  0  0  0  0  0  0  0  0
   47.5135    7.7032   21.3193 C   0  0  0  0  0  0  0  0  0  0  0  0
   47.8422   10.7345   18.5030 C   0  0  0  0  0  0  0  0  0  0  0  0
   48.0182    8.3500   19.0509 C   0  0  0  0  0  0  0  0  0  0  0  0
   47.4551   10.9491   19.8375 C   0  0  0  0  0  0  0  0  0  0  0  0
   47.6150    8.6983   20.3559 C   0  0  0  0  0  0  0  0  0  0  0  0
   48.0857    9.3992   18.0962 C   0  0  0  0  0  0  0  0  0  0  0  0
   48.6039    9.1697   16.7871 N   0  0  0  0  0  0  0  0  0  0  0  0
   47.3350    9.9548   20.7280 N   0  0  0  0  0  0  0  0  0  0  0  0
   46.9780   15.0066   16.8328 H   0  0  0  0  0  0  0  0  0  0  0  0
   47.1360   13.4375   16.0262 H   0  0  0  0  0  0  0  0  0  0  0  0
   46.2403   13.5733   17.5537 H   0  0  0  0  0  0  0  0  0  0  0  0
   48.3373   14.1650   18.7546 H   0  0  0  0  0  0  0  0  0  0  0  0
   49.2257   14.1711   17.2350 H   0  0  0  0  0  0  0  0  0  0  0  0
   48.8066   11.7285   16.9485 H   0  0  0  0  0  0  0  0  0  0  0  0
   49.7344   12.1262   18.3908 H   0  0  0  0  0  0  0  0  0  0  0  0
   47.6313   11.9472   19.7734 H   0  0  0  0  0  0  0  0  0  0  0  0
   46.7459   11.4507   18.3283 H   0  0  0  0  0  0  0  0  0  0  0  0
   49.1616    9.9804   19.4982 H   0  0  0  0  0  0  0  0  0  0  0  0
   48.2810    9.4929   18.0544 H   0  0  0  0  0  0  0  0  0  0  0  0
   46.1771    9.2545   19.4063 H   0  0  0  0  0  0  0  0  0  0  0  0
   47.0203    9.7362   20.8537 H   0  0  0  0  0  0  0  0  0  0  0  0
   46.3268    7.0603   18.5096 H   0  0  0  0  0  0  0  0  0  0  0  0
   46.9701    4.6981   18.8131 H   0  0  0  0  0  0  0  0  0  0  0  0
   49.5821    5.8177   22.0401 H   0  0  0  0  0  0  0  0  0  0  0  0
   49.2699    3.7051   21.2977 H   0  0  0  0  0  0  0  0  0  0  0  0
   48.8474    9.2053   21.7123 H   0  0  0  0  0  0  0  0  0  0  0  0
   47.7689   13.9810   17.3957 H   0  0  0  0  0  0  0  0  0  0  0  0
   48.4570    4.9755   19.5368 H   0  0  0  0  0  0  0  0  0  0  0  0
   47.0906   14.3427   19.7613 H   0  0  0  0  0  0  0  0  0  0  0  0
   47.7193    5.6175   21.8211 H   0  0  0  0  0  0  0  0  0  0  0  0
   48.2314   11.6969   16.5934 H   0  0  0  0  0  0  0  0  0  0  0  0
   48.6520    6.6789   17.7923 H   0  0  0  0  0  0  0  0  0  0  0  0
   46.8937   12.4111   21.2913 H   0  0  0  0  0  0  0  0  0  0  0  0
   47.1989    7.9791   22.3237 H   0  0  0  0  0  0  0  0  0  0  0  0
   49.6071    9.3484   16.7804 H   0  0  0  0  0  0  0  0  0  0  0  0
   48.4173    8.2318   16.4495 H   0  0  0  0  0  0  0  0  0  0  0  0
  2  1  1  0
  3  2  1  0
  4  3  1  0
  5  4  1  0
  6  5  1  0
  8  7  2  0
 10  6  1  0
 10  7  1  0
 11  8  1  0
 11  9  2  0
 12  9  1  0
 12 10  2  0
 13 11  1  0
 14 12  1  0
 17 15  2  0
 18 16  1  0
 19 15  1  0
 20 16  2  0
 21 17  1  0
 22 18  2  0
 23 19  2  0
 24 20  1  0
 25 21  2  0
 25 23  1  0
 26 22  1  0
 26 24  1  0
 27 23  1  0
 27 24  2  0
 28 27  1  0
 29 25  1  0
 29 26  2  0
  1 30  1  0
  1 31  1  0
  1 32  1  0
  2 33  1  0
  2 34  1  0
  3 35  1  0
  3 36  1  0
  4 37  1  0
  4 38  1  0
  5 39  1  0
  5 40  1  0
  6 41  1  0
  6 42  1  0
  7 43  1  0
  8 44  1  0
  9 45  1  0
 13 46  1  0
 14 47  1  0
 15 48  1  0
 16 49  1  0
 17 50  1  0
 18 51  1  0
 19 52  1  0
 20 53  1  0
 21 54  1  0
 22 55  1  0
 28 56  1  0
 28 57  1  0
M  END
> <Uni-Dock RESULT> 
ENERGY=   -5.553  LOWER_BOUND=    2.103  UPPER_BOUND=    3.565
INTER + INTRA:          -5.553
INTER:                  -5.553
INTRA:                   0.000
UNBOUND:                 0.000

$$$$

     RDKit          3D

 57 59  0  0  0  0  0  0  0  0999 V2000
   47.3919    3.0933   17.8435 C   0  0  0  0  0  0  0  0  0  0  0  0
   48.7676    3.6376   18.1964 C   0  0  0  0  0  0  0  0  0  0  0  0
   48.7222    4.9402   18.9982 C   0  0  0  0  0  0  0  0  0  0  0  0
   48.1388    6.1162   18.2118 C   0  0  0  0  0  0  0  0  0  0  0  0
   48.2141    7.4143   19.0193 C   0  0  0  0  0  0  0  0  0  0  0  0
   47.6255    8.5898   18.2350 C   0  0  0  0  0  0  0  0  0  0  0  0
   46.5555   10.2925   19.7332 C   0  0  0  0  0  0  0  0  0  0  0  0
   46.5668   11.4733   20.4786 C   0  0  0  0  0  0  0  0  0  0  0  0
   48.8583   11.8608   19.8288 C   0  0  0  0  0  0  0  0  0  0  0  0
   47.6935    9.8786   19.0184 C   0  0  0  0  0  0  0  0  0  0  0  0
   47.7168   12.2490   20.5192 C   0  0  0  0  0  0  0  0  0  0  0  0
   48.8432   10.6788   19.0874 C   0  0  0  0  0  0  0  0  0  0  0  0
   47.6869   13.3951   21.2575 O   0  0  0  0  0  0  0  0  0  0  0  0
   50.0109   10.3673   18.4489 O   0  0  0  0  0  0  0  0  0  0  0  0
   48.1912    4.3085   17.8439 C   0  0  0  0  0  0  0  0  0  0  0  0
   47.5453   11.1338   20.4807 C   0  0  0  0  0  0  0  0  0  0  0  0
   48.6097    4.8924   16.6574 C   0  0  0  0  0  0  0  0  0  0  0  0
   47.9581   11.5661   19.2303 C   0  0  0  0  0  0  0  0  0  0  0  0
   47.8275    5.1225   18.9152 C   0  0  0  0  0  0  0  0  0  0  0  0
   47.3949    9.7678   20.7195 C   0  0  0  0  0  0  0  0  0  0  0  0
   48.6603    6.2846   16.5534 C   0  0  0  0  0  0  0  0  0  0  0  0
   48.2242   10.6283   18.2317 C   0  0  0  0  0  0  0  0  0  0  0  0
   47.8805    6.5333   18.8164 C   0  0  0  0  0  0  0  0  0  0  0  0
   47.6535    8.8075   19.7073 C   0  0  0  0  0  0  0  0  0  0  0  0
   48.3050    7.1153   17.6089 C   0  0  0  0  0  0  0  0  0  0  0  0
   48.0863    9.2631   18.4456 C   0  0  0  0  0  0  0  0  0  0  0  0
   47.5070    7.4043   19.8698 C   0  0  0  0  0  0  0  0  0  0  0  0
   47.1982    6.8399   21.1431 N   0  0  0  0  0  0  0  0  0  0  0  0
   48.3907    8.4410   17.4321 N   0  0  0  0  0  0  0  0  0  0  0  0
   47.4881    2.1164   17.3590 H   0  0  0  0  0  0  0  0  0  0  0  0
   46.7769    2.9674   18.7402 H   0  0  0  0  0  0  0  0  0  0  0  0
   46.8639    3.7551   17.1508 H   0  0  0  0  0  0  0  0  0  0  0  0
   49.3483    3.7844   17.2783 H   0  0  0  0  0  0  0  0  0  0  0  0
   49.2982    2.8835   18.7897 H   0  0  0  0  0  0  0  0  0  0  0  0
   48.1439    4.7861   19.9174 H   0  0  0  0  0  0  0  0  0  0  0  0
   49.7455    5.1876   19.3068 H   0  0  0  0  0  0  0  0  0  0  0  0
   48.6882    6.2378   17.2706 H   0  0  0  0  0  0  0  0  0  0  0  0
   47.0928    5.9142   17.9552 H   0  0  0  0  0  0  0  0  0  0  0  0
   49.2588    7.6210   19.2824 H   0  0  0  0  0  0  0  0  0  0  0  0
   47.6705    7.2903   19.9645 H   0  0  0  0  0  0  0  0  0  0  0  0
   46.5806    8.3731   17.9769 H   0  0  0  0  0  0  0  0  0  0  0  0
   48.1387    8.7131   17.2736 H   0  0  0  0  0  0  0  0  0  0  0  0
   45.6462    9.6952   19.7147 H   0  0  0  0  0  0  0  0  0  0  0  0
   45.6814   11.7850   21.0250 H   0  0  0  0  0  0  0  0  0  0  0  0
   49.7646   12.4564   19.8561 H   0  0  0  0  0  0  0  0  0  0  0  0
   48.5546   13.8263   21.1870 H   0  0  0  0  0  0  0  0  0  0  0  0
   49.9222    9.5060   18.0140 H   0  0  0  0  0  0  0  0  0  0  0  0
   48.1406    3.2271   17.9375 H   0  0  0  0  0  0  0  0  0  0  0  0
   47.3390   11.8537   21.2685 H   0  0  0  0  0  0  0  0  0  0  0  0
   48.8946    4.2739   15.8108 H   0  0  0  0  0  0  0  0  0  0  0  0
   48.0794   12.6264   19.0260 H   0  0  0  0  0  0  0  0  0  0  0  0
   47.4850    4.6552   19.8363 H   0  0  0  0  0  0  0  0  0  0  0  0
   47.0716    9.4628   21.7099 H   0  0  0  0  0  0  0  0  0  0  0  0
   48.9887    6.7367   15.6202 H   0  0  0  0  0  0  0  0  0  0  0  0
   48.5560   10.9727   17.2543 H   0  0  0  0  0  0  0  0  0  0  0  0
   48.0615    6.6207   21.6382 H   0  0  0  0  0  0  0  0  0  0  0  0
   46.6179    7.4469   21.7115 H   0  0  0  0  0  0  0  0  0  0  0  0
  2  1  1  0
  3  2  1  0
  4  3  1  0
  5  4  1  0
  6  5  1  0
  8  7  2  0
 10  6  1  0
 10  7  1  0
 11  8  1  0
 11  9  2  0
 12  9  1  0
 12 10  2  0
 13 11  1  0
 14 12  1  0
 17 15  2  0
 18 16  1  0
 19 15  1  0
 20 16  2  0
 21 17  1  0
 22 18  2  0
 23 19  2  0
 24 20  1  0
 25 21  2  0
 25 23  1  0
 26 22  1  0
 26 24  1  0
 27 23  1  0
 27 24  2  0
 28 27  1  0
 29 25  1  0
 29 26  2  0
  1 30  1  0
  1 31  1  0
  1 32  1  0
  2 33  1  0
  2 34  1  0
  3 35  1  0
  3 36  1  0
  4 37  1  0
  4 38  1  0
  5 39  1  0
  5 40  1  0
  6 41  1  0
  6 42  1  0
  7 43  1  0
  8 44  1  0
  9 45  1  0
 13 46  1  0
 14 47  1  0
 15 48  1  0
 16 49  1  0
 17 50  1  0
 18 51  1  0
 19 52  1  0
 20 53  1  0
 21 54  1  0
 22 55  1  0
 28 56  1  0
 28 57  1  0
M  END
> <Uni-Dock RESULT> 
ENERGY=   -5.428  LOWER_BOUND=    2.240  UPPER_BOUND=    6.386
INTER + INTRA:          -5.428
INTER:                  -5.428
INTRA:                   0.000
UNBOUND:                 0.000

$$$$

     RDKit          3D

 57 59  0  0  0  0  0  0  0  0999 V2000
   45.4317    4.3453   13.2644 C   0  0  0  0  0  0  0  0  0  0  0  0
   46.8704    3.8520   13.2674 C   0  0  0  0  0  0  0  0  0  0  0  0
   47.4299    3.6078   14.6706 C   0  0  0  0  0  0  0  0  0  0  0  0
   47.5606    4.8860   15.5019 C   0  0  0  0  0  0  0  0  0  0  0  0
   48.2219    4.6027   16.8529 C   0  0  0  0  0  0  0  0  0  0  0  0
   48.3477    5.8802   17.6871 C   0  0  0  0  0  0  0  0  0  0  0  0
   48.1769    5.4301   20.1481 C   0  0  0  0  0  0  0  0  0  0  0  0
   48.7282    5.1782   21.4061 C   0  0  0  0  0  0  0  0  0  0  0  0
   50.9436    5.2807   20.4549 C   0  0  0  0  0  0  0  0  0  0  0  0
   48.9996    5.6172   19.0232 C   0  0  0  0  0  0  0  0  0  0  0  0
   50.1067    5.1072   21.5502 C   0  0  0  0  0  0  0  0  0  0  0  0
   50.3881    5.5297   19.1994 C   0  0  0  0  0  0  0  0  0  0  0  0
   50.6055    4.8605   22.7951 O   0  0  0  0  0  0  0  0  0  0  0  0
   51.2827    5.6767   18.1765 O   0  0  0  0  0  0  0  0  0  0  0  0
   46.7283    4.5605   13.8872 C   0  0  0  0  0  0  0  0  0  0  0  0
   49.4051    4.7926   20.7236 C   0  0  0  0  0  0  0  0  0  0  0  0
   47.4555    5.7174   13.6491 C   0  0  0  0  0  0  0  0  0  0  0  0
   50.0559    5.9544   20.3396 C   0  0  0  0  0  0  0  0  0  0  0  0
   46.7522    3.9876   15.1575 C   0  0  0  0  0  0  0  0  0  0  0  0
   48.5795    4.1350   19.8118 C   0  0  0  0  0  0  0  0  0  0  0  0
   48.1994    6.2904   14.6833 C   0  0  0  0  0  0  0  0  0  0  0  0
   49.8813    6.4446   19.0447 C   0  0  0  0  0  0  0  0  0  0  0  0
   47.5072    4.5620   16.2079 C   0  0  0  0  0  0  0  0  0  0  0  0
   48.3881    4.6314   18.4962 C   0  0  0  0  0  0  0  0  0  0  0  0
   48.2400    5.7353   15.9564 C   0  0  0  0  0  0  0  0  0  0  0  0
   49.0684    5.8062   18.1172 C   0  0  0  0  0  0  0  0  0  0  0  0
   47.5521    4.0279   17.5196 C   0  0  0  0  0  0  0  0  0  0  0  0
   46.9240    2.7707   17.7650 N   0  0  0  0  0  0  0  0  0  0  0  0
   48.9857    6.3405   16.8911 N   0  0  0  0  0  0  0  0  0  0  0  0
   45.0585    4.4070   12.2371 H   0  0  0  0  0  0  0  0  0  0  0  0
   44.7809    3.6632   13.8206 H   0  0  0  0  0  0  0  0  0  0  0  0
   45.3482    5.3423   13.7067 H   0  0  0  0  0  0  0  0  0  0  0  0
   47.5033    4.5698   12.7328 H   0  0  0  0  0  0  0  0  0  0  0  0
   46.9163    2.9105   12.7072 H   0  0  0  0  0  0  0  0  0  0  0  0
   46.7954    2.8858   15.1989 H   0  0  0  0  0  0  0  0  0  0  0  0
   48.4187    3.1438   14.5685 H   0  0  0  0  0  0  0  0  0  0  0  0
   48.1553    5.6241   14.9505 H   0  0  0  0  0  0  0  0  0  0  0  0
   46.5715    5.3257   15.6725 H   0  0  0  0  0  0  0  0  0  0  0  0
   49.2118    4.1592   16.6896 H   0  0  0  0  0  0  0  0  0  0  0  0
   47.6307    3.8587   17.4019 H   0  0  0  0  0  0  0  0  0  0  0  0
   47.3523    6.3157   17.8448 H   0  0  0  0  0  0  0  0  0  0  0  0
   48.9132    6.6467   17.1434 H   0  0  0  0  0  0  0  0  0  0  0  0
   47.0941    5.4797   20.0528 H   0  0  0  0  0  0  0  0  0  0  0  0
   48.0836    5.0376   22.2690 H   0  0  0  0  0  0  0  0  0  0  0  0
   52.0224    5.2234   20.5540 H   0  0  0  0  0  0  0  0  0  0  0  0
   51.5752    4.8428   22.7374 H   0  0  0  0  0  0  0  0  0  0  0  0
   50.8042    5.7847   17.3410 H   0  0  0  0  0  0  0  0  0  0  0  0
   46.1399    4.1070   13.0943 H   0  0  0  0  0  0  0  0  0  0  0  0
   49.5360    4.3978   21.7278 H   0  0  0  0  0  0  0  0  0  0  0  0
   47.4468    6.1796   12.6657 H   0  0  0  0  0  0  0  0  0  0  0  0
   50.7018    6.4806   21.0372 H   0  0  0  0  0  0  0  0  0  0  0  0
   46.1654    3.0893   15.3389 H   0  0  0  0  0  0  0  0  0  0  0  0
   48.0858    3.2270   20.1439 H   0  0  0  0  0  0  0  0  0  0  0  0
   48.7672    7.1979   14.4906 H   0  0  0  0  0  0  0  0  0  0  0  0
   50.4011    7.3527   18.7460 H   0  0  0  0  0  0  0  0  0  0  0  0
   47.5303    2.0173   17.4438 H   0  0  0  0  0  0  0  0  0  0  0  0
   46.6890    2.6331   18.7418 H   0  0  0  0  0  0  0  0  0  0  0  0
  2  1  1  0
  3  2  1  0
  4  3  1  0
  5  4  1  0
  6  5  1  0
  8  7  2  0
 10  6  1  0
 10  7  1  0
 11  8  1  0
 11  9  2  0
 12  9  1  0
 12 10  2  0
 13 11  1  0
 14 12  1  0
 17 15  2  0
 18 16  1  0
 19 15  1  0
 20 16  2  0
 21 17  1  0
 22 18  2  0
 23 19  2  0
 24 20  1  0
 25 21  2  0
 25 23  1  0
 26 22  1  0
 26 24  1  0
 27 23  1  0
 27 24  2  0
 28 27  1  0
 29 25  1  0
 29 26  2  0
  1 30  1  0
  1 31  1  0
  1 32  1  0
  2 33  1  0
  2 34  1  0
  3 35  1  0
  3 36  1  0
  4 37  1  0
  4 38  1  0
  5 39  1  0
  5 40  1  0
  6 41  1  0
  6 42  1  0
  7 43  1  0
  8 44  1  0
  9 45  1  0
 13 46  1  0
 14 47  1  0
 15 48  1  0
 16 49  1  0
 17 50  1  0
 18 51  1  0
 19 52  1  0
 20 53  1  0
 21 54  1  0
 22 55  1  0
 28 56  1  0
 28 57  1  0
M  END
> <Uni-Dock RESULT> 
ENERGY=   -5.411  LOWER_BOUND=    2.879  UPPER_BOUND=    5.469
INTER + INTRA:          -5.411
INTER:                  -5.411
INTRA:                   0.000
UNBOUND:                 0.000

$$$$

     RDKit          3D

 57 59  0  0  0  0  0  0  0  0999 V2000
   49.2976    3.2283   18.0075 C   0  0  0  0  0  0  0  0  0  0  0  0
   47.8308    3.5881   18.1873 C   0  0  0  0  0  0  0  0  0  0  0  0
   47.5321    5.0706   17.9532 C   0  0  0  0  0  0  0  0  0  0  0  0
   48.1846    5.9910   18.9871 C   0  0  0  0  0  0  0  0  0  0  0  0
   47.7690    7.4483   18.7718 C   0  0  0  0  0  0  0  0  0  0  0  0
   48.4260    8.3701   19.8024 C   0  0  0  0  0  0  0  0  0  0  0  0
   48.8847   10.6559   18.8787 C   0  0  0  0  0  0  0  0  0  0  0  0
   48.5587   11.9962   18.6610 C   0  0  0  0  0  0  0  0  0  0  0  0
   46.4963   11.6912   19.8762 C   0  0  0  0  0  0  0  0  0  0  0  0
   48.0248    9.8119   19.6037 C   0  0  0  0  0  0  0  0  0  0  0  0
   47.3685   12.5038   19.1627 C   0  0  0  0  0  0  0  0  0  0  0  0
   46.8250   10.3519   20.0891 C   0  0  0  0  0  0  0  0  0  0  0  0
   47.0874   13.8176   18.9295 O   0  0  0  0  0  0  0  0  0  0  0  0
   45.9062    9.6227   20.7906 O   0  0  0  0  0  0  0  0  0  0  0  0
   48.4109    4.1928   18.6392 C   0  0  0  0  0  0  0  0  0  0  0  0
   47.6536   11.4984   18.7356 C   0  0  0  0  0  0  0  0  0  0  0  0
   48.2679    4.2401   20.0180 C   0  0  0  0  0  0  0  0  0  0  0  0
   47.5478   11.3853   20.1128 C   0  0  0  0  0  0  0  0  0  0  0  0
   48.3940    5.3800   17.9092 C   0  0  0  0  0  0  0  0  0  0  0  0
   47.8692   10.3542   17.9675 C   0  0  0  0  0  0  0  0  0  0  0  0
   48.1095    5.4739   20.6537 C   0  0  0  0  0  0  0  0  0  0  0  0
   47.6513   10.1281   20.7096 C   0  0  0  0  0  0  0  0  0  0  0  0
   48.2300    6.6323   18.5479 C   0  0  0  0  0  0  0  0  0  0  0  0
   47.9857    9.0730   18.5663 C   0  0  0  0  0  0  0  0  0  0  0  0
   48.0869    6.6694   19.9461 C   0  0  0  0  0  0  0  0  0  0  0  0
   47.8615    8.9736   19.9669 C   0  0  0  0  0  0  0  0  0  0  0  0
   48.2215    7.8675   17.8536 C   0  0  0  0  0  0  0  0  0  0  0  0
   48.2345    7.8472   16.4273 N   0  0  0  0  0  0  0  0  0  0  0  0
   47.9207    7.8103   20.6293 N   0  0  0  0  0  0  0  0  0  0  0  0
   49.4310    2.1450   18.0908 H   0  0  0  0  0  0  0  0  0  0  0  0
   49.6610    3.5394   17.0229 H   0  0  0  0  0  0  0  0  0  0  0  0
   49.9229    3.6980   18.7723 H   0  0  0  0  0  0  0  0  0  0  0  0
   47.5039    3.2954   19.1918 H   0  0  0  0  0  0  0  0  0  0  0  0
   47.2386    2.9988   17.4770 H   0  0  0  0  0  0  0  0  0  0  0  0
   47.8571    5.3565   16.9455 H   0  0  0  0  0  0  0  0  0  0  0  0
   46.4443    5.2094   17.9854 H   0  0  0  0  0  0  0  0  0  0  0  0
   47.8964    5.6732   19.9963 H   0  0  0  0  0  0  0  0  0  0  0  0
   49.2757    5.9162   18.9207 H   0  0  0  0  0  0  0  0  0  0  0  0
   46.6769    7.5300   18.8338 H   0  0  0  0  0  0  0  0  0  0  0  0
   48.0509    7.7643   17.7593 H   0  0  0  0  0  0  0  0  0  0  0  0
   49.5180    8.2810   19.7320 H   0  0  0  0  0  0  0  0  0  0  0  0
   48.1777    8.0537   20.8227 H   0  0  0  0  0  0  0  0  0  0  0  0
   49.8206   10.2739   18.4760 H   0  0  0  0  0  0  0  0  0  0  0  0
   49.2314   12.6401   18.1018 H   0  0  0  0  0  0  0  0  0  0  0  0
   45.5611   12.0753   20.2697 H   0  0  0  0  0  0  0  0  0  0  0  0
   46.2315   14.0242   19.3402 H   0  0  0  0  0  0  0  0  0  0  0  0
   46.1921    8.6980   20.8345 H   0  0  0  0  0  0  0  0  0  0  0  0
   48.5415    3.2411   18.1315 H   0  0  0  0  0  0  0  0  0  0  0  0
   47.5704   12.4713   18.2579 H   0  0  0  0  0  0  0  0  0  0  0  0
   48.2812    3.3251   20.6038 H   0  0  0  0  0  0  0  0  0  0  0  0
   47.3812   12.2661   20.7270 H   0  0  0  0  0  0  0  0  0  0  0  0
   48.5234    5.3338   16.8298 H   0  0  0  0  0  0  0  0  0  0  0  0
   47.9457   10.4775   16.8917 H   0  0  0  0  0  0  0  0  0  0  0  0
   47.9983    5.5046   21.7353 H   0  0  0  0  0  0  0  0  0  0  0  0
   47.5593   10.0440   21.7905 H   0  0  0  0  0  0  0  0  0  0  0  0
   47.2966    7.6522   16.0798 H   0  0  0  0  0  0  0  0  0  0  0  0
   48.5796    8.7119   16.0252 H   0  0  0  0  0  0  0  0  0  0  0  0
  2  1  1  0
  3  2  1  0
  4  3  1  0
  5  4  1  0
  6  5  1  0
  8  7  2  0
 10  6  1  0
 10  7  1  0
 11  8  1  0
 11  9  2  0
 12  9  1  0
 12 10  2  0
 13 11  1  0
 14 12  1  0
 17 15  2  0
 18 16  1  0
 19 15  1  0
 20 16  2  0
 21 17  1  0
 22 18  2  0
 23 19  2  0
 24 20  1  0
 25 21  2  0
 25 23  1  0
 26 22  1  0
 26 24  1  0
 27 23  1  0
 27 24  2  0
 28 27  1  0
 29 25  1  0
 29 26  2  0
  1 30  1  0
  1 31  1  0
  1 32  1  0
  2 33  1  0
  2 34  1  0
  3 35  1  0
  3 36  1  0
  4 37  1  0
  4 38  1  0
  5 39  1  0
  5 40  1  0
  6 41  1  0
  6 42  1  0
  7 43  1  0
  8 44  1  0
  9 45  1  0
 13 46  1  0
 14 47  1  0
 15 48  1  0
 16 49  1  0
 17 50  1  0
 18 51  1  0
 19 52  1  0
 20 53  1  0
 21 54  1  0
 22 55  1  0
 28 56  1  0
 28 57  1  0
M  END
> <Uni-Dock RESULT> 
ENERGY=   -5.322  LOWER_BOUND=    2.415  UPPER_BOUND=    6.126
INTER + INTRA:          -5.322
INTER:                  -5.322
INTRA:                   0.000
UNBOUND:                 0.000

$$$$

     RDKit          3D

 57 59  0  0  0  0  0  0  0  0999 V2000
   48.2607    6.6705   14.5020 C   0  0  0  0  0  0  0  0  0  0  0  0
   48.2221    6.5352   12.9876 C   0  0  0  0  0  0  0  0  0  0  0  0
   47.8707    7.8383   12.2664 C   0  0  0  0  0  0  0  0  0  0  0  0
   46.4472    8.3233   12.5499 C   0  0  0  0  0  0  0  0  0  0  0  0
   46.1112    9.5674   11.7242 C   0  0  0  0  0  0  0  0  0  0  0  0
   44.6892   10.0561   12.0117 C   0  0  0  0  0  0  0  0  0  0  0  0
   44.4791   12.5464   11.8055 C   0  0  0  0  0  0  0  0  0  0  0  0
   44.1772   13.7135   11.1006 C   0  0  0  0  0  0  0  0  0  0  0  0
   43.6018   12.3940    9.1638 C   0  0  0  0  0  0  0  0  0  0  0  0
   44.3422   11.2831   11.2034 C   0  0  0  0  0  0  0  0  0  0  0  0
   43.7393   13.6284    9.7864 C   0  0  0  0  0  0  0  0  0  0  0  0
   43.9071   11.2307    9.8712 C   0  0  0  0  0  0  0  0  0  0  0  0
   43.4540   14.7908    9.1331 O   0  0  0  0  0  0  0  0  0  0  0  0
   43.7543   10.0616    9.1797 O   0  0  0  0  0  0  0  0  0  0  0  0
   47.4614    6.9937   13.3306 C   0  0  0  0  0  0  0  0  0  0  0  0
   44.4844   13.0290   10.3866 C   0  0  0  0  0  0  0  0  0  0  0  0
   46.2397    6.3775   13.1034 C   0  0  0  0  0  0  0  0  0  0  0  0
   43.3238   12.2852   10.2437 C   0  0  0  0  0  0  0  0  0  0  0  0
   47.6224    8.3368   12.9947 C   0  0  0  0  0  0  0  0  0  0  0  0
   45.6036   12.4471   10.9820 C   0  0  0  0  0  0  0  0  0  0  0  0
   45.1908    7.1100   12.5427 C   0  0  0  0  0  0  0  0  0  0  0  0
   43.2946   10.9634   10.6906 C   0  0  0  0  0  0  0  0  0  0  0  0
   46.5641    9.0825   12.4229 C   0  0  0  0  0  0  0  0  0  0  0  0
   45.5801   11.1071   11.4484 C   0  0  0  0  0  0  0  0  0  0  0  0
   45.3294    8.4488   12.1976 C   0  0  0  0  0  0  0  0  0  0  0  0
   44.3965   10.3600   11.2825 C   0  0  0  0  0  0  0  0  0  0  0  0
   46.6717   10.4528   12.0785 C   0  0  0  0  0  0  0  0  0  0  0  0
   47.9485   11.0814   12.1764 N   0  0  0  0  0  0  0  0  0  0  0  0
   44.2780    9.0783   11.6551 N   0  0  0  0  0  0  0  0  0  0  0  0
   48.6113    5.7368   14.9532 H   0  0  0  0  0  0  0  0  0  0  0  0
   48.9417    7.4710   14.8081 H   0  0  0  0  0  0  0  0  0  0  0  0
   47.2690    6.8834   14.9116 H   0  0  0  0  0  0  0  0  0  0  0  0
   47.5089    5.7505   12.7096 H   0  0  0  0  0  0  0  0  0  0  0  0
   49.2087    6.2033   12.6429 H   0  0  0  0  0  0  0  0  0  0  0  0
   48.5899    8.6181   12.5448 H   0  0  0  0  0  0  0  0  0  0  0  0
   47.9852    7.6737   11.1878 H   0  0  0  0  0  0  0  0  0  0  0  0
   45.7332    7.5245   12.3161 H   0  0  0  0  0  0  0  0  0  0  0  0
   46.3359    8.5590   13.6142 H   0  0  0  0  0  0  0  0  0  0  0  0
   46.2236    9.3393   10.6571 H   0  0  0  0  0  0  0  0  0  0  0  0
   46.8301   10.3645   11.9527 H   0  0  0  0  0  0  0  0  0  0  0  0
   44.5873   10.2816   13.0814 H   0  0  0  0  0  0  0  0  0  0  0  0
   43.9573    9.2634   11.8148 H   0  0  0  0  0  0  0  0  0  0  0  0
   44.8236   12.6319   12.8341 H   0  0  0  0  0  0  0  0  0  0  0  0
   44.2841   14.6842   11.5761 H   0  0  0  0  0  0  0  0  0  0  0  0
   43.2645   12.3146    8.1357 H   0  0  0  0  0  0  0  0  0  0  0  0
   43.1604   14.5711    8.2334 H   0  0  0  0  0  0  0  0  0  0  0  0
   44.0460    9.3195    9.7300 H   0  0  0  0  0  0  0  0  0  0  0  0
   48.2845    6.4385   13.7721 H   0  0  0  0  0  0  0  0  0  0  0  0
   44.5217   14.0581   10.0387 H   0  0  0  0  0  0  0  0  0  0  0  0
   46.0950    5.3319   13.3613 H   0  0  0  0  0  0  0  0  0  0  0  0
   42.4419   12.7226    9.7835 H   0  0  0  0  0  0  0  0  0  0  0  0
   48.5794    8.8157   13.1920 H   0  0  0  0  0  0  0  0  0  0  0  0
   46.4968   13.0566   11.0772 H   0  0  0  0  0  0  0  0  0  0  0  0
   44.2349    6.6214   12.3674 H   0  0  0  0  0  0  0  0  0  0  0  0
   42.3834   10.3814   10.5684 H   0  0  0  0  0  0  0  0  0  0  0  0
   48.5122   10.8387   11.3629 H   0  0  0  0  0  0  0  0  0  0  0  0
   47.8843   12.0896   12.2645 H   0  0  0  0  0  0  0  0  0  0  0  0
  2  1  1  0
  3  2  1  0
  4  3  1  0
  5  4  1  0
  6  5  1  0
  8  7  2  0
 10  6  1  0
 10  7  1  0
 11  8  1  0
 11  9  2  0
 12  9  1  0
 12 10  2  0
 13 11  1  0
 14 12  1  0
 17 15  2  0
 18 16  1  0
 19 15  1  0
 20 16  2  0
 21 17  1  0
 22 18  2  0
 23 19  2  0
 24 20  1  0
 25 21  2  0
 25 23  1  0
 26 22  1  0
 26 24  1  0
 27 23  1  0
 27 24  2  0
 28 27  1  0
 29 25  1  0
 29 26  2  0
  1 30  1  0
  1 31  1  0
  1 32  1  0
  2 33  1  0
  2 34  1  0
  3 35  1  0
  3 36  1  0
  4 37  1  0
  4 38  1  0
  5 39  1  0
  5 40  1  0
  6 41  1  0
  6 42  1  0
  7 43  1  0
  8 44  1  0
  9 45  1  0
 13 46  1  0
 14 47  1  0
 15 48  1  0
 16 49  1  0
 17 50  1  0
 18 51  1  0
 19 52  1  0
 20 53  1  0
 21 54  1  0
 22 55  1  0
 28 56  1  0
 28 57  1  0
M  END
> <Uni-Dock RESULT> 
ENERGY=   -5.006  LOWER_BOUND=    8.218  UPPER_BOUND=   10.276
INTER + INTRA:          -5.006
INTER:                  -5.006
INTRA:                   0.000
UNBOUND:                 0.000

$$$$
