
     RDKit          3D

 57 59  0  0  0  0  0  0  0  0999 V2000
   43.5883    2.4010   12.2900 C   0  0  0  0  0  0  0  0  0  0  0  0
   43.8837    3.7279   11.6075 C   0  0  0  0  0  0  0  0  0  0  0  0
   43.0909    4.8701   12.2433 C   0  0  0  0  0  0  0  0  0  0  0  0
   43.2627    6.2091   11.5197 C   0  0  0  0  0  0  0  0  0  0  0  0
   44.6960    6.7425   11.4340 C   0  0  0  0  0  0  0  0  0  0  0  0
   45.3417    6.9719   12.8030 C   0  0  0  0  0  0  0  0  0  0  0  0
   47.8475    6.7707   12.6055 C   0  0  0  0  0  0  0  0  0  0  0  0
   49.1228    7.3242   12.4702 C   0  0  0  0  0  0  0  0  0  0  0  0
   48.1540    9.5416   12.4556 C   0  0  0  0  0  0  0  0  0  0  0  0
   46.7122    7.5943   12.6739 C   0  0  0  0  0  0  0  0  0  0  0  0
   49.2632    8.7060   12.3978 C   0  0  0  0  0  0  0  0  0  0  0  0
   46.8848    8.9813   12.5904 C   0  0  0  0  0  0  0  0  0  0  0  0
   50.4897    9.2885   12.2651 O   0  0  0  0  0  0  0  0  0  0  0  0
   45.7822    9.7879   12.6399 O   0  0  0  0  0  0  0  0  0  0  0  0
   43.4165    4.0772   10.5431 C   0  0  0  0  0  0  0  0  0  0  0  0
   47.5473    9.2016   13.8036 C   0  0  0  0  0  0  0  0  0  0  0  0
   44.2104    3.1444   11.1913 C   0  0  0  0  0  0  0  0  0  0  0  0
   48.2372    8.1542   14.3959 C   0  0  0  0  0  0  0  0  0  0  0  0
   43.6857    5.4365   10.7022 C   0  0  0  0  0  0  0  0  0  0  0  0
   46.5082    8.9216   12.9180 C   0  0  0  0  0  0  0  0  0  0  0  0
   45.2624    3.5791   11.9990 C   0  0  0  0  0  0  0  0  0  0  0  0
   47.8816    6.8369   14.0968 C   0  0  0  0  0  0  0  0  0  0  0  0
   44.7590    5.8877   11.5133 C   0  0  0  0  0  0  0  0  0  0  0  0
   46.1415    7.5886   12.6144 C   0  0  0  0  0  0  0  0  0  0  0  0
   45.5479    4.9264   12.1770 C   0  0  0  0  0  0  0  0  0  0  0  0
   46.8478    6.5342   13.2192 C   0  0  0  0  0  0  0  0  0  0  0  0
   45.1042    7.2510   11.7100 C   0  0  0  0  0  0  0  0  0  0  0  0
   44.2904    8.2986   11.1853 N   0  0  0  0  0  0  0  0  0  0  0  0
   46.5624    5.2444   12.9929 N   0  0  0  0  0  0  0  0  0  0  0  0
   44.1674    1.5978   11.8234 H   0  0  0  0  0  0  0  0  0  0  0  0
   42.5270    2.1453   12.2091 H   0  0  0  0  0  0  0  0  0  0  0  0
   43.8534    2.4386   13.3515 H   0  0  0  0  0  0  0  0  0  0  0  0
   44.9588    3.9249   11.6782 H   0  0  0  0  0  0  0  0  0  0  0  0
   43.6345    3.6482   10.5432 H   0  0  0  0  0  0  0  0  0  0  0  0
   43.3692    4.9741   13.2983 H   0  0  0  0  0  0  0  0  0  0  0  0
   42.0236    4.6147   12.2327 H   0  0  0  0  0  0  0  0  0  0  0  0
   42.8685    6.1132   10.5002 H   0  0  0  0  0  0  0  0  0  0  0  0
   42.6360    6.9568   12.0218 H   0  0  0  0  0  0  0  0  0  0  0  0
   45.3143    6.0634   10.8348 H   0  0  0  0  0  0  0  0  0  0  0  0
   44.6697    7.6893   10.8788 H   0  0  0  0  0  0  0  0  0  0  0  0
   44.7013    7.6072   13.4271 H   0  0  0  0  0  0  0  0  0  0  0  0
   45.4358    6.0234   13.3453 H   0  0  0  0  0  0  0  0  0  0  0  0
   47.7401    5.6893   12.6565 H   0  0  0  0  0  0  0  0  0  0  0  0
   49.9842    6.6657   12.4219 H   0  0  0  0  0  0  0  0  0  0  0  0
   48.2965   10.6150   12.3926 H   0  0  0  0  0  0  0  0  0  0  0  0
   51.1628    8.5885   12.2399 H   0  0  0  0  0  0  0  0  0  0  0  0
   46.0727   10.7119   12.5677 H   0  0  0  0  0  0  0  0  0  0  0  0
   42.5915    3.7519    9.9146 H   0  0  0  0  0  0  0  0  0  0  0  0
   47.8167   10.2315   14.0217 H   0  0  0  0  0  0  0  0  0  0  0  0
   44.0163    2.0813   11.0778 H   0  0  0  0  0  0  0  0  0  0  0  0
   49.0518    8.3534   15.0868 H   0  0  0  0  0  0  0  0  0  0  0  0
   43.0437    6.1408   10.1820 H   0  0  0  0  0  0  0  0  0  0  0  0
   45.9838    9.7498   12.4459 H   0  0  0  0  0  0  0  0  0  0  0  0
   45.8774    2.8427   12.5121 H   0  0  0  0  0  0  0  0  0  0  0  0
   48.4267    6.0196   14.5639 H   0  0  0  0  0  0  0  0  0  0  0  0
   43.5920    8.5677   11.8767 H   0  0  0  0  0  0  0  0  0  0  0  0
   43.8359    8.0446   10.3151 H   0  0  0  0  0  0  0  0  0  0  0  0
  2  1  1  0
  3  2  1  0
  4  3  1  0
  5  4  1  0
  6  5  1  0
  8  7  2  0
 10  6  1  0
 10  7  1  0
 11  8  1  0
 11  9  2  0
 12  9  1  0
 12 10  2  0
 13 11  1  0
 14 12  1  0
 17 15  2  0
 18 16  1  0
 19 15  1  0
 20 16  2  0
 21 17  1  0
 22 18  2  0
 23 19  2  0
 24 20  1  0
 25 21  2  0
 25 23  1  0
 26 22  1  0
 26 24  1  0
 27 23  1  0
 27 24  2  0
 28 27  1  0
 29 25  1  0
 29 26  2  0
  1 30  1  0
  1 31  1  0
  1 32  1  0
  2 33  1  0
  2 34  1  0
  3 35  1  0
  3 36  1  0
  4 37  1  0
  4 38  1  0
  5 39  1  0
  5 40  1  0
  6 41  1  0
  6 42  1  0
  7 43  1  0
  8 44  1  0
  9 45  1  0
 13 46  1  0
 14 47  1  0
 15 48  1  0
 16 49  1  0
 17 50  1  0
 18 51  1  0
 19 52  1  0
 20 53  1  0
 21 54  1  0
 22 55  1  0
 28 56  1  0
 28 57  1  0
M  END
> <Uni-Dock RESULT> 
ENERGY=   -7.010  LOWER_BOUND=    0.000  UPPER_BOUND=    0.000
INTER + INTRA:          -7.010
INTER:                  -7.010
INTRA:                   0.000
UNBOUND:                 0.000

$$$$

     RDKit          3D

 57 59  0  0  0  0  0  0  0  0999 V2000
   44.2643    4.0280    9.3237 C   0  0  0  0  0  0  0  0  0  0  0  0
   44.3916    4.3247   10.8101 C   0  0  0  0  0  0  0  0  0  0  0  0
   45.3991    3.3904   11.4805 C   0  0  0  0  0  0  0  0  0  0  0  0
   45.4804    3.5691   12.9995 C   0  0  0  0  0  0  0  0  0  0  0  0
   45.8747    4.9667   13.4871 C   0  0  0  0  0  0  0  0  0  0  0  0
   47.2471    5.4211   12.9833 C   0  0  0  0  0  0  0  0  0  0  0  0
   47.3248    7.9394   12.8829 C   0  0  0  0  0  0  0  0  0  0  0  0
   47.6651    9.1855   13.4146 C   0  0  0  0  0  0  0  0  0  0  0  0
   48.6352    8.0925   15.3434 C   0  0  0  0  0  0  0  0  0  0  0  0
   47.6406    6.7563   13.5702 C   0  0  0  0  0  0  0  0  0  0  0  0
   48.3188    9.2491   14.6406 C   0  0  0  0  0  0  0  0  0  0  0  0
   48.2919    6.8529   14.8060 C   0  0  0  0  0  0  0  0  0  0  0  0
   48.6691   10.4448   15.1965 O   0  0  0  0  0  0  0  0  0  0  0  0
   48.5875    5.7056   15.4878 O   0  0  0  0  0  0  0  0  0  0  0  0
   43.5952    3.9737   11.6561 C   0  0  0  0  0  0  0  0  0  0  0  0
   49.5292    7.3440   14.3732 C   0  0  0  0  0  0  0  0  0  0  0  0
   43.7881    4.7359   10.5149 C   0  0  0  0  0  0  0  0  0  0  0  0
   49.6023    8.0172   13.1627 C   0  0  0  0  0  0  0  0  0  0  0  0
   44.4528    4.1373   12.7439 C   0  0  0  0  0  0  0  0  0  0  0  0
   48.4889    6.4428   14.5924 C   0  0  0  0  0  0  0  0  0  0  0  0
   44.8416    5.6501   10.4684 C   0  0  0  0  0  0  0  0  0  0  0  0
   48.6344    7.7829   12.1831 C   0  0  0  0  0  0  0  0  0  0  0  0
   45.5206    5.0714   12.7096 C   0  0  0  0  0  0  0  0  0  0  0  0
   47.5078    6.1989   13.6018 C   0  0  0  0  0  0  0  0  0  0  0  0
   45.7116    5.8284   11.5360 C   0  0  0  0  0  0  0  0  0  0  0  0
   47.5904    6.8873   12.3786 C   0  0  0  0  0  0  0  0  0  0  0  0
   46.4228    5.3054   13.7809 C   0  0  0  0  0  0  0  0  0  0  0  0
   46.3902    4.5010   14.9586 N   0  0  0  0  0  0  0  0  0  0  0  0
   46.7082    6.7116   11.3851 N   0  0  0  0  0  0  0  0  0  0  0  0
   43.5422    4.7087    8.8620 H   0  0  0  0  0  0  0  0  0  0  0  0
   43.9193    3.0027    9.1559 H   0  0  0  0  0  0  0  0  0  0  0  0
   45.2251    4.1555    8.8148 H   0  0  0  0  0  0  0  0  0  0  0  0
   44.7002    5.3685   10.9323 H   0  0  0  0  0  0  0  0  0  0  0  0
   43.4094    4.2158   11.2840 H   0  0  0  0  0  0  0  0  0  0  0  0
   46.3898    3.5278   11.0320 H   0  0  0  0  0  0  0  0  0  0  0  0
   45.1134    2.3504   11.2774 H   0  0  0  0  0  0  0  0  0  0  0  0
   44.5082    3.3120   13.4383 H   0  0  0  0  0  0  0  0  0  0  0  0
   46.1982    2.8402   13.3960 H   0  0  0  0  0  0  0  0  0  0  0  0
   45.1075    5.6953   13.1991 H   0  0  0  0  0  0  0  0  0  0  0  0
   45.8745    4.9522   14.5849 H   0  0  0  0  0  0  0  0  0  0  0  0
   48.0105    4.6701   13.2211 H   0  0  0  0  0  0  0  0  0  0  0  0
   47.2448    5.5044   11.8899 H   0  0  0  0  0  0  0  0  0  0  0  0
   46.8087    7.8927   11.9263 H   0  0  0  0  0  0  0  0  0  0  0  0
   47.4116   10.0847   12.8623 H   0  0  0  0  0  0  0  0  0  0  0  0
   49.1419    8.1759   16.2987 H   0  0  0  0  0  0  0  0  0  0  0  0
   48.3883   11.1572   14.5988 H   0  0  0  0  0  0  0  0  0  0  0  0
   49.0316    5.9459   16.3176 H   0  0  0  0  0  0  0  0  0  0  0  0
   42.7810    3.2551   11.7036 H   0  0  0  0  0  0  0  0  0  0  0  0
   50.2712    7.5206   15.1471 H   0  0  0  0  0  0  0  0  0  0  0  0
   43.1290    4.6228    9.6585 H   0  0  0  0  0  0  0  0  0  0  0  0
   50.4048    8.7253   12.9750 H   0  0  0  0  0  0  0  0  0  0  0  0
   44.2750    3.5236   13.6216 H   0  0  0  0  0  0  0  0  0  0  0  0
   48.4309    5.9318   15.5513 H   0  0  0  0  0  0  0  0  0  0  0  0
   44.9935    6.2401    9.5668 H   0  0  0  0  0  0  0  0  0  0  0  0
   48.6967    8.3142   11.2359 H   0  0  0  0  0  0  0  0  0  0  0  0
   47.0185    3.7066   14.8473 H   0  0  0  0  0  0  0  0  0  0  0  0
   45.4572    4.1752   15.1860 H   0  0  0  0  0  0  0  0  0  0  0  0
  2  1  1  0
  3  2  1  0
  4  3  1  0
  5  4  1  0
  6  5  1  0
  8  7  2  0
 10  6  1  0
 10  7  1  0
 11  8  1  0
 11  9  2  0
 12  9  1  0
 12 10  2  0
 13 11  1  0
 14 12  1  0
 17 15  2  0
 18 16  1  0
 19 15  1  0
 20 16  2  0
 21 17  1  0
 22 18  2  0
 23 19  2  0
 24 20  1  0
 25 21  2  0
 25 23  1  0
 26 22  1  0
 26 24  1  0
 27 23  1  0
 27 24  2  0
 28 27  1  0
 29 25  1  0
 29 26  2  0
  1 30  1  0
  1 31  1  0
  1 32  1  0
  2 33  1  0
  2 34  1  0
  3 35  1  0
  3 36  1  0
  4 37  1  0
  4 38  1  0
  5 39  1  0
  5 40  1  0
  6 41  1  0
  6 42  1  0
  7 43  1  0
  8 44  1  0
  9 45  1  0
 13 46  1  0
 14 47  1  0
 15 48  1  0
 16 49  1  0
 17 50  1  0
 18 51  1  0
 19 52  1  0
 20 53  1  0
 21 54  1  0
 22 55  1  0
 28 56  1  0
 28 57  1  0
M  END
> <Uni-Dock RESULT> 
ENERGY=   -6.210  LOWER_BOUND=    1.592  UPPER_BOUND=    2.873
INTER + INTRA:          -6.210
INTER:                  -6.210
INTRA:                   0.000
UNBOUND:                 0.000

$$$$

     RDKit          3D

 57 59  0  0  0  0  0  0  0  0999 V2000
   47.5163   12.1726   21.4085 C   0  0  0  0  0  0  0  0  0  0  0  0
   47.3966   11.5564   20.0230 C   0  0  0  0  0  0  0  0  0  0  0  0
   48.7502   11.5134   19.3135 C   0  0  0  0  0  0  0  0  0  0  0  0
   48.6669   11.0086   17.8698 C   0  0  0  0  0  0  0  0  0  0  0  0
   48.0970    9.5985   17.6875 C   0  0  0  0  0  0  0  0  0  0  0  0
   48.9024    8.5190   18.4151 C   0  0  0  0  0  0  0  0  0  0  0  0
   47.4026    6.5701   18.9726 C   0  0  0  0  0  0  0  0  0  0  0  0
   46.8832    5.2995   18.7140 C   0  0  0  0  0  0  0  0  0  0  0  0
   48.2761    5.1364   16.7420 C   0  0  0  0  0  0  0  0  0  0  0  0
   48.3681    7.1361   18.1245 C   0  0  0  0  0  0  0  0  0  0  0  0
   47.3269    4.5943   17.6004 C   0  0  0  0  0  0  0  0  0  0  0  0
   48.7892    6.4051   17.0069 C   0  0  0  0  0  0  0  0  0  0  0  0
   46.8462    3.3508   17.3102 O   0  0  0  0  0  0  0  0  0  0  0  0
   49.7168    6.9573   16.1683 O   0  0  0  0  0  0  0  0  0  0  0  0
   46.9702   12.1334   19.0439 C   0  0  0  0  0  0  0  0  0  0  0  0
   49.4644    5.3652   17.6566 C   0  0  0  0  0  0  0  0  0  0  0  0
   46.6754   11.6731   20.3174 C   0  0  0  0  0  0  0  0  0  0  0  0
   49.1325    5.0606   18.9685 C   0  0  0  0  0  0  0  0  0  0  0  0
   47.5150   11.2563   18.1061 C   0  0  0  0  0  0  0  0  0  0  0  0
   49.2033    6.6427   17.1644 C   0  0  0  0  0  0  0  0  0  0  0  0
   46.9347   10.3414   20.6446 C   0  0  0  0  0  0  0  0  0  0  0  0
   48.5427    6.0364   19.7755 C   0  0  0  0  0  0  0  0  0  0  0  0
   47.7729    9.8981   18.4265 C   0  0  0  0  0  0  0  0  0  0  0  0
   48.6093    7.6361   17.9791 C   0  0  0  0  0  0  0  0  0  0  0  0
   47.4806    9.4498   19.7305 C   0  0  0  0  0  0  0  0  0  0  0  0
   48.2757    7.3169   19.3070 C   0  0  0  0  0  0  0  0  0  0  0  0
   48.3092    8.9435   17.5224 C   0  0  0  0  0  0  0  0  0  0  0  0
   48.7550    9.3303   16.2237 N   0  0  0  0  0  0  0  0  0  0  0  0
   47.7169    8.1984   20.1478 N   0  0  0  0  0  0  0  0  0  0  0  0
   46.5387   12.1910   21.9006 H   0  0  0  0  0  0  0  0  0  0  0  0
   47.8863   13.2012   21.3503 H   0  0  0  0  0  0  0  0  0  0  0  0
   48.2022   11.5950   22.0365 H   0  0  0  0  0  0  0  0  0  0  0  0
   46.9877   10.5454   20.1249 H   0  0  0  0  0  0  0  0  0  0  0  0
   46.6832   12.1401   19.4301 H   0  0  0  0  0  0  0  0  0  0  0  0
   49.4519   10.8974   19.8876 H   0  0  0  0  0  0  0  0  0  0  0  0
   49.1767   12.5245   19.2939 H   0  0  0  0  0  0  0  0  0  0  0  0
   48.0541   11.7067   17.2859 H   0  0  0  0  0  0  0  0  0  0  0  0
   49.6725   11.0433   17.4323 H   0  0  0  0  0  0  0  0  0  0  0  0
   47.0503    9.5715   18.0133 H   0  0  0  0  0  0  0  0  0  0  0  0
   48.0798    9.3794   16.6119 H   0  0  0  0  0  0  0  0  0  0  0  0
   49.9611    8.5760   18.1339 H   0  0  0  0  0  0  0  0  0  0  0  0
   48.8748    8.6862   19.4985 H   0  0  0  0  0  0  0  0  0  0  0  0
   47.0498    7.1218   19.8414 H   0  0  0  0  0  0  0  0  0  0  0  0
   46.1395    4.8838   19.3863 H   0  0  0  0  0  0  0  0  0  0  0  0
   48.5988    4.5627   15.8799 H   0  0  0  0  0  0  0  0  0  0  0  0
   46.1981    3.1040   17.9904 H   0  0  0  0  0  0  0  0  0  0  0  0
   49.8960    6.3284   15.4501 H   0  0  0  0  0  0  0  0  0  0  0  0
   46.7771   13.1694   18.7776 H   0  0  0  0  0  0  0  0  0  0  0  0
   49.9179    4.6146   17.0150 H   0  0  0  0  0  0  0  0  0  0  0  0
   46.2494   12.3419   21.0604 H   0  0  0  0  0  0  0  0  0  0  0  0
   49.3263    4.0692   19.3686 H   0  0  0  0  0  0  0  0  0  0  0  0
   47.7357   11.6492   17.1185 H   0  0  0  0  0  0  0  0  0  0  0  0
   49.4522    6.8670   16.1292 H   0  0  0  0  0  0  0  0  0  0  0  0
   46.7090    9.9874   21.6484 H   0  0  0  0  0  0  0  0  0  0  0  0
   48.2842    5.7915   20.8033 H   0  0  0  0  0  0  0  0  0  0  0  0
   49.7431    9.5763   16.2607 H   0  0  0  0  0  0  0  0  0  0  0  0
   48.2207   10.1013   15.8384 H   0  0  0  0  0  0  0  0  0  0  0  0
  2  1  1  0
  3  2  1  0
  4  3  1  0
  5  4  1  0
  6  5  1  0
  8  7  2  0
 10  6  1  0
 10  7  1  0
 11  8  1  0
 11  9  2  0
 12  9  1  0
 12 10  2  0
 13 11  1  0
 14 12  1  0
 17 15  2  0
 18 16  1  0
 19 15  1  0
 20 16  2  0
 21 17  1  0
 22 18  2  0
 23 19  2  0
 24 20  1  0
 25 21  2  0
 25 23  1  0
 26 22  1  0
 26 24  1  0
 27 23  1  0
 27 24  2  0
 28 27  1  0
 29 25  1  0
 29 26  2  0
  1 30  1  0
  1 31  1  0
  1 32  1  0
  2 33  1  0
  2 34  1  0
  3 35  1  0
  3 36  1  0
  4 37  1  0
  4 38  1  0
  5 39  1  0
  5 40  1  0
  6 41  1  0
  6 42  1  0
  7 43  1  0
  8 44  1  0
  9 45  1  0
 13 46  1  0
 14 47  1  0
 15 48  1  0
 16 49  1  0
 17 50  1  0
 18 51  1  0
 19 52  1  0
 20 53  1  0
 21 54  1  0
 22 55  1  0
 28 56  1  0
 28 57  1  0
M  END
> <Uni-Dock RESULT> 
ENERGY=   -5.614  LOWER_BOUND=    5.765  UPPER_BOUND=    8.427
INTER + INTRA:          -5.614
INTER:                  -5.614
INTRA:                   0.000
UNBOUND:                 0.000

$$$$

     RDKit          3D

 57 59  0  0  0  0  0  0  0  0999 V2000
   43.5505    4.2095   11.0849 C   0  0  0  0  0  0  0  0  0  0  0  0
   44.0847    5.3727   11.9066 C   0  0  0  0  0  0  0  0  0  0  0  0
   45.4445    5.8423   11.3892 C   0  0  0  0  0  0  0  0  0  0  0  0
   46.0814    6.9359   12.2521 C   0  0  0  0  0  0  0  0  0  0  0  0
   45.2671    8.2242   12.4055 C   0  0  0  0  0  0  0  0  0  0  0  0
   44.9760    8.9210   11.0738 C   0  0  0  0  0  0  0  0  0  0  0  0
   42.8595   10.2776   11.2690 C   0  0  0  0  0  0  0  0  0  0  0  0
   42.1795   11.4807   11.4726 C   0  0  0  0  0  0  0  0  0  0  0  0
   44.2950   12.6303   11.7145 C   0  0  0  0  0  0  0  0  0  0  0  0
   44.2631   10.2370   11.2792 C   0  0  0  0  0  0  0  0  0  0  0  0
   42.9054   12.6465   11.6923 C   0  0  0  0  0  0  0  0  0  0  0  0
   44.9660   11.4256   11.5108 C   0  0  0  0  0  0  0  0  0  0  0  0
   42.2818   13.8428   11.8959 O   0  0  0  0  0  0  0  0  0  0  0  0
   46.3323   11.3899   11.5382 O   0  0  0  0  0  0  0  0  0  0  0  0
   44.6047    5.2671   12.9983 C   0  0  0  0  0  0  0  0  0  0  0  0
   44.6469   12.1117   10.3332 C   0  0  0  0  0  0  0  0  0  0  0  0
   43.4466    5.0768   12.2613 C   0  0  0  0  0  0  0  0  0  0  0  0
   43.4981   11.7627    9.6387 C   0  0  0  0  0  0  0  0  0  0  0  0
   45.2286    6.5146   12.9865 C   0  0  0  0  0  0  0  0  0  0  0  0
   45.2467   11.1774   11.1757 C   0  0  0  0  0  0  0  0  0  0  0  0
   42.9263    6.1336   11.5128 C   0  0  0  0  0  0  0  0  0  0  0  0
   42.9600   10.4830    9.7935 C   0  0  0  0  0  0  0  0  0  0  0  0
   44.7015    7.5977   12.2364 C   0  0  0  0  0  0  0  0  0  0  0  0
   44.7077    9.8783   11.3332 C   0  0  0  0  0  0  0  0  0  0  0  0
   43.5310    7.3833   11.4810 C   0  0  0  0  0  0  0  0  0  0  0  0
   43.5422    9.5349   10.6257 C   0  0  0  0  0  0  0  0  0  0  0  0
   45.2698    8.8981   12.1883 C   0  0  0  0  0  0  0  0  0  0  0  0
   46.5208    9.1775   12.8146 N   0  0  0  0  0  0  0  0  0  0  0  0
   42.9697    8.3262   10.7116 N   0  0  0  0  0  0  0  0  0  0  0  0
   42.5762    3.8907   11.4684 H   0  0  0  0  0  0  0  0  0  0  0  0
   44.2299    3.3522   11.1297 H   0  0  0  0  0  0  0  0  0  0  0  0
   43.4259    4.4954   10.0356 H   0  0  0  0  0  0  0  0  0  0  0  0
   43.3582    6.1914   11.8659 H   0  0  0  0  0  0  0  0  0  0  0  0
   44.1710    5.0631   12.9545 H   0  0  0  0  0  0  0  0  0  0  0  0
   45.3494    6.1881   10.3535 H   0  0  0  0  0  0  0  0  0  0  0  0
   46.1328    4.9879   11.3641 H   0  0  0  0  0  0  0  0  0  0  0  0
   46.2752    6.5289   13.2525 H   0  0  0  0  0  0  0  0  0  0  0  0
   47.0618    7.1851   11.8272 H   0  0  0  0  0  0  0  0  0  0  0  0
   44.3295    8.0152   12.9342 H   0  0  0  0  0  0  0  0  0  0  0  0
   45.8318    8.9032   13.0578 H   0  0  0  0  0  0  0  0  0  0  0  0
   45.9059    9.0843   10.5154 H   0  0  0  0  0  0  0  0  0  0  0  0
   44.3559    8.2810   10.4348 H   0  0  0  0  0  0  0  0  0  0  0  0
   42.2891    9.3663   11.1028 H   0  0  0  0  0  0  0  0  0  0  0  0
   41.0943   11.4854   11.4577 H   0  0  0  0  0  0  0  0  0  0  0  0
   44.8320   13.5558   11.8921 H   0  0  0  0  0  0  0  0  0  0  0  0
   41.3217   13.7018   11.8521 H   0  0  0  0  0  0  0  0  0  0  0  0
   46.6607   12.2876   11.7103 H   0  0  0  0  0  0  0  0  0  0  0  0
   45.0226    4.4510   13.5821 H   0  0  0  0  0  0  0  0  0  0  0  0
   45.0735   13.1055   10.2277 H   0  0  0  0  0  0  0  0  0  0  0  0
   42.9464    4.1122   12.2598 H   0  0  0  0  0  0  0  0  0  0  0  0
   43.0154   12.4789    8.9794 H   0  0  0  0  0  0  0  0  0  0  0  0
   46.1348    6.6295   13.5732 H   0  0  0  0  0  0  0  0  0  0  0  0
   46.1382   11.4660   11.7287 H   0  0  0  0  0  0  0  0  0  0  0  0
   42.0214    5.9763   10.9294 H   0  0  0  0  0  0  0  0  0  0  0  0
   42.0585   10.2153    9.2468 H   0  0  0  0  0  0  0  0  0  0  0  0
   47.2776    9.0234   12.1500 H   0  0  0  0  0  0  0  0  0  0  0  0
   46.6748    8.6225   13.6492 H   0  0  0  0  0  0  0  0  0  0  0  0
  2  1  1  0
  3  2  1  0
  4  3  1  0
  5  4  1  0
  6  5  1  0
  8  7  2  0
 10  6  1  0
 10  7  1  0
 11  8  1  0
 11  9  2  0
 12  9  1  0
 12 10  2  0
 13 11  1  0
 14 12  1  0
 17 15  2  0
 18 16  1  0
 19 15  1  0
 20 16  2  0
 21 17  1  0
 22 18  2  0
 23 19  2  0
 24 20  1  0
 25 21  2  0
 25 23  1  0
 26 22  1  0
 26 24  1  0
 27 23  1  0
 27 24  2  0
 28 27  1  0
 29 25  1  0
 29 26  2  0
  1 30  1  0
  1 31  1  0
  1 32  1  0
  2 33  1  0
  2 34  1  0
  3 35  1  0
  3 36  1  0
  4 37  1  0
  4 38  1  0
  5 39  1  0
  5 40  1  0
  6 41  1  0
  6 42  1  0
  7 43  1  0
  8 44  1  0
  9 45  1  0
 13 46  1  0
 14 47  1  0
 15 48  1  0
 16 49  1  0
 17 50  1  0
 18 51  1  0
 19 52  1  0
 20 53  1  0
 21 54  1  0
 22 55  1  0
 28 56  1  0
 28 57  1  0
M  END
> <Uni-Dock RESULT> 
ENERGY=   -5.498  LOWER_BOUND=    2.977  UPPER_BOUND=    4.608
INTER + INTRA:          -5.498
INTER:                  -5.498
INTRA:                   0.000
UNBOUND:                 0.000

$$$$

     RDKit          3D

 57 59  0  0  0  0  0  0  0  0999 V2000
   47.0817   13.3995   17.6034 C   0  0  0  0  0  0  0  0  0  0  0  0
   47.6694   12.7419   18.8427 C   0  0  0  0  0  0  0  0  0  0  0  0
   46.5831   12.4118   19.8666 C   0  0  0  0  0  0  0  0  0  0  0  0
   47.1337   11.8537   21.1824 C   0  0  0  0  0  0  0  0  0  0  0  0
   47.9542   10.5651   21.0695 C   0  0  0  0  0  0  0  0  0  0  0  0
   47.1701    9.3965   20.4668 C   0  0  0  0  0  0  0  0  0  0  0  0
   48.7617    7.7906   19.3504 C   0  0  0  0  0  0  0  0  0  0  0  0
   49.5319    6.6254   19.3380 C   0  0  0  0  0  0  0  0  0  0  0  0
   48.7682    6.1019   21.5737 C   0  0  0  0  0  0  0  0  0  0  0  0
   47.9815    8.1222   20.4699 C   0  0  0  0  0  0  0  0  0  0  0  0
   49.5262    5.7912   20.4509 C   0  0  0  0  0  0  0  0  0  0  0  0
   48.0025    7.2667   21.5783 C   0  0  0  0  0  0  0  0  0  0  0  0
   50.2639    4.6439   20.4813 O   0  0  0  0  0  0  0  0  0  0  0  0
   47.2580    7.5923   22.6775 O   0  0  0  0  0  0  0  0  0  0  0  0
   48.2437   13.3338   19.7333 C   0  0  0  0  0  0  0  0  0  0  0  0
   47.3566    6.1568   21.0213 C   0  0  0  0  0  0  0  0  0  0  0  0
   48.2554   13.0053   18.3870 C   0  0  0  0  0  0  0  0  0  0  0  0
   47.3676    5.9901   19.6443 C   0  0  0  0  0  0  0  0  0  0  0  0
   48.1228   12.3218   20.6857 C   0  0  0  0  0  0  0  0  0  0  0  0
   47.5283    7.4321   21.5567 C   0  0  0  0  0  0  0  0  0  0  0  0
   48.1387   11.6683   18.0042 C   0  0  0  0  0  0  0  0  0  0  0  0
   47.5505    7.1000   18.8161 C   0  0  0  0  0  0  0  0  0  0  0  0
   48.0136   10.9588   20.3063 C   0  0  0  0  0  0  0  0  0  0  0  0
   47.7101    8.5605   20.7219 C   0  0  0  0  0  0  0  0  0  0  0  0
   48.0128   10.6432   18.9326 C   0  0  0  0  0  0  0  0  0  0  0  0
   47.7209    8.3806   19.3276 C   0  0  0  0  0  0  0  0  0  0  0  0
   47.9043    9.8742   21.2163 C   0  0  0  0  0  0  0  0  0  0  0  0
   47.7681   10.1014   22.6181 N   0  0  0  0  0  0  0  0  0  0  0  0
   47.8805    9.3941   18.4654 N   0  0  0  0  0  0  0  0  0  0  0  0
   47.8737   13.6243   16.8822 H   0  0  0  0  0  0  0  0  0  0  0  0
   46.5781   14.3376   17.8579 H   0  0  0  0  0  0  0  0  0  0  0  0
   46.3558   12.7402   17.1167 H   0  0  0  0  0  0  0  0  0  0  0  0
   48.1952   11.8306   18.5381 H   0  0  0  0  0  0  0  0  0  0  0  0
   48.4108   13.4142   19.2893 H   0  0  0  0  0  0  0  0  0  0  0  0
   45.8630   11.7090   19.4319 H   0  0  0  0  0  0  0  0  0  0  0  0
   46.0184   13.3244   20.0966 H   0  0  0  0  0  0  0  0  0  0  0  0
   47.7586   12.6202   21.6576 H   0  0  0  0  0  0  0  0  0  0  0  0
   46.2916   11.6787   21.8636 H   0  0  0  0  0  0  0  0  0  0  0  0
   48.8641   10.7491   20.4859 H   0  0  0  0  0  0  0  0  0  0  0  0
   48.2963   10.2950   22.0771 H   0  0  0  0  0  0  0  0  0  0  0  0
   46.2318    9.2421   21.0136 H   0  0  0  0  0  0  0  0  0  0  0  0
   46.8769    9.6243   19.4350 H   0  0  0  0  0  0  0  0  0  0  0  0
   48.7721    8.4440   18.4806 H   0  0  0  0  0  0  0  0  0  0  0  0
   50.1243    6.3908   18.4594 H   0  0  0  0  0  0  0  0  0  0  0  0
   48.7881    5.4328   22.4271 H   0  0  0  0  0  0  0  0  0  0  0  0
   50.7359    4.5579   19.6367 H   0  0  0  0  0  0  0  0  0  0  0  0
   47.3843    6.9032   23.3504 H   0  0  0  0  0  0  0  0  0  0  0  0
   48.3295   14.3717   20.0446 H   0  0  0  0  0  0  0  0  0  0  0  0
   47.2218    5.3020   21.6783 H   0  0  0  0  0  0  0  0  0  0  0  0
   48.3501   13.7803   17.6313 H   0  0  0  0  0  0  0  0  0  0  0  0
   47.2379    5.0030   19.2090 H   0  0  0  0  0  0  0  0  0  0  0  0
   48.1153   12.6134   21.7314 H   0  0  0  0  0  0  0  0  0  0  0  0
   47.5345    7.5503   22.6383 H   0  0  0  0  0  0  0  0  0  0  0  0
   48.1402   11.4168   16.9456 H   0  0  0  0  0  0  0  0  0  0  0  0
   47.5588    6.9630   17.7370 H   0  0  0  0  0  0  0  0  0  0  0  0
   46.7802   10.1626   22.8599 H   0  0  0  0  0  0  0  0  0  0  0  0
   48.2530   10.9357   22.9297 H   0  0  0  0  0  0  0  0  0  0  0  0
  2  1  1  0
  3  2  1  0
  4  3  1  0
  5  4  1  0
  6  5  1  0
  8  7  2  0
 10  6  1  0
 10  7  1  0
 11  8  1  0
 11  9  2  0
 12  9  1  0
 12 10  2  0
 13 11  1  0
 14 12  1  0
 17 15  2  0
 18 16  1  0
 19 15  1  0
 20 16  2  0
 21 17  1  0
 22 18  2  0
 23 19  2  0
 24 20  1  0
 25 21  2  0
 25 23  1  0
 26 22  1  0
 26 24  1  0
 27 23  1  0
 27 24  2  0
 28 27  1  0
 29 25  1  0
 29 26  2  0
  1 30  1  0
  1 31  1  0
  1 32  1  0
  2 33  1  0
  2 34  1  0
  3 35  1  0
  3 36  1  0
  4 37  1  0
  4 38  1  0
  5 39  1  0
  5 40  1  0
  6 41  1  0
  6 42  1  0
  7 43  1  0
  8 44  1  0
  9 45  1  0
 13 46  1  0
 14 47  1  0
 15 48  1  0
 16 49  1  0
 17 50  1  0
 18 51  1  0
 19 52  1  0
 20 53  1  0
 21 54  1  0
 22 55  1  0
 28 56  1  0
 28 57  1  0
M  END
> <Uni-Dock RESULT> 
ENERGY=   -5.463  LOWER_BOUND=    7.486  UPPER_BOUND=    9.844
INTER + INTRA:          -5.463
INTER:                  -5.463
INTRA:                   0.000
UNBOUND:                 0.000

$$$$

     RDKit          3D

 57 59  0  0  0  0  0  0  0  0999 V2000
   44.7228    6.6081   11.9538 C   0  0  0  0  0  0  0  0  0  0  0  0
   46.1749    6.6136   12.4067 C   0  0  0  0  0  0  0  0  0  0  0  0
   46.4243    7.6882   13.4652 C   0  0  0  0  0  0  0  0  0  0  0  0
   47.8956    7.8146   13.8718 C   0  0  0  0  0  0  0  0  0  0  0  0
   48.5385    6.5516   14.4531 C   0  0  0  0  0  0  0  0  0  0  0  0
   47.8432    6.0434   15.7188 C   0  0  0  0  0  0  0  0  0  0  0  0
   48.2007    3.5577   15.9455 C   0  0  0  0  0  0  0  0  0  0  0  0
   48.8693    2.4504   16.4728 C   0  0  0  0  0  0  0  0  0  0  0  0
   50.3029    3.9275   17.7451 C   0  0  0  0  0  0  0  0  0  0  0  0
   48.5698    4.8610   16.3155 C   0  0  0  0  0  0  0  0  0  0  0  0
   49.9142    2.6470   17.3694 C   0  0  0  0  0  0  0  0  0  0  0  0
   49.6308    5.0272   17.2141 C   0  0  0  0  0  0  0  0  0  0  0  0
   50.5944    1.5941   17.9081 O   0  0  0  0  0  0  0  0  0  0  0  0
   50.0057    6.2938   17.5658 O   0  0  0  0  0  0  0  0  0  0  0  0
   47.0926    7.1032   11.7810 C   0  0  0  0  0  0  0  0  0  0  0  0
   49.0397    4.4935   18.3653 C   0  0  0  0  0  0  0  0  0  0  0  0
   46.0997    6.1364   11.7845 C   0  0  0  0  0  0  0  0  0  0  0  0
   47.9897    3.5971   18.2314 C   0  0  0  0  0  0  0  0  0  0  0  0
   47.9796    7.1801   12.8547 C   0  0  0  0  0  0  0  0  0  0  0  0
   49.3067    5.3923   17.3341 C   0  0  0  0  0  0  0  0  0  0  0  0
   45.9976    5.2593   12.8653 C   0  0  0  0  0  0  0  0  0  0  0  0
   47.2171    3.6079   17.0677 C   0  0  0  0  0  0  0  0  0  0  0  0
   47.8898    6.2863   13.9533 C   0  0  0  0  0  0  0  0  0  0  0  0
   48.5246    5.4099   16.1546 C   0  0  0  0  0  0  0  0  0  0  0  0
   46.8653    5.3182   13.9479 C   0  0  0  0  0  0  0  0  0  0  0  0
   47.4634    4.4964   16.0283 C   0  0  0  0  0  0  0  0  0  0  0  0
   48.7645    6.2921   15.0719 C   0  0  0  0  0  0  0  0  0  0  0  0
   49.7497    7.3117   15.2296 N   0  0  0  0  0  0  0  0  0  0  0  0
   46.6698    4.4493   14.9493 N   0  0  0  0  0  0  0  0  0  0  0  0
   44.5641    5.8307   11.1997 H   0  0  0  0  0  0  0  0  0  0  0  0
   44.4452    7.5706   11.5125 H   0  0  0  0  0  0  0  0  0  0  0  0
   44.0508    6.4083   12.7946 H   0  0  0  0  0  0  0  0  0  0  0  0
   46.4202    5.6230   12.8043 H   0  0  0  0  0  0  0  0  0  0  0  0
   46.8215    6.7877   11.5390 H   0  0  0  0  0  0  0  0  0  0  0  0
   45.8055    7.4914   14.3483 H   0  0  0  0  0  0  0  0  0  0  0  0
   46.0973    8.6598   13.0734 H   0  0  0  0  0  0  0  0  0  0  0  0
   48.4787    8.1272   12.9965 H   0  0  0  0  0  0  0  0  0  0  0  0
   47.9837    8.6262   14.6049 H   0  0  0  0  0  0  0  0  0  0  0  0
   48.5650    5.7604   13.6943 H   0  0  0  0  0  0  0  0  0  0  0  0
   49.5877    6.7822   14.6796 H   0  0  0  0  0  0  0  0  0  0  0  0
   47.7653    6.8466   16.4619 H   0  0  0  0  0  0  0  0  0  0  0  0
   46.8116    5.7462   15.4954 H   0  0  0  0  0  0  0  0  0  0  0  0
   47.3873    3.4011   15.2402 H   0  0  0  0  0  0  0  0  0  0  0  0
   48.5631    1.4535   16.1722 H   0  0  0  0  0  0  0  0  0  0  0  0
   51.1241    4.0475   18.4434 H   0  0  0  0  0  0  0  0  0  0  0  0
   50.2156    0.7707   17.5587 H   0  0  0  0  0  0  0  0  0  0  0  0
   50.7493    6.2337   18.1877 H   0  0  0  0  0  0  0  0  0  0  0  0
   47.1803    7.7952   10.9473 H   0  0  0  0  0  0  0  0  0  0  0  0
   49.6534    4.4927   19.2620 H   0  0  0  0  0  0  0  0  0  0  0  0
   45.4008    6.0610   10.9559 H   0  0  0  0  0  0  0  0  0  0  0  0
   47.7683    2.8875   19.0238 H   0  0  0  0  0  0  0  0  0  0  0  0
   48.7444    7.9498   12.8215 H   0  0  0  0  0  0  0  0  0  0  0  0
   50.1427    6.0805   17.4415 H   0  0  0  0  0  0  0  0  0  0  0  0
   45.2111    4.5075   12.8667 H   0  0  0  0  0  0  0  0  0  0  0  0
   46.3953    2.9022   16.9682 H   0  0  0  0  0  0  0  0  0  0  0  0
   49.3585    8.0850   15.7654 H   0  0  0  0  0  0  0  0  0  0  0  0
   50.1089    7.6511   14.3441 H   0  0  0  0  0  0  0  0  0  0  0  0
  2  1  1  0
  3  2  1  0
  4  3  1  0
  5  4  1  0
  6  5  1  0
  8  7  2  0
 10  6  1  0
 10  7  1  0
 11  8  1  0
 11  9  2  0
 12  9  1  0
 12 10  2  0
 13 11  1  0
 14 12  1  0
 17 15  2  0
 18 16  1  0
 19 15  1  0
 20 16  2  0
 21 17  1  0
 22 18  2  0
 23 19  2  0
 24 20  1  0
 25 21  2  0
 25 23  1  0
 26 22  1  0
 26 24  1  0
 27 23  1  0
 27 24  2  0
 28 27  1  0
 29 25  1  0
 29 26  2  0
  1 30  1  0
  1 31  1  0
  1 32  1  0
  2 33  1  0
  2 34  1  0
  3 35  1  0
  3 36  1  0
  4 37  1  0
  4 38  1  0
  5 39  1  0
  5 40  1  0
  6 41  1  0
  6 42  1  0
  7 43  1  0
  8 44  1  0
  9 45  1  0
 13 46  1  0
 14 47  1  0
 15 48  1  0
 16 49  1  0
 17 50  1  0
 18 51  1  0
 19 52  1  0
 20 53  1  0
 21 54  1  0
 22 55  1  0
 28 56  1  0
 28 57  1  0
M  END
> <Uni-Dock RESULT> 
ENERGY=   -5.335  LOWER_BOUND=    3.694  UPPER_BOUND=    5.463
INTER + INTRA:          -5.335
INTER:                  -5.335
INTRA:                   0.000
UNBOUND:                 0.000

$$$$

     RDKit          3D

 57 59  0  0  0  0  0  0  0  0999 V2000
   47.2084   13.1364   18.1075 C   0  0  0  0  0  0  0  0  0  0  0  0
   47.5349   12.1322   19.2023 C   0  0  0  0  0  0  0  0  0  0  0  0
   46.2808   11.3978   19.6768 C   0  0  0  0  0  0  0  0  0  0  0  0
   46.5344   10.4578   20.8592 C   0  0  0  0  0  0  0  0  0  0  0  0
   47.5592    9.3449   20.6195 C   0  0  0  0  0  0  0  0  0  0  0  0
   47.1796    8.4066   19.4709 C   0  0  0  0  0  0  0  0  0  0  0  0
   49.2636    7.3941   18.4760 C   0  0  0  0  0  0  0  0  0  0  0  0
   50.1925    6.3586   18.3486 C   0  0  0  0  0  0  0  0  0  0  0  0
   48.9432    5.0465   19.9527 C   0  0  0  0  0  0  0  0  0  0  0  0
   48.1615    7.2665   19.3368 C   0  0  0  0  0  0  0  0  0  0  0  0
   50.0217    5.1934   19.0884 C   0  0  0  0  0  0  0  0  0  0  0  0
   48.0209    6.0845   20.0744 C   0  0  0  0  0  0  0  0  0  0  0  0
   50.9049    4.1577   18.9947 O   0  0  0  0  0  0  0  0  0  0  0  0
   46.9591    5.9606   20.9264 O   0  0  0  0  0  0  0  0  0  0  0  0
   47.7340   12.4173   20.3653 C   0  0  0  0  0  0  0  0  0  0  0  0
   47.7496    5.1946   19.0285 C   0  0  0  0  0  0  0  0  0  0  0  0
   48.1705   12.5751   19.0595 C   0  0  0  0  0  0  0  0  0  0  0  0
   48.1667    5.5143   17.7448 C   0  0  0  0  0  0  0  0  0  0  0  0
   47.5283   11.1333   20.8698 C   0  0  0  0  0  0  0  0  0  0  0  0
   47.5500    6.2152   19.9564 C   0  0  0  0  0  0  0  0  0  0  0  0
   48.3906   11.4476   18.2668 C   0  0  0  0  0  0  0  0  0  0  0  0
   48.3803    6.8514   17.4015 C   0  0  0  0  0  0  0  0  0  0  0  0
   47.7589    9.9808   20.0747 C   0  0  0  0  0  0  0  0  0  0  0  0
   47.7615    7.5718   19.6125 C   0  0  0  0  0  0  0  0  0  0  0  0
   48.1889   10.1592   18.7443 C   0  0  0  0  0  0  0  0  0  0  0  0
   48.1853    7.8851   18.3091 C   0  0  0  0  0  0  0  0  0  0  0  0
   47.5880    8.6441   20.5225 C   0  0  0  0  0  0  0  0  0  0  0  0
   47.0355    8.3641   21.8076 N   0  0  0  0  0  0  0  0  0  0  0  0
   48.4026    9.1422   17.8982 N   0  0  0  0  0  0  0  0  0  0  0  0
   48.1185   13.6484   17.7794 H   0  0  0  0  0  0  0  0  0  0  0  0
   46.5037   13.8935   18.4662 H   0  0  0  0  0  0  0  0  0  0  0  0
   46.7662   12.6389   17.2384 H   0  0  0  0  0  0  0  0  0  0  0  0
   48.2699   11.4191   18.8139 H   0  0  0  0  0  0  0  0  0  0  0  0
   48.0007   12.6569   20.0443 H   0  0  0  0  0  0  0  0  0  0  0  0
   45.8371   10.8419   18.8427 H   0  0  0  0  0  0  0  0  0  0  0  0
   45.5293   12.1352   19.9864 H   0  0  0  0  0  0  0  0  0  0  0  0
   46.8661   11.0531   21.7192 H   0  0  0  0  0  0  0  0  0  0  0  0
   45.5795   10.0030   21.1510 H   0  0  0  0  0  0  0  0  0  0  0  0
   48.5500    9.7791   20.4395 H   0  0  0  0  0  0  0  0  0  0  0  0
   47.6515    8.7671   21.5484 H   0  0  0  0  0  0  0  0  0  0  0  0
   46.1671    8.0110   19.6180 H   0  0  0  0  0  0  0  0  0  0  0  0
   47.1473    8.9564   18.5226 H   0  0  0  0  0  0  0  0  0  0  0  0
   49.4025    8.3066   17.9002 H   0  0  0  0  0  0  0  0  0  0  0  0
   51.0343    6.4816   17.6747 H   0  0  0  0  0  0  0  0  0  0  0  0
   48.8402    4.1269   20.5185 H   0  0  0  0  0  0  0  0  0  0  0  0
   51.5984    4.4000   18.3591 H   0  0  0  0  0  0  0  0  0  0  0  0
   47.0098    5.0917   21.3576 H   0  0  0  0  0  0  0  0  0  0  0  0
   47.5547   13.2873   20.9917 H   0  0  0  0  0  0  0  0  0  0  0  0
   47.5854    4.1586   19.3120 H   0  0  0  0  0  0  0  0  0  0  0  0
   48.3373   13.5677   18.6501 H   0  0  0  0  0  0  0  0  0  0  0  0
   48.3298    4.7318   17.0089 H   0  0  0  0  0  0  0  0  0  0  0  0
   47.1846   11.0449   21.8958 H   0  0  0  0  0  0  0  0  0  0  0  0
   47.2387    5.9532   20.9655 H   0  0  0  0  0  0  0  0  0  0  0  0
   48.7253   11.5775   17.2398 H   0  0  0  0  0  0  0  0  0  0  0  0
   48.7079    7.0959   16.3934 H   0  0  0  0  0  0  0  0  0  0  0  0
   46.0235    8.2723   21.7318 H   0  0  0  0  0  0  0  0  0  0  0  0
   47.2683    9.0699   22.4975 H   0  0  0  0  0  0  0  0  0  0  0  0
  2  1  1  0
  3  2  1  0
  4  3  1  0
  5  4  1  0
  6  5  1  0
  8  7  2  0
 10  6  1  0
 10  7  1  0
 11  8  1  0
 11  9  2  0
 12  9  1  0
 12 10  2  0
 13 11  1  0
 14 12  1  0
 17 15  2  0
 18 16  1  0
 19 15  1  0
 20 16  2  0
 21 17  1  0
 22 18  2  0
 23 19  2  0
 24 20  1  0
 25 21  2  0
 25 23  1  0
 26 22  1  0
 26 24  1  0
 27 23  1  0
 27 24  2  0
 28 27  1  0
 29 25  1  0
 29 26  2  0
  1 30  1  0
  1 31  1  0
  1 32  1  0
  2 33  1  0
  2 34  1  0
  3 35  1  0
  3 36  1  0
  4 37  1  0
  4 38  1  0
  5 39  1  0
  5 40  1  0
  6 41  1  0
  6 42  1  0
  7 43  1  0
  8 44  1  0
  9 45  1  0
 13 46  1  0
 14 47  1  0
 15 48  1  0
 16 49  1  0
 17 50  1  0
 18 51  1  0
 19 52  1  0
 20 53  1  0
 21 54  1  0
 22 55  1  0
 28 56  1  0
 28 57  1  0
M  END
> <Uni-Dock RESULT> 
ENERGY=   -5.224  LOWER_BOUND=    6.555  UPPER_BOUND=    9.105
INTER + INTRA:          -5.224
INTER:                  -5.224
INTRA:                   0.000
UNBOUND:                 0.000

$$$$

     RDKit          3D

 57 59  0  0  0  0  0  0  0  0999 V2000
   47.2378    5.3898   23.3959 C   0  0  0  0  0  0  0  0  0  0  0  0
   47.9845    5.9023   22.1738 C   0  0  0  0  0  0  0  0  0  0  0  0
   47.1205    5.8140   20.9155 C   0  0  0  0  0  0  0  0  0  0  0  0
   47.8638    6.2090   19.6358 C   0  0  0  0  0  0  0  0  0  0  0  0
   48.4341    7.6304   19.6067 C   0  0  0  0  0  0  0  0  0  0  0  0
   47.3674    8.7163   19.7699 C   0  0  0  0  0  0  0  0  0  0  0  0
   48.4054   10.7836   20.7734 C   0  0  0  0  0  0  0  0  0  0  0  0
   48.9685   12.0575   20.6668 C   0  0  0  0  0  0  0  0  0  0  0  0
   48.6598   11.9884   18.2677 C   0  0  0  0  0  0  0  0  0  0  0  0
   47.9573   10.1002   19.6315 C   0  0  0  0  0  0  0  0  0  0  0  0
   49.0889   12.6480   19.4134 C   0  0  0  0  0  0  0  0  0  0  0  0
   48.0991   10.7174   18.3826 C   0  0  0  0  0  0  0  0  0  0  0  0
   49.6331   13.8901   19.2637 O   0  0  0  0  0  0  0  0  0  0  0  0
   47.6799   10.0505   17.2653 O   0  0  0  0  0  0  0  0  0  0  0  0
   48.8274    5.2758   21.5653 C   0  0  0  0  0  0  0  0  0  0  0  0
   47.1847   11.7651   18.5414 C   0  0  0  0  0  0  0  0  0  0  0  0
   48.4851    5.8494   22.7796 C   0  0  0  0  0  0  0  0  0  0  0  0
   46.8591   12.1888   19.8215 C   0  0  0  0  0  0  0  0  0  0  0  0
   48.7739    6.0454   20.4033 C   0  0  0  0  0  0  0  0  0  0  0  0
   47.6627   10.4699   18.3511 C   0  0  0  0  0  0  0  0  0  0  0  0
   48.0852    7.1859   22.8205 C   0  0  0  0  0  0  0  0  0  0  0  0
   47.0150   11.3134   20.8988 C   0  0  0  0  0  0  0  0  0  0  0  0
   48.3781    7.4078   20.4364 C   0  0  0  0  0  0  0  0  0  0  0  0
   47.8190    9.5777   19.4387 C   0  0  0  0  0  0  0  0  0  0  0  0
   48.0194    7.9718   21.6774 C   0  0  0  0  0  0  0  0  0  0  0  0
   47.4873   10.0173   20.7323 C   0  0  0  0  0  0  0  0  0  0  0  0
   48.3152    8.2576   19.3005 C   0  0  0  0  0  0  0  0  0  0  0  0
   48.5349    7.7467   17.9868 N   0  0  0  0  0  0  0  0  0  0  0  0
   47.5987    9.2365   21.8158 N   0  0  0  0  0  0  0  0  0  0  0  0
   47.8710    5.4646   24.2856 H   0  0  0  0  0  0  0  0  0  0  0  0
   46.9518    4.3407   23.2702 H   0  0  0  0  0  0  0  0  0  0  0  0
   46.3301    5.9750   23.5746 H   0  0  0  0  0  0  0  0  0  0  0  0
   48.2846    6.9395   22.3578 H   0  0  0  0  0  0  0  0  0  0  0  0
   48.9001    5.3152   22.0394 H   0  0  0  0  0  0  0  0  0  0  0  0
   46.2236    6.4324   21.0358 H   0  0  0  0  0  0  0  0  0  0  0  0
   46.7664    4.7821   20.7958 H   0  0  0  0  0  0  0  0  0  0  0  0
   48.6879    5.5030   19.4734 H   0  0  0  0  0  0  0  0  0  0  0  0
   47.1808    6.0840   18.7862 H   0  0  0  0  0  0  0  0  0  0  0  0
   49.2057    7.7413   20.3780 H   0  0  0  0  0  0  0  0  0  0  0  0
   48.9502    7.7659   18.6473 H   0  0  0  0  0  0  0  0  0  0  0  0
   46.5646    8.5783   19.0352 H   0  0  0  0  0  0  0  0  0  0  0  0
   46.8864    8.6356   20.7520 H   0  0  0  0  0  0  0  0  0  0  0  0
   48.3173   10.3218   21.7545 H   0  0  0  0  0  0  0  0  0  0  0  0
   49.3050   12.5652   21.5650 H   0  0  0  0  0  0  0  0  0  0  0  0
   48.7710   12.4744   17.3045 H   0  0  0  0  0  0  0  0  0  0  0  0
   49.8837   14.2251   20.1404 H   0  0  0  0  0  0  0  0  0  0  0  0
   47.8497   10.6107   16.4902 H   0  0  0  0  0  0  0  0  0  0  0  0
   49.1365    4.2347   21.5192 H   0  0  0  0  0  0  0  0  0  0  0  0
   47.0747   12.4369   17.6945 H   0  0  0  0  0  0  0  0  0  0  0  0
   48.5223    5.2653   23.6951 H   0  0  0  0  0  0  0  0  0  0  0  0
   46.4874   13.1959   19.9893 H   0  0  0  0  0  0  0  0  0  0  0  0
   49.0468    5.5652   19.4687 H   0  0  0  0  0  0  0  0  0  0  0  0
   47.9308   10.1522   17.3455 H   0  0  0  0  0  0  0  0  0  0  0  0
   47.8097    7.6289   23.7753 H   0  0  0  0  0  0  0  0  0  0  0  0
   46.7586   11.6515   21.9004 H   0  0  0  0  0  0  0  0  0  0  0  0
   47.6480    7.4493   17.5831 H   0  0  0  0  0  0  0  0  0  0  0  0
   49.1976    6.9793   17.9696 H   0  0  0  0  0  0  0  0  0  0  0  0
  2  1  1  0
  3  2  1  0
  4  3  1  0
  5  4  1  0
  6  5  1  0
  8  7  2  0
 10  6  1  0
 10  7  1  0
 11  8  1  0
 11  9  2  0
 12  9  1  0
 12 10  2  0
 13 11  1  0
 14 12  1  0
 17 15  2  0
 18 16  1  0
 19 15  1  0
 20 16  2  0
 21 17  1  0
 22 18  2  0
 23 19  2  0
 24 20  1  0
 25 21  2  0
 25 23  1  0
 26 22  1  0
 26 24  1  0
 27 23  1  0
 27 24  2  0
 28 27  1  0
 29 25  1  0
 29 26  2  0
  1 30  1  0
  1 31  1  0
  1 32  1  0
  2 33  1  0
  2 34  1  0
  3 35  1  0
  3 36  1  0
  4 37  1  0
  4 38  1  0
  5 39  1  0
  5 40  1  0
  6 41  1  0
  6 42  1  0
  7 43  1  0
  8 44  1  0
  9 45  1  0
 13 46  1  0
 14 47  1  0
 15 48  1  0
 16 49  1  0
 17 50  1  0
 18 51  1  0
 19 52  1  0
 20 53  1  0
 21 54  1  0
 22 55  1  0
 28 56  1  0
 28 57  1  0
M  END
> <Uni-Dock RESULT> 
ENERGY=   -5.131  LOWER_BOUND=    7.482  UPPER_BOUND=    9.025
INTER + INTRA:          -5.131
INTER:                  -5.131
INTRA:                   0.000
UNBOUND:                 0.000

$$$$

     RDKit          3D

 57 59  0  0  0  0  0  0  0  0999 V2000
   48.2915    7.6163   24.1961 C   0  0  0  0  0  0  0  0  0  0  0  0
   48.2561    6.4075   23.2734 C   0  0  0  0  0  0  0  0  0  0  0  0
   47.7197    6.7777   21.8905 C   0  0  0  0  0  0  0  0  0  0  0  0
   47.5539    5.5741   20.9578 C   0  0  0  0  0  0  0  0  0  0  0  0
   48.8269    4.7722   20.6700 C   0  0  0  0  0  0  0  0  0  0  0  0
   49.9332    5.6032   20.0148 C   0  0  0  0  0  0  0  0  0  0  0  0
   52.1838    4.6107   20.5697 C   0  0  0  0  0  0  0  0  0  0  0  0
   53.2912    3.8161   20.2638 C   0  0  0  0  0  0  0  0  0  0  0  0
   52.3052    3.2748   18.1212 C   0  0  0  0  0  0  0  0  0  0  0  0
   51.1283    4.7522   19.6545 C   0  0  0  0  0  0  0  0  0  0  0  0
   53.3410    3.1564   19.0404 C   0  0  0  0  0  0  0  0  0  0  0  0
   51.2035    4.0694   18.4343 C   0  0  0  0  0  0  0  0  0  0  0  0
   54.4031    2.3702   18.7011 O   0  0  0  0  0  0  0  0  0  0  0  0
   50.1717    4.1899   17.5458 O   0  0  0  0  0  0  0  0  0  0  0  0
   47.4080    5.5396   23.3030 C   0  0  0  0  0  0  0  0  0  0  0  0
   52.2668    4.7664   17.8487 C   0  0  0  0  0  0  0  0  0  0  0  0
   48.4230    6.1695   24.0055 C   0  0  0  0  0  0  0  0  0  0  0  0
   53.1688    5.4322   18.6654 C   0  0  0  0  0  0  0  0  0  0  0  0
   47.6654    5.0376   22.0273 C   0  0  0  0  0  0  0  0  0  0  0  0
   50.9814    4.5057   18.3202 C   0  0  0  0  0  0  0  0  0  0  0  0
   49.6849    6.2986   23.4234 C   0  0  0  0  0  0  0  0  0  0  0  0
   52.7770    5.8306   19.9457 C   0  0  0  0  0  0  0  0  0  0  0  0
   48.9478    5.1553   21.4313 C   0  0  0  0  0  0  0  0  0  0  0  0
   50.5781    4.9105   19.6151 C   0  0  0  0  0  0  0  0  0  0  0  0
   49.9650    5.8114   22.1535 C   0  0  0  0  0  0  0  0  0  0  0  0
   51.5004    5.5837   20.4354 C   0  0  0  0  0  0  0  0  0  0  0  0
   49.2895    4.6560   20.1467 C   0  0  0  0  0  0  0  0  0  0  0  0
   48.2984    4.0920   19.2895 N   0  0  0  0  0  0  0  0  0  0  0  0
   51.1998    6.0072   21.6709 N   0  0  0  0  0  0  0  0  0  0  0  0
   48.6812    7.3317   25.1785 H   0  0  0  0  0  0  0  0  0  0  0  0
   47.2890    8.0330   24.3364 H   0  0  0  0  0  0  0  0  0  0  0  0
   48.9367    8.4014   23.7889 H   0  0  0  0  0  0  0  0  0  0  0  0
   49.2697    6.0005   23.1925 H   0  0  0  0  0  0  0  0  0  0  0  0
   47.6261    5.6310   23.7221 H   0  0  0  0  0  0  0  0  0  0  0  0
   48.3722    7.5262   21.4264 H   0  0  0  0  0  0  0  0  0  0  0  0
   46.7383    7.2558   22.0030 H   0  0  0  0  0  0  0  0  0  0  0  0
   46.8074    4.8942   21.3872 H   0  0  0  0  0  0  0  0  0  0  0  0
   47.1357    5.9278   20.0071 H   0  0  0  0  0  0  0  0  0  0  0  0
   49.1980    4.3124   21.5937 H   0  0  0  0  0  0  0  0  0  0  0  0
   48.5565    3.9378   20.0097 H   0  0  0  0  0  0  0  0  0  0  0  0
   49.5528    6.1095   19.1192 H   0  0  0  0  0  0  0  0  0  0  0  0
   50.2615    6.4029   20.6895 H   0  0  0  0  0  0  0  0  0  0  0  0
   52.1450    5.1213   21.5296 H   0  0  0  0  0  0  0  0  0  0  0  0
   54.0947    3.7251   20.9877 H   0  0  0  0  0  0  0  0  0  0  0  0
   52.3723    2.7446   17.1775 H   0  0  0  0  0  0  0  0  0  0  0  0
   55.0428    2.3832   19.4321 H   0  0  0  0  0  0  0  0  0  0  0  0
   50.3780    3.6576   16.7599 H   0  0  0  0  0  0  0  0  0  0  0  0
   46.4196    5.4363   23.7433 H   0  0  0  0  0  0  0  0  0  0  0  0
   52.5592    4.4448   16.8529 H   0  0  0  0  0  0  0  0  0  0  0  0
   48.2410    6.5654   25.0009 H   0  0  0  0  0  0  0  0  0  0  0  0
   54.1760    5.6419   18.3158 H   0  0  0  0  0  0  0  0  0  0  0  0
   46.8481    4.5514   21.5036 H   0  0  0  0  0  0  0  0  0  0  0  0
   50.2863    3.9684   17.6782 H   0  0  0  0  0  0  0  0  0  0  0  0
   50.4759    6.8013   23.9761 H   0  0  0  0  0  0  0  0  0  0  0  0
   53.4889    6.3518   20.5818 H   0  0  0  0  0  0  0  0  0  0  0  0
   47.9037    4.8212   18.6973 H   0  0  0  0  0  0  0  0  0  0  0  0
   47.5586    3.6226   19.8001 H   0  0  0  0  0  0  0  0  0  0  0  0
  2  1  1  0
  3  2  1  0
  4  3  1  0
  5  4  1  0
  6  5  1  0
  8  7  2  0
 10  6  1  0
 10  7  1  0
 11  8  1  0
 11  9  2  0
 12  9  1  0
 12 10  2  0
 13 11  1  0
 14 12  1  0
 17 15  2  0
 18 16  1  0
 19 15  1  0
 20 16  2  0
 21 17  1  0
 22 18  2  0
 23 19  2  0
 24 20  1  0
 25 21  2  0
 25 23  1  0
 26 22  1  0
 26 24  1  0
 27 23  1  0
 27 24  2  0
 28 27  1  0
 29 25  1  0
 29 26  2  0
  1 30  1  0
  1 31  1  0
  1 32  1  0
  2 33  1  0
  2 34  1  0
  3 35  1  0
  3 36  1  0
  4 37  1  0
  4 38  1  0
  5 39  1  0
  5 40  1  0
  6 41  1  0
  6 42  1  0
  7 43  1  0
  8 44  1  0
  9 45  1  0
 13 46  1  0
 14 47  1  0
 15 48  1  0
 16 49  1  0
 17 50  1  0
 18 51  1  0
 19 52  1  0
 20 53  1  0
 21 54  1  0
 22 55  1  0
 28 56  1  0
 28 57  1  0
M  END
> <Uni-Dock RESULT> 
ENERGY=   -5.101  LOWER_BOUND=    8.549  UPPER_BOUND=   10.238
INTER + INTRA:          -5.101
INTER:                  -5.101
INTRA:                   0.000
UNBOUND:                 0.000

$$$$
