
     RDKit          3D

 57 59  0  0  0  0  0  0  0  0999 V2000
   49.9933    5.3696   22.6661 C   0  0  0  0  0  0  0  0  0  0  0  0
   49.1434    6.6138   22.4576 C   0  0  0  0  0  0  0  0  0  0  0  0
   48.7730    6.8585   20.9925 C   0  0  0  0  0  0  0  0  0  0  0  0
   47.8470    5.7829   20.4186 C   0  0  0  0  0  0  0  0  0  0  0  0
   47.3508    6.1028   19.0027 C   0  0  0  0  0  0  0  0  0  0  0  0
   48.4387    6.1603   17.9223 C   0  0  0  0  0  0  0  0  0  0  0  0
   50.4359    4.6448   18.2002 C   0  0  0  0  0  0  0  0  0  0  0  0
   51.0971    3.4313   18.0060 C   0  0  0  0  0  0  0  0  0  0  0  0
   49.1934    2.5835   16.7781 C   0  0  0  0  0  0  0  0  0  0  0  0
   49.1441    4.8448   17.6891 C   0  0  0  0  0  0  0  0  0  0  0  0
   50.4723    2.4121   17.2986 C   0  0  0  0  0  0  0  0  0  0  0  0
   48.5389    3.8004   16.9774 C   0  0  0  0  0  0  0  0  0  0  0  0
   51.1583    1.2443   17.1350 O   0  0  0  0  0  0  0  0  0  0  0  0
   47.2836    3.9937   16.4699 O   0  0  0  0  0  0  0  0  0  0  0  0
   49.2661    7.3860   22.0679 C   0  0  0  0  0  0  0  0  0  0  0  0
   49.3559    2.2985   16.7580 C   0  0  0  0  0  0  0  0  0  0  0  0
   47.8995    7.4582   21.8511 C   0  0  0  0  0  0  0  0  0  0  0  0
   47.9871    2.4951   16.6709 C   0  0  0  0  0  0  0  0  0  0  0  0
   50.0433    6.5461   21.2701 C   0  0  0  0  0  0  0  0  0  0  0  0
   50.1046    3.0725   17.6446 C   0  0  0  0  0  0  0  0  0  0  0  0
   47.3215    6.6808   20.8468 C   0  0  0  0  0  0  0  0  0  0  0  0
   47.3784    3.4552   17.4802 C   0  0  0  0  0  0  0  0  0  0  0  0
   49.4677    5.7624   20.2356 C   0  0  0  0  0  0  0  0  0  0  0  0
   49.4977    4.0625   18.4614 C   0  0  0  0  0  0  0  0  0  0  0  0
   48.0741    5.8321   20.0451 C   0  0  0  0  0  0  0  0  0  0  0  0
   48.1025    4.2324   18.3753 C   0  0  0  0  0  0  0  0  0  0  0  0
   50.2004    4.9091   19.3639 C   0  0  0  0  0  0  0  0  0  0  0  0
   51.6079    4.7625   19.5282 N   0  0  0  0  0  0  0  0  0  0  0  0
   47.4234    5.1084   19.1259 N   0  0  0  0  0  0  0  0  0  0  0  0
   49.4367    4.4585   22.4286 H   0  0  0  0  0  0  0  0  0  0  0  0
   50.8926    5.3987   22.0425 H   0  0  0  0  0  0  0  0  0  0  0  0
   50.3086    5.3014   23.7122 H   0  0  0  0  0  0  0  0  0  0  0  0
   48.2350    6.5426   23.0670 H   0  0  0  0  0  0  0  0  0  0  0  0
   49.7032    7.4827   22.8236 H   0  0  0  0  0  0  0  0  0  0  0  0
   49.6914    6.9295   20.4003 H   0  0  0  0  0  0  0  0  0  0  0  0
   48.2747    7.8333   20.9224 H   0  0  0  0  0  0  0  0  0  0  0  0
   46.9696    5.6877   21.0707 H   0  0  0  0  0  0  0  0  0  0  0  0
   48.3429    4.8067   20.4235 H   0  0  0  0  0  0  0  0  0  0  0  0
   46.8298    7.0683   19.0210 H   0  0  0  0  0  0  0  0  0  0  0  0
   46.5976    5.3544   18.7277 H   0  0  0  0  0  0  0  0  0  0  0  0
   49.1701    6.9414   18.1618 H   0  0  0  0  0  0  0  0  0  0  0  0
   47.9843    6.4829   16.9764 H   0  0  0  0  0  0  0  0  0  0  0  0
   50.9354    5.4336   18.7575 H   0  0  0  0  0  0  0  0  0  0  0  0
   52.0959    3.2831   18.4065 H   0  0  0  0  0  0  0  0  0  0  0  0
   48.7141    1.7841   16.2258 H   0  0  0  0  0  0  0  0  0  0  0  0
   50.6092    0.6252   16.6274 H   0  0  0  0  0  0  0  0  0  0  0  0
   47.0009    3.1892   16.0067 H   0  0  0  0  0  0  0  0  0  0  0  0
   49.7286    7.9748   22.8555 H   0  0  0  0  0  0  0  0  0  0  0  0
   49.8422    1.5448   16.1443 H   0  0  0  0  0  0  0  0  0  0  0  0
   47.2778    8.1063   22.4627 H   0  0  0  0  0  0  0  0  0  0  0  0
   47.3874    1.9015   15.9864 H   0  0  0  0  0  0  0  0  0  0  0  0
   51.1081    6.4973   21.4773 H   0  0  0  0  0  0  0  0  0  0  0  0
   51.1720    2.8814   17.7034 H   0  0  0  0  0  0  0  0  0  0  0  0
   46.2463    6.7312   20.6888 H   0  0  0  0  0  0  0  0  0  0  0  0
   46.3017    3.5970   17.4175 H   0  0  0  0  0  0  0  0  0  0  0  0
   52.0531    5.6029   19.8808 H   0  0  0  0  0  0  0  0  0  0  0  0
   52.0734    4.4538   18.6815 H   0  0  0  0  0  0  0  0  0  0  0  0
  2  1  1  0
  3  2  1  0
  4  3  1  0
  5  4  1  0
  6  5  1  0
  8  7  2  0
 10  6  1  0
 10  7  1  0
 11  8  1  0
 11  9  2  0
 12  9  1  0
 12 10  2  0
 13 11  1  0
 14 12  1  0
 17 15  2  0
 18 16  1  0
 19 15  1  0
 20 16  2  0
 21 17  1  0
 22 18  2  0
 23 19  2  0
 24 20  1  0
 25 21  2  0
 25 23  1  0
 26 22  1  0
 26 24  1  0
 27 23  1  0
 27 24  2  0
 28 27  1  0
 29 25  1  0
 29 26  2  0
  1 30  1  0
  1 31  1  0
  1 32  1  0
  2 33  1  0
  2 34  1  0
  3 35  1  0
  3 36  1  0
  4 37  1  0
  4 38  1  0
  5 39  1  0
  5 40  1  0
  6 41  1  0
  6 42  1  0
  7 43  1  0
  8 44  1  0
  9 45  1  0
 13 46  1  0
 14 47  1  0
 15 48  1  0
 16 49  1  0
 17 50  1  0
 18 51  1  0
 19 52  1  0
 20 53  1  0
 21 54  1  0
 22 55  1  0
 28 56  1  0
 28 57  1  0
M  END
> <Uni-Dock RESULT> 
ENERGY=   -5.848  LOWER_BOUND=    0.000  UPPER_BOUND=    0.000
INTER + INTRA:          -5.848
INTER:                  -5.848
INTRA:                   0.000
UNBOUND:                 0.000

$$$$

     RDKit          3D

 57 59  0  0  0  0  0  0  0  0999 V2000
   45.5819   11.1081   20.3298 C   0  0  0  0  0  0  0  0  0  0  0  0
   46.6341   11.5741   19.3351 C   0  0  0  0  0  0  0  0  0  0  0  0
   47.9038   10.7188   19.3479 C   0  0  0  0  0  0  0  0  0  0  0  0
   47.6688    9.2862   18.8621 C   0  0  0  0  0  0  0  0  0  0  0  0
   48.9619    8.4719   18.7278 C   0  0  0  0  0  0  0  0  0  0  0  0
   49.7173    8.2169   20.0387 C   0  0  0  0  0  0  0  0  0  0  0  0
   48.3486    7.9914   22.1454 C   0  0  0  0  0  0  0  0  0  0  0  0
   47.6269    7.2348   23.0697 C   0  0  0  0  0  0  0  0  0  0  0  0
   48.0971    5.2282   21.8035 C   0  0  0  0  0  0  0  0  0  0  0  0
   48.9525    7.3789   21.0363 C   0  0  0  0  0  0  0  0  0  0  0  0
   47.5063    5.8624   22.8920 C   0  0  0  0  0  0  0  0  0  0  0  0
   48.8167    5.9926   20.8834 C   0  0  0  0  0  0  0  0  0  0  0  0
   46.7912    5.1655   23.8215 O   0  0  0  0  0  0  0  0  0  0  0  0
   49.4108    5.3901   19.8088 O   0  0  0  0  0  0  0  0  0  0  0  0
   47.4320   11.9240   19.4003 C   0  0  0  0  0  0  0  0  0  0  0  0
   47.9082    5.0687   22.0201 C   0  0  0  0  0  0  0  0  0  0  0  0
   47.7386   11.3767   18.1649 C   0  0  0  0  0  0  0  0  0  0  0  0
   48.2033    4.6890   20.7207 C   0  0  0  0  0  0  0  0  0  0  0  0
   47.3976   11.1002   20.5255 C   0  0  0  0  0  0  0  0  0  0  0  0
   47.7229    6.4196   22.3143 C   0  0  0  0  0  0  0  0  0  0  0  0
   47.9960   10.0090   18.0645 C   0  0  0  0  0  0  0  0  0  0  0  0
   48.2980    5.6626   19.7255 C   0  0  0  0  0  0  0  0  0  0  0  0
   47.6728    9.7102   20.4372 C   0  0  0  0  0  0  0  0  0  0  0  0
   47.8320    7.4196   21.3125 C   0  0  0  0  0  0  0  0  0  0  0  0
   47.9604    9.1682   19.1696 C   0  0  0  0  0  0  0  0  0  0  0  0
   48.1103    7.0125   19.9935 C   0  0  0  0  0  0  0  0  0  0  0  0
   47.6870    8.8162   21.5441 C   0  0  0  0  0  0  0  0  0  0  0  0
   47.3660    9.2922   22.8479 N   0  0  0  0  0  0  0  0  0  0  0  0
   48.1966    7.8663   18.9661 N   0  0  0  0  0  0  0  0  0  0  0  0
   45.1834   10.1253   20.0621 H   0  0  0  0  0  0  0  0  0  0  0  0
   45.9955   11.0503   21.3417 H   0  0  0  0  0  0  0  0  0  0  0  0
   44.7433   11.8117   20.3463 H   0  0  0  0  0  0  0  0  0  0  0  0
   46.2033   11.5901   18.3273 H   0  0  0  0  0  0  0  0  0  0  0  0
   46.9095   12.6072   19.5785 H   0  0  0  0  0  0  0  0  0  0  0  0
   48.3212   10.7167   20.3604 H   0  0  0  0  0  0  0  0  0  0  0  0
   48.6475   11.1984   18.6997 H   0  0  0  0  0  0  0  0  0  0  0  0
   47.1880    9.3220   17.8763 H   0  0  0  0  0  0  0  0  0  0  0  0
   46.9722    8.7647   19.5267 H   0  0  0  0  0  0  0  0  0  0  0  0
   49.6360    8.9916   18.0353 H   0  0  0  0  0  0  0  0  0  0  0  0
   48.7147    7.5146   18.2528 H   0  0  0  0  0  0  0  0  0  0  0  0
   50.0142    9.1680   20.4964 H   0  0  0  0  0  0  0  0  0  0  0  0
   50.6634    7.7084   19.8112 H   0  0  0  0  0  0  0  0  0  0  0  0
   48.4335    9.0650   22.2951 H   0  0  0  0  0  0  0  0  0  0  0  0
   47.1604    7.7161   23.9245 H   0  0  0  0  0  0  0  0  0  0  0  0
   47.9999    4.1570   21.6734 H   0  0  0  0  0  0  0  0  0  0  0  0
   46.7875    4.2263   23.5764 H   0  0  0  0  0  0  0  0  0  0  0  0
   49.2305    4.4370   19.8393 H   0  0  0  0  0  0  0  0  0  0  0  0
   47.2154   12.9850   19.4920 H   0  0  0  0  0  0  0  0  0  0  0  0
   47.8174    4.3206   22.8033 H   0  0  0  0  0  0  0  0  0  0  0  0
   47.7697   12.0025   17.2771 H   0  0  0  0  0  0  0  0  0  0  0  0
   48.3507    3.6415   20.4724 H   0  0  0  0  0  0  0  0  0  0  0  0
   47.1355   11.5555   21.4759 H   0  0  0  0  0  0  0  0  0  0  0  0
   47.4740    6.6832   23.3380 H   0  0  0  0  0  0  0  0  0  0  0  0
   48.2237    9.5817   17.0903 H   0  0  0  0  0  0  0  0  0  0  0  0
   48.5172    5.3583   18.7043 H   0  0  0  0  0  0  0  0  0  0  0  0
   47.6402   10.2578   22.9935 H   0  0  0  0  0  0  0  0  0  0  0  0
   47.7478    8.7094   23.5852 H   0  0  0  0  0  0  0  0  0  0  0  0
  2  1  1  0
  3  2  1  0
  4  3  1  0
  5  4  1  0
  6  5  1  0
  8  7  2  0
 10  6  1  0
 10  7  1  0
 11  8  1  0
 11  9  2  0
 12  9  1  0
 12 10  2  0
 13 11  1  0
 14 12  1  0
 17 15  2  0
 18 16  1  0
 19 15  1  0
 20 16  2  0
 21 17  1  0
 22 18  2  0
 23 19  2  0
 24 20  1  0
 25 21  2  0
 25 23  1  0
 26 22  1  0
 26 24  1  0
 27 23  1  0
 27 24  2  0
 28 27  1  0
 29 25  1  0
 29 26  2  0
  1 30  1  0
  1 31  1  0
  1 32  1  0
  2 33  1  0
  2 34  1  0
  3 35  1  0
  3 36  1  0
  4 37  1  0
  4 38  1  0
  5 39  1  0
  5 40  1  0
  6 41  1  0
  6 42  1  0
  7 43  1  0
  8 44  1  0
  9 45  1  0
 13 46  1  0
 14 47  1  0
 15 48  1  0
 16 49  1  0
 17 50  1  0
 18 51  1  0
 19 52  1  0
 20 53  1  0
 21 54  1  0
 22 55  1  0
 28 56  1  0
 28 57  1  0
M  END
> <Uni-Dock RESULT> 
ENERGY=   -5.710  LOWER_BOUND=    3.296  UPPER_BOUND=    5.307
INTER + INTRA:          -5.710
INTER:                  -5.710
INTRA:                   0.000
UNBOUND:                 0.000

$$$$

     RDKit          3D

 57 59  0  0  0  0  0  0  0  0999 V2000
   48.1628    6.3032   15.7082 C   0  0  0  0  0  0  0  0  0  0  0  0
   48.6203    7.5241   14.9248 C   0  0  0  0  0  0  0  0  0  0  0  0
   48.0339    7.5949   13.5125 C   0  0  0  0  0  0  0  0  0  0  0  0
   46.5171    7.8023   13.5008 C   0  0  0  0  0  0  0  0  0  0  0  0
   45.9469    8.0268   12.0944 C   0  0  0  0  0  0  0  0  0  0  0  0
   46.0883    6.8412   11.1309 C   0  0  0  0  0  0  0  0  0  0  0  0
   46.0133    4.5222   12.1204 C   0  0  0  0  0  0  0  0  0  0  0  0
   45.3236    3.3808   12.5317 C   0  0  0  0  0  0  0  0  0  0  0  0
   43.2375    4.3779   11.8217 C   0  0  0  0  0  0  0  0  0  0  0  0
   45.3260    5.6083   11.5566 C   0  0  0  0  0  0  0  0  0  0  0  0
   43.9443    3.3175   12.3802 C   0  0  0  0  0  0  0  0  0  0  0  0
   43.9350    5.5161   11.4134 C   0  0  0  0  0  0  0  0  0  0  0  0
   43.3145    2.1815   12.7972 O   0  0  0  0  0  0  0  0  0  0  0  0
   43.2619    6.5685   10.8565 O   0  0  0  0  0  0  0  0  0  0  0  0
   49.1184    7.6523   14.2186 C   0  0  0  0  0  0  0  0  0  0  0  0
   43.0893    4.1098   11.9409 C   0  0  0  0  0  0  0  0  0  0  0  0
   48.4148    8.8206   13.9734 C   0  0  0  0  0  0  0  0  0  0  0  0
   42.5332    5.3646   11.7514 C   0  0  0  0  0  0  0  0  0  0  0  0
   48.5295    6.4228   13.9232 C   0  0  0  0  0  0  0  0  0  0  0  0
   44.4130    4.0040   12.3680 C   0  0  0  0  0  0  0  0  0  0  0  0
   47.1248    8.7476   13.4467 C   0  0  0  0  0  0  0  0  0  0  0  0
   43.3022    6.5016   12.0026 C   0  0  0  0  0  0  0  0  0  0  0  0
   47.2235    6.3377   13.3728 C   0  0  0  0  0  0  0  0  0  0  0  0
   45.2090    5.1540   12.6118 C   0  0  0  0  0  0  0  0  0  0  0  0
   46.5155    7.5348   13.1516 C   0  0  0  0  0  0  0  0  0  0  0  0
   44.6197    6.4207   12.4353 C   0  0  0  0  0  0  0  0  0  0  0  0
   46.5725    5.1231   13.0180 C   0  0  0  0  0  0  0  0  0  0  0  0
   47.2175    3.8747   13.2525 N   0  0  0  0  0  0  0  0  0  0  0  0
   45.2655    7.5688   12.6735 N   0  0  0  0  0  0  0  0  0  0  0  0
   47.0905    6.3410   15.9209 H   0  0  0  0  0  0  0  0  0  0  0  0
   48.3746    5.3808   15.1581 H   0  0  0  0  0  0  0  0  0  0  0  0
   48.6886    6.2539   16.6672 H   0  0  0  0  0  0  0  0  0  0  0  0
   48.3659    8.4330   15.4823 H   0  0  0  0  0  0  0  0  0  0  0  0
   49.7136    7.4967   14.8454 H   0  0  0  0  0  0  0  0  0  0  0  0
   48.3001    6.6814   12.9704 H   0  0  0  0  0  0  0  0  0  0  0  0
   48.5125    8.4282   12.9833 H   0  0  0  0  0  0  0  0  0  0  0  0
   46.2767    8.6844   14.1077 H   0  0  0  0  0  0  0  0  0  0  0  0
   46.0100    6.9547   13.9732 H   0  0  0  0  0  0  0  0  0  0  0  0
   46.4429    8.8974   11.6472 H   0  0  0  0  0  0  0  0  0  0  0  0
   44.8883    8.2962   12.1943 H   0  0  0  0  0  0  0  0  0  0  0  0
   47.1469    6.5961   10.9840 H   0  0  0  0  0  0  0  0  0  0  0  0
   45.7309    7.1447   10.1382 H   0  0  0  0  0  0  0  0  0  0  0  0
   47.0927    4.5596   12.2466 H   0  0  0  0  0  0  0  0  0  0  0  0
   45.8622    2.5450   12.9693 H   0  0  0  0  0  0  0  0  0  0  0  0
   42.1619    4.3196   11.7052 H   0  0  0  0  0  0  0  0  0  0  0  0
   42.3618    2.2719   12.6340 H   0  0  0  0  0  0  0  0  0  0  0  0
   42.3151    6.3584   10.8239 H   0  0  0  0  0  0  0  0  0  0  0  0
   50.1185    7.6925   14.6416 H   0  0  0  0  0  0  0  0  0  0  0  0
   42.4986    3.2151   11.7628 H   0  0  0  0  0  0  0  0  0  0  0  0
   48.8568    9.7876   14.1975 H   0  0  0  0  0  0  0  0  0  0  0  0
   41.5037    5.4669   11.4195 H   0  0  0  0  0  0  0  0  0  0  0  0
   49.0988    5.5249   14.1444 H   0  0  0  0  0  0  0  0  0  0  0  0
   44.8139    3.0071   12.5256 H   0  0  0  0  0  0  0  0  0  0  0  0
   46.5715    9.6671   13.2679 H   0  0  0  0  0  0  0  0  0  0  0  0
   42.8572    7.4847   11.8647 H   0  0  0  0  0  0  0  0  0  0  0  0
   48.2271    3.9317   13.1732 H   0  0  0  0  0  0  0  0  0  0  0  0
   46.8653    3.1316   12.6587 H   0  0  0  0  0  0  0  0  0  0  0  0
  2  1  1  0
  3  2  1  0
  4  3  1  0
  5  4  1  0
  6  5  1  0
  8  7  2  0
 10  6  1  0
 10  7  1  0
 11  8  1  0
 11  9  2  0
 12  9  1  0
 12 10  2  0
 13 11  1  0
 14 12  1  0
 17 15  2  0
 18 16  1  0
 19 15  1  0
 20 16  2  0
 21 17  1  0
 22 18  2  0
 23 19  2  0
 24 20  1  0
 25 21  2  0
 25 23  1  0
 26 22  1  0
 26 24  1  0
 27 23  1  0
 27 24  2  0
 28 27  1  0
 29 25  1  0
 29 26  2  0
  1 30  1  0
  1 31  1  0
  1 32  1  0
  2 33  1  0
  2 34  1  0
  3 35  1  0
  3 36  1  0
  4 37  1  0
  4 38  1  0
  5 39  1  0
  5 40  1  0
  6 41  1  0
  6 42  1  0
  7 43  1  0
  8 44  1  0
  9 45  1  0
 13 46  1  0
 14 47  1  0
 15 48  1  0
 16 49  1  0
 17 50  1  0
 18 51  1  0
 19 52  1  0
 20 53  1  0
 21 54  1  0
 22 55  1  0
 28 56  1  0
 28 57  1  0
M  END
> <Uni-Dock RESULT> 
ENERGY=   -5.647  LOWER_BOUND=    5.850  UPPER_BOUND=    7.619
INTER + INTRA:          -5.647
INTER:                  -5.647
INTRA:                   0.000
UNBOUND:                 0.000

$$$$

     RDKit          3D

 57 59  0  0  0  0  0  0  0  0999 V2000
   49.6595    8.9647   23.3884 C   0  0  0  0  0  0  0  0  0  0  0  0
   48.5604    7.9808   23.0172 C   0  0  0  0  0  0  0  0  0  0  0  0
   47.4824    8.5860   22.1142 C   0  0  0  0  0  0  0  0  0  0  0  0
   48.0042    8.9655   20.7259 C   0  0  0  0  0  0  0  0  0  0  0  0
   46.8986    9.4286   19.7685 C   0  0  0  0  0  0  0  0  0  0  0  0
   46.1768   10.7203   20.1738 C   0  0  0  0  0  0  0  0  0  0  0  0
   47.5128   12.4569   21.4234 C   0  0  0  0  0  0  0  0  0  0  0  0
   48.3463   13.5756   21.4630 C   0  0  0  0  0  0  0  0  0  0  0  0
   48.3074   13.6976   19.0476 C   0  0  0  0  0  0  0  0  0  0  0  0
   47.0667   11.9410   20.1968 C   0  0  0  0  0  0  0  0  0  0  0  0
   48.7369   14.1857   20.2778 C   0  0  0  0  0  0  0  0  0  0  0  0
   47.4743   12.5779   19.0171 C   0  0  0  0  0  0  0  0  0  0  0  0
   49.5521   15.2759   20.3673 O   0  0  0  0  0  0  0  0  0  0  0  0
   47.0350   12.0840   17.8197 O   0  0  0  0  0  0  0  0  0  0  0  0
   47.7083    7.9119   23.1970 C   0  0  0  0  0  0  0  0  0  0  0  0
   48.5185   13.9481   19.0747 C   0  0  0  0  0  0  0  0  0  0  0  0
   47.5438    7.2282   22.0031 C   0  0  0  0  0  0  0  0  0  0  0  0
   48.3342   13.1169   17.9816 C   0  0  0  0  0  0  0  0  0  0  0  0
   47.8762    9.2965   23.1764 C   0  0  0  0  0  0  0  0  0  0  0  0
   48.4293   13.4179   20.3618 C   0  0  0  0  0  0  0  0  0  0  0  0
   47.5611    7.9340   20.7996 C   0  0  0  0  0  0  0  0  0  0  0  0
   48.0748   11.7611   18.1859 C   0  0  0  0  0  0  0  0  0  0  0  0
   47.8800   10.0263   21.9587 C   0  0  0  0  0  0  0  0  0  0  0  0
   48.1508   12.0432   20.5812 C   0  0  0  0  0  0  0  0  0  0  0  0
   47.7340    9.3114   20.7541 C   0  0  0  0  0  0  0  0  0  0  0  0
   47.9887   11.2096   19.4579 C   0  0  0  0  0  0  0  0  0  0  0  0
   48.0145   11.4397   21.8627 C   0  0  0  0  0  0  0  0  0  0  0  0
   48.2054   12.2183   23.0404 N   0  0  0  0  0  0  0  0  0  0  0  0
   47.7617    9.8935   19.5489 N   0  0  0  0  0  0  0  0  0  0  0  0
   50.2486    9.2573   22.5144 H   0  0  0  0  0  0  0  0  0  0  0  0
   49.2413    9.8685   23.8427 H   0  0  0  0  0  0  0  0  0  0  0  0
   50.3438    8.5080   24.1106 H   0  0  0  0  0  0  0  0  0  0  0  0
   49.0036    7.1021   22.5345 H   0  0  0  0  0  0  0  0  0  0  0  0
   48.0829    7.6288   23.9393 H   0  0  0  0  0  0  0  0  0  0  0  0
   47.0495    9.4595   22.6130 H   0  0  0  0  0  0  0  0  0  0  0  0
   46.6749    7.8517   22.0040 H   0  0  0  0  0  0  0  0  0  0  0  0
   48.4919    8.0892   20.2803 H   0  0  0  0  0  0  0  0  0  0  0  0
   48.7733    9.7409   20.8034 H   0  0  0  0  0  0  0  0  0  0  0  0
   46.1526    8.6291   19.6777 H   0  0  0  0  0  0  0  0  0  0  0  0
   47.3393    9.5500   18.7714 H   0  0  0  0  0  0  0  0  0  0  0  0
   45.6890   10.5927   21.1475 H   0  0  0  0  0  0  0  0  0  0  0  0
   45.3540   10.9039   19.4705 H   0  0  0  0  0  0  0  0  0  0  0  0
   47.2163   11.9876   22.3584 H   0  0  0  0  0  0  0  0  0  0  0  0
   48.6894   13.9679   22.4161 H   0  0  0  0  0  0  0  0  0  0  0  0
   48.6150   14.1807   18.1279 H   0  0  0  0  0  0  0  0  0  0  0  0
   49.7451   15.5989   19.4725 H   0  0  0  0  0  0  0  0  0  0  0  0
   47.3973   12.6255   17.1006 H   0  0  0  0  0  0  0  0  0  0  0  0
   47.7111    7.3743   24.1414 H   0  0  0  0  0  0  0  0  0  0  0  0
   48.7352   15.0034   18.9313 H   0  0  0  0  0  0  0  0  0  0  0  0
   47.4122    6.1496   21.9992 H   0  0  0  0  0  0  0  0  0  0  0  0
   48.4003   13.5116   16.9715 H   0  0  0  0  0  0  0  0  0  0  0  0
   48.0217    9.8009   24.1271 H   0  0  0  0  0  0  0  0  0  0  0  0
   48.5976   14.0911   21.1972 H   0  0  0  0  0  0  0  0  0  0  0  0
   47.4444    7.3911   19.8640 H   0  0  0  0  0  0  0  0  0  0  0  0
   47.9435   11.1099   17.3244 H   0  0  0  0  0  0  0  0  0  0  0  0
   47.7445   11.8232   23.8530 H   0  0  0  0  0  0  0  0  0  0  0  0
   47.9274   13.1866   22.9219 H   0  0  0  0  0  0  0  0  0  0  0  0
  2  1  1  0
  3  2  1  0
  4  3  1  0
  5  4  1  0
  6  5  1  0
  8  7  2  0
 10  6  1  0
 10  7  1  0
 11  8  1  0
 11  9  2  0
 12  9  1  0
 12 10  2  0
 13 11  1  0
 14 12  1  0
 17 15  2  0
 18 16  1  0
 19 15  1  0
 20 16  2  0
 21 17  1  0
 22 18  2  0
 23 19  2  0
 24 20  1  0
 25 21  2  0
 25 23  1  0
 26 22  1  0
 26 24  1  0
 27 23  1  0
 27 24  2  0
 28 27  1  0
 29 25  1  0
 29 26  2  0
  1 30  1  0
  1 31  1  0
  1 32  1  0
  2 33  1  0
  2 34  1  0
  3 35  1  0
  3 36  1  0
  4 37  1  0
  4 38  1  0
  5 39  1  0
  5 40  1  0
  6 41  1  0
  6 42  1  0
  7 43  1  0
  8 44  1  0
  9 45  1  0
 13 46  1  0
 14 47  1  0
 15 48  1  0
 16 49  1  0
 17 50  1  0
 18 51  1  0
 19 52  1  0
 20 53  1  0
 21 54  1  0
 22 55  1  0
 28 56  1  0
 28 57  1  0
M  END
> <Uni-Dock RESULT> 
ENERGY=   -5.410  LOWER_BOUND=    5.262  UPPER_BOUND=    7.781
INTER + INTRA:          -5.410
INTER:                  -5.410
INTRA:                   0.000
UNBOUND:                 0.000

$$$$

     RDKit          3D

 57 59  0  0  0  0  0  0  0  0999 V2000
   49.7374   10.9412   10.7373 C   0  0  0  0  0  0  0  0  0  0  0  0
   50.6937   10.2461   11.6945 C   0  0  0  0  0  0  0  0  0  0  0  0
   49.9973    9.2741   12.6504 C   0  0  0  0  0  0  0  0  0  0  0  0
   49.3820    8.0669   11.9378 C   0  0  0  0  0  0  0  0  0  0  0  0
   48.8182    7.0160   12.9026 C   0  0  0  0  0  0  0  0  0  0  0  0
   47.6371    7.4813   13.7643 C   0  0  0  0  0  0  0  0  0  0  0  0
   46.0678    9.1847   12.7654 C   0  0  0  0  0  0  0  0  0  0  0  0
   44.9368    9.5318   12.0252 C   0  0  0  0  0  0  0  0  0  0  0  0
   44.4354    7.1905   11.6819 C   0  0  0  0  0  0  0  0  0  0  0  0
   46.4006    7.8370   12.9727 C   0  0  0  0  0  0  0  0  0  0  0  0
   44.1313    8.5346   11.4898 C   0  0  0  0  0  0  0  0  0  0  0  0
   45.5689    6.8521   12.4232 C   0  0  0  0  0  0  0  0  0  0  0  0
   43.0371    8.9230   10.7737 O   0  0  0  0  0  0  0  0  0  0  0  0
   45.8844    5.5374   12.6298 O   0  0  0  0  0  0  0  0  0  0  0  0
   50.8246   10.2665   12.5581 C   0  0  0  0  0  0  0  0  0  0  0  0
   44.1841    7.2901   11.4949 C   0  0  0  0  0  0  0  0  0  0  0  0
   51.3168    8.9735   12.4821 C   0  0  0  0  0  0  0  0  0  0  0  0
   44.8385    6.0699   11.4450 C   0  0  0  0  0  0  0  0  0  0  0  0
   49.4486   10.4818   12.4811 C   0  0  0  0  0  0  0  0  0  0  0  0
   44.9145    8.4496   11.7553 C   0  0  0  0  0  0  0  0  0  0  0  0
   50.4292    7.9094   12.3177 C   0  0  0  0  0  0  0  0  0  0  0  0
   46.2189    6.0224   11.6436 C   0  0  0  0  0  0  0  0  0  0  0  0
   48.5356    9.4052   12.3292 C   0  0  0  0  0  0  0  0  0  0  0  0
   46.3168    8.4107   11.9739 C   0  0  0  0  0  0  0  0  0  0  0  0
   49.0560    8.1003   12.2313 C   0  0  0  0  0  0  0  0  0  0  0  0
   46.9678    7.1644   11.8971 C   0  0  0  0  0  0  0  0  0  0  0  0
   47.1206    9.5457   12.2749 C   0  0  0  0  0  0  0  0  0  0  0  0
   46.5312   10.8416   12.3285 N   0  0  0  0  0  0  0  0  0  0  0  0
   48.2898    7.0179   12.0481 N   0  0  0  0  0  0  0  0  0  0  0  0
   49.2865   10.2335   10.0357 H   0  0  0  0  0  0  0  0  0  0  0  0
   48.9346   11.4478   11.2823 H   0  0  0  0  0  0  0  0  0  0  0  0
   50.2747   11.6926   10.1497 H   0  0  0  0  0  0  0  0  0  0  0  0
   51.4662    9.7199   11.1220 H   0  0  0  0  0  0  0  0  0  0  0  0
   51.2063   11.0108   12.2902 H   0  0  0  0  0  0  0  0  0  0  0  0
   49.2320    9.8171   13.2150 H   0  0  0  0  0  0  0  0  0  0  0  0
   50.7368    8.9200   13.3791 H   0  0  0  0  0  0  0  0  0  0  0  0
   50.1561    7.5847   11.3276 H   0  0  0  0  0  0  0  0  0  0  0  0
   48.5981    8.3888   11.2444 H   0  0  0  0  0  0  0  0  0  0  0  0
   49.6227    6.6815   13.5696 H   0  0  0  0  0  0  0  0  0  0  0  0
   48.5227    6.1376   12.3159 H   0  0  0  0  0  0  0  0  0  0  0  0
   47.9369    8.3280   14.3933 H   0  0  0  0  0  0  0  0  0  0  0  0
   47.3779    6.6840   14.4733 H   0  0  0  0  0  0  0  0  0  0  0  0
   46.6908    9.9750   13.1772 H   0  0  0  0  0  0  0  0  0  0  0  0
   44.6867   10.5770   11.8671 H   0  0  0  0  0  0  0  0  0  0  0  0
   43.8008    6.4190   11.2626 H   0  0  0  0  0  0  0  0  0  0  0  0
   42.5689    8.1323   10.4607 H   0  0  0  0  0  0  0  0  0  0  0  0
   45.2216    4.9793   12.1929 H   0  0  0  0  0  0  0  0  0  0  0  0
   51.5045   11.1066   12.6720 H   0  0  0  0  0  0  0  0  0  0  0  0
   43.1115    7.3448   11.3284 H   0  0  0  0  0  0  0  0  0  0  0  0
   52.3856    8.7861   12.5396 H   0  0  0  0  0  0  0  0  0  0  0  0
   44.2864    5.1561   11.2432 H   0  0  0  0  0  0  0  0  0  0  0  0
   49.0956   11.5078   12.5246 H   0  0  0  0  0  0  0  0  0  0  0  0
   44.3759    9.3925   11.7690 H   0  0  0  0  0  0  0  0  0  0  0  0
   50.8213    6.8972   12.2457 H   0  0  0  0  0  0  0  0  0  0  0  0
   46.7302    5.0636   11.5908 H   0  0  0  0  0  0  0  0  0  0  0  0
   47.0683   11.4960   12.8873 H   0  0  0  0  0  0  0  0  0  0  0  0
   45.5684   10.8237   12.6472 H   0  0  0  0  0  0  0  0  0  0  0  0
  2  1  1  0
  3  2  1  0
  4  3  1  0
  5  4  1  0
  6  5  1  0
  8  7  2  0
 10  6  1  0
 10  7  1  0
 11  8  1  0
 11  9  2  0
 12  9  1  0
 12 10  2  0
 13 11  1  0
 14 12  1  0
 17 15  2  0
 18 16  1  0
 19 15  1  0
 20 16  2  0
 21 17  1  0
 22 18  2  0
 23 19  2  0
 24 20  1  0
 25 21  2  0
 25 23  1  0
 26 22  1  0
 26 24  1  0
 27 23  1  0
 27 24  2  0
 28 27  1  0
 29 25  1  0
 29 26  2  0
  1 30  1  0
  1 31  1  0
  1 32  1  0
  2 33  1  0
  2 34  1  0
  3 35  1  0
  3 36  1  0
  4 37  1  0
  4 38  1  0
  5 39  1  0
  5 40  1  0
  6 41  1  0
  6 42  1  0
  7 43  1  0
  8 44  1  0
  9 45  1  0
 13 46  1  0
 14 47  1  0
 15 48  1  0
 16 49  1  0
 17 50  1  0
 18 51  1  0
 19 52  1  0
 20 53  1  0
 21 54  1  0
 22 55  1  0
 28 56  1  0
 28 57  1  0
M  END
> <Uni-Dock RESULT> 
ENERGY=   -5.409  LOWER_BOUND=    6.898  UPPER_BOUND=    8.912
INTER + INTRA:          -5.409
INTER:                  -5.409
INTRA:                   0.000
UNBOUND:                 0.000

$$$$

     RDKit          3D

 57 59  0  0  0  0  0  0  0  0999 V2000
   48.4512    6.9931   16.7660 C   0  0  0  0  0  0  0  0  0  0  0  0
   49.3451    7.9448   15.9856 C   0  0  0  0  0  0  0  0  0  0  0  0
   49.0946    7.9136   14.4756 C   0  0  0  0  0  0  0  0  0  0  0  0
   47.7109    8.4391   14.0846 C   0  0  0  0  0  0  0  0  0  0  0  0
   47.5122    8.5533   12.5678 C   0  0  0  0  0  0  0  0  0  0  0  0
   47.5503    7.2266   11.7982 C   0  0  0  0  0  0  0  0  0  0  0  0
   46.7063    5.1677   12.9860 C   0  0  0  0  0  0  0  0  0  0  0  0
   45.6878    4.2832   13.3438 C   0  0  0  0  0  0  0  0  0  0  0  0
   44.1014    5.5806   12.0590 C   0  0  0  0  0  0  0  0  0  0  0  0
   46.4375    6.2720   12.1625 C   0  0  0  0  0  0  0  0  0  0  0  0
   44.3961    4.4960   12.8792 C   0  0  0  0  0  0  0  0  0  0  0  0
   45.1260    6.4608   11.7064 C   0  0  0  0  0  0  0  0  0  0  0  0
   43.4345    3.6047   13.2560 O   0  0  0  0  0  0  0  0  0  0  0  0
   44.8610    7.5307   10.8966 O   0  0  0  0  0  0  0  0  0  0  0  0
   49.9924    7.8475   15.4069 C   0  0  0  0  0  0  0  0  0  0  0  0
   43.8707    5.3735   12.1682 C   0  0  0  0  0  0  0  0  0  0  0  0
   49.6636    9.0855   14.8786 C   0  0  0  0  0  0  0  0  0  0  0  0
   43.6916    6.6719   11.7189 C   0  0  0  0  0  0  0  0  0  0  0  0
   49.1916    6.7432   15.1154 C   0  0  0  0  0  0  0  0  0  0  0  0
   45.0119    5.0540   12.9039 C   0  0  0  0  0  0  0  0  0  0  0  0
   48.5306    9.2097   14.0737 C   0  0  0  0  0  0  0  0  0  0  0  0
   44.6493    7.6410   12.0203 C   0  0  0  0  0  0  0  0  0  0  0  0
   48.0453    6.8553   14.2853 C   0  0  0  0  0  0  0  0  0  0  0  0
   45.9998    6.0287   13.2031 C   0  0  0  0  0  0  0  0  0  0  0  0
   47.7145    8.1259   13.7758 C   0  0  0  0  0  0  0  0  0  0  0  0
   45.7895    7.3478   12.7573 C   0  0  0  0  0  0  0  0  0  0  0  0
   47.2014    5.7694   13.9200 C   0  0  0  0  0  0  0  0  0  0  0  0
   47.4572    4.4651   14.4330 N   0  0  0  0  0  0  0  0  0  0  0  0
   46.6359    8.3522   13.0159 N   0  0  0  0  0  0  0  0  0  0  0  0
   47.4012    7.2953   16.7146 H   0  0  0  0  0  0  0  0  0  0  0  0
   48.5366    5.9709   16.3838 H   0  0  0  0  0  0  0  0  0  0  0  0
   48.7419    6.9856   17.8214 H   0  0  0  0  0  0  0  0  0  0  0  0
   49.2145    8.9644   16.3661 H   0  0  0  0  0  0  0  0  0  0  0  0
   50.3905    7.6694   16.1694 H   0  0  0  0  0  0  0  0  0  0  0  0
   49.2321    6.8894   14.1132 H   0  0  0  0  0  0  0  0  0  0  0  0
   49.8611    8.5279   13.9875 H   0  0  0  0  0  0  0  0  0  0  0  0
   47.5768    9.4378   14.5191 H   0  0  0  0  0  0  0  0  0  0  0  0
   46.9252    7.8080   14.5127 H   0  0  0  0  0  0  0  0  0  0  0  0
   48.2878    9.2131   12.1589 H   0  0  0  0  0  0  0  0  0  0  0  0
   46.5552    9.0575   12.3858 H   0  0  0  0  0  0  0  0  0  0  0  0
   48.5229    6.7383   11.9320 H   0  0  0  0  0  0  0  0  0  0  0  0
   47.4886    7.4372   10.7224 H   0  0  0  0  0  0  0  0  0  0  0  0
   47.7126    4.9907   13.3582 H   0  0  0  0  0  0  0  0  0  0  0  0
   45.9030    3.4319   13.9833 H   0  0  0  0  0  0  0  0  0  0  0  0
   43.0916    5.7382   11.6994 H   0  0  0  0  0  0  0  0  0  0  0  0
   42.5873    3.8714   12.8642 H   0  0  0  0  0  0  0  0  0  0  0  0
   43.9187    7.5277   10.6646 H   0  0  0  0  0  0  0  0  0  0  0  0
   50.8639    7.7379   16.0468 H   0  0  0  0  0  0  0  0  0  0  0  0
   43.1267    4.6109   11.9533 H   0  0  0  0  0  0  0  0  0  0  0  0
   50.2751    9.9573   15.0950 H   0  0  0  0  0  0  0  0  0  0  0  0
   42.8089    6.9397   11.1447 H   0  0  0  0  0  0  0  0  0  0  0  0
   49.4648    5.7909   15.5599 H   0  0  0  0  0  0  0  0  0  0  0  0
   45.1140    4.0324   13.2580 H   0  0  0  0  0  0  0  0  0  0  0  0
   48.2693   10.1862   13.6716 H   0  0  0  0  0  0  0  0  0  0  0  0
   44.4979    8.6620   11.6763 H   0  0  0  0  0  0  0  0  0  0  0  0
   48.4440    4.2892   14.5881 H   0  0  0  0  0  0  0  0  0  0  0  0
   47.0613    3.7304   13.8565 H   0  0  0  0  0  0  0  0  0  0  0  0
  2  1  1  0
  3  2  1  0
  4  3  1  0
  5  4  1  0
  6  5  1  0
  8  7  2  0
 10  6  1  0
 10  7  1  0
 11  8  1  0
 11  9  2  0
 12  9  1  0
 12 10  2  0
 13 11  1  0
 14 12  1  0
 17 15  2  0
 18 16  1  0
 19 15  1  0
 20 16  2  0
 21 17  1  0
 22 18  2  0
 23 19  2  0
 24 20  1  0
 25 21  2  0
 25 23  1  0
 26 22  1  0
 26 24  1  0
 27 23  1  0
 27 24  2  0
 28 27  1  0
 29 25  1  0
 29 26  2  0
  1 30  1  0
  1 31  1  0
  1 32  1  0
  2 33  1  0
  2 34  1  0
  3 35  1  0
  3 36  1  0
  4 37  1  0
  4 38  1  0
  5 39  1  0
  5 40  1  0
  6 41  1  0
  6 42  1  0
  7 43  1  0
  8 44  1  0
  9 45  1  0
 13 46  1  0
 14 47  1  0
 15 48  1  0
 16 49  1  0
 17 50  1  0
 18 51  1  0
 19 52  1  0
 20 53  1  0
 21 54  1  0
 22 55  1  0
 28 56  1  0
 28 57  1  0
M  END
> <Uni-Dock RESULT> 
ENERGY=   -5.239  LOWER_BOUND=    5.316  UPPER_BOUND=    6.981
INTER + INTRA:          -5.239
INTER:                  -5.239
INTRA:                   0.000
UNBOUND:                 0.000

$$$$

     RDKit          3D

 57 59  0  0  0  0  0  0  0  0999 V2000
   49.8119   12.0484   17.1057 C   0  0  0  0  0  0  0  0  0  0  0  0
   48.8765   13.1828   17.4953 C   0  0  0  0  0  0  0  0  0  0  0  0
   47.7236   12.7370   18.3985 C   0  0  0  0  0  0  0  0  0  0  0  0
   48.1885   12.2660   19.7789 C   0  0  0  0  0  0  0  0  0  0  0  0
   47.0302   11.9641   20.7383 C   0  0  0  0  0  0  0  0  0  0  0  0
   46.1189   10.8016   20.3233 C   0  0  0  0  0  0  0  0  0  0  0  0
   47.1702    8.8980   19.0452 C   0  0  0  0  0  0  0  0  0  0  0  0
   47.8242    7.6666   18.9874 C   0  0  0  0  0  0  0  0  0  0  0  0
   47.7790    7.5224   21.4014 C   0  0  0  0  0  0  0  0  0  0  0  0
   46.8133    9.4606   20.2805 C   0  0  0  0  0  0  0  0  0  0  0  0
   48.1235    6.9899   20.1630 C   0  0  0  0  0  0  0  0  0  0  0  0
   47.1254    8.7549   21.4502 C   0  0  0  0  0  0  0  0  0  0  0  0
   48.7637    5.7900   20.0557 O   0  0  0  0  0  0  0  0  0  0  0  0
   46.7719    9.2951   22.6561 O   0  0  0  0  0  0  0  0  0  0  0  0
   48.0437   13.3823   17.3219 C   0  0  0  0  0  0  0  0  0  0  0  0
   47.9496    7.2432   21.3702 C   0  0  0  0  0  0  0  0  0  0  0  0
   47.9907   14.0684   18.5245 C   0  0  0  0  0  0  0  0  0  0  0  0
   47.8988    8.0793   22.4738 C   0  0  0  0  0  0  0  0  0  0  0  0
   47.9999   11.9880   17.3257 C   0  0  0  0  0  0  0  0  0  0  0  0
   47.9356    7.7964   20.0897 C   0  0  0  0  0  0  0  0  0  0  0  0
   47.9066   13.3535   19.7199 C   0  0  0  0  0  0  0  0  0  0  0  0
   47.8469    9.4611   22.2866 C   0  0  0  0  0  0  0  0  0  0  0  0
   47.8990   11.2513   18.5351 C   0  0  0  0  0  0  0  0  0  0  0  0
   47.8676    9.2000   19.8878 C   0  0  0  0  0  0  0  0  0  0  0  0
   47.8689   11.9653   19.7486 C   0  0  0  0  0  0  0  0  0  0  0  0
   47.8392   10.0347   21.0215 C   0  0  0  0  0  0  0  0  0  0  0  0
   47.8181    9.8328   18.6141 C   0  0  0  0  0  0  0  0  0  0  0  0
   47.8830    9.0487   17.4265 N   0  0  0  0  0  0  0  0  0  0  0  0
   47.8139   11.3711   20.9469 N   0  0  0  0  0  0  0  0  0  0  0  0
   50.3540   11.6592   17.9724 H   0  0  0  0  0  0  0  0  0  0  0  0
   49.2593   11.2240   16.6440 H   0  0  0  0  0  0  0  0  0  0  0  0
   50.5540   12.4049   16.3842 H   0  0  0  0  0  0  0  0  0  0  0  0
   49.4501   13.9782   17.9849 H   0  0  0  0  0  0  0  0  0  0  0  0
   48.4533   13.6144   16.5804 H   0  0  0  0  0  0  0  0  0  0  0  0
   47.1609   11.9453   17.8927 H   0  0  0  0  0  0  0  0  0  0  0  0
   47.0372   13.5838   18.5224 H   0  0  0  0  0  0  0  0  0  0  0  0
   48.8056   13.0526   20.2311 H   0  0  0  0  0  0  0  0  0  0  0  0
   48.8308   11.3839   19.6875 H   0  0  0  0  0  0  0  0  0  0  0  0
   46.4145   12.8662   20.8432 H   0  0  0  0  0  0  0  0  0  0  0  0
   47.4522   11.7651   21.7310 H   0  0  0  0  0  0  0  0  0  0  0  0
   45.6514   11.0136   19.3544 H   0  0  0  0  0  0  0  0  0  0  0  0
   45.2812   10.7363   21.0299 H   0  0  0  0  0  0  0  0  0  0  0  0
   46.9437    9.4182   18.1176 H   0  0  0  0  0  0  0  0  0  0  0  0
   48.0992    7.2384   18.0277 H   0  0  0  0  0  0  0  0  0  0  0  0
   48.0143    6.9870   22.3136 H   0  0  0  0  0  0  0  0  0  0  0  0
   48.9098    5.4305   20.9455 H   0  0  0  0  0  0  0  0  0  0  0  0
   47.0514    8.6961   23.3666 H   0  0  0  0  0  0  0  0  0  0  0  0
   48.1235   13.9248   16.3837 H   0  0  0  0  0  0  0  0  0  0  0  0
   48.0044    6.1655   21.5002 H   0  0  0  0  0  0  0  0  0  0  0  0
   48.0241   15.1544   18.5416 H   0  0  0  0  0  0  0  0  0  0  0  0
   47.9091    7.6668   23.4789 H   0  0  0  0  0  0  0  0  0  0  0  0
   48.0627   11.4790   16.3685 H   0  0  0  0  0  0  0  0  0  0  0  0
   47.9957    7.1157   19.2456 H   0  0  0  0  0  0  0  0  0  0  0  0
   47.8781   13.8963   20.6623 H   0  0  0  0  0  0  0  0  0  0  0  0
   47.8200   10.1141   23.1563 H   0  0  0  0  0  0  0  0  0  0  0  0
   47.4834    9.5189   16.6215 H   0  0  0  0  0  0  0  0  0  0  0  0
   47.4621    8.1323   17.5359 H   0  0  0  0  0  0  0  0  0  0  0  0
  2  1  1  0
  3  2  1  0
  4  3  1  0
  5  4  1  0
  6  5  1  0
  8  7  2  0
 10  6  1  0
 10  7  1  0
 11  8  1  0
 11  9  2  0
 12  9  1  0
 12 10  2  0
 13 11  1  0
 14 12  1  0
 17 15  2  0
 18 16  1  0
 19 15  1  0
 20 16  2  0
 21 17  1  0
 22 18  2  0
 23 19  2  0
 24 20  1  0
 25 21  2  0
 25 23  1  0
 26 22  1  0
 26 24  1  0
 27 23  1  0
 27 24  2  0
 28 27  1  0
 29 25  1  0
 29 26  2  0
  1 30  1  0
  1 31  1  0
  1 32  1  0
  2 33  1  0
  2 34  1  0
  3 35  1  0
  3 36  1  0
  4 37  1  0
  4 38  1  0
  5 39  1  0
  5 40  1  0
  6 41  1  0
  6 42  1  0
  7 43  1  0
  8 44  1  0
  9 45  1  0
 13 46  1  0
 14 47  1  0
 15 48  1  0
 16 49  1  0
 17 50  1  0
 18 51  1  0
 19 52  1  0
 20 53  1  0
 21 54  1  0
 22 55  1  0
 28 56  1  0
 28 57  1  0
M  END
> <Uni-Dock RESULT> 
ENERGY=   -5.142  LOWER_BOUND=    4.656  UPPER_BOUND=    6.674
INTER + INTRA:          -5.142
INTER:                  -5.142
INTRA:                   0.000
UNBOUND:                 0.000

$$$$

     RDKit          3D

 57 59  0  0  0  0  0  0  0  0999 V2000
   48.0813   10.8625   18.4404 C   0  0  0  0  0  0  0  0  0  0  0  0
   47.4638   11.6998   19.5500 C   0  0  0  0  0  0  0  0  0  0  0  0
   47.1181   10.8898   20.8022 C   0  0  0  0  0  0  0  0  0  0  0  0
   48.3518   10.3346   21.5188 C   0  0  0  0  0  0  0  0  0  0  0  0
   48.0224    9.6542   22.8537 C   0  0  0  0  0  0  0  0  0  0  0  0
   47.1508    8.3956   22.7524 C   0  0  0  0  0  0  0  0  0  0  0  0
   47.4018    6.9695   20.6871 C   0  0  0  0  0  0  0  0  0  0  0  0
   48.0001    5.9297   19.9741 C   0  0  0  0  0  0  0  0  0  0  0  0
   49.4106    5.4301   21.8744 C   0  0  0  0  0  0  0  0  0  0  0  0
   47.8001    7.2565   22.0020 C   0  0  0  0  0  0  0  0  0  0  0  0
   48.9980    5.1700   20.5714 C   0  0  0  0  0  0  0  0  0  0  0  0
   48.8073    6.4724   22.5803 C   0  0  0  0  0  0  0  0  0  0  0  0
   49.5529    4.1648   19.8347 O   0  0  0  0  0  0  0  0  0  0  0  0
   49.1927    6.7428   23.8645 O   0  0  0  0  0  0  0  0  0  0  0  0
   46.6772   11.7382   19.9283 C   0  0  0  0  0  0  0  0  0  0  0  0
   49.5534    5.2018   21.6859 C   0  0  0  0  0  0  0  0  0  0  0  0
   47.2880   12.2147   21.0771 C   0  0  0  0  0  0  0  0  0  0  0  0
   50.0937    5.8380   22.7918 C   0  0  0  0  0  0  0  0  0  0  0  0
   46.7687   10.3819   19.6156 C   0  0  0  0  0  0  0  0  0  0  0  0
   48.7323    5.9189   20.8156 C   0  0  0  0  0  0  0  0  0  0  0  0
   47.9944   11.3327   21.8956 C   0  0  0  0  0  0  0  0  0  0  0  0
   49.8179    7.1884   23.0100 C   0  0  0  0  0  0  0  0  0  0  0  0
   47.4719    9.4730   20.4492 C   0  0  0  0  0  0  0  0  0  0  0  0
   48.4329    7.2890   21.0365 C   0  0  0  0  0  0  0  0  0  0  0  0
   48.1050    9.9798   21.6006 C   0  0  0  0  0  0  0  0  0  0  0  0
   49.0093    7.9243   22.1533 C   0  0  0  0  0  0  0  0  0  0  0  0
   47.5806    8.0744   20.2109 C   0  0  0  0  0  0  0  0  0  0  0  0
   46.9968    7.5036   19.0434 N   0  0  0  0  0  0  0  0  0  0  0  0
   48.8257    9.2202   22.4346 N   0  0  0  0  0  0  0  0  0  0  0  0
   49.0642   10.4776   18.7272 H   0  0  0  0  0  0  0  0  0  0  0  0
   47.4387   10.0144   18.1836 H   0  0  0  0  0  0  0  0  0  0  0  0
   48.2143   11.4714   17.5404 H   0  0  0  0  0  0  0  0  0  0  0  0
   48.1424   12.5205   19.8100 H   0  0  0  0  0  0  0  0  0  0  0  0
   46.5436   12.1583   19.1686 H   0  0  0  0  0  0  0  0  0  0  0  0
   46.4384   10.0775   20.5242 H   0  0  0  0  0  0  0  0  0  0  0  0
   46.5676   11.5416   21.4917 H   0  0  0  0  0  0  0  0  0  0  0  0
   49.0437   11.1616   21.7227 H   0  0  0  0  0  0  0  0  0  0  0  0
   48.8896    9.6346   20.8712 H   0  0  0  0  0  0  0  0  0  0  0  0
   47.5121   10.3775   23.5020 H   0  0  0  0  0  0  0  0  0  0  0  0
   48.9672    9.4089   23.3540 H   0  0  0  0  0  0  0  0  0  0  0  0
   46.1826    8.6403   22.2996 H   0  0  0  0  0  0  0  0  0  0  0  0
   46.9066    8.0494   23.7653 H   0  0  0  0  0  0  0  0  0  0  0  0
   46.6234    7.5578   20.2071 H   0  0  0  0  0  0  0  0  0  0  0  0
   47.6881    5.7149   18.9560 H   0  0  0  0  0  0  0  0  0  0  0  0
   50.1882    4.8314   22.3336 H   0  0  0  0  0  0  0  0  0  0  0  0
   50.2303    3.7200   20.3692 H   0  0  0  0  0  0  0  0  0  0  0  0
   49.8916    6.1214   24.1238 H   0  0  0  0  0  0  0  0  0  0  0  0
   46.1354   12.4155   19.2736 H   0  0  0  0  0  0  0  0  0  0  0  0
   49.7704    4.1541   21.4950 H   0  0  0  0  0  0  0  0  0  0  0  0
   47.2281   13.2681   21.3370 H   0  0  0  0  0  0  0  0  0  0  0  0
   50.7358    5.2959   23.4806 H   0  0  0  0  0  0  0  0  0  0  0  0
   46.2956   10.0429   18.6987 H   0  0  0  0  0  0  0  0  0  0  0  0
   48.3397    5.3972   19.9478 H   0  0  0  0  0  0  0  0  0  0  0  0
   48.4831   11.7138   22.7898 H   0  0  0  0  0  0  0  0  0  0  0  0
   50.2549    7.6869   23.8726 H   0  0  0  0  0  0  0  0  0  0  0  0
   46.1573    7.9885   18.7452 H   0  0  0  0  0  0  0  0  0  0  0  0
   46.8069    6.5122   19.1423 H   0  0  0  0  0  0  0  0  0  0  0  0
  2  1  1  0
  3  2  1  0
  4  3  1  0
  5  4  1  0
  6  5  1  0
  8  7  2  0
 10  6  1  0
 10  7  1  0
 11  8  1  0
 11  9  2  0
 12  9  1  0
 12 10  2  0
 13 11  1  0
 14 12  1  0
 17 15  2  0
 18 16  1  0
 19 15  1  0
 20 16  2  0
 21 17  1  0
 22 18  2  0
 23 19  2  0
 24 20  1  0
 25 21  2  0
 25 23  1  0
 26 22  1  0
 26 24  1  0
 27 23  1  0
 27 24  2  0
 28 27  1  0
 29 25  1  0
 29 26  2  0
  1 30  1  0
  1 31  1  0
  1 32  1  0
  2 33  1  0
  2 34  1  0
  3 35  1  0
  3 36  1  0
  4 37  1  0
  4 38  1  0
  5 39  1  0
  5 40  1  0
  6 41  1  0
  6 42  1  0
  7 43  1  0
  8 44  1  0
  9 45  1  0
 13 46  1  0
 14 47  1  0
 15 48  1  0
 16 49  1  0
 17 50  1  0
 18 51  1  0
 19 52  1  0
 20 53  1  0
 21 54  1  0
 22 55  1  0
 28 56  1  0
 28 57  1  0
M  END
> <Uni-Dock RESULT> 
ENERGY=   -5.058  LOWER_BOUND=    3.175  UPPER_BOUND=    5.428
INTER + INTRA:          -5.058
INTER:                  -5.058
INTRA:                   0.000
UNBOUND:                 0.000

$$$$

     RDKit          3D

 57 59  0  0  0  0  0  0  0  0999 V2000
   47.2834    5.2525   21.5351 C   0  0  0  0  0  0  0  0  0  0  0  0
   47.6211    5.6750   22.9568 C   0  0  0  0  0  0  0  0  0  0  0  0
   48.1980    7.0900   23.0498 C   0  0  0  0  0  0  0  0  0  0  0  0
   47.1914    8.1765   22.6625 C   0  0  0  0  0  0  0  0  0  0  0  0
   47.7138    9.5992   22.8999 C   0  0  0  0  0  0  0  0  0  0  0  0
   48.9250   10.0050   22.0500 C   0  0  0  0  0  0  0  0  0  0  0  0
   49.1129    9.0074   19.7409 C   0  0  0  0  0  0  0  0  0  0  0  0
   48.8557    9.0205   18.3693 C   0  0  0  0  0  0  0  0  0  0  0  0
   47.6660   11.1131   18.6063 C   0  0  0  0  0  0  0  0  0  0  0  0
   48.6491   10.0444   20.5652 C   0  0  0  0  0  0  0  0  0  0  0  0
   48.1355   10.0704   17.8137 C   0  0  0  0  0  0  0  0  0  0  0  0
   47.9274   11.0919   19.9775 C   0  0  0  0  0  0  0  0  0  0  0  0
   47.9090   10.0390   16.4688 O   0  0  0  0  0  0  0  0  0  0  0  0
   47.4807   12.1091   20.7753 O   0  0  0  0  0  0  0  0  0  0  0  0
   48.3599    5.8503   23.3888 C   0  0  0  0  0  0  0  0  0  0  0  0
   47.5987   11.0907   18.2854 C   0  0  0  0  0  0  0  0  0  0  0  0
   47.6360    6.6853   24.2246 C   0  0  0  0  0  0  0  0  0  0  0  0
   46.8934   11.7976   19.2459 C   0  0  0  0  0  0  0  0  0  0  0  0
   48.6823    6.2808   22.1017 C   0  0  0  0  0  0  0  0  0  0  0  0
   48.1627    9.8588   18.6172 C   0  0  0  0  0  0  0  0  0  0  0  0
   47.2310    7.9376   23.7612 C   0  0  0  0  0  0  0  0  0  0  0  0
   46.7483   11.2601   20.5255 C   0  0  0  0  0  0  0  0  0  0  0  0
   48.2885    7.5589   21.6254 C   0  0  0  0  0  0  0  0  0  0  0  0
   48.0341    9.3099   19.9202 C   0  0  0  0  0  0  0  0  0  0  0  0
   47.5341    8.3844   22.4814 C   0  0  0  0  0  0  0  0  0  0  0  0
   47.2948   10.0323   20.8765 C   0  0  0  0  0  0  0  0  0  0  0  0
   48.6074    8.0766   20.3389 C   0  0  0  0  0  0  0  0  0  0  0  0
   49.3341    7.2774   19.4100 N   0  0  0  0  0  0  0  0  0  0  0  0
   47.0785    9.5907   22.1216 N   0  0  0  0  0  0  0  0  0  0  0  0
   46.4635    5.8480   21.1232 H   0  0  0  0  0  0  0  0  0  0  0  0
   48.1520    5.3569   20.8771 H   0  0  0  0  0  0  0  0  0  0  0  0
   46.9707    4.2035   21.5195 H   0  0  0  0  0  0  0  0  0  0  0  0
   46.7266    5.5929   23.5851 H   0  0  0  0  0  0  0  0  0  0  0  0
   48.3588    4.9724   23.3625 H   0  0  0  0  0  0  0  0  0  0  0  0
   49.0910    7.1523   22.4191 H   0  0  0  0  0  0  0  0  0  0  0  0
   48.5270    7.2595   24.0824 H   0  0  0  0  0  0  0  0  0  0  0  0
   46.2822    8.0457   23.2629 H   0  0  0  0  0  0  0  0  0  0  0  0
   46.8892    8.0646   21.6161 H   0  0  0  0  0  0  0  0  0  0  0  0
   47.9828    9.7043   23.9584 H   0  0  0  0  0  0  0  0  0  0  0  0
   46.8884   10.2997   22.7234 H   0  0  0  0  0  0  0  0  0  0  0  0
   49.7729    9.3413   22.2570 H   0  0  0  0  0  0  0  0  0  0  0  0
   49.2645   10.9999   22.3664 H   0  0  0  0  0  0  0  0  0  0  0  0
   49.6761    8.1786   20.1634 H   0  0  0  0  0  0  0  0  0  0  0  0
   49.2160    8.2133   17.7380 H   0  0  0  0  0  0  0  0  0  0  0  0
   47.1068   11.9293   18.1646 H   0  0  0  0  0  0  0  0  0  0  0  0
   47.3990   10.8257   16.2171 H   0  0  0  0  0  0  0  0  0  0  0  0
   47.0030   12.7541   20.2300 H   0  0  0  0  0  0  0  0  0  0  0  0
   48.6703    4.8666   23.7307 H   0  0  0  0  0  0  0  0  0  0  0  0
   47.7082   11.4898   17.2805 H   0  0  0  0  0  0  0  0  0  0  0  0
   47.3750    6.3672   25.2303 H   0  0  0  0  0  0  0  0  0  0  0  0
   46.4467   12.7585   19.0059 H   0  0  0  0  0  0  0  0  0  0  0  0
   49.2339    5.5960   21.4645 H   0  0  0  0  0  0  0  0  0  0  0  0
   48.6930    9.3204   17.8372 H   0  0  0  0  0  0  0  0  0  0  0  0
   46.6517    8.5845   24.4166 H   0  0  0  0  0  0  0  0  0  0  0  0
   46.1828   11.8129   21.2726 H   0  0  0  0  0  0  0  0  0  0  0  0
   49.9871    6.6453   19.8603 H   0  0  0  0  0  0  0  0  0  0  0  0
   49.8152    7.8289   18.7076 H   0  0  0  0  0  0  0  0  0  0  0  0
  2  1  1  0
  3  2  1  0
  4  3  1  0
  5  4  1  0
  6  5  1  0
  8  7  2  0
 10  6  1  0
 10  7  1  0
 11  8  1  0
 11  9  2  0
 12  9  1  0
 12 10  2  0
 13 11  1  0
 14 12  1  0
 17 15  2  0
 18 16  1  0
 19 15  1  0
 20 16  2  0
 21 17  1  0
 22 18  2  0
 23 19  2  0
 24 20  1  0
 25 21  2  0
 25 23  1  0
 26 22  1  0
 26 24  1  0
 27 23  1  0
 27 24  2  0
 28 27  1  0
 29 25  1  0
 29 26  2  0
  1 30  1  0
  1 31  1  0
  1 32  1  0
  2 33  1  0
  2 34  1  0
  3 35  1  0
  3 36  1  0
  4 37  1  0
  4 38  1  0
  5 39  1  0
  5 40  1  0
  6 41  1  0
  6 42  1  0
  7 43  1  0
  8 44  1  0
  9 45  1  0
 13 46  1  0
 14 47  1  0
 15 48  1  0
 16 49  1  0
 17 50  1  0
 18 51  1  0
 19 52  1  0
 20 53  1  0
 21 54  1  0
 22 55  1  0
 28 56  1  0
 28 57  1  0
M  END
> <Uni-Dock RESULT> 
ENERGY=   -5.010  LOWER_BOUND=    4.140  UPPER_BOUND=    5.957
INTER + INTRA:          -5.010
INTER:                  -5.010
INTRA:                   0.000
UNBOUND:                 0.000

$$$$
