
     RDKit          3D

 57 59  0  0  0  0  0  0  0  0999 V2000
   47.5365   11.2814   20.7218 C   0  0  0  0  0  0  0  0  0  0  0  0
   46.8864    9.9782   21.1612 C   0  0  0  0  0  0  0  0  0  0  0  0
   47.5368    8.7348   20.5491 C   0  0  0  0  0  0  0  0  0  0  0  0
   47.3007    8.6108   19.0414 C   0  0  0  0  0  0  0  0  0  0  0  0
   47.9753    7.3807   18.4247 C   0  0  0  0  0  0  0  0  0  0  0  0
   47.3573    6.0559   18.8816 C   0  0  0  0  0  0  0  0  0  0  0  0
   47.3601    4.3452   17.0269 C   0  0  0  0  0  0  0  0  0  0  0  0
   47.9266    3.2642   16.3474 C   0  0  0  0  0  0  0  0  0  0  0  0
   49.7521    3.2276   17.9357 C   0  0  0  0  0  0  0  0  0  0  0  0
   47.9784    4.8766   18.1700 C   0  0  0  0  0  0  0  0  0  0  0  0
   49.1179    2.7153   16.8098 C   0  0  0  0  0  0  0  0  0  0  0  0
   49.1802    4.3064   18.6078 C   0  0  0  0  0  0  0  0  0  0  0  0
   49.7039    1.6574   16.1780 O   0  0  0  0  0  0  0  0  0  0  0  0
   49.7931    4.8268   19.7137 O   0  0  0  0  0  0  0  0  0  0  0  0
   47.8855    9.9531   20.5056 C   0  0  0  0  0  0  0  0  0  0  0  0
   48.1576    3.6233   16.7891 C   0  0  0  0  0  0  0  0  0  0  0  0
   47.6706    9.1825   21.6373 C   0  0  0  0  0  0  0  0  0  0  0  0
   47.9158    2.9940   18.0013 C   0  0  0  0  0  0  0  0  0  0  0  0
   48.0816    9.3258   19.2753 C   0  0  0  0  0  0  0  0  0  0  0  0
   48.2755    5.0115   16.7514 C   0  0  0  0  0  0  0  0  0  0  0  0
   47.6459    7.7914   21.5277 C   0  0  0  0  0  0  0  0  0  0  0  0
   47.7942    3.7587   19.1639 C   0  0  0  0  0  0  0  0  0  0  0  0
   48.0680    7.9119   19.1559 C   0  0  0  0  0  0  0  0  0  0  0  0
   48.1492    5.7913   17.9258 C   0  0  0  0  0  0  0  0  0  0  0  0
   47.8335    7.1434   20.3139 C   0  0  0  0  0  0  0  0  0  0  0  0
   47.9049    5.1435   19.1495 C   0  0  0  0  0  0  0  0  0  0  0  0
   48.2758    7.2025   17.9434 C   0  0  0  0  0  0  0  0  0  0  0  0
   48.3950    7.8911   16.6996 N   0  0  0  0  0  0  0  0  0  0  0  0
   47.7654    5.8051   20.3066 N   0  0  0  0  0  0  0  0  0  0  0  0
   47.0900   12.1230   21.2613 H   0  0  0  0  0  0  0  0  0  0  0  0
   47.3945   11.4620   19.6522 H   0  0  0  0  0  0  0  0  0  0  0  0
   48.6107   11.2755   20.9340 H   0  0  0  0  0  0  0  0  0  0  0  0
   45.8179   10.0008   20.9170 H   0  0  0  0  0  0  0  0  0  0  0  0
   46.9613    9.9065   22.2528 H   0  0  0  0  0  0  0  0  0  0  0  0
   47.1209    7.8580   21.0577 H   0  0  0  0  0  0  0  0  0  0  0  0
   48.6132    8.7427   20.7567 H   0  0  0  0  0  0  0  0  0  0  0  0
   47.6983    9.4966   18.5337 H   0  0  0  0  0  0  0  0  0  0  0  0
   46.2243    8.5836   18.8351 H   0  0  0  0  0  0  0  0  0  0  0  0
   47.8954    7.4593   17.3323 H   0  0  0  0  0  0  0  0  0  0  0  0
   49.0481    7.3983   18.6561 H   0  0  0  0  0  0  0  0  0  0  0  0
   46.2759    6.0656   18.6956 H   0  0  0  0  0  0  0  0  0  0  0  0
   47.4706    5.9209   19.9627 H   0  0  0  0  0  0  0  0  0  0  0  0
   46.4308    4.7752   16.6597 H   0  0  0  0  0  0  0  0  0  0  0  0
   47.4284    2.8717   15.4669 H   0  0  0  0  0  0  0  0  0  0  0  0
   50.6817    2.7791   18.2695 H   0  0  0  0  0  0  0  0  0  0  0  0
   49.1454    1.3989   15.4263 H   0  0  0  0  0  0  0  0  0  0  0  0
   50.6107    4.3284   19.8767 H   0  0  0  0  0  0  0  0  0  0  0  0
   47.9026   11.0376   20.5767 H   0  0  0  0  0  0  0  0  0  0  0  0
   48.2609    3.0413   15.8774 H   0  0  0  0  0  0  0  0  0  0  0  0
   47.5176    9.6539   22.6043 H   0  0  0  0  0  0  0  0  0  0  0  0
   47.8238    1.9125   18.0506 H   0  0  0  0  0  0  0  0  0  0  0  0
   48.2457    9.9584   18.4084 H   0  0  0  0  0  0  0  0  0  0  0  0
   48.4816    5.4947   15.7985 H   0  0  0  0  0  0  0  0  0  0  0  0
   47.4684    7.1918   22.4181 H   0  0  0  0  0  0  0  0  0  0  0  0
   47.6052    3.2593   20.1117 H   0  0  0  0  0  0  0  0  0  0  0  0
   47.4752    7.9848   16.2710 H   0  0  0  0  0  0  0  0  0  0  0  0
   48.8270    8.8036   16.7957 H   0  0  0  0  0  0  0  0  0  0  0  0
  2  1  1  0
  3  2  1  0
  4  3  1  0
  5  4  1  0
  6  5  1  0
  8  7  2  0
 10  6  1  0
 10  7  1  0
 11  8  1  0
 11  9  2  0
 12  9  1  0
 12 10  2  0
 13 11  1  0
 14 12  1  0
 17 15  2  0
 18 16  1  0
 19 15  1  0
 20 16  2  0
 21 17  1  0
 22 18  2  0
 23 19  2  0
 24 20  1  0
 25 21  2  0
 25 23  1  0
 26 22  1  0
 26 24  1  0
 27 23  1  0
 27 24  2  0
 28 27  1  0
 29 25  1  0
 29 26  2  0
  1 30  1  0
  1 31  1  0
  1 32  1  0
  2 33  1  0
  2 34  1  0
  3 35  1  0
  3 36  1  0
  4 37  1  0
  4 38  1  0
  5 39  1  0
  5 40  1  0
  6 41  1  0
  6 42  1  0
  7 43  1  0
  8 44  1  0
  9 45  1  0
 13 46  1  0
 14 47  1  0
 15 48  1  0
 16 49  1  0
 17 50  1  0
 18 51  1  0
 19 52  1  0
 20 53  1  0
 21 54  1  0
 22 55  1  0
 28 56  1  0
 28 57  1  0
M  END
> <Uni-Dock RESULT> 
ENERGY=   -6.501  LOWER_BOUND=    0.000  UPPER_BOUND=    0.000
INTER + INTRA:          -6.501
INTER:                  -6.501
INTRA:                   0.000
UNBOUND:                 0.000

$$$$

     RDKit          3D

 57 59  0  0  0  0  0  0  0  0999 V2000
   46.1096   12.9525   11.2895 C   0  0  0  0  0  0  0  0  0  0  0  0
   46.6016   11.9445   12.3172 C   0  0  0  0  0  0  0  0  0  0  0  0
   46.2919   10.4923   11.9445 C   0  0  0  0  0  0  0  0  0  0  0  0
   44.7979   10.1614   11.9971 C   0  0  0  0  0  0  0  0  0  0  0  0
   44.4863    8.7153   11.5973 C   0  0  0  0  0  0  0  0  0  0  0  0
   45.0040    7.6820   12.6023 C   0  0  0  0  0  0  0  0  0  0  0  0
   43.4328    5.7180   12.8027 C   0  0  0  0  0  0  0  0  0  0  0  0
   43.0202    4.4288   12.4576 C   0  0  0  0  0  0  0  0  0  0  0  0
   44.8974    4.2379   10.9423 C   0  0  0  0  0  0  0  0  0  0  0  0
   44.5834    6.2802   12.2270 C   0  0  0  0  0  0  0  0  0  0  0  0
   43.7582    3.7008   11.5303 C   0  0  0  0  0  0  0  0  0  0  0  0
   45.3022    5.5249   11.2920 C   0  0  0  0  0  0  0  0  0  0  0  0
   43.3923    2.4375   11.1670 O   0  0  0  0  0  0  0  0  0  0  0  0
   46.4171    6.0714   10.7194 O   0  0  0  0  0  0  0  0  0  0  0  0
   46.1438   11.5627   11.2811 C   0  0  0  0  0  0  0  0  0  0  0  0
   43.4422    4.7946   12.2017 C   0  0  0  0  0  0  0  0  0  0  0  0
   47.3144   11.0817   11.8459 C   0  0  0  0  0  0  0  0  0  0  0  0
   44.6670    4.4692   12.7656 C   0  0  0  0  0  0  0  0  0  0  0  0
   45.0662   10.6972   11.0934 C   0  0  0  0  0  0  0  0  0  0  0  0
   43.2354    6.0838   11.7141 C   0  0  0  0  0  0  0  0  0  0  0  0
   47.3948    9.7410   12.2254 C   0  0  0  0  0  0  0  0  0  0  0  0
   45.6730    5.4358   12.8364 C   0  0  0  0  0  0  0  0  0  0  0  0
   45.1422    9.3303   11.4669 C   0  0  0  0  0  0  0  0  0  0  0  0
   44.2499    7.0679   11.7870 C   0  0  0  0  0  0  0  0  0  0  0  0
   46.3345    8.8607   12.0535 C   0  0  0  0  0  0  0  0  0  0  0  0
   45.4880    6.7275   12.3597 C   0  0  0  0  0  0  0  0  0  0  0  0
   44.0953    8.3868   11.2924 C   0  0  0  0  0  0  0  0  0  0  0  0
   42.8097    8.7926   10.8255 N   0  0  0  0  0  0  0  0  0  0  0  0
   46.4996    7.5991   12.4742 N   0  0  0  0  0  0  0  0  0  0  0  0
   46.4400   13.9594   11.5649 H   0  0  0  0  0  0  0  0  0  0  0  0
   45.0172   12.9678   11.2310 H   0  0  0  0  0  0  0  0  0  0  0  0
   46.5081   12.7261   10.2952 H   0  0  0  0  0  0  0  0  0  0  0  0
   46.1705   12.1798   13.2973 H   0  0  0  0  0  0  0  0  0  0  0  0
   47.6884   12.0532   12.4137 H   0  0  0  0  0  0  0  0  0  0  0  0
   46.8342    9.8470   12.6444 H   0  0  0  0  0  0  0  0  0  0  0  0
   46.6845   10.2776   10.9437 H   0  0  0  0  0  0  0  0  0  0  0  0
   44.2520   10.8198   11.3124 H   0  0  0  0  0  0  0  0  0  0  0  0
   44.4094   10.3580   13.0033 H   0  0  0  0  0  0  0  0  0  0  0  0
   43.3968    8.6142   11.5035 H   0  0  0  0  0  0  0  0  0  0  0  0
   44.9001    8.5149   10.6005 H   0  0  0  0  0  0  0  0  0  0  0  0
   44.6292    7.9186   13.6062 H   0  0  0  0  0  0  0  0  0  0  0  0
   46.0962    7.7192   12.6777 H   0  0  0  0  0  0  0  0  0  0  0  0
   42.8506    6.2864   13.5246 H   0  0  0  0  0  0  0  0  0  0  0  0
   42.1278    4.0170   12.9174 H   0  0  0  0  0  0  0  0  0  0  0  0
   45.4497    3.6458   10.2204 H   0  0  0  0  0  0  0  0  0  0  0  0
   42.5961    2.1911   11.6662 H   0  0  0  0  0  0  0  0  0  0  0  0
   46.7898    5.4281   10.0944 H   0  0  0  0  0  0  0  0  0  0  0  0
   46.0668   12.6058   10.9854 H   0  0  0  0  0  0  0  0  0  0  0  0
   42.6523    4.0516   12.1339 H   0  0  0  0  0  0  0  0  0  0  0  0
   48.1646   11.7410   11.9982 H   0  0  0  0  0  0  0  0  0  0  0  0
   44.8476    3.4686   13.1483 H   0  0  0  0  0  0  0  0  0  0  0  0
   44.1636   11.1061   10.6500 H   0  0  0  0  0  0  0  0  0  0  0  0
   42.2769    6.3247   11.2587 H   0  0  0  0  0  0  0  0  0  0  0  0
   48.3134    9.3709   12.6760 H   0  0  0  0  0  0  0  0  0  0  0  0
   46.6316    5.1744   13.2791 H   0  0  0  0  0  0  0  0  0  0  0  0
   42.2157    9.0270   11.6196 H   0  0  0  0  0  0  0  0  0  0  0  0
   42.8545    9.5763   10.1832 H   0  0  0  0  0  0  0  0  0  0  0  0
  2  1  1  0
  3  2  1  0
  4  3  1  0
  5  4  1  0
  6  5  1  0
  8  7  2  0
 10  6  1  0
 10  7  1  0
 11  8  1  0
 11  9  2  0
 12  9  1  0
 12 10  2  0
 13 11  1  0
 14 12  1  0
 17 15  2  0
 18 16  1  0
 19 15  1  0
 20 16  2  0
 21 17  1  0
 22 18  2  0
 23 19  2  0
 24 20  1  0
 25 21  2  0
 25 23  1  0
 26 22  1  0
 26 24  1  0
 27 23  1  0
 27 24  2  0
 28 27  1  0
 29 25  1  0
 29 26  2  0
  1 30  1  0
  1 31  1  0
  1 32  1  0
  2 33  1  0
  2 34  1  0
  3 35  1  0
  3 36  1  0
  4 37  1  0
  4 38  1  0
  5 39  1  0
  5 40  1  0
  6 41  1  0
  6 42  1  0
  7 43  1  0
  8 44  1  0
  9 45  1  0
 13 46  1  0
 14 47  1  0
 15 48  1  0
 16 49  1  0
 17 50  1  0
 18 51  1  0
 19 52  1  0
 20 53  1  0
 21 54  1  0
 22 55  1  0
 28 56  1  0
 28 57  1  0
M  END
> <Uni-Dock RESULT> 
ENERGY=   -6.482  LOWER_BOUND=    7.078  UPPER_BOUND=    8.087
INTER + INTRA:          -6.482
INTER:                  -6.482
INTRA:                   0.000
UNBOUND:                 0.000

$$$$

     RDKit          3D

 57 59  0  0  0  0  0  0  0  0999 V2000
   48.0001    5.1013   24.2246 C   0  0  0  0  0  0  0  0  0  0  0  0
   47.1362    5.4784   23.0305 C   0  0  0  0  0  0  0  0  0  0  0  0
   47.6105    6.7425   22.3089 C   0  0  0  0  0  0  0  0  0  0  0  0
   47.4233    8.0163   23.1375 C   0  0  0  0  0  0  0  0  0  0  0  0
   47.9237    9.2776   22.4254 C   0  0  0  0  0  0  0  0  0  0  0  0
   47.0874    9.6552   21.1991 C   0  0  0  0  0  0  0  0  0  0  0  0
   46.9033   12.1582   20.9395 C   0  0  0  0  0  0  0  0  0  0  0  0
   47.3230   13.3760   20.3991 C   0  0  0  0  0  0  0  0  0  0  0  0
   49.0501   12.2242   19.1553 C   0  0  0  0  0  0  0  0  0  0  0  0
   47.5470   10.9600   20.5914 C   0  0  0  0  0  0  0  0  0  0  0  0
   48.3931   13.3963   19.5108 C   0  0  0  0  0  0  0  0  0  0  0  0
   48.6252   11.0133   19.6992 C   0  0  0  0  0  0  0  0  0  0  0  0
   48.8335   14.5632   18.9575 O   0  0  0  0  0  0  0  0  0  0  0  0
   49.2635    9.8512   19.3653 O   0  0  0  0  0  0  0  0  0  0  0  0
   48.1466    6.0792   23.2472 C   0  0  0  0  0  0  0  0  0  0  0  0
   47.5879   12.8218   20.3876 C   0  0  0  0  0  0  0  0  0  0  0  0
   47.7655    5.6096   22.0002 C   0  0  0  0  0  0  0  0  0  0  0  0
   47.1988   12.2026   19.2090 C   0  0  0  0  0  0  0  0  0  0  0  0
   48.2953    7.4515   23.4478 C   0  0  0  0  0  0  0  0  0  0  0  0
   47.9225   12.0402   21.4919 C   0  0  0  0  0  0  0  0  0  0  0  0
   47.5288    6.5170   20.9665 C   0  0  0  0  0  0  0  0  0  0  0  0
   47.1479   10.8081   19.1460 C   0  0  0  0  0  0  0  0  0  0  0  0
   48.0665    8.3808   22.4001 C   0  0  0  0  0  0  0  0  0  0  0  0
   47.8688   10.6271   21.4347 C   0  0  0  0  0  0  0  0  0  0  0  0
   47.6652    7.8878   21.1422 C   0  0  0  0  0  0  0  0  0  0  0  0
   47.4738   10.0094   20.2350 C   0  0  0  0  0  0  0  0  0  0  0  0
   48.2131    9.7879   22.5233 C   0  0  0  0  0  0  0  0  0  0  0  0
   48.4919   10.3905   23.7860 N   0  0  0  0  0  0  0  0  0  0  0  0
   47.3895    8.6790   20.0964 N   0  0  0  0  0  0  0  0  0  0  0  0
   47.6675    4.1445   24.6400 H   0  0  0  0  0  0  0  0  0  0  0  0
   47.9343    5.8481   25.0214 H   0  0  0  0  0  0  0  0  0  0  0  0
   49.0500    4.9962   23.9322 H   0  0  0  0  0  0  0  0  0  0  0  0
   46.0960    5.5997   23.3542 H   0  0  0  0  0  0  0  0  0  0  0  0
   47.1519    4.6457   22.3173 H   0  0  0  0  0  0  0  0  0  0  0  0
   47.0414    6.8259   21.3764 H   0  0  0  0  0  0  0  0  0  0  0  0
   48.6650    6.6330   22.0298 H   0  0  0  0  0  0  0  0  0  0  0  0
   47.9757    7.9259   24.0793 H   0  0  0  0  0  0  0  0  0  0  0  0
   46.3657    8.1360   23.4005 H   0  0  0  0  0  0  0  0  0  0  0  0
   47.9042   10.1065   23.1455 H   0  0  0  0  0  0  0  0  0  0  0  0
   48.9751    9.1431   22.1405 H   0  0  0  0  0  0  0  0  0  0  0  0
   46.0298    9.7366   21.4801 H   0  0  0  0  0  0  0  0  0  0  0  0
   47.1315    8.8706   20.4359 H   0  0  0  0  0  0  0  0  0  0  0  0
   46.0692   12.1465   21.6377 H   0  0  0  0  0  0  0  0  0  0  0  0
   46.8082   14.2877   20.6837 H   0  0  0  0  0  0  0  0  0  0  0  0
   49.8831   12.2738   18.4622 H   0  0  0  0  0  0  0  0  0  0  0  0
   48.2745   15.2888   19.2813 H   0  0  0  0  0  0  0  0  0  0  0  0
   49.9855   10.0613   18.7505 H   0  0  0  0  0  0  0  0  0  0  0  0
   48.3296    5.3833   24.0619 H   0  0  0  0  0  0  0  0  0  0  0  0
   47.6385   13.9054   20.4497 H   0  0  0  0  0  0  0  0  0  0  0  0
   47.6463    4.5439   21.8252 H   0  0  0  0  0  0  0  0  0  0  0  0
   46.9372   12.7954   18.3368 H   0  0  0  0  0  0  0  0  0  0  0  0
   48.5933    7.7862   24.4366 H   0  0  0  0  0  0  0  0  0  0  0  0
   48.2423   12.5348   22.4069 H   0  0  0  0  0  0  0  0  0  0  0  0
   47.2217    6.1431   19.9919 H   0  0  0  0  0  0  0  0  0  0  0  0
   46.8426   10.3282   18.2187 H   0  0  0  0  0  0  0  0  0  0  0  0
   47.6173   10.6271   24.2526 H   0  0  0  0  0  0  0  0  0  0  0  0
   49.0564    9.7999   24.3870 H   0  0  0  0  0  0  0  0  0  0  0  0
  2  1  1  0
  3  2  1  0
  4  3  1  0
  5  4  1  0
  6  5  1  0
  8  7  2  0
 10  6  1  0
 10  7  1  0
 11  8  1  0
 11  9  2  0
 12  9  1  0
 12 10  2  0
 13 11  1  0
 14 12  1  0
 17 15  2  0
 18 16  1  0
 19 15  1  0
 20 16  2  0
 21 17  1  0
 22 18  2  0
 23 19  2  0
 24 20  1  0
 25 21  2  0
 25 23  1  0
 26 22  1  0
 26 24  1  0
 27 23  1  0
 27 24  2  0
 28 27  1  0
 29 25  1  0
 29 26  2  0
  1 30  1  0
  1 31  1  0
  1 32  1  0
  2 33  1  0
  2 34  1  0
  3 35  1  0
  3 36  1  0
  4 37  1  0
  4 38  1  0
  5 39  1  0
  5 40  1  0
  6 41  1  0
  6 42  1  0
  7 43  1  0
  8 44  1  0
  9 45  1  0
 13 46  1  0
 14 47  1  0
 15 48  1  0
 16 49  1  0
 17 50  1  0
 18 51  1  0
 19 52  1  0
 20 53  1  0
 21 54  1  0
 22 55  1  0
 28 56  1  0
 28 57  1  0
M  END
> <Uni-Dock RESULT> 
ENERGY=   -6.372  LOWER_BOUND=    3.665  UPPER_BOUND=    6.843
INTER + INTRA:          -6.372
INTER:                  -6.372
INTRA:                   0.000
UNBOUND:                 0.000

$$$$

     RDKit          3D

 57 59  0  0  0  0  0  0  0  0999 V2000
   43.4896    2.3974   11.7710 C   0  0  0  0  0  0  0  0  0  0  0  0
   43.3207    3.8869   11.5118 C   0  0  0  0  0  0  0  0  0  0  0  0
   44.6159    4.6861   11.6779 C   0  0  0  0  0  0  0  0  0  0  0  0
   45.0972    4.7600   13.1295 C   0  0  0  0  0  0  0  0  0  0  0  0
   46.4083    5.5367   13.2911 C   0  0  0  0  0  0  0  0  0  0  0  0
   46.2673    7.0339   13.0008 C   0  0  0  0  0  0  0  0  0  0  0  0
   47.7427    8.4128   14.5133 C   0  0  0  0  0  0  0  0  0  0  0  0
   48.9303    9.0938   14.7909 C   0  0  0  0  0  0  0  0  0  0  0  0
   49.7721    8.5115   12.5980 C   0  0  0  0  0  0  0  0  0  0  0  0
   47.5532    7.7783   13.2753 C   0  0  0  0  0  0  0  0  0  0  0  0
   49.9338    9.1369   13.8288 C   0  0  0  0  0  0  0  0  0  0  0  0
   48.5841    7.8340   12.3291 C   0  0  0  0  0  0  0  0  0  0  0  0
   51.1080    9.7932   14.0574 O   0  0  0  0  0  0  0  0  0  0  0  0
   48.4100    7.2082   11.1259 O   0  0  0  0  0  0  0  0  0  0  0  0
   44.4122    3.4346   11.6936 C   0  0  0  0  0  0  0  0  0  0  0  0
   48.7870    8.7128   14.3308 C   0  0  0  0  0  0  0  0  0  0  0  0
   44.0904    4.3238   10.6803 C   0  0  0  0  0  0  0  0  0  0  0  0
   48.3517    9.4926   13.2695 C   0  0  0  0  0  0  0  0  0  0  0  0
   45.3383    3.8094   12.6670 C   0  0  0  0  0  0  0  0  0  0  0  0
   48.3231    7.4042   14.4526 C   0  0  0  0  0  0  0  0  0  0  0  0
   44.6918    5.5829   10.6535 C   0  0  0  0  0  0  0  0  0  0  0  0
   47.4570    8.9565   12.3403 C   0  0  0  0  0  0  0  0  0  0  0  0
   45.9622    5.0836   12.6422 C   0  0  0  0  0  0  0  0  0  0  0  0
   47.4135    6.8575   13.5162 C   0  0  0  0  0  0  0  0  0  0  0  0
   45.6129    5.9814   11.6134 C   0  0  0  0  0  0  0  0  0  0  0  0
   46.9792    7.6560   12.4437 C   0  0  0  0  0  0  0  0  0  0  0  0
   46.9244    5.5294   13.5866 C   0  0  0  0  0  0  0  0  0  0  0  0
   47.2487    4.7441   14.7327 N   0  0  0  0  0  0  0  0  0  0  0  0
   46.1149    7.2201   11.5168 N   0  0  0  0  0  0  0  0  0  0  0  0
   42.5563    1.8704   11.5477 H   0  0  0  0  0  0  0  0  0  0  0  0
   43.7405    2.1963   12.8167 H   0  0  0  0  0  0  0  0  0  0  0  0
   44.2762    1.9752   11.1371 H   0  0  0  0  0  0  0  0  0  0  0  0
   42.5451    4.2887   12.1741 H   0  0  0  0  0  0  0  0  0  0  0  0
   42.9612    4.0194   10.4845 H   0  0  0  0  0  0  0  0  0  0  0  0
   44.4320    5.6985   11.3016 H   0  0  0  0  0  0  0  0  0  0  0  0
   45.4005    4.2500   11.0486 H   0  0  0  0  0  0  0  0  0  0  0  0
   45.2623    3.7471   13.5134 H   0  0  0  0  0  0  0  0  0  0  0  0
   44.3200    5.2136   13.7557 H   0  0  0  0  0  0  0  0  0  0  0  0
   46.7613    5.3999   14.3219 H   0  0  0  0  0  0  0  0  0  0  0  0
   47.1762    5.0955   12.6426 H   0  0  0  0  0  0  0  0  0  0  0  0
   45.4624    7.4581   13.6143 H   0  0  0  0  0  0  0  0  0  0  0  0
   45.9695    7.2068   11.9609 H   0  0  0  0  0  0  0  0  0  0  0  0
   46.9619    8.3770   15.2699 H   0  0  0  0  0  0  0  0  0  0  0  0
   49.0516    9.5765   15.7551 H   0  0  0  0  0  0  0  0  0  0  0  0
   50.5746    8.5609   11.8698 H   0  0  0  0  0  0  0  0  0  0  0  0
   51.0718   10.1914   14.9428 H   0  0  0  0  0  0  0  0  0  0  0  0
   49.2127    7.3339   10.5937 H   0  0  0  0  0  0  0  0  0  0  0  0
   43.9475    2.4526   11.7284 H   0  0  0  0  0  0  0  0  0  0  0  0
   49.4877    9.1139   15.0579 H   0  0  0  0  0  0  0  0  0  0  0  0
   43.3724    4.0484    9.9126 H   0  0  0  0  0  0  0  0  0  0  0  0
   48.7047   10.5139   13.1565 H   0  0  0  0  0  0  0  0  0  0  0  0
   45.5668    3.0902   13.4475 H   0  0  0  0  0  0  0  0  0  0  0  0
   48.6831    6.7950   15.2793 H   0  0  0  0  0  0  0  0  0  0  0  0
   44.4291    6.2799    9.8603 H   0  0  0  0  0  0  0  0  0  0  0  0
   47.1198    9.5727   11.5098 H   0  0  0  0  0  0  0  0  0  0  0  0
   46.6401    5.0031   15.5081 H   0  0  0  0  0  0  0  0  0  0  0  0
   47.1816    3.7474   14.5577 H   0  0  0  0  0  0  0  0  0  0  0  0
  2  1  1  0
  3  2  1  0
  4  3  1  0
  5  4  1  0
  6  5  1  0
  8  7  2  0
 10  6  1  0
 10  7  1  0
 11  8  1  0
 11  9  2  0
 12  9  1  0
 12 10  2  0
 13 11  1  0
 14 12  1  0
 17 15  2  0
 18 16  1  0
 19 15  1  0
 20 16  2  0
 21 17  1  0
 22 18  2  0
 23 19  2  0
 24 20  1  0
 25 21  2  0
 25 23  1  0
 26 22  1  0
 26 24  1  0
 27 23  1  0
 27 24  2  0
 28 27  1  0
 29 25  1  0
 29 26  2  0
  1 30  1  0
  1 31  1  0
  1 32  1  0
  2 33  1  0
  2 34  1  0
  3 35  1  0
  3 36  1  0
  4 37  1  0
  4 38  1  0
  5 39  1  0
  5 40  1  0
  6 41  1  0
  6 42  1  0
  7 43  1  0
  8 44  1  0
  9 45  1  0
 13 46  1  0
 14 47  1  0
 15 48  1  0
 16 49  1  0
 17 50  1  0
 18 51  1  0
 19 52  1  0
 20 53  1  0
 21 54  1  0
 22 55  1  0
 28 56  1  0
 28 57  1  0
M  END
> <Uni-Dock RESULT> 
ENERGY=   -6.176  LOWER_BOUND=    5.338  UPPER_BOUND=    8.235
INTER + INTRA:          -6.176
INTER:                  -6.176
INTRA:                   0.000
UNBOUND:                 0.000

$$$$

     RDKit          3D

 57 59  0  0  0  0  0  0  0  0999 V2000
   48.2916    3.3650   18.6382 C   0  0  0  0  0  0  0  0  0  0  0  0
   47.8767    4.4395   17.6445 C   0  0  0  0  0  0  0  0  0  0  0  0
   48.1786    5.8622   18.1225 C   0  0  0  0  0  0  0  0  0  0  0  0
   47.3104    6.2980   19.3059 C   0  0  0  0  0  0  0  0  0  0  0  0
   47.6323    7.7120   19.8013 C   0  0  0  0  0  0  0  0  0  0  0  0
   47.2536    8.8075   18.8001 C   0  0  0  0  0  0  0  0  0  0  0  0
   46.4262   10.8843   19.9698 C   0  0  0  0  0  0  0  0  0  0  0  0
   46.6258   12.1552   20.5142 C   0  0  0  0  0  0  0  0  0  0  0  0
   48.9586   12.0571   19.8780 C   0  0  0  0  0  0  0  0  0  0  0  0
   47.4869   10.1875   19.3694 C   0  0  0  0  0  0  0  0  0  0  0  0
   47.8914   12.7296   20.4619 C   0  0  0  0  0  0  0  0  0  0  0  0
   48.7510   10.7894   19.3373 C   0  0  0  0  0  0  0  0  0  0  0  0
   48.1295   13.9697   20.9788 O   0  0  0  0  0  0  0  0  0  0  0  0
   49.7906   10.1108   18.7641 O   0  0  0  0  0  0  0  0  0  0  0  0
   48.4923    4.7406   18.6239 C   0  0  0  0  0  0  0  0  0  0  0  0
   47.0308   11.7366   20.3191 C   0  0  0  0  0  0  0  0  0  0  0  0
   48.7777    5.1973   17.3469 C   0  0  0  0  0  0  0  0  0  0  0  0
   47.3290   12.0351   18.9978 C   0  0  0  0  0  0  0  0  0  0  0  0
   48.1261    5.6531   19.6132 C   0  0  0  0  0  0  0  0  0  0  0  0
   47.1416   10.4204   20.7641 C   0  0  0  0  0  0  0  0  0  0  0  0
   48.6870    6.5618   17.0681 C   0  0  0  0  0  0  0  0  0  0  0  0
   47.7350   11.0149   18.1342 C   0  0  0  0  0  0  0  0  0  0  0  0
   48.0409    7.0433   19.3416 C   0  0  0  0  0  0  0  0  0  0  0  0
   47.5487    9.3824   19.8923 C   0  0  0  0  0  0  0  0  0  0  0  0
   48.3200    7.4895   18.0342 C   0  0  0  0  0  0  0  0  0  0  0  0
   47.8494    9.6958   18.5551 C   0  0  0  0  0  0  0  0  0  0  0  0
   47.6916    8.0325   20.2988 C   0  0  0  0  0  0  0  0  0  0  0  0
   47.2702    7.6686   21.6123 N   0  0  0  0  0  0  0  0  0  0  0  0
   48.2353    8.7741   17.6620 N   0  0  0  0  0  0  0  0  0  0  0  0
   48.1358    2.3724   18.2030 H   0  0  0  0  0  0  0  0  0  0  0  0
   47.7026    3.4182   19.5586 H   0  0  0  0  0  0  0  0  0  0  0  0
   49.3513    3.4579   18.8975 H   0  0  0  0  0  0  0  0  0  0  0  0
   46.8085    4.3385   17.4199 H   0  0  0  0  0  0  0  0  0  0  0  0
   48.4163    4.2676   16.7057 H   0  0  0  0  0  0  0  0  0  0  0  0
   48.0112    6.5390   17.2773 H   0  0  0  0  0  0  0  0  0  0  0  0
   49.2386    5.9432   18.3903 H   0  0  0  0  0  0  0  0  0  0  0  0
   47.4618    5.6101   20.1451 H   0  0  0  0  0  0  0  0  0  0  0  0
   46.2507    6.2354   19.0319 H   0  0  0  0  0  0  0  0  0  0  0  0
   47.0879    7.8768   20.7407 H   0  0  0  0  0  0  0  0  0  0  0  0
   48.6995    7.7777   20.0494 H   0  0  0  0  0  0  0  0  0  0  0  0
   46.1987    8.7039   18.5160 H   0  0  0  0  0  0  0  0  0  0  0  0
   47.8224    8.7039   17.8697 H   0  0  0  0  0  0  0  0  0  0  0  0
   45.4362   10.4361   20.0168 H   0  0  0  0  0  0  0  0  0  0  0  0
   45.7893   12.6731   20.9720 H   0  0  0  0  0  0  0  0  0  0  0  0
   49.9342   12.5309   19.8555 H   0  0  0  0  0  0  0  0  0  0  0  0
   47.2965   14.3210   21.3345 H   0  0  0  0  0  0  0  0  0  0  0  0
   50.5904   10.6579   18.8309 H   0  0  0  0  0  0  0  0  0  0  0  0
   48.5548    3.6799   18.8528 H   0  0  0  0  0  0  0  0  0  0  0  0
   46.7199   12.5205   21.0042 H   0  0  0  0  0  0  0  0  0  0  0  0
   49.0662    4.5011   16.5641 H   0  0  0  0  0  0  0  0  0  0  0  0
   47.2512   13.0557   18.6336 H   0  0  0  0  0  0  0  0  0  0  0  0
   47.9076    5.2624   20.6022 H   0  0  0  0  0  0  0  0  0  0  0  0
   46.9214   10.1990   21.8064 H   0  0  0  0  0  0  0  0  0  0  0  0
   48.9041    6.9137   16.0616 H   0  0  0  0  0  0  0  0  0  0  0  0
   47.9681   11.2553   17.0993 H   0  0  0  0  0  0  0  0  0  0  0  0
   46.2570    7.5601   21.6286 H   0  0  0  0  0  0  0  0  0  0  0  0
   47.7148    6.8205   21.9466 H   0  0  0  0  0  0  0  0  0  0  0  0
  2  1  1  0
  3  2  1  0
  4  3  1  0
  5  4  1  0
  6  5  1  0
  8  7  2  0
 10  6  1  0
 10  7  1  0
 11  8  1  0
 11  9  2  0
 12  9  1  0
 12 10  2  0
 13 11  1  0
 14 12  1  0
 17 15  2  0
 18 16  1  0
 19 15  1  0
 20 16  2  0
 21 17  1  0
 22 18  2  0
 23 19  2  0
 24 20  1  0
 25 21  2  0
 25 23  1  0
 26 22  1  0
 26 24  1  0
 27 23  1  0
 27 24  2  0
 28 27  1  0
 29 25  1  0
 29 26  2  0
  1 30  1  0
  1 31  1  0
  1 32  1  0
  2 33  1  0
  2 34  1  0
  3 35  1  0
  3 36  1  0
  4 37  1  0
  4 38  1  0
  5 39  1  0
  5 40  1  0
  6 41  1  0
  6 42  1  0
  7 43  1  0
  8 44  1  0
  9 45  1  0
 13 46  1  0
 14 47  1  0
 15 48  1  0
 16 49  1  0
 17 50  1  0
 18 51  1  0
 19 52  1  0
 20 53  1  0
 21 54  1  0
 22 55  1  0
 28 56  1  0
 28 57  1  0
M  END
> <Uni-Dock RESULT> 
ENERGY=   -6.165  LOWER_BOUND=    2.303  UPPER_BOUND=    6.502
INTER + INTRA:          -6.165
INTER:                  -6.165
INTRA:                   0.000
UNBOUND:                 0.000

$$$$

     RDKit          3D

 57 59  0  0  0  0  0  0  0  0999 V2000
   43.6469    3.4882   12.4791 C   0  0  0  0  0  0  0  0  0  0  0  0
   45.1574    3.5459   12.3075 C   0  0  0  0  0  0  0  0  0  0  0  0
   45.7820    4.8422   12.8301 C   0  0  0  0  0  0  0  0  0  0  0  0
   45.4102    6.0704   11.9949 C   0  0  0  0  0  0  0  0  0  0  0  0
   46.0133    7.3716   12.5348 C   0  0  0  0  0  0  0  0  0  0  0  0
   47.5379    7.4351   12.4029 C   0  0  0  0  0  0  0  0  0  0  0  0
   48.3261    9.7777   11.8957 C   0  0  0  0  0  0  0  0  0  0  0  0
   48.8141   11.0265   12.2878 C   0  0  0  0  0  0  0  0  0  0  0  0
   48.8120   10.2982   14.5957 C   0  0  0  0  0  0  0  0  0  0  0  0
   48.0803    8.7739   12.8461 C   0  0  0  0  0  0  0  0  0  0  0  0
   49.0530   11.2739   13.6355 C   0  0  0  0  0  0  0  0  0  0  0  0
   48.3250    9.0550   14.1960 C   0  0  0  0  0  0  0  0  0  0  0  0
   49.5322   12.4784   14.0614 O   0  0  0  0  0  0  0  0  0  0  0  0
   48.0767    8.0852   15.1275 O   0  0  0  0  0  0  0  0  0  0  0  0
   44.5946    4.4059   12.9179 C   0  0  0  0  0  0  0  0  0  0  0  0
   48.5890   10.5630   12.6224 C   0  0  0  0  0  0  0  0  0  0  0  0
   45.7534    3.7740   13.3406 C   0  0  0  0  0  0  0  0  0  0  0  0
   49.6649    9.7893   13.0322 C   0  0  0  0  0  0  0  0  0  0  0  0
   44.6129    5.7782   12.6693 C   0  0  0  0  0  0  0  0  0  0  0  0
   47.3360    9.9698   12.4794 C   0  0  0  0  0  0  0  0  0  0  0  0
   46.9225    4.5185   13.5038 C   0  0  0  0  0  0  0  0  0  0  0  0
   49.4775    8.4302   13.2950 C   0  0  0  0  0  0  0  0  0  0  0  0
   45.7943    6.5451   12.8419 C   0  0  0  0  0  0  0  0  0  0  0  0
   47.1415    8.5925   12.7405 C   0  0  0  0  0  0  0  0  0  0  0  0
   46.9677    5.8846   13.2582 C   0  0  0  0  0  0  0  0  0  0  0  0
   48.2384    7.8174   13.1561 C   0  0  0  0  0  0  0  0  0  0  0  0
   45.8861    7.9455   12.6250 C   0  0  0  0  0  0  0  0  0  0  0  0
   44.7892    8.6792   12.0830 N   0  0  0  0  0  0  0  0  0  0  0  0
   48.1440    6.5063   13.4178 N   0  0  0  0  0  0  0  0  0  0  0  0
   43.2727    2.5057   12.1734 H   0  0  0  0  0  0  0  0  0  0  0  0
   43.1426    4.2396   11.8644 H   0  0  0  0  0  0  0  0  0  0  0  0
   43.3641    3.6472   13.5248 H   0  0  0  0  0  0  0  0  0  0  0  0
   45.4119    3.4070   11.2503 H   0  0  0  0  0  0  0  0  0  0  0  0
   45.5987    2.7038   12.8538 H   0  0  0  0  0  0  0  0  0  0  0  0
   46.8698    4.7122   12.8250 H   0  0  0  0  0  0  0  0  0  0  0  0
   45.4848    4.9992   13.8735 H   0  0  0  0  0  0  0  0  0  0  0  0
   44.3211    6.1898   11.9826 H   0  0  0  0  0  0  0  0  0  0  0  0
   45.7245    5.9214   10.9552 H   0  0  0  0  0  0  0  0  0  0  0  0
   45.5674    8.2095   11.9825 H   0  0  0  0  0  0  0  0  0  0  0  0
   45.7178    7.5033   13.5837 H   0  0  0  0  0  0  0  0  0  0  0  0
   47.8297    7.2504   11.3612 H   0  0  0  0  0  0  0  0  0  0  0  0
   48.0170    6.6437   12.9894 H   0  0  0  0  0  0  0  0  0  0  0  0
   48.1357    9.5892   10.8414 H   0  0  0  0  0  0  0  0  0  0  0  0
   48.9964   11.7850   11.5336 H   0  0  0  0  0  0  0  0  0  0  0  0
   49.0059   10.5231   15.6390 H   0  0  0  0  0  0  0  0  0  0  0  0
   49.6672   13.0485   13.2865 H   0  0  0  0  0  0  0  0  0  0  0  0
   48.2885    8.4401   16.0064 H   0  0  0  0  0  0  0  0  0  0  0  0
   43.6786    3.8365   12.7826 H   0  0  0  0  0  0  0  0  0  0  0  0
   48.7180   11.6228   12.4205 H   0  0  0  0  0  0  0  0  0  0  0  0
   45.7574    2.7059   13.5406 H   0  0  0  0  0  0  0  0  0  0  0  0
   50.6485   10.2349   13.1521 H   0  0  0  0  0  0  0  0  0  0  0  0
   43.6889    6.2420   12.3379 H   0  0  0  0  0  0  0  0  0  0  0  0
   46.4948   10.5885   12.1733 H   0  0  0  0  0  0  0  0  0  0  0  0
   47.8314    4.0156   13.8278 H   0  0  0  0  0  0  0  0  0  0  0  0
   50.3249    7.8288   13.6167 H   0  0  0  0  0  0  0  0  0  0  0  0
   44.8632    8.7042   11.0669 H   0  0  0  0  0  0  0  0  0  0  0  0
   43.8893    8.2990   12.3555 H   0  0  0  0  0  0  0  0  0  0  0  0
  2  1  1  0
  3  2  1  0
  4  3  1  0
  5  4  1  0
  6  5  1  0
  8  7  2  0
 10  6  1  0
 10  7  1  0
 11  8  1  0
 11  9  2  0
 12  9  1  0
 12 10  2  0
 13 11  1  0
 14 12  1  0
 17 15  2  0
 18 16  1  0
 19 15  1  0
 20 16  2  0
 21 17  1  0
 22 18  2  0
 23 19  2  0
 24 20  1  0
 25 21  2  0
 25 23  1  0
 26 22  1  0
 26 24  1  0
 27 23  1  0
 27 24  2  0
 28 27  1  0
 29 25  1  0
 29 26  2  0
  1 30  1  0
  1 31  1  0
  1 32  1  0
  2 33  1  0
  2 34  1  0
  3 35  1  0
  3 36  1  0
  4 37  1  0
  4 38  1  0
  5 39  1  0
  5 40  1  0
  6 41  1  0
  6 42  1  0
  7 43  1  0
  8 44  1  0
  9 45  1  0
 13 46  1  0
 14 47  1  0
 15 48  1  0
 16 49  1  0
 17 50  1  0
 18 51  1  0
 19 52  1  0
 20 53  1  0
 21 54  1  0
 22 55  1  0
 28 56  1  0
 28 57  1  0
M  END
> <Uni-Dock RESULT> 
ENERGY=   -6.106  LOWER_BOUND=    5.452  UPPER_BOUND=    8.076
INTER + INTRA:          -6.106
INTER:                  -6.106
INTRA:                   0.000
UNBOUND:                 0.000

$$$$

     RDKit          3D

 57 59  0  0  0  0  0  0  0  0999 V2000
   47.6825    6.6910   13.1760 C   0  0  0  0  0  0  0  0  0  0  0  0
   46.1668    6.6141   13.0695 C   0  0  0  0  0  0  0  0  0  0  0  0
   45.5616    7.7015   12.1779 C   0  0  0  0  0  0  0  0  0  0  0  0
   45.6776    9.1060   12.7762 C   0  0  0  0  0  0  0  0  0  0  0  0
   45.0963   10.1970   11.8706 C   0  0  0  0  0  0  0  0  0  0  0  0
   43.5741   10.1163   11.7224 C   0  0  0  0  0  0  0  0  0  0  0  0
   42.5367   12.4108   11.5641 C   0  0  0  0  0  0  0  0  0  0  0  0
   42.0437   13.4933   10.8315 C   0  0  0  0  0  0  0  0  0  0  0  0
   42.5389   12.3208    8.7733 C   0  0  0  0  0  0  0  0  0  0  0  0
   43.0311   11.2700   10.9118 C   0  0  0  0  0  0  0  0  0  0  0  0
   42.0492   13.4367    9.4419 C   0  0  0  0  0  0  0  0  0  0  0  0
   43.0291   11.2451    9.5116 C   0  0  0  0  0  0  0  0  0  0  0  0
   41.5746   14.4702    8.6880 O   0  0  0  0  0  0  0  0  0  0  0  0
   43.5199   10.1416    8.8706 O   0  0  0  0  0  0  0  0  0  0  0  0
   46.7722    7.3908   12.3920 C   0  0  0  0  0  0  0  0  0  0  0  0
   42.3613   12.9998   10.6497 C   0  0  0  0  0  0  0  0  0  0  0  0
   45.7641    6.5623   11.9250 C   0  0  0  0  0  0  0  0  0  0  0  0
   41.4422   12.0451   10.2403 C   0  0  0  0  0  0  0  0  0  0  0  0
   46.6079    8.7745   12.3286 C   0  0  0  0  0  0  0  0  0  0  0  0
   43.6035   12.5903   11.1310 C   0  0  0  0  0  0  0  0  0  0  0  0
   44.5970    7.1245   11.4057 C   0  0  0  0  0  0  0  0  0  0  0  0
   41.7739   10.6903   10.3161 C   0  0  0  0  0  0  0  0  0  0  0  0
   45.4290    9.3551   11.7932 C   0  0  0  0  0  0  0  0  0  0  0  0
   43.9431   11.2188   11.2137 C   0  0  0  0  0  0  0  0  0  0  0  0
   44.4074    8.4985   11.3362 C   0  0  0  0  0  0  0  0  0  0  0  0
   43.0045   10.2592   10.7954 C   0  0  0  0  0  0  0  0  0  0  0  0
   45.1967   10.7516   11.6807 C   0  0  0  0  0  0  0  0  0  0  0  0
   46.1141   11.6963   12.2295 N   0  0  0  0  0  0  0  0  0  0  0  0
   43.2415    8.9410   10.8458 N   0  0  0  0  0  0  0  0  0  0  0  0
   48.0613    5.8376   13.7479 H   0  0  0  0  0  0  0  0  0  0  0  0
   48.0046    7.6018   13.6892 H   0  0  0  0  0  0  0  0  0  0  0  0
   48.1475    6.6670   12.1850 H   0  0  0  0  0  0  0  0  0  0  0  0
   45.7259    6.6631   14.0719 H   0  0  0  0  0  0  0  0  0  0  0  0
   45.8998    5.6358   12.6525 H   0  0  0  0  0  0  0  0  0  0  0  0
   44.5051    7.4553   12.0246 H   0  0  0  0  0  0  0  0  0  0  0  0
   46.0405    7.6775   11.1920 H   0  0  0  0  0  0  0  0  0  0  0  0
   46.7328    9.3454   12.9487 H   0  0  0  0  0  0  0  0  0  0  0  0
   45.1821    9.1351   13.7538 H   0  0  0  0  0  0  0  0  0  0  0  0
   45.3670   11.1730   12.2951 H   0  0  0  0  0  0  0  0  0  0  0  0
   45.5764   10.1471   10.8848 H   0  0  0  0  0  0  0  0  0  0  0  0
   43.1029   10.1135   12.7134 H   0  0  0  0  0  0  0  0  0  0  0  0
   43.2741    9.1749   11.2493 H   0  0  0  0  0  0  0  0  0  0  0  0
   42.5354   12.4604   12.6507 H   0  0  0  0  0  0  0  0  0  0  0  0
   41.6665   14.3629   11.3597 H   0  0  0  0  0  0  0  0  0  0  0  0
   42.5320   12.3085    7.6886 H   0  0  0  0  0  0  0  0  0  0  0  0
   41.2534   15.1659    9.2852 H   0  0  0  0  0  0  0  0  0  0  0  0
   43.4548   10.2868    7.9124 H   0  0  0  0  0  0  0  0  0  0  0  0
   47.6842    6.9655   12.8030 H   0  0  0  0  0  0  0  0  0  0  0  0
   42.1201   14.0576   10.5906 H   0  0  0  0  0  0  0  0  0  0  0  0
   45.8755    5.4822   11.9650 H   0  0  0  0  0  0  0  0  0  0  0  0
   40.4700   12.3456    9.8595 H   0  0  0  0  0  0  0  0  0  0  0  0
   47.4157    9.3949   12.7042 H   0  0  0  0  0  0  0  0  0  0  0  0
   44.3240   13.3472   11.4344 H   0  0  0  0  0  0  0  0  0  0  0  0
   43.8055    6.4691   11.0483 H   0  0  0  0  0  0  0  0  0  0  0  0
   41.0491    9.9463    9.9929 H   0  0  0  0  0  0  0  0  0  0  0  0
   45.8459   11.9166   13.1876 H   0  0  0  0  0  0  0  0  0  0  0  0
   47.0745   11.3713   12.2046 H   0  0  0  0  0  0  0  0  0  0  0  0
  2  1  1  0
  3  2  1  0
  4  3  1  0
  5  4  1  0
  6  5  1  0
  8  7  2  0
 10  6  1  0
 10  7  1  0
 11  8  1  0
 11  9  2  0
 12  9  1  0
 12 10  2  0
 13 11  1  0
 14 12  1  0
 17 15  2  0
 18 16  1  0
 19 15  1  0
 20 16  2  0
 21 17  1  0
 22 18  2  0
 23 19  2  0
 24 20  1  0
 25 21  2  0
 25 23  1  0
 26 22  1  0
 26 24  1  0
 27 23  1  0
 27 24  2  0
 28 27  1  0
 29 25  1  0
 29 26  2  0
  1 30  1  0
  1 31  1  0
  1 32  1  0
  2 33  1  0
  2 34  1  0
  3 35  1  0
  3 36  1  0
  4 37  1  0
  4 38  1  0
  5 39  1  0
  5 40  1  0
  6 41  1  0
  6 42  1  0
  7 43  1  0
  8 44  1  0
  9 45  1  0
 13 46  1  0
 14 47  1  0
 15 48  1  0
 16 49  1  0
 17 50  1  0
 18 51  1  0
 19 52  1  0
 20 53  1  0
 21 54  1  0
 22 55  1  0
 28 56  1  0
 28 57  1  0
M  END
> <Uni-Dock RESULT> 
ENERGY=   -5.533  LOWER_BOUND=    9.104  UPPER_BOUND=   10.901
INTER + INTRA:          -5.533
INTER:                  -5.533
INTRA:                   0.000
UNBOUND:                 0.000

$$$$

     RDKit          3D

 57 59  0  0  0  0  0  0  0  0999 V2000
   47.9349   13.5315   16.8838 C   0  0  0  0  0  0  0  0  0  0  0  0
   46.9954   13.2331   18.0426 C   0  0  0  0  0  0  0  0  0  0  0  0
   47.5300   12.1674   19.0029 C   0  0  0  0  0  0  0  0  0  0  0  0
   47.5803   10.7680   18.3836 C   0  0  0  0  0  0  0  0  0  0  0  0
   48.1414    9.7070   19.3363 C   0  0  0  0  0  0  0  0  0  0  0  0
   47.2258    9.4166   20.5293 C   0  0  0  0  0  0  0  0  0  0  0  0
   47.3017    6.9808   21.1828 C   0  0  0  0  0  0  0  0  0  0  0  0
   47.7967    5.9255   21.9526 C   0  0  0  0  0  0  0  0  0  0  0  0
   49.2360    7.4695   23.1363 C   0  0  0  0  0  0  0  0  0  0  0  0
   47.7629    8.2917   21.3831 C   0  0  0  0  0  0  0  0  0  0  0  0
   48.7595    6.1812   22.9233 C   0  0  0  0  0  0  0  0  0  0  0  0
   48.7370    8.5167   22.3638 C   0  0  0  0  0  0  0  0  0  0  0  0
   49.2678    5.1805   23.6991 O   0  0  0  0  0  0  0  0  0  0  0  0
   49.1985    9.7894   22.5557 O   0  0  0  0  0  0  0  0  0  0  0  0
   48.0853   12.7428   18.0188 C   0  0  0  0  0  0  0  0  0  0  0  0
   47.9938    6.5046   21.8956 C   0  0  0  0  0  0  0  0  0  0  0  0
   47.5202   13.3446   19.1320 C   0  0  0  0  0  0  0  0  0  0  0  0
   47.4111    7.2415   22.9161 C   0  0  0  0  0  0  0  0  0  0  0  0
   48.4106   11.3871   18.0624 C   0  0  0  0  0  0  0  0  0  0  0  0
   48.3545    7.1441   20.7110 C   0  0  0  0  0  0  0  0  0  0  0  0
   47.2781   12.5838   20.2767 C   0  0  0  0  0  0  0  0  0  0  0  0
   47.1948    8.6105   22.7423 C   0  0  0  0  0  0  0  0  0  0  0  0
   48.1772   10.6080   19.2252 C   0  0  0  0  0  0  0  0  0  0  0  0
   48.1340    8.5301   20.5282 C   0  0  0  0  0  0  0  0  0  0  0  0
   47.5884   11.2318   20.3434 C   0  0  0  0  0  0  0  0  0  0  0  0
   47.5434    9.2681   21.5691 C   0  0  0  0  0  0  0  0  0  0  0  0
   48.4961    9.2298   19.3504 C   0  0  0  0  0  0  0  0  0  0  0  0
   48.9770    8.4819   18.2347 N   0  0  0  0  0  0  0  0  0  0  0  0
   47.2932   10.5815   21.4773 N   0  0  0  0  0  0  0  0  0  0  0  0
   47.5421   14.3617   16.2877 H   0  0  0  0  0  0  0  0  0  0  0  0
   48.0414   12.6690   16.2192 H   0  0  0  0  0  0  0  0  0  0  0  0
   48.9280   13.8160   17.2465 H   0  0  0  0  0  0  0  0  0  0  0  0
   46.0171   12.9292   17.6526 H   0  0  0  0  0  0  0  0  0  0  0  0
   46.8385   14.1603   18.6065 H   0  0  0  0  0  0  0  0  0  0  0  0
   46.8765   12.1549   19.8821 H   0  0  0  0  0  0  0  0  0  0  0  0
   48.5286   12.4547   19.3523 H   0  0  0  0  0  0  0  0  0  0  0  0
   48.2176   10.7839   17.4925 H   0  0  0  0  0  0  0  0  0  0  0  0
   46.5781   10.4728   18.0514 H   0  0  0  0  0  0  0  0  0  0  0  0
   48.2948    8.7819   18.7648 H   0  0  0  0  0  0  0  0  0  0  0  0
   49.1335   10.0193   19.6870 H   0  0  0  0  0  0  0  0  0  0  0  0
   46.2211    9.1562   20.1731 H   0  0  0  0  0  0  0  0  0  0  0  0
   47.0971   10.3082   21.1527 H   0  0  0  0  0  0  0  0  0  0  0  0
   46.5523    6.7765   20.4212 H   0  0  0  0  0  0  0  0  0  0  0  0
   47.4232    4.9217   21.7786 H   0  0  0  0  0  0  0  0  0  0  0  0
   49.9892    7.6357   23.8991 H   0  0  0  0  0  0  0  0  0  0  0  0
   48.8337    4.3473   23.4518 H   0  0  0  0  0  0  0  0  0  0  0  0
   49.8689    9.7719   23.2583 H   0  0  0  0  0  0  0  0  0  0  0  0
   48.2748   13.3232   17.1195 H   0  0  0  0  0  0  0  0  0  0  0  0
   48.1742    5.4402   22.0186 H   0  0  0  0  0  0  0  0  0  0  0  0
   47.2619   14.4000   19.1167 H   0  0  0  0  0  0  0  0  0  0  0  0
   47.1260    6.7607   23.8477 H   0  0  0  0  0  0  0  0  0  0  0  0
   48.8502   10.9462   17.1731 H   0  0  0  0  0  0  0  0  0  0  0  0
   48.8260    6.5608   19.9226 H   0  0  0  0  0  0  0  0  0  0  0  0
   46.8266   13.0597   21.1448 H   0  0  0  0  0  0  0  0  0  0  0  0
   46.7381    9.1832   23.5464 H   0  0  0  0  0  0  0  0  0  0  0  0
   48.1909    8.0647   17.7382 H   0  0  0  0  0  0  0  0  0  0  0  0
   49.5321    9.0416   17.5966 H   0  0  0  0  0  0  0  0  0  0  0  0
  2  1  1  0
  3  2  1  0
  4  3  1  0
  5  4  1  0
  6  5  1  0
  8  7  2  0
 10  6  1  0
 10  7  1  0
 11  8  1  0
 11  9  2  0
 12  9  1  0
 12 10  2  0
 13 11  1  0
 14 12  1  0
 17 15  2  0
 18 16  1  0
 19 15  1  0
 20 16  2  0
 21 17  1  0
 22 18  2  0
 23 19  2  0
 24 20  1  0
 25 21  2  0
 25 23  1  0
 26 22  1  0
 26 24  1  0
 27 23  1  0
 27 24  2  0
 28 27  1  0
 29 25  1  0
 29 26  2  0
  1 30  1  0
  1 31  1  0
  1 32  1  0
  2 33  1  0
  2 34  1  0
  3 35  1  0
  3 36  1  0
  4 37  1  0
  4 38  1  0
  5 39  1  0
  5 40  1  0
  6 41  1  0
  6 42  1  0
  7 43  1  0
  8 44  1  0
  9 45  1  0
 13 46  1  0
 14 47  1  0
 15 48  1  0
 16 49  1  0
 17 50  1  0
 18 51  1  0
 19 52  1  0
 20 53  1  0
 21 54  1  0
 22 55  1  0
 28 56  1  0
 28 57  1  0
M  END
> <Uni-Dock RESULT> 
ENERGY=   -5.397  LOWER_BOUND=    3.560  UPPER_BOUND=    4.880
INTER + INTRA:          -5.397
INTER:                  -5.397
INTRA:                   0.000
UNBOUND:                 0.000

$$$$

     RDKit          3D

 57 59  0  0  0  0  0  0  0  0999 V2000
   47.5512    5.7189   21.5669 C   0  0  0  0  0  0  0  0  0  0  0  0
   48.1533    7.0227   22.0687 C   0  0  0  0  0  0  0  0  0  0  0  0
   47.8019    8.2321   21.1982 C   0  0  0  0  0  0  0  0  0  0  0  0
   48.4608    8.1929   19.8168 C   0  0  0  0  0  0  0  0  0  0  0  0
   48.0865    9.3899   18.9361 C   0  0  0  0  0  0  0  0  0  0  0  0
   48.6546   10.7187   19.4435 C   0  0  0  0  0  0  0  0  0  0  0  0
   49.3087   12.2343   17.5354 C   0  0  0  0  0  0  0  0  0  0  0  0
   49.0435   13.2712   16.6376 C   0  0  0  0  0  0  0  0  0  0  0  0
   46.8545   13.5629   17.6273 C   0  0  0  0  0  0  0  0  0  0  0  0
   48.3541   11.8529   18.4917 C   0  0  0  0  0  0  0  0  0  0  0  0
   47.8178   13.9261   16.6934 C   0  0  0  0  0  0  0  0  0  0  0  0
   47.1270   12.5272   18.5193 C   0  0  0  0  0  0  0  0  0  0  0  0
   47.5188   14.9458   15.8375 O   0  0  0  0  0  0  0  0  0  0  0  0
   46.1889   12.1526   19.4408 O   0  0  0  0  0  0  0  0  0  0  0  0
   47.3837    7.0358   21.1541 C   0  0  0  0  0  0  0  0  0  0  0  0
   48.6700   12.9706   17.0218 C   0  0  0  0  0  0  0  0  0  0  0  0
   47.3328    7.9024   22.2345 C   0  0  0  0  0  0  0  0  0  0  0  0
   48.6110   13.7034   18.1980 C   0  0  0  0  0  0  0  0  0  0  0  0
   47.5915    7.5474   19.8733 C   0  0  0  0  0  0  0  0  0  0  0  0
   48.4575   11.5938   17.0631 C   0  0  0  0  0  0  0  0  0  0  0  0
   47.4978    9.2725   22.0257 C   0  0  0  0  0  0  0  0  0  0  0  0
   48.3401   13.0526   19.4039 C   0  0  0  0  0  0  0  0  0  0  0  0
   47.7503    8.9397   19.6501 C   0  0  0  0  0  0  0  0  0  0  0  0
   48.1866   10.9290   18.2828 C   0  0  0  0  0  0  0  0  0  0  0  0
   47.7106    9.8058   20.7612 C   0  0  0  0  0  0  0  0  0  0  0  0
   48.1282   11.6811   19.4692 C   0  0  0  0  0  0  0  0  0  0  0  0
   47.9484    9.5352   18.3762 C   0  0  0  0  0  0  0  0  0  0  0  0
   48.1289    8.7339   17.2098 N   0  0  0  0  0  0  0  0  0  0  0  0
   47.8842   11.1312   20.6668 N   0  0  0  0  0  0  0  0  0  0  0  0
   47.7600    4.9124   22.2774 H   0  0  0  0  0  0  0  0  0  0  0  0
   47.9731    5.4256   20.6011 H   0  0  0  0  0  0  0  0  0  0  0  0
   46.4647    5.8031   21.4609 H   0  0  0  0  0  0  0  0  0  0  0  0
   49.2420    6.9189   22.1438 H   0  0  0  0  0  0  0  0  0  0  0  0
   47.7809    7.2063   23.0835 H   0  0  0  0  0  0  0  0  0  0  0  0
   48.1266    9.1316   21.7329 H   0  0  0  0  0  0  0  0  0  0  0  0
   46.7134    8.3023   21.0883 H   0  0  0  0  0  0  0  0  0  0  0  0
   48.1527    7.2836   19.2889 H   0  0  0  0  0  0  0  0  0  0  0  0
   49.5505    8.1419   19.9265 H   0  0  0  0  0  0  0  0  0  0  0  0
   48.4634    9.1990   17.9225 H   0  0  0  0  0  0  0  0  0  0  0  0
   46.9940    9.4527   18.8507 H   0  0  0  0  0  0  0  0  0  0  0  0
   49.7405   10.6328   19.5770 H   0  0  0  0  0  0  0  0  0  0  0  0
   48.2534   10.9662   20.4323 H   0  0  0  0  0  0  0  0  0  0  0  0
   50.2665   11.7210   17.4857 H   0  0  0  0  0  0  0  0  0  0  0  0
   49.7984   13.5472   15.9086 H   0  0  0  0  0  0  0  0  0  0  0  0
   45.9072   14.0913   17.6434 H   0  0  0  0  0  0  0  0  0  0  0  0
   48.2846   15.0983   15.2594 H   0  0  0  0  0  0  0  0  0  0  0  0
   45.4007   12.7077   19.3220 H   0  0  0  0  0  0  0  0  0  0  0  0
   47.2612    5.9662   21.3039 H   0  0  0  0  0  0  0  0  0  0  0  0
   48.8734   13.4638   16.0752 H   0  0  0  0  0  0  0  0  0  0  0  0
   47.1702    7.5219   23.2393 H   0  0  0  0  0  0  0  0  0  0  0  0
   48.7711   14.7780   18.1849 H   0  0  0  0  0  0  0  0  0  0  0  0
   47.6276    6.8415   19.0492 H   0  0  0  0  0  0  0  0  0  0  0  0
   48.4895   11.0301   16.1329 H   0  0  0  0  0  0  0  0  0  0  0  0
   47.4652    9.9472   22.8786 H   0  0  0  0  0  0  0  0  0  0  0  0
   48.2945   13.6328   20.3229 H   0  0  0  0  0  0  0  0  0  0  0  0
   49.1215    8.5491   17.0719 H   0  0  0  0  0  0  0  0  0  0  0  0
   47.6162    7.8597   17.2506 H   0  0  0  0  0  0  0  0  0  0  0  0
  2  1  1  0
  3  2  1  0
  4  3  1  0
  5  4  1  0
  6  5  1  0
  8  7  2  0
 10  6  1  0
 10  7  1  0
 11  8  1  0
 11  9  2  0
 12  9  1  0
 12 10  2  0
 13 11  1  0
 14 12  1  0
 17 15  2  0
 18 16  1  0
 19 15  1  0
 20 16  2  0
 21 17  1  0
 22 18  2  0
 23 19  2  0
 24 20  1  0
 25 21  2  0
 25 23  1  0
 26 22  1  0
 26 24  1  0
 27 23  1  0
 27 24  2  0
 28 27  1  0
 29 25  1  0
 29 26  2  0
  1 30  1  0
  1 31  1  0
  1 32  1  0
  2 33  1  0
  2 34  1  0
  3 35  1  0
  3 36  1  0
  4 37  1  0
  4 38  1  0
  5 39  1  0
  5 40  1  0
  6 41  1  0
  6 42  1  0
  7 43  1  0
  8 44  1  0
  9 45  1  0
 13 46  1  0
 14 47  1  0
 15 48  1  0
 16 49  1  0
 17 50  1  0
 18 51  1  0
 19 52  1  0
 20 53  1  0
 21 54  1  0
 22 55  1  0
 28 56  1  0
 28 57  1  0
M  END
> <Uni-Dock RESULT> 
ENERGY=   -5.188  LOWER_BOUND=    3.947  UPPER_BOUND=    6.739
INTER + INTRA:          -5.188
INTER:                  -5.188
INTRA:                   0.000
UNBOUND:                 0.000

$$$$
