
     RDKit          3D

 57 59  0  0  0  0  0  0  0  0999 V2000
   48.8820   10.8956   13.5146 C   0  0  0  0  0  0  0  0  0  0  0  0
   47.5971   10.7560   12.7138 C   0  0  0  0  0  0  0  0  0  0  0  0
   47.0222    9.3427   12.8188 C   0  0  0  0  0  0  0  0  0  0  0  0
   45.7316    9.2085   12.0078 C   0  0  0  0  0  0  0  0  0  0  0  0
   45.0515    7.8459   12.1699 C   0  0  0  0  0  0  0  0  0  0  0  0
   45.8677    6.6881   11.5882 C   0  0  0  0  0  0  0  0  0  0  0  0
   44.3658    4.9458   10.5567 C   0  0  0  0  0  0  0  0  0  0  0  0
   43.6500    3.7491   10.6123 C   0  0  0  0  0  0  0  0  0  0  0  0
   44.4003    3.3976   12.8856 C   0  0  0  0  0  0  0  0  0  0  0  0
   45.1125    5.3816   11.6620 C   0  0  0  0  0  0  0  0  0  0  0  0
   43.6734    2.9856   11.7728 C   0  0  0  0  0  0  0  0  0  0  0  0
   45.1134    4.5960   12.8220 C   0  0  0  0  0  0  0  0  0  0  0  0
   42.9579    1.8238   11.7789 O   0  0  0  0  0  0  0  0  0  0  0  0
   45.8303    5.0263   13.9042 O   0  0  0  0  0  0  0  0  0  0  0  0
   47.6269   10.2557   12.6618 C   0  0  0  0  0  0  0  0  0  0  0  0
   44.4613    3.6501   12.1133 C   0  0  0  0  0  0  0  0  0  0  0  0
   46.4299   10.7791   12.1957 C   0  0  0  0  0  0  0  0  0  0  0  0
   43.3428    4.3182   11.6407 C   0  0  0  0  0  0  0  0  0  0  0  0
   47.7632    8.8750   12.7950 C   0  0  0  0  0  0  0  0  0  0  0  0
   45.6096    4.3747   12.4328 C   0  0  0  0  0  0  0  0  0  0  0  0
   45.3809    9.9171   11.8672 C   0  0  0  0  0  0  0  0  0  0  0  0
   43.3797    5.7060   11.4984 C   0  0  0  0  0  0  0  0  0  0  0  0
   46.7022    7.9974   12.4670 C   0  0  0  0  0  0  0  0  0  0  0  0
   45.6597    5.7848   12.2818 C   0  0  0  0  0  0  0  0  0  0  0  0
   45.4935    8.5381   11.9945 C   0  0  0  0  0  0  0  0  0  0  0  0
   44.5089    6.4504   11.8134 C   0  0  0  0  0  0  0  0  0  0  0  0
   46.7955    6.5873   12.5697 C   0  0  0  0  0  0  0  0  0  0  0  0
   47.9616    6.0236   13.1675 N   0  0  0  0  0  0  0  0  0  0  0  0
   44.4374    7.7807   11.6675 N   0  0  0  0  0  0  0  0  0  0  0  0
   49.2750   11.9133   13.4260 H   0  0  0  0  0  0  0  0  0  0  0  0
   49.6479   10.2028   13.1516 H   0  0  0  0  0  0  0  0  0  0  0  0
   48.7073   10.6901   14.5756 H   0  0  0  0  0  0  0  0  0  0  0  0
   47.7992   10.9985   11.6640 H   0  0  0  0  0  0  0  0  0  0  0  0
   46.8647   11.4847   13.0803 H   0  0  0  0  0  0  0  0  0  0  0  0
   47.7687    8.6256   12.4597 H   0  0  0  0  0  0  0  0  0  0  0  0
   46.8223    9.1051   13.8707 H   0  0  0  0  0  0  0  0  0  0  0  0
   45.0245    9.9830   12.3300 H   0  0  0  0  0  0  0  0  0  0  0  0
   45.9389    9.3926   10.9466 H   0  0  0  0  0  0  0  0  0  0  0  0
   44.0766    7.8899   11.6671 H   0  0  0  0  0  0  0  0  0  0  0  0
   44.8416    7.6660   13.2317 H   0  0  0  0  0  0  0  0  0  0  0  0
   46.8253    6.5799   12.1101 H   0  0  0  0  0  0  0  0  0  0  0  0
   46.1231    6.9017   10.5423 H   0  0  0  0  0  0  0  0  0  0  0  0
   44.3368    5.5385    9.6453 H   0  0  0  0  0  0  0  0  0  0  0  0
   43.0753    3.4157    9.7529 H   0  0  0  0  0  0  0  0  0  0  0  0
   44.4105    2.7977   13.7877 H   0  0  0  0  0  0  0  0  0  0  0  0
   43.0632    1.3941   12.6429 H   0  0  0  0  0  0  0  0  0  0  0  0
   45.7325    4.3843   14.6253 H   0  0  0  0  0  0  0  0  0  0  0  0
   48.4538   10.9133   12.9153 H   0  0  0  0  0  0  0  0  0  0  0  0
   44.4441    2.5699   12.2329 H   0  0  0  0  0  0  0  0  0  0  0  0
   46.3063   11.8527   12.0830 H   0  0  0  0  0  0  0  0  0  0  0  0
   42.4400    3.7698   11.3856 H   0  0  0  0  0  0  0  0  0  0  0  0
   48.7115    8.4731   13.1458 H   0  0  0  0  0  0  0  0  0  0  0  0
   46.4674    3.8211   12.8018 H   0  0  0  0  0  0  0  0  0  0  0  0
   44.4448   10.3335   11.5017 H   0  0  0  0  0  0  0  0  0  0  0  0
   42.4960    6.2263   11.1347 H   0  0  0  0  0  0  0  0  0  0  0  0
   47.8901    6.0868   14.1820 H   0  0  0  0  0  0  0  0  0  0  0  0
   48.1183    5.0605   12.8911 H   0  0  0  0  0  0  0  0  0  0  0  0
  2  1  1  0
  3  2  1  0
  4  3  1  0
  5  4  1  0
  6  5  1  0
  8  7  2  0
 10  6  1  0
 10  7  1  0
 11  8  1  0
 11  9  2  0
 12  9  1  0
 12 10  2  0
 13 11  1  0
 14 12  1  0
 17 15  2  0
 18 16  1  0
 19 15  1  0
 20 16  2  0
 21 17  1  0
 22 18  2  0
 23 19  2  0
 24 20  1  0
 25 21  2  0
 25 23  1  0
 26 22  1  0
 26 24  1  0
 27 23  1  0
 27 24  2  0
 28 27  1  0
 29 25  1  0
 29 26  2  0
  1 30  1  0
  1 31  1  0
  1 32  1  0
  2 33  1  0
  2 34  1  0
  3 35  1  0
  3 36  1  0
  4 37  1  0
  4 38  1  0
  5 39  1  0
  5 40  1  0
  6 41  1  0
  6 42  1  0
  7 43  1  0
  8 44  1  0
  9 45  1  0
 13 46  1  0
 14 47  1  0
 15 48  1  0
 16 49  1  0
 17 50  1  0
 18 51  1  0
 19 52  1  0
 20 53  1  0
 21 54  1  0
 22 55  1  0
 28 56  1  0
 28 57  1  0
M  END
> <Uni-Dock RESULT> 
ENERGY=   -7.020  LOWER_BOUND=    0.000  UPPER_BOUND=    0.000
INTER + INTRA:          -7.020
INTER:                  -7.020
INTRA:                   0.000
UNBOUND:                 0.000

$$$$

     RDKit          3D

 57 59  0  0  0  0  0  0  0  0999 V2000
   49.0135   10.4309   14.4355 C   0  0  0  0  0  0  0  0  0  0  0  0
   47.9153   10.3840   13.3850 C   0  0  0  0  0  0  0  0  0  0  0  0
   47.2197    9.0222   13.3620 C   0  0  0  0  0  0  0  0  0  0  0  0
   46.1185    8.9810   12.3004 C   0  0  0  0  0  0  0  0  0  0  0  0
   45.3126    7.6788   12.3118 C   0  0  0  0  0  0  0  0  0  0  0  0
   46.1360    6.4529   11.9066 C   0  0  0  0  0  0  0  0  0  0  0  0
   44.7455    4.8229   10.5782 C   0  0  0  0  0  0  0  0  0  0  0  0
   43.9401    3.6875   10.4786 C   0  0  0  0  0  0  0  0  0  0  0  0
   44.1727    3.3053   12.8565 C   0  0  0  0  0  0  0  0  0  0  0  0
   45.2796    5.2114   11.8162 C   0  0  0  0  0  0  0  0  0  0  0  0
   43.6613    2.9387   11.6152 C   0  0  0  0  0  0  0  0  0  0  0  0
   44.9772    4.4424   12.9476 C   0  0  0  0  0  0  0  0  0  0  0  0
   42.8693    1.8377   11.4676 O   0  0  0  0  0  0  0  0  0  0  0  0
   45.4866    4.8276   14.1569 O   0  0  0  0  0  0  0  0  0  0  0  0
   47.9150    9.8823   13.3380 C   0  0  0  0  0  0  0  0  0  0  0  0
   44.4123    3.5427   12.1148 C   0  0  0  0  0  0  0  0  0  0  0  0
   46.8864   10.4934   12.6362 C   0  0  0  0  0  0  0  0  0  0  0  0
   43.4732    4.2917   11.4235 C   0  0  0  0  0  0  0  0  0  0  0  0
   47.9096    8.4969   13.4903 C   0  0  0  0  0  0  0  0  0  0  0  0
   45.5239    4.1777   12.6687 C   0  0  0  0  0  0  0  0  0  0  0  0
   45.8625    9.7135   12.0934 C   0  0  0  0  0  0  0  0  0  0  0  0
   43.6500    5.6704   11.2983 C   0  0  0  0  0  0  0  0  0  0  0  0
   46.8727    7.7024   12.9454 C   0  0  0  0  0  0  0  0  0  0  0  0
   45.7171    5.5775   12.5379 C   0  0  0  0  0  0  0  0  0  0  0  0
   45.8353    8.3316   12.2349 C   0  0  0  0  0  0  0  0  0  0  0  0
   44.7454    6.3265   11.8441 C   0  0  0  0  0  0  0  0  0  0  0  0
   46.8293    6.2907   13.0587 C   0  0  0  0  0  0  0  0  0  0  0  0
   47.7973    5.6435   13.8828 N   0  0  0  0  0  0  0  0  0  0  0  0
   44.8125    7.6564   11.6926 N   0  0  0  0  0  0  0  0  0  0  0  0
   49.4967   11.4131   14.4350 H   0  0  0  0  0  0  0  0  0  0  0  0
   49.7799    9.6752   14.2360 H   0  0  0  0  0  0  0  0  0  0  0  0
   48.6070   10.2529   15.4362 H   0  0  0  0  0  0  0  0  0  0  0  0
   48.3492   10.5969   12.4011 H   0  0  0  0  0  0  0  0  0  0  0  0
   47.1837   11.1730   13.5950 H   0  0  0  0  0  0  0  0  0  0  0  0
   47.9644    8.2437   13.1623 H   0  0  0  0  0  0  0  0  0  0  0  0
   46.7880    8.8141   14.3485 H   0  0  0  0  0  0  0  0  0  0  0  0
   45.4244    9.8131   12.4724 H   0  0  0  0  0  0  0  0  0  0  0  0
   46.5551    9.1352   11.3061 H   0  0  0  0  0  0  0  0  0  0  0  0
   44.4696    7.7940   11.6179 H   0  0  0  0  0  0  0  0  0  0  0  0
   44.8735    7.5290   13.3061 H   0  0  0  0  0  0  0  0  0  0  0  0
   46.9529    6.2753   12.6153 H   0  0  0  0  0  0  0  0  0  0  0  0
   46.6187    6.6328   10.9374 H   0  0  0  0  0  0  0  0  0  0  0  0
   44.9534    5.4048    9.6832 H   0  0  0  0  0  0  0  0  0  0  0  0
   43.5309    3.3904    9.5172 H   0  0  0  0  0  0  0  0  0  0  0  0
   43.9477    2.7175   13.7383 H   0  0  0  0  0  0  0  0  0  0  0  0
   42.7585    1.4114   12.3326 H   0  0  0  0  0  0  0  0  0  0  0  0
   45.1905    4.2042   14.8391 H   0  0  0  0  0  0  0  0  0  0  0  0
   48.7215   10.4753   13.7605 H   0  0  0  0  0  0  0  0  0  0  0  0
   44.2842    2.4688   12.2232 H   0  0  0  0  0  0  0  0  0  0  0  0
   46.8753   11.5720   12.5052 H   0  0  0  0  0  0  0  0  0  0  0  0
   42.6018    3.8136   10.9842 H   0  0  0  0  0  0  0  0  0  0  0  0
   48.7293    8.0253   14.0283 H   0  0  0  0  0  0  0  0  0  0  0  0
   46.2395    3.5623   13.2051 H   0  0  0  0  0  0  0  0  0  0  0  0
   45.0588   10.1984   11.5436 H   0  0  0  0  0  0  0  0  0  0  0  0
   42.9054    6.2547   10.7616 H   0  0  0  0  0  0  0  0  0  0  0  0
   47.5226    5.7246   14.8607 H   0  0  0  0  0  0  0  0  0  0  0  0
   47.9301    4.6677   13.6405 H   0  0  0  0  0  0  0  0  0  0  0  0
  2  1  1  0
  3  2  1  0
  4  3  1  0
  5  4  1  0
  6  5  1  0
  8  7  2  0
 10  6  1  0
 10  7  1  0
 11  8  1  0
 11  9  2  0
 12  9  1  0
 12 10  2  0
 13 11  1  0
 14 12  1  0
 17 15  2  0
 18 16  1  0
 19 15  1  0
 20 16  2  0
 21 17  1  0
 22 18  2  0
 23 19  2  0
 24 20  1  0
 25 21  2  0
 25 23  1  0
 26 22  1  0
 26 24  1  0
 27 23  1  0
 27 24  2  0
 28 27  1  0
 29 25  1  0
 29 26  2  0
  1 30  1  0
  1 31  1  0
  1 32  1  0
  2 33  1  0
  2 34  1  0
  3 35  1  0
  3 36  1  0
  4 37  1  0
  4 38  1  0
  5 39  1  0
  5 40  1  0
  6 41  1  0
  6 42  1  0
  7 43  1  0
  8 44  1  0
  9 45  1  0
 13 46  1  0
 14 47  1  0
 15 48  1  0
 16 49  1  0
 17 50  1  0
 18 51  1  0
 19 52  1  0
 20 53  1  0
 21 54  1  0
 22 55  1  0
 28 56  1  0
 28 57  1  0
M  END
> <Uni-Dock RESULT> 
ENERGY=   -6.710  LOWER_BOUND=    0.522  UPPER_BOUND=    0.525
INTER + INTRA:          -6.710
INTER:                  -6.710
INTRA:                   0.000
UNBOUND:                 0.000

$$$$

     RDKit          3D

 57 59  0  0  0  0  0  0  0  0999 V2000
   47.6482   11.7445   12.0417 C   0  0  0  0  0  0  0  0  0  0  0  0
   47.9022   10.5312   12.9221 C   0  0  0  0  0  0  0  0  0  0  0  0
   47.1385    9.3050   12.4203 C   0  0  0  0  0  0  0  0  0  0  0  0
   47.3959    8.0891   13.3129 C   0  0  0  0  0  0  0  0  0  0  0  0
   46.7464    6.8042   12.7909 C   0  0  0  0  0  0  0  0  0  0  0  0
   45.2158    6.8466   12.8127 C   0  0  0  0  0  0  0  0  0  0  0  0
   44.2522    4.5887   13.3854 C   0  0  0  0  0  0  0  0  0  0  0  0
   43.7103    3.3542   13.0245 C   0  0  0  0  0  0  0  0  0  0  0  0
   43.8917    3.9501   10.6865 C   0  0  0  0  0  0  0  0  0  0  0  0
   44.6156    5.5220   12.4027 C   0  0  0  0  0  0  0  0  0  0  0  0
   43.5337    3.0454   11.6814 C   0  0  0  0  0  0  0  0  0  0  0  0
   44.4332    5.1825   11.0558 C   0  0  0  0  0  0  0  0  0  0  0  0
   43.0007    1.8266   11.3785 O   0  0  0  0  0  0  0  0  0  0  0  0
   44.7992    6.0864   10.0969 O   0  0  0  0  0  0  0  0  0  0  0  0
   47.4796   10.2890   12.7934 C   0  0  0  0  0  0  0  0  0  0  0  0
   43.7717    4.0854   11.4809 C   0  0  0  0  0  0  0  0  0  0  0  0
   48.3266    9.5217   13.5795 C   0  0  0  0  0  0  0  0  0  0  0  0
   44.6883    3.4606   12.3117 C   0  0  0  0  0  0  0  0  0  0  0  0
   46.3876    9.6840   12.1737 C   0  0  0  0  0  0  0  0  0  0  0  0
   43.8640    5.4609   11.2685 C   0  0  0  0  0  0  0  0  0  0  0  0
   48.0734    8.1573   13.7386 C   0  0  0  0  0  0  0  0  0  0  0  0
   45.6939    4.2155   12.9172 C   0  0  0  0  0  0  0  0  0  0  0  0
   46.1287    8.3011   12.3286 C   0  0  0  0  0  0  0  0  0  0  0  0
   44.8770    6.2382   11.8878 C   0  0  0  0  0  0  0  0  0  0  0  0
   46.9926    7.5326   13.1285 C   0  0  0  0  0  0  0  0  0  0  0  0
   45.8098    5.5850   12.7185 C   0  0  0  0  0  0  0  0  0  0  0  0
   45.0245    7.6421   11.7333 C   0  0  0  0  0  0  0  0  0  0  0  0
   44.2107    8.3704   10.8156 N   0  0  0  0  0  0  0  0  0  0  0  0
   46.8249    6.2174   13.3231 N   0  0  0  0  0  0  0  0  0  0  0  0
   48.2041   12.6090   12.4181 H   0  0  0  0  0  0  0  0  0  0  0  0
   46.5848   12.0040   12.0284 H   0  0  0  0  0  0  0  0  0  0  0  0
   47.9693   11.5562   11.0122 H   0  0  0  0  0  0  0  0  0  0  0  0
   47.6000   10.7630   13.9501 H   0  0  0  0  0  0  0  0  0  0  0  0
   48.9777   10.3193   12.9398 H   0  0  0  0  0  0  0  0  0  0  0  0
   46.0676    9.5354   12.3978 H   0  0  0  0  0  0  0  0  0  0  0  0
   47.4442    9.0779   11.3919 H   0  0  0  0  0  0  0  0  0  0  0  0
   48.4776    7.9199   13.3838 H   0  0  0  0  0  0  0  0  0  0  0  0
   47.0415    8.2937   14.3305 H   0  0  0  0  0  0  0  0  0  0  0  0
   47.0941    5.9695   13.4135 H   0  0  0  0  0  0  0  0  0  0  0  0
   47.1056    6.5996   11.7745 H   0  0  0  0  0  0  0  0  0  0  0  0
   44.8341    7.6340   12.1527 H   0  0  0  0  0  0  0  0  0  0  0  0
   44.8653    7.1085   13.8193 H   0  0  0  0  0  0  0  0  0  0  0  0
   44.3909    4.8184   14.4393 H   0  0  0  0  0  0  0  0  0  0  0  0
   43.4290    2.6362   13.7896 H   0  0  0  0  0  0  0  0  0  0  0  0
   43.7535    3.6999    9.6414 H   0  0  0  0  0  0  0  0  0  0  0  0
   42.9318    1.7443   10.4138 H   0  0  0  0  0  0  0  0  0  0  0  0
   44.6169    5.7109    9.2208 H   0  0  0  0  0  0  0  0  0  0  0  0
   47.6602   11.3527   12.6655 H   0  0  0  0  0  0  0  0  0  0  0  0
   42.9863    3.5082   10.9998 H   0  0  0  0  0  0  0  0  0  0  0  0
   49.1814    9.9767   14.0725 H   0  0  0  0  0  0  0  0  0  0  0  0
   44.6308    2.3902   12.4897 H   0  0  0  0  0  0  0  0  0  0  0  0
   45.7197   10.2973   11.5724 H   0  0  0  0  0  0  0  0  0  0  0  0
   43.1315    5.9187   10.6111 H   0  0  0  0  0  0  0  0  0  0  0  0
   48.7408    7.5609   14.3568 H   0  0  0  0  0  0  0  0  0  0  0  0
   46.4158    3.7185   13.5620 H   0  0  0  0  0  0  0  0  0  0  0  0
   44.6703    8.4085    9.9070 H   0  0  0  0  0  0  0  0  0  0  0  0
   43.2812    7.9769   10.7170 H   0  0  0  0  0  0  0  0  0  0  0  0
  2  1  1  0
  3  2  1  0
  4  3  1  0
  5  4  1  0
  6  5  1  0
  8  7  2  0
 10  6  1  0
 10  7  1  0
 11  8  1  0
 11  9  2  0
 12  9  1  0
 12 10  2  0
 13 11  1  0
 14 12  1  0
 17 15  2  0
 18 16  1  0
 19 15  1  0
 20 16  2  0
 21 17  1  0
 22 18  2  0
 23 19  2  0
 24 20  1  0
 25 21  2  0
 25 23  1  0
 26 22  1  0
 26 24  1  0
 27 23  1  0
 27 24  2  0
 28 27  1  0
 29 25  1  0
 29 26  2  0
  1 30  1  0
  1 31  1  0
  1 32  1  0
  2 33  1  0
  2 34  1  0
  3 35  1  0
  3 36  1  0
  4 37  1  0
  4 38  1  0
  5 39  1  0
  5 40  1  0
  6 41  1  0
  6 42  1  0
  7 43  1  0
  8 44  1  0
  9 45  1  0
 13 46  1  0
 14 47  1  0
 15 48  1  0
 16 49  1  0
 17 50  1  0
 18 51  1  0
 19 52  1  0
 20 53  1  0
 21 54  1  0
 22 55  1  0
 28 56  1  0
 28 57  1  0
M  END
> <Uni-Dock RESULT> 
ENERGY=   -6.222  LOWER_BOUND=    1.066  UPPER_BOUND=    2.284
INTER + INTRA:          -6.222
INTER:                  -6.222
INTRA:                   0.000
UNBOUND:                 0.000

$$$$

     RDKit          3D

 57 59  0  0  0  0  0  0  0  0999 V2000
   47.4686   13.4358   17.4476 C   0  0  0  0  0  0  0  0  0  0  0  0
   47.5177   13.4434   18.9672 C   0  0  0  0  0  0  0  0  0  0  0  0
   47.7424   12.0383   19.5276 C   0  0  0  0  0  0  0  0  0  0  0  0
   47.7872   12.0530   21.0570 C   0  0  0  0  0  0  0  0  0  0  0  0
   48.1242   10.6896   21.6677 C   0  0  0  0  0  0  0  0  0  0  0  0
   47.0397    9.6347   21.4310 C   0  0  0  0  0  0  0  0  0  0  0  0
   46.8136    8.1018   23.4195 C   0  0  0  0  0  0  0  0  0  0  0  0
   47.1052    6.9199   24.1020 C   0  0  0  0  0  0  0  0  0  0  0  0
   48.4954    6.1914   22.2605 C   0  0  0  0  0  0  0  0  0  0  0  0
   47.3540    8.3419   22.1470 C   0  0  0  0  0  0  0  0  0  0  0  0
   47.9408    5.9757   23.5185 C   0  0  0  0  0  0  0  0  0  0  0  0
   48.1989    7.3762   21.5847 C   0  0  0  0  0  0  0  0  0  0  0  0
   48.1964    4.8364   24.2244 O   0  0  0  0  0  0  0  0  0  0  0  0
   48.7365    7.6150   20.3500 O   0  0  0  0  0  0  0  0  0  0  0  0
   47.3934   12.9582   19.0219 C   0  0  0  0  0  0  0  0  0  0  0  0
   47.8630    6.5668   22.6113 C   0  0  0  0  0  0  0  0  0  0  0  0
   47.7531   13.5638   20.2168 C   0  0  0  0  0  0  0  0  0  0  0  0
   48.1921    7.3154   23.7303 C   0  0  0  0  0  0  0  0  0  0  0  0
   47.2459   11.5731   18.9750 C   0  0  0  0  0  0  0  0  0  0  0  0
   47.5734    7.2167   21.4116 C   0  0  0  0  0  0  0  0  0  0  0  0
   47.9615   12.7788   21.3532 C   0  0  0  0  0  0  0  0  0  0  0  0
   48.2358    8.7072   23.6382 C   0  0  0  0  0  0  0  0  0  0  0  0
   47.4595   10.7727   20.1226 C   0  0  0  0  0  0  0  0  0  0  0  0
   47.6056    8.6319   21.3110 C   0  0  0  0  0  0  0  0  0  0  0  0
   47.8227   11.3966   21.3292 C   0  0  0  0  0  0  0  0  0  0  0  0
   47.9559    9.3776   22.4547 C   0  0  0  0  0  0  0  0  0  0  0  0
   47.3074    9.3640   20.1313 C   0  0  0  0  0  0  0  0  0  0  0  0
   47.0674    8.6973   18.8931 N   0  0  0  0  0  0  0  0  0  0  0  0
   48.0502   10.7144   22.4601 N   0  0  0  0  0  0  0  0  0  0  0  0
   47.3079   14.4500   17.0685 H   0  0  0  0  0  0  0  0  0  0  0  0
   46.6515   12.8041   17.0846 H   0  0  0  0  0  0  0  0  0  0  0  0
   48.4067   13.0604   17.0266 H   0  0  0  0  0  0  0  0  0  0  0  0
   46.5781   13.8532   19.3556 H   0  0  0  0  0  0  0  0  0  0  0  0
   48.3234   14.1097   19.2970 H   0  0  0  0  0  0  0  0  0  0  0  0
   46.9363   11.3822   19.1810 H   0  0  0  0  0  0  0  0  0  0  0  0
   48.6831   11.6331   19.1357 H   0  0  0  0  0  0  0  0  0  0  0  0
   48.5484   12.7715   21.3858 H   0  0  0  0  0  0  0  0  0  0  0  0
   46.8277   12.4070   21.4533 H   0  0  0  0  0  0  0  0  0  0  0  0
   48.2667   10.8261   22.7477 H   0  0  0  0  0  0  0  0  0  0  0  0
   49.0862   10.3397   21.2729 H   0  0  0  0  0  0  0  0  0  0  0  0
   46.9141    9.4320   20.3613 H   0  0  0  0  0  0  0  0  0  0  0  0
   46.0695   10.0147   21.7761 H   0  0  0  0  0  0  0  0  0  0  0  0
   46.1623    8.8366   23.8874 H   0  0  0  0  0  0  0  0  0  0  0  0
   46.6824    6.7385   25.0861 H   0  0  0  0  0  0  0  0  0  0  0  0
   49.1486    5.4511   21.8142 H   0  0  0  0  0  0  0  0  0  0  0  0
   48.7872    4.2693   23.7033 H   0  0  0  0  0  0  0  0  0  0  0  0
   49.2970    6.8643   20.0974 H   0  0  0  0  0  0  0  0  0  0  0  0
   47.2217   13.5564   18.1312 H   0  0  0  0  0  0  0  0  0  0  0  0
   47.8296    5.4818   22.6686 H   0  0  0  0  0  0  0  0  0  0  0  0
   47.8702   14.6426   20.2728 H   0  0  0  0  0  0  0  0  0  0  0  0
   48.4193    6.8260   24.6736 H   0  0  0  0  0  0  0  0  0  0  0  0
   46.9475   11.1089   18.0373 H   0  0  0  0  0  0  0  0  0  0  0  0
   47.3210    6.6010   20.5540 H   0  0  0  0  0  0  0  0  0  0  0  0
   48.2429   13.2595   22.2876 H   0  0  0  0  0  0  0  0  0  0  0  0
   48.5028    9.2895   24.5177 H   0  0  0  0  0  0  0  0  0  0  0  0
   47.9447    8.5936   18.3852 H   0  0  0  0  0  0  0  0  0  0  0  0
   46.6281    7.7912   19.0136 H   0  0  0  0  0  0  0  0  0  0  0  0
  2  1  1  0
  3  2  1  0
  4  3  1  0
  5  4  1  0
  6  5  1  0
  8  7  2  0
 10  6  1  0
 10  7  1  0
 11  8  1  0
 11  9  2  0
 12  9  1  0
 12 10  2  0
 13 11  1  0
 14 12  1  0
 17 15  2  0
 18 16  1  0
 19 15  1  0
 20 16  2  0
 21 17  1  0
 22 18  2  0
 23 19  2  0
 24 20  1  0
 25 21  2  0
 25 23  1  0
 26 22  1  0
 26 24  1  0
 27 23  1  0
 27 24  2  0
 28 27  1  0
 29 25  1  0
 29 26  2  0
  1 30  1  0
  1 31  1  0
  1 32  1  0
  2 33  1  0
  2 34  1  0
  3 35  1  0
  3 36  1  0
  4 37  1  0
  4 38  1  0
  5 39  1  0
  5 40  1  0
  6 41  1  0
  6 42  1  0
  7 43  1  0
  8 44  1  0
  9 45  1  0
 13 46  1  0
 14 47  1  0
 15 48  1  0
 16 49  1  0
 17 50  1  0
 18 51  1  0
 19 52  1  0
 20 53  1  0
 21 54  1  0
 22 55  1  0
 28 56  1  0
 28 57  1  0
M  END
> <Uni-Dock RESULT> 
ENERGY=   -5.973  LOWER_BOUND=    8.595  UPPER_BOUND=   10.261
INTER + INTRA:          -5.973
INTER:                  -5.973
INTRA:                   0.000
UNBOUND:                 0.000

$$$$

     RDKit          3D

 57 59  0  0  0  0  0  0  0  0999 V2000
   43.3739    2.5040   11.7592 C   0  0  0  0  0  0  0  0  0  0  0  0
   43.2204    4.0140   11.6700 C   0  0  0  0  0  0  0  0  0  0  0  0
   44.5464    4.7286   11.9342 C   0  0  0  0  0  0  0  0  0  0  0  0
   44.3837    6.2476   11.8464 C   0  0  0  0  0  0  0  0  0  0  0  0
   45.7047    7.0091   11.9894 C   0  0  0  0  0  0  0  0  0  0  0  0
   46.3335    6.8762   13.3794 C   0  0  0  0  0  0  0  0  0  0  0  0
   47.4672    9.0185   14.0724 C   0  0  0  0  0  0  0  0  0  0  0  0
   48.5957    9.8307   14.1928 C   0  0  0  0  0  0  0  0  0  0  0  0
   49.9576    8.0986   13.1930 C   0  0  0  0  0  0  0  0  0  0  0  0
   47.5695    7.7343   13.5162 C   0  0  0  0  0  0  0  0  0  0  0  0
   49.8293    9.3655   13.7543 C   0  0  0  0  0  0  0  0  0  0  0  0
   48.8240    7.2926   13.0759 C   0  0  0  0  0  0  0  0  0  0  0  0
   50.9030   10.1958   13.8930 O   0  0  0  0  0  0  0  0  0  0  0  0
   48.9224    6.0461   12.5219 O   0  0  0  0  0  0  0  0  0  0  0  0
   43.6227    4.1202   11.9542 C   0  0  0  0  0  0  0  0  0  0  0  0
   49.3496    8.3978   13.6454 C   0  0  0  0  0  0  0  0  0  0  0  0
   43.0559    5.2456   11.3744 C   0  0  0  0  0  0  0  0  0  0  0  0
   48.6472    9.4316   13.0465 C   0  0  0  0  0  0  0  0  0  0  0  0
   44.8656    4.2244   12.5762 C   0  0  0  0  0  0  0  0  0  0  0  0
   48.7727    7.1302   13.7222 C   0  0  0  0  0  0  0  0  0  0  0  0
   43.7370    6.4642   11.4223 C   0  0  0  0  0  0  0  0  0  0  0  0
   47.3768    9.1872   12.5230 C   0  0  0  0  0  0  0  0  0  0  0  0
   45.5616    5.4559   12.6244 C   0  0  0  0  0  0  0  0  0  0  0  0
   47.4775    6.8747   13.2017 C   0  0  0  0  0  0  0  0  0  0  0  0
   44.9778    6.5908   12.0346 C   0  0  0  0  0  0  0  0  0  0  0  0
   46.7825    7.9336   12.5832 C   0  0  0  0  0  0  0  0  0  0  0  0
   46.8189    5.6177   13.2575 C   0  0  0  0  0  0  0  0  0  0  0  0
   47.4890    4.4577   13.7475 N   0  0  0  0  0  0  0  0  0  0  0  0
   45.5704    7.7928   12.0290 N   0  0  0  0  0  0  0  0  0  0  0  0
   42.4146    2.0135   11.5665 H   0  0  0  0  0  0  0  0  0  0  0  0
   43.7157    2.2024   12.7545 H   0  0  0  0  0  0  0  0  0  0  0  0
   44.0963    2.1389   11.0222 H   0  0  0  0  0  0  0  0  0  0  0  0
   42.4690    4.3429   12.3974 H   0  0  0  0  0  0  0  0  0  0  0  0
   42.8460    4.2786   10.6742 H   0  0  0  0  0  0  0  0  0  0  0  0
   44.9131    4.4462   12.9273 H   0  0  0  0  0  0  0  0  0  0  0  0
   45.2943    4.3958   11.2044 H   0  0  0  0  0  0  0  0  0  0  0  0
   43.9453    6.5048   10.8741 H   0  0  0  0  0  0  0  0  0  0  0  0
   43.6764    6.5902   12.6115 H   0  0  0  0  0  0  0  0  0  0  0  0
   45.5111    8.0692   11.7796 H   0  0  0  0  0  0  0  0  0  0  0  0
   46.4089    6.6675   11.2204 H   0  0  0  0  0  0  0  0  0  0  0  0
   46.5935    5.8339   13.5961 H   0  0  0  0  0  0  0  0  0  0  0  0
   45.6038    7.1650   14.1468 H   0  0  0  0  0  0  0  0  0  0  0  0
   46.5055    9.3942   14.4141 H   0  0  0  0  0  0  0  0  0  0  0  0
   48.5110   10.8233   14.6259 H   0  0  0  0  0  0  0  0  0  0  0  0
   50.9229    7.7449   12.8507 H   0  0  0  0  0  0  0  0  0  0  0  0
   51.6933    9.7480   13.5508 H   0  0  0  0  0  0  0  0  0  0  0  0
   49.8442    5.8849   12.2651 H   0  0  0  0  0  0  0  0  0  0  0  0
   43.1019    3.1670   11.9303 H   0  0  0  0  0  0  0  0  0  0  0  0
   50.3417    8.5739   14.0531 H   0  0  0  0  0  0  0  0  0  0  0  0
   42.0866    5.1839   10.8873 H   0  0  0  0  0  0  0  0  0  0  0  0
   49.0805   10.4259   12.9790 H   0  0  0  0  0  0  0  0  0  0  0  0
   45.2945    3.3398   13.0424 H   0  0  0  0  0  0  0  0  0  0  0  0
   49.3501    6.3425   14.1960 H   0  0  0  0  0  0  0  0  0  0  0  0
   43.2872    7.3434   10.9663 H   0  0  0  0  0  0  0  0  0  0  0  0
   46.8332   10.0005   12.0466 H   0  0  0  0  0  0  0  0  0  0  0  0
   47.9466    3.9755   12.9752 H   0  0  0  0  0  0  0  0  0  0  0  0
   48.1661    4.6716   14.4716 H   0  0  0  0  0  0  0  0  0  0  0  0
  2  1  1  0
  3  2  1  0
  4  3  1  0
  5  4  1  0
  6  5  1  0
  8  7  2  0
 10  6  1  0
 10  7  1  0
 11  8  1  0
 11  9  2  0
 12  9  1  0
 12 10  2  0
 13 11  1  0
 14 12  1  0
 17 15  2  0
 18 16  1  0
 19 15  1  0
 20 16  2  0
 21 17  1  0
 22 18  2  0
 23 19  2  0
 24 20  1  0
 25 21  2  0
 25 23  1  0
 26 22  1  0
 26 24  1  0
 27 23  1  0
 27 24  2  0
 28 27  1  0
 29 25  1  0
 29 26  2  0
  1 30  1  0
  1 31  1  0
  1 32  1  0
  2 33  1  0
  2 34  1  0
  3 35  1  0
  3 36  1  0
  4 37  1  0
  4 38  1  0
  5 39  1  0
  5 40  1  0
  6 41  1  0
  6 42  1  0
  7 43  1  0
  8 44  1  0
  9 45  1  0
 13 46  1  0
 14 47  1  0
 15 48  1  0
 16 49  1  0
 17 50  1  0
 18 51  1  0
 19 52  1  0
 20 53  1  0
 21 54  1  0
 22 55  1  0
 28 56  1  0
 28 57  1  0
M  END
> <Uni-Dock RESULT> 
ENERGY=   -5.866  LOWER_BOUND=    1.894  UPPER_BOUND=    5.795
INTER + INTRA:          -5.866
INTER:                  -5.866
INTRA:                   0.000
UNBOUND:                 0.000

$$$$

     RDKit          3D

 57 59  0  0  0  0  0  0  0  0999 V2000
   47.5650   13.2808   18.5254 C   0  0  0  0  0  0  0  0  0  0  0  0
   47.0284   12.1610   19.4029 C   0  0  0  0  0  0  0  0  0  0  0  0
   47.6715   10.8182   19.0535 C   0  0  0  0  0  0  0  0  0  0  0  0
   47.1244    9.6957   19.9378 C   0  0  0  0  0  0  0  0  0  0  0  0
   47.8175    8.3494   19.7084 C   0  0  0  0  0  0  0  0  0  0  0  0
   47.5555    7.7619   18.3187 C   0  0  0  0  0  0  0  0  0  0  0  0
   47.3658    5.2500   18.4151 C   0  0  0  0  0  0  0  0  0  0  0  0
   47.9086    3.9694   18.3008 C   0  0  0  0  0  0  0  0  0  0  0  0
   50.0528    4.9232   17.7116 C   0  0  0  0  0  0  0  0  0  0  0  0
   48.1570    6.3835   18.1739 C   0  0  0  0  0  0  0  0  0  0  0  0
   49.2442    3.8160   17.9498 C   0  0  0  0  0  0  0  0  0  0  0  0
   49.5023    6.2006   17.8283 C   0  0  0  0  0  0  0  0  0  0  0  0
   49.7291    2.5446   17.8508 O   0  0  0  0  0  0  0  0  0  0  0  0
   50.2776    7.3050   17.6057 O   0  0  0  0  0  0  0  0  0  0  0  0
   47.1428   11.7895   19.0823 C   0  0  0  0  0  0  0  0  0  0  0  0
   49.2395    4.8799   17.7344 C   0  0  0  0  0  0  0  0  0  0  0  0
   46.6866   11.3270   20.3078 C   0  0  0  0  0  0  0  0  0  0  0  0
   48.7188    4.5677   18.9802 C   0  0  0  0  0  0  0  0  0  0  0  0
   47.7102   10.8906   18.1808 C   0  0  0  0  0  0  0  0  0  0  0  0
   49.1489    6.1889   17.2611 C   0  0  0  0  0  0  0  0  0  0  0  0
   46.8017    9.9703   20.6200 C   0  0  0  0  0  0  0  0  0  0  0  0
   48.1183    5.5686   19.7452 C   0  0  0  0  0  0  0  0  0  0  0  0
   47.8326    9.5157   18.4936 C   0  0  0  0  0  0  0  0  0  0  0  0
   48.5313    7.2110   18.0276 C   0  0  0  0  0  0  0  0  0  0  0  0
   47.3660    9.0569   19.7381 C   0  0  0  0  0  0  0  0  0  0  0  0
   48.0195    6.8797   19.2984 C   0  0  0  0  0  0  0  0  0  0  0  0
   48.3869    8.5596   17.6067 C   0  0  0  0  0  0  0  0  0  0  0  0
   48.9836    9.0198   16.3955 N   0  0  0  0  0  0  0  0  0  0  0  0
   47.4488    7.7742   20.1171 N   0  0  0  0  0  0  0  0  0  0  0  0
   47.0924   14.2312   18.7926 H   0  0  0  0  0  0  0  0  0  0  0  0
   47.3587   13.0841   17.4684 H   0  0  0  0  0  0  0  0  0  0  0  0
   48.6468   13.3925   18.6497 H   0  0  0  0  0  0  0  0  0  0  0  0
   45.9411   12.0963   19.2791 H   0  0  0  0  0  0  0  0  0  0  0  0
   47.2216   12.4048   20.4541 H   0  0  0  0  0  0  0  0  0  0  0  0
   47.4795   10.5936   17.9984 H   0  0  0  0  0  0  0  0  0  0  0  0
   48.7588   10.8885   19.1786 H   0  0  0  0  0  0  0  0  0  0  0  0
   47.2577    9.9727   20.9910 H   0  0  0  0  0  0  0  0  0  0  0  0
   46.0453    9.5868   19.7747 H   0  0  0  0  0  0  0  0  0  0  0  0
   47.4582    7.6470   20.4718 H   0  0  0  0  0  0  0  0  0  0  0  0
   48.8961    8.4601   19.8762 H   0  0  0  0  0  0  0  0  0  0  0  0
   47.9562    8.4133   17.5337 H   0  0  0  0  0  0  0  0  0  0  0  0
   46.4747    7.7079   18.1354 H   0  0  0  0  0  0  0  0  0  0  0  0
   46.3206    5.3591   18.6952 H   0  0  0  0  0  0  0  0  0  0  0  0
   47.2909    3.0954   18.4867 H   0  0  0  0  0  0  0  0  0  0  0  0
   51.0942    4.7946   17.4415 H   0  0  0  0  0  0  0  0  0  0  0  0
   50.6658    2.5838   17.5995 H   0  0  0  0  0  0  0  0  0  0  0  0
   51.1777    7.0207   17.3806 H   0  0  0  0  0  0  0  0  0  0  0  0
   47.0543   12.8409   18.8229 H   0  0  0  0  0  0  0  0  0  0  0  0
   49.7136    4.1105   17.1304 H   0  0  0  0  0  0  0  0  0  0  0  0
   46.2391   12.0127   21.0221 H   0  0  0  0  0  0  0  0  0  0  0  0
   48.7792    3.5529   19.3643 H   0  0  0  0  0  0  0  0  0  0  0  0
   48.0502   11.2602   17.2156 H   0  0  0  0  0  0  0  0  0  0  0  0
   49.5682    6.4002   16.2823 H   0  0  0  0  0  0  0  0  0  0  0  0
   46.4416    9.6134   21.5824 H   0  0  0  0  0  0  0  0  0  0  0  0
   47.7185    5.3195   20.7260 H   0  0  0  0  0  0  0  0  0  0  0  0
   49.9192    9.3743   16.5886 H   0  0  0  0  0  0  0  0  0  0  0  0
   49.0264    8.3014   15.6810 H   0  0  0  0  0  0  0  0  0  0  0  0
  2  1  1  0
  3  2  1  0
  4  3  1  0
  5  4  1  0
  6  5  1  0
  8  7  2  0
 10  6  1  0
 10  7  1  0
 11  8  1  0
 11  9  2  0
 12  9  1  0
 12 10  2  0
 13 11  1  0
 14 12  1  0
 17 15  2  0
 18 16  1  0
 19 15  1  0
 20 16  2  0
 21 17  1  0
 22 18  2  0
 23 19  2  0
 24 20  1  0
 25 21  2  0
 25 23  1  0
 26 22  1  0
 26 24  1  0
 27 23  1  0
 27 24  2  0
 28 27  1  0
 29 25  1  0
 29 26  2  0
  1 30  1  0
  1 31  1  0
  1 32  1  0
  2 33  1  0
  2 34  1  0
  3 35  1  0
  3 36  1  0
  4 37  1  0
  4 38  1  0
  5 39  1  0
  5 40  1  0
  6 41  1  0
  6 42  1  0
  7 43  1  0
  8 44  1  0
  9 45  1  0
 13 46  1  0
 14 47  1  0
 15 48  1  0
 16 49  1  0
 17 50  1  0
 18 51  1  0
 19 52  1  0
 20 53  1  0
 21 54  1  0
 22 55  1  0
 28 56  1  0
 28 57  1  0
M  END
> <Uni-Dock RESULT> 
ENERGY=   -5.830  LOWER_BOUND=    6.579  UPPER_BOUND=    7.510
INTER + INTRA:          -5.830
INTER:                  -5.830
INTRA:                   0.000
UNBOUND:                 0.000

$$$$

     RDKit          3D

 57 59  0  0  0  0  0  0  0  0999 V2000
   47.5573   11.6833   20.8623 C   0  0  0  0  0  0  0  0  0  0  0  0
   47.2924   10.3149   21.4698 C   0  0  0  0  0  0  0  0  0  0  0  0
   47.7878    9.1916   20.5579 C   0  0  0  0  0  0  0  0  0  0  0  0
   47.5147    7.8177   21.1738 C   0  0  0  0  0  0  0  0  0  0  0  0
   48.0933    6.6596   20.3555 C   0  0  0  0  0  0  0  0  0  0  0  0
   47.4245    6.4899   18.9884 C   0  0  0  0  0  0  0  0  0  0  0  0
   47.2435    4.0549   18.3614 C   0  0  0  0  0  0  0  0  0  0  0  0
   47.7135    2.9132   17.7107 C   0  0  0  0  0  0  0  0  0  0  0  0
   49.5973    4.1678   16.8552 C   0  0  0  0  0  0  0  0  0  0  0  0
   47.9404    5.2689   18.2634 C   0  0  0  0  0  0  0  0  0  0  0  0
   48.8831    2.9784   16.9637 C   0  0  0  0  0  0  0  0  0  0  0  0
   49.1206    5.3051   17.5093 C   0  0  0  0  0  0  0  0  0  0  0  0
   49.3024    1.8363   16.3462 O   0  0  0  0  0  0  0  0  0  0  0  0
   49.8075    6.4846   17.4237 O   0  0  0  0  0  0  0  0  0  0  0  0
   47.3024   10.0652   21.0323 C   0  0  0  0  0  0  0  0  0  0  0  0
   48.8269    4.0545   17.0949 C   0  0  0  0  0  0  0  0  0  0  0  0
   47.2248    9.2261   22.1340 C   0  0  0  0  0  0  0  0  0  0  0  0
   48.6953    3.3472   18.2795 C   0  0  0  0  0  0  0  0  0  0  0  0
   47.5668    9.5215   19.7765 C   0  0  0  0  0  0  0  0  0  0  0  0
   48.6148    5.4331   17.0915 C   0  0  0  0  0  0  0  0  0  0  0  0
   47.4120    7.8516   21.9695 C   0  0  0  0  0  0  0  0  0  0  0  0
   48.3601    4.0257   19.4521 C   0  0  0  0  0  0  0  0  0  0  0  0
   47.7609    8.1300   19.6049 C   0  0  0  0  0  0  0  0  0  0  0  0
   48.2638    6.1300   18.2768 C   0  0  0  0  0  0  0  0  0  0  0  0
   47.6790    7.2881   20.7279 C   0  0  0  0  0  0  0  0  0  0  0  0
   48.1481    5.3979   19.4758 C   0  0  0  0  0  0  0  0  0  0  0  0
   48.0164    7.5265   18.3486 C   0  0  0  0  0  0  0  0  0  0  0  0
   48.2324    8.3705   17.2189 N   0  0  0  0  0  0  0  0  0  0  0  0
   47.8559    5.9616   20.6560 N   0  0  0  0  0  0  0  0  0  0  0  0
   47.1960   12.4711   21.5308 H   0  0  0  0  0  0  0  0  0  0  0  0
   47.0447   11.7918   19.9011 H   0  0  0  0  0  0  0  0  0  0  0  0
   48.6286   11.8399   20.7005 H   0  0  0  0  0  0  0  0  0  0  0  0
   46.2166   10.2025   21.6481 H   0  0  0  0  0  0  0  0  0  0  0  0
   47.7913   10.2519   22.4439 H   0  0  0  0  0  0  0  0  0  0  0  0
   47.2891    9.2741   19.5858 H   0  0  0  0  0  0  0  0  0  0  0  0
   48.8640    9.3090   20.3826 H   0  0  0  0  0  0  0  0  0  0  0  0
   47.9574    7.7810   22.1770 H   0  0  0  0  0  0  0  0  0  0  0  0
   46.4346    7.6755   21.3005 H   0  0  0  0  0  0  0  0  0  0  0  0
   47.9687    5.7365   20.9365 H   0  0  0  0  0  0  0  0  0  0  0  0
   49.1744    6.8021   20.2337 H   0  0  0  0  0  0  0  0  0  0  0  0
   47.5818    7.3742   18.3604 H   0  0  0  0  0  0  0  0  0  0  0  0
   46.3374    6.4057   19.1141 H   0  0  0  0  0  0  0  0  0  0  0  0
   46.3296    3.9919   18.9477 H   0  0  0  0  0  0  0  0  0  0  0  0
   47.1688    1.9766   17.7885 H   0  0  0  0  0  0  0  0  0  0  0  0
   50.5102    4.2089   16.2732 H   0  0  0  0  0  0  0  0  0  0  0  0
   50.1229    2.0232   15.8624 H   0  0  0  0  0  0  0  0  0  0  0  0
   50.5971    6.3528   16.8753 H   0  0  0  0  0  0  0  0  0  0  0  0
   47.1529   11.1356   21.1438 H   0  0  0  0  0  0  0  0  0  0  0  0
   49.0918    3.5386   16.1756 H   0  0  0  0  0  0  0  0  0  0  0  0
   47.0170    9.6318   23.1204 H   0  0  0  0  0  0  0  0  0  0  0  0
   48.8555    2.2726   18.3006 H   0  0  0  0  0  0  0  0  0  0  0  0
   47.6096   10.1858   18.9158 H   0  0  0  0  0  0  0  0  0  0  0  0
   48.7274    5.9571   16.1475 H   0  0  0  0  0  0  0  0  0  0  0  0
   47.3493    7.1986   22.8372 H   0  0  0  0  0  0  0  0  0  0  0  0
   48.2662    3.4667   20.3808 H   0  0  0  0  0  0  0  0  0  0  0  0
   49.1871    8.7261   17.2356 H   0  0  0  0  0  0  0  0  0  0  0  0
   48.0533    7.9011   16.3380 H   0  0  0  0  0  0  0  0  0  0  0  0
  2  1  1  0
  3  2  1  0
  4  3  1  0
  5  4  1  0
  6  5  1  0
  8  7  2  0
 10  6  1  0
 10  7  1  0
 11  8  1  0
 11  9  2  0
 12  9  1  0
 12 10  2  0
 13 11  1  0
 14 12  1  0
 17 15  2  0
 18 16  1  0
 19 15  1  0
 20 16  2  0
 21 17  1  0
 22 18  2  0
 23 19  2  0
 24 20  1  0
 25 21  2  0
 25 23  1  0
 26 22  1  0
 26 24  1  0
 27 23  1  0
 27 24  2  0
 28 27  1  0
 29 25  1  0
 29 26  2  0
  1 30  1  0
  1 31  1  0
  1 32  1  0
  2 33  1  0
  2 34  1  0
  3 35  1  0
  3 36  1  0
  4 37  1  0
  4 38  1  0
  5 39  1  0
  5 40  1  0
  6 41  1  0
  6 42  1  0
  7 43  1  0
  8 44  1  0
  9 45  1  0
 13 46  1  0
 14 47  1  0
 15 48  1  0
 16 49  1  0
 17 50  1  0
 18 51  1  0
 19 52  1  0
 20 53  1  0
 21 54  1  0
 22 55  1  0
 28 56  1  0
 28 57  1  0
M  END
> <Uni-Dock RESULT> 
ENERGY=   -5.679  LOWER_BOUND=    6.793  UPPER_BOUND=    7.902
INTER + INTRA:          -5.679
INTER:                  -5.679
INTRA:                   0.000
UNBOUND:                 0.000

$$$$

     RDKit          3D

 57 59  0  0  0  0  0  0  0  0999 V2000
   42.4751    5.3094   12.2672 C   0  0  0  0  0  0  0  0  0  0  0  0
   43.8525    4.7415   12.5705 C   0  0  0  0  0  0  0  0  0  0  0  0
   44.8859    5.8518   12.7653 C   0  0  0  0  0  0  0  0  0  0  0  0
   46.2700    5.2731   13.0666 C   0  0  0  0  0  0  0  0  0  0  0  0
   47.3194    6.3424   13.3837 C   0  0  0  0  0  0  0  0  0  0  0  0
   47.6479    7.2424   12.1890 C   0  0  0  0  0  0  0  0  0  0  0  0
   50.0890    7.8714   12.1693 C   0  0  0  0  0  0  0  0  0  0  0  0
   51.1384    8.7412   12.4693 C   0  0  0  0  0  0  0  0  0  0  0  0
   49.5744   10.2962   13.4645 C   0  0  0  0  0  0  0  0  0  0  0  0
   48.7685    8.2044   12.5075 C   0  0  0  0  0  0  0  0  0  0  0  0
   50.8737    9.9442   13.1120 C   0  0  0  0  0  0  0  0  0  0  0  0
   48.5304    9.4206   13.1610 C   0  0  0  0  0  0  0  0  0  0  0  0
   51.9322   10.7610   13.3841 O   0  0  0  0  0  0  0  0  0  0  0  0
   47.2453    9.7402   13.5027 O   0  0  0  0  0  0  0  0  0  0  0  0
   44.1072    5.1479   12.4162 C   0  0  0  0  0  0  0  0  0  0  0  0
   49.8244    9.7305   12.9340 C   0  0  0  0  0  0  0  0  0  0  0  0
   44.9167    4.1978   13.0211 C   0  0  0  0  0  0  0  0  0  0  0  0
   50.5125    8.6733   13.5083 C   0  0  0  0  0  0  0  0  0  0  0  0
   44.6241    6.4136   12.1455 C   0  0  0  0  0  0  0  0  0  0  0  0
   48.5110    9.5419   12.5041 C   0  0  0  0  0  0  0  0  0  0  0  0
   46.2352    4.5222   13.3492 C   0  0  0  0  0  0  0  0  0  0  0  0
   49.8788    7.4386   13.6544 C   0  0  0  0  0  0  0  0  0  0  0  0
   45.9582    6.7487   12.4793 C   0  0  0  0  0  0  0  0  0  0  0  0
   47.8618    8.2872   12.6394 C   0  0  0  0  0  0  0  0  0  0  0  0
   46.7707    5.7780   13.0911 C   0  0  0  0  0  0  0  0  0  0  0  0
   48.5709    7.2265   13.2385 C   0  0  0  0  0  0  0  0  0  0  0  0
   46.5355    8.0147   12.2113 C   0  0  0  0  0  0  0  0  0  0  0  0
   45.6959    9.0540   11.7116 N   0  0  0  0  0  0  0  0  0  0  0  0
   48.0415    6.0130   13.4458 N   0  0  0  0  0  0  0  0  0  0  0  0
   41.7522    4.4987   12.1323 H   0  0  0  0  0  0  0  0  0  0  0  0
   42.4903    5.9070   11.3501 H   0  0  0  0  0  0  0  0  0  0  0  0
   42.1238    5.9451   13.0862 H   0  0  0  0  0  0  0  0  0  0  0  0
   44.1608    4.0863   11.7475 H   0  0  0  0  0  0  0  0  0  0  0  0
   43.7948    4.1230   13.4738 H   0  0  0  0  0  0  0  0  0  0  0  0
   44.9243    6.4673   11.8596 H   0  0  0  0  0  0  0  0  0  0  0  0
   44.5725    6.5043   13.5892 H   0  0  0  0  0  0  0  0  0  0  0  0
   46.1964    4.6008   13.9305 H   0  0  0  0  0  0  0  0  0  0  0  0
   46.6097    4.6631   12.2207 H   0  0  0  0  0  0  0  0  0  0  0  0
   48.2340    5.8341   13.7161 H   0  0  0  0  0  0  0  0  0  0  0  0
   46.9791    6.9484   14.2327 H   0  0  0  0  0  0  0  0  0  0  0  0
   46.7666    7.8100   11.8694 H   0  0  0  0  0  0  0  0  0  0  0  0
   47.9320    6.6262   11.3263 H   0  0  0  0  0  0  0  0  0  0  0  0
   50.3076    6.9300   11.6706 H   0  0  0  0  0  0  0  0  0  0  0  0
   52.1585    8.4790   12.2033 H   0  0  0  0  0  0  0  0  0  0  0  0
   49.3773   11.2349   13.9683 H   0  0  0  0  0  0  0  0  0  0  0  0
   51.6068   11.5600   13.8289 H   0  0  0  0  0  0  0  0  0  0  0  0
   47.2403   10.6029   13.9470 H   0  0  0  0  0  0  0  0  0  0  0  0
   43.0816    4.9081   12.1494 H   0  0  0  0  0  0  0  0  0  0  0  0
   50.3051   10.6985   12.8184 H   0  0  0  0  0  0  0  0  0  0  0  0
   44.5317    3.2050   13.2374 H   0  0  0  0  0  0  0  0  0  0  0  0
   51.5368    8.8018   13.8477 H   0  0  0  0  0  0  0  0  0  0  0  0
   43.9865    7.1468   11.6559 H   0  0  0  0  0  0  0  0  0  0  0  0
   48.0001   10.3906   12.0602 H   0  0  0  0  0  0  0  0  0  0  0  0
   46.8653    3.7727   13.8230 H   0  0  0  0  0  0  0  0  0  0  0  0
   50.4209    6.6144   14.1134 H   0  0  0  0  0  0  0  0  0  0  0  0
   45.1665    9.4645   12.4794 H   0  0  0  0  0  0  0  0  0  0  0  0
   46.2136    9.7764   11.2231 H   0  0  0  0  0  0  0  0  0  0  0  0
  2  1  1  0
  3  2  1  0
  4  3  1  0
  5  4  1  0
  6  5  1  0
  8  7  2  0
 10  6  1  0
 10  7  1  0
 11  8  1  0
 11  9  2  0
 12  9  1  0
 12 10  2  0
 13 11  1  0
 14 12  1  0
 17 15  2  0
 18 16  1  0
 19 15  1  0
 20 16  2  0
 21 17  1  0
 22 18  2  0
 23 19  2  0
 24 20  1  0
 25 21  2  0
 25 23  1  0
 26 22  1  0
 26 24  1  0
 27 23  1  0
 27 24  2  0
 28 27  1  0
 29 25  1  0
 29 26  2  0
  1 30  1  0
  1 31  1  0
  1 32  1  0
  2 33  1  0
  2 34  1  0
  3 35  1  0
  3 36  1  0
  4 37  1  0
  4 38  1  0
  5 39  1  0
  5 40  1  0
  6 41  1  0
  6 42  1  0
  7 43  1  0
  8 44  1  0
  9 45  1  0
 13 46  1  0
 14 47  1  0
 15 48  1  0
 16 49  1  0
 17 50  1  0
 18 51  1  0
 19 52  1  0
 20 53  1  0
 21 54  1  0
 22 55  1  0
 28 56  1  0
 28 57  1  0
M  END
> <Uni-Dock RESULT> 
ENERGY=   -5.535  LOWER_BOUND=    2.340  UPPER_BOUND=    6.323
INTER + INTRA:          -5.535
INTER:                  -5.535
INTRA:                   0.000
UNBOUND:                 0.000

$$$$
