
     RDKit          3D

 57 59  0  0  0  0  0  0  0  0999 V2000
   49.8977    7.7642   12.9769 C   0  0  0  0  0  0  0  0  0  0  0  0
   48.9091    7.9521   11.8368 C   0  0  0  0  0  0  0  0  0  0  0  0
   47.7267    8.8544   12.1971 C   0  0  0  0  0  0  0  0  0  0  0  0
   46.8536    8.3704   13.3596 C   0  0  0  0  0  0  0  0  0  0  0  0
   46.2611    6.9664   13.2063 C   0  0  0  0  0  0  0  0  0  0  0  0
   45.3519    6.8228   11.9828 C   0  0  0  0  0  0  0  0  0  0  0  0
   45.3098    4.4623   11.1362 C   0  0  0  0  0  0  0  0  0  0  0  0
   44.7567    3.1830   11.0501 C   0  0  0  0  0  0  0  0  0  0  0  0
   42.9845    3.8492   12.5466 C   0  0  0  0  0  0  0  0  0  0  0  0
   44.7061    5.4584   11.9242 C   0  0  0  0  0  0  0  0  0  0  0  0
   43.5977    2.8871   11.7536 C   0  0  0  0  0  0  0  0  0  0  0  0
   43.5426    5.1251   12.6324 C   0  0  0  0  0  0  0  0  0  0  0  0
   43.0884    1.6270   11.6418 O   0  0  0  0  0  0  0  0  0  0  0  0
   42.8835    6.0049   13.4446 O   0  0  0  0  0  0  0  0  0  0  0  0
   44.0140    3.3961   11.5916 C   0  0  0  0  0  0  0  0  0  0  0  0
   48.4622    8.9192   13.5061 C   0  0  0  0  0  0  0  0  0  0  0  0
   43.1947    4.3621   11.0292 C   0  0  0  0  0  0  0  0  0  0  0  0
   47.5530    9.7612   12.8826 C   0  0  0  0  0  0  0  0  0  0  0  0
   45.1837    3.7841   12.2452 C   0  0  0  0  0  0  0  0  0  0  0  0
   48.2040    7.5505   13.5545 C   0  0  0  0  0  0  0  0  0  0  0  0
   43.5556    5.7072   11.1187 C   0  0  0  0  0  0  0  0  0  0  0  0
   46.3946    9.2265   12.3139 C   0  0  0  0  0  0  0  0  0  0  0  0
   45.5537    5.1501   12.3499 C   0  0  0  0  0  0  0  0  0  0  0  0
   47.0337    7.0031   12.9765 C   0  0  0  0  0  0  0  0  0  0  0  0
   44.7166    6.1187   11.7600 C   0  0  0  0  0  0  0  0  0  0  0  0
   46.1181    7.8653   12.3479 C   0  0  0  0  0  0  0  0  0  0  0  0
   46.7175    5.6223   13.0124 C   0  0  0  0  0  0  0  0  0  0  0  0
   47.6896    4.7143   13.5281 N   0  0  0  0  0  0  0  0  0  0  0  0
   44.9896    7.4306   11.7704 N   0  0  0  0  0  0  0  0  0  0  0  0
   50.2567    8.7291   13.3486 H   0  0  0  0  0  0  0  0  0  0  0  0
   49.4491    7.2167   13.8110 H   0  0  0  0  0  0  0  0  0  0  0  0
   50.7641    7.1908   12.6319 H   0  0  0  0  0  0  0  0  0  0  0  0
   48.5540    6.9739   11.4947 H   0  0  0  0  0  0  0  0  0  0  0  0
   49.4388    8.4018   10.9882 H   0  0  0  0  0  0  0  0  0  0  0  0
   47.1036    8.9878   11.3048 H   0  0  0  0  0  0  0  0  0  0  0  0
   48.1075    9.8528   12.4474 H   0  0  0  0  0  0  0  0  0  0  0  0
   47.4361    8.4036   14.2880 H   0  0  0  0  0  0  0  0  0  0  0  0
   46.0336    9.0870   13.4948 H   0  0  0  0  0  0  0  0  0  0  0  0
   45.6912    6.7411   14.1169 H   0  0  0  0  0  0  0  0  0  0  0  0
   47.0644    6.2210   13.1664 H   0  0  0  0  0  0  0  0  0  0  0  0
   44.5787    7.6003   11.9785 H   0  0  0  0  0  0  0  0  0  0  0  0
   45.9277    6.9834   11.0632 H   0  0  0  0  0  0  0  0  0  0  0  0
   46.2200    4.6767   10.5799 H   0  0  0  0  0  0  0  0  0  0  0  0
   45.2293    2.4217   10.4361 H   0  0  0  0  0  0  0  0  0  0  0  0
   42.0810    3.6284   13.1052 H   0  0  0  0  0  0  0  0  0  0  0  0
   42.2832    1.5741   12.1829 H   0  0  0  0  0  0  0  0  0  0  0  0
   43.3863    6.8313   13.5017 H   0  0  0  0  0  0  0  0  0  0  0  0
   43.7466    2.3446   11.5252 H   0  0  0  0  0  0  0  0  0  0  0  0
   49.3645    9.3213   13.9584 H   0  0  0  0  0  0  0  0  0  0  0  0
   42.2790    4.0782   10.5175 H   0  0  0  0  0  0  0  0  0  0  0  0
   47.7362   10.8312   12.8375 H   0  0  0  0  0  0  0  0  0  0  0  0
   45.8038    3.0026   12.6732 H   0  0  0  0  0  0  0  0  0  0  0  0
   48.9151    6.9002   14.0600 H   0  0  0  0  0  0  0  0  0  0  0  0
   42.9128    6.4607   10.6682 H   0  0  0  0  0  0  0  0  0  0  0  0
   45.6852    9.8918   11.8269 H   0  0  0  0  0  0  0  0  0  0  0  0
   48.3949    4.5283   12.8165 H   0  0  0  0  0  0  0  0  0  0  0  0
   47.2820    3.8424   13.8475 H   0  0  0  0  0  0  0  0  0  0  0  0
  2  1  1  0
  3  2  1  0
  4  3  1  0
  5  4  1  0
  6  5  1  0
  8  7  2  0
 10  6  1  0
 10  7  1  0
 11  8  1  0
 11  9  2  0
 12  9  1  0
 12 10  2  0
 13 11  1  0
 14 12  1  0
 17 15  2  0
 18 16  1  0
 19 15  1  0
 20 16  2  0
 21 17  1  0
 22 18  2  0
 23 19  2  0
 24 20  1  0
 25 21  2  0
 25 23  1  0
 26 22  1  0
 26 24  1  0
 27 23  1  0
 27 24  2  0
 28 27  1  0
 29 25  1  0
 29 26  2  0
  1 30  1  0
  1 31  1  0
  1 32  1  0
  2 33  1  0
  2 34  1  0
  3 35  1  0
  3 36  1  0
  4 37  1  0
  4 38  1  0
  5 39  1  0
  5 40  1  0
  6 41  1  0
  6 42  1  0
  7 43  1  0
  8 44  1  0
  9 45  1  0
 13 46  1  0
 14 47  1  0
 15 48  1  0
 16 49  1  0
 17 50  1  0
 18 51  1  0
 19 52  1  0
 20 53  1  0
 21 54  1  0
 22 55  1  0
 28 56  1  0
 28 57  1  0
M  END
> <Uni-Dock RESULT> 
ENERGY=   -6.421  LOWER_BOUND=    0.000  UPPER_BOUND=    0.000
INTER + INTRA:          -6.421
INTER:                  -6.421
INTRA:                   0.000
UNBOUND:                 0.000

$$$$

     RDKit          3D

 57 59  0  0  0  0  0  0  0  0999 V2000
   42.9331    5.4891   11.0808 C   0  0  0  0  0  0  0  0  0  0  0  0
   44.3646    5.0474   10.8201 C   0  0  0  0  0  0  0  0  0  0  0  0
   44.9749    4.2452   11.9717 C   0  0  0  0  0  0  0  0  0  0  0  0
   45.0585    4.9748   13.3166 C   0  0  0  0  0  0  0  0  0  0  0  0
   45.8142    6.3069   13.3043 C   0  0  0  0  0  0  0  0  0  0  0  0
   47.2766    6.1699   12.8720 C   0  0  0  0  0  0  0  0  0  0  0  0
   48.1295    8.2804   11.8191 C   0  0  0  0  0  0  0  0  0  0  0  0
   48.7973    9.5061   11.8577 C   0  0  0  0  0  0  0  0  0  0  0  0
   49.2462    9.1870   14.2073 C   0  0  0  0  0  0  0  0  0  0  0  0
   48.0141    7.4844   12.9727 C   0  0  0  0  0  0  0  0  0  0  0  0
   49.3522    9.9487   13.0501 C   0  0  0  0  0  0  0  0  0  0  0  0
   48.5750    7.9645   14.1649 C   0  0  0  0  0  0  0  0  0  0  0  0
   49.9974   11.1501   13.0457 O   0  0  0  0  0  0  0  0  0  0  0  0
   48.5057    7.2871   15.3500 O   0  0  0  0  0  0  0  0  0  0  0  0
   49.0446    9.4176   12.7639 C   0  0  0  0  0  0  0  0  0  0  0  0
   43.6121    4.4777   12.5610 C   0  0  0  0  0  0  0  0  0  0  0  0
   49.8961    8.3477   12.9895 C   0  0  0  0  0  0  0  0  0  0  0  0
   44.5881    3.5147   12.7711 C   0  0  0  0  0  0  0  0  0  0  0  0
   47.6742    9.1895   12.6388 C   0  0  0  0  0  0  0  0  0  0  0  0
   43.9777    5.8216   12.5112 C   0  0  0  0  0  0  0  0  0  0  0  0
   49.3708    7.0579   13.0809 C   0  0  0  0  0  0  0  0  0  0  0  0
   45.9199    3.9048   12.9295 C   0  0  0  0  0  0  0  0  0  0  0  0
   47.1299    7.8829   12.7402 C   0  0  0  0  0  0  0  0  0  0  0  0
   45.3263    6.2220   12.6673 C   0  0  0  0  0  0  0  0  0  0  0  0
   48.0113    6.8042   12.9555 C   0  0  0  0  0  0  0  0  0  0  0  0
   46.3077    5.2381   12.8809 C   0  0  0  0  0  0  0  0  0  0  0  0
   45.7473    7.5748   12.6405 C   0  0  0  0  0  0  0  0  0  0  0  0
   44.7932    8.5781   12.2969 N   0  0  0  0  0  0  0  0  0  0  0  0
   47.6072    5.5289   13.0322 N   0  0  0  0  0  0  0  0  0  0  0  0
   42.2963    4.6331   11.3258 H   0  0  0  0  0  0  0  0  0  0  0  0
   42.8784    6.2082   11.9033 H   0  0  0  0  0  0  0  0  0  0  0  0
   42.5212    5.9732   10.1895 H   0  0  0  0  0  0  0  0  0  0  0  0
   44.9828    5.9229   10.5936 H   0  0  0  0  0  0  0  0  0  0  0  0
   44.3764    4.4205    9.9202 H   0  0  0  0  0  0  0  0  0  0  0  0
   45.9768    3.9133   11.6747 H   0  0  0  0  0  0  0  0  0  0  0  0
   44.3872    3.3295   12.1149 H   0  0  0  0  0  0  0  0  0  0  0  0
   44.0450    5.1524   13.6957 H   0  0  0  0  0  0  0  0  0  0  0  0
   45.5364    4.3043   14.0420 H   0  0  0  0  0  0  0  0  0  0  0  0
   45.7676    6.7288   14.3165 H   0  0  0  0  0  0  0  0  0  0  0  0
   45.2978    7.0268   12.6581 H   0  0  0  0  0  0  0  0  0  0  0  0
   47.7904    5.4088   13.4714 H   0  0  0  0  0  0  0  0  0  0  0  0
   47.3327    5.8090   11.8379 H   0  0  0  0  0  0  0  0  0  0  0  0
   47.6983    7.9495   10.8765 H   0  0  0  0  0  0  0  0  0  0  0  0
   48.8834   10.1119   10.9602 H   0  0  0  0  0  0  0  0  0  0  0  0
   49.6715    9.5246   15.1465 H   0  0  0  0  0  0  0  0  0  0  0  0
   50.3315   11.3205   13.9420 H   0  0  0  0  0  0  0  0  0  0  0  0
   47.9571    6.4961   15.2388 H   0  0  0  0  0  0  0  0  0  0  0  0
   49.4414   10.4266   12.6864 H   0  0  0  0  0  0  0  0  0  0  0  0
   42.5711    4.1899   12.4424 H   0  0  0  0  0  0  0  0  0  0  0  0
   50.9662    8.5068   13.0910 H   0  0  0  0  0  0  0  0  0  0  0  0
   44.3213    2.4623   12.8155 H   0  0  0  0  0  0  0  0  0  0  0  0
   47.0353   10.0490   12.4609 H   0  0  0  0  0  0  0  0  0  0  0  0
   43.2028    6.5709   12.3623 H   0  0  0  0  0  0  0  0  0  0  0  0
   50.0449    6.2207   13.2499 H   0  0  0  0  0  0  0  0  0  0  0  0
   46.6807    3.1450   13.0945 H   0  0  0  0  0  0  0  0  0  0  0  0
   44.6716    8.6021   11.2854 H   0  0  0  0  0  0  0  0  0  0  0  0
   45.0514    9.4983   12.6362 H   0  0  0  0  0  0  0  0  0  0  0  0
  2  1  1  0
  3  2  1  0
  4  3  1  0
  5  4  1  0
  6  5  1  0
  8  7  2  0
 10  6  1  0
 10  7  1  0
 11  8  1  0
 11  9  2  0
 12  9  1  0
 12 10  2  0
 13 11  1  0
 14 12  1  0
 17 15  2  0
 18 16  1  0
 19 15  1  0
 20 16  2  0
 21 17  1  0
 22 18  2  0
 23 19  2  0
 24 20  1  0
 25 21  2  0
 25 23  1  0
 26 22  1  0
 26 24  1  0
 27 23  1  0
 27 24  2  0
 28 27  1  0
 29 25  1  0
 29 26  2  0
  1 30  1  0
  1 31  1  0
  1 32  1  0
  2 33  1  0
  2 34  1  0
  3 35  1  0
  3 36  1  0
  4 37  1  0
  4 38  1  0
  5 39  1  0
  5 40  1  0
  6 41  1  0
  6 42  1  0
  7 43  1  0
  8 44  1  0
  9 45  1  0
 13 46  1  0
 14 47  1  0
 15 48  1  0
 16 49  1  0
 17 50  1  0
 18 51  1  0
 19 52  1  0
 20 53  1  0
 21 54  1  0
 22 55  1  0
 28 56  1  0
 28 57  1  0
M  END
> <Uni-Dock RESULT> 
ENERGY=   -5.739  LOWER_BOUND=    2.170  UPPER_BOUND=    5.936
INTER + INTRA:          -5.739
INTER:                  -5.739
INTRA:                   0.000
UNBOUND:                 0.000

$$$$

     RDKit          3D

 57 59  0  0  0  0  0  0  0  0999 V2000
   46.7164   11.0311   19.7953 C   0  0  0  0  0  0  0  0  0  0  0  0
   46.2611    9.7837   20.5363 C   0  0  0  0  0  0  0  0  0  0  0  0
   47.2518    9.3119   21.6030 C   0  0  0  0  0  0  0  0  0  0  0  0
   48.6488    8.9426   21.0933 C   0  0  0  0  0  0  0  0  0  0  0  0
   48.6953    7.8755   19.9956 C   0  0  0  0  0  0  0  0  0  0  0  0
   48.0988    6.5338   20.4294 C   0  0  0  0  0  0  0  0  0  0  0  0
   47.1868    5.2540   18.4746 C   0  0  0  0  0  0  0  0  0  0  0  0
   47.2819    4.2949   17.4642 C   0  0  0  0  0  0  0  0  0  0  0  0
   49.5247    3.7641   18.1798 C   0  0  0  0  0  0  0  0  0  0  0  0
   48.2570    5.4801   19.3585 C   0  0  0  0  0  0  0  0  0  0  0  0
   48.4484    3.5561   17.3261 C   0  0  0  0  0  0  0  0  0  0  0  0
   49.4266    4.7260   19.1858 C   0  0  0  0  0  0  0  0  0  0  0  0
   48.5007    2.6282   16.3281 O   0  0  0  0  0  0  0  0  0  0  0  0
   50.5354    4.8750   19.9709 O   0  0  0  0  0  0  0  0  0  0  0  0
   48.1426    4.0099   17.7251 C   0  0  0  0  0  0  0  0  0  0  0  0
   48.0030   10.5213   21.1218 C   0  0  0  0  0  0  0  0  0  0  0  0
   48.1642    3.4446   18.9903 C   0  0  0  0  0  0  0  0  0  0  0  0
   48.0072    9.8100   22.3127 C   0  0  0  0  0  0  0  0  0  0  0  0
   48.1403    5.3986   17.5938 C   0  0  0  0  0  0  0  0  0  0  0  0
   48.0549    9.8301   19.9128 C   0  0  0  0  0  0  0  0  0  0  0  0
   48.1760    4.2727   20.1136 C   0  0  0  0  0  0  0  0  0  0  0  0
   48.0635    8.4146   22.2830 C   0  0  0  0  0  0  0  0  0  0  0  0
   48.1621    6.2486   18.7300 C   0  0  0  0  0  0  0  0  0  0  0  0
   48.1082    8.4162   19.8770 C   0  0  0  0  0  0  0  0  0  0  0  0
   48.1696    5.6576   20.0096 C   0  0  0  0  0  0  0  0  0  0  0  0
   48.1131    7.7046   21.0897 C   0  0  0  0  0  0  0  0  0  0  0  0
   48.1779    7.6675   18.6759 C   0  0  0  0  0  0  0  0  0  0  0  0
   48.0435    8.3577   17.4346 N   0  0  0  0  0  0  0  0  0  0  0  0
   48.1554    6.3663   21.1467 N   0  0  0  0  0  0  0  0  0  0  0  0
   46.9370   11.8444   20.4939 H   0  0  0  0  0  0  0  0  0  0  0  0
   47.6104   10.8376   19.1953 H   0  0  0  0  0  0  0  0  0  0  0  0
   45.9289   11.3727   19.1159 H   0  0  0  0  0  0  0  0  0  0  0  0
   46.0627    8.9819   19.8167 H   0  0  0  0  0  0  0  0  0  0  0  0
   45.3046   10.0008   21.0272 H   0  0  0  0  0  0  0  0  0  0  0  0
   46.8174    8.4535   22.1289 H   0  0  0  0  0  0  0  0  0  0  0  0
   47.3603   10.1010   22.3581 H   0  0  0  0  0  0  0  0  0  0  0  0
   49.1495    9.8453   20.7234 H   0  0  0  0  0  0  0  0  0  0  0  0
   49.2458    8.5975   21.9469 H   0  0  0  0  0  0  0  0  0  0  0  0
   49.7452    7.7356   19.7075 H   0  0  0  0  0  0  0  0  0  0  0  0
   48.1859    8.2391   19.0952 H   0  0  0  0  0  0  0  0  0  0  0  0
   48.5579    6.1868   21.3628 H   0  0  0  0  0  0  0  0  0  0  0  0
   47.0325    6.6507   20.6584 H   0  0  0  0  0  0  0  0  0  0  0  0
   46.2659    5.8260   18.5674 H   0  0  0  0  0  0  0  0  0  0  0  0
   46.4482    4.1260   16.7887 H   0  0  0  0  0  0  0  0  0  0  0  0
   50.4436    3.1964   18.0787 H   0  0  0  0  0  0  0  0  0  0  0  0
   49.3694    2.1943   16.3599 H   0  0  0  0  0  0  0  0  0  0  0  0
   50.4012    5.6139   20.5832 H   0  0  0  0  0  0  0  0  0  0  0  0
   48.1290    3.3761   16.8421 H   0  0  0  0  0  0  0  0  0  0  0  0
   47.9660   11.6072   21.1292 H   0  0  0  0  0  0  0  0  0  0  0  0
   48.1678    2.3647   19.1115 H   0  0  0  0  0  0  0  0  0  0  0  0
   47.9699   10.3320   23.2649 H   0  0  0  0  0  0  0  0  0  0  0  0
   48.1215    5.8090   16.5890 H   0  0  0  0  0  0  0  0  0  0  0  0
   48.0677   10.3974   18.9843 H   0  0  0  0  0  0  0  0  0  0  0  0
   48.1846    3.8236   21.1045 H   0  0  0  0  0  0  0  0  0  0  0  0
   48.0671    7.8623   23.2201 H   0  0  0  0  0  0  0  0  0  0  0  0
   47.0587    8.5460   17.2532 H   0  0  0  0  0  0  0  0  0  0  0  0
   48.4475    7.8482   16.6563 H   0  0  0  0  0  0  0  0  0  0  0  0
  2  1  1  0
  3  2  1  0
  4  3  1  0
  5  4  1  0
  6  5  1  0
  8  7  2  0
 10  6  1  0
 10  7  1  0
 11  8  1  0
 11  9  2  0
 12  9  1  0
 12 10  2  0
 13 11  1  0
 14 12  1  0
 17 15  2  0
 18 16  1  0
 19 15  1  0
 20 16  2  0
 21 17  1  0
 22 18  2  0
 23 19  2  0
 24 20  1  0
 25 21  2  0
 25 23  1  0
 26 22  1  0
 26 24  1  0
 27 23  1  0
 27 24  2  0
 28 27  1  0
 29 25  1  0
 29 26  2  0
  1 30  1  0
  1 31  1  0
  1 32  1  0
  2 33  1  0
  2 34  1  0
  3 35  1  0
  3 36  1  0
  4 37  1  0
  4 38  1  0
  5 39  1  0
  5 40  1  0
  6 41  1  0
  6 42  1  0
  7 43  1  0
  8 44  1  0
  9 45  1  0
 13 46  1  0
 14 47  1  0
 15 48  1  0
 16 49  1  0
 17 50  1  0
 18 51  1  0
 19 52  1  0
 20 53  1  0
 21 54  1  0
 22 55  1  0
 28 56  1  0
 28 57  1  0
M  END
> <Uni-Dock RESULT> 
ENERGY=   -5.488  LOWER_BOUND=    6.832  UPPER_BOUND=    8.277
INTER + INTRA:          -5.488
INTER:                  -5.488
INTRA:                   0.000
UNBOUND:                 0.000

$$$$

     RDKit          3D

 57 59  0  0  0  0  0  0  0  0999 V2000
   47.3804    5.4521   23.6462 C   0  0  0  0  0  0  0  0  0  0  0  0
   46.8291    5.6610   22.2445 C   0  0  0  0  0  0  0  0  0  0  0  0
   47.8686    5.4469   21.1419 C   0  0  0  0  0  0  0  0  0  0  0  0
   49.0900    6.3707   21.1938 C   0  0  0  0  0  0  0  0  0  0  0  0
   48.7886    7.8723   21.1818 C   0  0  0  0  0  0  0  0  0  0  0  0
   48.0383    8.3296   19.9279 C   0  0  0  0  0  0  0  0  0  0  0  0
   46.6408   10.3629   20.3787 C   0  0  0  0  0  0  0  0  0  0  0  0
   46.4183   11.7415   20.3830 C   0  0  0  0  0  0  0  0  0  0  0  0
   48.6152   12.0984   19.4502 C   0  0  0  0  0  0  0  0  0  0  0  0
   47.8520    9.8285   19.9043 C   0  0  0  0  0  0  0  0  0  0  0  0
   47.4056   12.5980   19.9168 C   0  0  0  0  0  0  0  0  0  0  0  0
   48.8345   10.7205   19.4509 C   0  0  0  0  0  0  0  0  0  0  0  0
   47.1487   13.9372   19.9362 O   0  0  0  0  0  0  0  0  0  0  0  0
   50.0555   10.3163   18.9883 O   0  0  0  0  0  0  0  0  0  0  0  0
   47.2453   11.9427   19.9759 C   0  0  0  0  0  0  0  0  0  0  0  0
   48.7396    5.1468   22.3293 C   0  0  0  0  0  0  0  0  0  0  0  0
   47.3539   11.4317   18.6922 C   0  0  0  0  0  0  0  0  0  0  0  0
   48.7950    4.7823   20.9920 C   0  0  0  0  0  0  0  0  0  0  0  0
   47.4650   11.1045   21.0690 C   0  0  0  0  0  0  0  0  0  0  0  0
   48.4924    6.4765   22.6654 C   0  0  0  0  0  0  0  0  0  0  0  0
   47.6742   10.0853   18.5126 C   0  0  0  0  0  0  0  0  0  0  0  0
   48.6030    5.7509   20.0041 C   0  0  0  0  0  0  0  0  0  0  0  0
   47.8008    9.7366   20.8961 C   0  0  0  0  0  0  0  0  0  0  0  0
   48.2934    7.4611   21.6684 C   0  0  0  0  0  0  0  0  0  0  0  0
   47.8933    9.2296   19.5842 C   0  0  0  0  0  0  0  0  0  0  0  0
   48.3526    7.0815   20.3158 C   0  0  0  0  0  0  0  0  0  0  0  0
   48.0548    8.8277   21.9571 C   0  0  0  0  0  0  0  0  0  0  0  0
   47.8615    9.2126   23.3172 N   0  0  0  0  0  0  0  0  0  0  0  0
   48.1697    7.9474   19.3095 N   0  0  0  0  0  0  0  0  0  0  0  0
   47.8392    4.4632   23.7446 H   0  0  0  0  0  0  0  0  0  0  0  0
   48.1293    6.2082   23.8998 H   0  0  0  0  0  0  0  0  0  0  0  0
   46.5732    5.5255   24.3820 H   0  0  0  0  0  0  0  0  0  0  0  0
   46.3909    6.6621   22.1684 H   0  0  0  0  0  0  0  0  0  0  0  0
   46.0076    4.9520   22.0850 H   0  0  0  0  0  0  0  0  0  0  0  0
   47.3737    5.5519   20.1691 H   0  0  0  0  0  0  0  0  0  0  0  0
   48.2223    4.4089   21.1864 H   0  0  0  0  0  0  0  0  0  0  0  0
   49.6800    6.1407   22.0890 H   0  0  0  0  0  0  0  0  0  0  0  0
   49.7367    6.1334   20.3396 H   0  0  0  0  0  0  0  0  0  0  0  0
   49.7443    8.4072   21.2544 H   0  0  0  0  0  0  0  0  0  0  0  0
   48.2235    8.1502   22.0795 H   0  0  0  0  0  0  0  0  0  0  0  0
   48.5622    8.0060   19.0206 H   0  0  0  0  0  0  0  0  0  0  0  0
   47.0540    7.8482   19.8799 H   0  0  0  0  0  0  0  0  0  0  0  0
   45.8570    9.7058   20.7498 H   0  0  0  0  0  0  0  0  0  0  0  0
   45.4779   12.1437   20.7488 H   0  0  0  0  0  0  0  0  0  0  0  0
   49.3965   12.7582   19.0879 H   0  0  0  0  0  0  0  0  0  0  0  0
   47.9239   14.4018   19.5798 H   0  0  0  0  0  0  0  0  0  0  0  0
   50.1431    9.3580   19.1013 H   0  0  0  0  0  0  0  0  0  0  0  0
   46.9922   12.9885   20.1295 H   0  0  0  0  0  0  0  0  0  0  0  0
   48.8932    4.4056   23.1088 H   0  0  0  0  0  0  0  0  0  0  0  0
   47.1876   12.0703   17.8288 H   0  0  0  0  0  0  0  0  0  0  0  0
   48.9892    3.7508   20.7110 H   0  0  0  0  0  0  0  0  0  0  0  0
   47.3704   11.5358   22.0607 H   0  0  0  0  0  0  0  0  0  0  0  0
   48.4671    6.7557   23.7168 H   0  0  0  0  0  0  0  0  0  0  0  0
   47.7501    9.6875   17.5027 H   0  0  0  0  0  0  0  0  0  0  0  0
   48.6481    5.4591   18.9571 H   0  0  0  0  0  0  0  0  0  0  0  0
   46.9086    8.9920   23.6027 H   0  0  0  0  0  0  0  0  0  0  0  0
   48.0521   10.1957   23.4780 H   0  0  0  0  0  0  0  0  0  0  0  0
  2  1  1  0
  3  2  1  0
  4  3  1  0
  5  4  1  0
  6  5  1  0
  8  7  2  0
 10  6  1  0
 10  7  1  0
 11  8  1  0
 11  9  2  0
 12  9  1  0
 12 10  2  0
 13 11  1  0
 14 12  1  0
 17 15  2  0
 18 16  1  0
 19 15  1  0
 20 16  2  0
 21 17  1  0
 22 18  2  0
 23 19  2  0
 24 20  1  0
 25 21  2  0
 25 23  1  0
 26 22  1  0
 26 24  1  0
 27 23  1  0
 27 24  2  0
 28 27  1  0
 29 25  1  0
 29 26  2  0
  1 30  1  0
  1 31  1  0
  1 32  1  0
  2 33  1  0
  2 34  1  0
  3 35  1  0
  3 36  1  0
  4 37  1  0
  4 38  1  0
  5 39  1  0
  5 40  1  0
  6 41  1  0
  6 42  1  0
  7 43  1  0
  8 44  1  0
  9 45  1  0
 13 46  1  0
 14 47  1  0
 15 48  1  0
 16 49  1  0
 17 50  1  0
 18 51  1  0
 19 52  1  0
 20 53  1  0
 21 54  1  0
 22 55  1  0
 28 56  1  0
 28 57  1  0
M  END
> <Uni-Dock RESULT> 
ENERGY=   -5.381  LOWER_BOUND=    8.230  UPPER_BOUND=   10.417
INTER + INTRA:          -5.381
INTER:                  -5.381
INTRA:                   0.000
UNBOUND:                 0.000

$$$$

     RDKit          3D

 57 59  0  0  0  0  0  0  0  0999 V2000
   49.6423    4.7877   19.5729 C   0  0  0  0  0  0  0  0  0  0  0  0
   49.8953    5.8499   20.6313 C   0  0  0  0  0  0  0  0  0  0  0  0
   48.7666    5.9693   21.6578 C   0  0  0  0  0  0  0  0  0  0  0  0
   47.3919    6.3402   21.0914 C   0  0  0  0  0  0  0  0  0  0  0  0
   47.3367    7.6347   20.2747 C   0  0  0  0  0  0  0  0  0  0  0  0
   47.7482    8.8738   21.0745 C   0  0  0  0  0  0  0  0  0  0  0  0
   48.6993   10.6571   19.5895 C   0  0  0  0  0  0  0  0  0  0  0  0
   48.5992   11.8222   18.8263 C   0  0  0  0  0  0  0  0  0  0  0  0
   46.2569   11.9855   19.3840 C   0  0  0  0  0  0  0  0  0  0  0  0
   47.5812   10.1399   20.2678 C   0  0  0  0  0  0  0  0  0  0  0  0
   47.3801   12.4784   18.7314 C   0  0  0  0  0  0  0  0  0  0  0  0
   46.3607   10.8190   20.1426 C   0  0  0  0  0  0  0  0  0  0  0  0
   47.3244   13.6136   17.9777 O   0  0  0  0  0  0  0  0  0  0  0  0
   45.2055   10.3973   20.7390 O   0  0  0  0  0  0  0  0  0  0  0  0
   47.6931   11.9668   19.0460 C   0  0  0  0  0  0  0  0  0  0  0  0
   48.1926    4.8576   20.8252 C   0  0  0  0  0  0  0  0  0  0  0  0
   47.4960   12.2047   20.3970 C   0  0  0  0  0  0  0  0  0  0  0  0
   48.0045    5.2562   22.1405 C   0  0  0  0  0  0  0  0  0  0  0  0
   47.8516   10.6560   18.5960 C   0  0  0  0  0  0  0  0  0  0  0  0
   48.1813    5.8152   19.8127 C   0  0  0  0  0  0  0  0  0  0  0  0
   47.4664   11.1306   21.2875 C   0  0  0  0  0  0  0  0  0  0  0  0
   47.8067    6.6082   22.4305 C   0  0  0  0  0  0  0  0  0  0  0  0
   47.8130    9.5568   19.4926 C   0  0  0  0  0  0  0  0  0  0  0  0
   47.9852    7.1869   20.1015 C   0  0  0  0  0  0  0  0  0  0  0  0
   47.6260    9.8173   20.8652 C   0  0  0  0  0  0  0  0  0  0  0  0
   47.7944    7.5803   21.4378 C   0  0  0  0  0  0  0  0  0  0  0  0
   47.9496    8.1967   19.1080 C   0  0  0  0  0  0  0  0  0  0  0  0
   48.2691    7.8410   17.7639 N   0  0  0  0  0  0  0  0  0  0  0  0
   47.6084    8.8572   21.7998 N   0  0  0  0  0  0  0  0  0  0  0  0
   49.4436    3.8144   20.0328 H   0  0  0  0  0  0  0  0  0  0  0  0
   48.7924    5.0500   18.9361 H   0  0  0  0  0  0  0  0  0  0  0  0
   50.5204    4.6841   18.9274 H   0  0  0  0  0  0  0  0  0  0  0  0
   50.0751    6.8153   20.1459 H   0  0  0  0  0  0  0  0  0  0  0  0
   50.8195    5.5960   21.1644 H   0  0  0  0  0  0  0  0  0  0  0  0
   49.0590    6.7060   22.4154 H   0  0  0  0  0  0  0  0  0  0  0  0
   48.6711    5.0147   22.1907 H   0  0  0  0  0  0  0  0  0  0  0  0
   47.0240    5.5177   20.4665 H   0  0  0  0  0  0  0  0  0  0  0  0
   46.6860    6.4199   21.9278 H   0  0  0  0  0  0  0  0  0  0  0  0
   46.3092    7.7573   19.9087 H   0  0  0  0  0  0  0  0  0  0  0  0
   47.9622    7.5416   19.3788 H   0  0  0  0  0  0  0  0  0  0  0  0
   47.1711    8.9467   22.0042 H   0  0  0  0  0  0  0  0  0  0  0  0
   48.7950    8.7890   21.3907 H   0  0  0  0  0  0  0  0  0  0  0  0
   49.6621   10.1539   19.6514 H   0  0  0  0  0  0  0  0  0  0  0  0
   49.4697   12.2149   18.3088 H   0  0  0  0  0  0  0  0  0  0  0  0
   45.2974   12.4867   19.3133 H   0  0  0  0  0  0  0  0  0  0  0  0
   46.4161   13.9571   18.0100 H   0  0  0  0  0  0  0  0  0  0  0  0
   45.3585    9.5449   21.1736 H   0  0  0  0  0  0  0  0  0  0  0  0
   47.7225   12.7949   18.3425 H   0  0  0  0  0  0  0  0  0  0  0  0
   48.3412    3.8088   20.5836 H   0  0  0  0  0  0  0  0  0  0  0  0
   47.3692   13.2192   20.7653 H   0  0  0  0  0  0  0  0  0  0  0  0
   48.0075    4.5234   22.9427 H   0  0  0  0  0  0  0  0  0  0  0  0
   48.0057   10.5045   17.5321 H   0  0  0  0  0  0  0  0  0  0  0  0
   48.3134    5.4909   18.7825 H   0  0  0  0  0  0  0  0  0  0  0  0
   47.3196   11.3238   22.3481 H   0  0  0  0  0  0  0  0  0  0  0  0
   47.6592    6.9146   23.4637 H   0  0  0  0  0  0  0  0  0  0  0  0
   49.2807    7.7804   17.6577 H   0  0  0  0  0  0  0  0  0  0  0  0
   47.8882    8.4907   17.0847 H   0  0  0  0  0  0  0  0  0  0  0  0
  2  1  1  0
  3  2  1  0
  4  3  1  0
  5  4  1  0
  6  5  1  0
  8  7  2  0
 10  6  1  0
 10  7  1  0
 11  8  1  0
 11  9  2  0
 12  9  1  0
 12 10  2  0
 13 11  1  0
 14 12  1  0
 17 15  2  0
 18 16  1  0
 19 15  1  0
 20 16  2  0
 21 17  1  0
 22 18  2  0
 23 19  2  0
 24 20  1  0
 25 21  2  0
 25 23  1  0
 26 22  1  0
 26 24  1  0
 27 23  1  0
 27 24  2  0
 28 27  1  0
 29 25  1  0
 29 26  2  0
  1 30  1  0
  1 31  1  0
  1 32  1  0
  2 33  1  0
  2 34  1  0
  3 35  1  0
  3 36  1  0
  4 37  1  0
  4 38  1  0
  5 39  1  0
  5 40  1  0
  6 41  1  0
  6 42  1  0
  7 43  1  0
  8 44  1  0
  9 45  1  0
 13 46  1  0
 14 47  1  0
 15 48  1  0
 16 49  1  0
 17 50  1  0
 18 51  1  0
 19 52  1  0
 20 53  1  0
 21 54  1  0
 22 55  1  0
 28 56  1  0
 28 57  1  0
M  END
> <Uni-Dock RESULT> 
ENERGY=   -5.369  LOWER_BOUND=    7.970  UPPER_BOUND=    9.917
INTER + INTRA:          -5.369
INTER:                  -5.369
INTRA:                   0.000
UNBOUND:                 0.000

$$$$

     RDKit          3D

 57 59  0  0  0  0  0  0  0  0999 V2000
   43.5949    3.2686   12.7034 C   0  0  0  0  0  0  0  0  0  0  0  0
   43.4839    4.6953   13.2180 C   0  0  0  0  0  0  0  0  0  0  0  0
   43.5006    5.7476   12.1070 C   0  0  0  0  0  0  0  0  0  0  0  0
   44.7609    5.7721   11.2359 C   0  0  0  0  0  0  0  0  0  0  0  0
   46.0840    5.9525   11.9861 C   0  0  0  0  0  0  0  0  0  0  0  0
   46.1598    7.2630   12.7742 C   0  0  0  0  0  0  0  0  0  0  0  0
   47.6866    7.0625   14.7538 C   0  0  0  0  0  0  0  0  0  0  0  0
   48.9197    7.2118   15.3919 C   0  0  0  0  0  0  0  0  0  0  0  0
   49.8548    8.1346   13.3675 C   0  0  0  0  0  0  0  0  0  0  0  0
   47.5152    7.4524   13.4136 C   0  0  0  0  0  0  0  0  0  0  0  0
   49.9931    7.7485   14.6951 C   0  0  0  0  0  0  0  0  0  0  0  0
   48.6218    7.9803   12.7329 C   0  0  0  0  0  0  0  0  0  0  0  0
   51.1797    7.8792   15.3543 O   0  0  0  0  0  0  0  0  0  0  0  0
   48.5776    8.3725   11.4243 O   0  0  0  0  0  0  0  0  0  0  0  0
   49.3295    7.6220   14.6476 C   0  0  0  0  0  0  0  0  0  0  0  0
   43.6047    4.5179   11.2494 C   0  0  0  0  0  0  0  0  0  0  0  0
   48.7566    8.8405   14.3190 C   0  0  0  0  0  0  0  0  0  0  0  0
   43.1484    5.8065   11.0139 C   0  0  0  0  0  0  0  0  0  0  0  0
   48.7122    6.4405   14.2369 C   0  0  0  0  0  0  0  0  0  0  0  0
   44.8161    4.3326   11.9132 C   0  0  0  0  0  0  0  0  0  0  0  0
   47.5675    8.8669   13.5889 C   0  0  0  0  0  0  0  0  0  0  0  0
   43.9078    6.8971   11.4441 C   0  0  0  0  0  0  0  0  0  0  0  0
   47.5083    6.4577   13.4857 C   0  0  0  0  0  0  0  0  0  0  0  0
   45.5876    5.4341   12.3545 C   0  0  0  0  0  0  0  0  0  0  0  0
   46.9313    7.7049   13.1723 C   0  0  0  0  0  0  0  0  0  0  0  0
   45.1166    6.7361   12.1099 C   0  0  0  0  0  0  0  0  0  0  0  0
   46.8318    5.2997   13.0190 C   0  0  0  0  0  0  0  0  0  0  0  0
   47.2665    3.9933   13.3929 N   0  0  0  0  0  0  0  0  0  0  0  0
   45.7800    7.8337   12.4988 N   0  0  0  0  0  0  0  0  0  0  0  0
   42.8138    3.0548   11.9670 H   0  0  0  0  0  0  0  0  0  0  0  0
   44.5683    3.0838   12.2396 H   0  0  0  0  0  0  0  0  0  0  0  0
   43.4826    2.5611   13.5312 H   0  0  0  0  0  0  0  0  0  0  0  0
   44.2851    4.8879   13.9398 H   0  0  0  0  0  0  0  0  0  0  0  0
   42.5414    4.7932   13.7703 H   0  0  0  0  0  0  0  0  0  0  0  0
   43.3507    6.7355   12.5584 H   0  0  0  0  0  0  0  0  0  0  0  0
   42.6350    5.5840   11.4524 H   0  0  0  0  0  0  0  0  0  0  0  0
   44.8151    4.8459   10.6514 H   0  0  0  0  0  0  0  0  0  0  0  0
   44.6567    6.5827   10.5036 H   0  0  0  0  0  0  0  0  0  0  0  0
   46.8958    5.9195   11.2480 H   0  0  0  0  0  0  0  0  0  0  0  0
   46.2564    5.1014   12.6557 H   0  0  0  0  0  0  0  0  0  0  0  0
   45.9304    8.1195   12.1291 H   0  0  0  0  0  0  0  0  0  0  0  0
   45.3921    7.2778   13.5574 H   0  0  0  0  0  0  0  0  0  0  0  0
   46.8562    6.6378   15.3142 H   0  0  0  0  0  0  0  0  0  0  0  0
   49.0406    6.9101   16.4284 H   0  0  0  0  0  0  0  0  0  0  0  0
   50.6878    8.5508   12.8108 H   0  0  0  0  0  0  0  0  0  0  0  0
   51.8270    8.2686   14.7433 H   0  0  0  0  0  0  0  0  0  0  0  0
   47.7106    8.1547   11.0506 H   0  0  0  0  0  0  0  0  0  0  0  0
   50.2531    7.5875   15.2195 H   0  0  0  0  0  0  0  0  0  0  0  0
   43.0281    3.6598   10.9151 H   0  0  0  0  0  0  0  0  0  0  0  0
   49.2243    9.7710   14.6293 H   0  0  0  0  0  0  0  0  0  0  0  0
   42.2076    5.9703   10.4957 H   0  0  0  0  0  0  0  0  0  0  0  0
   49.1859    5.5033   14.5122 H   0  0  0  0  0  0  0  0  0  0  0  0
   45.1736    3.3183   12.0787 H   0  0  0  0  0  0  0  0  0  0  0  0
   47.1178    9.8261   13.3408 H   0  0  0  0  0  0  0  0  0  0  0  0
   43.5450    7.9052   11.2561 H   0  0  0  0  0  0  0  0  0  0  0  0
   46.7872    3.7044   14.2445 H   0  0  0  0  0  0  0  0  0  0  0  0
   48.2704    3.9362   13.5246 H   0  0  0  0  0  0  0  0  0  0  0  0
  2  1  1  0
  3  2  1  0
  4  3  1  0
  5  4  1  0
  6  5  1  0
  8  7  2  0
 10  6  1  0
 10  7  1  0
 11  8  1  0
 11  9  2  0
 12  9  1  0
 12 10  2  0
 13 11  1  0
 14 12  1  0
 17 15  2  0
 18 16  1  0
 19 15  1  0
 20 16  2  0
 21 17  1  0
 22 18  2  0
 23 19  2  0
 24 20  1  0
 25 21  2  0
 25 23  1  0
 26 22  1  0
 26 24  1  0
 27 23  1  0
 27 24  2  0
 28 27  1  0
 29 25  1  0
 29 26  2  0
  1 30  1  0
  1 31  1  0
  1 32  1  0
  2 33  1  0
  2 34  1  0
  3 35  1  0
  3 36  1  0
  4 37  1  0
  4 38  1  0
  5 39  1  0
  5 40  1  0
  6 41  1  0
  6 42  1  0
  7 43  1  0
  8 44  1  0
  9 45  1  0
 13 46  1  0
 14 47  1  0
 15 48  1  0
 16 49  1  0
 17 50  1  0
 18 51  1  0
 19 52  1  0
 20 53  1  0
 21 54  1  0
 22 55  1  0
 28 56  1  0
 28 57  1  0
M  END
> <Uni-Dock RESULT> 
ENERGY=   -5.369  LOWER_BOUND=    2.230  UPPER_BOUND=    5.562
INTER + INTRA:          -5.369
INTER:                  -5.369
INTRA:                   0.000
UNBOUND:                 0.000

$$$$

     RDKit          3D

 57 59  0  0  0  0  0  0  0  0999 V2000
   48.2924    5.6901   15.6917 C   0  0  0  0  0  0  0  0  0  0  0  0
   49.3032    5.2430   16.7360 C   0  0  0  0  0  0  0  0  0  0  0  0
   48.8792    3.9841   17.4958 C   0  0  0  0  0  0  0  0  0  0  0  0
   47.5685    4.0941   18.2819 C   0  0  0  0  0  0  0  0  0  0  0  0
   47.5020    5.2293   19.3078 C   0  0  0  0  0  0  0  0  0  0  0  0
   48.5730    5.1251   20.3970 C   0  0  0  0  0  0  0  0  0  0  0  0
   49.1692    7.3781   21.3238 C   0  0  0  0  0  0  0  0  0  0  0  0
   49.0539    8.4055   22.2625 C   0  0  0  0  0  0  0  0  0  0  0  0
   47.4074    7.1178   23.4687 C   0  0  0  0  0  0  0  0  0  0  0  0
   48.4099    6.2006   21.4451 C   0  0  0  0  0  0  0  0  0  0  0  0
   48.1762    8.2666   23.3284 C   0  0  0  0  0  0  0  0  0  0  0  0
   47.5233    6.0953   22.5265 C   0  0  0  0  0  0  0  0  0  0  0  0
   48.0941    9.2916   24.2241 O   0  0  0  0  0  0  0  0  0  0  0  0
   46.7212    5.0079   22.7329 O   0  0  0  0  0  0  0  0  0  0  0  0
   48.4418    7.9324   22.8027 C   0  0  0  0  0  0  0  0  0  0  0  0
   47.6930    4.1009   16.5805 C   0  0  0  0  0  0  0  0  0  0  0  0
   48.9825    6.7792   23.3490 C   0  0  0  0  0  0  0  0  0  0  0  0
   48.2695    3.0380   17.2601 C   0  0  0  0  0  0  0  0  0  0  0  0
   47.9917    7.9206   21.4824 C   0  0  0  0  0  0  0  0  0  0  0  0
   47.4756    5.3033   17.2509 C   0  0  0  0  0  0  0  0  0  0  0  0
   49.0751    5.6261   22.5684 C   0  0  0  0  0  0  0  0  0  0  0  0
   48.6229    3.1875   18.6032 C   0  0  0  0  0  0  0  0  0  0  0  0
   48.0728    6.7501   20.6841 C   0  0  0  0  0  0  0  0  0  0  0  0
   47.8353    5.4613   18.6106 C   0  0  0  0  0  0  0  0  0  0  0  0
   48.6384    5.5900   21.2506 C   0  0  0  0  0  0  0  0  0  0  0  0
   48.4181    4.3774   19.2906 C   0  0  0  0  0  0  0  0  0  0  0  0
   47.6214    6.6566   19.3410 C   0  0  0  0  0  0  0  0  0  0  0  0
   47.1530    7.8079   18.6408 N   0  0  0  0  0  0  0  0  0  0  0  0
   48.7941    4.4431   20.5753 N   0  0  0  0  0  0  0  0  0  0  0  0
   48.0689    4.8807   14.9894 H   0  0  0  0  0  0  0  0  0  0  0  0
   47.3559    6.0165   16.1534 H   0  0  0  0  0  0  0  0  0  0  0  0
   48.6916    6.5339   15.1197 H   0  0  0  0  0  0  0  0  0  0  0  0
   49.4966    6.0647   17.4342 H   0  0  0  0  0  0  0  0  0  0  0  0
   50.2552    5.0362   16.2320 H   0  0  0  0  0  0  0  0  0  0  0  0
   49.6891    3.6968   18.1768 H   0  0  0  0  0  0  0  0  0  0  0  0
   48.7818    3.1563   16.7817 H   0  0  0  0  0  0  0  0  0  0  0  0
   46.7340    4.2092   17.5799 H   0  0  0  0  0  0  0  0  0  0  0  0
   47.3965    3.1411   18.7980 H   0  0  0  0  0  0  0  0  0  0  0  0
   46.5057    5.2082   19.7680 H   0  0  0  0  0  0  0  0  0  0  0  0
   47.5749    6.1992   18.8014 H   0  0  0  0  0  0  0  0  0  0  0  0
   48.5508    4.1370   20.8720 H   0  0  0  0  0  0  0  0  0  0  0  0
   49.5725    5.2096   19.9534 H   0  0  0  0  0  0  0  0  0  0  0  0
   49.8604    7.5044   20.4930 H   0  0  0  0  0  0  0  0  0  0  0  0
   49.6473    9.3097   22.1611 H   0  0  0  0  0  0  0  0  0  0  0  0
   46.7142    6.9997   24.2949 H   0  0  0  0  0  0  0  0  0  0  0  0
   47.4479    9.0486   24.9077 H   0  0  0  0  0  0  0  0  0  0  0  0
   46.8136    4.3924   21.9903 H   0  0  0  0  0  0  0  0  0  0  0  0
   48.3678    8.8384   23.3986 H   0  0  0  0  0  0  0  0  0  0  0  0
   47.4070    3.9975   15.5375 H   0  0  0  0  0  0  0  0  0  0  0  0
   49.3368    6.7697   24.3763 H   0  0  0  0  0  0  0  0  0  0  0  0
   48.4441    2.0922   16.7546 H   0  0  0  0  0  0  0  0  0  0  0  0
   47.5753    8.8408   21.0846 H   0  0  0  0  0  0  0  0  0  0  0  0
   47.0078    6.1260   16.7139 H   0  0  0  0  0  0  0  0  0  0  0  0
   49.5080    4.7259   22.9999 H   0  0  0  0  0  0  0  0  0  0  0  0
   49.0742    2.3502   19.1309 H   0  0  0  0  0  0  0  0  0  0  0  0
   47.9305    8.2516   18.1539 H   0  0  0  0  0  0  0  0  0  0  0  0
   46.6975    8.4793   19.2493 H   0  0  0  0  0  0  0  0  0  0  0  0
  2  1  1  0
  3  2  1  0
  4  3  1  0
  5  4  1  0
  6  5  1  0
  8  7  2  0
 10  6  1  0
 10  7  1  0
 11  8  1  0
 11  9  2  0
 12  9  1  0
 12 10  2  0
 13 11  1  0
 14 12  1  0
 17 15  2  0
 18 16  1  0
 19 15  1  0
 20 16  2  0
 21 17  1  0
 22 18  2  0
 23 19  2  0
 24 20  1  0
 25 21  2  0
 25 23  1  0
 26 22  1  0
 26 24  1  0
 27 23  1  0
 27 24  2  0
 28 27  1  0
 29 25  1  0
 29 26  2  0
  1 30  1  0
  1 31  1  0
  1 32  1  0
  2 33  1  0
  2 34  1  0
  3 35  1  0
  3 36  1  0
  4 37  1  0
  4 38  1  0
  5 39  1  0
  5 40  1  0
  6 41  1  0
  6 42  1  0
  7 43  1  0
  8 44  1  0
  9 45  1  0
 13 46  1  0
 14 47  1  0
 15 48  1  0
 16 49  1  0
 17 50  1  0
 18 51  1  0
 19 52  1  0
 20 53  1  0
 21 54  1  0
 22 55  1  0
 28 56  1  0
 28 57  1  0
M  END
> <Uni-Dock RESULT> 
ENERGY=   -5.121  LOWER_BOUND=    7.556  UPPER_BOUND=    9.745
INTER + INTRA:          -5.121
INTER:                  -5.121
INTRA:                   0.000
UNBOUND:                 0.000

$$$$

     RDKit          3D

 57 59  0  0  0  0  0  0  0  0999 V2000
   47.7734    9.2495   21.9074 C   0  0  0  0  0  0  0  0  0  0  0  0
   47.3057    7.8233   22.1517 C   0  0  0  0  0  0  0  0  0  0  0  0
   48.4150    6.8943   22.6500 C   0  0  0  0  0  0  0  0  0  0  0  0
   49.6131    6.7282   21.7092 C   0  0  0  0  0  0  0  0  0  0  0  0
   49.2845    6.2453   20.2934 C   0  0  0  0  0  0  0  0  0  0  0  0
   48.6043    4.8739   20.2636 C   0  0  0  0  0  0  0  0  0  0  0  0
   47.1433    4.6119   18.2420 C   0  0  0  0  0  0  0  0  0  0  0  0
   46.8947    4.1861   16.9356 C   0  0  0  0  0  0  0  0  0  0  0  0
   49.1377    3.3066   16.7961 C   0  0  0  0  0  0  0  0  0  0  0  0
   48.3914    4.3868   18.8497 C   0  0  0  0  0  0  0  0  0  0  0  0
   47.8923    3.5350   16.2239 C   0  0  0  0  0  0  0  0  0  0  0  0
   49.3828    3.7370   18.1005 C   0  0  0  0  0  0  0  0  0  0  0  0
   47.6093    3.1336   14.9516 O   0  0  0  0  0  0  0  0  0  0  0  0
   50.6375    3.4841   18.5802 O   0  0  0  0  0  0  0  0  0  0  0  0
   47.7412    3.7815   16.8363 C   0  0  0  0  0  0  0  0  0  0  0  0
   49.2167    8.1612   22.5456 C   0  0  0  0  0  0  0  0  0  0  0  0
   47.9385    2.7209   17.7064 C   0  0  0  0  0  0  0  0  0  0  0  0
   49.3614    7.0024   23.2943 C   0  0  0  0  0  0  0  0  0  0  0  0
   47.9091    5.0874   17.2969 C   0  0  0  0  0  0  0  0  0  0  0  0
   48.9241    8.0646   21.1865 C   0  0  0  0  0  0  0  0  0  0  0  0
   48.2949    2.9754   19.0315 C   0  0  0  0  0  0  0  0  0  0  0  0
   49.2123    5.7585   22.6766 C   0  0  0  0  0  0  0  0  0  0  0  0
   48.2809    5.3556   18.6399 C   0  0  0  0  0  0  0  0  0  0  0  0
   48.7682    6.8067   20.5566 C   0  0  0  0  0  0  0  0  0  0  0  0
   48.4637    4.2662   19.5154 C   0  0  0  0  0  0  0  0  0  0  0  0
   48.9179    5.6382   21.3241 C   0  0  0  0  0  0  0  0  0  0  0  0
   48.4862    6.6543   19.1763 C   0  0  0  0  0  0  0  0  0  0  0  0
   48.2022    7.8212   18.4064 N   0  0  0  0  0  0  0  0  0  0  0  0
   48.7809    4.4084   20.8095 N   0  0  0  0  0  0  0  0  0  0  0  0
   48.2440    9.6674   22.8030 H   0  0  0  0  0  0  0  0  0  0  0  0
   48.4907    9.3011   21.0831 H   0  0  0  0  0  0  0  0  0  0  0  0
   46.9211    9.8845   21.6452 H   0  0  0  0  0  0  0  0  0  0  0  0
   46.8541    7.4240   21.2370 H   0  0  0  0  0  0  0  0  0  0  0  0
   46.5093    7.8431   22.9055 H   0  0  0  0  0  0  0  0  0  0  0  0
   47.9792    5.9108   22.8616 H   0  0  0  0  0  0  0  0  0  0  0  0
   48.7850    7.2703   23.6125 H   0  0  0  0  0  0  0  0  0  0  0  0
   50.1511    7.6809   21.6366 H   0  0  0  0  0  0  0  0  0  0  0  0
   50.3157    6.0218   22.1692 H   0  0  0  0  0  0  0  0  0  0  0  0
   50.2235    6.2028   19.7267 H   0  0  0  0  0  0  0  0  0  0  0  0
   48.6599    6.9852   19.7787 H   0  0  0  0  0  0  0  0  0  0  0  0
   49.1893    4.1366   20.8264 H   0  0  0  0  0  0  0  0  0  0  0  0
   47.6342    4.9221   20.7730 H   0  0  0  0  0  0  0  0  0  0  0  0
   46.3507    5.1228   18.7849 H   0  0  0  0  0  0  0  0  0  0  0  0
   45.9261    4.3623   16.4766 H   0  0  0  0  0  0  0  0  0  0  0  0
   49.9271    2.8032   16.2481 H   0  0  0  0  0  0  0  0  0  0  0  0
   48.3960    2.6946   14.5880 H   0  0  0  0  0  0  0  0  0  0  0  0
   50.7361    3.8870   19.4559 H   0  0  0  0  0  0  0  0  0  0  0  0
   47.4593    3.5970   15.8029 H   0  0  0  0  0  0  0  0  0  0  0  0
   49.3362    9.1358   23.0108 H   0  0  0  0  0  0  0  0  0  0  0  0
   47.8136    1.6970   17.3646 H   0  0  0  0  0  0  0  0  0  0  0  0
   49.5922    7.0583   24.3546 H   0  0  0  0  0  0  0  0  0  0  0  0
   47.7453    5.8950   16.5903 H   0  0  0  0  0  0  0  0  0  0  0  0
   48.8286    8.9788   20.6042 H   0  0  0  0  0  0  0  0  0  0  0  0
   48.4404    2.1393   19.7123 H   0  0  0  0  0  0  0  0  0  0  0  0
   49.3274    4.8533   23.2688 H   0  0  0  0  0  0  0  0  0  0  0  0
   47.2378    8.1093   18.5655 H   0  0  0  0  0  0  0  0  0  0  0  0
   48.3637    7.6861   17.4143 H   0  0  0  0  0  0  0  0  0  0  0  0
  2  1  1  0
  3  2  1  0
  4  3  1  0
  5  4  1  0
  6  5  1  0
  8  7  2  0
 10  6  1  0
 10  7  1  0
 11  8  1  0
 11  9  2  0
 12  9  1  0
 12 10  2  0
 13 11  1  0
 14 12  1  0
 17 15  2  0
 18 16  1  0
 19 15  1  0
 20 16  2  0
 21 17  1  0
 22 18  2  0
 23 19  2  0
 24 20  1  0
 25 21  2  0
 25 23  1  0
 26 22  1  0
 26 24  1  0
 27 23  1  0
 27 24  2  0
 28 27  1  0
 29 25  1  0
 29 26  2  0
  1 30  1  0
  1 31  1  0
  1 32  1  0
  2 33  1  0
  2 34  1  0
  3 35  1  0
  3 36  1  0
  4 37  1  0
  4 38  1  0
  5 39  1  0
  5 40  1  0
  6 41  1  0
  6 42  1  0
  7 43  1  0
  8 44  1  0
  9 45  1  0
 13 46  1  0
 14 47  1  0
 15 48  1  0
 16 49  1  0
 17 50  1  0
 18 51  1  0
 19 52  1  0
 20 53  1  0
 21 54  1  0
 22 55  1  0
 28 56  1  0
 28 57  1  0
M  END
> <Uni-Dock RESULT> 
ENERGY=   -4.985  LOWER_BOUND=    7.049  UPPER_BOUND=    8.434
INTER + INTRA:          -4.985
INTER:                  -4.985
INTRA:                   0.000
UNBOUND:                 0.000

$$$$

     RDKit          3D

 57 59  0  0  0  0  0  0  0  0999 V2000
   50.3219   12.7814   14.3105 C   0  0  0  0  0  0  0  0  0  0  0  0
   48.8375   12.6327   14.6050 C   0  0  0  0  0  0  0  0  0  0  0  0
   48.2230   13.8616   15.2788 C   0  0  0  0  0  0  0  0  0  0  0  0
   48.8261   14.2455   16.6341 C   0  0  0  0  0  0  0  0  0  0  0  0
   48.8134   13.1479   17.7022 C   0  0  0  0  0  0  0  0  0  0  0  0
   47.4050   12.6613   18.0542 C   0  0  0  0  0  0  0  0  0  0  0  0
   47.4237   10.2871   18.8623 C   0  0  0  0  0  0  0  0  0  0  0  0
   47.4475    9.3165   19.8659 C   0  0  0  0  0  0  0  0  0  0  0  0
   47.4910   11.0519   21.5424 C   0  0  0  0  0  0  0  0  0  0  0  0
   47.4270   11.6566   19.1820 C   0  0  0  0  0  0  0  0  0  0  0  0
   47.4786    9.7060   21.1975 C   0  0  0  0  0  0  0  0  0  0  0  0
   47.4706   12.0183   20.5361 C   0  0  0  0  0  0  0  0  0  0  0  0
   47.4995    8.7277   22.1473 O   0  0  0  0  0  0  0  0  0  0  0  0
   47.4987   13.3164   20.9630 O   0  0  0  0  0  0  0  0  0  0  0  0
   47.4179    9.9467   20.5674 C   0  0  0  0  0  0  0  0  0  0  0  0
   49.6307   14.3680   15.1349 C   0  0  0  0  0  0  0  0  0  0  0  0
   46.2462   10.6869   20.5795 C   0  0  0  0  0  0  0  0  0  0  0  0
   48.4004   14.9976   15.2542 C   0  0  0  0  0  0  0  0  0  0  0  0
   48.4395   10.2935   19.6832 C   0  0  0  0  0  0  0  0  0  0  0  0
   49.9446   13.3136   15.9904 C   0  0  0  0  0  0  0  0  0  0  0  0
   46.1032   11.7630   19.7023 C   0  0  0  0  0  0  0  0  0  0  0  0
   47.4962   14.5669   16.2279 C   0  0  0  0  0  0  0  0  0  0  0  0
   48.3071   11.3920   18.7945 C   0  0  0  0  0  0  0  0  0  0  0  0
   49.0305   12.8708   16.9762 C   0  0  0  0  0  0  0  0  0  0  0  0
   47.1035   12.1254   18.8098 C   0  0  0  0  0  0  0  0  0  0  0  0
   47.7866   13.5164   17.0896 C   0  0  0  0  0  0  0  0  0  0  0  0
   49.3074   11.8149   17.8797 C   0  0  0  0  0  0  0  0  0  0  0  0
   50.5055   11.0616   17.7002 N   0  0  0  0  0  0  0  0  0  0  0  0
   46.8611   13.1573   17.9900 N   0  0  0  0  0  0  0  0  0  0  0  0
   50.5161   13.6779   13.7133 H   0  0  0  0  0  0  0  0  0  0  0  0
   50.9094   12.8445   15.2312 H   0  0  0  0  0  0  0  0  0  0  0  0
   50.6816   11.9146   13.7467 H   0  0  0  0  0  0  0  0  0  0  0  0
   48.6729   11.7385   15.2161 H   0  0  0  0  0  0  0  0  0  0  0  0
   48.3110   12.4603   13.6584 H   0  0  0  0  0  0  0  0  0  0  0  0
   47.1454   13.6957   15.3937 H   0  0  0  0  0  0  0  0  0  0  0  0
   48.3225   14.7214   14.6039 H   0  0  0  0  0  0  0  0  0  0  0  0
   49.8607   14.5785   16.4887 H   0  0  0  0  0  0  0  0  0  0  0  0
   48.2818   15.1178   17.0176 H   0  0  0  0  0  0  0  0  0  0  0  0
   49.2998   13.5482   18.6010 H   0  0  0  0  0  0  0  0  0  0  0  0
   49.4330   12.3023   17.3805 H   0  0  0  0  0  0  0  0  0  0  0  0
   46.7566   13.5047   18.3206 H   0  0  0  0  0  0  0  0  0  0  0  0
   46.9339   12.2011   17.1771 H   0  0  0  0  0  0  0  0  0  0  0  0
   47.4018    9.9643   17.8234 H   0  0  0  0  0  0  0  0  0  0  0  0
   47.4417    8.2613   19.6081 H   0  0  0  0  0  0  0  0  0  0  0  0
   47.5202   11.3688   22.5795 H   0  0  0  0  0  0  0  0  0  0  0  0
   47.5164    9.1514   23.0215 H   0  0  0  0  0  0  0  0  0  0  0  0
   47.5618   13.9072   20.1976 H   0  0  0  0  0  0  0  0  0  0  0  0
   47.5402    9.1037   21.2425 H   0  0  0  0  0  0  0  0  0  0  0  0
   50.3468   14.6961   14.3865 H   0  0  0  0  0  0  0  0  0  0  0  0
   45.4404   10.4321   21.2625 H   0  0  0  0  0  0  0  0  0  0  0  0
   48.1394   15.8231   14.5978 H   0  0  0  0  0  0  0  0  0  0  0  0
   49.3433    9.6923   19.6980 H   0  0  0  0  0  0  0  0  0  0  0  0
   50.9185   12.8368   15.8999 H   0  0  0  0  0  0  0  0  0  0  0  0
   45.1780   12.3355   19.7104 H   0  0  0  0  0  0  0  0  0  0  0  0
   46.5332   15.0648   16.3170 H   0  0  0  0  0  0  0  0  0  0  0  0
   50.3725   10.3805   16.9541 H   0  0  0  0  0  0  0  0  0  0  0  0
   50.8050   10.5923   18.5478 H   0  0  0  0  0  0  0  0  0  0  0  0
  2  1  1  0
  3  2  1  0
  4  3  1  0
  5  4  1  0
  6  5  1  0
  8  7  2  0
 10  6  1  0
 10  7  1  0
 11  8  1  0
 11  9  2  0
 12  9  1  0
 12 10  2  0
 13 11  1  0
 14 12  1  0
 17 15  2  0
 18 16  1  0
 19 15  1  0
 20 16  2  0
 21 17  1  0
 22 18  2  0
 23 19  2  0
 24 20  1  0
 25 21  2  0
 25 23  1  0
 26 22  1  0
 26 24  1  0
 27 23  1  0
 27 24  2  0
 28 27  1  0
 29 25  1  0
 29 26  2  0
  1 30  1  0
  1 31  1  0
  1 32  1  0
  2 33  1  0
  2 34  1  0
  3 35  1  0
  3 36  1  0
  4 37  1  0
  4 38  1  0
  5 39  1  0
  5 40  1  0
  6 41  1  0
  6 42  1  0
  7 43  1  0
  8 44  1  0
  9 45  1  0
 13 46  1  0
 14 47  1  0
 15 48  1  0
 16 49  1  0
 17 50  1  0
 18 51  1  0
 19 52  1  0
 20 53  1  0
 21 54  1  0
 22 55  1  0
 28 56  1  0
 28 57  1  0
M  END
> <Uni-Dock RESULT> 
ENERGY=   -4.837  LOWER_BOUND=    8.217  UPPER_BOUND=    9.279
INTER + INTRA:          -4.837
INTER:                  -4.837
INTRA:                   0.000
UNBOUND:                 0.000

$$$$
