
     RDKit          3D

 57 59  0  0  0  0  0  0  0  0999 V2000
   48.9284    7.1024   22.9056 C   0  0  0  0  0  0  0  0  0  0  0  0
   48.4437    8.5063   23.2328 C   0  0  0  0  0  0  0  0  0  0  0  0
   47.3416    9.0094   22.2965 C   0  0  0  0  0  0  0  0  0  0  0  0
   47.8176    9.2071   20.8550 C   0  0  0  0  0  0  0  0  0  0  0  0
   46.7222    9.7340   19.9188 C   0  0  0  0  0  0  0  0  0  0  0  0
   46.2062   11.1446   20.2302 C   0  0  0  0  0  0  0  0  0  0  0  0
   47.8360   12.7855   21.2398 C   0  0  0  0  0  0  0  0  0  0  0  0
   48.8120   13.7793   21.1331 C   0  0  0  0  0  0  0  0  0  0  0  0
   48.6390   13.6838   18.7222 C   0  0  0  0  0  0  0  0  0  0  0  0
   47.2508   12.2271   20.0919 C   0  0  0  0  0  0  0  0  0  0  0  0
   49.2043   14.2185   19.8735 C   0  0  0  0  0  0  0  0  0  0  0  0
   47.6659   12.6922   18.8376 C   0  0  0  0  0  0  0  0  0  0  0  0
   50.1538   15.1865   19.7234 O   0  0  0  0  0  0  0  0  0  0  0  0
   47.0960   12.1606   17.7143 O   0  0  0  0  0  0  0  0  0  0  0  0
   47.9855   14.2075   19.5040 C   0  0  0  0  0  0  0  0  0  0  0  0
   47.6184    7.6151   22.7227 C   0  0  0  0  0  0  0  0  0  0  0  0
   47.9740   13.5259   18.2973 C   0  0  0  0  0  0  0  0  0  0  0  0
   47.5946    7.0805   21.4429 C   0  0  0  0  0  0  0  0  0  0  0  0
   47.9635   13.4880   20.6988 C   0  0  0  0  0  0  0  0  0  0  0  0
   47.7232    8.9953   22.8850 C   0  0  0  0  0  0  0  0  0  0  0  0
   47.9333   12.1309   18.2956 C   0  0  0  0  0  0  0  0  0  0  0  0
   47.6760    7.9312   20.3379 C   0  0  0  0  0  0  0  0  0  0  0  0
   47.9322   12.0693   20.7071 C   0  0  0  0  0  0  0  0  0  0  0  0
   47.8021    9.8619   21.7688 C   0  0  0  0  0  0  0  0  0  0  0  0
   47.9066   11.3920   19.4712 C   0  0  0  0  0  0  0  0  0  0  0  0
   47.7781    9.3100   20.4759 C   0  0  0  0  0  0  0  0  0  0  0  0
   47.9253   11.2692   21.8802 C   0  0  0  0  0  0  0  0  0  0  0  0
   47.8210   11.8617   23.1737 N   0  0  0  0  0  0  0  0  0  0  0  0
   47.8417   10.0577   19.3655 N   0  0  0  0  0  0  0  0  0  0  0  0
   49.6364    6.7629   23.6686 H   0  0  0  0  0  0  0  0  0  0  0  0
   49.4425    7.0693   21.9408 H   0  0  0  0  0  0  0  0  0  0  0  0
   48.0941    6.3944   22.8791 H   0  0  0  0  0  0  0  0  0  0  0  0
   48.0542    8.5083   24.2580 H   0  0  0  0  0  0  0  0  0  0  0  0
   49.2929    9.1994   23.2157 H   0  0  0  0  0  0  0  0  0  0  0  0
   46.9742    9.9592   22.6994 H   0  0  0  0  0  0  0  0  0  0  0  0
   46.4967    8.3104   22.3144 H   0  0  0  0  0  0  0  0  0  0  0  0
   48.1567    8.2456   20.4519 H   0  0  0  0  0  0  0  0  0  0  0  0
   48.6865    9.8743   20.8349 H   0  0  0  0  0  0  0  0  0  0  0  0
   45.8720    9.0407   19.9464 H   0  0  0  0  0  0  0  0  0  0  0  0
   47.1081    9.7032   18.8924 H   0  0  0  0  0  0  0  0  0  0  0  0
   45.7641   11.1755   21.2329 H   0  0  0  0  0  0  0  0  0  0  0  0
   45.3747   11.3766   19.5517 H   0  0  0  0  0  0  0  0  0  0  0  0
   47.5346   12.4443   22.2277 H   0  0  0  0  0  0  0  0  0  0  0  0
   49.2488   14.1923   22.0367 H   0  0  0  0  0  0  0  0  0  0  0  0
   48.9651   14.0486   17.7543 H   0  0  0  0  0  0  0  0  0  0  0  0
   50.4551   15.4627   20.6046 H   0  0  0  0  0  0  0  0  0  0  0  0
   47.4903   12.5882   16.9366 H   0  0  0  0  0  0  0  0  0  0  0  0
   48.0127   15.2940   19.5190 H   0  0  0  0  0  0  0  0  0  0  0  0
   47.5625    6.9654   23.5918 H   0  0  0  0  0  0  0  0  0  0  0  0
   47.9922   14.0699   17.3567 H   0  0  0  0  0  0  0  0  0  0  0  0
   47.5162    6.0067   21.2971 H   0  0  0  0  0  0  0  0  0  0  0  0
   47.9716   14.0523   21.6261 H   0  0  0  0  0  0  0  0  0  0  0  0
   47.7576    9.4037   23.8930 H   0  0  0  0  0  0  0  0  0  0  0  0
   47.9162   11.6011   17.3454 H   0  0  0  0  0  0  0  0  0  0  0  0
   47.6574    7.5063   19.3369 H   0  0  0  0  0  0  0  0  0  0  0  0
   48.2598   12.7746   23.2242 H   0  0  0  0  0  0  0  0  0  0  0  0
   46.8398   11.9324   23.4391 H   0  0  0  0  0  0  0  0  0  0  0  0
  2  1  1  0
  3  2  1  0
  4  3  1  0
  5  4  1  0
  6  5  1  0
  8  7  2  0
 10  6  1  0
 10  7  1  0
 11  8  1  0
 11  9  2  0
 12  9  1  0
 12 10  2  0
 13 11  1  0
 14 12  1  0
 17 15  2  0
 18 16  1  0
 19 15  1  0
 20 16  2  0
 21 17  1  0
 22 18  2  0
 23 19  2  0
 24 20  1  0
 25 21  2  0
 25 23  1  0
 26 22  1  0
 26 24  1  0
 27 23  1  0
 27 24  2  0
 28 27  1  0
 29 25  1  0
 29 26  2  0
  1 30  1  0
  1 31  1  0
  1 32  1  0
  2 33  1  0
  2 34  1  0
  3 35  1  0
  3 36  1  0
  4 37  1  0
  4 38  1  0
  5 39  1  0
  5 40  1  0
  6 41  1  0
  6 42  1  0
  7 43  1  0
  8 44  1  0
  9 45  1  0
 13 46  1  0
 14 47  1  0
 15 48  1  0
 16 49  1  0
 17 50  1  0
 18 51  1  0
 19 52  1  0
 20 53  1  0
 21 54  1  0
 22 55  1  0
 28 56  1  0
 28 57  1  0
M  END
> <Uni-Dock RESULT> 
ENERGY=   -5.860  LOWER_BOUND=    0.000  UPPER_BOUND=    0.000
INTER + INTRA:          -5.860
INTER:                  -5.860
INTRA:                   0.000
UNBOUND:                 0.000

$$$$

     RDKit          3D

 57 59  0  0  0  0  0  0  0  0999 V2000
   45.8075   11.8073   19.9501 C   0  0  0  0  0  0  0  0  0  0  0  0
   46.3411   10.5059   20.5286 C   0  0  0  0  0  0  0  0  0  0  0  0
   47.7360   10.1336   20.0188 C   0  0  0  0  0  0  0  0  0  0  0  0
   47.7651    9.8071   18.5234 C   0  0  0  0  0  0  0  0  0  0  0  0
   49.1567    9.4101   18.0137 C   0  0  0  0  0  0  0  0  0  0  0  0
   49.7256    8.1061   18.5872 C   0  0  0  0  0  0  0  0  0  0  0  0
   48.0863    6.2849   19.1905 C   0  0  0  0  0  0  0  0  0  0  0  0
   47.3288    5.1536   18.8779 C   0  0  0  0  0  0  0  0  0  0  0  0
   48.2346    5.1727   16.6350 C   0  0  0  0  0  0  0  0  0  0  0  0
   48.9249    6.8756   18.2314 C   0  0  0  0  0  0  0  0  0  0  0  0
   47.4106    4.6086   17.6012 C   0  0  0  0  0  0  0  0  0  0  0  0
   48.9869    6.3019   16.9551 C   0  0  0  0  0  0  0  0  0  0  0  0
   46.6884    3.5047   17.2532 O   0  0  0  0  0  0  0  0  0  0  0  0
   49.8069    6.8647   16.0171 O   0  0  0  0  0  0  0  0  0  0  0  0
   48.6718    4.7851   17.6204 C   0  0  0  0  0  0  0  0  0  0  0  0
   47.1631   11.4878   20.2191 C   0  0  0  0  0  0  0  0  0  0  0  0
   48.9732    5.4097   16.4205 C   0  0  0  0  0  0  0  0  0  0  0  0
   47.5179   11.9659   18.9662 C   0  0  0  0  0  0  0  0  0  0  0  0
   48.2259    5.5493   18.6988 C   0  0  0  0  0  0  0  0  0  0  0  0
   47.1908   10.1154   20.4599 C   0  0  0  0  0  0  0  0  0  0  0  0
   48.8330    6.7940   16.3114 C   0  0  0  0  0  0  0  0  0  0  0  0
   47.8967   11.0670   17.9662 C   0  0  0  0  0  0  0  0  0  0  0  0
   48.0708    6.9560   18.5943 C   0  0  0  0  0  0  0  0  0  0  0  0
   47.5774    9.2007   19.4514 C   0  0  0  0  0  0  0  0  0  0  0  0
   48.3952    7.5772   17.3713 C   0  0  0  0  0  0  0  0  0  0  0  0
   47.9342    9.6954   18.1846 C   0  0  0  0  0  0  0  0  0  0  0  0
   47.6071    7.7966   19.6405 C   0  0  0  0  0  0  0  0  0  0  0  0
   47.3760    7.2809   20.9504 N   0  0  0  0  0  0  0  0  0  0  0  0
   48.3182    8.9008   17.1760 N   0  0  0  0  0  0  0  0  0  0  0  0
   44.8587   12.0695   20.4294 H   0  0  0  0  0  0  0  0  0  0  0  0
   45.6217   11.7232   18.8755 H   0  0  0  0  0  0  0  0  0  0  0  0
   46.5100   12.6297   20.1178 H   0  0  0  0  0  0  0  0  0  0  0  0
   46.3867   10.6048   21.6199 H   0  0  0  0  0  0  0  0  0  0  0  0
   45.6363    9.6943   20.3137 H   0  0  0  0  0  0  0  0  0  0  0  0
   48.0773    9.2666   20.5944 H   0  0  0  0  0  0  0  0  0  0  0  0
   48.4357   10.9505   20.2327 H   0  0  0  0  0  0  0  0  0  0  0  0
   47.4490   10.6898   17.9552 H   0  0  0  0  0  0  0  0  0  0  0  0
   47.0394    9.0179   18.2974 H   0  0  0  0  0  0  0  0  0  0  0  0
   49.8591   10.2226   18.2388 H   0  0  0  0  0  0  0  0  0  0  0  0
   49.1112    9.3402   16.9199 H   0  0  0  0  0  0  0  0  0  0  0  0
   49.8315    8.1834   19.6758 H   0  0  0  0  0  0  0  0  0  0  0  0
   50.7504    7.9722   18.2164 H   0  0  0  0  0  0  0  0  0  0  0  0
   48.0167    6.7082   20.1901 H   0  0  0  0  0  0  0  0  0  0  0  0
   46.6877    4.7184   19.6378 H   0  0  0  0  0  0  0  0  0  0  0  0
   48.2778    4.7233   15.6488 H   0  0  0  0  0  0  0  0  0  0  0  0
   46.1642    3.2240   18.0214 H   0  0  0  0  0  0  0  0  0  0  0  0
   49.7343    6.3511   15.1960 H   0  0  0  0  0  0  0  0  0  0  0  0
   48.7809    3.7083   17.7198 H   0  0  0  0  0  0  0  0  0  0  0  0
   46.8602   12.1745   21.0048 H   0  0  0  0  0  0  0  0  0  0  0  0
   49.3206    4.8302   15.5694 H   0  0  0  0  0  0  0  0  0  0  0  0
   47.4997   13.0325   18.7594 H   0  0  0  0  0  0  0  0  0  0  0  0
   48.0002    5.0294   19.6246 H   0  0  0  0  0  0  0  0  0  0  0  0
   46.8950    9.7489   21.4408 H   0  0  0  0  0  0  0  0  0  0  0  0
   49.0789    7.2802   15.3695 H   0  0  0  0  0  0  0  0  0  0  0  0
   48.1733   11.4478   16.9856 H   0  0  0  0  0  0  0  0  0  0  0  0
   47.0644    6.3159   20.9433 H   0  0  0  0  0  0  0  0  0  0  0  0
   48.2252    7.3680   21.5067 H   0  0  0  0  0  0  0  0  0  0  0  0
  2  1  1  0
  3  2  1  0
  4  3  1  0
  5  4  1  0
  6  5  1  0
  8  7  2  0
 10  6  1  0
 10  7  1  0
 11  8  1  0
 11  9  2  0
 12  9  1  0
 12 10  2  0
 13 11  1  0
 14 12  1  0
 17 15  2  0
 18 16  1  0
 19 15  1  0
 20 16  2  0
 21 17  1  0
 22 18  2  0
 23 19  2  0
 24 20  1  0
 25 21  2  0
 25 23  1  0
 26 22  1  0
 26 24  1  0
 27 23  1  0
 27 24  2  0
 28 27  1  0
 29 25  1  0
 29 26  2  0
  1 30  1  0
  1 31  1  0
  1 32  1  0
  2 33  1  0
  2 34  1  0
  3 35  1  0
  3 36  1  0
  4 37  1  0
  4 38  1  0
  5 39  1  0
  5 40  1  0
  6 41  1  0
  6 42  1  0
  7 43  1  0
  8 44  1  0
  9 45  1  0
 13 46  1  0
 14 47  1  0
 15 48  1  0
 16 49  1  0
 17 50  1  0
 18 51  1  0
 19 52  1  0
 20 53  1  0
 21 54  1  0
 22 55  1  0
 28 56  1  0
 28 57  1  0
M  END
> <Uni-Dock RESULT> 
ENERGY=   -5.750  LOWER_BOUND=    3.320  UPPER_BOUND=    6.246
INTER + INTRA:          -5.750
INTER:                  -5.750
INTRA:                   0.000
UNBOUND:                 0.000

$$$$

     RDKit          3D

 57 59  0  0  0  0  0  0  0  0999 V2000
   48.1165   12.9234   10.0492 C   0  0  0  0  0  0  0  0  0  0  0  0
   46.9405   12.3329   10.8115 C   0  0  0  0  0  0  0  0  0  0  0  0
   47.3451   11.6011   12.0941 C   0  0  0  0  0  0  0  0  0  0  0  0
   48.1716   10.3390   11.8341 C   0  0  0  0  0  0  0  0  0  0  0  0
   48.5586    9.5897   13.1158 C   0  0  0  0  0  0  0  0  0  0  0  0
   47.3918    8.9910   13.9117 C   0  0  0  0  0  0  0  0  0  0  0  0
   45.3711    8.2167   12.6135 C   0  0  0  0  0  0  0  0  0  0  0  0
   44.6519    7.2442   11.9145 C   0  0  0  0  0  0  0  0  0  0  0  0
   46.4263    5.6500   12.3162 C   0  0  0  0  0  0  0  0  0  0  0  0
   46.6257    7.9206   13.1705 C   0  0  0  0  0  0  0  0  0  0  0  0
   45.1880    5.9691   11.7725 C   0  0  0  0  0  0  0  0  0  0  0  0
   47.1376    6.6265   13.0120 C   0  0  0  0  0  0  0  0  0  0  0  0
   44.5200    4.9895   11.0978 O   0  0  0  0  0  0  0  0  0  0  0  0
   48.3545    6.3261   13.5580 O   0  0  0  0  0  0  0  0  0  0  0  0
   45.5694    6.0080   12.9871 C   0  0  0  0  0  0  0  0  0  0  0  0
   48.0056   12.7661   11.4546 C   0  0  0  0  0  0  0  0  0  0  0  0
   46.8984    5.6152   12.9672 C   0  0  0  0  0  0  0  0  0  0  0  0
   49.2830   12.2266   11.4888 C   0  0  0  0  0  0  0  0  0  0  0  0
   45.2421    7.3358   12.7125 C   0  0  0  0  0  0  0  0  0  0  0  0
   46.9065   11.9340   11.6593 C   0  0  0  0  0  0  0  0  0  0  0  0
   47.8892    6.5552   12.6799 C   0  0  0  0  0  0  0  0  0  0  0  0
   49.4491   10.8602   11.7272 C   0  0  0  0  0  0  0  0  0  0  0  0
   46.2418    8.2964   12.4096 C   0  0  0  0  0  0  0  0  0  0  0  0
   47.0694   10.5497   11.9051 C   0  0  0  0  0  0  0  0  0  0  0  0
   47.5895    7.8835   12.4074 C   0  0  0  0  0  0  0  0  0  0  0  0
   48.3684   10.0125   11.9367 C   0  0  0  0  0  0  0  0  0  0  0  0
   45.9852    9.6591   12.1038 C   0  0  0  0  0  0  0  0  0  0  0  0
   44.6692   10.2003   12.2054 N   0  0  0  0  0  0  0  0  0  0  0  0
   48.6127    8.7154   12.1688 N   0  0  0  0  0  0  0  0  0  0  0  0
   47.7549   13.5183    9.2042 H   0  0  0  0  0  0  0  0  0  0  0  0
   48.7682   12.1423    9.6474 H   0  0  0  0  0  0  0  0  0  0  0  0
   48.7138   13.5773   10.6924 H   0  0  0  0  0  0  0  0  0  0  0  0
   46.2568   13.1475   11.0791 H   0  0  0  0  0  0  0  0  0  0  0  0
   46.3829   11.6547   10.1551 H   0  0  0  0  0  0  0  0  0  0  0  0
   46.4258   11.3390   12.6287 H   0  0  0  0  0  0  0  0  0  0  0  0
   47.9059   12.2828   12.7449 H   0  0  0  0  0  0  0  0  0  0  0  0
   49.1018   10.6155   11.3242 H   0  0  0  0  0  0  0  0  0  0  0  0
   47.6325    9.6711   11.1529 H   0  0  0  0  0  0  0  0  0  0  0  0
   49.1091   10.2757   13.7721 H   0  0  0  0  0  0  0  0  0  0  0  0
   49.2639    8.7943   12.8451 H   0  0  0  0  0  0  0  0  0  0  0  0
   46.7084    9.7832   14.2392 H   0  0  0  0  0  0  0  0  0  0  0  0
   47.7818    8.5571   14.8418 H   0  0  0  0  0  0  0  0  0  0  0  0
   44.9478    9.2131   12.7196 H   0  0  0  0  0  0  0  0  0  0  0  0
   43.6853    7.5008   11.4928 H   0  0  0  0  0  0  0  0  0  0  0  0
   46.8167    4.6461   12.1898 H   0  0  0  0  0  0  0  0  0  0  0  0
   43.6785    5.3541   10.7773 H   0  0  0  0  0  0  0  0  0  0  0  0
   48.5607    5.3979   13.3600 H   0  0  0  0  0  0  0  0  0  0  0  0
   44.7885    5.2867   13.2137 H   0  0  0  0  0  0  0  0  0  0  0  0
   47.8605   13.8259   11.2638 H   0  0  0  0  0  0  0  0  0  0  0  0
   47.1718    4.5847   13.1773 H   0  0  0  0  0  0  0  0  0  0  0  0
   50.1516   12.8595   11.3286 H   0  0  0  0  0  0  0  0  0  0  0  0
   44.1922    7.6108   12.7380 H   0  0  0  0  0  0  0  0  0  0  0  0
   45.9078   12.3635   11.6143 H   0  0  0  0  0  0  0  0  0  0  0  0
   48.9316    6.2431   12.6737 H   0  0  0  0  0  0  0  0  0  0  0  0
   50.4531   10.4427   11.7524 H   0  0  0  0  0  0  0  0  0  0  0  0
   43.9475    9.5213   11.9898 H   0  0  0  0  0  0  0  0  0  0  0  0
   44.5253   10.5752   13.1419 H   0  0  0  0  0  0  0  0  0  0  0  0
  2  1  1  0
  3  2  1  0
  4  3  1  0
  5  4  1  0
  6  5  1  0
  8  7  2  0
 10  6  1  0
 10  7  1  0
 11  8  1  0
 11  9  2  0
 12  9  1  0
 12 10  2  0
 13 11  1  0
 14 12  1  0
 17 15  2  0
 18 16  1  0
 19 15  1  0
 20 16  2  0
 21 17  1  0
 22 18  2  0
 23 19  2  0
 24 20  1  0
 25 21  2  0
 25 23  1  0
 26 22  1  0
 26 24  1  0
 27 23  1  0
 27 24  2  0
 28 27  1  0
 29 25  1  0
 29 26  2  0
  1 30  1  0
  1 31  1  0
  1 32  1  0
  2 33  1  0
  2 34  1  0
  3 35  1  0
  3 36  1  0
  4 37  1  0
  4 38  1  0
  5 39  1  0
  5 40  1  0
  6 41  1  0
  6 42  1  0
  7 43  1  0
  8 44  1  0
  9 45  1  0
 13 46  1  0
 14 47  1  0
 15 48  1  0
 16 49  1  0
 17 50  1  0
 18 51  1  0
 19 52  1  0
 20 53  1  0
 21 54  1  0
 22 55  1  0
 28 56  1  0
 28 57  1  0
M  END
> <Uni-Dock RESULT> 
ENERGY=   -5.542  LOWER_BOUND=    7.892  UPPER_BOUND=   10.272
INTER + INTRA:          -5.542
INTER:                  -5.542
INTRA:                   0.000
UNBOUND:                 0.000

$$$$

     RDKit          3D

 57 59  0  0  0  0  0  0  0  0999 V2000
   49.4681    8.0675   16.9759 C   0  0  0  0  0  0  0  0  0  0  0  0
   49.1803    6.8625   16.0939 C   0  0  0  0  0  0  0  0  0  0  0  0
   49.0690    7.2034   14.6054 C   0  0  0  0  0  0  0  0  0  0  0  0
   47.8614    8.0851   14.2766 C   0  0  0  0  0  0  0  0  0  0  0  0
   47.7328    8.4091   12.7825 C   0  0  0  0  0  0  0  0  0  0  0  0
   47.4519    7.2113   11.8662 C   0  0  0  0  0  0  0  0  0  0  0  0
   46.0969    5.3074   12.8187 C   0  0  0  0  0  0  0  0  0  0  0  0
   44.8833    4.6679   13.0826 C   0  0  0  0  0  0  0  0  0  0  0  0
   43.7014    6.4611   11.9696 C   0  0  0  0  0  0  0  0  0  0  0  0
   46.1293    6.5308   12.1298 C   0  0  0  0  0  0  0  0  0  0  0  0
   43.6963    5.2524   12.6551 C   0  0  0  0  0  0  0  0  0  0  0  0
   44.9169    7.0930   11.7105 C   0  0  0  0  0  0  0  0  0  0  0  0
   42.4892    4.6624   12.8917 O   0  0  0  0  0  0  0  0  0  0  0  0
   44.9387    8.2795   11.0318 O   0  0  0  0  0  0  0  0  0  0  0  0
   44.2557    5.5503   11.5503 C   0  0  0  0  0  0  0  0  0  0  0  0
   49.9003    7.8679   15.6397 C   0  0  0  0  0  0  0  0  0  0  0  0
   43.9658    6.8894   11.3416 C   0  0  0  0  0  0  0  0  0  0  0  0
   49.4966    9.1567   15.3231 C   0  0  0  0  0  0  0  0  0  0  0  0
   45.3301    5.2001   12.3681 C   0  0  0  0  0  0  0  0  0  0  0  0
   49.1667    6.7846   15.1597 C   0  0  0  0  0  0  0  0  0  0  0  0
   44.7572    7.8670   11.9466 C   0  0  0  0  0  0  0  0  0  0  0  0
   48.3631    9.3497   14.5298 C   0  0  0  0  0  0  0  0  0  0  0  0
   46.1342    6.1869   12.9955 C   0  0  0  0  0  0  0  0  0  0  0  0
   48.0197    6.9745   14.3524 C   0  0  0  0  0  0  0  0  0  0  0  0
   45.8344    7.5442   12.7614 C   0  0  0  0  0  0  0  0  0  0  0  0
   47.6183    8.2848   14.0381 C   0  0  0  0  0  0  0  0  0  0  0  0
   47.2313    5.9082   13.8528 C   0  0  0  0  0  0  0  0  0  0  0  0
   47.6906    4.5719   14.0485 N   0  0  0  0  0  0  0  0  0  0  0  0
   46.5496    8.5541   13.2756 N   0  0  0  0  0  0  0  0  0  0  0  0
   49.6385    7.7446   18.0081 H   0  0  0  0  0  0  0  0  0  0  0  0
   48.6290    8.7691   16.9844 H   0  0  0  0  0  0  0  0  0  0  0  0
   50.3622    8.5995   16.6358 H   0  0  0  0  0  0  0  0  0  0  0  0
   49.9925    6.1369   16.2228 H   0  0  0  0  0  0  0  0  0  0  0  0
   48.2610    6.3718   16.4341 H   0  0  0  0  0  0  0  0  0  0  0  0
   48.9999    6.2593   14.0547 H   0  0  0  0  0  0  0  0  0  0  0  0
   49.9894    7.6975   14.2717 H   0  0  0  0  0  0  0  0  0  0  0  0
   47.9543    9.0381   14.8104 H   0  0  0  0  0  0  0  0  0  0  0  0
   46.9422    7.6142   14.6426 H   0  0  0  0  0  0  0  0  0  0  0  0
   48.6588    8.8924   12.4460 H   0  0  0  0  0  0  0  0  0  0  0  0
   46.9380    9.1558   12.6634 H   0  0  0  0  0  0  0  0  0  0  0  0
   48.2686    6.4827   11.9311 H   0  0  0  0  0  0  0  0  0  0  0  0
   47.4646    7.5518   10.8224 H   0  0  0  0  0  0  0  0  0  0  0  0
   47.0221    4.8466   13.1574 H   0  0  0  0  0  0  0  0  0  0  0  0
   44.8872    3.7240   13.6184 H   0  0  0  0  0  0  0  0  0  0  0  0
   42.7590    6.8906   11.6477 H   0  0  0  0  0  0  0  0  0  0  0  0
   42.6403    3.8331   13.3745 H   0  0  0  0  0  0  0  0  0  0  0  0
   44.0251    8.5278   10.8153 H   0  0  0  0  0  0  0  0  0  0  0  0
   43.6499    4.7793   11.0814 H   0  0  0  0  0  0  0  0  0  0  0  0
   50.7761    7.7024   16.2611 H   0  0  0  0  0  0  0  0  0  0  0  0
   43.1319    7.1808   10.7087 H   0  0  0  0  0  0  0  0  0  0  0  0
   50.0546   10.0135   15.6907 H   0  0  0  0  0  0  0  0  0  0  0  0
   45.5310    4.1427   12.5095 H   0  0  0  0  0  0  0  0  0  0  0  0
   49.4818    5.7780   15.4270 H   0  0  0  0  0  0  0  0  0  0  0  0
   44.5302    8.9168   11.7727 H   0  0  0  0  0  0  0  0  0  0  0  0
   48.0510   10.3626   14.2853 H   0  0  0  0  0  0  0  0  0  0  0  0
   46.9436    3.8881   13.9959 H   0  0  0  0  0  0  0  0  0  0  0  0
   48.4106    4.3538   13.3612 H   0  0  0  0  0  0  0  0  0  0  0  0
  2  1  1  0
  3  2  1  0
  4  3  1  0
  5  4  1  0
  6  5  1  0
  8  7  2  0
 10  6  1  0
 10  7  1  0
 11  8  1  0
 11  9  2  0
 12  9  1  0
 12 10  2  0
 13 11  1  0
 14 12  1  0
 17 15  2  0
 18 16  1  0
 19 15  1  0
 20 16  2  0
 21 17  1  0
 22 18  2  0
 23 19  2  0
 24 20  1  0
 25 21  2  0
 25 23  1  0
 26 22  1  0
 26 24  1  0
 27 23  1  0
 27 24  2  0
 28 27  1  0
 29 25  1  0
 29 26  2  0
  1 30  1  0
  1 31  1  0
  1 32  1  0
  2 33  1  0
  2 34  1  0
  3 35  1  0
  3 36  1  0
  4 37  1  0
  4 38  1  0
  5 39  1  0
  5 40  1  0
  6 41  1  0
  6 42  1  0
  7 43  1  0
  8 44  1  0
  9 45  1  0
 13 46  1  0
 14 47  1  0
 15 48  1  0
 16 49  1  0
 17 50  1  0
 18 51  1  0
 19 52  1  0
 20 53  1  0
 21 54  1  0
 22 55  1  0
 28 56  1  0
 28 57  1  0
M  END
> <Uni-Dock RESULT> 
ENERGY=   -5.459  LOWER_BOUND=    7.401  UPPER_BOUND=    9.474
INTER + INTRA:          -5.459
INTER:                  -5.459
INTRA:                   0.000
UNBOUND:                 0.000

$$$$

     RDKit          3D

 57 59  0  0  0  0  0  0  0  0999 V2000
   47.7269    3.5949   15.9185 C   0  0  0  0  0  0  0  0  0  0  0  0
   48.6062    2.6097   16.6728 C   0  0  0  0  0  0  0  0  0  0  0  0
   49.3504    3.2325   17.8571 C   0  0  0  0  0  0  0  0  0  0  0  0
   50.3928    4.2717   17.4363 C   0  0  0  0  0  0  0  0  0  0  0  0
   51.1574    4.8807   18.6188 C   0  0  0  0  0  0  0  0  0  0  0  0
   52.0457    3.9083   19.4053 C   0  0  0  0  0  0  0  0  0  0  0  0
   53.0949    1.9985   18.1325 C   0  0  0  0  0  0  0  0  0  0  0  0
   54.1277    1.4401   17.3754 C   0  0  0  0  0  0  0  0  0  0  0  0
   55.3609    3.5149   17.5358 C   0  0  0  0  0  0  0  0  0  0  0  0
   53.1798    3.3204   18.5989 C   0  0  0  0  0  0  0  0  0  0  0  0
   55.2515    2.2054   17.0841 C   0  0  0  0  0  0  0  0  0  0  0  0
   54.3255    4.0647   18.2904 C   0  0  0  0  0  0  0  0  0  0  0  0
   56.2830    1.7000   16.3481 O   0  0  0  0  0  0  0  0  0  0  0  0
   54.4211    5.3497   18.7472 O   0  0  0  0  0  0  0  0  0  0  0  0
   55.2425    2.6499   18.2776 C   0  0  0  0  0  0  0  0  0  0  0  0
   48.0251    3.6087   17.3052 C   0  0  0  0  0  0  0  0  0  0  0  0
   55.3565    4.0260   18.1575 C   0  0  0  0  0  0  0  0  0  0  0  0
   48.2973    4.9666   17.2270 C   0  0  0  0  0  0  0  0  0  0  0  0
   53.9890    2.0514   18.1503 C   0  0  0  0  0  0  0  0  0  0  0  0
   49.0761    2.7098   17.4780 C   0  0  0  0  0  0  0  0  0  0  0  0
   54.2149    4.7924   17.9184 C   0  0  0  0  0  0  0  0  0  0  0  0
   49.6177    5.4125   17.3220 C   0  0  0  0  0  0  0  0  0  0  0  0
   52.8242    2.8215   17.8972 C   0  0  0  0  0  0  0  0  0  0  0  0
   50.4153    3.1566   17.5787 C   0  0  0  0  0  0  0  0  0  0  0  0
   52.9555    4.2210   17.7919 C   0  0  0  0  0  0  0  0  0  0  0  0
   50.6806    4.5349   17.4971 C   0  0  0  0  0  0  0  0  0  0  0  0
   51.5197    2.2834   17.7390 C   0  0  0  0  0  0  0  0  0  0  0  0
   51.2655    0.8963   17.9543 N   0  0  0  0  0  0  0  0  0  0  0  0
   51.9172    5.0435   17.5890 N   0  0  0  0  0  0  0  0  0  0  0  0
   47.1458    3.0696   15.1537 H   0  0  0  0  0  0  0  0  0  0  0  0
   48.3229    4.3597   15.4121 H   0  0  0  0  0  0  0  0  0  0  0  0
   47.0247    4.0930   16.5944 H   0  0  0  0  0  0  0  0  0  0  0  0
   47.9723    1.7984   17.0505 H   0  0  0  0  0  0  0  0  0  0  0  0
   49.3230    2.1544   15.9795 H   0  0  0  0  0  0  0  0  0  0  0  0
   49.8377    2.4192   18.4054 H   0  0  0  0  0  0  0  0  0  0  0  0
   48.6290    3.6898   18.5450 H   0  0  0  0  0  0  0  0  0  0  0  0
   49.8913    5.0945   16.9134 H   0  0  0  0  0  0  0  0  0  0  0  0
   51.0936    3.8309   16.7186 H   0  0  0  0  0  0  0  0  0  0  0  0
   50.4345    5.3274   19.3131 H   0  0  0  0  0  0  0  0  0  0  0  0
   51.7679    5.7091   18.2389 H   0  0  0  0  0  0  0  0  0  0  0  0
   51.4389    3.1055   19.8405 H   0  0  0  0  0  0  0  0  0  0  0  0
   52.4715    4.4354   20.2692 H   0  0  0  0  0  0  0  0  0  0  0  0
   52.2173    1.3958   18.3554 H   0  0  0  0  0  0  0  0  0  0  0  0
   54.0353    0.4166   17.0263 H   0  0  0  0  0  0  0  0  0  0  0  0
   56.2508    4.0855   17.2933 H   0  0  0  0  0  0  0  0  0  0  0  0
   56.0688    0.7843   16.1044 H   0  0  0  0  0  0  0  0  0  0  0  0
   55.2679    5.7205   18.4496 H   0  0  0  0  0  0  0  0  0  0  0  0
   56.1232    2.0420   18.4682 H   0  0  0  0  0  0  0  0  0  0  0  0
   47.0038    3.2465   17.2264 H   0  0  0  0  0  0  0  0  0  0  0  0
   56.3251    4.5092   18.2525 H   0  0  0  0  0  0  0  0  0  0  0  0
   47.4910    5.6819   17.0896 H   0  0  0  0  0  0  0  0  0  0  0  0
   53.9343    0.9720   18.2514 H   0  0  0  0  0  0  0  0  0  0  0  0
   48.8541    1.6455   17.5218 H   0  0  0  0  0  0  0  0  0  0  0  0
   54.3089    5.8731   17.8332 H   0  0  0  0  0  0  0  0  0  0  0  0
   49.8251    6.4784   17.2594 H   0  0  0  0  0  0  0  0  0  0  0  0
   52.0545    0.3092   17.7067 H   0  0  0  0  0  0  0  0  0  0  0  0
   51.0102    0.7428   18.9287 H   0  0  0  0  0  0  0  0  0  0  0  0
  2  1  1  0
  3  2  1  0
  4  3  1  0
  5  4  1  0
  6  5  1  0
  8  7  2  0
 10  6  1  0
 10  7  1  0
 11  8  1  0
 11  9  2  0
 12  9  1  0
 12 10  2  0
 13 11  1  0
 14 12  1  0
 17 15  2  0
 18 16  1  0
 19 15  1  0
 20 16  2  0
 21 17  1  0
 22 18  2  0
 23 19  2  0
 24 20  1  0
 25 21  2  0
 25 23  1  0
 26 22  1  0
 26 24  1  0
 27 23  1  0
 27 24  2  0
 28 27  1  0
 29 25  1  0
 29 26  2  0
  1 30  1  0
  1 31  1  0
  1 32  1  0
  2 33  1  0
  2 34  1  0
  3 35  1  0
  3 36  1  0
  4 37  1  0
  4 38  1  0
  5 39  1  0
  5 40  1  0
  6 41  1  0
  6 42  1  0
  7 43  1  0
  8 44  1  0
  9 45  1  0
 13 46  1  0
 14 47  1  0
 15 48  1  0
 16 49  1  0
 17 50  1  0
 18 51  1  0
 19 52  1  0
 20 53  1  0
 21 54  1  0
 22 55  1  0
 28 56  1  0
 28 57  1  0
M  END
> <Uni-Dock RESULT> 
ENERGY=   -5.454  LOWER_BOUND=    7.653  UPPER_BOUND=   10.182
INTER + INTRA:          -5.454
INTER:                  -5.454
INTRA:                   0.000
UNBOUND:                 0.000

$$$$

     RDKit          3D

 57 59  0  0  0  0  0  0  0  0999 V2000
   49.3190   14.1043   17.7179 C   0  0  0  0  0  0  0  0  0  0  0  0
   48.6666   12.7843   17.3377 C   0  0  0  0  0  0  0  0  0  0  0  0
   47.5254   12.3717   18.2714 C   0  0  0  0  0  0  0  0  0  0  0  0
   47.9942   12.0522   19.6933 C   0  0  0  0  0  0  0  0  0  0  0  0
   46.8569   11.6152   20.6257 C   0  0  0  0  0  0  0  0  0  0  0  0
   46.1727   10.2914   20.2616 C   0  0  0  0  0  0  0  0  0  0  0  0
   47.5821    8.5185   19.1486 C   0  0  0  0  0  0  0  0  0  0  0  0
   48.4345    7.4125   19.1922 C   0  0  0  0  0  0  0  0  0  0  0  0
   48.3070    7.4152   21.6078 C   0  0  0  0  0  0  0  0  0  0  0  0
   47.0831    9.0879   20.3314 C   0  0  0  0  0  0  0  0  0  0  0  0
   48.7891    6.8718   20.4232 C   0  0  0  0  0  0  0  0  0  0  0  0
   47.4571    8.5191   21.5555 C   0  0  0  0  0  0  0  0  0  0  0  0
   49.6188    5.7925   20.5118 O   0  0  0  0  0  0  0  0  0  0  0  0
   46.9698    9.0613   22.7121 O   0  0  0  0  0  0  0  0  0  0  0  0
   47.5853    7.0094   20.8160 C   0  0  0  0  0  0  0  0  0  0  0  0
   47.9601   13.7419   17.9027 C   0  0  0  0  0  0  0  0  0  0  0  0
   47.6714    7.6305   22.0520 C   0  0  0  0  0  0  0  0  0  0  0  0
   48.0174   14.2153   19.2053 C   0  0  0  0  0  0  0  0  0  0  0  0
   47.6326    7.7814   19.6552 C   0  0  0  0  0  0  0  0  0  0  0  0
   47.8979   12.3681   17.6769 C   0  0  0  0  0  0  0  0  0  0  0  0
   47.7967    9.0190   22.1167 C   0  0  0  0  0  0  0  0  0  0  0  0
   48.0122   13.3103   20.2694 C   0  0  0  0  0  0  0  0  0  0  0  0
   47.7699    9.1927   19.7109 C   0  0  0  0  0  0  0  0  0  0  0  0
   47.8885   11.4471   18.7516 C   0  0  0  0  0  0  0  0  0  0  0  0
   47.8419    9.8099   20.9761 C   0  0  0  0  0  0  0  0  0  0  0  0
   47.9480   11.9371   20.0681 C   0  0  0  0  0  0  0  0  0  0  0  0
   47.8421   10.0418   18.5751 C   0  0  0  0  0  0  0  0  0  0  0  0
   47.6506    9.5268   17.2586 N   0  0  0  0  0  0  0  0  0  0  0  0
   47.9374   11.1362   21.1426 N   0  0  0  0  0  0  0  0  0  0  0  0
   50.0519   14.3931   16.9576 H   0  0  0  0  0  0  0  0  0  0  0  0
   49.8466   14.0315   18.6733 H   0  0  0  0  0  0  0  0  0  0  0  0
   48.5752   14.9039   17.7920 H   0  0  0  0  0  0  0  0  0  0  0  0
   48.2657   12.8761   16.3210 H   0  0  0  0  0  0  0  0  0  0  0  0
   49.4276   11.9958   17.3075 H   0  0  0  0  0  0  0  0  0  0  0  0
   47.0423   11.4917   17.8336 H   0  0  0  0  0  0  0  0  0  0  0  0
   46.7694   13.1656   18.3008 H   0  0  0  0  0  0  0  0  0  0  0  0
   48.4506   12.9471   20.1324 H   0  0  0  0  0  0  0  0  0  0  0  0
   48.7778   11.2868   19.6670 H   0  0  0  0  0  0  0  0  0  0  0  0
   46.0947   12.4045   20.6454 H   0  0  0  0  0  0  0  0  0  0  0  0
   47.2576   11.5523   21.6449 H   0  0  0  0  0  0  0  0  0  0  0  0
   45.7164   10.3598   19.2670 H   0  0  0  0  0  0  0  0  0  0  0  0
   45.3289   10.1278   20.9447 H   0  0  0  0  0  0  0  0  0  0  0  0
   47.3099    8.9386   18.1829 H   0  0  0  0  0  0  0  0  0  0  0  0
   48.8068    6.9934   18.2628 H   0  0  0  0  0  0  0  0  0  0  0  0
   48.6006    6.9698   22.5520 H   0  0  0  0  0  0  0  0  0  0  0  0
   49.8731    5.5241   19.6134 H   0  0  0  0  0  0  0  0  0  0  0  0
   47.3211    8.5543   23.4622 H   0  0  0  0  0  0  0  0  0  0  0  0
   47.4830    5.9292   20.7519 H   0  0  0  0  0  0  0  0  0  0  0  0
   47.9699   14.4335   17.0648 H   0  0  0  0  0  0  0  0  0  0  0  0
   47.6376    7.0450   22.9668 H   0  0  0  0  0  0  0  0  0  0  0  0
   48.0691   15.2829   19.4005 H   0  0  0  0  0  0  0  0  0  0  0  0
   47.5610    7.2639   18.7036 H   0  0  0  0  0  0  0  0  0  0  0  0
   47.8698   12.0059   16.6513 H   0  0  0  0  0  0  0  0  0  0  0  0
   47.8556    9.5022   23.0899 H   0  0  0  0  0  0  0  0  0  0  0  0
   48.0579   13.6874   21.2887 H   0  0  0  0  0  0  0  0  0  0  0  0
   47.9771    8.5718   17.1590 H   0  0  0  0  0  0  0  0  0  0  0  0
   46.6643    9.5848   17.0091 H   0  0  0  0  0  0  0  0  0  0  0  0
  2  1  1  0
  3  2  1  0
  4  3  1  0
  5  4  1  0
  6  5  1  0
  8  7  2  0
 10  6  1  0
 10  7  1  0
 11  8  1  0
 11  9  2  0
 12  9  1  0
 12 10  2  0
 13 11  1  0
 14 12  1  0
 17 15  2  0
 18 16  1  0
 19 15  1  0
 20 16  2  0
 21 17  1  0
 22 18  2  0
 23 19  2  0
 24 20  1  0
 25 21  2  0
 25 23  1  0
 26 22  1  0
 26 24  1  0
 27 23  1  0
 27 24  2  0
 28 27  1  0
 29 25  1  0
 29 26  2  0
  1 30  1  0
  1 31  1  0
  1 32  1  0
  2 33  1  0
  2 34  1  0
  3 35  1  0
  3 36  1  0
  4 37  1  0
  4 38  1  0
  5 39  1  0
  5 40  1  0
  6 41  1  0
  6 42  1  0
  7 43  1  0
  8 44  1  0
  9 45  1  0
 13 46  1  0
 14 47  1  0
 15 48  1  0
 16 49  1  0
 17 50  1  0
 18 51  1  0
 19 52  1  0
 20 53  1  0
 21 54  1  0
 22 55  1  0
 28 56  1  0
 28 57  1  0
M  END
> <Uni-Dock RESULT> 
ENERGY=   -5.400  LOWER_BOUND=    2.039  UPPER_BOUND=    5.675
INTER + INTRA:          -5.400
INTER:                  -5.400
INTRA:                   0.000
UNBOUND:                 0.000

$$$$

     RDKit          3D

 57 59  0  0  0  0  0  0  0  0999 V2000
   47.3911    3.3513   16.8790 C   0  0  0  0  0  0  0  0  0  0  0  0
   47.8938    4.7776   16.7188 C   0  0  0  0  0  0  0  0  0  0  0  0
   48.8232    5.2317   17.8477 C   0  0  0  0  0  0  0  0  0  0  0  0
   48.1205    5.3339   19.2040 C   0  0  0  0  0  0  0  0  0  0  0  0
   49.0428    5.8117   20.3332 C   0  0  0  0  0  0  0  0  0  0  0  0
   49.5738    7.2441   20.1940 C   0  0  0  0  0  0  0  0  0  0  0  0
   48.0930    8.9291   19.0380 C   0  0  0  0  0  0  0  0  0  0  0  0
   47.0931    9.9046   19.0473 C   0  0  0  0  0  0  0  0  0  0  0  0
   46.8829    9.6597   21.4447 C   0  0  0  0  0  0  0  0  0  0  0  0
   48.4994    8.3055   20.2289 C   0  0  0  0  0  0  0  0  0  0  0  0
   46.4971   10.2600   20.2523 C   0  0  0  0  0  0  0  0  0  0  0  0
   47.8813    8.6868   21.4265 C   0  0  0  0  0  0  0  0  0  0  0  0
   45.5170   11.2073   20.3071 O   0  0  0  0  0  0  0  0  0  0  0  0
   48.2760    8.0914   22.5922 O   0  0  0  0  0  0  0  0  0  0  0  0
   47.6418   10.2378   20.8104 C   0  0  0  0  0  0  0  0  0  0  0  0
   48.6450    3.8643   17.2994 C   0  0  0  0  0  0  0  0  0  0  0  0
   47.4749    9.4820   21.9600 C   0  0  0  0  0  0  0  0  0  0  0  0
   48.4758    3.2507   18.5319 C   0  0  0  0  0  0  0  0  0  0  0  0
   47.8674    9.5950   19.5932 C   0  0  0  0  0  0  0  0  0  0  0  0
   48.5402    5.2508   17.2061 C   0  0  0  0  0  0  0  0  0  0  0  0
   47.5423    8.0900   21.8839 C   0  0  0  0  0  0  0  0  0  0  0  0
   48.2034    4.0296   19.6590 C   0  0  0  0  0  0  0  0  0  0  0  0
   47.9276    8.1799   19.5043 C   0  0  0  0  0  0  0  0  0  0  0  0
   48.2680    6.0449   18.3456 C   0  0  0  0  0  0  0  0  0  0  0  0
   47.7699    7.4267   20.6853 C   0  0  0  0  0  0  0  0  0  0  0  0
   48.0972    5.4132   19.5901 C   0  0  0  0  0  0  0  0  0  0  0  0
   48.1364    7.4552   18.3012 C   0  0  0  0  0  0  0  0  0  0  0  0
   48.4330    8.1286   17.0791 N   0  0  0  0  0  0  0  0  0  0  0  0
   47.8435    6.0890   20.7192 N   0  0  0  0  0  0  0  0  0  0  0  0
   46.8200    3.0534   15.9937 H   0  0  0  0  0  0  0  0  0  0  0  0
   46.7310    3.2526   17.7456 H   0  0  0  0  0  0  0  0  0  0  0  0
   48.2243    2.6512   16.9956 H   0  0  0  0  0  0  0  0  0  0  0  0
   48.4410    4.8478   15.7710 H   0  0  0  0  0  0  0  0  0  0  0  0
   47.0392    5.4599   16.6419 H   0  0  0  0  0  0  0  0  0  0  0  0
   49.2310    6.2086   17.5668 H   0  0  0  0  0  0  0  0  0  0  0  0
   49.6737    4.5436   17.9228 H   0  0  0  0  0  0  0  0  0  0  0  0
   47.7407    4.3457   19.4890 H   0  0  0  0  0  0  0  0  0  0  0  0
   47.2465    5.9900   19.1254 H   0  0  0  0  0  0  0  0  0  0  0  0
   49.9001    5.1299   20.3999 H   0  0  0  0  0  0  0  0  0  0  0  0
   48.4995    5.7128   21.2811 H   0  0  0  0  0  0  0  0  0  0  0  0
   50.1688    7.3422   19.2784 H   0  0  0  0  0  0  0  0  0  0  0  0
   50.2823    7.4412   21.0093 H   0  0  0  0  0  0  0  0  0  0  0  0
   48.5541    8.6535   18.0922 H   0  0  0  0  0  0  0  0  0  0  0  0
   46.7972   10.3692   18.1122 H   0  0  0  0  0  0  0  0  0  0  0  0
   46.4002    9.9598   22.3684 H   0  0  0  0  0  0  0  0  0  0  0  0
   45.3540   11.5353   19.4073 H   0  0  0  0  0  0  0  0  0  0  0  0
   47.7548    8.4655   23.3214 H   0  0  0  0  0  0  0  0  0  0  0  0
   47.5960   11.3228   20.8568 H   0  0  0  0  0  0  0  0  0  0  0  0
   48.8510    3.2710   16.4128 H   0  0  0  0  0  0  0  0  0  0  0  0
   47.2970    9.9656   22.9167 H   0  0  0  0  0  0  0  0  0  0  0  0
   48.5513    2.1706   18.6233 H   0  0  0  0  0  0  0  0  0  0  0  0
   47.9955   10.2162   18.7123 H   0  0  0  0  0  0  0  0  0  0  0  0
   48.6582    5.7214   16.2321 H   0  0  0  0  0  0  0  0  0  0  0  0
   47.4188    7.5018   22.7909 H   0  0  0  0  0  0  0  0  0  0  0  0
   48.0711    3.5428   20.6227 H   0  0  0  0  0  0  0  0  0  0  0  0
   47.9899    9.0386   17.0145 H   0  0  0  0  0  0  0  0  0  0  0  0
   49.4424    8.2255   16.9786 H   0  0  0  0  0  0  0  0  0  0  0  0
  2  1  1  0
  3  2  1  0
  4  3  1  0
  5  4  1  0
  6  5  1  0
  8  7  2  0
 10  6  1  0
 10  7  1  0
 11  8  1  0
 11  9  2  0
 12  9  1  0
 12 10  2  0
 13 11  1  0
 14 12  1  0
 17 15  2  0
 18 16  1  0
 19 15  1  0
 20 16  2  0
 21 17  1  0
 22 18  2  0
 23 19  2  0
 24 20  1  0
 25 21  2  0
 25 23  1  0
 26 22  1  0
 26 24  1  0
 27 23  1  0
 27 24  2  0
 28 27  1  0
 29 25  1  0
 29 26  2  0
  1 30  1  0
  1 31  1  0
  1 32  1  0
  2 33  1  0
  2 34  1  0
  3 35  1  0
  3 36  1  0
  4 37  1  0
  4 38  1  0
  5 39  1  0
  5 40  1  0
  6 41  1  0
  6 42  1  0
  7 43  1  0
  8 44  1  0
  9 45  1  0
 13 46  1  0
 14 47  1  0
 15 48  1  0
 16 49  1  0
 17 50  1  0
 18 51  1  0
 19 52  1  0
 20 53  1  0
 21 54  1  0
 22 55  1  0
 28 56  1  0
 28 57  1  0
M  END
> <Uni-Dock RESULT> 
ENERGY=   -5.378  LOWER_BOUND=    3.093  UPPER_BOUND=    5.316
INTER + INTRA:          -5.378
INTER:                  -5.378
INTRA:                   0.000
UNBOUND:                 0.000

$$$$

     RDKit          3D

 57 59  0  0  0  0  0  0  0  0999 V2000
   43.5486    4.2048   11.2483 C   0  0  0  0  0  0  0  0  0  0  0  0
   44.6861    4.3726   12.2437 C   0  0  0  0  0  0  0  0  0  0  0  0
   44.7316    5.7567   12.8968 C   0  0  0  0  0  0  0  0  0  0  0  0
   45.0570    6.8801   11.9089 C   0  0  0  0  0  0  0  0  0  0  0  0
   45.1272    8.2657   12.5639 C   0  0  0  0  0  0  0  0  0  0  0  0
   46.2592    8.4618   13.5804 C   0  0  0  0  0  0  0  0  0  0  0  0
   48.4034    7.1876   13.1976 C   0  0  0  0  0  0  0  0  0  0  0  0
   49.6820    7.0604   12.6494 C   0  0  0  0  0  0  0  0  0  0  0  0
   49.4763    9.2629   11.6704 C   0  0  0  0  0  0  0  0  0  0  0  0
   47.6446    8.3507   12.9887 C   0  0  0  0  0  0  0  0  0  0  0  0
   50.2059    8.1008   11.8899 C   0  0  0  0  0  0  0  0  0  0  0  0
   48.2009    9.3815   12.2209 C   0  0  0  0  0  0  0  0  0  0  0  0
   51.4498    8.0186   11.3360 O   0  0  0  0  0  0  0  0  0  0  0  0
   47.4733   10.5212   12.0189 O   0  0  0  0  0  0  0  0  0  0  0  0
   49.7429    8.9338   12.7349 C   0  0  0  0  0  0  0  0  0  0  0  0
   43.5441    5.0057   12.4191 C   0  0  0  0  0  0  0  0  0  0  0  0
   49.0774    9.8884   11.9823 C   0  0  0  0  0  0  0  0  0  0  0  0
   43.0093    6.0576   11.6900 C   0  0  0  0  0  0  0  0  0  0  0  0
   49.0918    7.7460   13.0678 C   0  0  0  0  0  0  0  0  0  0  0  0
   44.8707    5.0714   12.8411 C   0  0  0  0  0  0  0  0  0  0  0  0
   47.7639    9.6502   11.5751 C   0  0  0  0  0  0  0  0  0  0  0  0
   43.8062    7.1649   11.3898 C   0  0  0  0  0  0  0  0  0  0  0  0
   47.7599    7.4907   12.6499 C   0  0  0  0  0  0  0  0  0  0  0  0
   45.6813    6.1927   12.5428 C   0  0  0  0  0  0  0  0  0  0  0  0
   47.0925    8.4780   11.8971 C   0  0  0  0  0  0  0  0  0  0  0  0
   45.1300    7.2531   11.8024 C   0  0  0  0  0  0  0  0  0  0  0  0
   47.0388    6.3011   12.9349 C   0  0  0  0  0  0  0  0  0  0  0  0
   47.5811    5.3008   13.7952 N   0  0  0  0  0  0  0  0  0  0  0  0
   45.8244    8.3537   11.4820 N   0  0  0  0  0  0  0  0  0  0  0  0
   43.5077    3.1688   10.8969 H   0  0  0  0  0  0  0  0  0  0  0  0
   43.6837    4.8451   10.3718 H   0  0  0  0  0  0  0  0  0  0  0  0
   42.5847    4.4445   11.7082 H   0  0  0  0  0  0  0  0  0  0  0  0
   44.5687    3.6211   13.0338 H   0  0  0  0  0  0  0  0  0  0  0  0
   45.6404    4.1629   11.7470 H   0  0  0  0  0  0  0  0  0  0  0  0
   45.4908    5.7249   13.6855 H   0  0  0  0  0  0  0  0  0  0  0  0
   43.7732    5.9628   13.3885 H   0  0  0  0  0  0  0  0  0  0  0  0
   44.2767    6.9217   11.1400 H   0  0  0  0  0  0  0  0  0  0  0  0
   45.9945    6.6601   11.3862 H   0  0  0  0  0  0  0  0  0  0  0  0
   44.1724    8.4665   13.0663 H   0  0  0  0  0  0  0  0  0  0  0  0
   45.2164    9.0145   11.7672 H   0  0  0  0  0  0  0  0  0  0  0  0
   46.1490    7.7575   14.4133 H   0  0  0  0  0  0  0  0  0  0  0  0
   46.1567    9.4541   14.0392 H   0  0  0  0  0  0  0  0  0  0  0  0
   47.9979    6.3697   13.7890 H   0  0  0  0  0  0  0  0  0  0  0  0
   50.2459    6.1499   12.8253 H   0  0  0  0  0  0  0  0  0  0  0  0
   49.9132   10.0571   11.0750 H   0  0  0  0  0  0  0  0  0  0  0  0
   51.8365    7.1590   11.5715 H   0  0  0  0  0  0  0  0  0  0  0  0
   47.9978   11.1292   11.4726 H   0  0  0  0  0  0  0  0  0  0  0  0
   50.7646    9.1089   13.0620 H   0  0  0  0  0  0  0  0  0  0  0  0
   42.9383    4.1350   12.6546 H   0  0  0  0  0  0  0  0  0  0  0  0
   49.5694   10.8190   11.7125 H   0  0  0  0  0  0  0  0  0  0  0  0
   41.9778    6.0227   11.3503 H   0  0  0  0  0  0  0  0  0  0  0  0
   49.6407    7.0201   13.6596 H   0  0  0  0  0  0  0  0  0  0  0  0
   45.2860    4.2341   13.3983 H   0  0  0  0  0  0  0  0  0  0  0  0
   47.2432   10.4066   10.9913 H   0  0  0  0  0  0  0  0  0  0  0  0
   43.3815    7.9865   10.8173 H   0  0  0  0  0  0  0  0  0  0  0  0
   48.5920    5.2416   13.7405 H   0  0  0  0  0  0  0  0  0  0  0  0
   47.2951    5.4845   14.7558 H   0  0  0  0  0  0  0  0  0  0  0  0
  2  1  1  0
  3  2  1  0
  4  3  1  0
  5  4  1  0
  6  5  1  0
  8  7  2  0
 10  6  1  0
 10  7  1  0
 11  8  1  0
 11  9  2  0
 12  9  1  0
 12 10  2  0
 13 11  1  0
 14 12  1  0
 17 15  2  0
 18 16  1  0
 19 15  1  0
 20 16  2  0
 21 17  1  0
 22 18  2  0
 23 19  2  0
 24 20  1  0
 25 21  2  0
 25 23  1  0
 26 22  1  0
 26 24  1  0
 27 23  1  0
 27 24  2  0
 28 27  1  0
 29 25  1  0
 29 26  2  0
  1 30  1  0
  1 31  1  0
  1 32  1  0
  2 33  1  0
  2 34  1  0
  3 35  1  0
  3 36  1  0
  4 37  1  0
  4 38  1  0
  5 39  1  0
  5 40  1  0
  6 41  1  0
  6 42  1  0
  7 43  1  0
  8 44  1  0
  9 45  1  0
 13 46  1  0
 14 47  1  0
 15 48  1  0
 16 49  1  0
 17 50  1  0
 18 51  1  0
 19 52  1  0
 20 53  1  0
 21 54  1  0
 22 55  1  0
 28 56  1  0
 28 57  1  0
M  END
> <Uni-Dock RESULT> 
ENERGY=   -5.248  LOWER_BOUND=    8.273  UPPER_BOUND=    9.630
INTER + INTRA:          -5.248
INTER:                  -5.248
INTRA:                   0.000
UNBOUND:                 0.000

$$$$

     RDKit          3D

 57 59  0  0  0  0  0  0  0  0999 V2000
   50.0936    5.5253   22.6927 C   0  0  0  0  0  0  0  0  0  0  0  0
   48.8352    6.3780   22.7350 C   0  0  0  0  0  0  0  0  0  0  0  0
   48.1360    6.5089   21.3791 C   0  0  0  0  0  0  0  0  0  0  0  0
   48.9614    7.2802   20.3460 C   0  0  0  0  0  0  0  0  0  0  0  0
   48.2540    7.4343   18.9934 C   0  0  0  0  0  0  0  0  0  0  0  0
   46.9754    8.2816   19.0066 C   0  0  0  0  0  0  0  0  0  0  0  0
   46.8509   10.1779   20.6670 C   0  0  0  0  0  0  0  0  0  0  0  0
   47.0598   11.5082   21.0386 C   0  0  0  0  0  0  0  0  0  0  0  0
   47.9679   11.9733   18.8453 C   0  0  0  0  0  0  0  0  0  0  0  0
   47.1985    9.7275   19.3831 C   0  0  0  0  0  0  0  0  0  0  0  0
   47.6175   12.3935   20.1226 C   0  0  0  0  0  0  0  0  0  0  0  0
   47.7563   10.6439   18.4826 C   0  0  0  0  0  0  0  0  0  0  0  0
   47.8389   13.7008   20.4435 O   0  0  0  0  0  0  0  0  0  0  0  0
   48.0902   10.2169   17.2275 O   0  0  0  0  0  0  0  0  0  0  0  0
   46.8850   11.8906   19.2100 C   0  0  0  0  0  0  0  0  0  0  0  0
   48.9309    5.3671   21.8957 C   0  0  0  0  0  0  0  0  0  0  0  0
   47.7427   11.6304   18.1529 C   0  0  0  0  0  0  0  0  0  0  0  0
   49.7285    5.2427   20.7676 C   0  0  0  0  0  0  0  0  0  0  0  0
   46.7780   10.9675   20.2502 C   0  0  0  0  0  0  0  0  0  0  0  0
   48.1824    6.5283   22.0789 C   0  0  0  0  0  0  0  0  0  0  0  0
   48.4806   10.4458   18.1414 C   0  0  0  0  0  0  0  0  0  0  0  0
   49.7701    6.2808   19.8338 C   0  0  0  0  0  0  0  0  0  0  0  0
   47.5317    9.7651   20.2521 C   0  0  0  0  0  0  0  0  0  0  0  0
   48.2180    7.5814   21.1339 C   0  0  0  0  0  0  0  0  0  0  0  0
   48.3886    9.5092   19.1626 C   0  0  0  0  0  0  0  0  0  0  0  0
   49.0304    7.4460   19.9944 C   0  0  0  0  0  0  0  0  0  0  0  0
   47.4888    8.7876   21.2812 C   0  0  0  0  0  0  0  0  0  0  0  0
   46.5604    8.8947   22.3590 N   0  0  0  0  0  0  0  0  0  0  0  0
   49.1179    8.3907   19.0480 N   0  0  0  0  0  0  0  0  0  0  0  0
   50.4860    5.3854   23.7051 H   0  0  0  0  0  0  0  0  0  0  0  0
   50.8797    5.9980   22.0969 H   0  0  0  0  0  0  0  0  0  0  0  0
   49.8852    4.5369   22.2710 H   0  0  0  0  0  0  0  0  0  0  0  0
   48.1325    5.9238   23.4441 H   0  0  0  0  0  0  0  0  0  0  0  0
   49.0804    7.3724   23.1258 H   0  0  0  0  0  0  0  0  0  0  0  0
   47.1818    7.0194   21.5476 H   0  0  0  0  0  0  0  0  0  0  0  0
   47.8967    5.5114   20.9912 H   0  0  0  0  0  0  0  0  0  0  0  0
   49.9014    6.7464   20.1638 H   0  0  0  0  0  0  0  0  0  0  0  0
   49.2365    8.2634   20.7439 H   0  0  0  0  0  0  0  0  0  0  0  0
   48.0038    6.4364   18.6112 H   0  0  0  0  0  0  0  0  0  0  0  0
   48.9703    7.8629   18.2817 H   0  0  0  0  0  0  0  0  0  0  0  0
   46.2276    7.8319   19.6705 H   0  0  0  0  0  0  0  0  0  0  0  0
   46.5176    8.2498   18.0091 H   0  0  0  0  0  0  0  0  0  0  0  0
   46.4164    9.4894   21.3884 H   0  0  0  0  0  0  0  0  0  0  0  0
   46.7835   11.8291   22.0379 H   0  0  0  0  0  0  0  0  0  0  0  0
   48.3993   12.6882   18.1531 H   0  0  0  0  0  0  0  0  0  0  0  0
   47.5480   13.8475   21.3587 H   0  0  0  0  0  0  0  0  0  0  0  0
   48.4595   10.9677   16.7345 H   0  0  0  0  0  0  0  0  0  0  0  0
   46.3014   12.8074   19.2288 H   0  0  0  0  0  0  0  0  0  0  0  0
   48.8934    4.5707   22.6339 H   0  0  0  0  0  0  0  0  0  0  0  0
   47.8398   12.3387   17.3346 H   0  0  0  0  0  0  0  0  0  0  0  0
   50.3210    4.3458   20.6095 H   0  0  0  0  0  0  0  0  0  0  0  0
   46.0961   11.2010   21.0619 H   0  0  0  0  0  0  0  0  0  0  0  0
   47.5725    6.6234   22.9749 H   0  0  0  0  0  0  0  0  0  0  0  0
   49.1463   10.2427   17.3050 H   0  0  0  0  0  0  0  0  0  0  0  0
   50.3978    6.1778   18.9515 H   0  0  0  0  0  0  0  0  0  0  0  0
   46.3580    9.8565   22.6090 H   0  0  0  0  0  0  0  0  0  0  0  0
   45.6977    8.4097   22.1164 H   0  0  0  0  0  0  0  0  0  0  0  0
  2  1  1  0
  3  2  1  0
  4  3  1  0
  5  4  1  0
  6  5  1  0
  8  7  2  0
 10  6  1  0
 10  7  1  0
 11  8  1  0
 11  9  2  0
 12  9  1  0
 12 10  2  0
 13 11  1  0
 14 12  1  0
 17 15  2  0
 18 16  1  0
 19 15  1  0
 20 16  2  0
 21 17  1  0
 22 18  2  0
 23 19  2  0
 24 20  1  0
 25 21  2  0
 25 23  1  0
 26 22  1  0
 26 24  1  0
 27 23  1  0
 27 24  2  0
 28 27  1  0
 29 25  1  0
 29 26  2  0
  1 30  1  0
  1 31  1  0
  1 32  1  0
  2 33  1  0
  2 34  1  0
  3 35  1  0
  3 36  1  0
  4 37  1  0
  4 38  1  0
  5 39  1  0
  5 40  1  0
  6 41  1  0
  6 42  1  0
  7 43  1  0
  8 44  1  0
  9 45  1  0
 13 46  1  0
 14 47  1  0
 15 48  1  0
 16 49  1  0
 17 50  1  0
 18 51  1  0
 19 52  1  0
 20 53  1  0
 21 54  1  0
 22 55  1  0
 28 56  1  0
 28 57  1  0
M  END
> <Uni-Dock RESULT> 
ENERGY=   -5.191  LOWER_BOUND=    1.624  UPPER_BOUND=    2.525
INTER + INTRA:          -5.191
INTER:                  -5.191
INTRA:                   0.000
UNBOUND:                 0.000

$$$$
