
     RDKit          3D

 57 59  0  0  0  0  0  0  0  0999 V2000
   47.7997   11.5848   12.3453 C   0  0  0  0  0  0  0  0  0  0  0  0
   47.5114   10.4529   13.3188 C   0  0  0  0  0  0  0  0  0  0  0  0
   47.0593    9.1873   12.5889 C   0  0  0  0  0  0  0  0  0  0  0  0
   46.7714    8.0530   13.5748 C   0  0  0  0  0  0  0  0  0  0  0  0
   46.4266    6.7259   12.8926 C   0  0  0  0  0  0  0  0  0  0  0  0
   45.1091    6.7690   12.1132 C   0  0  0  0  0  0  0  0  0  0  0  0
   45.0858    5.1091   10.2324 C   0  0  0  0  0  0  0  0  0  0  0  0
   44.7733    3.8673    9.6752 C   0  0  0  0  0  0  0  0  0  0  0  0
   43.7718    3.1836   11.7616 C   0  0  0  0  0  0  0  0  0  0  0  0
   44.7414    5.4113   11.5618 C   0  0  0  0  0  0  0  0  0  0  0  0
   44.1172    2.9154   10.4429 C   0  0  0  0  0  0  0  0  0  0  0  0
   44.0889    4.4246   12.3153 C   0  0  0  0  0  0  0  0  0  0  0  0
   43.8289    1.7161    9.8615 O   0  0  0  0  0  0  0  0  0  0  0  0
   43.7244    4.5994   13.6210 O   0  0  0  0  0  0  0  0  0  0  0  0
   47.2411   10.2647   12.1141 C   0  0  0  0  0  0  0  0  0  0  0  0
   44.8247    3.3202   12.2524 C   0  0  0  0  0  0  0  0  0  0  0  0
   45.9441   10.6142   11.7742 C   0  0  0  0  0  0  0  0  0  0  0  0
   43.5869    3.8391   11.9087 C   0  0  0  0  0  0  0  0  0  0  0  0
   47.5438    8.9295   12.3806 C   0  0  0  0  0  0  0  0  0  0  0  0
   45.8940    4.1879   12.4752 C   0  0  0  0  0  0  0  0  0  0  0  0
   44.9652    9.6231   11.6918 C   0  0  0  0  0  0  0  0  0  0  0  0
   43.4333    5.2200   11.7791 C   0  0  0  0  0  0  0  0  0  0  0  0
   46.5523    7.9155   12.3146 C   0  0  0  0  0  0  0  0  0  0  0  0
   45.7450    5.5951   12.3609 C   0  0  0  0  0  0  0  0  0  0  0  0
   45.2450    8.2865   11.9454 C   0  0  0  0  0  0  0  0  0  0  0  0
   44.4851    6.1026   11.9888 C   0  0  0  0  0  0  0  0  0  0  0  0
   46.7803    6.5409   12.6030 C   0  0  0  0  0  0  0  0  0  0  0  0
   48.0887    6.0924   12.9444 N   0  0  0  0  0  0  0  0  0  0  0  0
   44.2435    7.4077   11.8148 N   0  0  0  0  0  0  0  0  0  0  0  0
   48.1212   12.4789   12.8882 H   0  0  0  0  0  0  0  0  0  0  0  0
   48.5950   11.3076   11.6460 H   0  0  0  0  0  0  0  0  0  0  0  0
   46.9067   11.8415   11.7664 H   0  0  0  0  0  0  0  0  0  0  0  0
   46.7352   10.7734   14.0235 H   0  0  0  0  0  0  0  0  0  0  0  0
   48.4148   10.2438   13.9036 H   0  0  0  0  0  0  0  0  0  0  0  0
   46.1613    9.4140   12.0036 H   0  0  0  0  0  0  0  0  0  0  0  0
   47.8374    8.8729   11.8830 H   0  0  0  0  0  0  0  0  0  0  0  0
   47.6560    7.8930   14.2037 H   0  0  0  0  0  0  0  0  0  0  0  0
   45.9551    8.3438   14.2470 H   0  0  0  0  0  0  0  0  0  0  0  0
   47.2461    6.4320   12.2246 H   0  0  0  0  0  0  0  0  0  0  0  0
   46.3712    5.9515   13.6682 H   0  0  0  0  0  0  0  0  0  0  0  0
   45.1850    7.4818   11.2831 H   0  0  0  0  0  0  0  0  0  0  0  0
   44.2949    7.1457   12.7438 H   0  0  0  0  0  0  0  0  0  0  0  0
   45.6023    5.8429    9.6170 H   0  0  0  0  0  0  0  0  0  0  0  0
   45.0413    3.6453    8.6462 H   0  0  0  0  0  0  0  0  0  0  0  0
   43.2632    2.4459   12.3733 H   0  0  0  0  0  0  0  0  0  0  0  0
   43.3694    1.1629   10.5148 H   0  0  0  0  0  0  0  0  0  0  0  0
   44.0510    5.4555   13.9362 H   0  0  0  0  0  0  0  0  0  0  0  0
   48.0173   11.0233   12.1685 H   0  0  0  0  0  0  0  0  0  0  0  0
   44.9634    2.2461   12.3435 H   0  0  0  0  0  0  0  0  0  0  0  0
   45.6893   11.6490   11.5627 H   0  0  0  0  0  0  0  0  0  0  0  0
   42.7425    3.1790   11.7307 H   0  0  0  0  0  0  0  0  0  0  0  0
   48.5732    8.6850   12.6256 H   0  0  0  0  0  0  0  0  0  0  0  0
   46.8558    3.7493   12.7243 H   0  0  0  0  0  0  0  0  0  0  0  0
   43.9511    9.9004   11.4119 H   0  0  0  0  0  0  0  0  0  0  0  0
   42.4626    5.6220   11.4964 H   0  0  0  0  0  0  0  0  0  0  0  0
   48.0834    5.2252   13.4704 H   0  0  0  0  0  0  0  0  0  0  0  0
   48.6292    6.7938   13.4390 H   0  0  0  0  0  0  0  0  0  0  0  0
  2  1  1  0
  3  2  1  0
  4  3  1  0
  5  4  1  0
  6  5  1  0
  8  7  2  0
 10  6  1  0
 10  7  1  0
 11  8  1  0
 11  9  2  0
 12  9  1  0
 12 10  2  0
 13 11  1  0
 14 12  1  0
 17 15  2  0
 18 16  1  0
 19 15  1  0
 20 16  2  0
 21 17  1  0
 22 18  2  0
 23 19  2  0
 24 20  1  0
 25 21  2  0
 25 23  1  0
 26 22  1  0
 26 24  1  0
 27 23  1  0
 27 24  2  0
 28 27  1  0
 29 25  1  0
 29 26  2  0
  1 30  1  0
  1 31  1  0
  1 32  1  0
  2 33  1  0
  2 34  1  0
  3 35  1  0
  3 36  1  0
  4 37  1  0
  4 38  1  0
  5 39  1  0
  5 40  1  0
  6 41  1  0
  6 42  1  0
  7 43  1  0
  8 44  1  0
  9 45  1  0
 13 46  1  0
 14 47  1  0
 15 48  1  0
 16 49  1  0
 17 50  1  0
 18 51  1  0
 19 52  1  0
 20 53  1  0
 21 54  1  0
 22 55  1  0
 28 56  1  0
 28 57  1  0
M  END
> <Uni-Dock RESULT> 
ENERGY=   -6.942  LOWER_BOUND=    0.000  UPPER_BOUND=    0.000
INTER + INTRA:          -6.942
INTER:                  -6.942
INTRA:                   0.000
UNBOUND:                 0.000

$$$$

     RDKit          3D

 57 59  0  0  0  0  0  0  0  0999 V2000
   43.4614    2.7309   11.5200 C   0  0  0  0  0  0  0  0  0  0  0  0
   43.3038    4.0512   12.2576 C   0  0  0  0  0  0  0  0  0  0  0  0
   44.5319    4.9444   12.0766 C   0  0  0  0  0  0  0  0  0  0  0  0
   44.3660    6.2708   12.8213 C   0  0  0  0  0  0  0  0  0  0  0  0
   45.5162    7.2528   12.5800 C   0  0  0  0  0  0  0  0  0  0  0  0
   46.8542    6.7711   13.1481 C   0  0  0  0  0  0  0  0  0  0  0  0
   48.8000    7.7430   11.8981 C   0  0  0  0  0  0  0  0  0  0  0  0
   49.8109    8.6885   11.7138 C   0  0  0  0  0  0  0  0  0  0  0  0
   49.1145    9.8247   13.7258 C   0  0  0  0  0  0  0  0  0  0  0  0
   47.9328    7.8189   13.0025 C   0  0  0  0  0  0  0  0  0  0  0  0
   49.9618    9.7203   12.6296 C   0  0  0  0  0  0  0  0  0  0  0  0
   48.1036    8.8795   13.9041 C   0  0  0  0  0  0  0  0  0  0  0  0
   50.9618   10.6221   12.4146 O   0  0  0  0  0  0  0  0  0  0  0  0
   47.3086    9.0646   15.0005 O   0  0  0  0  0  0  0  0  0  0  0  0
   44.4072    3.8136   11.7230 C   0  0  0  0  0  0  0  0  0  0  0  0
   48.0839   10.0083   13.2037 C   0  0  0  0  0  0  0  0  0  0  0  0
   45.3091    3.1835   12.5654 C   0  0  0  0  0  0  0  0  0  0  0  0
   48.8963    9.2269   14.0095 C   0  0  0  0  0  0  0  0  0  0  0  0
   44.4827    5.1954   11.5482 C   0  0  0  0  0  0  0  0  0  0  0  0
   46.9928    9.4250   12.5593 C   0  0  0  0  0  0  0  0  0  0  0  0
   46.2854    3.9398   13.2149 C   0  0  0  0  0  0  0  0  0  0  0  0
   48.6169    7.8674   14.1534 C   0  0  0  0  0  0  0  0  0  0  0  0
   45.4623    5.9763   12.2160 C   0  0  0  0  0  0  0  0  0  0  0  0
   46.6907    8.0461   12.7108 C   0  0  0  0  0  0  0  0  0  0  0  0
   46.3844    5.3154   13.0503 C   0  0  0  0  0  0  0  0  0  0  0  0
   47.5407    7.2634   13.5159 C   0  0  0  0  0  0  0  0  0  0  0  0
   45.5794    7.3905   12.1106 C   0  0  0  0  0  0  0  0  0  0  0  0
   44.7031    8.1157   11.2529 N   0  0  0  0  0  0  0  0  0  0  0  0
   47.3716    5.9478   13.6966 N   0  0  0  0  0  0  0  0  0  0  0  0
   42.5726    2.1086   11.6629 H   0  0  0  0  0  0  0  0  0  0  0  0
   43.5921    2.8951   10.4456 H   0  0  0  0  0  0  0  0  0  0  0  0
   44.3285    2.1752   11.8910 H   0  0  0  0  0  0  0  0  0  0  0  0
   43.1433    3.8509   13.3234 H   0  0  0  0  0  0  0  0  0  0  0  0
   42.4102    4.5656   11.8855 H   0  0  0  0  0  0  0  0  0  0  0  0
   45.4169    4.4141   12.4454 H   0  0  0  0  0  0  0  0  0  0  0  0
   44.6902    5.1389   11.0090 H   0  0  0  0  0  0  0  0  0  0  0  0
   43.4347    6.7501   12.4945 H   0  0  0  0  0  0  0  0  0  0  0  0
   44.2630    6.0823   13.8968 H   0  0  0  0  0  0  0  0  0  0  0  0
   45.6152    7.4461   11.5043 H   0  0  0  0  0  0  0  0  0  0  0  0
   45.2441    8.2116   13.0395 H   0  0  0  0  0  0  0  0  0  0  0  0
   47.1746    5.8564   12.6348 H   0  0  0  0  0  0  0  0  0  0  0  0
   46.7514    6.4894   14.2030 H   0  0  0  0  0  0  0  0  0  0  0  0
   48.6945    6.9419   11.1693 H   0  0  0  0  0  0  0  0  0  0  0  0
   50.4773    8.6188   10.8588 H   0  0  0  0  0  0  0  0  0  0  0  0
   49.2192   10.6294   14.4458 H   0  0  0  0  0  0  0  0  0  0  0  0
   50.9447   11.2741   13.1348 H   0  0  0  0  0  0  0  0  0  0  0  0
   46.5959    8.4082   14.9978 H   0  0  0  0  0  0  0  0  0  0  0  0
   43.6501    3.2362   11.1992 H   0  0  0  0  0  0  0  0  0  0  0  0
   48.2969   11.0656   13.0707 H   0  0  0  0  0  0  0  0  0  0  0  0
   45.2663    2.1081   12.7137 H   0  0  0  0  0  0  0  0  0  0  0  0
   49.7509    9.6633   14.5191 H   0  0  0  0  0  0  0  0  0  0  0  0
   43.7739    5.6569   10.8669 H   0  0  0  0  0  0  0  0  0  0  0  0
   46.3867   10.0597   11.9196 H   0  0  0  0  0  0  0  0  0  0  0  0
   46.9995    3.4389   13.8653 H   0  0  0  0  0  0  0  0  0  0  0  0
   49.2651    7.2552   14.7769 H   0  0  0  0  0  0  0  0  0  0  0  0
   44.6147    9.0918   11.5139 H   0  0  0  0  0  0  0  0  0  0  0  0
   43.7843    7.6925   11.1793 H   0  0  0  0  0  0  0  0  0  0  0  0
  2  1  1  0
  3  2  1  0
  4  3  1  0
  5  4  1  0
  6  5  1  0
  8  7  2  0
 10  6  1  0
 10  7  1  0
 11  8  1  0
 11  9  2  0
 12  9  1  0
 12 10  2  0
 13 11  1  0
 14 12  1  0
 17 15  2  0
 18 16  1  0
 19 15  1  0
 20 16  2  0
 21 17  1  0
 22 18  2  0
 23 19  2  0
 24 20  1  0
 25 21  2  0
 25 23  1  0
 26 22  1  0
 26 24  1  0
 27 23  1  0
 27 24  2  0
 28 27  1  0
 29 25  1  0
 29 26  2  0
  1 30  1  0
  1 31  1  0
  1 32  1  0
  2 33  1  0
  2 34  1  0
  3 35  1  0
  3 36  1  0
  4 37  1  0
  4 38  1  0
  5 39  1  0
  5 40  1  0
  6 41  1  0
  6 42  1  0
  7 43  1  0
  8 44  1  0
  9 45  1  0
 13 46  1  0
 14 47  1  0
 15 48  1  0
 16 49  1  0
 17 50  1  0
 18 51  1  0
 19 52  1  0
 20 53  1  0
 21 54  1  0
 22 55  1  0
 28 56  1  0
 28 57  1  0
M  END
> <Uni-Dock RESULT> 
ENERGY=   -6.361  LOWER_BOUND=    2.392  UPPER_BOUND=    6.126
INTER + INTRA:          -6.361
INTER:                  -6.361
INTRA:                   0.000
UNBOUND:                 0.000

$$$$

     RDKit          3D

 57 59  0  0  0  0  0  0  0  0999 V2000
   47.6771   11.4945   19.9975 C   0  0  0  0  0  0  0  0  0  0  0  0
   46.8449   10.2234   20.0568 C   0  0  0  0  0  0  0  0  0  0  0  0
   47.6688    8.9953   19.6674 C   0  0  0  0  0  0  0  0  0  0  0  0
   46.8249    7.7204   19.7296 C   0  0  0  0  0  0  0  0  0  0  0  0
   47.6284    6.4443   19.4621 C   0  0  0  0  0  0  0  0  0  0  0  0
   48.1720    6.3583   18.0331 C   0  0  0  0  0  0  0  0  0  0  0  0
   50.2456    4.9518   17.9092 C   0  0  0  0  0  0  0  0  0  0  0  0
   50.9198    3.7500   17.6836 C   0  0  0  0  0  0  0  0  0  0  0  0
   48.8216    2.6668   17.1859 C   0  0  0  0  0  0  0  0  0  0  0  0
   48.8485    5.0330   17.7714 C   0  0  0  0  0  0  0  0  0  0  0  0
   50.2034    2.6178   17.3217 C   0  0  0  0  0  0  0  0  0  0  0  0
   48.1516    3.8691   17.4156 C   0  0  0  0  0  0  0  0  0  0  0  0
   50.8990    1.4644   17.1090 O   0  0  0  0  0  0  0  0  0  0  0  0
   46.7930    3.8250   17.2723 O   0  0  0  0  0  0  0  0  0  0  0  0
   48.0050   10.1363   19.6027 C   0  0  0  0  0  0  0  0  0  0  0  0
   48.4913    2.9185   18.2794 C   0  0  0  0  0  0  0  0  0  0  0  0
   48.0783   10.3017   18.2290 C   0  0  0  0  0  0  0  0  0  0  0  0
   48.5532    3.2601   16.9381 C   0  0  0  0  0  0  0  0  0  0  0  0
   47.9873    8.8485   20.1382 C   0  0  0  0  0  0  0  0  0  0  0  0
   48.3191    3.9203   19.2347 C   0  0  0  0  0  0  0  0  0  0  0  0
   48.1458    9.1777   17.4048 C   0  0  0  0  0  0  0  0  0  0  0  0
   48.4546    4.6013   16.5659 C   0  0  0  0  0  0  0  0  0  0  0  0
   48.0401    7.6981   19.3081 C   0  0  0  0  0  0  0  0  0  0  0  0
   48.2025    5.2864   18.8659 C   0  0  0  0  0  0  0  0  0  0  0  0
   48.1371    7.8861   17.9159 C   0  0  0  0  0  0  0  0  0  0  0  0
   48.2902    5.6164   17.4997 C   0  0  0  0  0  0  0  0  0  0  0  0
   47.9947    6.3566   19.7805 C   0  0  0  0  0  0  0  0  0  0  0  0
   47.9362    6.0961   21.1799 N   0  0  0  0  0  0  0  0  0  0  0  0
   48.2318    6.8740   17.0448 N   0  0  0  0  0  0  0  0  0  0  0  0
   47.0687   12.3594   20.2796 H   0  0  0  0  0  0  0  0  0  0  0  0
   48.5277   11.4388   20.6845 H   0  0  0  0  0  0  0  0  0  0  0  0
   48.0620   11.6649   18.9869 H   0  0  0  0  0  0  0  0  0  0  0  0
   45.9859   10.3241   19.3831 H   0  0  0  0  0  0  0  0  0  0  0  0
   46.4491   10.1007   21.0717 H   0  0  0  0  0  0  0  0  0  0  0  0
   48.0634    9.1362   18.6551 H   0  0  0  0  0  0  0  0  0  0  0  0
   48.5284    8.9010   20.3418 H   0  0  0  0  0  0  0  0  0  0  0  0
   46.3758    7.6373   20.7272 H   0  0  0  0  0  0  0  0  0  0  0  0
   45.9955    7.7890   19.0153 H   0  0  0  0  0  0  0  0  0  0  0  0
   48.4546    6.3726   20.1808 H   0  0  0  0  0  0  0  0  0  0  0  0
   46.9747    5.5854   19.6605 H   0  0  0  0  0  0  0  0  0  0  0  0
   48.8910    7.1668   17.8536 H   0  0  0  0  0  0  0  0  0  0  0  0
   47.3711    6.5163   17.3008 H   0  0  0  0  0  0  0  0  0  0  0  0
   50.8226    5.8292   18.1943 H   0  0  0  0  0  0  0  0  0  0  0  0
   51.9997    3.6991   17.7899 H   0  0  0  0  0  0  0  0  0  0  0  0
   48.2500    1.7874   16.9084 H   0  0  0  0  0  0  0  0  0  0  0  0
   50.2679    0.7689   16.8602 H   0  0  0  0  0  0  0  0  0  0  0  0
   46.4133    4.6803   17.5235 H   0  0  0  0  0  0  0  0  0  0  0  0
   47.9661   11.0023   20.2583 H   0  0  0  0  0  0  0  0  0  0  0  0
   48.5806    1.8797   18.5858 H   0  0  0  0  0  0  0  0  0  0  0  0
   48.0937   11.2970   17.7934 H   0  0  0  0  0  0  0  0  0  0  0  0
   48.6875    2.4938   16.1796 H   0  0  0  0  0  0  0  0  0  0  0  0
   47.9486    8.7524   21.2193 H   0  0  0  0  0  0  0  0  0  0  0  0
   48.2937    3.6225   20.2788 H   0  0  0  0  0  0  0  0  0  0  0  0
   48.2163    9.3126   16.3276 H   0  0  0  0  0  0  0  0  0  0  0  0
   48.5166    4.8659   15.5124 H   0  0  0  0  0  0  0  0  0  0  0  0
   47.5477    5.1842   21.3951 H   0  0  0  0  0  0  0  0  0  0  0  0
   47.4380    6.8145   21.6940 H   0  0  0  0  0  0  0  0  0  0  0  0
  2  1  1  0
  3  2  1  0
  4  3  1  0
  5  4  1  0
  6  5  1  0
  8  7  2  0
 10  6  1  0
 10  7  1  0
 11  8  1  0
 11  9  2  0
 12  9  1  0
 12 10  2  0
 13 11  1  0
 14 12  1  0
 17 15  2  0
 18 16  1  0
 19 15  1  0
 20 16  2  0
 21 17  1  0
 22 18  2  0
 23 19  2  0
 24 20  1  0
 25 21  2  0
 25 23  1  0
 26 22  1  0
 26 24  1  0
 27 23  1  0
 27 24  2  0
 28 27  1  0
 29 25  1  0
 29 26  2  0
  1 30  1  0
  1 31  1  0
  1 32  1  0
  2 33  1  0
  2 34  1  0
  3 35  1  0
  3 36  1  0
  4 37  1  0
  4 38  1  0
  5 39  1  0
  5 40  1  0
  6 41  1  0
  6 42  1  0
  7 43  1  0
  8 44  1  0
  9 45  1  0
 13 46  1  0
 14 47  1  0
 15 48  1  0
 16 49  1  0
 17 50  1  0
 18 51  1  0
 19 52  1  0
 20 53  1  0
 21 54  1  0
 22 55  1  0
 28 56  1  0
 28 57  1  0
M  END
> <Uni-Dock RESULT> 
ENERGY=   -5.706  LOWER_BOUND=    6.083  UPPER_BOUND=    7.413
INTER + INTRA:          -5.706
INTER:                  -5.706
INTRA:                   0.000
UNBOUND:                 0.000

$$$$

     RDKit          3D

 57 59  0  0  0  0  0  0  0  0999 V2000
   47.8405   11.9104   19.4355 C   0  0  0  0  0  0  0  0  0  0  0  0
   47.0038   10.6571   19.6381 C   0  0  0  0  0  0  0  0  0  0  0  0
   47.8047    9.3920   19.3268 C   0  0  0  0  0  0  0  0  0  0  0  0
   46.9564    8.1353   19.5330 C   0  0  0  0  0  0  0  0  0  0  0  0
   47.7414    6.8334   19.3481 C   0  0  0  0  0  0  0  0  0  0  0  0
   48.2284    6.6175   17.9124 C   0  0  0  0  0  0  0  0  0  0  0  0
   50.2873    5.1865   17.8332 C   0  0  0  0  0  0  0  0  0  0  0  0
   50.9452    3.9633   17.6883 C   0  0  0  0  0  0  0  0  0  0  0  0
   48.8229    2.8602   17.3684 C   0  0  0  0  0  0  0  0  0  0  0  0
   48.8864    5.2682   17.7424 C   0  0  0  0  0  0  0  0  0  0  0  0
   50.2086    2.8105   17.4550 C   0  0  0  0  0  0  0  0  0  0  0  0
   48.1694    4.0841   17.5172 C   0  0  0  0  0  0  0  0  0  0  0  0
   50.8887    1.6365   17.3180 O   0  0  0  0  0  0  0  0  0  0  0  0
   46.8060    4.0401   17.4305 O   0  0  0  0  0  0  0  0  0  0  0  0
   48.1448   10.5198   19.1493 C   0  0  0  0  0  0  0  0  0  0  0  0
   48.5370    3.2097   18.4475 C   0  0  0  0  0  0  0  0  0  0  0  0
   48.1655   10.5636   17.7645 C   0  0  0  0  0  0  0  0  0  0  0  0
   48.5485    3.4320   17.0799 C   0  0  0  0  0  0  0  0  0  0  0  0
   48.1404    9.2840   19.7961 C   0  0  0  0  0  0  0  0  0  0  0  0
   48.4080    4.2929   19.3170 C   0  0  0  0  0  0  0  0  0  0  0  0
   48.1942    9.3712   17.0404 C   0  0  0  0  0  0  0  0  0  0  0  0
   48.4433    4.7363   16.5954 C   0  0  0  0  0  0  0  0  0  0  0  0
   48.1541    8.0649   19.0688 C   0  0  0  0  0  0  0  0  0  0  0  0
   48.2851    5.6224   18.8344 C   0  0  0  0  0  0  0  0  0  0  0  0
   48.1979    8.1295   17.6628 C   0  0  0  0  0  0  0  0  0  0  0  0
   48.3214    5.8307   17.4421 C   0  0  0  0  0  0  0  0  0  0  0  0
   48.1193    6.7704   19.6587 C   0  0  0  0  0  0  0  0  0  0  0  0
   48.1139    6.6340   21.0768 N   0  0  0  0  0  0  0  0  0  0  0  0
   48.2526    7.0441   16.8810 N   0  0  0  0  0  0  0  0  0  0  0  0
   47.2486   12.8022   19.6637 H   0  0  0  0  0  0  0  0  0  0  0  0
   48.7168   11.9071   20.0917 H   0  0  0  0  0  0  0  0  0  0  0  0
   48.1866   11.9880   18.3999 H   0  0  0  0  0  0  0  0  0  0  0  0
   46.1198   10.7063   18.9915 H   0  0  0  0  0  0  0  0  0  0  0  0
   46.6471   10.6274   20.6743 H   0  0  0  0  0  0  0  0  0  0  0  0
   48.1604    9.4401   18.2916 H   0  0  0  0  0  0  0  0  0  0  0  0
   48.6893    9.3491   19.9735 H   0  0  0  0  0  0  0  0  0  0  0  0
   46.5461    8.1441   20.5505 H   0  0  0  0  0  0  0  0  0  0  0  0
   46.1002    8.1488   18.8478 H   0  0  0  0  0  0  0  0  0  0  0  0
   48.5946    6.8171   20.0381 H   0  0  0  0  0  0  0  0  0  0  0  0
   47.0910    6.0012   19.6460 H   0  0  0  0  0  0  0  0  0  0  0  0
   48.9446    7.4005   17.6352 H   0  0  0  0  0  0  0  0  0  0  0  0
   47.4005    6.7182   17.2003 H   0  0  0  0  0  0  0  0  0  0  0  0
   50.8801    6.0801   18.0178 H   0  0  0  0  0  0  0  0  0  0  0  0
   52.0281    3.9120   17.7573 H   0  0  0  0  0  0  0  0  0  0  0  0
   48.2358    1.9652   17.1914 H   0  0  0  0  0  0  0  0  0  0  0  0
   50.2443    0.9277   17.1556 H   0  0  0  0  0  0  0  0  0  0  0  0
   46.4414    4.9176   17.6199 H   0  0  0  0  0  0  0  0  0  0  0  0
   48.1366   11.4402   19.7272 H   0  0  0  0  0  0  0  0  0  0  0  0
   48.6321    2.2009   18.8403 H   0  0  0  0  0  0  0  0  0  0  0  0
   48.1696   11.5167   17.2430 H   0  0  0  0  0  0  0  0  0  0  0  0
   48.6487    2.6010   16.3872 H   0  0  0  0  0  0  0  0  0  0  0  0
   48.1434    9.2833   20.8822 H   0  0  0  0  0  0  0  0  0  0  0  0
   48.4216    4.0878   20.3834 H   0  0  0  0  0  0  0  0  0  0  0  0
   48.2234    9.4106   15.9535 H   0  0  0  0  0  0  0  0  0  0  0  0
   48.4657    4.9070   15.5212 H   0  0  0  0  0  0  0  0  0  0  0  0
   47.7288    5.7481   21.3860 H   0  0  0  0  0  0  0  0  0  0  0  0
   47.6403    7.3992   21.5445 H   0  0  0  0  0  0  0  0  0  0  0  0
  2  1  1  0
  3  2  1  0
  4  3  1  0
  5  4  1  0
  6  5  1  0
  8  7  2  0
 10  6  1  0
 10  7  1  0
 11  8  1  0
 11  9  2  0
 12  9  1  0
 12 10  2  0
 13 11  1  0
 14 12  1  0
 17 15  2  0
 18 16  1  0
 19 15  1  0
 20 16  2  0
 21 17  1  0
 22 18  2  0
 23 19  2  0
 24 20  1  0
 25 21  2  0
 25 23  1  0
 26 22  1  0
 26 24  1  0
 27 23  1  0
 27 24  2  0
 28 27  1  0
 29 25  1  0
 29 26  2  0
  1 30  1  0
  1 31  1  0
  1 32  1  0
  2 33  1  0
  2 34  1  0
  3 35  1  0
  3 36  1  0
  4 37  1  0
  4 38  1  0
  5 39  1  0
  5 40  1  0
  6 41  1  0
  6 42  1  0
  7 43  1  0
  8 44  1  0
  9 45  1  0
 13 46  1  0
 14 47  1  0
 15 48  1  0
 16 49  1  0
 17 50  1  0
 18 51  1  0
 19 52  1  0
 20 53  1  0
 21 54  1  0
 22 55  1  0
 28 56  1  0
 28 57  1  0
M  END
> <Uni-Dock RESULT> 
ENERGY=   -5.680  LOWER_BOUND=    5.945  UPPER_BOUND=    7.316
INTER + INTRA:          -5.680
INTER:                  -5.680
INTRA:                   0.000
UNBOUND:                 0.000

$$$$

     RDKit          3D

 57 59  0  0  0  0  0  0  0  0999 V2000
   48.0382   10.4181   22.2659 C   0  0  0  0  0  0  0  0  0  0  0  0
   47.1742    9.1825   22.0689 C   0  0  0  0  0  0  0  0  0  0  0  0
   47.9082    8.1074   21.2664 C   0  0  0  0  0  0  0  0  0  0  0  0
   47.0329    6.8674   21.0725 C   0  0  0  0  0  0  0  0  0  0  0  0
   47.7582    5.7126   20.3756 C   0  0  0  0  0  0  0  0  0  0  0  0
   48.1398    6.0231   18.9254 C   0  0  0  0  0  0  0  0  0  0  0  0
   50.1381    4.6996   18.1850 C   0  0  0  0  0  0  0  0  0  0  0  0
   50.7422    3.6049   17.5631 C   0  0  0  0  0  0  0  0  0  0  0  0
   48.5663    2.7076   17.0302 C   0  0  0  0  0  0  0  0  0  0  0  0
   48.7380    4.8198   18.2350 C   0  0  0  0  0  0  0  0  0  0  0  0
   49.9522    2.6190   16.9889 C   0  0  0  0  0  0  0  0  0  0  0  0
   47.9670    3.8015   17.6556 C   0  0  0  0  0  0  0  0  0  0  0  0
   50.5806    1.5672   16.3902 O   0  0  0  0  0  0  0  0  0  0  0  0
   46.6002    3.8027   17.6617 O   0  0  0  0  0  0  0  0  0  0  0  0
   48.2744    9.2209   21.4791 C   0  0  0  0  0  0  0  0  0  0  0  0
   48.3659    2.6483   18.1811 C   0  0  0  0  0  0  0  0  0  0  0  0
   48.2033    9.7592   20.2043 C   0  0  0  0  0  0  0  0  0  0  0  0
   48.2931    3.3470   16.9869 C   0  0  0  0  0  0  0  0  0  0  0  0
   48.2708    7.8353   21.6394 C   0  0  0  0  0  0  0  0  0  0  0  0
   48.3331    3.3477   19.3877 C   0  0  0  0  0  0  0  0  0  0  0  0
   48.1421    8.9064   19.1015 C   0  0  0  0  0  0  0  0  0  0  0  0
   48.2006    4.7392   17.0105 C   0  0  0  0  0  0  0  0  0  0  0  0
   48.1935    6.9589   20.5252 C   0  0  0  0  0  0  0  0  0  0  0  0
   48.2240    4.7628   19.4233 C   0  0  0  0  0  0  0  0  0  0  0  0
   48.1449    7.5240   19.2363 C   0  0  0  0  0  0  0  0  0  0  0  0
   48.1738    5.4571   18.1992 C   0  0  0  0  0  0  0  0  0  0  0  0
   48.1538    5.5392   20.6138 C   0  0  0  0  0  0  0  0  0  0  0  0
   48.2390    4.9024   21.8853 N   0  0  0  0  0  0  0  0  0  0  0  0
   48.1093    6.7917   18.1162 N   0  0  0  0  0  0  0  0  0  0  0  0
   47.4941   11.1731   22.8418 H   0  0  0  0  0  0  0  0  0  0  0  0
   48.9560   10.1723   22.8096 H   0  0  0  0  0  0  0  0  0  0  0  0
   48.3164   10.8599   21.3037 H   0  0  0  0  0  0  0  0  0  0  0  0
   46.2510    9.4679   21.5512 H   0  0  0  0  0  0  0  0  0  0  0  0
   46.8872    8.7853   23.0496 H   0  0  0  0  0  0  0  0  0  0  0  0
   48.1950    8.5214   20.2933 H   0  0  0  0  0  0  0  0  0  0  0  0
   48.8323    7.8279   21.7865 H   0  0  0  0  0  0  0  0  0  0  0  0
   46.6924    6.5133   22.0535 H   0  0  0  0  0  0  0  0  0  0  0  0
   46.1335    7.1332   20.5039 H   0  0  0  0  0  0  0  0  0  0  0  0
   48.6548    5.4426   20.9479 H   0  0  0  0  0  0  0  0  0  0  0  0
   47.1010    4.8342   20.4041 H   0  0  0  0  0  0  0  0  0  0  0  0
   48.8624    6.8476   18.8937 H   0  0  0  0  0  0  0  0  0  0  0  0
   47.2699    6.3797   18.3609 H   0  0  0  0  0  0  0  0  0  0  0  0
   50.7725    5.4624   18.6320 H   0  0  0  0  0  0  0  0  0  0  0  0
   51.8248    3.5235   17.5275 H   0  0  0  0  0  0  0  0  0  0  0  0
   47.9381    1.9407   16.5893 H   0  0  0  0  0  0  0  0  0  0  0  0
   49.9027    0.9693   16.0339 H   0  0  0  0  0  0  0  0  0  0  0  0
   46.2796    4.5564   18.1794 H   0  0  0  0  0  0  0  0  0  0  0  0
   48.3368    9.8721   22.3469 H   0  0  0  0  0  0  0  0  0  0  0  0
   48.4523    1.5650   18.1787 H   0  0  0  0  0  0  0  0  0  0  0  0
   48.2053   10.8360   20.0596 H   0  0  0  0  0  0  0  0  0  0  0  0
   48.3177    2.8197   16.0372 H   0  0  0  0  0  0  0  0  0  0  0  0
   48.3468    7.4444   22.6498 H   0  0  0  0  0  0  0  0  0  0  0  0
   48.4113    2.7730   20.3058 H   0  0  0  0  0  0  0  0  0  0  0  0
   48.0995    9.3336   18.1018 H   0  0  0  0  0  0  0  0  0  0  0  0
   48.1566    5.2843   16.0699 H   0  0  0  0  0  0  0  0  0  0  0  0
   47.8453    3.9677   21.8851 H   0  0  0  0  0  0  0  0  0  0  0  0
   47.8247    5.4522   22.6300 H   0  0  0  0  0  0  0  0  0  0  0  0
  2  1  1  0
  3  2  1  0
  4  3  1  0
  5  4  1  0
  6  5  1  0
  8  7  2  0
 10  6  1  0
 10  7  1  0
 11  8  1  0
 11  9  2  0
 12  9  1  0
 12 10  2  0
 13 11  1  0
 14 12  1  0
 17 15  2  0
 18 16  1  0
 19 15  1  0
 20 16  2  0
 21 17  1  0
 22 18  2  0
 23 19  2  0
 24 20  1  0
 25 21  2  0
 25 23  1  0
 26 22  1  0
 26 24  1  0
 27 23  1  0
 27 24  2  0
 28 27  1  0
 29 25  1  0
 29 26  2  0
  1 30  1  0
  1 31  1  0
  1 32  1  0
  2 33  1  0
  2 34  1  0
  3 35  1  0
  3 36  1  0
  4 37  1  0
  4 38  1  0
  5 39  1  0
  5 40  1  0
  6 41  1  0
  6 42  1  0
  7 43  1  0
  8 44  1  0
  9 45  1  0
 13 46  1  0
 14 47  1  0
 15 48  1  0
 16 49  1  0
 17 50  1  0
 18 51  1  0
 19 52  1  0
 20 53  1  0
 21 54  1  0
 22 55  1  0
 28 56  1  0
 28 57  1  0
M  END
> <Uni-Dock RESULT> 
ENERGY=   -5.454  LOWER_BOUND=    6.870  UPPER_BOUND=    8.153
INTER + INTRA:          -5.454
INTER:                  -5.454
INTRA:                   0.000
UNBOUND:                 0.000

$$$$

     RDKit          3D

 57 59  0  0  0  0  0  0  0  0999 V2000
   47.4836    3.2855   17.4194 C   0  0  0  0  0  0  0  0  0  0  0  0
   48.2652    3.8886   18.5758 C   0  0  0  0  0  0  0  0  0  0  0  0
   47.8056    5.3153   18.8794 C   0  0  0  0  0  0  0  0  0  0  0  0
   48.5963    5.9153   20.0439 C   0  0  0  0  0  0  0  0  0  0  0  0
   48.0995    7.3006   20.4678 C   0  0  0  0  0  0  0  0  0  0  0  0
   48.3093    8.3743   19.3962 C   0  0  0  0  0  0  0  0  0  0  0  0
   46.6385   10.2341   19.6027 C   0  0  0  0  0  0  0  0  0  0  0  0
   46.2305   11.4940   20.0456 C   0  0  0  0  0  0  0  0  0  0  0  0
   48.3758   11.8167   21.1025 C   0  0  0  0  0  0  0  0  0  0  0  0
   47.9241    9.7465   19.8972 C   0  0  0  0  0  0  0  0  0  0  0  0
   47.1024   12.2761   20.7898 C   0  0  0  0  0  0  0  0  0  0  0  0
   48.7781   10.5558   20.6607 C   0  0  0  0  0  0  0  0  0  0  0  0
   46.6664   13.5007   21.2021 O   0  0  0  0  0  0  0  0  0  0  0  0
   50.0405   10.1778   21.0235 O   0  0  0  0  0  0  0  0  0  0  0  0
   47.4698    4.6316   17.9634 C   0  0  0  0  0  0  0  0  0  0  0  0
   48.1284   10.8890   21.7706 C   0  0  0  0  0  0  0  0  0  0  0  0
   48.0498    5.3178   16.9086 C   0  0  0  0  0  0  0  0  0  0  0  0
   48.6918   11.4226   20.6228 C   0  0  0  0  0  0  0  0  0  0  0  0
   47.3112    5.2711   19.1928 C   0  0  0  0  0  0  0  0  0  0  0  0
   47.7611    9.5434   21.7924 C   0  0  0  0  0  0  0  0  0  0  0  0
   48.4541    6.6409   17.0899 C   0  0  0  0  0  0  0  0  0  0  0  0
   48.8713   10.6085   19.5037 C   0  0  0  0  0  0  0  0  0  0  0  0
   47.7330    6.6119   19.3925 C   0  0  0  0  0  0  0  0  0  0  0  0
   47.9530    8.7027   20.6646 C   0  0  0  0  0  0  0  0  0  0  0  0
   48.2995    7.3004   18.3025 C   0  0  0  0  0  0  0  0  0  0  0  0
   48.5065    9.2683   19.4997 C   0  0  0  0  0  0  0  0  0  0  0  0
   47.6321    7.3169   20.6244 C   0  0  0  0  0  0  0  0  0  0  0  0
   47.0329    6.6917   21.7556 N   0  0  0  0  0  0  0  0  0  0  0  0
   48.6953    8.5776   18.3687 N   0  0  0  0  0  0  0  0  0  0  0  0
   47.8283    2.2661   17.2198 H   0  0  0  0  0  0  0  0  0  0  0  0
   46.4140    3.2438   17.6485 H   0  0  0  0  0  0  0  0  0  0  0  0
   47.6170    3.8742   16.5061 H   0  0  0  0  0  0  0  0  0  0  0  0
   49.3332    3.8865   18.3281 H   0  0  0  0  0  0  0  0  0  0  0  0
   48.1363    3.2583   19.4634 H   0  0  0  0  0  0  0  0  0  0  0  0
   47.9331    5.9303   17.9816 H   0  0  0  0  0  0  0  0  0  0  0  0
   46.7364    5.3125   19.1231 H   0  0  0  0  0  0  0  0  0  0  0  0
   48.5199    5.2463   20.9101 H   0  0  0  0  0  0  0  0  0  0  0  0
   49.6596    5.9707   19.7812 H   0  0  0  0  0  0  0  0  0  0  0  0
   47.0370    7.2439   20.7366 H   0  0  0  0  0  0  0  0  0  0  0  0
   48.6322    7.5850   21.3842 H   0  0  0  0  0  0  0  0  0  0  0  0
   47.7133    8.1400   18.5058 H   0  0  0  0  0  0  0  0  0  0  0  0
   49.3505    8.3842   19.0524 H   0  0  0  0  0  0  0  0  0  0  0  0
   45.9414    9.6332   19.0221 H   0  0  0  0  0  0  0  0  0  0  0  0
   45.2361   11.8623   19.8098 H   0  0  0  0  0  0  0  0  0  0  0  0
   49.0646   12.4168   21.6878 H   0  0  0  0  0  0  0  0  0  0  0  0
   47.3822   13.9271   21.7020 H   0  0  0  0  0  0  0  0  0  0  0  0
   50.1999    9.2658   20.7374 H   0  0  0  0  0  0  0  0  0  0  0  0
   47.1370    3.6052   17.8334 H   0  0  0  0  0  0  0  0  0  0  0  0
   47.9695   11.5139   22.6455 H   0  0  0  0  0  0  0  0  0  0  0  0
   48.1812    4.8365   15.9434 H   0  0  0  0  0  0  0  0  0  0  0  0
   48.9837   12.4685   20.5867 H   0  0  0  0  0  0  0  0  0  0  0  0
   46.8360    4.7129   19.9940 H   0  0  0  0  0  0  0  0  0  0  0  0
   47.3045    9.1601   22.7001 H   0  0  0  0  0  0  0  0  0  0  0  0
   48.8972    7.1799   16.2551 H   0  0  0  0  0  0  0  0  0  0  0  0
   49.3023   11.0352   18.6004 H   0  0  0  0  0  0  0  0  0  0  0  0
   47.3283    7.1017   22.6351 H   0  0  0  0  0  0  0  0  0  0  0  0
   47.1795    5.6883   21.7751 H   0  0  0  0  0  0  0  0  0  0  0  0
  2  1  1  0
  3  2  1  0
  4  3  1  0
  5  4  1  0
  6  5  1  0
  8  7  2  0
 10  6  1  0
 10  7  1  0
 11  8  1  0
 11  9  2  0
 12  9  1  0
 12 10  2  0
 13 11  1  0
 14 12  1  0
 17 15  2  0
 18 16  1  0
 19 15  1  0
 20 16  2  0
 21 17  1  0
 22 18  2  0
 23 19  2  0
 24 20  1  0
 25 21  2  0
 25 23  1  0
 26 22  1  0
 26 24  1  0
 27 23  1  0
 27 24  2  0
 28 27  1  0
 29 25  1  0
 29 26  2  0
  1 30  1  0
  1 31  1  0
  1 32  1  0
  2 33  1  0
  2 34  1  0
  3 35  1  0
  3 36  1  0
  4 37  1  0
  4 38  1  0
  5 39  1  0
  5 40  1  0
  6 41  1  0
  6 42  1  0
  7 43  1  0
  8 44  1  0
  9 45  1  0
 13 46  1  0
 14 47  1  0
 15 48  1  0
 16 49  1  0
 17 50  1  0
 18 51  1  0
 19 52  1  0
 20 53  1  0
 21 54  1  0
 22 55  1  0
 28 56  1  0
 28 57  1  0
M  END
> <Uni-Dock RESULT> 
ENERGY=   -5.412  LOWER_BOUND=    7.171  UPPER_BOUND=   10.114
INTER + INTRA:          -5.412
INTER:                  -5.412
INTRA:                   0.000
UNBOUND:                 0.000

$$$$

     RDKit          3D

 57 59  0  0  0  0  0  0  0  0999 V2000
   43.3079    3.3865   12.2235 C   0  0  0  0  0  0  0  0  0  0  0  0
   44.8074    3.2427   12.4301 C   0  0  0  0  0  0  0  0  0  0  0  0
   45.4570    4.5838   12.7745 C   0  0  0  0  0  0  0  0  0  0  0  0
   46.9654    4.4311   12.9811 C   0  0  0  0  0  0  0  0  0  0  0  0
   47.6507    5.7207   13.4423 C   0  0  0  0  0  0  0  0  0  0  0  0
   47.6170    6.8345   12.3919 C   0  0  0  0  0  0  0  0  0  0  0  0
   47.7266    9.1094   13.4437 C   0  0  0  0  0  0  0  0  0  0  0  0
   48.4121   10.2473   13.8739 C   0  0  0  0  0  0  0  0  0  0  0  0
   50.4886    9.2857   13.1077 C   0  0  0  0  0  0  0  0  0  0  0  0
   48.4096    8.0427   12.8329 C   0  0  0  0  0  0  0  0  0  0  0  0
   49.7867   10.3277   13.7008 C   0  0  0  0  0  0  0  0  0  0  0  0
   49.8000    8.1491   12.6823 C   0  0  0  0  0  0  0  0  0  0  0  0
   50.4185   11.4562   14.1332 O   0  0  0  0  0  0  0  0  0  0  0  0
   50.5689    7.1678   12.1218 O   0  0  0  0  0  0  0  0  0  0  0  0
   44.3282    4.3959   12.4430 C   0  0  0  0  0  0  0  0  0  0  0  0
   50.3129    8.4222   13.8770 C   0  0  0  0  0  0  0  0  0  0  0  0
   44.3231    5.0098   11.2008 C   0  0  0  0  0  0  0  0  0  0  0  0
   50.1614    8.9382   12.6001 C   0  0  0  0  0  0  0  0  0  0  0  0
   45.3540    4.6807   13.3442 C   0  0  0  0  0  0  0  0  0  0  0  0
   49.4403    7.4296   14.3234 C   0  0  0  0  0  0  0  0  0  0  0  0
   45.3371    5.9121   10.8768 C   0  0  0  0  0  0  0  0  0  0  0  0
   49.1313    8.4652   11.7863 C   0  0  0  0  0  0  0  0  0  0  0  0
   46.3987    5.5853   13.0190 C   0  0  0  0  0  0  0  0  0  0  0  0
   48.3983    6.9306   13.4982 C   0  0  0  0  0  0  0  0  0  0  0  0
   46.3643    6.2167   11.7607 C   0  0  0  0  0  0  0  0  0  0  0  0
   48.2462    7.4830   12.2117 C   0  0  0  0  0  0  0  0  0  0  0  0
   47.4921    5.8997   13.8737 C   0  0  0  0  0  0  0  0  0  0  0  0
   47.5662    5.3258   15.1755 N   0  0  0  0  0  0  0  0  0  0  0  0
   47.2757    7.1145   11.3665 N   0  0  0  0  0  0  0  0  0  0  0  0
   42.8644    2.4165   11.9786 H   0  0  0  0  0  0  0  0  0  0  0  0
   42.8216    3.7636   13.1289 H   0  0  0  0  0  0  0  0  0  0  0  0
   43.0893    4.0770   11.4026 H   0  0  0  0  0  0  0  0  0  0  0  0
   45.2587    2.8339   11.5185 H   0  0  0  0  0  0  0  0  0  0  0  0
   44.9911    2.5215   13.2351 H   0  0  0  0  0  0  0  0  0  0  0  0
   45.2582    5.2952   11.9653 H   0  0  0  0  0  0  0  0  0  0  0  0
   45.0000    4.9900   13.6848 H   0  0  0  0  0  0  0  0  0  0  0  0
   47.1459    3.6593   13.7398 H   0  0  0  0  0  0  0  0  0  0  0  0
   47.4331    4.0775   12.0543 H   0  0  0  0  0  0  0  0  0  0  0  0
   47.1867    6.0711   14.3731 H   0  0  0  0  0  0  0  0  0  0  0  0
   48.6920    5.4798   13.6913 H   0  0  0  0  0  0  0  0  0  0  0  0
   46.5814    7.1393   12.1983 H   0  0  0  0  0  0  0  0  0  0  0  0
   47.9968    6.4738   11.4285 H   0  0  0  0  0  0  0  0  0  0  0  0
   46.6493    9.0620   13.5892 H   0  0  0  0  0  0  0  0  0  0  0  0
   47.8742   11.0669   14.3418 H   0  0  0  0  0  0  0  0  0  0  0  0
   51.5638    9.3346   12.9714 H   0  0  0  0  0  0  0  0  0  0  0  0
   51.3667   11.3679   13.9404 H   0  0  0  0  0  0  0  0  0  0  0  0
   50.0171    6.3951   11.9286 H   0  0  0  0  0  0  0  0  0  0  0  0
   43.5376    3.7017   12.7151 H   0  0  0  0  0  0  0  0  0  0  0  0
   51.1017    8.7904   14.5277 H   0  0  0  0  0  0  0  0  0  0  0  0
   43.5322    4.8009   10.4858 H   0  0  0  0  0  0  0  0  0  0  0  0
   50.8310    9.7121   12.2352 H   0  0  0  0  0  0  0  0  0  0  0  0
   45.3194    4.1981   14.3166 H   0  0  0  0  0  0  0  0  0  0  0  0
   49.5732    7.0594   15.3356 H   0  0  0  0  0  0  0  0  0  0  0  0
   45.3218    6.4015    9.9052 H   0  0  0  0  0  0  0  0  0  0  0  0
   49.0084    8.8825   10.7890 H   0  0  0  0  0  0  0  0  0  0  0  0
   48.5106    5.3075   15.5449 H   0  0  0  0  0  0  0  0  0  0  0  0
   47.1588    4.3982   15.2210 H   0  0  0  0  0  0  0  0  0  0  0  0
  2  1  1  0
  3  2  1  0
  4  3  1  0
  5  4  1  0
  6  5  1  0
  8  7  2  0
 10  6  1  0
 10  7  1  0
 11  8  1  0
 11  9  2  0
 12  9  1  0
 12 10  2  0
 13 11  1  0
 14 12  1  0
 17 15  2  0
 18 16  1  0
 19 15  1  0
 20 16  2  0
 21 17  1  0
 22 18  2  0
 23 19  2  0
 24 20  1  0
 25 21  2  0
 25 23  1  0
 26 22  1  0
 26 24  1  0
 27 23  1  0
 27 24  2  0
 28 27  1  0
 29 25  1  0
 29 26  2  0
  1 30  1  0
  1 31  1  0
  1 32  1  0
  2 33  1  0
  2 34  1  0
  3 35  1  0
  3 36  1  0
  4 37  1  0
  4 38  1  0
  5 39  1  0
  5 40  1  0
  6 41  1  0
  6 42  1  0
  7 43  1  0
  8 44  1  0
  9 45  1  0
 13 46  1  0
 14 47  1  0
 15 48  1  0
 16 49  1  0
 17 50  1  0
 18 51  1  0
 19 52  1  0
 20 53  1  0
 21 54  1  0
 22 55  1  0
 28 56  1  0
 28 57  1  0
M  END
> <Uni-Dock RESULT> 
ENERGY=   -5.376  LOWER_BOUND=    2.812  UPPER_BOUND=    6.245
INTER + INTRA:          -5.376
INTER:                  -5.376
INTRA:                   0.000
UNBOUND:                 0.000

$$$$

     RDKit          3D

 57 59  0  0  0  0  0  0  0  0999 V2000
   49.3524    7.1606   13.0091 C   0  0  0  0  0  0  0  0  0  0  0  0
   47.9012    7.2274   13.4581 C   0  0  0  0  0  0  0  0  0  0  0  0
   47.0413    8.0058   12.4613 C   0  0  0  0  0  0  0  0  0  0  0  0
   45.5827    8.0685   12.9196 C   0  0  0  0  0  0  0  0  0  0  0  0
   44.6528    8.7362   11.9024 C   0  0  0  0  0  0  0  0  0  0  0  0
   44.9511   10.2235   11.6929 C   0  0  0  0  0  0  0  0  0  0  0  0
   44.2447   11.0027    9.4154 C   0  0  0  0  0  0  0  0  0  0  0  0
   43.3407   11.5919    8.5290 C   0  0  0  0  0  0  0  0  0  0  0  0
   41.7856   11.9333   10.3425 C   0  0  0  0  0  0  0  0  0  0  0  0
   43.9369   10.8739   10.7814 C   0  0  0  0  0  0  0  0  0  0  0  0
   42.1198   12.0544    8.9994 C   0  0  0  0  0  0  0  0  0  0  0  0
   42.6906   11.3408   11.2240 C   0  0  0  0  0  0  0  0  0  0  0  0
   41.2657   12.6247    8.1022 O   0  0  0  0  0  0  0  0  0  0  0  0
   42.2765   11.2505   12.5235 O   0  0  0  0  0  0  0  0  0  0  0  0
   48.2264    7.8851   12.4475 C   0  0  0  0  0  0  0  0  0  0  0  0
   41.7577   10.7707   10.4691 C   0  0  0  0  0  0  0  0  0  0  0  0
   48.6170    9.1839   12.7313 C   0  0  0  0  0  0  0  0  0  0  0  0
   42.3063   11.9990   10.8008 C   0  0  0  0  0  0  0  0  0  0  0  0
   46.9222    7.6398   12.0181 C   0  0  0  0  0  0  0  0  0  0  0  0
   42.5055    9.6099   10.6674 C   0  0  0  0  0  0  0  0  0  0  0  0
   47.7030   10.2261   12.5710 C   0  0  0  0  0  0  0  0  0  0  0  0
   43.6018   12.0557   11.3162 C   0  0  0  0  0  0  0  0  0  0  0  0
   45.9800    8.6908   11.8662 C   0  0  0  0  0  0  0  0  0  0  0  0
   43.8186    9.6549   11.2052 C   0  0  0  0  0  0  0  0  0  0  0  0
   46.4018   10.0067   12.1376 C   0  0  0  0  0  0  0  0  0  0  0  0
   44.3676   10.9142   11.5154 C   0  0  0  0  0  0  0  0  0  0  0  0
   44.6269    8.5126   11.4635 C   0  0  0  0  0  0  0  0  0  0  0  0
   44.1469    7.2119   11.1360 N   0  0  0  0  0  0  0  0  0  0  0  0
   45.6087   11.0752   11.9906 N   0  0  0  0  0  0  0  0  0  0  0  0
   49.9485    6.6000   13.7358 H   0  0  0  0  0  0  0  0  0  0  0  0
   49.4403    6.6604   12.0393 H   0  0  0  0  0  0  0  0  0  0  0  0
   49.7818    8.1636   12.9189 H   0  0  0  0  0  0  0  0  0  0  0  0
   47.8512    7.7038   14.4441 H   0  0  0  0  0  0  0  0  0  0  0  0
   47.5129    6.2083   13.5696 H   0  0  0  0  0  0  0  0  0  0  0  0
   47.4460    9.0184   12.3549 H   0  0  0  0  0  0  0  0  0  0  0  0
   47.0973    7.5274   11.4762 H   0  0  0  0  0  0  0  0  0  0  0  0
   45.2191    7.0483   13.0953 H   0  0  0  0  0  0  0  0  0  0  0  0
   45.5174    8.5959   13.8790 H   0  0  0  0  0  0  0  0  0  0  0  0
   44.7135    8.2047   10.9442 H   0  0  0  0  0  0  0  0  0  0  0  0
   43.6211    8.6131   12.2558 H   0  0  0  0  0  0  0  0  0  0  0  0
   45.9512   10.3506   11.2610 H   0  0  0  0  0  0  0  0  0  0  0  0
   44.9812   10.7543   12.6521 H   0  0  0  0  0  0  0  0  0  0  0  0
   45.1965   10.6436    9.0293 H   0  0  0  0  0  0  0  0  0  0  0  0
   43.5899   11.6891    7.4762 H   0  0  0  0  0  0  0  0  0  0  0  0
   40.8323   12.2864   10.7213 H   0  0  0  0  0  0  0  0  0  0  0  0
   40.4642   12.9009    8.5769 H   0  0  0  0  0  0  0  0  0  0  0  0
   42.9348   10.7615   13.0396 H   0  0  0  0  0  0  0  0  0  0  0  0
   48.9311    7.0647   12.5540 H   0  0  0  0  0  0  0  0  0  0  0  0
   40.7552   10.7116   10.0537 H   0  0  0  0  0  0  0  0  0  0  0  0
   49.6287    9.3947   13.0666 H   0  0  0  0  0  0  0  0  0  0  0  0
   41.7394   12.9140   10.6529 H   0  0  0  0  0  0  0  0  0  0  0  0
   46.6525    6.6138   11.7854 H   0  0  0  0  0  0  0  0  0  0  0  0
   42.0549    8.6646   10.3797 H   0  0  0  0  0  0  0  0  0  0  0  0
   48.0180   11.2458   12.7827 H   0  0  0  0  0  0  0  0  0  0  0  0
   44.0331   13.0236   11.5631 H   0  0  0  0  0  0  0  0  0  0  0  0
   43.1396    7.1301   11.2226 H   0  0  0  0  0  0  0  0  0  0  0  0
   44.6008    6.4784   11.6694 H   0  0  0  0  0  0  0  0  0  0  0  0
  2  1  1  0
  3  2  1  0
  4  3  1  0
  5  4  1  0
  6  5  1  0
  8  7  2  0
 10  6  1  0
 10  7  1  0
 11  8  1  0
 11  9  2  0
 12  9  1  0
 12 10  2  0
 13 11  1  0
 14 12  1  0
 17 15  2  0
 18 16  1  0
 19 15  1  0
 20 16  2  0
 21 17  1  0
 22 18  2  0
 23 19  2  0
 24 20  1  0
 25 21  2  0
 25 23  1  0
 26 22  1  0
 26 24  1  0
 27 23  1  0
 27 24  2  0
 28 27  1  0
 29 25  1  0
 29 26  2  0
  1 30  1  0
  1 31  1  0
  1 32  1  0
  2 33  1  0
  2 34  1  0
  3 35  1  0
  3 36  1  0
  4 37  1  0
  4 38  1  0
  5 39  1  0
  5 40  1  0
  6 41  1  0
  6 42  1  0
  7 43  1  0
  8 44  1  0
  9 45  1  0
 13 46  1  0
 14 47  1  0
 15 48  1  0
 16 49  1  0
 17 50  1  0
 18 51  1  0
 19 52  1  0
 20 53  1  0
 21 54  1  0
 22 55  1  0
 28 56  1  0
 28 57  1  0
M  END
> <Uni-Dock RESULT> 
ENERGY=   -5.353  LOWER_BOUND=    3.668  UPPER_BOUND=    5.687
INTER + INTRA:          -5.353
INTER:                  -5.353
INTRA:                   0.000
UNBOUND:                 0.000

$$$$

     RDKit          3D

 57 59  0  0  0  0  0  0  0  0999 V2000
   46.4107   12.0544   20.3260 C   0  0  0  0  0  0  0  0  0  0  0  0
   47.7293   11.5285   19.7814 C   0  0  0  0  0  0  0  0  0  0  0  0
   47.5973   10.0865   19.2894 C   0  0  0  0  0  0  0  0  0  0  0  0
   48.9277    9.5644   18.7427 C   0  0  0  0  0  0  0  0  0  0  0  0
   48.8270    8.1649   18.1290 C   0  0  0  0  0  0  0  0  0  0  0  0
   48.4913    7.0765   19.1527 C   0  0  0  0  0  0  0  0  0  0  0  0
   47.3178    5.1301   18.0907 C   0  0  0  0  0  0  0  0  0  0  0  0
   47.2939    3.8613   17.5080 C   0  0  0  0  0  0  0  0  0  0  0  0
   49.6854    3.6908   17.7824 C   0  0  0  0  0  0  0  0  0  0  0  0
   48.5250    5.6984   18.5345 C   0  0  0  0  0  0  0  0  0  0  0  0
   48.4768    3.1509   17.3603 C   0  0  0  0  0  0  0  0  0  0  0  0
   49.7049    4.9603   18.3611 C   0  0  0  0  0  0  0  0  0  0  0  0
   48.4106    1.9149   16.7879 O   0  0  0  0  0  0  0  0  0  0  0  0
   50.9366    5.4198   18.7358 O   0  0  0  0  0  0  0  0  0  0  0  0
   46.7776   10.7249   19.8722 C   0  0  0  0  0  0  0  0  0  0  0  0
   49.7806    4.6205   17.0790 C   0  0  0  0  0  0  0  0  0  0  0  0
   46.7373   10.0449   21.0788 C   0  0  0  0  0  0  0  0  0  0  0  0
   49.6665    4.0893   18.3536 C   0  0  0  0  0  0  0  0  0  0  0  0
   47.3491   10.1107   18.7579 C   0  0  0  0  0  0  0  0  0  0  0  0
   49.3996    5.9429   16.8507 C   0  0  0  0  0  0  0  0  0  0  0  0
   47.2576    8.7524   21.1561 C   0  0  0  0  0  0  0  0  0  0  0  0
   49.1612    4.8819   19.3850 C   0  0  0  0  0  0  0  0  0  0  0  0
   47.8950    8.8022   18.8293 C   0  0  0  0  0  0  0  0  0  0  0  0
   48.8984    6.7625   17.8960 C   0  0  0  0  0  0  0  0  0  0  0  0
   47.8246    8.1181   20.0582 C   0  0  0  0  0  0  0  0  0  0  0  0
   48.7688    6.1984   19.1798 C   0  0  0  0  0  0  0  0  0  0  0  0
   48.5204    8.1260   17.7446 C   0  0  0  0  0  0  0  0  0  0  0  0
   48.5897    8.7461   16.4639 N   0  0  0  0  0  0  0  0  0  0  0  0
   48.2727    6.8680   20.2274 N   0  0  0  0  0  0  0  0  0  0  0  0
   46.5280   13.0861   20.6718 H   0  0  0  0  0  0  0  0  0  0  0  0
   45.6343   12.0409   19.5543 H   0  0  0  0  0  0  0  0  0  0  0  0
   46.0661   11.4499   21.1711 H   0  0  0  0  0  0  0  0  0  0  0  0
   48.4914   11.5851   20.5674 H   0  0  0  0  0  0  0  0  0  0  0  0
   48.0612   12.1741   18.9599 H   0  0  0  0  0  0  0  0  0  0  0  0
   47.2578    9.4558   20.1184 H   0  0  0  0  0  0  0  0  0  0  0  0
   46.8317   10.0345   18.5059 H   0  0  0  0  0  0  0  0  0  0  0  0
   49.2897   10.2511   17.9674 H   0  0  0  0  0  0  0  0  0  0  0  0
   49.6814    9.5631   19.5394 H   0  0  0  0  0  0  0  0  0  0  0  0
   48.0771    8.1678   17.3277 H   0  0  0  0  0  0  0  0  0  0  0  0
   49.7870    7.9363   17.6490 H   0  0  0  0  0  0  0  0  0  0  0  0
   47.4953    7.2521   19.5772 H   0  0  0  0  0  0  0  0  0  0  0  0
   49.1798    7.1170   20.0052 H   0  0  0  0  0  0  0  0  0  0  0  0
   46.3814    5.6742   18.1968 H   0  0  0  0  0  0  0  0  0  0  0  0
   46.3552    3.4305   17.1714 H   0  0  0  0  0  0  0  0  0  0  0  0
   50.6173    3.1472   17.6679 H   0  0  0  0  0  0  0  0  0  0  0  0
   49.3081    1.5439   16.7584 H   0  0  0  0  0  0  0  0  0  0  0  0
   50.8584    6.3313   19.0550 H   0  0  0  0  0  0  0  0  0  0  0  0
   46.3636   11.7266   19.7929 H   0  0  0  0  0  0  0  0  0  0  0  0
   50.1592    4.0113   16.2625 H   0  0  0  0  0  0  0  0  0  0  0  0
   46.2958   10.5067   21.9576 H   0  0  0  0  0  0  0  0  0  0  0  0
   49.9577    3.0613   18.5505 H   0  0  0  0  0  0  0  0  0  0  0  0
   47.3482   10.6622   17.8223 H   0  0  0  0  0  0  0  0  0  0  0  0
   49.4830    6.3238   15.8372 H   0  0  0  0  0  0  0  0  0  0  0  0
   47.2121    8.2174   22.1024 H   0  0  0  0  0  0  0  0  0  0  0  0
   49.0615    4.4564   20.3813 H   0  0  0  0  0  0  0  0  0  0  0  0
   49.3386    8.3777   15.8876 H   0  0  0  0  0  0  0  0  0  0  0  0
   48.6602    9.7564   16.5185 H   0  0  0  0  0  0  0  0  0  0  0  0
  2  1  1  0
  3  2  1  0
  4  3  1  0
  5  4  1  0
  6  5  1  0
  8  7  2  0
 10  6  1  0
 10  7  1  0
 11  8  1  0
 11  9  2  0
 12  9  1  0
 12 10  2  0
 13 11  1  0
 14 12  1  0
 17 15  2  0
 18 16  1  0
 19 15  1  0
 20 16  2  0
 21 17  1  0
 22 18  2  0
 23 19  2  0
 24 20  1  0
 25 21  2  0
 25 23  1  0
 26 22  1  0
 26 24  1  0
 27 23  1  0
 27 24  2  0
 28 27  1  0
 29 25  1  0
 29 26  2  0
  1 30  1  0
  1 31  1  0
  1 32  1  0
  2 33  1  0
  2 34  1  0
  3 35  1  0
  3 36  1  0
  4 37  1  0
  4 38  1  0
  5 39  1  0
  5 40  1  0
  6 41  1  0
  6 42  1  0
  7 43  1  0
  8 44  1  0
  9 45  1  0
 13 46  1  0
 14 47  1  0
 15 48  1  0
 16 49  1  0
 17 50  1  0
 18 51  1  0
 19 52  1  0
 20 53  1  0
 21 54  1  0
 22 55  1  0
 28 56  1  0
 28 57  1  0
M  END
> <Uni-Dock RESULT> 
ENERGY=   -5.264  LOWER_BOUND=    6.358  UPPER_BOUND=    7.756
INTER + INTRA:          -5.264
INTER:                  -5.264
INTRA:                   0.000
UNBOUND:                 0.000

$$$$
