
     RDKit          3D

 57 59  0  0  0  0  0  0  0  0999 V2000
   48.7025   10.7088   13.9991 C   0  0  0  0  0  0  0  0  0  0  0  0
   49.2362    9.8588   12.8564 C   0  0  0  0  0  0  0  0  0  0  0  0
   48.6272    8.4561   12.8019 C   0  0  0  0  0  0  0  0  0  0  0  0
   47.1297    8.4571   12.4867 C   0  0  0  0  0  0  0  0  0  0  0  0
   46.5937    7.0311   12.3387 C   0  0  0  0  0  0  0  0  0  0  0  0
   45.0947    7.0316   12.0290 C   0  0  0  0  0  0  0  0  0  0  0  0
   43.9245    5.0305   12.9853 C   0  0  0  0  0  0  0  0  0  0  0  0
   43.4097    3.7351   12.9023 C   0  0  0  0  0  0  0  0  0  0  0  0
   44.1404    3.5928   10.6067 C   0  0  0  0  0  0  0  0  0  0  0  0
   44.5510    5.6311   11.8790 C   0  0  0  0  0  0  0  0  0  0  0  0
   43.5199    3.0271   11.7137 C   0  0  0  0  0  0  0  0  0  0  0  0
   44.6557    4.8865   10.6953 C   0  0  0  0  0  0  0  0  0  0  0  0
   43.0036    1.7657   11.6731 O   0  0  0  0  0  0  0  0  0  0  0  0
   45.2585    5.3607    9.5639 O   0  0  0  0  0  0  0  0  0  0  0  0
   47.9747    9.9417   13.2583 C   0  0  0  0  0  0  0  0  0  0  0  0
   44.0239    4.0887   11.2045 C   0  0  0  0  0  0  0  0  0  0  0  0
   48.7132    9.0595   14.0303 C   0  0  0  0  0  0  0  0  0  0  0  0
   44.8587    3.3494   12.0267 C   0  0  0  0  0  0  0  0  0  0  0  0
   46.8782    9.4692   12.5370 C   0  0  0  0  0  0  0  0  0  0  0  0
   44.1806    5.4730   11.1347 C   0  0  0  0  0  0  0  0  0  0  0  0
   48.3553    7.7111   14.0641 C   0  0  0  0  0  0  0  0  0  0  0  0
   45.8503    4.0001   12.7619 C   0  0  0  0  0  0  0  0  0  0  0  0
   46.4963    8.1024   12.5762 C   0  0  0  0  0  0  0  0  0  0  0  0
   45.1762    6.1468   11.8899 C   0  0  0  0  0  0  0  0  0  0  0  0
   47.2722    7.2168   13.3486 C   0  0  0  0  0  0  0  0  0  0  0  0
   46.0298    5.3762   12.7028 C   0  0  0  0  0  0  0  0  0  0  0  0
   45.3738    7.5560   11.8932 C   0  0  0  0  0  0  0  0  0  0  0  0
   44.5705    8.3896   11.0631 N   0  0  0  0  0  0  0  0  0  0  0  0
   47.0254    5.9033   13.4259 N   0  0  0  0  0  0  0  0  0  0  0  0
   48.8301   10.2005   14.9601 H   0  0  0  0  0  0  0  0  0  0  0  0
   47.6414   10.9390   13.8667 H   0  0  0  0  0  0  0  0  0  0  0  0
   49.2439   11.6593   14.0443 H   0  0  0  0  0  0  0  0  0  0  0  0
   50.3221    9.7611   12.9734 H   0  0  0  0  0  0  0  0  0  0  0  0
   49.0657   10.3771   11.9057 H   0  0  0  0  0  0  0  0  0  0  0  0
   49.1558    7.8835   12.0296 H   0  0  0  0  0  0  0  0  0  0  0  0
   48.8049    7.9409   13.7538 H   0  0  0  0  0  0  0  0  0  0  0  0
   46.9495    9.0143   11.5595 H   0  0  0  0  0  0  0  0  0  0  0  0
   46.5784    8.9659   13.2853 H   0  0  0  0  0  0  0  0  0  0  0  0
   46.7806    6.4712   13.2640 H   0  0  0  0  0  0  0  0  0  0  0  0
   47.1439    6.5146   11.5425 H   0  0  0  0  0  0  0  0  0  0  0  0
   44.8845    7.6097   11.1209 H   0  0  0  0  0  0  0  0  0  0  0  0
   44.5538    7.5504   12.8313 H   0  0  0  0  0  0  0  0  0  0  0  0
   43.8318    5.5701   13.9257 H   0  0  0  0  0  0  0  0  0  0  0  0
   42.9255    3.2815   13.7623 H   0  0  0  0  0  0  0  0  0  0  0  0
   44.2364    3.0479    9.6736 H   0  0  0  0  0  0  0  0  0  0  0  0
   43.1530    1.4033   10.7841 H   0  0  0  0  0  0  0  0  0  0  0  0
   45.6351    6.2358    9.7404 H   0  0  0  0  0  0  0  0  0  0  0  0
   48.2496   10.9920   13.2108 H   0  0  0  0  0  0  0  0  0  0  0  0
   43.2561    3.5944   10.6150 H   0  0  0  0  0  0  0  0  0  0  0  0
   49.5707    9.4088   14.5987 H   0  0  0  0  0  0  0  0  0  0  0  0
   44.7520    2.2702   12.0938 H   0  0  0  0  0  0  0  0  0  0  0  0
   46.3315   10.1818   11.9264 H   0  0  0  0  0  0  0  0  0  0  0  0
   43.5234    6.0219   10.4666 H   0  0  0  0  0  0  0  0  0  0  0  0
   48.9457    7.0198   14.6617 H   0  0  0  0  0  0  0  0  0  0  0  0
   46.5117    3.4140   13.3963 H   0  0  0  0  0  0  0  0  0  0  0  0
   43.6332    8.0259   10.9286 H   0  0  0  0  0  0  0  0  0  0  0  0
   44.5255    9.3478   11.3926 H   0  0  0  0  0  0  0  0  0  0  0  0
  2  1  1  0
  3  2  1  0
  4  3  1  0
  5  4  1  0
  6  5  1  0
  8  7  2  0
 10  6  1  0
 10  7  1  0
 11  8  1  0
 11  9  2  0
 12  9  1  0
 12 10  2  0
 13 11  1  0
 14 12  1  0
 17 15  2  0
 18 16  1  0
 19 15  1  0
 20 16  2  0
 21 17  1  0
 22 18  2  0
 23 19  2  0
 24 20  1  0
 25 21  2  0
 25 23  1  0
 26 22  1  0
 26 24  1  0
 27 23  1  0
 27 24  2  0
 28 27  1  0
 29 25  1  0
 29 26  2  0
  1 30  1  0
  1 31  1  0
  1 32  1  0
  2 33  1  0
  2 34  1  0
  3 35  1  0
  3 36  1  0
  4 37  1  0
  4 38  1  0
  5 39  1  0
  5 40  1  0
  6 41  1  0
  6 42  1  0
  7 43  1  0
  8 44  1  0
  9 45  1  0
 13 46  1  0
 14 47  1  0
 15 48  1  0
 16 49  1  0
 17 50  1  0
 18 51  1  0
 19 52  1  0
 20 53  1  0
 21 54  1  0
 22 55  1  0
 28 56  1  0
 28 57  1  0
M  END
> <Uni-Dock RESULT> 
ENERGY=   -6.916  LOWER_BOUND=    0.000  UPPER_BOUND=    0.000
INTER + INTRA:          -6.916
INTER:                  -6.916
INTRA:                   0.000
UNBOUND:                 0.000

$$$$

     RDKit          3D

 57 59  0  0  0  0  0  0  0  0999 V2000
   48.2512    2.3615    5.4060 C   0  0  0  0  0  0  0  0  0  0  0  0
   46.7478    2.4966    5.2203 C   0  0  0  0  0  0  0  0  0  0  0  0
   45.9610    2.4223    6.5305 C   0  0  0  0  0  0  0  0  0  0  0  0
   46.2423    3.5939    7.4739 C   0  0  0  0  0  0  0  0  0  0  0  0
   45.3542    3.5284    8.7188 C   0  0  0  0  0  0  0  0  0  0  0  0
   45.6392    4.6972    9.6653 C   0  0  0  0  0  0  0  0  0  0  0  0
   45.2974    4.0786   12.0713 C   0  0  0  0  0  0  0  0  0  0  0  0
   44.5336    4.0018   13.2378 C   0  0  0  0  0  0  0  0  0  0  0  0
   42.6843    5.0496   12.0950 C   0  0  0  0  0  0  0  0  0  0  0  0
   44.7696    4.6471   10.8985 C   0  0  0  0  0  0  0  0  0  0  0  0
   43.2342    4.4893   13.2413 C   0  0  0  0  0  0  0  0  0  0  0  0
   43.4504    5.1216   10.9310 C   0  0  0  0  0  0  0  0  0  0  0  0
   42.5219    4.3968   14.4004 O   0  0  0  0  0  0  0  0  0  0  0  0
   42.8283    5.6772    9.8481 O   0  0  0  0  0  0  0  0  0  0  0  0
   47.4806    3.0578    6.1730 C   0  0  0  0  0  0  0  0  0  0  0  0
   43.4524    4.8934   12.0458 C   0  0  0  0  0  0  0  0  0  0  0  0
   47.1518    1.7451    6.4703 C   0  0  0  0  0  0  0  0  0  0  0  0
   43.2221    3.5359   12.1997 C   0  0  0  0  0  0  0  0  0  0  0  0
   47.0426    4.0813    7.0135 C   0  0  0  0  0  0  0  0  0  0  0  0
   44.2923    5.3347   11.0232 C   0  0  0  0  0  0  0  0  0  0  0  0
   46.3781    1.4696    7.5985 C   0  0  0  0  0  0  0  0  0  0  0  0
   43.8241    2.6335   11.3220 C   0  0  0  0  0  0  0  0  0  0  0  0
   46.2678    3.8109    8.1720 C   0  0  0  0  0  0  0  0  0  0  0  0
   44.9219    4.4242   10.1342 C   0  0  0  0  0  0  0  0  0  0  0  0
   45.9248    2.4728    8.4455 C   0  0  0  0  0  0  0  0  0  0  0  0
   44.6581    3.0501   10.2922 C   0  0  0  0  0  0  0  0  0  0  0  0
   45.8135    4.7985    9.0902 C   0  0  0  0  0  0  0  0  0  0  0  0
   46.0923    6.1749    8.8512 N   0  0  0  0  0  0  0  0  0  0  0  0
   45.1671    2.1092    9.4875 N   0  0  0  0  0  0  0  0  0  0  0  0
   48.4995    1.4435    5.9479 H   0  0  0  0  0  0  0  0  0  0  0  0
   48.6659    3.2115    5.9554 H   0  0  0  0  0  0  0  0  0  0  0  0
   48.7478    2.3240    4.4310 H   0  0  0  0  0  0  0  0  0  0  0  0
   46.4044    1.6885    4.5633 H   0  0  0  0  0  0  0  0  0  0  0  0
   46.5270    3.4387    4.7050 H   0  0  0  0  0  0  0  0  0  0  0  0
   44.8914    2.4071    6.2868 H   0  0  0  0  0  0  0  0  0  0  0  0
   46.1822    1.4760    7.0391 H   0  0  0  0  0  0  0  0  0  0  0  0
   46.0665    4.5400    6.9479 H   0  0  0  0  0  0  0  0  0  0  0  0
   47.2935    3.5831    7.7829 H   0  0  0  0  0  0  0  0  0  0  0  0
   45.5247    2.5785    9.2414 H   0  0  0  0  0  0  0  0  0  0  0  0
   44.2997    3.5358    8.4164 H   0  0  0  0  0  0  0  0  0  0  0  0
   45.5001    5.6568    9.1527 H   0  0  0  0  0  0  0  0  0  0  0  0
   46.6963    4.6807    9.9617 H   0  0  0  0  0  0  0  0  0  0  0  0
   46.3133    3.6890   12.0856 H   0  0  0  0  0  0  0  0  0  0  0  0
   44.9519    3.5629   14.1390 H   0  0  0  0  0  0  0  0  0  0  0  0
   41.6685    5.4302   12.0840 H   0  0  0  0  0  0  0  0  0  0  0  0
   41.6414    4.7782   14.2488 H   0  0  0  0  0  0  0  0  0  0  0  0
   43.4142    5.6285    9.0780 H   0  0  0  0  0  0  0  0  0  0  0  0
   48.0706    3.2893    5.2902 H   0  0  0  0  0  0  0  0  0  0  0  0
   42.9794    5.6094   12.7128 H   0  0  0  0  0  0  0  0  0  0  0  0
   47.4835    0.9344    5.8273 H   0  0  0  0  0  0  0  0  0  0  0  0
   42.5706    3.1733   12.9900 H   0  0  0  0  0  0  0  0  0  0  0  0
   47.3005    5.1010    6.7428 H   0  0  0  0  0  0  0  0  0  0  0  0
   44.4375    6.4057   10.9168 H   0  0  0  0  0  0  0  0  0  0  0  0
   46.1117    0.4385    7.8208 H   0  0  0  0  0  0  0  0  0  0  0  0
   43.6301    1.5694   11.4388 H   0  0  0  0  0  0  0  0  0  0  0  0
   46.0631    6.7354    9.6961 H   0  0  0  0  0  0  0  0  0  0  0  0
   46.9731    6.3208    8.3697 H   0  0  0  0  0  0  0  0  0  0  0  0
  2  1  1  0
  3  2  1  0
  4  3  1  0
  5  4  1  0
  6  5  1  0
  8  7  2  0
 10  6  1  0
 10  7  1  0
 11  8  1  0
 11  9  2  0
 12  9  1  0
 12 10  2  0
 13 11  1  0
 14 12  1  0
 17 15  2  0
 18 16  1  0
 19 15  1  0
 20 16  2  0
 21 17  1  0
 22 18  2  0
 23 19  2  0
 24 20  1  0
 25 21  2  0
 25 23  1  0
 26 22  1  0
 26 24  1  0
 27 23  1  0
 27 24  2  0
 28 27  1  0
 29 25  1  0
 29 26  2  0
  1 30  1  0
  1 31  1  0
  1 32  1  0
  2 33  1  0
  2 34  1  0
  3 35  1  0
  3 36  1  0
  4 37  1  0
  4 38  1  0
  5 39  1  0
  5 40  1  0
  6 41  1  0
  6 42  1  0
  7 43  1  0
  8 44  1  0
  9 45  1  0
 13 46  1  0
 14 47  1  0
 15 48  1  0
 16 49  1  0
 17 50  1  0
 18 51  1  0
 19 52  1  0
 20 53  1  0
 21 54  1  0
 22 55  1  0
 28 56  1  0
 28 57  1  0
M  END
> <Uni-Dock RESULT> 
ENERGY=   -6.404  LOWER_BOUND=    3.741  UPPER_BOUND=    5.895
INTER + INTRA:          -6.404
INTER:                  -6.404
INTRA:                   0.000
UNBOUND:                 0.000

$$$$

     RDKit          3D

 57 59  0  0  0  0  0  0  0  0999 V2000
   47.3565    4.3244   16.2058 C   0  0  0  0  0  0  0  0  0  0  0  0
   47.4734    3.7299   17.6007 C   0  0  0  0  0  0  0  0  0  0  0  0
   48.7464    2.9069   17.8096 C   0  0  0  0  0  0  0  0  0  0  0  0
   50.0265    3.7427   17.7432 C   0  0  0  0  0  0  0  0  0  0  0  0
   51.2595    2.8941   18.0634 C   0  0  0  0  0  0  0  0  0  0  0  0
   52.5407    3.7287   17.9916 C   0  0  0  0  0  0  0  0  0  0  0  0
   54.5151    2.3783   17.2388 C   0  0  0  0  0  0  0  0  0  0  0  0
   55.6538    1.6050   17.4743 C   0  0  0  0  0  0  0  0  0  0  0  0
   55.3275    1.8501   19.8528 C   0  0  0  0  0  0  0  0  0  0  0  0
   53.7664    2.9052   18.3061 C   0  0  0  0  0  0  0  0  0  0  0  0
   56.0521    1.3485   18.7787 C   0  0  0  0  0  0  0  0  0  0  0  0
   54.1888    2.6200   19.6126 C   0  0  0  0  0  0  0  0  0  0  0  0
   57.1699    0.5903   18.9663 O   0  0  0  0  0  0  0  0  0  0  0  0
   53.5305    3.0637   20.7253 O   0  0  0  0  0  0  0  0  0  0  0  0
   48.4471    4.2914   16.8961 C   0  0  0  0  0  0  0  0  0  0  0  0
   55.1026    2.1228   19.1514 C   0  0  0  0  0  0  0  0  0  0  0  0
   48.2370    2.9695   16.5380 C   0  0  0  0  0  0  0  0  0  0  0  0
   54.7301    0.8540   18.7382 C   0  0  0  0  0  0  0  0  0  0  0  0
   49.6848    4.6728   17.4142 C   0  0  0  0  0  0  0  0  0  0  0  0
   54.2290    3.1923   18.9541 C   0  0  0  0  0  0  0  0  0  0  0  0
   49.2626    2.0395   16.7127 C   0  0  0  0  0  0  0  0  0  0  0  0
   53.4824    0.6645   18.1427 C   0  0  0  0  0  0  0  0  0  0  0  0
   50.7399    3.7379   17.5819 C   0  0  0  0  0  0  0  0  0  0  0  0
   52.9637    3.0133   18.3355 C   0  0  0  0  0  0  0  0  0  0  0  0
   50.5003    2.3947   17.2333 C   0  0  0  0  0  0  0  0  0  0  0  0
   52.5933    1.7128   17.9425 C   0  0  0  0  0  0  0  0  0  0  0  0
   52.0359    4.0600   18.0736 C   0  0  0  0  0  0  0  0  0  0  0  0
   52.3318    5.3925   18.4814 N   0  0  0  0  0  0  0  0  0  0  0  0
   51.4102    1.4248   17.3863 N   0  0  0  0  0  0  0  0  0  0  0  0
   47.4378    3.5474   15.4391 H   0  0  0  0  0  0  0  0  0  0  0  0
   48.1313    5.0746   16.0228 H   0  0  0  0  0  0  0  0  0  0  0  0
   46.3856    4.8163   16.0877 H   0  0  0  0  0  0  0  0  0  0  0  0
   46.6077    3.0800   17.7755 H   0  0  0  0  0  0  0  0  0  0  0  0
   47.4217    4.5330   18.3451 H   0  0  0  0  0  0  0  0  0  0  0  0
   48.6840    2.4241   18.7929 H   0  0  0  0  0  0  0  0  0  0  0  0
   48.7904    2.1024   17.0653 H   0  0  0  0  0  0  0  0  0  0  0  0
   49.9597    4.5747   18.4546 H   0  0  0  0  0  0  0  0  0  0  0  0
   50.1401    4.1767   16.7436 H   0  0  0  0  0  0  0  0  0  0  0  0
   51.3224    2.0572   17.3561 H   0  0  0  0  0  0  0  0  0  0  0  0
   51.1509    2.4538   19.0622 H   0  0  0  0  0  0  0  0  0  0  0  0
   52.4859    4.5864   18.6729 H   0  0  0  0  0  0  0  0  0  0  0  0
   52.6398    4.1644   16.9887 H   0  0  0  0  0  0  0  0  0  0  0  0
   54.2157    2.5673   16.2099 H   0  0  0  0  0  0  0  0  0  0  0  0
   56.2263    1.2049   16.6424 H   0  0  0  0  0  0  0  0  0  0  0  0
   55.6264    1.6529   20.8768 H   0  0  0  0  0  0  0  0  0  0  0  0
   57.3215    0.5012   19.9218 H   0  0  0  0  0  0  0  0  0  0  0  0
   52.7263    3.5341   20.4595 H   0  0  0  0  0  0  0  0  0  0  0  0
   47.6534    5.0244   16.7791 H   0  0  0  0  0  0  0  0  0  0  0  0
   56.0653    2.2836   19.6296 H   0  0  0  0  0  0  0  0  0  0  0  0
   47.2795    2.6534   16.1332 H   0  0  0  0  0  0  0  0  0  0  0  0
   55.3969    0.0086   18.8838 H   0  0  0  0  0  0  0  0  0  0  0  0
   49.8117    5.7119   17.7033 H   0  0  0  0  0  0  0  0  0  0  0  0
   54.5421    4.1707   19.3062 H   0  0  0  0  0  0  0  0  0  0  0  0
   49.0887    1.0002   16.4420 H   0  0  0  0  0  0  0  0  0  0  0  0
   53.1890   -0.3357   17.8314 H   0  0  0  0  0  0  0  0  0  0  0  0
   53.3245    5.5999   18.4598 H   0  0  0  0  0  0  0  0  0  0  0  0
   51.8213    6.0897   17.9503 H   0  0  0  0  0  0  0  0  0  0  0  0
  2  1  1  0
  3  2  1  0
  4  3  1  0
  5  4  1  0
  6  5  1  0
  8  7  2  0
 10  6  1  0
 10  7  1  0
 11  8  1  0
 11  9  2  0
 12  9  1  0
 12 10  2  0
 13 11  1  0
 14 12  1  0
 17 15  2  0
 18 16  1  0
 19 15  1  0
 20 16  2  0
 21 17  1  0
 22 18  2  0
 23 19  2  0
 24 20  1  0
 25 21  2  0
 25 23  1  0
 26 22  1  0
 26 24  1  0
 27 23  1  0
 27 24  2  0
 28 27  1  0
 29 25  1  0
 29 26  2  0
  1 30  1  0
  1 31  1  0
  1 32  1  0
  2 33  1  0
  2 34  1  0
  3 35  1  0
  3 36  1  0
  4 37  1  0
  4 38  1  0
  5 39  1  0
  5 40  1  0
  6 41  1  0
  6 42  1  0
  7 43  1  0
  8 44  1  0
  9 45  1  0
 13 46  1  0
 14 47  1  0
 15 48  1  0
 16 49  1  0
 17 50  1  0
 18 51  1  0
 19 52  1  0
 20 53  1  0
 21 54  1  0
 22 55  1  0
 28 56  1  0
 28 57  1  0
M  END
> <Uni-Dock RESULT> 
ENERGY=   -6.260  LOWER_BOUND=    8.441  UPPER_BOUND=   10.612
INTER + INTRA:          -6.260
INTER:                  -6.260
INTRA:                   0.000
UNBOUND:                 0.000

$$$$

     RDKit          3D

 57 59  0  0  0  0  0  0  0  0999 V2000
   47.5009   12.8102   20.9406 C   0  0  0  0  0  0  0  0  0  0  0  0
   46.3634   12.1962   20.1392 C   0  0  0  0  0  0  0  0  0  0  0  0
   46.7932   11.0029   19.2832 C   0  0  0  0  0  0  0  0  0  0  0  0
   47.2490    9.7976   20.1086 C   0  0  0  0  0  0  0  0  0  0  0  0
   47.5655    8.5991   19.2108 C   0  0  0  0  0  0  0  0  0  0  0  0
   48.0268    7.3949   20.0357 C   0  0  0  0  0  0  0  0  0  0  0  0
   49.6803    5.9716   18.7994 C   0  0  0  0  0  0  0  0  0  0  0  0
   50.0258    4.8876   17.9897 C   0  0  0  0  0  0  0  0  0  0  0  0
   47.7049    4.2369   17.8718 C   0  0  0  0  0  0  0  0  0  0  0  0
   48.3421    6.2035   19.1636 C   0  0  0  0  0  0  0  0  0  0  0  0
   49.0362    4.0279   17.5338 C   0  0  0  0  0  0  0  0  0  0  0  0
   47.3642    5.3230   18.6789 C   0  0  0  0  0  0  0  0  0  0  0  0
   49.4148    2.9809   16.7465 O   0  0  0  0  0  0  0  0  0  0  0  0
   46.0321    5.4599   18.9532 O   0  0  0  0  0  0  0  0  0  0  0  0
   47.3135   11.5412   20.7934 C   0  0  0  0  0  0  0  0  0  0  0  0
   48.2143    4.6997   18.2502 C   0  0  0  0  0  0  0  0  0  0  0  0
   47.7353   11.9648   19.5435 C   0  0  0  0  0  0  0  0  0  0  0  0
   48.6142    5.2904   17.0625 C   0  0  0  0  0  0  0  0  0  0  0  0
   47.2843   10.1765   21.0809 C   0  0  0  0  0  0  0  0  0  0  0  0
   47.8993    5.5053   19.3446 C   0  0  0  0  0  0  0  0  0  0  0  0
   48.1123   11.0192   18.5890 C   0  0  0  0  0  0  0  0  0  0  0  0
   48.6834    6.6814   16.9766 C   0  0  0  0  0  0  0  0  0  0  0  0
   47.6801    9.2068   20.1225 C   0  0  0  0  0  0  0  0  0  0  0  0
   47.9810    6.9209   19.2727 C   0  0  0  0  0  0  0  0  0  0  0  0
   48.0844    9.6552   18.8503 C   0  0  0  0  0  0  0  0  0  0  0  0
   48.3677    7.5038   18.0506 C   0  0  0  0  0  0  0  0  0  0  0  0
   47.7061    7.8031   20.3549 C   0  0  0  0  0  0  0  0  0  0  0  0
   47.2720    7.2806   21.6070 N   0  0  0  0  0  0  0  0  0  0  0  0
   48.4405    8.8269   17.8607 N   0  0  0  0  0  0  0  0  0  0  0  0
   48.3349   13.0895   20.2890 H   0  0  0  0  0  0  0  0  0  0  0  0
   47.8729   12.1200   21.7033 H   0  0  0  0  0  0  0  0  0  0  0  0
   47.1542   13.7134   21.4528 H   0  0  0  0  0  0  0  0  0  0  0  0
   45.9489   12.9662   19.4775 H   0  0  0  0  0  0  0  0  0  0  0  0
   45.5579   11.8967   20.8198 H   0  0  0  0  0  0  0  0  0  0  0  0
   45.9425   10.7074   18.6567 H   0  0  0  0  0  0  0  0  0  0  0  0
   47.5958   11.3096   18.6015 H   0  0  0  0  0  0  0  0  0  0  0  0
   46.4635    9.5229   20.8229 H   0  0  0  0  0  0  0  0  0  0  0  0
   48.1417   10.0560   20.6891 H   0  0  0  0  0  0  0  0  0  0  0  0
   48.3465    8.8761   18.4911 H   0  0  0  0  0  0  0  0  0  0  0  0
   46.6764    8.3369   18.6242 H   0  0  0  0  0  0  0  0  0  0  0  0
   47.2698    7.1192   20.7799 H   0  0  0  0  0  0  0  0  0  0  0  0
   48.9164    7.6678   20.6185 H   0  0  0  0  0  0  0  0  0  0  0  0
   50.4685    6.6371   19.1457 H   0  0  0  0  0  0  0  0  0  0  0  0
   51.0630    4.7163   17.7164 H   0  0  0  0  0  0  0  0  0  0  0  0
   46.9220    3.5745   17.5182 H   0  0  0  0  0  0  0  0  0  0  0  0
   48.6206    2.4731   16.5115 H   0  0  0  0  0  0  0  0  0  0  0  0
   45.8887    6.2697   19.4654 H   0  0  0  0  0  0  0  0  0  0  0  0
   47.0034   12.2650   21.5423 H   0  0  0  0  0  0  0  0  0  0  0  0
   48.1419    3.6181   18.3281 H   0  0  0  0  0  0  0  0  0  0  0  0
   47.7644   13.0235   19.3009 H   0  0  0  0  0  0  0  0  0  0  0  0
   48.8631    4.6793   16.1992 H   0  0  0  0  0  0  0  0  0  0  0  0
   46.9307    9.8756   22.0626 H   0  0  0  0  0  0  0  0  0  0  0  0
   47.5709    5.0131   20.2552 H   0  0  0  0  0  0  0  0  0  0  0  0
   48.4307   11.3559   17.6048 H   0  0  0  0  0  0  0  0  0  0  0  0
   48.9856    7.1411   16.0380 H   0  0  0  0  0  0  0  0  0  0  0  0
   47.6585    6.3643   21.8069 H   0  0  0  0  0  0  0  0  0  0  0  0
   47.4552    7.9096   22.3814 H   0  0  0  0  0  0  0  0  0  0  0  0
  2  1  1  0
  3  2  1  0
  4  3  1  0
  5  4  1  0
  6  5  1  0
  8  7  2  0
 10  6  1  0
 10  7  1  0
 11  8  1  0
 11  9  2  0
 12  9  1  0
 12 10  2  0
 13 11  1  0
 14 12  1  0
 17 15  2  0
 18 16  1  0
 19 15  1  0
 20 16  2  0
 21 17  1  0
 22 18  2  0
 23 19  2  0
 24 20  1  0
 25 21  2  0
 25 23  1  0
 26 22  1  0
 26 24  1  0
 27 23  1  0
 27 24  2  0
 28 27  1  0
 29 25  1  0
 29 26  2  0
  1 30  1  0
  1 31  1  0
  1 32  1  0
  2 33  1  0
  2 34  1  0
  3 35  1  0
  3 36  1  0
  4 37  1  0
  4 38  1  0
  5 39  1  0
  5 40  1  0
  6 41  1  0
  6 42  1  0
  7 43  1  0
  8 44  1  0
  9 45  1  0
 13 46  1  0
 14 47  1  0
 15 48  1  0
 16 49  1  0
 17 50  1  0
 18 51  1  0
 19 52  1  0
 20 53  1  0
 21 54  1  0
 22 55  1  0
 28 56  1  0
 28 57  1  0
M  END
> <Uni-Dock RESULT> 
ENERGY=   -5.779  LOWER_BOUND=    6.165  UPPER_BOUND=    7.828
INTER + INTRA:          -5.779
INTER:                  -5.779
INTRA:                   0.000
UNBOUND:                 0.000

$$$$

     RDKit          3D

 57 59  0  0  0  0  0  0  0  0999 V2000
   48.2996    7.0612   13.2537 C   0  0  0  0  0  0  0  0  0  0  0  0
   47.4199    7.8812   14.1848 C   0  0  0  0  0  0  0  0  0  0  0  0
   46.6814    9.0217   13.4811 C   0  0  0  0  0  0  0  0  0  0  0  0
   45.6493    8.5369   12.4605 C   0  0  0  0  0  0  0  0  0  0  0  0
   44.8664    9.7094   11.8646 C   0  0  0  0  0  0  0  0  0  0  0  0
   43.8377    9.2254   10.8396 C   0  0  0  0  0  0  0  0  0  0  0  0
   43.4668   10.8925    9.0034 C   0  0  0  0  0  0  0  0  0  0  0  0
   42.7829   11.9558    8.4103 C   0  0  0  0  0  0  0  0  0  0  0  0
   41.2611   12.0199   10.2822 C   0  0  0  0  0  0  0  0  0  0  0  0
   43.0562   10.3712   10.2431 C   0  0  0  0  0  0  0  0  0  0  0  0
   41.6847   12.5099    9.0530 C   0  0  0  0  0  0  0  0  0  0  0  0
   41.9493   10.9590   10.8721 C   0  0  0  0  0  0  0  0  0  0  0  0
   41.0435   13.5458    8.4405 O   0  0  0  0  0  0  0  0  0  0  0  0
   41.4720   10.5473   12.0850 O   0  0  0  0  0  0  0  0  0  0  0  0
   47.1141    7.4788   12.9584 C   0  0  0  0  0  0  0  0  0  0  0  0
   41.8193   11.5906    9.9345 C   0  0  0  0  0  0  0  0  0  0  0  0
   47.8854    8.6298   12.9545 C   0  0  0  0  0  0  0  0  0  0  0  0
   42.7199   12.6412   10.0044 C   0  0  0  0  0  0  0  0  0  0  0  0
   45.8327    7.5105   12.4080 C   0  0  0  0  0  0  0  0  0  0  0  0
   42.2176   10.3178   10.3434 C   0  0  0  0  0  0  0  0  0  0  0  0
   47.3633    9.8044   12.4113 C   0  0  0  0  0  0  0  0  0  0  0  0
   44.0062   12.4114   10.4940 C   0  0  0  0  0  0  0  0  0  0  0  0
   45.2976    8.6960   11.8392 C   0  0  0  0  0  0  0  0  0  0  0  0
   43.5285   10.0699   10.8288 C   0  0  0  0  0  0  0  0  0  0  0  0
   46.0877    9.8614   11.8645 C   0  0  0  0  0  0  0  0  0  0  0  0
   44.4227   11.1544   10.9136 C   0  0  0  0  0  0  0  0  0  0  0  0
   44.0139    8.7948   11.2331 C   0  0  0  0  0  0  0  0  0  0  0  0
   43.1487    7.6633   11.2095 N   0  0  0  0  0  0  0  0  0  0  0  0
   45.6680   11.0414   11.3916 N   0  0  0  0  0  0  0  0  0  0  0  0
   49.0082    7.7006   12.7179 H   0  0  0  0  0  0  0  0  0  0  0  0
   47.7039    6.5119   12.5190 H   0  0  0  0  0  0  0  0  0  0  0  0
   48.8735    6.3277   13.8291 H   0  0  0  0  0  0  0  0  0  0  0  0
   48.0516    8.3106   14.9716 H   0  0  0  0  0  0  0  0  0  0  0  0
   46.7000    7.2209   14.6822 H   0  0  0  0  0  0  0  0  0  0  0  0
   46.1744    9.6238   14.2453 H   0  0  0  0  0  0  0  0  0  0  0  0
   47.4067    9.6813   12.9894 H   0  0  0  0  0  0  0  0  0  0  0  0
   44.9539    7.8399   12.9435 H   0  0  0  0  0  0  0  0  0  0  0  0
   46.1484    7.9916   11.6518 H   0  0  0  0  0  0  0  0  0  0  0  0
   45.5629   10.4108   11.3876 H   0  0  0  0  0  0  0  0  0  0  0  0
   44.3664   10.2620   12.6696 H   0  0  0  0  0  0  0  0  0  0  0  0
   43.1480    8.5020   11.2912 H   0  0  0  0  0  0  0  0  0  0  0  0
   44.3481    8.6742   10.0388 H   0  0  0  0  0  0  0  0  0  0  0  0
   44.3272   10.4719    8.4868 H   0  0  0  0  0  0  0  0  0  0  0  0
   43.1070   12.3491    7.4512 H   0  0  0  0  0  0  0  0  0  0  0  0
   40.4068   12.4473   10.7963 H   0  0  0  0  0  0  0  0  0  0  0  0
   40.3020   13.8219    9.0042 H   0  0  0  0  0  0  0  0  0  0  0  0
   42.0466    9.8527   12.4400 H   0  0  0  0  0  0  0  0  0  0  0  0
   47.5015    6.5600   13.3905 H   0  0  0  0  0  0  0  0  0  0  0  0
   40.8095   11.7569    9.5686 H   0  0  0  0  0  0  0  0  0  0  0  0
   48.8855    8.6247   13.3790 H   0  0  0  0  0  0  0  0  0  0  0  0
   42.4279   13.6396    9.6908 H   0  0  0  0  0  0  0  0  0  0  0  0
   45.2460    6.5972   12.4436 H   0  0  0  0  0  0  0  0  0  0  0  0
   41.4828    9.5196   10.2944 H   0  0  0  0  0  0  0  0  0  0  0  0
   47.9678   10.7088   12.4220 H   0  0  0  0  0  0  0  0  0  0  0  0
   44.7059   13.2420   10.5591 H   0  0  0  0  0  0  0  0  0  0  0  0
   42.4553    7.7127   10.4708 H   0  0  0  0  0  0  0  0  0  0  0  0
   43.6513    6.7840   11.1537 H   0  0  0  0  0  0  0  0  0  0  0  0
  2  1  1  0
  3  2  1  0
  4  3  1  0
  5  4  1  0
  6  5  1  0
  8  7  2  0
 10  6  1  0
 10  7  1  0
 11  8  1  0
 11  9  2  0
 12  9  1  0
 12 10  2  0
 13 11  1  0
 14 12  1  0
 17 15  2  0
 18 16  1  0
 19 15  1  0
 20 16  2  0
 21 17  1  0
 22 18  2  0
 23 19  2  0
 24 20  1  0
 25 21  2  0
 25 23  1  0
 26 22  1  0
 26 24  1  0
 27 23  1  0
 27 24  2  0
 28 27  1  0
 29 25  1  0
 29 26  2  0
  1 30  1  0
  1 31  1  0
  1 32  1  0
  2 33  1  0
  2 34  1  0
  3 35  1  0
  3 36  1  0
  4 37  1  0
  4 38  1  0
  5 39  1  0
  5 40  1  0
  6 41  1  0
  6 42  1  0
  7 43  1  0
  8 44  1  0
  9 45  1  0
 13 46  1  0
 14 47  1  0
 15 48  1  0
 16 49  1  0
 17 50  1  0
 18 51  1  0
 19 52  1  0
 20 53  1  0
 21 54  1  0
 22 55  1  0
 28 56  1  0
 28 57  1  0
M  END
> <Uni-Dock RESULT> 
ENERGY=   -5.651  LOWER_BOUND=    4.088  UPPER_BOUND=    5.976
INTER + INTRA:          -5.651
INTER:                  -5.651
INTRA:                   0.000
UNBOUND:                 0.000

$$$$

     RDKit          3D

 57 59  0  0  0  0  0  0  0  0999 V2000
   48.1019    3.3611   18.2624 C   0  0  0  0  0  0  0  0  0  0  0  0
   49.3917    4.1298   18.5042 C   0  0  0  0  0  0  0  0  0  0  0  0
   49.2106    5.6491   18.4853 C   0  0  0  0  0  0  0  0  0  0  0  0
   48.3435    6.1706   19.6334 C   0  0  0  0  0  0  0  0  0  0  0  0
   48.2817    7.6999   19.6305 C   0  0  0  0  0  0  0  0  0  0  0  0
   47.4100    8.2217   20.7754 C   0  0  0  0  0  0  0  0  0  0  0  0
   46.2364   10.3567   20.1813 C   0  0  0  0  0  0  0  0  0  0  0  0
   46.1255   11.7485   20.1584 C   0  0  0  0  0  0  0  0  0  0  0  0
   48.2238   11.9343   21.3357 C   0  0  0  0  0  0  0  0  0  0  0  0
   47.3400    9.7299   20.7866 C   0  0  0  0  0  0  0  0  0  0  0  0
   47.1186   12.5262   20.7371 C   0  0  0  0  0  0  0  0  0  0  0  0
   48.3316   10.5432   21.3538 C   0  0  0  0  0  0  0  0  0  0  0  0
   46.9726   13.8814   20.6947 O   0  0  0  0  0  0  0  0  0  0  0  0
   49.4550   10.0457   21.9528 O   0  0  0  0  0  0  0  0  0  0  0  0
   48.1981    4.4085   19.0113 C   0  0  0  0  0  0  0  0  0  0  0  0
   47.6583   11.4316   21.1253 C   0  0  0  0  0  0  0  0  0  0  0  0
   48.3484    4.9012   17.7251 C   0  0  0  0  0  0  0  0  0  0  0  0
   47.8217   11.7529   19.7875 C   0  0  0  0  0  0  0  0  0  0  0  0
   47.9688    5.2958   20.0629 C   0  0  0  0  0  0  0  0  0  0  0  0
   47.6002   10.0910   21.5063 C   0  0  0  0  0  0  0  0  0  0  0  0
   48.2801    6.2775   17.5047 C   0  0  0  0  0  0  0  0  0  0  0  0
   47.9379   10.7304   18.8451 C   0  0  0  0  0  0  0  0  0  0  0  0
   47.8824    6.6964   19.8476 C   0  0  0  0  0  0  0  0  0  0  0  0
   47.7021    9.0430   20.5539 C   0  0  0  0  0  0  0  0  0  0  0  0
   48.0601    7.1803   18.5371 C   0  0  0  0  0  0  0  0  0  0  0  0
   47.8903    9.3888   19.2019 C   0  0  0  0  0  0  0  0  0  0  0  0
   47.6202    7.6567   20.8645 C   0  0  0  0  0  0  0  0  0  0  0  0
   47.4699    7.2378   22.2177 N   0  0  0  0  0  0  0  0  0  0  0  0
   48.0370    8.4825   18.2277 N   0  0  0  0  0  0  0  0  0  0  0  0
   47.6255    3.6763   17.3288 H   0  0  0  0  0  0  0  0  0  0  0  0
   47.3900    3.5039   19.0805 H   0  0  0  0  0  0  0  0  0  0  0  0
   48.3119    2.2891   18.1903 H   0  0  0  0  0  0  0  0  0  0  0  0
   50.1111    3.8566   17.7230 H   0  0  0  0  0  0  0  0  0  0  0  0
   49.8287    3.8177   19.4599 H   0  0  0  0  0  0  0  0  0  0  0  0
   50.2031    6.1126   18.5464 H   0  0  0  0  0  0  0  0  0  0  0  0
   48.7775    5.9558   17.5254 H   0  0  0  0  0  0  0  0  0  0  0  0
   48.7515    5.8223   20.5898 H   0  0  0  0  0  0  0  0  0  0  0  0
   47.3269    5.7709   19.5476 H   0  0  0  0  0  0  0  0  0  0  0  0
   47.8803    8.0490   18.6705 H   0  0  0  0  0  0  0  0  0  0  0  0
   49.2971    8.1070   19.7130 H   0  0  0  0  0  0  0  0  0  0  0  0
   47.7801    7.8610   21.7428 H   0  0  0  0  0  0  0  0  0  0  0  0
   46.3968    7.8088   20.6836 H   0  0  0  0  0  0  0  0  0  0  0  0
   45.4499    9.7624   19.7204 H   0  0  0  0  0  0  0  0  0  0  0  0
   45.2675   12.2224   19.6903 H   0  0  0  0  0  0  0  0  0  0  0  0
   49.0086   12.5315   21.7876 H   0  0  0  0  0  0  0  0  0  0  0  0
   47.7373   14.2847   21.1379 H   0  0  0  0  0  0  0  0  0  0  0  0
   49.4695    9.0811   21.8631 H   0  0  0  0  0  0  0  0  0  0  0  0
   48.2627    3.3403   19.2007 H   0  0  0  0  0  0  0  0  0  0  0  0
   47.5805   12.2169   21.8727 H   0  0  0  0  0  0  0  0  0  0  0  0
   48.5281    4.2256   16.8933 H   0  0  0  0  0  0  0  0  0  0  0  0
   47.8696   12.7914   19.4717 H   0  0  0  0  0  0  0  0  0  0  0  0
   47.8744    4.8802   21.0618 H   0  0  0  0  0  0  0  0  0  0  0  0
   47.4907    9.8718   22.5643 H   0  0  0  0  0  0  0  0  0  0  0  0
   48.4115    6.6607   16.4950 H   0  0  0  0  0  0  0  0  0  0  0  0
   48.0790   10.9874   17.7974 H   0  0  0  0  0  0  0  0  0  0  0  0
   46.9423    7.8982   22.7783 H   0  0  0  0  0  0  0  0  0  0  0  0
   47.0640    6.3120   22.3008 H   0  0  0  0  0  0  0  0  0  0  0  0
  2  1  1  0
  3  2  1  0
  4  3  1  0
  5  4  1  0
  6  5  1  0
  8  7  2  0
 10  6  1  0
 10  7  1  0
 11  8  1  0
 11  9  2  0
 12  9  1  0
 12 10  2  0
 13 11  1  0
 14 12  1  0
 17 15  2  0
 18 16  1  0
 19 15  1  0
 20 16  2  0
 21 17  1  0
 22 18  2  0
 23 19  2  0
 24 20  1  0
 25 21  2  0
 25 23  1  0
 26 22  1  0
 26 24  1  0
 27 23  1  0
 27 24  2  0
 28 27  1  0
 29 25  1  0
 29 26  2  0
  1 30  1  0
  1 31  1  0
  1 32  1  0
  2 33  1  0
  2 34  1  0
  3 35  1  0
  3 36  1  0
  4 37  1  0
  4 38  1  0
  5 39  1  0
  5 40  1  0
  6 41  1  0
  6 42  1  0
  7 43  1  0
  8 44  1  0
  9 45  1  0
 13 46  1  0
 14 47  1  0
 15 48  1  0
 16 49  1  0
 17 50  1  0
 18 51  1  0
 19 52  1  0
 20 53  1  0
 21 54  1  0
 22 55  1  0
 28 56  1  0
 28 57  1  0
M  END
> <Uni-Dock RESULT> 
ENERGY=   -5.651  LOWER_BOUND=    7.155  UPPER_BOUND=    9.955
INTER + INTRA:          -5.651
INTER:                  -5.651
INTRA:                   0.000
UNBOUND:                 0.000

$$$$

     RDKit          3D

 57 59  0  0  0  0  0  0  0  0999 V2000
   42.8856    4.4030   11.4789 C   0  0  0  0  0  0  0  0  0  0  0  0
   43.3055    4.4649   12.9393 C   0  0  0  0  0  0  0  0  0  0  0  0
   44.7367    4.9665   13.1431 C   0  0  0  0  0  0  0  0  0  0  0  0
   44.9335    6.4250   12.7236 C   0  0  0  0  0  0  0  0  0  0  0  0
   46.3497    6.9079   13.0459 C   0  0  0  0  0  0  0  0  0  0  0  0
   46.5486    8.3650   12.6212 C   0  0  0  0  0  0  0  0  0  0  0  0
   48.9073    8.8361   11.9120 C   0  0  0  0  0  0  0  0  0  0  0  0
   50.2120    9.2738   12.1492 C   0  0  0  0  0  0  0  0  0  0  0  0
   49.6322    9.7572   14.4413 C   0  0  0  0  0  0  0  0  0  0  0  0
   47.9415    8.8566   12.9337 C   0  0  0  0  0  0  0  0  0  0  0  0
   50.5638    9.7325   13.4109 C   0  0  0  0  0  0  0  0  0  0  0  0
   48.3305    9.3163   14.2002 C   0  0  0  0  0  0  0  0  0  0  0  0
   51.8472   10.1522   13.6014 O   0  0  0  0  0  0  0  0  0  0  0  0
   47.4827    9.3646   15.2714 O   0  0  0  0  0  0  0  0  0  0  0  0
   43.5619    5.3696   12.0037 C   0  0  0  0  0  0  0  0  0  0  0  0
   49.3337    9.5853   13.7355 C   0  0  0  0  0  0  0  0  0  0  0  0
   44.4579    4.3133   11.9701 C   0  0  0  0  0  0  0  0  0  0  0  0
   50.0888    8.4261   13.6595 C   0  0  0  0  0  0  0  0  0  0  0  0
   44.0316    6.6593   12.2527 C   0  0  0  0  0  0  0  0  0  0  0  0
   47.9724    9.5377   13.4351 C   0  0  0  0  0  0  0  0  0  0  0  0
   45.8133    4.5552   12.1977 C   0  0  0  0  0  0  0  0  0  0  0  0
   49.4728    7.2281   13.2958 C   0  0  0  0  0  0  0  0  0  0  0  0
   45.4102    6.9186   12.4706 C   0  0  0  0  0  0  0  0  0  0  0  0
   47.3388    8.3272   13.0493 C   0  0  0  0  0  0  0  0  0  0  0  0
   46.3027    5.8294   12.4548 C   0  0  0  0  0  0  0  0  0  0  0  0
   48.1177    7.1551   12.9993 C   0  0  0  0  0  0  0  0  0  0  0  0
   45.9646    8.2092   12.6988 C   0  0  0  0  0  0  0  0  0  0  0  0
   45.1121    9.3485   12.7663 N   0  0  0  0  0  0  0  0  0  0  0  0
   47.6153    5.9546   12.6859 N   0  0  0  0  0  0  0  0  0  0  0  0
   43.5873    3.8009   10.8932 H   0  0  0  0  0  0  0  0  0  0  0  0
   42.8301    5.4010   11.0344 H   0  0  0  0  0  0  0  0  0  0  0  0
   41.8941    3.9471   11.3925 H   0  0  0  0  0  0  0  0  0  0  0  0
   43.2267    3.4582   13.3669 H   0  0  0  0  0  0  0  0  0  0  0  0
   42.6047    5.0999   13.4938 H   0  0  0  0  0  0  0  0  0  0  0  0
   44.9875    4.8622   14.2061 H   0  0  0  0  0  0  0  0  0  0  0  0
   45.4334    4.3249   12.5901 H   0  0  0  0  0  0  0  0  0  0  0  0
   44.2036    7.0584   13.2420 H   0  0  0  0  0  0  0  0  0  0  0  0
   44.7540    6.5337   11.6482 H   0  0  0  0  0  0  0  0  0  0  0  0
   47.0805    6.2695   12.5330 H   0  0  0  0  0  0  0  0  0  0  0  0
   46.5373    6.7988   14.1212 H   0  0  0  0  0  0  0  0  0  0  0  0
   45.8092    9.0160   13.1034 H   0  0  0  0  0  0  0  0  0  0  0  0
   46.3587    8.4632   11.5443 H   0  0  0  0  0  0  0  0  0  0  0  0
   48.6495    8.4771   10.9176 H   0  0  0  0  0  0  0  0  0  0  0  0
   50.9496    9.2560   11.3520 H   0  0  0  0  0  0  0  0  0  0  0  0
   49.8962   10.1095   15.4328 H   0  0  0  0  0  0  0  0  0  0  0  0
   51.9392   10.4436   14.5236 H   0  0  0  0  0  0  0  0  0  0  0  0
   46.6265    8.9848   15.0239 H   0  0  0  0  0  0  0  0  0  0  0  0
   42.5015    5.1950   11.8422 H   0  0  0  0  0  0  0  0  0  0  0  0
   49.7965   10.5233   14.0310 H   0  0  0  0  0  0  0  0  0  0  0  0
   44.1108    3.3018   11.7780 H   0  0  0  0  0  0  0  0  0  0  0  0
   51.1504    8.4435   13.8902 H   0  0  0  0  0  0  0  0  0  0  0  0
   43.3019    7.4628   12.2916 H   0  0  0  0  0  0  0  0  0  0  0  0
   47.4041   10.4591   13.5225 H   0  0  0  0  0  0  0  0  0  0  0  0
   46.5113    3.7208   12.1829 H   0  0  0  0  0  0  0  0  0  0  0  0
   50.0671    6.3180   13.2499 H   0  0  0  0  0  0  0  0  0  0  0  0
   45.5973   10.2162   12.5646 H   0  0  0  0  0  0  0  0  0  0  0  0
   44.2937    9.2640   12.1733 H   0  0  0  0  0  0  0  0  0  0  0  0
  2  1  1  0
  3  2  1  0
  4  3  1  0
  5  4  1  0
  6  5  1  0
  8  7  2  0
 10  6  1  0
 10  7  1  0
 11  8  1  0
 11  9  2  0
 12  9  1  0
 12 10  2  0
 13 11  1  0
 14 12  1  0
 17 15  2  0
 18 16  1  0
 19 15  1  0
 20 16  2  0
 21 17  1  0
 22 18  2  0
 23 19  2  0
 24 20  1  0
 25 21  2  0
 25 23  1  0
 26 22  1  0
 26 24  1  0
 27 23  1  0
 27 24  2  0
 28 27  1  0
 29 25  1  0
 29 26  2  0
  1 30  1  0
  1 31  1  0
  1 32  1  0
  2 33  1  0
  2 34  1  0
  3 35  1  0
  3 36  1  0
  4 37  1  0
  4 38  1  0
  5 39  1  0
  5 40  1  0
  6 41  1  0
  6 42  1  0
  7 43  1  0
  8 44  1  0
  9 45  1  0
 13 46  1  0
 14 47  1  0
 15 48  1  0
 16 49  1  0
 17 50  1  0
 18 51  1  0
 19 52  1  0
 20 53  1  0
 21 54  1  0
 22 55  1  0
 28 56  1  0
 28 57  1  0
M  END
> <Uni-Dock RESULT> 
ENERGY=   -5.613  LOWER_BOUND=    2.440  UPPER_BOUND=    6.138
INTER + INTRA:          -5.613
INTER:                  -5.613
INTRA:                   0.000
UNBOUND:                 0.000

$$$$

     RDKit          3D

 57 59  0  0  0  0  0  0  0  0999 V2000
   49.1967   11.8885   11.9722 C   0  0  0  0  0  0  0  0  0  0  0  0
   48.5084   11.5044   13.2728 C   0  0  0  0  0  0  0  0  0  0  0  0
   47.3635   10.5064   13.0870 C   0  0  0  0  0  0  0  0  0  0  0  0
   47.8288    9.1357   12.5902 C   0  0  0  0  0  0  0  0  0  0  0  0
   46.6632    8.1459   12.5232 C   0  0  0  0  0  0  0  0  0  0  0  0
   47.1272    6.7763   12.0211 C   0  0  0  0  0  0  0  0  0  0  0  0
   45.3464    5.5881   10.7152 C   0  0  0  0  0  0  0  0  0  0  0  0
   44.2837    4.6900   10.5960 C   0  0  0  0  0  0  0  0  0  0  0  0
   44.4612    4.1693   12.9457 C   0  0  0  0  0  0  0  0  0  0  0  0
   45.9882    5.7879   11.9503 C   0  0  0  0  0  0  0  0  0  0  0  0
   43.8506    3.9865   11.7111 C   0  0  0  0  0  0  0  0  0  0  0  0
   45.5210    5.0697   13.0605 C   0  0  0  0  0  0  0  0  0  0  0  0
   42.8110    3.1184   11.5528 O   0  0  0  0  0  0  0  0  0  0  0  0
   46.0557    5.1957   14.3121 O   0  0  0  0  0  0  0  0  0  0  0  0
   48.8308   10.6886   12.2778 C   0  0  0  0  0  0  0  0  0  0  0  0
   44.8266    4.5204   12.3457 C   0  0  0  0  0  0  0  0  0  0  0  0
   47.6379   11.3534   12.0440 C   0  0  0  0  0  0  0  0  0  0  0  0
   43.7314    5.3358   12.1102 C   0  0  0  0  0  0  0  0  0  0  0  0
   48.8347    9.2962   12.3612 C   0  0  0  0  0  0  0  0  0  0  0  0
   46.1008    5.0847   12.4076 C   0  0  0  0  0  0  0  0  0  0  0  0
   46.4584   10.6201   11.9080 C   0  0  0  0  0  0  0  0  0  0  0  0
   43.9196    6.7093   11.9511 C   0  0  0  0  0  0  0  0  0  0  0  0
   47.6431    8.5395   12.2093 C   0  0  0  0  0  0  0  0  0  0  0  0
   46.3051    6.4786   12.2320 C   0  0  0  0  0  0  0  0  0  0  0  0
   46.4370    9.2340   11.9946 C   0  0  0  0  0  0  0  0  0  0  0  0
   45.1778    7.2943   12.0159 C   0  0  0  0  0  0  0  0  0  0  0  0
   47.5759    7.1187   12.2508 C   0  0  0  0  0  0  0  0  0  0  0  0
   48.7531    6.3574   12.5037 N   0  0  0  0  0  0  0  0  0  0  0  0
   45.2514    8.6236   11.8761 N   0  0  0  0  0  0  0  0  0  0  0  0
   48.4747   12.2686   11.2426 H   0  0  0  0  0  0  0  0  0  0  0  0
   49.7219   11.0374   11.5293 H   0  0  0  0  0  0  0  0  0  0  0  0
   49.9367   12.6738   12.1570 H   0  0  0  0  0  0  0  0  0  0  0  0
   48.1044   12.4135   13.7342 H   0  0  0  0  0  0  0  0  0  0  0  0
   49.2490   11.0974   13.9711 H   0  0  0  0  0  0  0  0  0  0  0  0
   46.8559   10.3846   14.0519 H   0  0  0  0  0  0  0  0  0  0  0  0
   46.6238   10.9208   12.3913 H   0  0  0  0  0  0  0  0  0  0  0  0
   48.6031    8.7449   13.2612 H   0  0  0  0  0  0  0  0  0  0  0  0
   48.2768    9.2294   11.5948 H   0  0  0  0  0  0  0  0  0  0  0  0
   45.8849    8.5403   11.8575 H   0  0  0  0  0  0  0  0  0  0  0  0
   46.2078    8.0496   13.5165 H   0  0  0  0  0  0  0  0  0  0  0  0
   47.9250    6.3770   12.6590 H   0  0  0  0  0  0  0  0  0  0  0  0
   47.5811    6.8837   11.0271 H   0  0  0  0  0  0  0  0  0  0  0  0
   45.6712    6.1333    9.8313 H   0  0  0  0  0  0  0  0  0  0  0  0
   43.7967    4.5414    9.6365 H   0  0  0  0  0  0  0  0  0  0  0  0
   44.1290    3.6284   13.8254 H   0  0  0  0  0  0  0  0  0  0  0  0
   42.6263    2.7036   12.4117 H   0  0  0  0  0  0  0  0  0  0  0  0
   46.7396    5.8821   14.3042 H   0  0  0  0  0  0  0  0  0  0  0  0
   49.7552   11.2468   12.3999 H   0  0  0  0  0  0  0  0  0  0  0  0
   44.6943    3.4508   12.4857 H   0  0  0  0  0  0  0  0  0  0  0  0
   47.6149   12.4375   11.9763 H   0  0  0  0  0  0  0  0  0  0  0  0
   42.7312    4.9145   12.0590 H   0  0  0  0  0  0  0  0  0  0  0  0
   49.7822    8.8059   12.5643 H   0  0  0  0  0  0  0  0  0  0  0  0
   46.9363    4.4219   12.6126 H   0  0  0  0  0  0  0  0  0  0  0  0
   45.5222   11.1473   11.7373 H   0  0  0  0  0  0  0  0  0  0  0  0
   43.0553    7.3472   11.7791 H   0  0  0  0  0  0  0  0  0  0  0  0
   48.6882    5.4054   12.1596 H   0  0  0  0  0  0  0  0  0  0  0  0
   49.5926    6.7986   12.1441 H   0  0  0  0  0  0  0  0  0  0  0  0
  2  1  1  0
  3  2  1  0
  4  3  1  0
  5  4  1  0
  6  5  1  0
  8  7  2  0
 10  6  1  0
 10  7  1  0
 11  8  1  0
 11  9  2  0
 12  9  1  0
 12 10  2  0
 13 11  1  0
 14 12  1  0
 17 15  2  0
 18 16  1  0
 19 15  1  0
 20 16  2  0
 21 17  1  0
 22 18  2  0
 23 19  2  0
 24 20  1  0
 25 21  2  0
 25 23  1  0
 26 22  1  0
 26 24  1  0
 27 23  1  0
 27 24  2  0
 28 27  1  0
 29 25  1  0
 29 26  2  0
  1 30  1  0
  1 31  1  0
  1 32  1  0
  2 33  1  0
  2 34  1  0
  3 35  1  0
  3 36  1  0
  4 37  1  0
  4 38  1  0
  5 39  1  0
  5 40  1  0
  6 41  1  0
  6 42  1  0
  7 43  1  0
  8 44  1  0
  9 45  1  0
 13 46  1  0
 14 47  1  0
 15 48  1  0
 16 49  1  0
 17 50  1  0
 18 51  1  0
 19 52  1  0
 20 53  1  0
 21 54  1  0
 22 55  1  0
 28 56  1  0
 28 57  1  0
M  END
> <Uni-Dock RESULT> 
ENERGY=   -5.523  LOWER_BOUND=    1.389  UPPER_BOUND=    2.564
INTER + INTRA:          -5.523
INTER:                  -5.523
INTRA:                   0.000
UNBOUND:                 0.000

$$$$

     RDKit          3D

 57 59  0  0  0  0  0  0  0  0999 V2000
   42.5913    4.9136   11.8967 C   0  0  0  0  0  0  0  0  0  0  0  0
   43.6479    4.9880   10.8053 C   0  0  0  0  0  0  0  0  0  0  0  0
   44.6453    6.1325   10.9972 C   0  0  0  0  0  0  0  0  0  0  0  0
   45.5238    5.9693   12.2396 C   0  0  0  0  0  0  0  0  0  0  0  0
   46.5721    7.0811   12.3268 C   0  0  0  0  0  0  0  0  0  0  0  0
   47.4474    6.9212   13.5724 C   0  0  0  0  0  0  0  0  0  0  0  0
   48.2177    9.1268   14.4837 C   0  0  0  0  0  0  0  0  0  0  0  0
   49.1431   10.1653   14.6064 C   0  0  0  0  0  0  0  0  0  0  0  0
   50.6356    9.0121   13.1010 C   0  0  0  0  0  0  0  0  0  0  0  0
   48.4878    8.0107   13.6721 C   0  0  0  0  0  0  0  0  0  0  0  0
   50.3452   10.0993   13.9158 C   0  0  0  0  0  0  0  0  0  0  0  0
   49.7067    7.9780   12.9794 C   0  0  0  0  0  0  0  0  0  0  0  0
   51.2224   11.1329   14.0631 O   0  0  0  0  0  0  0  0  0  0  0  0
   50.0685    6.9537   12.1498 O   0  0  0  0  0  0  0  0  0  0  0  0
   43.8430    5.1502   12.1073 C   0  0  0  0  0  0  0  0  0  0  0  0
   49.9880    8.9291   13.5373 C   0  0  0  0  0  0  0  0  0  0  0  0
   43.3811    6.3063   11.4992 C   0  0  0  0  0  0  0  0  0  0  0  0
   49.3760    9.9929   12.8944 C   0  0  0  0  0  0  0  0  0  0  0  0
   45.0916    5.1548   12.7294 C   0  0  0  0  0  0  0  0  0  0  0  0
   49.2872    7.7348   13.7058 C   0  0  0  0  0  0  0  0  0  0  0  0
   44.1773    7.4523   11.5085 C   0  0  0  0  0  0  0  0  0  0  0  0
   48.0735    9.8482   12.4151 C   0  0  0  0  0  0  0  0  0  0  0  0
   45.9031    6.3193   12.7578 C   0  0  0  0  0  0  0  0  0  0  0  0
   47.9563    7.5819   13.2356 C   0  0  0  0  0  0  0  0  0  0  0  0
   45.4266    7.4781   12.1152 C   0  0  0  0  0  0  0  0  0  0  0  0
   47.3589    8.6664   12.5649 C   0  0  0  0  0  0  0  0  0  0  0  0
   47.1705    6.4068   13.3990 C   0  0  0  0  0  0  0  0  0  0  0  0
   47.7281    5.2598   14.0335 N   0  0  0  0  0  0  0  0  0  0  0  0
   46.1251    8.6182   12.0479 N   0  0  0  0  0  0  0  0  0  0  0  0
   42.0627    5.8666   11.9978 H   0  0  0  0  0  0  0  0  0  0  0  0
   43.0313    4.6567   12.8646 H   0  0  0  0  0  0  0  0  0  0  0  0
   41.8542    4.1416   11.6532 H   0  0  0  0  0  0  0  0  0  0  0  0
   43.1434    5.1258    9.8415 H   0  0  0  0  0  0  0  0  0  0  0  0
   44.1823    4.0325   10.7490 H   0  0  0  0  0  0  0  0  0  0  0  0
   45.2866    6.1800   10.1083 H   0  0  0  0  0  0  0  0  0  0  0  0
   44.1055    7.0860   11.0481 H   0  0  0  0  0  0  0  0  0  0  0  0
   46.0253    4.9945   12.2097 H   0  0  0  0  0  0  0  0  0  0  0  0
   44.9040    5.9896   13.1429 H   0  0  0  0  0  0  0  0  0  0  0  0
   46.0706    8.0571   12.3493 H   0  0  0  0  0  0  0  0  0  0  0  0
   47.1945    7.0684   11.4236 H   0  0  0  0  0  0  0  0  0  0  0  0
   47.9368    5.9397   13.5816 H   0  0  0  0  0  0  0  0  0  0  0  0
   46.8153    6.9353   14.4700 H   0  0  0  0  0  0  0  0  0  0  0  0
   47.2792    9.1962   15.0300 H   0  0  0  0  0  0  0  0  0  0  0  0
   48.9254   11.0217   15.2380 H   0  0  0  0  0  0  0  0  0  0  0  0
   51.5699    8.9510   12.5529 H   0  0  0  0  0  0  0  0  0  0  0  0
   52.0098   10.9436   13.5265 H   0  0  0  0  0  0  0  0  0  0  0  0
   49.3401    6.3184   12.0834 H   0  0  0  0  0  0  0  0  0  0  0  0
   43.2404    4.2460   12.0961 H   0  0  0  0  0  0  0  0  0  0  0  0
   51.0070    9.0220   13.9035 H   0  0  0  0  0  0  0  0  0  0  0  0
   42.4114    6.3220   11.0093 H   0  0  0  0  0  0  0  0  0  0  0  0
   49.9060   10.9308   12.7535 H   0  0  0  0  0  0  0  0  0  0  0  0
   45.4335    4.2278   13.1802 H   0  0  0  0  0  0  0  0  0  0  0  0
   49.8010    6.9135   14.1966 H   0  0  0  0  0  0  0  0  0  0  0  0
   43.8159    8.3540   11.0187 H   0  0  0  0  0  0  0  0  0  0  0  0
   47.6016   10.6820   11.8996 H   0  0  0  0  0  0  0  0  0  0  0  0
   48.4112    5.4962   14.7451 H   0  0  0  0  0  0  0  0  0  0  0  0
   47.0232    4.6427   14.4223 H   0  0  0  0  0  0  0  0  0  0  0  0
  2  1  1  0
  3  2  1  0
  4  3  1  0
  5  4  1  0
  6  5  1  0
  8  7  2  0
 10  6  1  0
 10  7  1  0
 11  8  1  0
 11  9  2  0
 12  9  1  0
 12 10  2  0
 13 11  1  0
 14 12  1  0
 17 15  2  0
 18 16  1  0
 19 15  1  0
 20 16  2  0
 21 17  1  0
 22 18  2  0
 23 19  2  0
 24 20  1  0
 25 21  2  0
 25 23  1  0
 26 22  1  0
 26 24  1  0
 27 23  1  0
 27 24  2  0
 28 27  1  0
 29 25  1  0
 29 26  2  0
  1 30  1  0
  1 31  1  0
  1 32  1  0
  2 33  1  0
  2 34  1  0
  3 35  1  0
  3 36  1  0
  4 37  1  0
  4 38  1  0
  5 39  1  0
  5 40  1  0
  6 41  1  0
  6 42  1  0
  7 43  1  0
  8 44  1  0
  9 45  1  0
 13 46  1  0
 14 47  1  0
 15 48  1  0
 16 49  1  0
 17 50  1  0
 18 51  1  0
 19 52  1  0
 20 53  1  0
 21 54  1  0
 22 55  1  0
 28 56  1  0
 28 57  1  0
M  END
> <Uni-Dock RESULT> 
ENERGY=   -5.403  LOWER_BOUND=    2.271  UPPER_BOUND=    6.276
INTER + INTRA:          -5.403
INTER:                  -5.403
INTRA:                   0.000
UNBOUND:                 0.000

$$$$
