
     RDKit          3D

 41 42  0  0  0  0  0  0  0  0999 V2000
   -1.4263   -0.4020    0.0709 C   0  0  0  0  0  0  0  0  0  0  0  0
    1.4305    0.4525   -0.4497 C   0  0  0  0  0  0  0  0  0  0  0  0
   -0.3152   -1.1717   -0.3860 C   0  0  0  0  0  0  0  0  0  0  0  0
    0.8936   -0.8766   -0.6217 C   0  0  0  0  0  0  0  0  0  0  0  0
   -2.5226   -1.0677    0.1927 O   0  0  0  0  0  0  0  0  0  0  0  0
    2.6599    0.5736   -0.7307 O   0  0  0  0  0  0  0  0  0  0  0  0
   -1.5115    0.9135    0.3962 O   0  0  0  0  0  0  0  0  0  0  0  0
    0.7916    1.5784   -0.0292 O   0  0  0  0  0  0  0  0  0  0  0  0
   -1.5329    0.3910   -0.4160 N   0  0  0  0  0  0  0  0  0  0  0  0
   -1.5416    0.6570    0.9739 C   0  0  0  0  0  0  0  0  0  0  0  0
   -3.8773   -0.7323    1.2567 S   0  0  0  0  0  0  0  0  0  0  0  0
   -2.5270   -0.3561   -1.0929 C   0  0  0  0  0  0  0  0  0  0  0  0
   -2.5049    0.2318    1.8462 C   0  0  0  0  0  0  0  0  0  0  0  0
   -3.6251   -0.9191   -0.4965 C   0  0  0  0  0  0  0  0  0  0  0  0
   -0.5004    1.4019    1.4884 C   0  0  0  0  0  0  0  0  0  0  0  0
    3.3030    0.5334   -1.2497 N   0  0  0  0  0  0  0  0  0  0  0  0
    5.3929   -0.7974    0.0654 N   0  0  0  0  0  0  0  0  0  0  0  0
   -2.4526    0.5257    3.1803 C   0  0  0  0  0  0  0  0  0  0  0  0
   -0.4188    0.9237   -1.2174 C   0  0  0  0  0  0  0  0  0  0  0  0
   -0.3993    1.7262    2.8240 C   0  0  0  0  0  0  0  0  0  0  0  0
    4.1860   -1.5240   -0.2839 C   0  0  0  0  0  0  0  0  0  0  0  0
    5.1338    0.6087    0.3078 C   0  0  0  0  0  0  0  0  0  0  0  0
    3.5641   -0.8545   -1.4945 C   0  0  0  0  0  0  0  0  0  0  0  0
    3.6575    0.9186    0.0863 C   0  0  0  0  0  0  0  0  0  0  0  0
    0.9016    0.3863   -0.7364 C   0  0  0  0  0  0  0  0  0  0  0  0
   -1.3989    1.2708    3.6562 C   0  0  0  0  0  0  0  0  0  0  0  0
    1.9976    0.9779   -1.6146 C   0  0  0  0  0  0  0  0  0  0  0  0
    0.9557    2.6766    3.3916 Cl  0  0  0  0  0  0  0  0  0  0  0  0
   -2.3858   -0.5358   -2.4515 C   0  0  0  0  0  0  0  0  0  0  0  0
   -4.5223   -1.6167   -1.2199 C   0  0  0  0  0  0  0  0  0  0  0  0
    6.3250   -0.9087   -1.0290 C   0  0  0  0  0  0  0  0  0  0  0  0
   -3.3104   -1.2509   -3.1784 C   0  0  0  0  0  0  0  0  0  0  0  0
   -4.4197   -1.8233   -2.5961 C   0  0  0  0  0  0  0  0  0  0  0  0
   -1.4769   -0.2059   -0.2055 C   0  0  0  0  0  0  0  0  0  0  0  0
    1.4693    0.3060    0.1635 C   0  0  0  0  0  0  0  0  0  0  0  0
   -0.5223   -1.1118    0.3477 C   0  0  0  0  0  0  0  0  0  0  0  0
    0.7211   -0.8734    0.4944 C   0  0  0  0  0  0  0  0  0  0  0  0
   -1.3105    0.9491   -0.6403 O   0  0  0  0  0  0  0  0  0  0  0  0
    1.0776    1.3661   -0.3420 O   0  0  0  0  0  0  0  0  0  0  0  0
   -2.8029   -0.6785   -0.2736 O   0  0  0  0  0  0  0  0  0  0  0  0
    2.8445    0.2483    0.4558 O   0  0  0  0  0  0  0  0  0  0  0  0
  2  4  1  0
  3  1  1  0
  4  3  2  0
  5  1  2  0
  6  2  2  0
  7  1  1  0
  8  2  1  0
 10  9  1  0
 11 14  1  0
 12  9  1  0
 13 10  2  0
 14 12  2  0
 15 10  1  0
 16 27  1  0
 17 22  1  0
 18 13  1  0
 19  9  1  0
 20 15  2  0
 21 23  1  0
 22 24  1  0
 23 16  1  0
 24 16  1  0
 25 19  1  0
 26 20  1  0
 27 25  1  0
 28 20  1  0
 29 12  1  0
 30 14  1  0
 31 17  1  0
 32 29  2  0
 33 30  2  0
 11 13  1  0
 32 33  1  0
 26 18  2  0
 17 21  1  0
 35 37  1  0
 36 34  1  0
 37 36  2  0
 38 34  2  0
 39 35  2  0
 40 34  1  0
 41 35  1  0
M  END
