
     RDKit          3D

 73 74  0  0  0  0  0  0  0  0999 V2000
    1.4257   -0.3676   -0.4400 C   0  0  0  0  0  0  0  0  0  0  0  0
   -1.4306    0.1784    0.5316 C   0  0  0  0  0  0  0  0  0  0  0  0
    0.6566    0.8594   -0.6661 C   0  0  0  0  0  0  0  0  0  0  0  0
   -0.6055    1.0822   -0.2749 C   0  0  0  0  0  0  0  0  0  0  0  0
    2.6225   -0.4032   -0.2213 O   0  0  0  0  0  0  0  0  0  0  0  0
   -2.6320    0.0352    0.3987 O   0  0  0  0  0  0  0  0  0  0  0  0
    0.7003   -1.4799   -0.6267 O   0  0  0  0  0  0  0  0  0  0  0  0
   -0.7498   -0.3937    1.5352 O   0  0  0  0  0  0  0  0  0  0  0  0
   -2.2417   -0.1776    0.0635 N   0  0  0  0  0  0  0  0  0  0  0  0
   -3.1123   -1.0351   -0.6702 C   0  0  0  0  0  0  0  0  0  0  0  0
   -5.2806   -0.1840    0.9095 S   0  0  0  0  0  0  0  0  0  0  0  0
   -2.6550    0.8239    0.9924 C   0  0  0  0  0  0  0  0  0  0  0  0
   -4.4938   -1.1023   -0.3911 C   0  0  0  0  0  0  0  0  0  0  0  0
   -3.9934    0.9278    1.4227 C   0  0  0  0  0  0  0  0  0  0  0  0
   -2.6508   -1.8455   -1.7327 C   0  0  0  0  0  0  0  0  0  0  0  0
    2.1714    0.5238   -0.3132 N   0  0  0  0  0  0  0  0  0  0  0  0
    4.9135   -0.0573    0.8656 N   0  0  0  0  0  0  0  0  0  0  0  0
   -5.3468   -1.9475   -1.1301 C   0  0  0  0  0  0  0  0  0  0  0  0
   -0.7816   -0.4127   -0.0630 C   0  0  0  0  0  0  0  0  0  0  0  0
   -3.5055   -2.6791   -2.4616 C   0  0  0  0  0  0  0  0  0  0  0  0
    4.4942    1.2536    0.3326 C   0  0  0  0  0  0  0  0  0  0  0  0
    3.9291   -1.1096    0.5542 C   0  0  0  0  0  0  0  0  0  0  0  0
    3.4176    1.1734   -0.7722 C   0  0  0  0  0  0  0  0  0  0  0  0
    2.4693   -0.6020    0.6013 C   0  0  0  0  0  0  0  0  0  0  0  0
   -0.1679    0.4386   -1.1800 C   0  0  0  0  0  0  0  0  0  0  0  0
   -4.8556   -2.7361   -2.1639 C   0  0  0  0  0  0  0  0  0  0  0  0
    1.3157    0.1543   -1.4461 C   0  0  0  0  0  0  0  0  0  0  0  0
   -2.8729   -3.6385   -3.7439 Cl  0  0  0  0  0  0  0  0  0  0  0  0
   -1.7579    1.7833    1.5177 C   0  0  0  0  0  0  0  0  0  0  0  0
   -4.3896    1.9283    2.3335 C   0  0  0  0  0  0  0  0  0  0  0  0
    6.2442   -0.4387    0.4037 C   0  0  0  0  0  0  0  0  0  0  0  0
   -2.1565    2.7768    2.4207 C   0  0  0  0  0  0  0  0  0  0  0  0
   -3.4761    2.8496    2.8312 C   0  0  0  0  0  0  0  0  0  0  0  0
    1.5272   -0.1157    0.1115 C   0  0  0  0  0  0  0  0  0  0  0  0
   -1.4979    0.3239   -0.0975 C   0  0  0  0  0  0  0  0  0  0  0  0
    0.5096   -1.1639   -0.0059 C   0  0  0  0  0  0  0  0  0  0  0  0
   -0.8098   -0.9695   -0.1366 C   0  0  0  0  0  0  0  0  0  0  0  0
    2.5314   -0.1995    0.7938 O   0  0  0  0  0  0  0  0  0  0  0  0
   -2.4738    0.6089   -0.7665 O   0  0  0  0  0  0  0  0  0  0  0  0
    1.3113    0.9156   -0.7180 O   0  0  0  0  0  0  0  0  0  0  0  0
   -1.0222    1.1389    0.8552 O   0  0  0  0  0  0  0  0  0  0  0  0
    1.2025    1.6285   -1.2007 H   0  0  0  0  0  0  0  0  0  0  0  0
   -1.1069    2.0007   -0.5580 H   0  0  0  0  0  0  0  0  0  0  0  0
    1.3405   -2.2050   -0.4738 H   0  0  0  0  0  0  0  0  0  0  0  0
   -1.4234   -0.9351    1.9959 H   0  0  0  0  0  0  0  0  0  0  0  0
   -1.6103   -1.8375   -2.0369 H   0  0  0  0  0  0  0  0  0  0  0  0
   -6.4093   -1.9936   -0.8972 H   0  0  0  0  0  0  0  0  0  0  0  0
   -0.5721   -1.4757   -0.2372 H   0  0  0  0  0  0  0  0  0  0  0  0
   -0.2809   -0.2293    0.8944 H   0  0  0  0  0  0  0  0  0  0  0  0
    5.3512    1.8304   -0.0373 H   0  0  0  0  0  0  0  0  0  0  0  0
    4.0878    1.8340    1.1711 H   0  0  0  0  0  0  0  0  0  0  0  0
    4.0445   -1.9258    1.2772 H   0  0  0  0  0  0  0  0  0  0  0  0
    4.1110   -1.5350   -0.4425 H   0  0  0  0  0  0  0  0  0  0  0  0
    3.8422    0.6382   -1.6329 H   0  0  0  0  0  0  0  0  0  0  0  0
    3.1808    2.1903   -1.1073 H   0  0  0  0  0  0  0  0  0  0  0  0
    1.8005   -1.4535    0.4309 H   0  0  0  0  0  0  0  0  0  0  0  0
    2.2570   -0.2561    1.6213 H   0  0  0  0  0  0  0  0  0  0  0  0
   -0.7137    0.2740   -2.1167 H   0  0  0  0  0  0  0  0  0  0  0  0
   -0.2941    1.5058   -0.9627 H   0  0  0  0  0  0  0  0  0  0  0  0
   -5.5263   -3.3806   -2.7242 H   0  0  0  0  0  0  0  0  0  0  0  0
    1.5796    0.7589   -2.3248 H   0  0  0  0  0  0  0  0  0  0  0  0
    1.4687   -0.8887   -1.7506 H   0  0  0  0  0  0  0  0  0  0  0  0
   -0.7107    1.8033    1.2309 H   0  0  0  0  0  0  0  0  0  0  0  0
   -5.4252    1.9911    2.6623 H   0  0  0  0  0  0  0  0  0  0  0  0
    6.9888    0.2962    0.7292 H   0  0  0  0  0  0  0  0  0  0  0  0
    6.2945   -0.5209   -0.6880 H   0  0  0  0  0  0  0  0  0  0  0  0
    6.5420   -1.4000    0.8372 H   0  0  0  0  0  0  0  0  0  0  0  0
   -1.4275    3.4914    2.7943 H   0  0  0  0  0  0  0  0  0  0  0  0
   -3.7951    3.6160    3.5315 H   0  0  0  0  0  0  0  0  0  0  0  0
    0.9096   -2.1710    0.0233 H   0  0  0  0  0  0  0  0  0  0  0  0
   -1.4705   -1.8153   -0.2895 H   0  0  0  0  0  0  0  0  0  0  0  0
    2.0712    1.5112   -0.5537 H   0  0  0  0  0  0  0  0  0  0  0  0
   -1.5862    1.9363    0.7839 H   0  0  0  0  0  0  0  0  0  0  0  0
  2  4  1  0
  3  1  1  0
  4  3  2  0
  5  1  2  0
  6  2  2  0
  7  1  1  0
  8  2  1  0
 10  9  1  0
 11 14  1  0
 12  9  1  0
 13 10  2  0
 14 12  2  0
 15 10  1  0
 16 27  1  0
 17 22  1  0
 18 13  1  0
 19  9  1  0
 20 15  2  0
 21 23  1  0
 22 24  1  0
 23 16  1  0
 24 16  1  0
 25 19  1  0
 26 20  1  0
 27 25  1  0
 28 20  1  0
 29 12  1  0
 30 14  1  0
 31 17  1  0
 32 29  2  0
 33 30  2  0
 11 13  1  0
 32 33  1  0
 26 18  2  0
 17 21  1  0
 35 37  1  0
 36 34  1  0
 37 36  2  0
 38 34  2  0
 39 35  2  0
 40 34  1  0
 41 35  1  0
  3 42  1  0
  4 43  1  0
  7 44  1  0
  8 45  1  0
 15 46  1  0
 18 47  1  0
 19 48  1  0
 19 49  1  0
 21 50  1  0
 21 51  1  0
 22 52  1  0
 22 53  1  0
 23 54  1  0
 23 55  1  0
 24 56  1  0
 24 57  1  0
 25 58  1  0
 25 59  1  0
 26 60  1  0
 27 61  1  0
 27 62  1  0
 29 63  1  0
 30 64  1  0
 31 65  1  0
 31 66  1  0
 31 67  1  0
 32 68  1  0
 33 69  1  0
 36 70  1  0
 37 71  1  0
 40 72  1  0
 41 73  1  0
M  END
$$$$
