
     RDKit          2D

 41 42  0  0  0  0  0  0  0  0999 V2000
    2.7565   -0.8310    0.0000 C   0  0  0  0  0  0  0  0  0  0  0  0
    2.7517   -2.4829    0.0000 C   0  0  0  0  0  0  0  0  0  0  0  0
    2.0444   -1.2476    0.0000 C   0  0  0  0  0  0  0  0  0  0  0  0
    2.0396   -2.0663    0.0000 C   0  0  0  0  0  0  0  0  0  0  0  0
    2.7662   -0.0123    0.0000 O   0  0  0  0  0  0  0  0  0  0  0  0
    2.7420   -3.3016    0.0000 O   0  0  0  0  0  0  0  0  0  0  0  0
    3.4686   -1.2525    0.0000 O   0  0  0  0  0  0  0  0  0  0  0  0
    3.4686   -2.0759    0.0000 O   0  0  0  0  0  0  0  0  0  0  0  0
    0.9301   -4.7862    0.0000 N   0  0  0  0  0  0  0  0  0  0  0  0
    1.6422   -5.2027    0.0000 C   0  0  0  0  0  0  0  0  0  0  0  0
    0.9301   -6.4380    0.0000 S   0  0  0  0  0  0  0  0  0  0  0  0
    0.2180   -5.2027    0.0000 C   0  0  0  0  0  0  0  0  0  0  0  0
    1.6422   -6.0311    0.0000 C   0  0  0  0  0  0  0  0  0  0  0  0
    0.2180   -6.0311    0.0000 C   0  0  0  0  0  0  0  0  0  0  0  0
    2.3688   -4.7862    0.0000 C   0  0  0  0  0  0  0  0  0  0  0  0
   -0.4941   -2.2962    0.0000 N   0  0  0  0  0  0  0  0  0  0  0  0
   -1.9329   -1.4678    0.0000 N   0  0  0  0  0  0  0  0  0  0  0  0
    2.3688   -6.4380    0.0000 C   0  0  0  0  0  0  0  0  0  0  0  0
    0.9301   -3.9529    0.0000 C   0  0  0  0  0  0  0  0  0  0  0  0
    3.0810   -5.2027    0.0000 C   0  0  0  0  0  0  0  0  0  0  0  0
   -1.2062   -1.0512    0.0000 C   0  0  0  0  0  0  0  0  0  0  0  0
   -1.9329   -2.2962    0.0000 C   0  0  0  0  0  0  0  0  0  0  0  0
   -0.4941   -1.4678    0.0000 C   0  0  0  0  0  0  0  0  0  0  0  0
   -1.2062   -2.7031    0.0000 C   0  0  0  0  0  0  0  0  0  0  0  0
    0.2180   -3.5460    0.0000 C   0  0  0  0  0  0  0  0  0  0  0  0
    3.0810   -6.0311    0.0000 C   0  0  0  0  0  0  0  0  0  0  0  0
    0.2180   -2.7031    0.0000 C   0  0  0  0  0  0  0  0  0  0  0  0
    3.7931   -4.7716    0.0000 Cl  0  0  0  0  0  0  0  0  0  0  0  0
   -0.4941   -4.7862    0.0000 C   0  0  0  0  0  0  0  0  0  0  0  0
   -0.4941   -6.4380    0.0000 C   0  0  0  0  0  0  0  0  0  0  0  0
   -2.6401   -1.0367    0.0000 C   0  0  0  0  0  0  0  0  0  0  0  0
   -1.2062   -5.2027    0.0000 C   0  0  0  0  0  0  0  0  0  0  0  0
   -1.2062   -6.0311    0.0000 C   0  0  0  0  0  0  0  0  0  0  0  0
    5.8761   -2.9114    0.0000 C   0  0  0  0  0  0  0  0  0  0  0  0
    5.8712   -4.5633    0.0000 C   0  0  0  0  0  0  0  0  0  0  0  0
    5.1640   -3.3280    0.0000 C   0  0  0  0  0  0  0  0  0  0  0  0
    5.1591   -4.1467    0.0000 C   0  0  0  0  0  0  0  0  0  0  0  0
    5.8858   -2.0927    0.0000 O   0  0  0  0  0  0  0  0  0  0  0  0
    5.8616   -5.3820    0.0000 O   0  0  0  0  0  0  0  0  0  0  0  0
    6.5882   -3.3329    0.0000 O   0  0  0  0  0  0  0  0  0  0  0  0
    6.5882   -4.1564    0.0000 O   0  0  0  0  0  0  0  0  0  0  0  0
  2  4  1  0
  3  1  1  0
  4  3  2  0
  5  1  2  0
  6  2  2  0
  7  1  1  0
  8  2  1  0
 10  9  1  0
 11 14  1  0
 12  9  1  0
 13 10  2  0
 14 12  2  0
 15 10  1  0
 16 27  1  0
 17 22  1  0
 18 13  1  0
 19  9  1  0
 20 15  2  0
 21 23  1  0
 22 24  1  0
 23 16  1  0
 24 16  1  0
 25 19  1  0
 26 20  1  0
 27 25  1  0
 28 20  1  0
 29 12  1  0
 30 14  1  0
 31 17  1  0
 32 29  2  0
 33 30  2  0
 11 13  1  0
 32 33  1  0
 26 18  2  0
 17 21  1  0
 35 37  1  0
 36 34  1  0
 37 36  2  0
 38 34  2  0
 39 35  2  0
 40 34  1  0
 41 35  1  0
M  END
> <chembl_id>
CHEMBL1314751

> <chembl_pref_name>
PROCHLORPERAZINE MALEATE
