
     RDKit          3D

 73 74  0  0  0  0  0  0  0  0999 V2000
   -1.5158    0.3896    0.5646 C   0  0  0  0  0  0  0  0  0  0  0  0
    1.2519   -0.5909   -0.0644 C   0  0  0  0  0  0  0  0  0  0  0  0
   -0.4900    1.1766   -0.1236 C   0  0  0  0  0  0  0  0  0  0  0  0
    0.7307    0.7284   -0.4456 C   0  0  0  0  0  0  0  0  0  0  0  0
   -2.1842    0.7826    1.5016 O   0  0  0  0  0  0  0  0  0  0  0  0
    0.8983   -1.3012    0.8548 O   0  0  0  0  0  0  0  0  0  0  0  0
   -1.7329   -0.7872   -0.0396 O   0  0  0  0  0  0  0  0  0  0  0  0
    2.2647   -0.9265   -0.8797 O   0  0  0  0  0  0  0  0  0  0  0  0
   -2.1289    0.7927   -0.4630 N   0  0  0  0  0  0  0  0  0  0  0  0
   -2.4466    1.2929    0.8430 C   0  0  0  0  0  0  0  0  0  0  0  0
   -4.5310   -0.5860    1.0812 S   0  0  0  0  0  0  0  0  0  0  0  0
   -2.8245   -0.2582   -1.1388 C   0  0  0  0  0  0  0  0  0  0  0  0
   -3.4964    0.7497    1.6132 C   0  0  0  0  0  0  0  0  0  0  0  0
   -3.9115   -0.9331   -0.5437 C   0  0  0  0  0  0  0  0  0  0  0  0
   -1.7349    2.3596    1.4448 C   0  0  0  0  0  0  0  0  0  0  0  0
    2.0013   -1.0170   -0.7106 N   0  0  0  0  0  0  0  0  0  0  0  0
    4.5895   -0.1582    0.6121 N   0  0  0  0  0  0  0  0  0  0  0  0
   -3.7995    1.2492    2.8986 C   0  0  0  0  0  0  0  0  0  0  0  0
   -0.9964    1.4455   -1.1674 C   0  0  0  0  0  0  0  0  0  0  0  0
   -2.0422    2.8474    2.7206 C   0  0  0  0  0  0  0  0  0  0  0  0
    4.4810   -0.7383   -0.7430 C   0  0  0  0  0  0  0  0  0  0  0  0
    3.2765   -0.1023    1.2869 C   0  0  0  0  0  0  0  0  0  0  0  0
    3.1349   -0.4070   -1.4223 C   0  0  0  0  0  0  0  0  0  0  0  0
    2.2172   -1.0900    0.7443 C   0  0  0  0  0  0  0  0  0  0  0  0
    0.3788    0.9473   -0.6892 C   0  0  0  0  0  0  0  0  0  0  0  0
   -3.0753    2.2959    3.4539 C   0  0  0  0  0  0  0  0  0  0  0  0
    0.6898   -0.4957   -1.1089 C   0  0  0  0  0  0  0  0  0  0  0  0
   -1.1234    4.1438    3.3840 Cl  0  0  0  0  0  0  0  0  0  0  0  0
   -2.4787   -0.6999   -2.4385 C   0  0  0  0  0  0  0  0  0  0  0  0
   -4.5956   -1.9676   -1.2188 C   0  0  0  0  0  0  0  0  0  0  0  0
    5.5759   -0.8897    1.4021 C   0  0  0  0  0  0  0  0  0  0  0  0
   -3.1598   -1.7286   -3.1055 C   0  0  0  0  0  0  0  0  0  0  0  0
   -4.2236   -2.3643   -2.4952 C   0  0  0  0  0  0  0  0  0  0  0  0
    1.0464    0.1873   -1.0786 C   0  0  0  0  0  0  0  0  0  0  0  0
   -0.9314   -0.7597    0.9222 C   0  0  0  0  0  0  0  0  0  0  0  0
    0.2962    1.0786   -0.1880 C   0  0  0  0  0  0  0  0  0  0  0  0
   -0.6435    0.6552    0.6664 C   0  0  0  0  0  0  0  0  0  0  0  0
    0.6333   -0.7935   -1.6630 O   0  0  0  0  0  0  0  0  0  0  0  0
   -0.1373   -1.6757    0.9887 O   0  0  0  0  0  0  0  0  0  0  0  0
    2.2999    0.6422   -1.2254 O   0  0  0  0  0  0  0  0  0  0  0  0
   -2.2444   -0.9230    1.1436 O   0  0  0  0  0  0  0  0  0  0  0  0
   -0.7829    2.1939   -0.3533 H   0  0  0  0  0  0  0  0  0  0  0  0
    1.4189    1.3672   -0.9869 H   0  0  0  0  0  0  0  0  0  0  0  0
   -2.4023   -1.2251    0.5250 H   0  0  0  0  0  0  0  0  0  0  0  0
    2.5434   -1.8075   -0.5528 H   0  0  0  0  0  0  0  0  0  0  0  0
   -0.9076    2.8494    0.9441 H   0  0  0  0  0  0  0  0  0  0  0  0
   -4.6139    0.8158    3.4775 H   0  0  0  0  0  0  0  0  0  0  0  0
   -1.0549    2.5337   -1.0386 H   0  0  0  0  0  0  0  0  0  0  0  0
   -1.0543    1.3738   -2.2561 H   0  0  0  0  0  0  0  0  0  0  0  0
    5.2996   -0.3467   -1.3581 H   0  0  0  0  0  0  0  0  0  0  0  0
    4.5938   -1.8312   -0.7159 H   0  0  0  0  0  0  0  0  0  0  0  0
    3.3786   -0.2366    2.3712 H   0  0  0  0  0  0  0  0  0  0  0  0
    2.8920    0.9174    1.1559 H   0  0  0  0  0  0  0  0  0  0  0  0
    3.0424    0.6834   -1.4819 H   0  0  0  0  0  0  0  0  0  0  0  0
    3.1525   -0.7854   -2.4510 H   0  0  0  0  0  0  0  0  0  0  0  0
    1.2805   -0.9659    1.3013 H   0  0  0  0  0  0  0  0  0  0  0  0
    2.5558   -2.1094    0.9709 H   0  0  0  0  0  0  0  0  0  0  0  0
    0.4583    1.0381    0.3981 H   0  0  0  0  0  0  0  0  0  0  0  0
    1.1296    1.6239   -1.1124 H   0  0  0  0  0  0  0  0  0  0  0  0
   -3.3221    2.6669    4.4441 H   0  0  0  0  0  0  0  0  0  0  0  0
   -0.0706   -1.1683   -0.6956 H   0  0  0  0  0  0  0  0  0  0  0  0
    0.6030   -0.5827   -2.1988 H   0  0  0  0  0  0  0  0  0  0  0  0
   -1.6546   -0.2758   -2.9984 H   0  0  0  0  0  0  0  0  0  0  0  0
   -5.4320   -2.4749   -0.7410 H   0  0  0  0  0  0  0  0  0  0  0  0
    5.2713   -1.9259    1.5885 H   0  0  0  0  0  0  0  0  0  0  0  0
    6.5463   -0.9001    0.8931 H   0  0  0  0  0  0  0  0  0  0  0  0
    5.7345   -0.3978    2.3683 H   0  0  0  0  0  0  0  0  0  0  0  0
   -2.8468   -2.0269   -4.1032 H   0  0  0  0  0  0  0  0  0  0  0  0
   -4.7579   -3.1627   -3.0017 H   0  0  0  0  0  0  0  0  0  0  0  0
    0.5188    2.1344   -0.2844 H   0  0  0  0  0  0  0  0  0  0  0  0
   -1.2200    1.3640    1.2484 H   0  0  0  0  0  0  0  0  0  0  0  0
    2.7159   -0.0208   -1.8156 H   0  0  0  0  0  0  0  0  0  0  0  0
   -2.3338   -1.8889    1.2857 H   0  0  0  0  0  0  0  0  0  0  0  0
  2  4  1  0
  3  1  1  0
  4  3  2  0
  5  1  2  0
  6  2  2  0
  7  1  1  0
  8  2  1  0
 10  9  1  0
 11 14  1  0
 12  9  1  0
 13 10  2  0
 14 12  2  0
 15 10  1  0
 16 27  1  0
 17 22  1  0
 18 13  1  0
 19  9  1  0
 20 15  2  0
 21 23  1  0
 22 24  1  0
 23 16  1  0
 24 16  1  0
 25 19  1  0
 26 20  1  0
 27 25  1  0
 28 20  1  0
 29 12  1  0
 30 14  1  0
 31 17  1  0
 32 29  2  0
 33 30  2  0
 11 13  1  0
 32 33  1  0
 26 18  2  0
 17 21  1  0
 35 37  1  0
 36 34  1  0
 37 36  2  0
 38 34  2  0
 39 35  2  0
 40 34  1  0
 41 35  1  0
  3 42  1  0
  4 43  1  0
  7 44  1  0
  8 45  1  0
 15 46  1  0
 18 47  1  0
 19 48  1  0
 19 49  1  0
 21 50  1  0
 21 51  1  0
 22 52  1  0
 22 53  1  0
 23 54  1  0
 23 55  1  0
 24 56  1  0
 24 57  1  0
 25 58  1  0
 25 59  1  0
 26 60  1  0
 27 61  1  0
 27 62  1  0
 29 63  1  0
 30 64  1  0
 31 65  1  0
 31 66  1  0
 31 67  1  0
 32 68  1  0
 33 69  1  0
 36 70  1  0
 37 71  1  0
 40 72  1  0
 41 73  1  0
M  END
$$$$
