
     RDKit          3D

 73 74  0  0  0  0  0  0  0  0999 V2000
    1.3064    0.1739   -0.6480 C   0  0  0  0  0  0  0  0  0  0  0  0
   -1.6556    0.1544   -0.1527 C   0  0  0  0  0  0  0  0  0  0  0  0
    0.5660   -0.9581   -0.0752 C   0  0  0  0  0  0  0  0  0  0  0  0
   -0.7615   -0.9767    0.1036 C   0  0  0  0  0  0  0  0  0  0  0  0
    0.8865    1.0665   -1.3565 O   0  0  0  0  0  0  0  0  0  0  0  0
   -2.7043    0.0897   -0.7653 O   0  0  0  0  0  0  0  0  0  0  0  0
    2.6024    0.0802   -0.3091 O   0  0  0  0  0  0  0  0  0  0  0  0
   -1.2502    1.2654    0.4786 O   0  0  0  0  0  0  0  0  0  0  0  0
   -2.4479   -0.1048    0.4817 N   0  0  0  0  0  0  0  0  0  0  0  0
   -2.9294    1.2099    0.2100 C   0  0  0  0  0  0  0  0  0  0  0  0
   -5.5602    0.2191    0.0920 S   0  0  0  0  0  0  0  0  0  0  0  0
   -3.2103   -1.3038    0.3647 C   0  0  0  0  0  0  0  0  0  0  0  0
   -4.3000    1.4668   -0.0050 C   0  0  0  0  0  0  0  0  0  0  0  0
   -4.6058   -1.2780    0.1646 C   0  0  0  0  0  0  0  0  0  0  0  0
   -2.0629    2.3227    0.1134 C   0  0  0  0  0  0  0  0  0  0  0  0
    2.4260   -0.6402   -0.4308 N   0  0  0  0  0  0  0  0  0  0  0  0
    5.1406    0.2387   -1.4432 N   0  0  0  0  0  0  0  0  0  0  0  0
   -4.7623    2.7691   -0.2842 C   0  0  0  0  0  0  0  0  0  0  0  0
   -1.0837   -0.2231    1.0479 C   0  0  0  0  0  0  0  0  0  0  0  0
   -2.5309    3.6106   -0.1667 C   0  0  0  0  0  0  0  0  0  0  0  0
    4.8801   -1.0542   -0.7825 C   0  0  0  0  0  0  0  0  0  0  0  0
    4.0117    1.1707   -1.2824 C   0  0  0  0  0  0  0  0  0  0  0  0
    3.6933   -1.0434    0.2070 C   0  0  0  0  0  0  0  0  0  0  0  0
    2.6312    0.4784   -1.3770 C   0  0  0  0  0  0  0  0  0  0  0  0
   -0.0210   -0.3986   -0.0468 C   0  0  0  0  0  0  0  0  0  0  0  0
   -3.8808    3.8411   -0.3649 C   0  0  0  0  0  0  0  0  0  0  0  0
    1.3843   -0.3869    0.5683 C   0  0  0  0  0  0  0  0  0  0  0  0
   -1.4166    4.9191   -0.2698 Cl  0  0  0  0  0  0  0  0  0  0  0  0
   -2.6139   -2.5848    0.4143 C   0  0  0  0  0  0  0  0  0  0  0  0
   -5.3456   -2.4713    0.0397 C   0  0  0  0  0  0  0  0  0  0  0  0
    6.3881    0.8467   -0.9940 C   0  0  0  0  0  0  0  0  0  0  0  0
   -3.3525   -3.7680    0.2868 C   0  0  0  0  0  0  0  0  0  0  0  0
   -4.7227   -3.7119    0.1007 C   0  0  0  0  0  0  0  0  0  0  0  0
   -0.8768    1.0710   -0.0551 C   0  0  0  0  0  0  0  0  0  0  0  0
    1.1248   -1.0661    0.6021 C   0  0  0  0  0  0  0  0  0  0  0  0
   -0.8923   -0.2840   -0.6217 C   0  0  0  0  0  0  0  0  0  0  0  0
   -0.0218   -1.2470   -0.2910 C   0  0  0  0  0  0  0  0  0  0  0  0
   -0.3972    1.4393    0.9979 O   0  0  0  0  0  0  0  0  0  0  0  0
    1.4272   -1.8168    1.5099 O   0  0  0  0  0  0  0  0  0  0  0  0
   -1.5377    1.9072   -0.8717 O   0  0  0  0  0  0  0  0  0  0  0  0
    1.8925   -0.0333    0.2268 O   0  0  0  0  0  0  0  0  0  0  0  0
    1.1591   -1.8314    0.1705 H   0  0  0  0  0  0  0  0  0  0  0  0
   -1.2602   -1.8757    0.4448 H   0  0  0  0  0  0  0  0  0  0  0  0
    3.0092    0.8660   -0.7305 H   0  0  0  0  0  0  0  0  0  0  0  0
   -1.8980    1.9459    0.2032 H   0  0  0  0  0  0  0  0  0  0  0  0
   -0.9910    2.2148    0.2355 H   0  0  0  0  0  0  0  0  0  0  0  0
   -5.8240    2.9525   -0.4402 H   0  0  0  0  0  0  0  0  0  0  0  0
   -1.0246   -1.0478    1.7702 H   0  0  0  0  0  0  0  0  0  0  0  0
   -0.8469    0.6481    1.6728 H   0  0  0  0  0  0  0  0  0  0  0  0
    4.6646   -1.7856   -1.5722 H   0  0  0  0  0  0  0  0  0  0  0  0
    5.7724   -1.4303   -0.2660 H   0  0  0  0  0  0  0  0  0  0  0  0
    4.0691    1.6874   -0.3143 H   0  0  0  0  0  0  0  0  0  0  0  0
    4.0734    1.9409   -2.0605 H   0  0  0  0  0  0  0  0  0  0  0  0
    3.9372   -0.3754    1.0444 H   0  0  0  0  0  0  0  0  0  0  0  0
    3.5771   -2.0519    0.6219 H   0  0  0  0  0  0  0  0  0  0  0  0
    2.5151    0.0717   -2.3896 H   0  0  0  0  0  0  0  0  0  0  0  0
    1.8608    1.2510   -1.2714 H   0  0  0  0  0  0  0  0  0  0  0  0
   -0.1775   -1.3413   -0.5831 H   0  0  0  0  0  0  0  0  0  0  0  0
   -0.1206    0.3899   -0.7993 H   0  0  0  0  0  0  0  0  0  0  0  0
   -4.2530    4.8378   -0.5826 H   0  0  0  0  0  0  0  0  0  0  0  0
    1.5689    0.5614    1.0893 H   0  0  0  0  0  0  0  0  0  0  0  0
    1.4157   -1.1789    1.3282 H   0  0  0  0  0  0  0  0  0  0  0  0
   -1.5432   -2.7102    0.5352 H   0  0  0  0  0  0  0  0  0  0  0  0
   -6.4234   -2.4351   -0.1071 H   0  0  0  0  0  0  0  0  0  0  0  0
    6.3807    1.0569    0.0815 H   0  0  0  0  0  0  0  0  0  0  0  0
    6.5745    1.7849   -1.5285 H   0  0  0  0  0  0  0  0  0  0  0  0
    7.2365    0.1884   -1.2115 H   0  0  0  0  0  0  0  0  0  0  0  0
   -2.8464   -4.7293    0.3277 H   0  0  0  0  0  0  0  0  0  0  0  0
   -5.3044   -4.6237   -0.0003 H   0  0  0  0  0  0  0  0  0  0  0  0
   -1.6961   -0.4934   -1.3180 H   0  0  0  0  0  0  0  0  0  0  0  0
   -0.1402   -2.2537   -0.6729 H   0  0  0  0  0  0  0  0  0  0  0  0
   -1.4754    2.7730   -0.4164 H   0  0  0  0  0  0  0  0  0  0  0  0
    2.5930    0.0037    0.9101 H   0  0  0  0  0  0  0  0  0  0  0  0
  2  4  1  0
  3  1  1  0
  4  3  2  0
  5  1  2  0
  6  2  2  0
  7  1  1  0
  8  2  1  0
 10  9  1  0
 11 14  1  0
 12  9  1  0
 13 10  2  0
 14 12  2  0
 15 10  1  0
 16 27  1  0
 17 22  1  0
 18 13  1  0
 19  9  1  0
 20 15  2  0
 21 23  1  0
 22 24  1  0
 23 16  1  0
 24 16  1  0
 25 19  1  0
 26 20  1  0
 27 25  1  0
 28 20  1  0
 29 12  1  0
 30 14  1  0
 31 17  1  0
 32 29  2  0
 33 30  2  0
 11 13  1  0
 32 33  1  0
 26 18  2  0
 17 21  1  0
 35 37  1  0
 36 34  1  0
 37 36  2  0
 38 34  2  0
 39 35  2  0
 40 34  1  0
 41 35  1  0
  3 42  1  0
  4 43  1  0
  7 44  1  0
  8 45  1  0
 15 46  1  0
 18 47  1  0
 19 48  1  0
 19 49  1  0
 21 50  1  0
 21 51  1  0
 22 52  1  0
 22 53  1  0
 23 54  1  0
 23 55  1  0
 24 56  1  0
 24 57  1  0
 25 58  1  0
 25 59  1  0
 26 60  1  0
 27 61  1  0
 27 62  1  0
 29 63  1  0
 30 64  1  0
 31 65  1  0
 31 66  1  0
 31 67  1  0
 32 68  1  0
 33 69  1  0
 36 70  1  0
 37 71  1  0
 40 72  1  0
 41 73  1  0
M  END
$$$$
