
     RDKit          3D

 73 74  0  0  0  0  0  0  0  0999 V2000
    1.4420    0.0095   -0.4640 C   0  0  0  0  0  0  0  0  0  0  0  0
   -1.4362    0.4701    0.0961 C   0  0  0  0  0  0  0  0  0  0  0  0
    0.6485   -0.8120    0.4556 C   0  0  0  0  0  0  0  0  0  0  0  0
   -0.6647   -0.6447    0.6551 C   0  0  0  0  0  0  0  0  0  0  0  0
    1.1033    0.4463   -1.5449 O   0  0  0  0  0  0  0  0  0  0  0  0
   -1.0783    1.6222   -0.0403 O   0  0  0  0  0  0  0  0  0  0  0  0
    2.6765    0.1823    0.0322 O   0  0  0  0  0  0  0  0  0  0  0  0
   -2.6749    0.0562   -0.2104 O   0  0  0  0  0  0  0  0  0  0  0  0
   -2.5069   -0.1674    0.0077 N   0  0  0  0  0  0  0  0  0  0  0  0
   -3.3375    0.9460   -0.3152 C   0  0  0  0  0  0  0  0  0  0  0  0
   -5.3563   -0.0781    1.3577 S   0  0  0  0  0  0  0  0  0  0  0  0
   -2.7601   -1.1148    1.0437 C   0  0  0  0  0  0  0  0  0  0  0  0
   -4.6227    1.0983    0.2476 C   0  0  0  0  0  0  0  0  0  0  0  0
   -3.9905   -1.1507    1.7308 C   0  0  0  0  0  0  0  0  0  0  0  0
   -2.9168    1.9706   -1.1940 C   0  0  0  0  0  0  0  0  0  0  0  0
    2.3508    0.6589   -0.8368 N   0  0  0  0  0  0  0  0  0  0  0  0
    5.1008   -0.4281   -0.0923 N   0  0  0  0  0  0  0  0  0  0  0  0
   -5.4323    2.2078   -0.0716 C   0  0  0  0  0  0  0  0  0  0  0  0
   -1.3377   -0.4197   -0.8669 C   0  0  0  0  0  0  0  0  0  0  0  0
   -3.7272    3.0681   -1.5037 C   0  0  0  0  0  0  0  0  0  0  0  0
    4.4744   -0.6271   -1.4143 C   0  0  0  0  0  0  0  0  0  0  0  0
    4.3060    0.4882    0.7506 C   0  0  0  0  0  0  0  0  0  0  0  0
    3.4453    0.4559   -1.8115 C   0  0  0  0  0  0  0  0  0  0  0  0
    2.7890    0.3055    0.5333 C   0  0  0  0  0  0  0  0  0  0  0  0
   -0.0730    0.2753   -0.3417 C   0  0  0  0  0  0  0  0  0  0  0  0
   -4.9876    3.1920   -0.9465 C   0  0  0  0  0  0  0  0  0  0  0  0
    1.1313   -0.0603   -1.2306 C   0  0  0  0  0  0  0  0  0  0  0  0
   -3.1509    4.2779   -2.5851 Cl  0  0  0  0  0  0  0  0  0  0  0  0
   -1.7894   -2.0552    1.4610 C   0  0  0  0  0  0  0  0  0  0  0  0
   -4.2229   -2.0857    2.7598 C   0  0  0  0  0  0  0  0  0  0  0  0
    6.4776    0.0451   -0.2042 C   0  0  0  0  0  0  0  0  0  0  0  0
   -2.0240   -2.9817    2.4848 C   0  0  0  0  0  0  0  0  0  0  0  0
   -3.2450   -2.9984    3.1359 C   0  0  0  0  0  0  0  0  0  0  0  0
   -1.6035   -0.4183   -0.0988 C   0  0  0  0  0  0  0  0  0  0  0  0
    1.2016    0.6134   -0.3045 C   0  0  0  0  0  0  0  0  0  0  0  0
   -0.4106   -1.1831    0.2710 C   0  0  0  0  0  0  0  0  0  0  0  0
    0.8417   -0.7099    0.2215 C   0  0  0  0  0  0  0  0  0  0  0  0
   -2.4901   -0.8165   -0.8293 O   0  0  0  0  0  0  0  0  0  0  0  0
    0.5703    1.3155   -1.0680 O   0  0  0  0  0  0  0  0  0  0  0  0
   -1.6740    0.7448    0.5642 O   0  0  0  0  0  0  0  0  0  0  0  0
    2.4133    0.9652    0.1546 O   0  0  0  0  0  0  0  0  0  0  0  0
    1.1847   -1.6114    0.9526 H   0  0  0  0  0  0  0  0  0  0  0  0
   -1.2181   -1.3266    1.2893 H   0  0  0  0  0  0  0  0  0  0  0  0
    3.1147    0.7505   -0.6362 H   0  0  0  0  0  0  0  0  0  0  0  0
   -3.0974    0.8577   -0.5850 H   0  0  0  0  0  0  0  0  0  0  0  0
   -1.9339    1.9542   -1.6519 H   0  0  0  0  0  0  0  0  0  0  0  0
   -6.4243    2.3074    0.3656 H   0  0  0  0  0  0  0  0  0  0  0  0
   -1.5435   -0.1090   -1.8995 H   0  0  0  0  0  0  0  0  0  0  0  0
   -1.1606   -1.4969   -0.9834 H   0  0  0  0  0  0  0  0  0  0  0  0
    5.2292   -0.7177   -2.2057 H   0  0  0  0  0  0  0  0  0  0  0  0
    3.9589   -1.5960   -1.3873 H   0  0  0  0  0  0  0  0  0  0  0  0
    4.5645    1.5373    0.5513 H   0  0  0  0  0  0  0  0  0  0  0  0
    4.5427    0.2925    1.8030 H   0  0  0  0  0  0  0  0  0  0  0  0
    3.0537    0.2379   -2.8129 H   0  0  0  0  0  0  0  0  0  0  0  0
    3.9750    1.4126   -1.9116 H   0  0  0  0  0  0  0  0  0  0  0  0
    2.2533    0.9402    1.2486 H   0  0  0  0  0  0  0  0  0  0  0  0
    2.5362   -0.7373    0.7695 H   0  0  0  0  0  0  0  0  0  0  0  0
   -0.2163    1.3614   -0.3128 H   0  0  0  0  0  0  0  0  0  0  0  0
    0.1188   -0.0310    0.6919 H   0  0  0  0  0  0  0  0  0  0  0  0
   -5.6228    4.0407   -1.1816 H   0  0  0  0  0  0  0  0  0  0  0  0
    0.8714    0.2251   -2.2581 H   0  0  0  0  0  0  0  0  0  0  0  0
    1.3048   -1.1441   -1.2329 H   0  0  0  0  0  0  0  0  0  0  0  0
   -0.8015   -2.0905    1.0140 H   0  0  0  0  0  0  0  0  0  0  0  0
   -5.1808   -2.1053    3.2761 H   0  0  0  0  0  0  0  0  0  0  0  0
    6.5439    1.0050   -0.7296 H   0  0  0  0  0  0  0  0  0  0  0  0
    7.0916   -0.6859   -0.7421 H   0  0  0  0  0  0  0  0  0  0  0  0
    6.9270    0.1616    0.7884 H   0  0  0  0  0  0  0  0  0  0  0  0
   -1.2441   -3.6833    2.7706 H   0  0  0  0  0  0  0  0  0  0  0  0
   -3.4374   -3.7123    3.9316 H   0  0  0  0  0  0  0  0  0  0  0  0
   -0.6058   -2.2017    0.5836 H   0  0  0  0  0  0  0  0  0  0  0  0
    1.6702   -1.3298    0.5439 H   0  0  0  0  0  0  0  0  0  0  0  0
   -2.4787    1.1737    0.2078 H   0  0  0  0  0  0  0  0  0  0  0  0
    2.5657    1.8467   -0.2459 H   0  0  0  0  0  0  0  0  0  0  0  0
  2  4  1  0
  3  1  1  0
  4  3  2  0
  5  1  2  0
  6  2  2  0
  7  1  1  0
  8  2  1  0
 10  9  1  0
 11 14  1  0
 12  9  1  0
 13 10  2  0
 14 12  2  0
 15 10  1  0
 16 27  1  0
 17 22  1  0
 18 13  1  0
 19  9  1  0
 20 15  2  0
 21 23  1  0
 22 24  1  0
 23 16  1  0
 24 16  1  0
 25 19  1  0
 26 20  1  0
 27 25  1  0
 28 20  1  0
 29 12  1  0
 30 14  1  0
 31 17  1  0
 32 29  2  0
 33 30  2  0
 11 13  1  0
 32 33  1  0
 26 18  2  0
 17 21  1  0
 35 37  1  0
 36 34  1  0
 37 36  2  0
 38 34  2  0
 39 35  2  0
 40 34  1  0
 41 35  1  0
  3 42  1  0
  4 43  1  0
  7 44  1  0
  8 45  1  0
 15 46  1  0
 18 47  1  0
 19 48  1  0
 19 49  1  0
 21 50  1  0
 21 51  1  0
 22 52  1  0
 22 53  1  0
 23 54  1  0
 23 55  1  0
 24 56  1  0
 24 57  1  0
 25 58  1  0
 25 59  1  0
 26 60  1  0
 27 61  1  0
 27 62  1  0
 29 63  1  0
 30 64  1  0
 31 65  1  0
 31 66  1  0
 31 67  1  0
 32 68  1  0
 33 69  1  0
 36 70  1  0
 37 71  1  0
 40 72  1  0
 41 73  1  0
M  END
$$$$
