
     RDKit          3D

 73 74  0  0  0  0  0  0  0  0999 V2000
    1.6327    0.2901    0.1303 C   0  0  0  0  0  0  0  0  0  0  0  0
   -1.2314   -0.6085    0.1826 C   0  0  0  0  0  0  0  0  0  0  0  0
    0.4780    1.1867    0.0448 C   0  0  0  0  0  0  0  0  0  0  0  0
   -0.8005    0.7866    0.0231 C   0  0  0  0  0  0  0  0  0  0  0  0
    2.5777    0.4388    0.8815 O   0  0  0  0  0  0  0  0  0  0  0  0
   -0.6282   -1.5276    0.6987 O   0  0  0  0  0  0  0  0  0  0  0  0
    1.5978   -0.6606   -0.8140 O   0  0  0  0  0  0  0  0  0  0  0  0
   -2.4747   -0.7535   -0.3034 O   0  0  0  0  0  0  0  0  0  0  0  0
   -2.1996    0.0485    0.0519 N   0  0  0  0  0  0  0  0  0  0  0  0
   -2.3100    1.4318   -0.2773 C   0  0  0  0  0  0  0  0  0  0  0  0
   -5.0942    1.3066    0.1163 S   0  0  0  0  0  0  0  0  0  0  0  0
   -3.2931   -0.8536    0.2104 C   0  0  0  0  0  0  0  0  0  0  0  0
   -3.5569    2.0916   -0.3007 C   0  0  0  0  0  0  0  0  0  0  0  0
   -4.6288   -0.4032    0.2340 C   0  0  0  0  0  0  0  0  0  0  0  0
   -1.1857    2.2153   -0.6223 C   0  0  0  0  0  0  0  0  0  0  0  0
    2.1491   -0.9110    0.0650 N   0  0  0  0  0  0  0  0  0  0  0  0
    4.3628    0.5972    0.9394 N   0  0  0  0  0  0  0  0  0  0  0  0
   -3.6533    3.4578   -0.6379 C   0  0  0  0  0  0  0  0  0  0  0  0
   -0.8418   -0.4717    0.3599 C   0  0  0  0  0  0  0  0  0  0  0  0
   -1.2908    3.5685   -0.9597 C   0  0  0  0  0  0  0  0  0  0  0  0
    4.0814    0.6794   -0.4964 C   0  0  0  0  0  0  0  0  0  0  0  0
    4.2805   -0.7993    1.4045 C   0  0  0  0  0  0  0  0  0  0  0  0
    2.6772    0.1201   -0.8566 C   0  0  0  0  0  0  0  0  0  0  0  0
    3.2595   -1.6854    0.6384 C   0  0  0  0  0  0  0  0  0  0  0  0
   -0.1635   -1.0463   -0.8939 C   0  0  0  0  0  0  0  0  0  0  0  0
   -2.5231    4.1970   -0.9673 C   0  0  0  0  0  0  0  0  0  0  0  0
    1.1451   -1.7736   -0.5621 C   0  0  0  0  0  0  0  0  0  0  0  0
    0.1240    4.4577   -1.3758 Cl  0  0  0  0  0  0  0  0  0  0  0  0
   -3.1086   -2.2510    0.3285 C   0  0  0  0  0  0  0  0  0  0  0  0
   -5.7000   -1.3077    0.3840 C   0  0  0  0  0  0  0  0  0  0  0  0
    5.6387    1.2068    1.2876 C   0  0  0  0  0  0  0  0  0  0  0  0
   -4.1760   -3.1461    0.4753 C   0  0  0  0  0  0  0  0  0  0  0  0
   -5.4762   -2.6734    0.5050 C   0  0  0  0  0  0  0  0  0  0  0  0
    1.2600   -0.2606    0.5090 C   0  0  0  0  0  0  0  0  0  0  0  0
   -1.6559    0.0049   -0.1367 C   0  0  0  0  0  0  0  0  0  0  0  0
    0.6679    0.8805   -0.2019 C   0  0  0  0  0  0  0  0  0  0  0  0
   -0.6417    1.0139   -0.4500 C   0  0  0  0  0  0  0  0  0  0  0  0
    0.7185   -1.0308    1.2759 O   0  0  0  0  0  0  0  0  0  0  0  0
   -2.7112    0.2268    0.4252 O   0  0  0  0  0  0  0  0  0  0  0  0
    2.5706   -0.3348    0.2274 O   0  0  0  0  0  0  0  0  0  0  0  0
   -1.3447   -1.1924   -0.6533 O   0  0  0  0  0  0  0  0  0  0  0  0
    0.7277    2.2403    0.0156 H   0  0  0  0  0  0  0  0  0  0  0  0
   -1.5963    1.5157   -0.0757 H   0  0  0  0  0  0  0  0  0  0  0  0
    2.3899   -1.2067   -0.6320 H   0  0  0  0  0  0  0  0  0  0  0  0
   -2.6728   -1.7013   -0.1516 H   0  0  0  0  0  0  0  0  0  0  0  0
   -0.1905    1.7886   -0.6497 H   0  0  0  0  0  0  0  0  0  0  0  0
   -4.6219    3.9545   -0.6428 H   0  0  0  0  0  0  0  0  0  0  0  0
   -0.8868   -1.2289    1.1529 H   0  0  0  0  0  0  0  0  0  0  0  0
   -0.2186    0.3040    0.8216 H   0  0  0  0  0  0  0  0  0  0  0  0
    4.8424    0.1201   -1.0575 H   0  0  0  0  0  0  0  0  0  0  0  0
    4.1314    1.7210   -0.8361 H   0  0  0  0  0  0  0  0  0  0  0  0
    5.2579   -1.2958    1.3415 H   0  0  0  0  0  0  0  0  0  0  0  0
    3.9989   -0.7764    2.4644 H   0  0  0  0  0  0  0  0  0  0  0  0
    1.9717    0.9578   -0.8577 H   0  0  0  0  0  0  0  0  0  0  0  0
    2.7302   -0.2609   -1.8847 H   0  0  0  0  0  0  0  0  0  0  0  0
    2.8771   -2.4395    1.3371 H   0  0  0  0  0  0  0  0  0  0  0  0
    3.7853   -2.2234   -0.1621 H   0  0  0  0  0  0  0  0  0  0  0  0
    0.0146   -0.2599   -1.6351 H   0  0  0  0  0  0  0  0  0  0  0  0
   -0.8306   -1.7615   -1.3898 H   0  0  0  0  0  0  0  0  0  0  0  0
   -2.6142    5.2478   -1.2250 H   0  0  0  0  0  0  0  0  0  0  0  0
    1.5462   -2.2376   -1.4724 H   0  0  0  0  0  0  0  0  0  0  0  0
    0.8959   -2.5980    0.1190 H   0  0  0  0  0  0  0  0  0  0  0  0
   -2.1212   -2.6992    0.2951 H   0  0  0  0  0  0  0  0  0  0  0  0
   -6.7253   -0.9429    0.4089 H   0  0  0  0  0  0  0  0  0  0  0  0
    6.4820    0.7141    0.7912 H   0  0  0  0  0  0  0  0  0  0  0  0
    5.8027    1.1648    2.3701 H   0  0  0  0  0  0  0  0  0  0  0  0
    5.6483    2.2659    1.0076 H   0  0  0  0  0  0  0  0  0  0  0  0
   -3.9813   -4.2120    0.5623 H   0  0  0  0  0  0  0  0  0  0  0  0
   -6.3113   -3.3585    0.6193 H   0  0  0  0  0  0  0  0  0  0  0  0
    1.3590    1.6628   -0.4942 H   0  0  0  0  0  0  0  0  0  0  0  0
   -1.0305    1.9212   -0.8961 H   0  0  0  0  0  0  0  0  0  0  0  0
    2.8738   -1.1125    0.7407 H   0  0  0  0  0  0  0  0  0  0  0  0
   -2.0658   -1.7790   -0.3459 H   0  0  0  0  0  0  0  0  0  0  0  0
  2  4  1  0
  3  1  1  0
  4  3  2  0
  5  1  2  0
  6  2  2  0
  7  1  1  0
  8  2  1  0
 10  9  1  0
 11 14  1  0
 12  9  1  0
 13 10  2  0
 14 12  2  0
 15 10  1  0
 16 27  1  0
 17 22  1  0
 18 13  1  0
 19  9  1  0
 20 15  2  0
 21 23  1  0
 22 24  1  0
 23 16  1  0
 24 16  1  0
 25 19  1  0
 26 20  1  0
 27 25  1  0
 28 20  1  0
 29 12  1  0
 30 14  1  0
 31 17  1  0
 32 29  2  0
 33 30  2  0
 11 13  1  0
 32 33  1  0
 26 18  2  0
 17 21  1  0
 35 37  1  0
 36 34  1  0
 37 36  2  0
 38 34  2  0
 39 35  2  0
 40 34  1  0
 41 35  1  0
  3 42  1  0
  4 43  1  0
  7 44  1  0
  8 45  1  0
 15 46  1  0
 18 47  1  0
 19 48  1  0
 19 49  1  0
 21 50  1  0
 21 51  1  0
 22 52  1  0
 22 53  1  0
 23 54  1  0
 23 55  1  0
 24 56  1  0
 24 57  1  0
 25 58  1  0
 25 59  1  0
 26 60  1  0
 27 61  1  0
 27 62  1  0
 29 63  1  0
 30 64  1  0
 31 65  1  0
 31 66  1  0
 31 67  1  0
 32 68  1  0
 33 69  1  0
 36 70  1  0
 37 71  1  0
 40 72  1  0
 41 73  1  0
M  END
$$$$
