
     RDKit          3D

 73 74  0  0  0  0  0  0  0  0999 V2000
    1.4797   -0.0062    0.4142 C   0  0  0  0  0  0  0  0  0  0  0  0
   -1.4664    0.2162   -0.3994 C   0  0  0  0  0  0  0  0  0  0  0  0
    0.5857   -1.1232    0.0959 C   0  0  0  0  0  0  0  0  0  0  0  0
   -0.7127   -1.0280   -0.2215 C   0  0  0  0  0  0  0  0  0  0  0  0
    2.6604    0.0396    0.1221 O   0  0  0  0  0  0  0  0  0  0  0  0
   -2.6311    0.3715   -0.0825 O   0  0  0  0  0  0  0  0  0  0  0  0
    0.8980    0.9243    1.1847 O   0  0  0  0  0  0  0  0  0  0  0  0
   -0.7793    1.1488   -1.0750 O   0  0  0  0  0  0  0  0  0  0  0  0
   -2.5278   -0.0527   -0.5793 N   0  0  0  0  0  0  0  0  0  0  0  0
   -3.2944    0.7331    0.3314 C   0  0  0  0  0  0  0  0  0  0  0  0
   -5.4320   -1.0826    0.0940 S   0  0  0  0  0  0  0  0  0  0  0  0
   -2.8684   -1.3621   -1.0304 C   0  0  0  0  0  0  0  0  0  0  0  0
   -4.5974    0.3548    0.7198 C   0  0  0  0  0  0  0  0  0  0  0  0
   -4.1304   -1.9323   -0.7659 C   0  0  0  0  0  0  0  0  0  0  0  0
   -2.7892    1.9177    0.9149 C   0  0  0  0  0  0  0  0  0  0  0  0
    2.3772    0.8146   -0.2500 N   0  0  0  0  0  0  0  0  0  0  0  0
    4.9366    0.3293    0.8687 N   0  0  0  0  0  0  0  0  0  0  0  0
   -5.3433    1.1343    1.6274 C   0  0  0  0  0  0  0  0  0  0  0  0
   -1.3351    0.5833   -1.1865 C   0  0  0  0  0  0  0  0  0  0  0  0
   -3.5371    2.6840    1.8151 C   0  0  0  0  0  0  0  0  0  0  0  0
    4.3216   -0.8030    0.1717 C   0  0  0  0  0  0  0  0  0  0  0  0
    4.7536    1.5760    0.1025 C   0  0  0  0  0  0  0  0  0  0  0  0
    2.8035   -0.5909   -0.0818 C   0  0  0  0  0  0  0  0  0  0  0  0
    3.4799    1.6238   -0.7856 C   0  0  0  0  0  0  0  0  0  0  0  0
   -0.0633    0.3096   -0.3707 C   0  0  0  0  0  0  0  0  0  0  0  0
   -4.8164    2.2982    2.1747 C   0  0  0  0  0  0  0  0  0  0  0  0
    1.1531    0.9582   -1.0423 C   0  0  0  0  0  0  0  0  0  0  0  0
   -2.8602    4.1190    2.4841 Cl  0  0  0  0  0  0  0  0  0  0  0  0
   -1.9579   -2.1754   -1.7443 C   0  0  0  0  0  0  0  0  0  0  0  0
   -4.4495   -3.2322   -1.2080 C   0  0  0  0  0  0  0  0  0  0  0  0
    6.3385    0.0898    1.1831 C   0  0  0  0  0  0  0  0  0  0  0  0
   -2.2783   -3.4674   -2.1798 C   0  0  0  0  0  0  0  0  0  0  0  0
   -3.5283   -3.9977   -1.9123 C   0  0  0  0  0  0  0  0  0  0  0  0
   -1.6605   -0.0534   -0.0362 C   0  0  0  0  0  0  0  0  0  0  0  0
    1.2856    0.1048    0.5031 C   0  0  0  0  0  0  0  0  0  0  0  0
   -0.6377   -0.7788   -0.7929 C   0  0  0  0  0  0  0  0  0  0  0  0
    0.6814   -0.6776   -0.5835 C   0  0  0  0  0  0  0  0  0  0  0  0
   -2.6668   -0.5510    0.4316 O   0  0  0  0  0  0  0  0  0  0  0  0
    0.7802    0.4478    1.5527 O   0  0  0  0  0  0  0  0  0  0  0  0
   -1.4268    1.2666   -0.0192 O   0  0  0  0  0  0  0  0  0  0  0  0
    2.5640    0.3820    0.2003 O   0  0  0  0  0  0  0  0  0  0  0  0
    1.0653   -2.0947    0.1326 H   0  0  0  0  0  0  0  0  0  0  0  0
   -1.3032   -1.9254   -0.3675 H   0  0  0  0  0  0  0  0  0  0  0  0
    1.6094    1.5790    1.3391 H   0  0  0  0  0  0  0  0  0  0  0  0
   -1.4059    1.8981   -1.1427 H   0  0  0  0  0  0  0  0  0  0  0  0
   -1.7865    2.2709    0.6999 H   0  0  0  0  0  0  0  0  0  0  0  0
   -6.3498    0.8324    1.9120 H   0  0  0  0  0  0  0  0  0  0  0  0
   -1.4853    1.6641   -1.3083 H   0  0  0  0  0  0  0  0  0  0  0  0
   -1.1999    0.2529   -2.2248 H   0  0  0  0  0  0  0  0  0  0  0  0
    4.8241   -0.9637   -0.7919 H   0  0  0  0  0  0  0  0  0  0  0  0
    4.4446   -1.7228    0.7563 H   0  0  0  0  0  0  0  0  0  0  0  0
    4.7091    2.4004    0.8248 H   0  0  0  0  0  0  0  0  0  0  0  0
    5.6142    1.7681   -0.5520 H   0  0  0  0  0  0  0  0  0  0  0  0
    2.5351   -1.1898   -0.9616 H   0  0  0  0  0  0  0  0  0  0  0  0
    2.2534   -1.0028    0.7727 H   0  0  0  0  0  0  0  0  0  0  0  0
    3.1725    2.6727   -0.8783 H   0  0  0  0  0  0  0  0  0  0  0  0
    3.7367    1.2729   -1.7946 H   0  0  0  0  0  0  0  0  0  0  0  0
   -0.1701    0.6977    0.6487 H   0  0  0  0  0  0  0  0  0  0  0  0
    0.0899   -0.7696   -0.2665 H   0  0  0  0  0  0  0  0  0  0  0  0
   -5.4032    2.8872    2.8733 H   0  0  0  0  0  0  0  0  0  0  0  0
    0.9356    2.0269   -1.1652 H   0  0  0  0  0  0  0  0  0  0  0  0
    1.2923    0.5437   -2.0490 H   0  0  0  0  0  0  0  0  0  0  0  0
   -0.9526   -1.8385   -1.9736 H   0  0  0  0  0  0  0  0  0  0  0  0
   -5.4307   -3.6558   -1.0017 H   0  0  0  0  0  0  0  0  0  0  0  0
    6.9433   -0.0678    0.2828 H   0  0  0  0  0  0  0  0  0  0  0  0
    6.7586    0.9362    1.7375 H   0  0  0  0  0  0  0  0  0  0  0  0
    6.4433   -0.7915    1.8251 H   0  0  0  0  0  0  0  0  0  0  0  0
   -1.5423   -4.0548   -2.7230 H   0  0  0  0  0  0  0  0  0  0  0  0
   -3.7870   -4.9988   -2.2452 H   0  0  0  0  0  0  0  0  0  0  0  0
   -1.0272   -1.4441   -1.5537 H   0  0  0  0  0  0  0  0  0  0  0  0
    1.3755   -1.2243   -1.2115 H   0  0  0  0  0  0  0  0  0  0  0  0
   -2.1461    1.6290    0.5377 H   0  0  0  0  0  0  0  0  0  0  0  0
    2.8784    0.8990    0.9716 H   0  0  0  0  0  0  0  0  0  0  0  0
  2  4  1  0
  3  1  1  0
  4  3  2  0
  5  1  2  0
  6  2  2  0
  7  1  1  0
  8  2  1  0
 10  9  1  0
 11 14  1  0
 12  9  1  0
 13 10  2  0
 14 12  2  0
 15 10  1  0
 16 27  1  0
 17 22  1  0
 18 13  1  0
 19  9  1  0
 20 15  2  0
 21 23  1  0
 22 24  1  0
 23 16  1  0
 24 16  1  0
 25 19  1  0
 26 20  1  0
 27 25  1  0
 28 20  1  0
 29 12  1  0
 30 14  1  0
 31 17  1  0
 32 29  2  0
 33 30  2  0
 11 13  1  0
 32 33  1  0
 26 18  2  0
 17 21  1  0
 35 37  1  0
 36 34  1  0
 37 36  2  0
 38 34  2  0
 39 35  2  0
 40 34  1  0
 41 35  1  0
  3 42  1  0
  4 43  1  0
  7 44  1  0
  8 45  1  0
 15 46  1  0
 18 47  1  0
 19 48  1  0
 19 49  1  0
 21 50  1  0
 21 51  1  0
 22 52  1  0
 22 53  1  0
 23 54  1  0
 23 55  1  0
 24 56  1  0
 24 57  1  0
 25 58  1  0
 25 59  1  0
 26 60  1  0
 27 61  1  0
 27 62  1  0
 29 63  1  0
 30 64  1  0
 31 65  1  0
 31 66  1  0
 31 67  1  0
 32 68  1  0
 33 69  1  0
 36 70  1  0
 37 71  1  0
 40 72  1  0
 41 73  1  0
M  END
$$$$
