
     RDKit          3D

 73 74  0  0  0  0  0  0  0  0999 V2000
   -1.5286    0.0496   -0.0912 C   0  0  0  0  0  0  0  0  0  0  0  0
    1.5114   -0.2609    0.0796 C   0  0  0  0  0  0  0  0  0  0  0  0
   -0.5616    1.1375    0.0764 C   0  0  0  0  0  0  0  0  0  0  0  0
    0.7716    1.0037    0.1102 C   0  0  0  0  0  0  0  0  0  0  0  0
   -2.6108   -0.0076    0.4621 O   0  0  0  0  0  0  0  0  0  0  0  0
    2.5902   -0.4182   -0.4615 O   0  0  0  0  0  0  0  0  0  0  0  0
   -1.1573   -0.8336   -1.0295 O   0  0  0  0  0  0  0  0  0  0  0  0
    0.9411   -1.2176    0.8261 O   0  0  0  0  0  0  0  0  0  0  0  0
   -2.2505    0.5692   -0.1871 N   0  0  0  0  0  0  0  0  0  0  0  0
   -2.6085   -0.3808   -1.1889 C   0  0  0  0  0  0  0  0  0  0  0  0
   -5.3312    0.0871   -0.6561 S   0  0  0  0  0  0  0  0  0  0  0  0
   -3.1440    1.1415    0.7653 C   0  0  0  0  0  0  0  0  0  0  0  0
   -3.9562   -0.6929   -1.4657 C   0  0  0  0  0  0  0  0  0  0  0  0
   -4.5403    0.9710    0.6670 C   0  0  0  0  0  0  0  0  0  0  0  0
   -1.6380   -1.0827   -1.9400 C   0  0  0  0  0  0  0  0  0  0  0  0
    2.4608    0.1124    1.4251 N   0  0  0  0  0  0  0  0  0  0  0  0
    4.8268   -0.9266   -0.0937 N   0  0  0  0  0  0  0  0  0  0  0  0
   -4.2968   -1.6430   -2.4501 C   0  0  0  0  0  0  0  0  0  0  0  0
   -0.8667    1.0975   -0.2181 C   0  0  0  0  0  0  0  0  0  0  0  0
   -1.9858   -2.0262   -2.9121 C   0  0  0  0  0  0  0  0  0  0  0  0
    3.5285   -1.6234   -0.1135 C   0  0  0  0  0  0  0  0  0  0  0  0
    4.6359    0.5135    0.1504 C   0  0  0  0  0  0  0  0  0  0  0  0
    2.6852   -1.3250    1.1495 C   0  0  0  0  0  0  0  0  0  0  0  0
    3.7803    0.7867    1.4112 C   0  0  0  0  0  0  0  0  0  0  0  0
    0.0818    0.2733    0.6654 C   0  0  0  0  0  0  0  0  0  0  0  0
   -3.3146   -2.3099   -3.1737 C   0  0  0  0  0  0  0  0  0  0  0  0
    1.5277    0.7542    0.4878 C   0  0  0  0  0  0  0  0  0  0  0  0
   -0.7484   -2.8441   -3.7867 Cl  0  0  0  0  0  0  0  0  0  0  0  0
   -2.6862    1.8881    1.8752 C   0  0  0  0  0  0  0  0  0  0  0  0
   -5.4115    1.5346    1.6210 C   0  0  0  0  0  0  0  0  0  0  0  0
    5.5691   -1.1588   -1.3293 C   0  0  0  0  0  0  0  0  0  0  0  0
   -3.5553    2.4439    2.8224 C   0  0  0  0  0  0  0  0  0  0  0  0
   -4.9222    2.2688    2.6946 C   0  0  0  0  0  0  0  0  0  0  0  0
    1.6415   -0.1066    0.2373 C   0  0  0  0  0  0  0  0  0  0  0  0
   -1.3333    0.2750    0.2512 C   0  0  0  0  0  0  0  0  0  0  0  0
    0.6899   -0.9764   -0.4569 C   0  0  0  0  0  0  0  0  0  0  0  0
   -0.6357   -0.7840   -0.4892 C   0  0  0  0  0  0  0  0  0  0  0  0
    2.5228   -0.4892    0.9825 O   0  0  0  0  0  0  0  0  0  0  0  0
   -0.9491    0.8915    1.2243 O   0  0  0  0  0  0  0  0  0  0  0  0
    1.5122    1.1733   -0.1404 O   0  0  0  0  0  0  0  0  0  0  0  0
   -2.5489    0.4710   -0.2843 O   0  0  0  0  0  0  0  0  0  0  0  0
   -1.0127    2.1176    0.1795 H   0  0  0  0  0  0  0  0  0  0  0  0
    1.4038    1.8825    0.1652 H   0  0  0  0  0  0  0  0  0  0  0  0
   -1.8979   -1.4739   -1.0543 H   0  0  0  0  0  0  0  0  0  0  0  0
    1.5507   -1.9790    0.7376 H   0  0  0  0  0  0  0  0  0  0  0  0
   -0.5777   -0.9280   -1.7758 H   0  0  0  0  0  0  0  0  0  0  0  0
   -5.3419   -1.8664   -2.6576 H   0  0  0  0  0  0  0  0  0  0  0  0
   -0.8382    2.1546    0.0769 H   0  0  0  0  0  0  0  0  0  0  0  0
   -0.4906    1.1361   -1.2492 H   0  0  0  0  0  0  0  0  0  0  0  0
    2.9554   -1.3514   -1.0091 H   0  0  0  0  0  0  0  0  0  0  0  0
    3.7016   -2.7056   -0.1588 H   0  0  0  0  0  0  0  0  0  0  0  0
    4.1683    0.9944   -0.7184 H   0  0  0  0  0  0  0  0  0  0  0  0
    5.6138    0.9891    0.2938 H   0  0  0  0  0  0  0  0  0  0  0  0
    3.2028   -1.7529    2.0190 H   0  0  0  0  0  0  0  0  0  0  0  0
    1.7371   -1.8694    1.0935 H   0  0  0  0  0  0  0  0  0  0  0  0
    3.6543    1.8686    1.5424 H   0  0  0  0  0  0  0  0  0  0  0  0
    4.3408    0.4508    2.2943 H   0  0  0  0  0  0  0  0  0  0  0  0
   -0.2085    0.3566    1.7187 H   0  0  0  0  0  0  0  0  0  0  0  0
   -0.0018   -0.7879    0.4127 H   0  0  0  0  0  0  0  0  0  0  0  0
   -3.5937   -3.0405   -3.9272 H   0  0  0  0  0  0  0  0  0  0  0  0
    1.5348    1.8357    0.6763 H   0  0  0  0  0  0  0  0  0  0  0  0
    1.8356    0.6168   -0.5552 H   0  0  0  0  0  0  0  0  0  0  0  0
   -1.6287    2.0500    2.0563 H   0  0  0  0  0  0  0  0  0  0  0  0
   -6.4877    1.4010    1.5276 H   0  0  0  0  0  0  0  0  0  0  0  0
    5.0423   -0.7717   -2.2093 H   0  0  0  0  0  0  0  0  0  0  0  0
    5.7456   -2.2299   -1.4761 H   0  0  0  0  0  0  0  0  0  0  0  0
    6.5542   -0.6811   -1.2802 H   0  0  0  0  0  0  0  0  0  0  0  0
   -3.1534    3.0075    3.6609 H   0  0  0  0  0  0  0  0  0  0  0  0
   -5.6044    2.6952    3.4246 H   0  0  0  0  0  0  0  0  0  0  0  0
    1.1371   -1.8313   -0.9494 H   0  0  0  0  0  0  0  0  0  0  0  0
   -1.2685   -1.4595   -1.0536 H   0  0  0  0  0  0  0  0  0  0  0  0
    2.1650    1.6519    0.4106 H   0  0  0  0  0  0  0  0  0  0  0  0
   -2.9329    1.1843    0.2679 H   0  0  0  0  0  0  0  0  0  0  0  0
  2  4  1  0
  3  1  1  0
  4  3  2  0
  5  1  2  0
  6  2  2  0
  7  1  1  0
  8  2  1  0
 10  9  1  0
 11 14  1  0
 12  9  1  0
 13 10  2  0
 14 12  2  0
 15 10  1  0
 16 27  1  0
 17 22  1  0
 18 13  1  0
 19  9  1  0
 20 15  2  0
 21 23  1  0
 22 24  1  0
 23 16  1  0
 24 16  1  0
 25 19  1  0
 26 20  1  0
 27 25  1  0
 28 20  1  0
 29 12  1  0
 30 14  1  0
 31 17  1  0
 32 29  2  0
 33 30  2  0
 11 13  1  0
 32 33  1  0
 26 18  2  0
 17 21  1  0
 35 37  1  0
 36 34  1  0
 37 36  2  0
 38 34  2  0
 39 35  2  0
 40 34  1  0
 41 35  1  0
  3 42  1  0
  4 43  1  0
  7 44  1  0
  8 45  1  0
 15 46  1  0
 18 47  1  0
 19 48  1  0
 19 49  1  0
 21 50  1  0
 21 51  1  0
 22 52  1  0
 22 53  1  0
 23 54  1  0
 23 55  1  0
 24 56  1  0
 24 57  1  0
 25 58  1  0
 25 59  1  0
 26 60  1  0
 27 61  1  0
 27 62  1  0
 29 63  1  0
 30 64  1  0
 31 65  1  0
 31 66  1  0
 31 67  1  0
 32 68  1  0
 33 69  1  0
 36 70  1  0
 37 71  1  0
 40 72  1  0
 41 73  1  0
M  END
$$$$
