
     RDKit          3D

 73 74  0  0  0  0  0  0  0  0999 V2000
    1.5337   -0.0475   -0.0109 C   0  0  0  0  0  0  0  0  0  0  0  0
   -1.5259   -0.1618   -0.0235 C   0  0  0  0  0  0  0  0  0  0  0  0
    0.6288    1.0859    0.1998 C   0  0  0  0  0  0  0  0  0  0  0  0
   -0.7098    1.0423    0.1551 C   0  0  0  0  0  0  0  0  0  0  0  0
    2.5857   -0.2123    0.5783 O   0  0  0  0  0  0  0  0  0  0  0  0
   -2.5715   -0.2035   -0.6450 O   0  0  0  0  0  0  0  0  0  0  0  0
    1.1516   -0.8367   -1.0253 O   0  0  0  0  0  0  0  0  0  0  0  0
   -1.0724   -1.2074    0.6827 O   0  0  0  0  0  0  0  0  0  0  0  0
   -2.1290   -0.2895   -0.0016 N   0  0  0  0  0  0  0  0  0  0  0  0
   -3.2018   -1.1832    0.2884 C   0  0  0  0  0  0  0  0  0  0  0  0
   -5.0557    0.8274   -0.3779 S   0  0  0  0  0  0  0  0  0  0  0  0
   -2.2600    1.1116   -0.2393 C   0  0  0  0  0  0  0  0  0  0  0  0
   -4.5502   -0.7835    0.1731 C   0  0  0  0  0  0  0  0  0  0  0  0
   -3.5209    1.7214   -0.3993 C   0  0  0  0  0  0  0  0  0  0  0  0
   -2.9801   -2.5077    0.7307 C   0  0  0  0  0  0  0  0  0  0  0  0
    2.5321   -0.9724    0.5795 N   0  0  0  0  0  0  0  0  0  0  0  0
    4.3233    1.0513   -0.5863 N   0  0  0  0  0  0  0  0  0  0  0  0
   -5.6029   -1.6735    0.4700 C   0  0  0  0  0  0  0  0  0  0  0  0
   -0.7765   -0.8770   -0.1714 C   0  0  0  0  0  0  0  0  0  0  0  0
   -4.0312   -3.3827    1.0246 C   0  0  0  0  0  0  0  0  0  0  0  0
    3.9363   -0.1726   -1.3172 C   0  0  0  0  0  0  0  0  0  0  0  0
    4.2861    0.7850    0.8662 C   0  0  0  0  0  0  0  0  0  0  0  0
    2.5555   -0.7030   -0.8622 C   0  0  0  0  0  0  0  0  0  0  0  0
    2.9150    0.2351    1.3286 C   0  0  0  0  0  0  0  0  0  0  0  0
    0.0029   -0.8801    1.1502 C   0  0  0  0  0  0  0  0  0  0  0  0
   -5.3460   -2.9719    0.8944 C   0  0  0  0  0  0  0  0  0  0  0  0
    1.3347   -1.6417    1.0857 C   0  0  0  0  0  0  0  0  0  0  0  0
   -3.6860   -4.9832    1.5582 Cl  0  0  0  0  0  0  0  0  0  0  0  0
   -1.1410    1.9745   -0.3050 C   0  0  0  0  0  0  0  0  0  0  0  0
   -3.6358    3.1086   -0.6223 C   0  0  0  0  0  0  0  0  0  0  0  0
    5.6536    1.4972   -0.9948 C   0  0  0  0  0  0  0  0  0  0  0  0
   -1.2598    3.3525   -0.5251 C   0  0  0  0  0  0  0  0  0  0  0  0
   -2.5108    3.9218   -0.6853 C   0  0  0  0  0  0  0  0  0  0  0  0
   -1.5019   -0.2798    0.7472 C   0  0  0  0  0  0  0  0  0  0  0  0
    1.0271    0.6495   -0.5677 C   0  0  0  0  0  0  0  0  0  0  0  0
   -0.5334   -1.1636    0.0954 C   0  0  0  0  0  0  0  0  0  0  0  0
    0.6181   -0.7568   -0.4555 C   0  0  0  0  0  0  0  0  0  0  0  0
   -2.6989   -0.2774    0.5344 O   0  0  0  0  0  0  0  0  0  0  0  0
    0.3282    1.6418   -0.5286 O   0  0  0  0  0  0  0  0  0  0  0  0
   -0.9325    0.4556    1.7127 O   0  0  0  0  0  0  0  0  0  0  0  0
    2.3521    0.7169   -0.7752 O   0  0  0  0  0  0  0  0  0  0  0  0
    1.1350    2.0212    0.4099 H   0  0  0  0  0  0  0  0  0  0  0  0
   -1.2865    1.9549    0.2535 H   0  0  0  0  0  0  0  0  0  0  0  0
    1.8526   -1.5188   -1.0687 H   0  0  0  0  0  0  0  0  0  0  0  0
   -1.7212   -1.9163    0.4940 H   0  0  0  0  0  0  0  0  0  0  0  0
   -1.9777   -2.8939    0.8777 H   0  0  0  0  0  0  0  0  0  0  0  0
   -6.6382   -1.3521    0.3685 H   0  0  0  0  0  0  0  0  0  0  0  0
   -0.8407   -1.8946   -0.5777 H   0  0  0  0  0  0  0  0  0  0  0  0
   -0.2344   -0.3518   -0.9616 H   0  0  0  0  0  0  0  0  0  0  0  0
    3.8826    0.0459   -2.3906 H   0  0  0  0  0  0  0  0  0  0  0  0
    4.6885   -0.9613   -1.1795 H   0  0  0  0  0  0  0  0  0  0  0  0
    4.4844    1.7152    1.4123 H   0  0  0  0  0  0  0  0  0  0  0  0
    5.0698    0.0674    1.1460 H   0  0  0  0  0  0  0  0  0  0  0  0
    1.8028    0.0439   -1.1337 H   0  0  0  0  0  0  0  0  0  0  0  0
    2.3369   -1.6209   -1.4200 H   0  0  0  0  0  0  0  0  0  0  0  0
    2.9835    0.0043    2.3983 H   0  0  0  0  0  0  0  0  0  0  0  0
    2.1634    1.0248    1.2076 H   0  0  0  0  0  0  0  0  0  0  0  0
    0.1510    0.1363    1.5268 H   0  0  0  0  0  0  0  0  0  0  0  0
   -0.6091   -1.3663    1.9205 H   0  0  0  0  0  0  0  0  0  0  0  0
   -6.1680   -3.6447    1.1202 H   0  0  0  0  0  0  0  0  0  0  0  0
    1.1906   -2.5809    0.5360 H   0  0  0  0  0  0  0  0  0  0  0  0
    1.5685   -1.9621    2.1102 H   0  0  0  0  0  0  0  0  0  0  0  0
   -0.1283    1.6080   -0.1719 H   0  0  0  0  0  0  0  0  0  0  0  0
   -4.6158    3.5637   -0.7513 H   0  0  0  0  0  0  0  0  0  0  0  0
    5.6710    1.7185   -2.0676 H   0  0  0  0  0  0  0  0  0  0  0  0
    6.4267    0.7491   -0.7854 H   0  0  0  0  0  0  0  0  0  0  0  0
    5.9225    2.4247   -0.4774 H   0  0  0  0  0  0  0  0  0  0  0  0
   -0.3678    3.9729   -0.5660 H   0  0  0  0  0  0  0  0  0  0  0  0
   -2.6139    4.9893   -0.8570 H   0  0  0  0  0  0  0  0  0  0  0  0
   -0.8223   -2.2071    0.0672 H   0  0  0  0  0  0  0  0  0  0  0  0
    1.2965   -1.4807   -0.8921 H   0  0  0  0  0  0  0  0  0  0  0  0
   -1.6603    1.0225    2.0408 H   0  0  0  0  0  0  0  0  0  0  0  0
    2.5272    1.6792   -0.8387 H   0  0  0  0  0  0  0  0  0  0  0  0
  2  4  1  0
  3  1  1  0
  4  3  2  0
  5  1  2  0
  6  2  2  0
  7  1  1  0
  8  2  1  0
 10  9  1  0
 11 14  1  0
 12  9  1  0
 13 10  2  0
 14 12  2  0
 15 10  1  0
 16 27  1  0
 17 22  1  0
 18 13  1  0
 19  9  1  0
 20 15  2  0
 21 23  1  0
 22 24  1  0
 23 16  1  0
 24 16  1  0
 25 19  1  0
 26 20  1  0
 27 25  1  0
 28 20  1  0
 29 12  1  0
 30 14  1  0
 31 17  1  0
 32 29  2  0
 33 30  2  0
 11 13  1  0
 32 33  1  0
 26 18  2  0
 17 21  1  0
 35 37  1  0
 36 34  1  0
 37 36  2  0
 38 34  2  0
 39 35  2  0
 40 34  1  0
 41 35  1  0
  3 42  1  0
  4 43  1  0
  7 44  1  0
  8 45  1  0
 15 46  1  0
 18 47  1  0
 19 48  1  0
 19 49  1  0
 21 50  1  0
 21 51  1  0
 22 52  1  0
 22 53  1  0
 23 54  1  0
 23 55  1  0
 24 56  1  0
 24 57  1  0
 25 58  1  0
 25 59  1  0
 26 60  1  0
 27 61  1  0
 27 62  1  0
 29 63  1  0
 30 64  1  0
 31 65  1  0
 31 66  1  0
 31 67  1  0
 32 68  1  0
 33 69  1  0
 36 70  1  0
 37 71  1  0
 40 72  1  0
 41 73  1  0
M  END
$$$$
