
     RDKit          3D

110109  0  0  0  0  0  0  0  0999 V2000
    1.8892   -0.2863    0.1551 C   0  0  0  0  0  0  0  0  0  0  0  0
   -1.8894    0.2901   -0.1479 C   0  0  0  0  0  0  0  0  0  0  0  0
    0.4336   -0.4226    0.2878 C   0  0  0  0  0  0  0  0  0  0  0  0
   -0.4359    0.4255   -0.2799 C   0  0  0  0  0  0  0  0  0  0  0  0
    2.7015   -1.0320    0.6706 O   0  0  0  0  0  0  0  0  0  0  0  0
   -2.6963    1.0539   -0.6446 O   0  0  0  0  0  0  0  0  0  0  0  0
   -2.2750   -0.7720    0.5752 O   0  0  0  0  0  0  0  0  0  0  0  0
    2.2727    0.7509   -0.6039 O   0  0  0  0  0  0  0  0  0  0  0  0
    0.8067    4.0029    0.5077 C   0  0  0  0  0  0  0  0  0  0  0  0
   -0.0037    3.1039    1.1620 C   0  0  0  0  0  0  0  0  0  0  0  0
   -0.1726    1.8195    0.7733 N   0  0  0  0  0  0  0  0  0  0  0  0
    0.4858    1.3600   -0.3170 C   0  0  0  0  0  0  0  0  0  0  0  0
    1.3169    2.2270   -1.0281 C   0  0  0  0  0  0  0  0  0  0  0  0
    1.4788    3.5530   -0.6149 C   0  0  0  0  0  0  0  0  0  0  0  0
    0.2842    0.0404   -0.6891 N   0  0  0  0  0  0  0  0  0  0  0  0
    1.2352   -0.6984   -1.5226 C   0  0  0  0  0  0  0  0  0  0  0  0
   -0.6449   -0.7641    0.1222 C   0  0  0  0  0  0  0  0  0  0  0  0
   -2.1079   -0.4970   -0.3020 C   0  0  0  0  0  0  0  0  0  0  0  0
   -3.0931   -1.4721    0.2222 N   0  0  0  0  0  0  0  0  0  0  0  0
   -3.1532   -1.4425    1.6832 C   0  0  0  0  0  0  0  0  0  0  0  0
   -4.4138   -1.1789   -0.3356 C   0  0  0  0  0  0  0  0  0  0  0  0
    2.5026   -1.1725   -0.8514 C   0  0  0  0  0  0  0  0  0  0  0  0
    2.9988   -0.8929    0.4083 C   0  0  0  0  0  0  0  0  0  0  0  0
    4.2380   -1.5479    0.6692 C   0  0  0  0  0  0  0  0  0  0  0  0
    4.6512   -2.3094   -0.3991 C   0  0  0  0  0  0  0  0  0  0  0  0
    3.5541   -2.2308   -1.7071 S   0  0  0  0  0  0  0  0  0  0  0  0
    0.4428    0.0634    0.1925 N   0  0  0  0  0  0  0  0  0  0  0  0
    0.5643    1.3679   -0.2474 C   0  0  0  0  0  0  0  0  0  0  0  0
    2.5730   -1.0744    0.8514 C   0  0  0  0  0  0  0  0  0  0  0  0
    4.0033   -0.7414    1.7356 S   0  0  0  0  0  0  0  0  0  0  0  0
    1.2496   -0.4942    1.2785 C   0  0  0  0  0  0  0  0  0  0  0  0
   -0.3860    1.8430   -1.0852 N   0  0  0  0  0  0  0  0  0  0  0  0
    4.9566   -1.6987    0.6914 C   0  0  0  0  0  0  0  0  0  0  0  0
    2.8302   -1.9193   -0.2119 C   0  0  0  0  0  0  0  0  0  0  0  0
   -0.6940   -0.7339   -0.2901 C   0  0  0  0  0  0  0  0  0  0  0  0
    4.2004   -2.2844   -0.3007 C   0  0  0  0  0  0  0  0  0  0  0  0
   -3.0962   -1.3850    0.2467 N   0  0  0  0  0  0  0  0  0  0  0  0
   -1.9965   -0.4179    0.4831 C   0  0  0  0  0  0  0  0  0  0  0  0
    1.6234    2.1962    0.1284 C   0  0  0  0  0  0  0  0  0  0  0  0
   -0.2980    3.1160   -1.5317 C   0  0  0  0  0  0  0  0  0  0  0  0
   -4.2180   -1.0866    1.1426 C   0  0  0  0  0  0  0  0  0  0  0  0
   -3.5530   -1.3339   -1.1442 C   0  0  0  0  0  0  0  0  0  0  0  0
    1.6978    3.5108   -0.3374 C   0  0  0  0  0  0  0  0  0  0  0  0
    0.7135    3.9849   -1.1858 C   0  0  0  0  0  0  0  0  0  0  0  0
   -1.9316    0.3727   -0.2716 C   0  0  0  0  0  0  0  0  0  0  0  0
    1.8442   -0.0028   -0.2290 C   0  0  0  0  0  0  0  0  0  0  0  0
   -0.4938    0.5508   -0.4865 C   0  0  0  0  0  0  0  0  0  0  0  0
    0.4289   -0.2650    0.0390 C   0  0  0  0  0  0  0  0  0  0  0  0
   -2.7902    1.1008   -0.7338 O   0  0  0  0  0  0  0  0  0  0  0  0
    2.3126    0.9002   -0.8937 O   0  0  0  0  0  0  0  0  0  0  0  0
    2.6084   -0.9239    0.3766 O   0  0  0  0  0  0  0  0  0  0  0  0
   -2.2400   -0.6863    0.4918 O   0  0  0  0  0  0  0  0  0  0  0  0
   -1.9053   -0.2396   -0.7272 C   0  0  0  0  0  0  0  0  0  0  0  0
    1.8466    0.0182   -0.2111 C   0  0  0  0  0  0  0  0  0  0  0  0
   -0.4503   -0.3344   -0.8740 C   0  0  0  0  0  0  0  0  0  0  0  0
    0.4088    0.1632    0.0252 C   0  0  0  0  0  0  0  0  0  0  0  0
   -2.7075   -0.6870   -1.5259 O   0  0  0  0  0  0  0  0  0  0  0  0
    2.3875   -0.5162   -1.1590 O   0  0  0  0  0  0  0  0  0  0  0  0
    2.5386    0.5731    0.7942 O   0  0  0  0  0  0  0  0  0  0  0  0
   -2.2981    0.3955    0.3867 O   0  0  0  0  0  0  0  0  0  0  0  0
    0.1153   -1.2703    0.8858 H   0  0  0  0  0  0  0  0  0  0  0  0
   -0.1145    1.2698   -0.8807 H   0  0  0  0  0  0  0  0  0  0  0  0
   -3.2539   -0.7129    0.5691 H   0  0  0  0  0  0  0  0  0  0  0  0
    3.2526    0.7057   -0.5866 H   0  0  0  0  0  0  0  0  0  0  0  0
    0.9085    5.0244    0.8604 H   0  0  0  0  0  0  0  0  0  0  0  0
   -0.5610    3.3944    2.0472 H   0  0  0  0  0  0  0  0  0  0  0  0
    1.8403    1.9087   -1.9185 H   0  0  0  0  0  0  0  0  0  0  0  0
    2.1219    4.2213   -1.1792 H   0  0  0  0  0  0  0  0  0  0  0  0
    0.7142   -1.5799   -1.9271 H   0  0  0  0  0  0  0  0  0  0  0  0
    1.4936   -0.1159   -2.4153 H   0  0  0  0  0  0  0  0  0  0  0  0
   -0.4966   -0.5848    1.1957 H   0  0  0  0  0  0  0  0  0  0  0  0
   -0.4380   -1.8332   -0.0258 H   0  0  0  0  0  0  0  0  0  0  0  0
   -2.4023    0.5258   -0.0333 H   0  0  0  0  0  0  0  0  0  0  0  0
   -2.1362   -0.5425   -1.3964 H   0  0  0  0  0  0  0  0  0  0  0  0
   -3.9202   -2.1358    2.0465 H   0  0  0  0  0  0  0  0  0  0  0  0
   -2.2110   -1.7782    2.1276 H   0  0  0  0  0  0  0  0  0  0  0  0
   -3.3835   -0.4441    2.0728 H   0  0  0  0  0  0  0  0  0  0  0  0
   -4.7833   -0.1922   -0.0262 H   0  0  0  0  0  0  0  0  0  0  0  0
   -4.3969   -1.2147   -1.4337 H   0  0  0  0  0  0  0  0  0  0  0  0
   -5.1408   -1.9334   -0.0096 H   0  0  0  0  0  0  0  0  0  0  0  0
    2.4904   -0.2476    1.1119 H   0  0  0  0  0  0  0  0  0  0  0  0
    4.7917   -1.4618    1.5955 H   0  0  0  0  0  0  0  0  0  0  0  0
    5.5458   -2.9108   -0.4736 H   0  0  0  0  0  0  0  0  0  0  0  0
    0.6904   -1.3081    1.7656 H   0  0  0  0  0  0  0  0  0  0  0  0
    1.3862    0.2502    2.0744 H   0  0  0  0  0  0  0  0  0  0  0  0
    6.0203   -1.7972    0.8606 H   0  0  0  0  0  0  0  0  0  0  0  0
    2.0611   -2.2548   -0.8978 H   0  0  0  0  0  0  0  0  0  0  0  0
   -0.4578   -1.7992   -0.1702 H   0  0  0  0  0  0  0  0  0  0  0  0
   -0.8302   -0.5913   -1.3689 H   0  0  0  0  0  0  0  0  0  0  0  0
    4.6201   -2.9337   -1.0574 H   0  0  0  0  0  0  0  0  0  0  0  0
   -2.3359    0.6026    0.2534 H   0  0  0  0  0  0  0  0  0  0  0  0
   -1.7545   -0.4321    1.5558 H   0  0  0  0  0  0  0  0  0  0  0  0
    2.4128    1.8427    0.7790 H   0  0  0  0  0  0  0  0  0  0  0  0
   -1.0987    3.4244   -2.1962 H   0  0  0  0  0  0  0  0  0  0  0  0
   -4.6241   -0.0855    0.9704 H   0  0  0  0  0  0  0  0  0  0  0  0
   -3.9034   -1.1562    2.1874 H   0  0  0  0  0  0  0  0  0  0  0  0
   -5.0239   -1.8142    1.0058 H   0  0  0  0  0  0  0  0  0  0  0  0
   -2.7670   -1.6595   -1.8333 H   0  0  0  0  0  0  0  0  0  0  0  0
   -4.3930   -2.0184   -1.2991 H   0  0  0  0  0  0  0  0  0  0  0  0
   -3.8772   -0.3296   -1.4399 H   0  0  0  0  0  0  0  0  0  0  0  0
    2.5252    4.1476   -0.0397 H   0  0  0  0  0  0  0  0  0  0  0  0
    0.7363    4.9995   -1.5659 H   0  0  0  0  0  0  0  0  0  0  0  0
   -0.2248    1.4049   -1.0995 H   0  0  0  0  0  0  0  0  0  0  0  0
    0.1823   -1.1195    0.6565 H   0  0  0  0  0  0  0  0  0  0  0  0
    3.5234   -0.6682    0.1357 H   0  0  0  0  0  0  0  0  0  0  0  0
   -3.2193   -0.6637    0.5364 H   0  0  0  0  0  0  0  0  0  0  0  0
   -0.1145   -0.8448   -1.7717 H   0  0  0  0  0  0  0  0  0  0  0  0
    0.0947    0.6732    0.9274 H   0  0  0  0  0  0  0  0  0  0  0  0
    3.4766    0.4255    0.5498 H   0  0  0  0  0  0  0  0  0  0  0  0
   -3.2773    0.3733    0.3349 H   0  0  0  0  0  0  0  0  0  0  0  0
  2  4  1  0
  3  1  1  0
  4  3  2  0
  5  1  2  0
  6  2  2  0
  7  2  1  0
  8  1  1  0
 15 17  1  0
 12 15  1  0
 17 18  1  0
 11 12  1  0
 18 19  1  0
 15 16  1  0
 19 20  1  0
 19 21  1  0
 16 22  1  0
 23 24  1  0
 12 13  2  0
 10 11  2  0
 13 14  1  0
 22 23  2  0
 24 25  2  0
 25 26  1  0
 26 22  1  0
 14  9  2  0
  9 10  1  0
 28 27  1  0
 29 31  1  0
 30 29  1  0
 31 27  1  0
 32 28  2  0
 33 30  1  0
 34 29  2  0
 35 27  1  0
 36 34  1  0
 37 38  1  0
 38 35  1  0
 39 28  1  0
 40 32  1  0
 41 37  1  0
 42 37  1  0
 43 39  2  0
 44 40  2  0
 36 33  2  0
 43 44  1  0
 46 48  1  0
 47 45  1  0
 48 47  2  0
 49 45  2  0
 50 46  2  0
 51 46  1  0
 52 45  1  0
 54 56  1  0
 55 53  1  0
 56 55  2  0
 57 53  2  0
 58 54  2  0
 59 54  1  0
 60 53  1  0
  3 61  1  0
  4 62  1  0
  7 63  1  0
  8 64  1  0
  9 65  1  0
 10 66  1  0
 13 67  1  0
 14 68  1  0
 16 69  1  0
 16 70  1  0
 17 71  1  0
 17 72  1  0
 18 73  1  0
 18 74  1  0
 20 75  1  0
 20 76  1  0
 20 77  1  0
 21 78  1  0
 21 79  1  0
 21 80  1  0
 23 81  1  0
 24 82  1  0
 25 83  1  0
 31 84  1  0
 31 85  1  0
 33 86  1  0
 34 87  1  0
 35 88  1  0
 35 89  1  0
 36 90  1  0
 38 91  1  0
 38 92  1  0
 39 93  1  0
 40 94  1  0
 41 95  1  0
 41 96  1  0
 41 97  1  0
 42 98  1  0
 42 99  1  0
 42100  1  0
 43101  1  0
 44102  1  0
 47103  1  0
 48104  1  0
 51105  1  0
 52106  1  0
 55107  1  0
 56108  1  0
 59109  1  0
 60110  1  0
M  END
$$$$
