
     RDKit          3D

110109  0  0  0  0  0  0  0  0999 V2000
   -1.8848   -0.1157    0.3205 C   0  0  0  0  0  0  0  0  0  0  0  0
    1.8847    0.1133   -0.3206 C   0  0  0  0  0  0  0  0  0  0  0  0
   -0.4340   -0.3035    0.4084 C   0  0  0  0  0  0  0  0  0  0  0  0
    0.4340    0.3040   -0.4122 C   0  0  0  0  0  0  0  0  0  0  0  0
   -2.6926   -0.6371    1.0677 O   0  0  0  0  0  0  0  0  0  0  0  0
    2.6971    0.6602   -1.0440 O   0  0  0  0  0  0  0  0  0  0  0  0
    2.2641   -0.7224    0.6571 O   0  0  0  0  0  0  0  0  0  0  0  0
   -2.2681    0.7062   -0.6670 O   0  0  0  0  0  0  0  0  0  0  0  0
   -2.7612   -2.8928   -1.7278 C   0  0  0  0  0  0  0  0  0  0  0  0
   -1.4088   -3.1309   -1.5836 C   0  0  0  0  0  0  0  0  0  0  0  0
   -0.5756   -2.3608   -0.8452 N   0  0  0  0  0  0  0  0  0  0  0  0
   -1.0751   -1.2710   -0.2137 C   0  0  0  0  0  0  0  0  0  0  0  0
   -2.4401   -0.9942   -0.2936 C   0  0  0  0  0  0  0  0  0  0  0  0
   -3.2852   -1.8035   -1.0565 C   0  0  0  0  0  0  0  0  0  0  0  0
   -0.2149   -0.4675    0.5509 N   0  0  0  0  0  0  0  0  0  0  0  0
   -0.2759    0.9837    0.2930 C   0  0  0  0  0  0  0  0  0  0  0  0
    1.1435   -1.0159    0.7294 C   0  0  0  0  0  0  0  0  0  0  0  0
    2.0800   -0.8672   -0.5007 C   0  0  0  0  0  0  0  0  0  0  0  0
    2.6983    0.4704   -0.6771 N   0  0  0  0  0  0  0  0  0  0  0  0
    3.2814    0.5719   -2.0189 C   0  0  0  0  0  0  0  0  0  0  0  0
    3.7360    0.7149    0.3273 C   0  0  0  0  0  0  0  0  0  0  0  0
   -1.3046    1.7560    1.0838 C   0  0  0  0  0  0  0  0  0  0  0  0
   -1.6810    1.5965    2.4030 C   0  0  0  0  0  0  0  0  0  0  0  0
   -2.6915    2.5130    2.8040 C   0  0  0  0  0  0  0  0  0  0  0  0
   -3.0479    3.3600    1.7782 C   0  0  0  0  0  0  0  0  0  0  0  0
   -2.1655    3.0474    0.3461 S   0  0  0  0  0  0  0  0  0  0  0  0
    0.4061    0.6365   -0.3618 N   0  0  0  0  0  0  0  0  0  0  0  0
    1.1084    1.8392   -0.3672 C   0  0  0  0  0  0  0  0  0  0  0  0
    1.6145   -1.5662   -0.1769 C   0  0  0  0  0  0  0  0  0  0  0  0
    1.3262   -3.2104   -0.5595 S   0  0  0  0  0  0  0  0  0  0  0  0
    1.0912   -0.4641   -1.0647 C   0  0  0  0  0  0  0  0  0  0  0  0
    2.4572    1.7741   -0.3722 N   0  0  0  0  0  0  0  0  0  0  0  0
    2.1927   -3.7458    0.8130 C   0  0  0  0  0  0  0  0  0  0  0  0
    2.3799   -1.4431    0.9654 C   0  0  0  0  0  0  0  0  0  0  0  0
   -1.0659    0.6121   -0.3124 C   0  0  0  0  0  0  0  0  0  0  0  0
    2.7110   -2.6986    1.5437 C   0  0  0  0  0  0  0  0  0  0  0  0
   -3.1088   -0.7214    0.3838 N   0  0  0  0  0  0  0  0  0  0  0  0
   -1.6310   -0.7078    0.2695 C   0  0  0  0  0  0  0  0  0  0  0  0
    0.4887    3.0897   -0.3545 C   0  0  0  0  0  0  0  0  0  0  0  0
    3.1810    2.9185   -0.3699 C   0  0  0  0  0  0  0  0  0  0  0  0
   -3.7370   -0.8456   -0.9367 C   0  0  0  0  0  0  0  0  0  0  0  0
   -3.5224   -1.8480    1.2300 C   0  0  0  0  0  0  0  0  0  0  0  0
    1.2491    4.2655   -0.3613 C   0  0  0  0  0  0  0  0  0  0  0  0
    2.6298    4.1771   -0.3694 C   0  0  0  0  0  0  0  0  0  0  0  0
    1.9003   -0.5110    0.1854 C   0  0  0  0  0  0  0  0  0  0  0  0
   -1.8340    0.1875    0.1379 C   0  0  0  0  0  0  0  0  0  0  0  0
    0.4592   -0.5119    0.4586 C   0  0  0  0  0  0  0  0  0  0  0  0
   -0.4112    0.2636   -0.2012 C   0  0  0  0  0  0  0  0  0  0  0  0
    2.7144   -1.1989    0.7738 O   0  0  0  0  0  0  0  0  0  0  0  0
   -2.3595   -0.5192    0.9749 O   0  0  0  0  0  0  0  0  0  0  0  0
   -2.5368    1.0355   -0.6294 O   0  0  0  0  0  0  0  0  0  0  0  0
    2.2677    0.3513   -0.7753 O   0  0  0  0  0  0  0  0  0  0  0  0
   -1.8444   -0.0613    0.0637 C   0  0  0  0  0  0  0  0  0  0  0  0
    1.9416   -0.2763    0.2267 C   0  0  0  0  0  0  0  0  0  0  0  0
   -0.4335    0.2201   -0.2020 C   0  0  0  0  0  0  0  0  0  0  0  0
    0.5067   -0.4903    0.4348 C   0  0  0  0  0  0  0  0  0  0  0  0
   -2.2987   -0.9015    0.8164 O   0  0  0  0  0  0  0  0  0  0  0  0
    2.8187   -0.9121    0.7824 O   0  0  0  0  0  0  0  0  0  0  0  0
    2.2252    0.7104   -0.6371 O   0  0  0  0  0  0  0  0  0  0  0  0
   -2.6284    0.7538   -0.6593 O   0  0  0  0  0  0  0  0  0  0  0  0
   -0.1136   -0.9694    1.2013 H   0  0  0  0  0  0  0  0  0  0  0  0
    0.1162    0.9645   -1.2102 H   0  0  0  0  0  0  0  0  0  0  0  0
    3.2417   -0.7286    0.5863 H   0  0  0  0  0  0  0  0  0  0  0  0
   -3.2446    0.7285   -0.5873 H   0  0  0  0  0  0  0  0  0  0  0  0
   -3.3846   -3.5391   -2.3333 H   0  0  0  0  0  0  0  0  0  0  0  0
   -0.9436   -3.9776   -2.0814 H   0  0  0  0  0  0  0  0  0  0  0  0
   -2.8772   -0.1593    0.2493 H   0  0  0  0  0  0  0  0  0  0  0  0
   -4.3451   -1.5778   -1.1100 H   0  0  0  0  0  0  0  0  0  0  0  0
   -0.3781    1.1678   -0.7818 H   0  0  0  0  0  0  0  0  0  0  0  0
    0.6797    1.4438    0.5750 H   0  0  0  0  0  0  0  0  0  0  0  0
    1.0829   -2.0777    1.0087 H   0  0  0  0  0  0  0  0  0  0  0  0
    1.5914   -0.5382    1.6079 H   0  0  0  0  0  0  0  0  0  0  0  0
    1.5204   -1.1108   -1.4099 H   0  0  0  0  0  0  0  0  0  0  0  0
    2.8753   -1.6197   -0.4210 H   0  0  0  0  0  0  0  0  0  0  0  0
    3.7291    1.5591   -2.1693 H   0  0  0  0  0  0  0  0  0  0  0  0
    4.0584   -0.1824   -2.1924 H   0  0  0  0  0  0  0  0  0  0  0  0
    2.5084    0.4668   -2.7885 H   0  0  0  0  0  0  0  0  0  0  0  0
    3.3222    0.7328    1.3385 H   0  0  0  0  0  0  0  0  0  0  0  0
    4.5290   -0.0404    0.2941 H   0  0  0  0  0  0  0  0  0  0  0  0
    4.1935    1.6970    0.1705 H   0  0  0  0  0  0  0  0  0  0  0  0
   -1.2518    0.8403    3.0449 H   0  0  0  0  0  0  0  0  0  0  0  0
   -3.1362    2.5523    3.7910 H   0  0  0  0  0  0  0  0  0  0  0  0
   -3.7856    4.1531    1.8091 H   0  0  0  0  0  0  0  0  0  0  0  0
    1.9296   -0.1027   -1.6760 H   0  0  0  0  0  0  0  0  0  0  0  0
    0.3961   -0.8843   -1.8060 H   0  0  0  0  0  0  0  0  0  0  0  0
    2.2879   -4.8013    1.0179 H   0  0  0  0  0  0  0  0  0  0  0  0
    2.6791   -0.4803    1.3670 H   0  0  0  0  0  0  0  0  0  0  0  0
   -1.4406    1.4068    0.3442 H   0  0  0  0  0  0  0  0  0  0  0  0
   -1.4547    0.8004   -1.3201 H   0  0  0  0  0  0  0  0  0  0  0  0
    3.3016   -2.8259    2.4433 H   0  0  0  0  0  0  0  0  0  0  0  0
   -1.1926   -0.8245    1.2695 H   0  0  0  0  0  0  0  0  0  0  0  0
   -1.3015   -1.5702   -0.3232 H   0  0  0  0  0  0  0  0  0  0  0  0
   -0.5912    3.1945   -0.3503 H   0  0  0  0  0  0  0  0  0  0  0  0
    4.2642    2.7717   -0.3747 H   0  0  0  0  0  0  0  0  0  0  0  0
   -3.5134    0.0217   -1.5734 H   0  0  0  0  0  0  0  0  0  0  0  0
   -3.4099   -1.7555   -1.4603 H   0  0  0  0  0  0  0  0  0  0  0  0
   -4.8274   -0.8818   -0.8341 H   0  0  0  0  0  0  0  0  0  0  0  0
   -3.1850   -2.8154    0.8338 H   0  0  0  0  0  0  0  0  0  0  0  0
   -3.1244   -1.7266    2.2463 H   0  0  0  0  0  0  0  0  0  0  0  0
   -4.6130   -1.8780    1.3219 H   0  0  0  0  0  0  0  0  0  0  0  0
    0.7633    5.2312   -0.3615 H   0  0  0  0  0  0  0  0  0  0  0  0
    3.2614    5.0587   -0.3633 H   0  0  0  0  0  0  0  0  0  0  0  0
    0.1417   -1.2021    1.2339 H   0  0  0  0  0  0  0  0  0  0  0  0
   -0.1181    0.9475   -0.9889 H   0  0  0  0  0  0  0  0  0  0  0  0
   -3.4646    0.9104   -0.3419 H   0  0  0  0  0  0  0  0  0  0  0  0
    3.2409    0.2472   -0.8279 H   0  0  0  0  0  0  0  0  0  0  0  0
   -0.2059    1.0042   -0.9114 H   0  0  0  0  0  0  0  0  0  0  0  0
    0.2543   -1.2758    1.1398 H   0  0  0  0  0  0  0  0  0  0  0  0
    3.2046    0.7358   -0.6460 H   0  0  0  0  0  0  0  0  0  0  0  0
   -3.5401    0.4931   -0.4081 H   0  0  0  0  0  0  0  0  0  0  0  0
  2  4  1  0
  3  1  1  0
  4  3  2  0
  5  1  2  0
  6  2  2  0
  7  2  1  0
  8  1  1  0
 15 17  1  0
 12 15  1  0
 17 18  1  0
 11 12  1  0
 18 19  1  0
 15 16  1  0
 19 20  1  0
 19 21  1  0
 16 22  1  0
 23 24  1  0
 12 13  2  0
 10 11  2  0
 13 14  1  0
 22 23  2  0
 24 25  2  0
 25 26  1  0
 26 22  1  0
 14  9  2  0
  9 10  1  0
 28 27  1  0
 29 31  1  0
 30 29  1  0
 31 27  1  0
 32 28  2  0
 33 30  1  0
 34 29  2  0
 35 27  1  0
 36 34  1  0
 37 38  1  0
 38 35  1  0
 39 28  1  0
 40 32  1  0
 41 37  1  0
 42 37  1  0
 43 39  2  0
 44 40  2  0
 36 33  2  0
 43 44  1  0
 46 48  1  0
 47 45  1  0
 48 47  2  0
 49 45  2  0
 50 46  2  0
 51 46  1  0
 52 45  1  0
 54 56  1  0
 55 53  1  0
 56 55  2  0
 57 53  2  0
 58 54  2  0
 59 54  1  0
 60 53  1  0
  3 61  1  0
  4 62  1  0
  7 63  1  0
  8 64  1  0
  9 65  1  0
 10 66  1  0
 13 67  1  0
 14 68  1  0
 16 69  1  0
 16 70  1  0
 17 71  1  0
 17 72  1  0
 18 73  1  0
 18 74  1  0
 20 75  1  0
 20 76  1  0
 20 77  1  0
 21 78  1  0
 21 79  1  0
 21 80  1  0
 23 81  1  0
 24 82  1  0
 25 83  1  0
 31 84  1  0
 31 85  1  0
 33 86  1  0
 34 87  1  0
 35 88  1  0
 35 89  1  0
 36 90  1  0
 38 91  1  0
 38 92  1  0
 39 93  1  0
 40 94  1  0
 41 95  1  0
 41 96  1  0
 41 97  1  0
 42 98  1  0
 42 99  1  0
 42100  1  0
 43101  1  0
 44102  1  0
 47103  1  0
 48104  1  0
 51105  1  0
 52106  1  0
 55107  1  0
 56108  1  0
 59109  1  0
 60110  1  0
M  END
$$$$
