
     RDKit          3D

110109  0  0  0  0  0  0  0  0999 V2000
   -1.5955   -1.0369    0.2187 C   0  0  0  0  0  0  0  0  0  0  0  0
    1.5957    1.0404   -0.2086 C   0  0  0  0  0  0  0  0  0  0  0  0
   -0.1922   -0.6143    0.1824 C   0  0  0  0  0  0  0  0  0  0  0  0
    0.1932    0.6171   -0.1806 C   0  0  0  0  0  0  0  0  0  0  0  0
   -1.9727   -2.1395    0.5711 O   0  0  0  0  0  0  0  0  0  0  0  0
    1.9730    2.1503   -0.5386 O   0  0  0  0  0  0  0  0  0  0  0  0
    2.4578    0.0844    0.1694 O   0  0  0  0  0  0  0  0  0  0  0  0
   -2.4602   -0.0904   -0.1774 O   0  0  0  0  0  0  0  0  0  0  0  0
    0.8760    4.6124   -0.4114 C   0  0  0  0  0  0  0  0  0  0  0  0
    1.4222    3.7592   -1.3490 C   0  0  0  0  0  0  0  0  0  0  0  0
    1.3739    2.4133   -1.2627 N   0  0  0  0  0  0  0  0  0  0  0  0
    0.7318    1.8501   -0.2127 C   0  0  0  0  0  0  0  0  0  0  0  0
    0.1439    2.6515    0.7707 C   0  0  0  0  0  0  0  0  0  0  0  0
    0.2258    4.0401    0.6736 C   0  0  0  0  0  0  0  0  0  0  0  0
    0.7373    0.4516   -0.1679 N   0  0  0  0  0  0  0  0  0  0  0  0
    2.1010   -0.0037    0.1595 C   0  0  0  0  0  0  0  0  0  0  0  0
   -0.3668   -0.2375    0.5191 C   0  0  0  0  0  0  0  0  0  0  0  0
   -1.7083   -0.0573   -0.2309 C   0  0  0  0  0  0  0  0  0  0  0  0
   -2.8614   -0.7453    0.4068 N   0  0  0  0  0  0  0  0  0  0  0  0
   -2.7370   -2.2046    0.3151 C   0  0  0  0  0  0  0  0  0  0  0  0
   -4.0991   -0.3235   -0.2593 C   0  0  0  0  0  0  0  0  0  0  0  0
    2.3960   -1.4673   -0.0441 C   0  0  0  0  0  0  0  0  0  0  0  0
    2.6420   -2.4302    0.9129 C   0  0  0  0  0  0  0  0  0  0  0  0
    2.9293   -3.7025    0.3379 C   0  0  0  0  0  0  0  0  0  0  0  0
    2.9008   -3.6691   -1.0344 C   0  0  0  0  0  0  0  0  0  0  0  0
    2.5016   -2.1156   -1.6305 S   0  0  0  0  0  0  0  0  0  0  0  0
   -0.2509   -0.2083   -0.3992 N   0  0  0  0  0  0  0  0  0  0  0  0
   -0.9083   -1.0406    0.5069 C   0  0  0  0  0  0  0  0  0  0  0  0
   -2.1998    1.0863   -1.3531 C   0  0  0  0  0  0  0  0  0  0  0  0
   -3.6794    0.6840   -2.1303 S   0  0  0  0  0  0  0  0  0  0  0  0
   -0.9480    0.2745   -1.6050 C   0  0  0  0  0  0  0  0  0  0  0  0
   -0.4985   -0.9773    1.7945 N   0  0  0  0  0  0  0  0  0  0  0  0
   -4.5072    1.9542   -1.3480 C   0  0  0  0  0  0  0  0  0  0  0  0
   -2.3403    2.1981   -0.5460 C   0  0  0  0  0  0  0  0  0  0  0  0
    1.1560   -0.6058   -0.5849 C   0  0  0  0  0  0  0  0  0  0  0  0
   -3.6690    2.7041   -0.5463 C   0  0  0  0  0  0  0  0  0  0  0  0
    3.5104    0.3129   -0.7386 N   0  0  0  0  0  0  0  0  0  0  0  0
    2.1086    0.5875   -0.3351 C   0  0  0  0  0  0  0  0  0  0  0  0
   -1.9321   -1.9165    0.1284 C   0  0  0  0  0  0  0  0  0  0  0  0
   -1.1269   -1.7531    2.7091 C   0  0  0  0  0  0  0  0  0  0  0  0
    4.2916    1.5532   -0.7560 C   0  0  0  0  0  0  0  0  0  0  0  0
    4.1497   -0.6573    0.1593 C   0  0  0  0  0  0  0  0  0  0  0  0
   -2.5552   -2.7205    1.0852 C   0  0  0  0  0  0  0  0  0  0  0  0
   -2.1536   -2.6315    2.4060 C   0  0  0  0  0  0  0  0  0  0  0  0
   -1.8220    0.2808    0.2636 C   0  0  0  0  0  0  0  0  0  0  0  0
    1.8274   -0.7425    0.3726 C   0  0  0  0  0  0  0  0  0  0  0  0
   -0.3630    0.3825    0.2460 C   0  0  0  0  0  0  0  0  0  0  0  0
    0.3632   -0.7336    0.3897 C   0  0  0  0  0  0  0  0  0  0  0  0
   -2.4883   -0.7266    0.3996 O   0  0  0  0  0  0  0  0  0  0  0  0
    2.5165   -1.7381    0.4967 O   0  0  0  0  0  0  0  0  0  0  0  0
    2.3658    0.4757    0.2083 O   0  0  0  0  0  0  0  0  0  0  0  0
   -2.3703    1.4958    0.1132 O   0  0  0  0  0  0  0  0  0  0  0  0
   -1.7910   -0.6350   -0.0892 C   0  0  0  0  0  0  0  0  0  0  0  0
    1.7905    0.6345   -0.5764 C   0  0  0  0  0  0  0  0  0  0  0  0
   -0.3323   -0.5699   -0.2165 C   0  0  0  0  0  0  0  0  0  0  0  0
    0.3321    0.5708   -0.4501 C   0  0  0  0  0  0  0  0  0  0  0  0
   -2.4198   -1.6572    0.1148 O   0  0  0  0  0  0  0  0  0  0  0  0
    2.4197    1.6552   -0.7894 O   0  0  0  0  0  0  0  0  0  0  0  0
    2.4003   -0.5497   -0.4231 O   0  0  0  0  0  0  0  0  0  0  0  0
   -2.4006    0.5512   -0.2246 O   0  0  0  0  0  0  0  0  0  0  0  0
    0.5181   -1.3763    0.4857 H   0  0  0  0  0  0  0  0  0  0  0  0
   -0.5147    1.3760   -0.4904 H   0  0  0  0  0  0  0  0  0  0  0  0
    3.3322    0.5177    0.0756 H   0  0  0  0  0  0  0  0  0  0  0  0
   -3.3347   -0.5286   -0.1073 H   0  0  0  0  0  0  0  0  0  0  0  0
    0.9560    5.6859   -0.5140 H   0  0  0  0  0  0  0  0  0  0  0  0
    1.9431    4.1484   -2.2246 H   0  0  0  0  0  0  0  0  0  0  0  0
   -0.3536    2.2245    1.6362 H   0  0  0  0  0  0  0  0  0  0  0  0
   -0.2082    4.6711    1.4497 H   0  0  0  0  0  0  0  0  0  0  0  0
    2.3018    0.2307    1.2139 H   0  0  0  0  0  0  0  0  0  0  0  0
    2.8525    0.5505   -0.4194 H   0  0  0  0  0  0  0  0  0  0  0  0
   -0.4482    0.0752    1.5650 H   0  0  0  0  0  0  0  0  0  0  0  0
   -0.1484   -1.3085    0.5430 H   0  0  0  0  0  0  0  0  0  0  0  0
   -1.5984   -0.3923   -1.2743 H   0  0  0  0  0  0  0  0  0  0  0  0
   -1.9369    1.0175   -0.2853 H   0  0  0  0  0  0  0  0  0  0  0  0
   -2.5914   -2.5403   -0.7182 H   0  0  0  0  0  0  0  0  0  0  0  0
   -3.6411   -2.6859    0.7124 H   0  0  0  0  0  0  0  0  0  0  0  0
   -1.9063   -2.5712    0.9258 H   0  0  0  0  0  0  0  0  0  0  0  0
   -4.0993   -0.5874   -1.3201 H   0  0  0  0  0  0  0  0  0  0  0  0
   -4.9639   -0.7964    0.2152 H   0  0  0  0  0  0  0  0  0  0  0  0
   -4.2442    0.7563   -0.1607 H   0  0  0  0  0  0  0  0  0  0  0  0
    2.6237   -2.2332    1.9773 H   0  0  0  0  0  0  0  0  0  0  0  0
    3.1602   -4.5925    0.9132 H   0  0  0  0  0  0  0  0  0  0  0  0
    3.0938   -4.4743   -1.7276 H   0  0  0  0  0  0  0  0  0  0  0  0
   -0.2608    0.9447   -2.1464 H   0  0  0  0  0  0  0  0  0  0  0  0
   -1.1407   -0.5562   -2.2937 H   0  0  0  0  0  0  0  0  0  0  0  0
   -5.5617    2.1005   -1.5263 H   0  0  0  0  0  0  0  0  0  0  0  0
   -1.5188    2.6106    0.0376 H   0  0  0  0  0  0  0  0  0  0  0  0
    1.4392   -1.4293    0.0839 H   0  0  0  0  0  0  0  0  0  0  0  0
    1.2948   -0.9911   -1.6076 H   0  0  0  0  0  0  0  0  0  0  0  0
   -4.0025    3.5597    0.0294 H   0  0  0  0  0  0  0  0  0  0  0  0
    1.7376    1.4428   -0.9181 H   0  0  0  0  0  0  0  0  0  0  0  0
    2.0538    0.8836    0.7217 H   0  0  0  0  0  0  0  0  0  0  0  0
   -2.2412   -2.0026   -0.9046 H   0  0  0  0  0  0  0  0  0  0  0  0
   -0.7840   -1.6441    3.7295 H   0  0  0  0  0  0  0  0  0  0  0  0
    3.8694    2.2535   -1.4884 H   0  0  0  0  0  0  0  0  0  0  0  0
    5.3295    1.3551   -1.0693 H   0  0  0  0  0  0  0  0  0  0  0  0
    4.3191    2.0356    0.2307 H   0  0  0  0  0  0  0  0  0  0  0  0
    3.6513   -1.6250    0.1038 H   0  0  0  0  0  0  0  0  0  0  0  0
    4.1622   -0.3149    1.1996 H   0  0  0  0  0  0  0  0  0  0  0  0
    5.1824   -0.8421   -0.1483 H   0  0  0  0  0  0  0  0  0  0  0  0
   -3.3433   -3.4025    0.7872 H   0  0  0  0  0  0  0  0  0  0  0  0
   -2.6333   -3.2220    3.1801 H   0  0  0  0  0  0  0  0  0  0  0  0
    0.0710    1.3646    0.1138 H   0  0  0  0  0  0  0  0  0  0  0  0
   -0.0970   -1.7056    0.5220 H   0  0  0  0  0  0  0  0  0  0  0  0
    3.3326    0.3168    0.2194 H   0  0  0  0  0  0  0  0  0  0  0  0
   -3.3358    1.3301    0.1422 H   0  0  0  0  0  0  0  0  0  0  0  0
    0.1745   -1.5216   -0.0943 H   0  0  0  0  0  0  0  0  0  0  0  0
   -0.1759    1.5204   -0.5732 H   0  0  0  0  0  0  0  0  0  0  0  0
    3.3517   -0.3365   -0.5207 H   0  0  0  0  0  0  0  0  0  0  0  0
   -3.3491    0.3378   -0.1046 H   0  0  0  0  0  0  0  0  0  0  0  0
  2  4  1  0
  3  1  1  0
  4  3  2  0
  5  1  2  0
  6  2  2  0
  7  2  1  0
  8  1  1  0
 15 17  1  0
 12 15  1  0
 17 18  1  0
 11 12  1  0
 18 19  1  0
 15 16  1  0
 19 20  1  0
 19 21  1  0
 16 22  1  0
 23 24  1  0
 12 13  2  0
 10 11  2  0
 13 14  1  0
 22 23  2  0
 24 25  2  0
 25 26  1  0
 26 22  1  0
 14  9  2  0
  9 10  1  0
 28 27  1  0
 29 31  1  0
 30 29  1  0
 31 27  1  0
 32 28  2  0
 33 30  1  0
 34 29  2  0
 35 27  1  0
 36 34  1  0
 37 38  1  0
 38 35  1  0
 39 28  1  0
 40 32  1  0
 41 37  1  0
 42 37  1  0
 43 39  2  0
 44 40  2  0
 36 33  2  0
 43 44  1  0
 46 48  1  0
 47 45  1  0
 48 47  2  0
 49 45  2  0
 50 46  2  0
 51 46  1  0
 52 45  1  0
 54 56  1  0
 55 53  1  0
 56 55  2  0
 57 53  2  0
 58 54  2  0
 59 54  1  0
 60 53  1  0
  3 61  1  0
  4 62  1  0
  7 63  1  0
  8 64  1  0
  9 65  1  0
 10 66  1  0
 13 67  1  0
 14 68  1  0
 16 69  1  0
 16 70  1  0
 17 71  1  0
 17 72  1  0
 18 73  1  0
 18 74  1  0
 20 75  1  0
 20 76  1  0
 20 77  1  0
 21 78  1  0
 21 79  1  0
 21 80  1  0
 23 81  1  0
 24 82  1  0
 25 83  1  0
 31 84  1  0
 31 85  1  0
 33 86  1  0
 34 87  1  0
 35 88  1  0
 35 89  1  0
 36 90  1  0
 38 91  1  0
 38 92  1  0
 39 93  1  0
 40 94  1  0
 41 95  1  0
 41 96  1  0
 41 97  1  0
 42 98  1  0
 42 99  1  0
 42100  1  0
 43101  1  0
 44102  1  0
 47103  1  0
 48104  1  0
 51105  1  0
 52106  1  0
 55107  1  0
 56108  1  0
 59109  1  0
 60110  1  0
M  END
$$$$
