
     RDKit          3D

 60 59  0  0  0  0  0  0  0  0999 V2000
    1.8837    0.1845    0.1709 C   0  0  0  0  0  0  0  0  0  0  0  0
   -1.8740   -0.1830    0.3345 C   0  0  0  0  0  0  0  0  0  0  0  0
    0.4798    0.0702   -0.2587 C   0  0  0  0  0  0  0  0  0  0  0  0
   -0.4724   -0.0627    0.6306 C   0  0  0  0  0  0  0  0  0  0  0  0
    2.2133    0.1591    1.3849 O   0  0  0  0  0  0  0  0  0  0  0  0
   -2.3652   -0.1755   -0.8281 O   0  0  0  0  0  0  0  0  0  0  0  0
   -2.7544   -0.3178    1.4103 O   0  0  0  0  0  0  0  0  0  0  0  0
    2.8893    0.3252   -0.7761 O   0  0  0  0  0  0  0  0  0  0  0  0
   -1.5870    3.9396    0.1754 C   0  0  0  0  0  0  0  0  0  0  0  0
   -0.7321    3.3675    1.0612 C   0  0  0  0  0  0  0  0  0  0  0  0
   -0.2396    2.1020    0.8878 N   0  0  0  0  0  0  0  0  0  0  0  0
   -0.6254    1.3998   -0.2124 C   0  0  0  0  0  0  0  0  0  0  0  0
   -1.4893    1.9533   -1.1213 C   0  0  0  0  0  0  0  0  0  0  0  0
   -1.9898    3.2507   -0.9345 C   0  0  0  0  0  0  0  0  0  0  0  0
   -0.1216    0.0631   -0.4429 N   0  0  0  0  0  0  0  0  0  0  0  0
    1.0306   -0.0357   -1.2936 C   0  0  0  0  0  0  0  0  0  0  0  0
   -0.7998   -1.0194    0.1841 C   0  0  0  0  0  0  0  0  0  0  0  0
   -1.5452   -1.9422   -0.7464 C   0  0  0  0  0  0  0  0  0  0  0  0
   -2.1663   -2.9570    0.0621 N   0  0  0  0  0  0  0  0  0  0  0  0
   -2.9290   -3.9368   -0.6768 C   0  0  0  0  0  0  0  0  0  0  0  0
   -2.8501   -2.4435    1.2240 C   0  0  0  0  0  0  0  0  0  0  0  0
    2.1572   -0.6104   -0.4732 C   0  0  0  0  0  0  0  0  0  0  0  0
    2.7151   -1.6144   -0.1309 C   0  0  0  0  0  0  0  0  0  0  0  0
    3.7774   -1.6609    0.6964 C   0  0  0  0  0  0  0  0  0  0  0  0
    4.2729   -0.5633    1.1877 C   0  0  0  0  0  0  0  0  0  0  0  0
    3.1221    0.7075    0.4029 S   0  0  0  0  0  0  0  0  0  0  0  0
   -0.1378    0.0542   -0.9424 N   0  0  0  0  0  0  0  0  0  0  0  0
   -0.5795    1.0986   -0.3396 C   0  0  0  0  0  0  0  0  0  0  0  0
    2.2171    0.1815   -1.0125 C   0  0  0  0  0  0  0  0  0  0  0  0
    3.6605   -0.8393   -0.8614 S   0  0  0  0  0  0  0  0  0  0  0  0
    1.1180    0.3305   -1.8375 C   0  0  0  0  0  0  0  0  0  0  0  0
   -0.1822    2.2054    0.3448 N   0  0  0  0  0  0  0  0  0  0  0  0
    4.2685   -0.3700    0.7167 C   0  0  0  0  0  0  0  0  0  0  0  0
    2.3797    0.7739    0.2417 C   0  0  0  0  0  0  0  0  0  0  0  0
   -0.4032   -1.4458   -0.8275 C   0  0  0  0  0  0  0  0  0  0  0  0
    3.2008    0.6238    1.1295 C   0  0  0  0  0  0  0  0  0  0  0  0
   -1.5075   -3.0847    0.2980 N   0  0  0  0  0  0  0  0  0  0  0  0
   -1.3255   -1.6525    0.3658 C   0  0  0  0  0  0  0  0  0  0  0  0
   -1.9015    1.4148   -0.0873 C   0  0  0  0  0  0  0  0  0  0  0  0
   -1.0235    3.0253    0.9295 C   0  0  0  0  0  0  0  0  0  0  0  0
   -2.4994   -3.3635   -0.7777 C   0  0  0  0  0  0  0  0  0  0  0  0
   -1.9243   -3.7155    1.5332 C   0  0  0  0  0  0  0  0  0  0  0  0
   -2.9586    1.7122    0.1429 C   0  0  0  0  0  0  0  0  0  0  0  0
   -2.4015    3.0512    0.9838 C   0  0  0  0  0  0  0  0  0  0  0  0
    1.8890    0.0458    0.1235 C   0  0  0  0  0  0  0  0  0  0  0  0
   -1.8739   -0.0435   -0.3385 C   0  0  0  0  0  0  0  0  0  0  0  0
    0.4533   -0.0341    0.4351 C   0  0  0  0  0  0  0  0  0  0  0  0
   -0.4275    0.0263   -0.5381 C   0  0  0  0  0  0  0  0  0  0  0  0
    2.1850    0.1711   -1.0983 O   0  0  0  0  0  0  0  0  0  0  0  0
   -2.5932    0.0297   -1.3881 O   0  0  0  0  0  0  0  0  0  0  0  0
   -2.4710   -0.1806    0.8956 O   0  0  0  0  0  0  0  0  0  0  0  0
    2.8383   -0.0147    1.1240 O   0  0  0  0  0  0  0  0  0  0  0  0
    1.8786   -0.0064    0.3857 C   0  0  0  0  0  0  0  0  0  0  0  0
   -1.8725   -0.0007   -0.1679 C   0  0  0  0  0  0  0  0  0  0  0  0
    0.4463   -0.2658    0.5395 C   0  0  0  0  0  0  0  0  0  0  0  0
   -0.4334    0.2393   -0.2936 C   0  0  0  0  0  0  0  0  0  0  0  0
    2.2309    0.7274   -0.5872 O   0  0  0  0  0  0  0  0  0  0  0  0
   -2.3117   -0.7207    0.7733 O   0  0  0  0  0  0  0  0  0  0  0  0
   -2.7168    0.5817   -1.1038 O   0  0  0  0  0  0  0  0  0  0  0  0
    2.7786   -0.5548    1.2821 O   0  0  0  0  0  0  0  0  0  0  0  0
  2  4  1  0
  3  1  1  0
  4  3  2  0
  5  1  2  0
  6  2  2  0
  7  2  1  0
  8  1  1  0
 15 17  1  0
 12 15  1  0
 17 18  1  0
 11 12  1  0
 18 19  1  0
 15 16  1  0
 19 20  1  0
 19 21  1  0
 16 22  1  0
 23 24  1  0
 12 13  2  0
 10 11  2  0
 13 14  1  0
 22 23  2  0
 24 25  2  0
 25 26  1  0
 26 22  1  0
 14  9  2  0
  9 10  1  0
 28 27  1  0
 29 31  1  0
 30 29  1  0
 31 27  1  0
 32 28  2  0
 33 30  1  0
 34 29  2  0
 35 27  1  0
 36 34  1  0
 37 38  1  0
 38 35  1  0
 39 28  1  0
 40 32  1  0
 41 37  1  0
 42 37  1  0
 43 39  2  0
 44 40  2  0
 36 33  2  0
 43 44  1  0
 46 48  1  0
 47 45  1  0
 48 47  2  0
 49 45  2  0
 50 46  2  0
 51 46  1  0
 52 45  1  0
 54 56  1  0
 55 53  1  0
 56 55  2  0
 57 53  2  0
 58 54  2  0
 59 54  1  0
 60 53  1  0
M  END
