
     RDKit          3D

110109  0  0  0  0  0  0  0  0999 V2000
    1.7203    0.5277   -0.6543 C   0  0  0  0  0  0  0  0  0  0  0  0
   -1.6991   -0.5215    0.7101 C   0  0  0  0  0  0  0  0  0  0  0  0
    0.3366    0.5555   -0.1771 C   0  0  0  0  0  0  0  0  0  0  0  0
   -0.3193   -0.5444    0.2117 C   0  0  0  0  0  0  0  0  0  0  0  0
    2.3963    1.5172   -0.8677 O   0  0  0  0  0  0  0  0  0  0  0  0
   -2.2824   -1.4970    1.1501 O   0  0  0  0  0  0  0  0  0  0  0  0
   -2.2882    0.6797    0.6293 O   0  0  0  0  0  0  0  0  0  0  0  0
    2.1957   -0.7083   -0.8591 O   0  0  0  0  0  0  0  0  0  0  0  0
   -1.3826   -4.5723    0.6370 C   0  0  0  0  0  0  0  0  0  0  0  0
   -0.1563   -3.9506    0.7642 C   0  0  0  0  0  0  0  0  0  0  0  0
    0.0621   -2.6500    0.4724 N   0  0  0  0  0  0  0  0  0  0  0  0
   -0.9751   -1.8796    0.0620 C   0  0  0  0  0  0  0  0  0  0  0  0
   -2.2442   -2.4528   -0.0937 C   0  0  0  0  0  0  0  0  0  0  0  0
   -2.4456   -3.8055    0.1845 C   0  0  0  0  0  0  0  0  0  0  0  0
   -0.7073   -0.5275   -0.1868 N   0  0  0  0  0  0  0  0  0  0  0  0
   -1.8446    0.3961   -0.2069 C   0  0  0  0  0  0  0  0  0  0  0  0
    0.3477   -0.3643   -1.2094 C   0  0  0  0  0  0  0  0  0  0  0  0
    1.3938    0.7416   -0.9063 C   0  0  0  0  0  0  0  0  0  0  0  0
    2.1553    0.6336    0.3526 N   0  0  0  0  0  0  0  0  0  0  0  0
    2.9390    1.8462    0.5806 C   0  0  0  0  0  0  0  0  0  0  0  0
    3.0156   -0.5451    0.3686 C   0  0  0  0  0  0  0  0  0  0  0  0
   -1.5760    1.8500    0.0719 C   0  0  0  0  0  0  0  0  0  0  0  0
   -1.6676    2.9227   -0.7956 C   0  0  0  0  0  0  0  0  0  0  0  0
   -1.3582    4.1587   -0.1586 C   0  0  0  0  0  0  0  0  0  0  0  0
   -1.0346    3.9889    1.1689 C   0  0  0  0  0  0  0  0  0  0  0  0
   -1.1429    2.3545    1.6552 S   0  0  0  0  0  0  0  0  0  0  0  0
   -0.7858    0.2639    0.0432 N   0  0  0  0  0  0  0  0  0  0  0  0
   -0.6132    1.6691    0.0254 C   0  0  0  0  0  0  0  0  0  0  0  0
   -2.6091   -1.4309   -0.3283 C   0  0  0  0  0  0  0  0  0  0  0  0
   -3.3427   -1.7163    1.1946 S   0  0  0  0  0  0  0  0  0  0  0  0
   -2.0470   -0.0695   -0.6543 C   0  0  0  0  0  0  0  0  0  0  0  0
    0.1939    2.2459   -0.8925 N   0  0  0  0  0  0  0  0  0  0  0  0
   -3.6810   -3.3431    0.7967 C   0  0  0  0  0  0  0  0  0  0  0  0
   -2.6391   -2.5605   -1.1230 C   0  0  0  0  0  0  0  0  0  0  0  0
    0.3951   -0.4619   -0.4836 C   0  0  0  0  0  0  0  0  0  0  0  0
   -3.2477   -3.6678   -0.4691 C   0  0  0  0  0  0  0  0  0  0  0  0
    2.7639   -1.1877    0.0779 N   0  0  0  0  0  0  0  0  0  0  0  0
    1.6007   -0.3623    0.4811 C   0  0  0  0  0  0  0  0  0  0  0  0
   -1.2957    2.4328    0.9739 C   0  0  0  0  0  0  0  0  0  0  0  0
    0.3150    3.5908   -0.8765 C   0  0  0  0  0  0  0  0  0  0  0  0
    3.7381   -1.2278    1.1731 C   0  0  0  0  0  0  0  0  0  0  0  0
    3.4005   -0.6590   -1.1280 C   0  0  0  0  0  0  0  0  0  0  0  0
   -1.1521    3.8169    0.9775 C   0  0  0  0  0  0  0  0  0  0  0  0
   -0.3313    4.4126    0.0297 C   0  0  0  0  0  0  0  0  0  0  0  0
    1.7851   -0.2434    0.9955 C   0  0  0  0  0  0  0  0  0  0  0  0
   -1.7989    0.2256   -0.1591 C   0  0  0  0  0  0  0  0  0  0  0  0
    0.3310   -0.0740    0.9426 C   0  0  0  0  0  0  0  0  0  0  0  0
   -0.3460    0.0488   -0.2088 C   0  0  0  0  0  0  0  0  0  0  0  0
    2.4302   -0.3643    2.0205 O   0  0  0  0  0  0  0  0  0  0  0  0
   -2.5016    0.2846    0.8310 O   0  0  0  0  0  0  0  0  0  0  0  0
   -2.2986    0.3234   -1.3999 O   0  0  0  0  0  0  0  0  0  0  0  0
    2.3745   -0.2569   -0.2087 O   0  0  0  0  0  0  0  0  0  0  0  0
   -1.9123    0.1275    0.4769 C   0  0  0  0  0  0  0  0  0  0  0  0
    1.7889   -0.4381   -0.1383 C   0  0  0  0  0  0  0  0  0  0  0  0
   -0.5381   -0.3784    0.5121 C   0  0  0  0  0  0  0  0  0  0  0  0
    0.4480    0.1368   -0.2346 C   0  0  0  0  0  0  0  0  0  0  0  0
   -2.8363   -0.3378    1.1195 O   0  0  0  0  0  0  0  0  0  0  0  0
    2.1437   -1.3564    0.5761 O   0  0  0  0  0  0  0  0  0  0  0  0
    2.6255    0.1904   -0.9771 O   0  0  0  0  0  0  0  0  0  0  0  0
   -2.0874    1.1790   -0.3386 O   0  0  0  0  0  0  0  0  0  0  0  0
   -0.1066    1.5439   -0.1383 H   0  0  0  0  0  0  0  0  0  0  0  0
    0.1324   -1.5312    0.1967 H   0  0  0  0  0  0  0  0  0  0  0  0
   -3.1925    0.5363    0.9871 H   0  0  0  0  0  0  0  0  0  0  0  0
    3.1067   -0.5580   -1.1886 H   0  0  0  0  0  0  0  0  0  0  0  0
   -1.5062   -5.6181    0.8847 H   0  0  0  0  0  0  0  0  0  0  0  0
    0.7184   -4.4922    1.1188 H   0  0  0  0  0  0  0  0  0  0  0  0
   -3.0869   -1.8722   -0.4562 H   0  0  0  0  0  0  0  0  0  0  0  0
   -3.4319   -4.2479    0.0557 H   0  0  0  0  0  0  0  0  0  0  0  0
   -2.3499    0.3135   -1.1774 H   0  0  0  0  0  0  0  0  0  0  0  0
   -2.5849    0.0966    0.5479 H   0  0  0  0  0  0  0  0  0  0  0  0
    0.8921   -1.2957   -1.4071 H   0  0  0  0  0  0  0  0  0  0  0  0
   -0.1343   -0.1268   -2.1685 H   0  0  0  0  0  0  0  0  0  0  0  0
    0.8807    1.7063   -0.9246 H   0  0  0  0  0  0  0  0  0  0  0  0
    2.0902    0.7749   -1.7567 H   0  0  0  0  0  0  0  0  0  0  0  0
    2.2814    2.7209    0.6633 H   0  0  0  0  0  0  0  0  0  0  0  0
    3.4891    1.7794    1.5240 H   0  0  0  0  0  0  0  0  0  0  0  0
    3.6573    2.0279   -0.2266 H   0  0  0  0  0  0  0  0  0  0  0  0
    2.4411   -1.4712    0.2963 H   0  0  0  0  0  0  0  0  0  0  0  0
    3.7509   -0.5298   -0.4443 H   0  0  0  0  0  0  0  0  0  0  0  0
    3.5627   -0.6063    1.3153 H   0  0  0  0  0  0  0  0  0  0  0  0
   -1.9309    2.8252   -1.8428 H   0  0  0  0  0  0  0  0  0  0  0  0
   -1.3657    5.1244   -0.6499 H   0  0  0  0  0  0  0  0  0  0  0  0
   -0.7517    4.7464    1.8878 H   0  0  0  0  0  0  0  0  0  0  0  0
   -1.8983   -0.0003   -1.7434 H   0  0  0  0  0  0  0  0  0  0  0  0
   -2.8384    0.6601   -0.4247 H   0  0  0  0  0  0  0  0  0  0  0  0
   -4.1774   -3.9806    1.5147 H   0  0  0  0  0  0  0  0  0  0  0  0
   -2.2367   -2.5943   -2.1268 H   0  0  0  0  0  0  0  0  0  0  0  0
    0.1463   -1.5264   -0.5789 H   0  0  0  0  0  0  0  0  0  0  0  0
    0.6492   -0.1187   -1.4936 H   0  0  0  0  0  0  0  0  0  0  0  0
   -3.3668   -4.6520   -0.9048 H   0  0  0  0  0  0  0  0  0  0  0  0
    1.9077    0.6830    0.6176 H   0  0  0  0  0  0  0  0  0  0  0  0
    1.2487   -0.7037    1.4627 H   0  0  0  0  0  0  0  0  0  0  0  0
   -1.9212    1.9414    1.7122 H   0  0  0  0  0  0  0  0  0  0  0  0
    0.9699    4.0011   -1.6397 H   0  0  0  0  0  0  0  0  0  0  0  0
    4.0869   -0.2290    1.4552 H   0  0  0  0  0  0  0  0  0  0  0  0
    3.3061   -1.7050    2.0580 H   0  0  0  0  0  0  0  0  0  0  0  0
    4.6045   -1.8338    0.8957 H   0  0  0  0  0  0  0  0  0  0  0  0
    3.7035    0.3883   -1.0074 H   0  0  0  0  0  0  0  0  0  0  0  0
    2.7311   -0.7339   -1.9931 H   0  0  0  0  0  0  0  0  0  0  0  0
    4.2896   -1.2460   -1.3815 H   0  0  0  0  0  0  0  0  0  0  0  0
   -1.6722    4.4176    1.7172 H   0  0  0  0  0  0  0  0  0  0  0  0
   -0.1948    5.4871    0.0008 H   0  0  0  0  0  0  0  0  0  0  0  0
   -0.1603   -0.0513    1.9111 H   0  0  0  0  0  0  0  0  0  0  0  0
    0.1233    0.0386   -1.1867 H   0  0  0  0  0  0  0  0  0  0  0  0
   -3.2625    0.4419   -1.2632 H   0  0  0  0  0  0  0  0  0  0  0  0
    3.3240   -0.3730    0.0025 H   0  0  0  0  0  0  0  0  0  0  0  0
   -0.3810   -1.2133    1.1891 H   0  0  0  0  0  0  0  0  0  0  0  0
    0.3050    0.9612   -0.9234 H   0  0  0  0  0  0  0  0  0  0  0  0
    3.4835   -0.2609   -0.8389 H   0  0  0  0  0  0  0  0  0  0  0  0
   -3.0394    1.3902   -0.2393 H   0  0  0  0  0  0  0  0  0  0  0  0
  2  4  1  0
  3  1  1  0
  4  3  2  0
  5  1  2  0
  6  2  2  0
  7  2  1  0
  8  1  1  0
 15 17  1  0
 12 15  1  0
 17 18  1  0
 11 12  1  0
 18 19  1  0
 15 16  1  0
 19 20  1  0
 19 21  1  0
 16 22  1  0
 23 24  1  0
 12 13  2  0
 10 11  2  0
 13 14  1  0
 22 23  2  0
 24 25  2  0
 25 26  1  0
 26 22  1  0
 14  9  2  0
  9 10  1  0
 28 27  1  0
 29 31  1  0
 30 29  1  0
 31 27  1  0
 32 28  2  0
 33 30  1  0
 34 29  2  0
 35 27  1  0
 36 34  1  0
 37 38  1  0
 38 35  1  0
 39 28  1  0
 40 32  1  0
 41 37  1  0
 42 37  1  0
 43 39  2  0
 44 40  2  0
 36 33  2  0
 43 44  1  0
 46 48  1  0
 47 45  1  0
 48 47  2  0
 49 45  2  0
 50 46  2  0
 51 46  1  0
 52 45  1  0
 54 56  1  0
 55 53  1  0
 56 55  2  0
 57 53  2  0
 58 54  2  0
 59 54  1  0
 60 53  1  0
  3 61  1  0
  4 62  1  0
  7 63  1  0
  8 64  1  0
  9 65  1  0
 10 66  1  0
 13 67  1  0
 14 68  1  0
 16 69  1  0
 16 70  1  0
 17 71  1  0
 17 72  1  0
 18 73  1  0
 18 74  1  0
 20 75  1  0
 20 76  1  0
 20 77  1  0
 21 78  1  0
 21 79  1  0
 21 80  1  0
 23 81  1  0
 24 82  1  0
 25 83  1  0
 31 84  1  0
 31 85  1  0
 33 86  1  0
 34 87  1  0
 35 88  1  0
 35 89  1  0
 36 90  1  0
 38 91  1  0
 38 92  1  0
 39 93  1  0
 40 94  1  0
 41 95  1  0
 41 96  1  0
 41 97  1  0
 42 98  1  0
 42 99  1  0
 42100  1  0
 43101  1  0
 44102  1  0
 47103  1  0
 48104  1  0
 51105  1  0
 52106  1  0
 55107  1  0
 56108  1  0
 59109  1  0
 60110  1  0
M  END
$$$$
