
     RDKit          3D

 21 23  0  0  0  0  0  0  0  0999 V2000
    0.9054   -0.0756    0.1797 C   0  0  0  0  0  0  0  0  0  0  0  0
    0.2523   -0.8778    0.9943 N   0  0  0  0  0  0  0  0  0  0  0  0
    2.4496   -0.0057    0.0134 C   0  0  0  0  0  0  0  0  0  0  0  0
    0.0502    0.7212   -0.5329 N   0  0  0  0  0  0  0  0  0  0  0  0
    3.0350    0.8792   -0.8765 N   0  0  0  0  0  0  0  0  0  0  0  0
   -1.0758   -0.5840    0.7965 C   0  0  0  0  0  0  0  0  0  0  0  0
   -1.2313    0.4171   -0.1578 C   0  0  0  0  0  0  0  0  0  0  0  0
    4.9299   -0.4484    0.2807 S   0  0  0  0  0  0  0  0  0  0  0  0
    4.3413    0.7321   -0.8186 C   0  0  0  0  0  0  0  0  0  0  0  0
    3.3142   -0.8059    0.7287 C   0  0  0  0  0  0  0  0  0  0  0  0
   -2.2152   -1.1351    1.4004 C   0  0  0  0  0  0  0  0  0  0  0  0
   -2.4742    0.9130   -0.5557 C   0  0  0  0  0  0  0  0  0  0  0  0
   -3.5993    0.3502    0.0585 C   0  0  0  0  0  0  0  0  0  0  0  0
   -3.4757   -0.6563    1.0201 C   0  0  0  0  0  0  0  0  0  0  0  0
    0.3438    1.4074   -1.2127 H   0  0  0  0  0  0  0  0  0  0  0  0
    5.0175    1.3187   -1.4270 H   0  0  0  0  0  0  0  0  0  0  0  0
    3.0734   -1.5572    1.4678 H   0  0  0  0  0  0  0  0  0  0  0  0
   -2.1124   -1.9157    2.1457 H   0  0  0  0  0  0  0  0  0  0  0  0
   -2.5710    1.6940   -1.3018 H   0  0  0  0  0  0  0  0  0  0  0  0
   -4.5905    0.7040   -0.2187 H   0  0  0  0  0  0  0  0  0  0  0  0
   -4.3673   -1.0752    1.4807 H   0  0  0  0  0  0  0  0  0  0  0  0
  2  1  2  0
  3  1  1  0
  4  1  1  0
  5  3  1  0
  6  2  1  0
  7  4  1  0
  8 10  1  0
  9  5  2  0
 10  3  2  0
 11  6  2  0
 12  7  2  0
 13 12  1  0
 14 11  1  0
  6  7  1  0
  9  8  1  0
 14 13  2  0
  4 15  1  0
  9 16  1  0
 10 17  1  0
 11 18  1  0
 12 19  1  0
 13 20  1  0
 14 21  1  0
M  END
$$$$
