
     RDKit          2D

 14 16  0  0  0  0  0  0  0  0999 V2000
    4.8167   -4.8417    0.0000 C   0  0  0  0  0  0  0  0  0  0  0  0
    5.2292   -5.4125    0.0000 N   0  0  0  0  0  0  0  0  0  0  0  0
    4.1042   -4.8417    0.0000 C   0  0  0  0  0  0  0  0  0  0  0  0
    5.2292   -4.2667    0.0000 N   0  0  0  0  0  0  0  0  0  0  0  0
    3.6792   -4.2667    0.0000 N   0  0  0  0  0  0  0  0  0  0  0  0
    5.9042   -5.1917    0.0000 C   0  0  0  0  0  0  0  0  0  0  0  0
    5.9042   -4.4917    0.0000 C   0  0  0  0  0  0  0  0  0  0  0  0
    3.0042   -5.1917    0.0000 S   0  0  0  0  0  0  0  0  0  0  0  0
    3.0042   -4.4917    0.0000 C   0  0  0  0  0  0  0  0  0  0  0  0
    3.6792   -5.4125    0.0000 C   0  0  0  0  0  0  0  0  0  0  0  0
    6.5250   -5.5542    0.0000 C   0  0  0  0  0  0  0  0  0  0  0  0
    6.5250   -4.1292    0.0000 C   0  0  0  0  0  0  0  0  0  0  0  0
    7.1417   -4.4917    0.0000 C   0  0  0  0  0  0  0  0  0  0  0  0
    7.1417   -5.1917    0.0000 C   0  0  0  0  0  0  0  0  0  0  0  0
  2  1  2  0
  3  1  1  0
  4  1  1  0
  5  3  1  0
  6  2  1  0
  7  4  1  0
  8 10  1  0
  9  5  2  0
 10  3  2  0
 11  6  1  0
 12  7  1  0
 13 12  2  0
 14 11  2  0
  6  7  2  0
  9  8  1  0
 14 13  1  0
M  END
> <chembl_id>
CHEMBL625

> <chembl_pref_name>
THIABENDAZOLE
