
     RDKit          3D

 21 23  0  0  0  0  0  0  0  0999 V2000
    0.8848    0.1278    0.1470 C   0  0  0  0  0  0  0  0  0  0  0  0
    0.0685    0.6000    1.0677 N   0  0  0  0  0  0  0  0  0  0  0  0
    2.4502    0.2390    0.2016 C   0  0  0  0  0  0  0  0  0  0  0  0
    0.1785   -0.4737   -0.8645 N   0  0  0  0  0  0  0  0  0  0  0  0
    3.0934    0.8618    1.2570 N   0  0  0  0  0  0  0  0  0  0  0  0
   -1.1972    0.2939    0.6367 C   0  0  0  0  0  0  0  0  0  0  0  0
   -1.1586   -0.3821   -0.5770 C   0  0  0  0  0  0  0  0  0  0  0  0
    4.9237    0.0496   -0.3659 S   0  0  0  0  0  0  0  0  0  0  0  0
    4.3923    0.8235    1.0685 C   0  0  0  0  0  0  0  0  0  0  0  0
    3.2853   -0.2643   -0.7765 C   0  0  0  0  0  0  0  0  0  0  0  0
   -2.4380    0.5623    1.2317 C   0  0  0  0  0  0  0  0  0  0  0  0
   -2.3014   -0.8175   -1.2509 C   0  0  0  0  0  0  0  0  0  0  0  0
   -3.5312   -0.5406   -0.6416 C   0  0  0  0  0  0  0  0  0  0  0  0
   -3.6020    0.1373    0.5784 C   0  0  0  0  0  0  0  0  0  0  0  0
    0.5756   -0.9095   -1.6812 H   0  0  0  0  0  0  0  0  0  0  0  0
    5.0902    1.2541    1.7748 H   0  0  0  0  0  0  0  0  0  0  0  0
    3.0401   -0.7863   -1.6882 H   0  0  0  0  0  0  0  0  0  0  0  0
   -2.4833    1.0888    2.1784 H   0  0  0  0  0  0  0  0  0  0  0  0
   -2.2489   -1.3437   -2.1976 H   0  0  0  0  0  0  0  0  0  0  0  0
   -4.4512   -0.8596   -1.1277 H   0  0  0  0  0  0  0  0  0  0  0  0
   -4.5707    0.3392    1.0293 H   0  0  0  0  0  0  0  0  0  0  0  0
  2  1  2  0
  3  1  1  0
  4  1  1  0
  5  3  1  0
  6  2  1  0
  7  4  1  0
  8 10  1  0
  9  5  2  0
 10  3  2  0
 11  6  2  0
 12  7  2  0
 13 12  1  0
 14 11  1  0
  6  7  1  0
  9  8  1  0
 14 13  2  0
  4 15  1  0
  9 16  1  0
 10 17  1  0
 11 18  1  0
 12 19  1  0
 13 20  1  0
 14 21  1  0
M  END
$$$$
