
     RDKit          3D

 14 16  0  0  0  0  0  0  0  0999 V2000
   -0.5691    0.0105    0.1013 C   0  0  0  0  0  0  0  0  0  0  0  0
    0.1412   -0.1290   -1.0326 N   0  0  0  0  0  0  0  0  0  0  0  0
   -2.0581    0.0206    0.2276 C   0  0  0  0  0  0  0  0  0  0  0  0
    0.3287    0.1382    1.0919 N   0  0  0  0  0  0  0  0  0  0  0  0
   -2.8397   -0.1115   -0.8015 N   0  0  0  0  0  0  0  0  0  0  0  0
    1.4540   -0.0888   -0.7524 C   0  0  0  0  0  0  0  0  0  0  0  0
    1.5808    0.0825    0.6089 C   0  0  0  0  0  0  0  0  0  0  0  0
   -4.4772    0.1214    1.1052 S   0  0  0  0  0  0  0  0  0  0  0  0
   -4.0910   -0.1071   -0.7287 C   0  0  0  0  0  0  0  0  0  0  0  0
   -2.6408    0.1721    1.4527 C   0  0  0  0  0  0  0  0  0  0  0  0
    2.5394   -0.1899   -1.5914 C   0  0  0  0  0  0  0  0  0  0  0  0
    2.8594    0.1504    1.1114 C   0  0  0  0  0  0  0  0  0  0  0  0
    3.9622    0.0505    0.2814 C   0  0  0  0  0  0  0  0  0  0  0  0
    3.8102   -0.1200   -1.0738 C   0  0  0  0  0  0  0  0  0  0  0  0
  2  1  2  0
  3  1  1  0
  4  1  1  0
  5  3  1  0
  6  2  1  0
  7  4  1  0
  8 10  1  0
  9  5  2  0
 10  3  2  0
 11  6  2  0
 12  7  2  0
 13 12  1  0
 14 11  1  0
  6  7  1  0
  9  8  1  0
 14 13  2  0
M  END
