
     RDKit          3D

 21 23  0  0  0  0  0  0  0  0999 V2000
   -0.8933    0.1273    0.0806 C   0  0  0  0  0  0  0  0  0  0  0  0
   -0.1237    1.0559    0.6119 N   0  0  0  0  0  0  0  0  0  0  0  0
   -2.4633    0.1489    0.1055 C   0  0  0  0  0  0  0  0  0  0  0  0
   -0.1341   -0.8597   -0.4964 N   0  0  0  0  0  0  0  0  0  0  0  0
   -3.1617    1.1808    0.7080 N   0  0  0  0  0  0  0  0  0  0  0  0
    1.1657    0.6552    0.3700 C   0  0  0  0  0  0  0  0  0  0  0  0
    1.1897   -0.5474   -0.3261 C   0  0  0  0  0  0  0  0  0  0  0  0
   -4.9102   -0.4642   -0.2302 S   0  0  0  0  0  0  0  0  0  0  0  0
   -4.4523    0.9673    0.5945 C   0  0  0  0  0  0  0  0  0  0  0  0
   -3.2488   -0.8368   -0.4588 C   0  0  0  0  0  0  0  0  0  0  0  0
    2.3771    1.2701    0.7163 C   0  0  0  0  0  0  0  0  0  0  0  0
    2.3685   -1.1912   -0.7078 C   0  0  0  0  0  0  0  0  0  0  0  0
    3.5682   -0.5623   -0.3533 C   0  0  0  0  0  0  0  0  0  0  0  0
    3.5761    0.6472    0.3465 C   0  0  0  0  0  0  0  0  0  0  0  0
   -0.4895   -1.6768   -0.9664 H   0  0  0  0  0  0  0  0  0  0  0  0
   -5.1874    1.6523    0.9966 H   0  0  0  0  0  0  0  0  0  0  0  0
   -2.9563   -1.7346   -0.9806 H   0  0  0  0  0  0  0  0  0  0  0  0
    2.3736    2.2085    1.2594 H   0  0  0  0  0  0  0  0  0  0  0  0
    2.3648   -2.1297   -1.2508 H   0  0  0  0  0  0  0  0  0  0  0  0
    4.5143   -1.0247   -0.6282 H   0  0  0  0  0  0  0  0  0  0  0  0
    4.5227    1.1138    0.6091 H   0  0  0  0  0  0  0  0  0  0  0  0
  2  1  2  0
  3  1  1  0
  4  1  1  0
  5  3  1  0
  6  2  1  0
  7  4  1  0
  8 10  1  0
  9  5  2  0
 10  3  2  0
 11  6  2  0
 12  7  2  0
 13 12  1  0
 14 11  1  0
  6  7  1  0
  9  8  1  0
 14 13  2  0
  4 15  1  0
  9 16  1  0
 10 17  1  0
 11 18  1  0
 12 19  1  0
 13 20  1  0
 14 21  1  0
M  END
$$$$
