
     RDKit          3D

 21 23  0  0  0  0  0  0  0  0999 V2000
    0.8984   -0.1040   -0.1442 C   0  0  0  0  0  0  0  0  0  0  0  0
    0.2441   -1.1529    0.3088 N   0  0  0  0  0  0  0  0  0  0  0  0
    2.4321   -0.0206   -0.3848 C   0  0  0  0  0  0  0  0  0  0  0  0
    0.0552    0.9459   -0.3908 N   0  0  0  0  0  0  0  0  0  0  0  0
    3.0199    1.1372   -0.8663 N   0  0  0  0  0  0  0  0  0  0  0  0
   -1.0725   -0.7603    0.3548 C   0  0  0  0  0  0  0  0  0  0  0  0
   -1.2194    0.5538   -0.0793 C   0  0  0  0  0  0  0  0  0  0  0  0
    4.8914   -0.6147   -0.5190 S   0  0  0  0  0  0  0  0  0  0  0  0
    4.3158    0.9372   -0.9760 C   0  0  0  0  0  0  0  0  0  0  0  0
    3.2847   -1.0750   -0.1380 C   0  0  0  0  0  0  0  0  0  0  0  0
   -2.2078   -1.4773    0.7594 C   0  0  0  0  0  0  0  0  0  0  0  0
   -2.4499    1.2110   -0.1366 C   0  0  0  0  0  0  0  0  0  0  0  0
   -3.5710    0.4786    0.2714 C   0  0  0  0  0  0  0  0  0  0  0  0
   -3.4557   -0.8424    0.7122 C   0  0  0  0  0  0  0  0  0  0  0  0
    0.3517    1.8445   -0.7424 H   0  0  0  0  0  0  0  0  0  0  0  0
    4.9915    1.7031   -1.3342 H   0  0  0  0  0  0  0  0  0  0  0  0
    3.0400   -2.0593    0.2362 H   0  0  0  0  0  0  0  0  0  0  0  0
   -2.1115   -2.5019    1.1004 H   0  0  0  0  0  0  0  0  0  0  0  0
   -2.5402    2.2362   -0.4786 H   0  0  0  0  0  0  0  0  0  0  0  0
   -4.5526    0.9481    0.2446 H   0  0  0  0  0  0  0  0  0  0  0  0
   -4.3441   -1.3871    1.0232 H   0  0  0  0  0  0  0  0  0  0  0  0
  2  1  2  0
  3  1  1  0
  4  1  1  0
  5  3  1  0
  6  2  1  0
  7  4  1  0
  8 10  1  0
  9  5  2  0
 10  3  2  0
 11  6  2  0
 12  7  2  0
 13 12  1  0
 14 11  1  0
  6  7  1  0
  9  8  1  0
 14 13  2  0
  4 15  1  0
  9 16  1  0
 10 17  1  0
 11 18  1  0
 12 19  1  0
 13 20  1  0
 14 21  1  0
M  END
$$$$
