
     RDKit          3D

 21 23  0  0  0  0  0  0  0  0999 V2000
    0.8866    0.1884    0.0637 C   0  0  0  0  0  0  0  0  0  0  0  0
    0.0700    1.1583    0.4189 N   0  0  0  0  0  0  0  0  0  0  0  0
    2.4399    0.2532    0.0794 C   0  0  0  0  0  0  0  0  0  0  0  0
    0.1991   -0.9258   -0.3361 N   0  0  0  0  0  0  0  0  0  0  0  0
    3.2062   -0.8301   -0.3166 N   0  0  0  0  0  0  0  0  0  0  0  0
   -1.1928    0.6457    0.2397 C   0  0  0  0  0  0  0  0  0  0  0  0
   -1.1408   -0.6620   -0.2338 C   0  0  0  0  0  0  0  0  0  0  0  0
    4.8200    1.0736    0.3643 S   0  0  0  0  0  0  0  0  0  0  0  0
    4.4776   -0.5092   -0.2069 C   0  0  0  0  0  0  0  0  0  0  0  0
    3.1361    1.3728    0.4811 C   0  0  0  0  0  0  0  0  0  0  0  0
   -2.4421    1.2427    0.4621 C   0  0  0  0  0  0  0  0  0  0  0  0
   -2.2769   -1.4267   -0.5049 C   0  0  0  0  0  0  0  0  0  0  0  0
   -3.5144   -0.8132   -0.2766 C   0  0  0  0  0  0  0  0  0  0  0  0
   -3.5993    0.4983    0.1985 C   0  0  0  0  0  0  0  0  0  0  0  0
    0.6335   -1.7820   -0.6482 H   0  0  0  0  0  0  0  0  0  0  0  0
    5.2726   -1.1984   -0.4603 H   0  0  0  0  0  0  0  0  0  0  0  0
    2.7408    2.3183    0.8253 H   0  0  0  0  0  0  0  0  0  0  0  0
   -2.5011    2.2605    0.8308 H   0  0  0  0  0  0  0  0  0  0  0  0
   -2.2119   -2.4445   -0.8736 H   0  0  0  0  0  0  0  0  0  0  0  0
   -4.4290   -1.3694   -0.4733 H   0  0  0  0  0  0  0  0  0  0  0  0
   -4.5744    0.9494    0.3667 H   0  0  0  0  0  0  0  0  0  0  0  0
  2  1  2  0
  3  1  1  0
  4  1  1  0
  5  3  1  0
  6  2  1  0
  7  4  1  0
  8 10  1  0
  9  5  2  0
 10  3  2  0
 11  6  2  0
 12  7  2  0
 13 12  1  0
 14 11  1  0
  6  7  1  0
  9  8  1  0
 14 13  2  0
  4 15  1  0
  9 16  1  0
 10 17  1  0
 11 18  1  0
 12 19  1  0
 13 20  1  0
 14 21  1  0
M  END
$$$$
