
     RDKit          3D

 21 23  0  0  0  0  0  0  0  0999 V2000
    0.2584   -0.8635   -0.0916 C   0  0  0  0  0  0  0  0  0  0  0  0
    0.4229   -0.0924   -1.1478 N   0  0  0  0  0  0  0  0  0  0  0  0
    0.6372   -2.3863   -0.0317 C   0  0  0  0  0  0  0  0  0  0  0  0
   -0.2889   -0.1526    0.9470 N   0  0  0  0  0  0  0  0  0  0  0  0
    1.1868   -3.0370   -1.1226 N   0  0  0  0  0  0  0  0  0  0  0  0
   -0.0310    1.1482   -0.7783 C   0  0  0  0  0  0  0  0  0  0  0  0
   -0.4850    1.1400    0.5351 C   0  0  0  0  0  0  0  0  0  0  0  0
    0.9864   -4.7765    0.7688 S   0  0  0  0  0  0  0  0  0  0  0  0
    1.4120   -4.2948   -0.8205 C   0  0  0  0  0  0  0  0  0  0  0  0
    0.4551   -3.1742    1.0877 C   0  0  0  0  0  0  0  0  0  0  0  0
   -0.0878    2.3397   -1.5150 C   0  0  0  0  0  0  0  0  0  0  0  0
   -1.0034    2.2670    1.1761 C   0  0  0  0  0  0  0  0  0  0  0  0
   -1.0522    3.4475    0.4249 C   0  0  0  0  0  0  0  0  0  0  0  0
   -0.6031    3.4868   -0.8979 C   0  0  0  0  0  0  0  0  0  0  0  0
   -0.5096   -0.5187    1.8591 H   0  0  0  0  0  0  0  0  0  0  0  0
    1.8410   -4.9902   -1.5302 H   0  0  0  0  0  0  0  0  0  0  0  0
    0.0513   -2.9138    2.0536 H   0  0  0  0  0  0  0  0  0  0  0  0
    0.2630    2.3608   -2.5407 H   0  0  0  0  0  0  0  0  0  0  0  0
   -1.3524    2.2390    2.2023 H   0  0  0  0  0  0  0  0  0  0  0  0
   -1.4480    4.3535    0.8800 H   0  0  0  0  0  0  0  0  0  0  0  0
   -0.6526    4.4174   -1.4583 H   0  0  0  0  0  0  0  0  0  0  0  0
  2  1  2  0
  3  1  1  0
  4  1  1  0
  5  3  1  0
  6  2  1  0
  7  4  1  0
  8 10  1  0
  9  5  2  0
 10  3  2  0
 11  6  2  0
 12  7  2  0
 13 12  1  0
 14 11  1  0
  6  7  1  0
  9  8  1  0
 14 13  2  0
  4 15  1  0
  9 16  1  0
 10 17  1  0
 11 18  1  0
 12 19  1  0
 13 20  1  0
 14 21  1  0
M  END
$$$$
