
     RDKit          3D

 18 11  0  0  0  0  0  0  0  0999 V2000
    0.0211   -0.3182    0.0000 Si  0  0  0  0  0  4  0  0  0  0  0  0
    1.5298    0.1574    0.0000 O   0  0  0  0  0  0  0  0  0  0  0  0
   -1.5510   -0.2054    0.0000 O   0  0  0  0  0  0  0  0  0  0  0  0
    0.8936    0.0000    0.0000 Mg  0  0  0  0  0  2  0  0  0  0  0  0
   -0.8936    0.0000    0.0000 O   0  0  0  0  0  0  0  0  0  0  0  0
    0.8923    0.0000    0.0000 Mg  0  0  0  0  0  2  0  0  0  0  0  0
   -0.8923    0.0000    0.0000 O   0  0  0  0  0  0  0  0  0  0  0  0
    0.8934    0.0000    0.0000 Mg  0  0  0  0  0  2  0  0  0  0  0  0
   -0.8934    0.0000    0.0000 O   0  0  0  0  0  0  0  0  0  0  0  0
   -0.0044    0.1501   -0.0000 Si  0  0  0  0  0  4  0  0  0  0  0  0
    1.5596   -0.0747    0.0000 O   0  0  0  0  0  0  0  0  0  0  0  0
   -1.5552   -0.0754   -0.0000 O   0  0  0  0  0  0  0  0  0  0  0  0
   -0.0000    0.1064   -0.0000 Si  0  0  0  0  0  4  0  0  0  0  0  0
   -1.5653   -0.0532   -0.0000 O   0  0  0  0  0  0  0  0  0  0  0  0
    1.5654   -0.0532    0.0000 O   0  0  0  0  0  0  0  0  0  0  0  0
    0.0135   -0.2317    0.0000 Si  0  0  0  0  0  4  0  0  0  0  0  0
    1.5337   -0.6623    0.0000 O   0  0  0  0  0  0  0  0  0  0  0  0
   -1.5472   -0.5024    0.0000 O   0  0  0  0  0  0  0  0  0  0  0  0
  1  2  2  0
  1  3  2  0
  4  5  2  0
  6  7  2  0
  8  9  2  0
 10 11  2  0
 10 12  2  0
 13 14  2  0
 13 15  2  0
 16 17  2  0
 16 18  2  0
M  END
$$$$
