
     RDKit          3D

 18 11  0  0  0  0  0  0  0  0999 V2000
   -0.0675    0.5031    0.0000 Si  0  0  0  0  0  4  0  0  0  0  0  0
   -1.4437   -0.2779    0.0000 O   0  0  0  0  0  0  0  0  0  0  0  0
    1.5112    0.6164    0.0000 O   0  0  0  0  0  0  0  0  0  0  0  0
    0.8917    0.0000    0.0000 Mg  0  0  0  0  0  2  0  0  0  0  0  0
   -0.8917    0.0000    0.0000 O   0  0  0  0  0  0  0  0  0  0  0  0
    0.8997    0.0000    0.0000 Mg  0  0  0  0  0  2  0  0  0  0  0  0
   -0.8997    0.0000    0.0000 O   0  0  0  0  0  0  0  0  0  0  0  0
    0.8926    0.0000    0.0000 Mg  0  0  0  0  0  2  0  0  0  0  0  0
   -0.8926    0.0000    0.0000 O   0  0  0  0  0  0  0  0  0  0  0  0
   -0.0023    0.1004   -0.0000 Si  0  0  0  0  0  4  0  0  0  0  0  0
    1.5683   -0.0501    0.0000 O   0  0  0  0  0  0  0  0  0  0  0  0
   -1.5660   -0.0503   -0.0000 O   0  0  0  0  0  0  0  0  0  0  0  0
   -0.0026    0.0618   -0.0000 Si  0  0  0  0  0  4  0  0  0  0  0  0
   -1.5639   -0.0310   -0.0000 O   0  0  0  0  0  0  0  0  0  0  0  0
    1.5665   -0.0308    0.0000 O   0  0  0  0  0  0  0  0  0  0  0  0
   -0.0007    0.1204   -0.0000 Si  0  0  0  0  0  4  0  0  0  0  0  0
    1.5684   -0.0601    0.0000 O   0  0  0  0  0  0  0  0  0  0  0  0
   -1.5678   -0.0602   -0.0000 O   0  0  0  0  0  0  0  0  0  0  0  0
  1  2  2  0
  1  3  2  0
  4  5  2  0
  6  7  2  0
  8  9  2  0
 10 11  2  0
 10 12  2  0
 13 14  2  0
 13 15  2  0
 16 17  2  0
 16 18  2  0
M  END
