
     RDKit          3D

 18 11  0  0  0  0  0  0  0  0999 V2000
   -0.0012    0.1482   -0.0000 Si  0  0  0  0  0  4  0  0  0  0  0  0
   -1.5514   -0.0742   -0.0000 O   0  0  0  0  0  0  0  0  0  0  0  0
    1.5527   -0.0740    0.0000 O   0  0  0  0  0  0  0  0  0  0  0  0
    0.8986    0.0000    0.0000 Mg  0  0  0  0  0  2  0  0  0  0  0  0
   -0.8986    0.0000    0.0000 O   0  0  0  0  0  0  0  0  0  0  0  0
    0.8956    0.0000    0.0000 Mg  0  0  0  0  0  2  0  0  0  0  0  0
   -0.8956    0.0000    0.0000 O   0  0  0  0  0  0  0  0  0  0  0  0
    0.8951    0.0000    0.0000 Mg  0  0  0  0  0  2  0  0  0  0  0  0
   -0.8951    0.0000    0.0000 O   0  0  0  0  0  0  0  0  0  0  0  0
   -0.0061    0.0770   -0.0000 Si  0  0  0  0  0  4  0  0  0  0  0  0
    1.5702   -0.0383    0.0000 O   0  0  0  0  0  0  0  0  0  0  0  0
   -1.5641   -0.0387   -0.0000 O   0  0  0  0  0  0  0  0  0  0  0  0
   -0.0004    0.1123   -0.0000 Si  0  0  0  0  0  4  0  0  0  0  0  0
   -1.5651   -0.0562   -0.0000 O   0  0  0  0  0  0  0  0  0  0  0  0
    1.5655   -0.0561    0.0000 O   0  0  0  0  0  0  0  0  0  0  0  0
   -0.0028    0.1218   -0.0000 Si  0  0  0  0  0  4  0  0  0  0  0  0
   -1.5612   -0.0611   -0.0000 O   0  0  0  0  0  0  0  0  0  0  0  0
    1.5640   -0.0608    0.0000 O   0  0  0  0  0  0  0  0  0  0  0  0
  1  2  2  0
  1  3  2  0
  4  5  2  0
  6  7  2  0
  8  9  2  0
 10 11  2  0
 10 12  2  0
 13 14  2  0
 13 15  2  0
 16 17  2  0
 16 18  2  0
M  END
$$$$
