
     RDKit          3D

 71 73  0  0  0  0  0  0  0  0999 V2000
   46.7562    6.7527   13.4317 Cl  0  0  0  0  0  0  0  0  0  0  0  0
   47.8976    5.3982   19.1578 C   0  0  0  0  0  0  0  0  0  0  0  0
   48.4390    6.4534   18.4503 C   0  0  0  0  0  0  0  0  0  0  0  0
   48.6275    6.3819   17.0863 C   0  0  0  0  0  0  0  0  0  0  0  0
   48.2518    5.2071   16.4490 C   0  0  0  0  0  0  0  0  0  0  0  0
   47.7068    4.1485   17.1702 C   0  0  0  0  0  0  0  0  0  0  0  0
   47.5189    4.2216   18.5349 C   0  0  0  0  0  0  0  0  0  0  0  0
   50.1677    7.4940   14.0419 C   0  0  0  0  0  0  0  0  0  0  0  0
   49.1312    7.5584   14.9411 C   0  0  0  0  0  0  0  0  0  0  0  0
   49.2105    7.5391   16.3891 C   0  0  2  0  0  0  0  0  0  0  0  0
   47.8560    7.6282   14.3712 C   0  0  0  0  0  0  0  0  0  0  0  0
   47.6339    7.6327   13.0271 C   0  0  0  0  0  0  0  0  0  0  0  0
   48.6859    7.5667   12.1363 C   0  0  0  0  0  0  0  0  0  0  0  0
   49.9535    7.4975   12.6714 C   0  0  0  0  0  0  0  0  0  0  0  0
   48.4318    7.5734   10.8067 F   0  0  0  0  0  0  0  0  0  0  0  0
   46.2917    9.9808   12.4497 O   0  0  0  0  0  0  0  0  0  0  0  0
   45.6366    8.9051   12.2254 C   0  0  0  0  0  0  0  0  0  0  0  0
   46.3068    7.7047   12.5150 N   0  0  0  0  0  0  0  0  0  0  0  0
   47.7223    5.5279   20.5876 C   0  0  0  0  0  0  0  0  0  0  0  0
   47.5646    5.6252   21.7442 N   0  0  0  0  0  0  0  0  0  0  0  0
   50.3914    8.0806   16.9777 N   0  0  0  0  0  0  0  0  0  0  0  0
   51.3094    7.1877   17.5765 C   0  0  0  0  0  0  0  0  0  0  0  0
   52.0494    6.2327   16.6873 C   0  0  0  0  0  0  0  0  0  0  0  0
   53.0314    5.2961   17.3838 C   0  0  0  0  0  0  0  0  0  0  0  0
   53.5095    6.3728   16.4823 C   0  0  0  0  0  0  0  0  0  0  0  0
   44.3067    9.0476   11.7094 C   0  0  0  0  0  0  0  0  0  0  0  0
   43.7100   10.2830   11.4638 C   0  0  0  0  0  0  0  0  0  0  0  0
   42.4362   10.0807   10.9723 C   0  0  0  0  0  0  0  0  0  0  0  0
   42.2738    8.7574   10.9247 N   0  0  0  0  0  0  0  0  0  0  0  0
   43.3876    8.1491   11.3635 N   0  0  0  0  0  0  0  0  0  0  0  0
   41.4309   11.1015   10.5720 C   0  0  0  0  0  0  0  0  0  0  0  0
   40.5361   10.5451    9.6855 F   0  0  0  0  0  0  0  0  0  0  0  0
   42.0342   12.2176   10.0620 F   0  0  0  0  0  0  0  0  0  0  0  0
   40.7036   11.4763   11.6851 F   0  0  0  0  0  0  0  0  0  0  0  0
   43.4804    6.7359   11.4143 C   0  0  0  0  0  0  0  0  0  0  0  0
   43.9855    6.0801   10.2850 C   0  0  0  0  0  0  0  0  0  0  0  0
   43.0768    6.0045   12.5371 C   0  0  0  0  0  0  0  0  0  0  0  0
   43.1980    4.6407   12.4789 C   0  0  0  0  0  0  0  0  0  0  0  0
   43.6967    3.9668   11.3691 C   0  0  0  0  0  0  0  0  0  0  0  0
   44.0970    4.7076   10.2523 C   0  0  0  0  0  0  0  0  0  0  0  0
   44.6430    4.0247    9.0326 C   0  0  0  0  0  0  0  0  0  0  0  0
   46.0784    3.8798    9.1308 N   0  0  0  0  0  0  0  0  0  0  0  0
   46.7520    6.7528   13.4258 Cl  0  0  0  0  0  0  0  0  0  0  0  0
   47.5590    6.7256   14.5407 H   0  0  0  0  0  0  0  0  0  0  0  0
   48.7078    7.3476   19.0273 H   0  0  0  0  0  0  0  0  0  0  0  0
   48.3953    5.1397   15.3758 H   0  0  0  0  0  0  0  0  0  0  0  0
   47.4122    3.2273   16.6701 H   0  0  0  0  0  0  0  0  0  0  0  0
   47.0974    3.4136   19.1221 H   0  0  0  0  0  0  0  0  0  0  0  0
   51.1895    7.4535   14.3582 H   0  0  0  0  0  0  0  0  0  0  0  0
   48.4083    8.3767   16.7147 H   0  0  0  0  0  0  0  0  0  0  0  0
   46.9837    7.6829   15.0181 H   0  0  0  0  0  0  0  0  0  0  0  0
   50.7777    7.4457   11.9634 H   0  0  0  0  0  0  0  0  0  0  0  0
   45.8231    6.8012   12.3541 H   0  0  0  0  0  0  0  0  0  0  0  0
   50.3245    8.9913   17.4327 H   0  0  0  0  0  0  0  0  0  0  0  0
   52.1134    7.7849   18.1059 H   0  0  0  0  0  0  0  0  0  0  0  0
   50.8740    6.5641   18.3927 H   0  0  0  0  0  0  0  0  0  0  0  0
   51.4361    5.6834   15.9179 H   0  0  0  0  0  0  0  0  0  0  0  0
   53.0926    4.2355   17.0715 H   0  0  0  0  0  0  0  0  0  0  0  0
   53.1646    5.4296   18.4851 H   0  0  0  0  0  0  0  0  0  0  0  0
   54.0558    7.2359   16.8877 H   0  0  0  0  0  0  0  0  0  0  0  0
   53.9513    6.0189   15.5221 H   0  0  0  0  0  0  0  0  0  0  0  0
   44.1123   11.2756   11.6083 H   0  0  0  0  0  0  0  0  0  0  0  0
   44.2938    6.6872    9.4194 H   0  0  0  0  0  0  0  0  0  0  0  0
   42.6906    6.5146   13.3992 H   0  0  0  0  0  0  0  0  0  0  0  0
   42.8836    4.0644   13.3552 H   0  0  0  0  0  0  0  0  0  0  0  0
   43.7804    2.8844   11.3542 H   0  0  0  0  0  0  0  0  0  0  0  0
   44.2049    3.0241    8.9385 H   0  0  0  0  0  0  0  0  0  0  0  0
   44.3593    4.6902    8.1719 H   0  0  0  0  0  0  0  0  0  0  0  0
   46.4123    3.3400    8.3275 H   0  0  0  0  0  0  0  0  0  0  0  0
   46.5760    4.7603    9.2957 H   0  0  0  0  0  0  0  0  0  0  0  0
   47.5632    6.7255   14.5466 H   0  0  0  0  0  0  0  0  0  0  0  0
  2  3  2  0
  3  4  1  0
  4  5  2  0
  5  6  1  0
  6  7  2  0
  2  7  1  0
  8  9  2  0
  9 10  1  0
 10  4  1  0
 11 12  2  0
 12 13  1  0
 13 14  2  0
  8 14  1  0
  9 11  1  0
 16 17  2  0
 17 18  1  0
 15 13  1  0
 18 12  1  0
  2 19  1  0
 19 20  3  0
 10 21  1  0
 21 22  1  0
 22 23  1  0
 23 24  1  0
 23 25  1  0
 24 25  1  0
 17 26  1  0
 27 28  1  0
 28 29  2  0
 29 30  1  0
 30 26  1  0
 27 26  2  0
 28 31  1  0
 31 32  1  0
 31 33  1  0
 31 34  1  0
 30 35  1  0
 37 38  1  0
 38 39  2  0
 39 40  1  0
 36 40  2  0
 36 35  1  0
 35 37  2  0
 40 41  1  0
 41 42  1  0
  1 44  1  0
  3 45  1  0
  5 46  1  0
  6 47  1  0
  7 48  1  0
  8 49  1  0
 10 50  1  6
 11 51  1  0
 14 52  1  0
 18 53  1  0
 21 54  1  0
 22 55  1  0
 22 56  1  0
 23 57  1  0
 24 58  1  0
 24 59  1  0
 25 60  1  0
 25 61  1  0
 27 62  1  0
 36 63  1  0
 37 64  1  0
 38 65  1  0
 39 66  1  0
 41 67  1  0
 41 68  1  0
 42 69  1  0
 42 70  1  0
 43 71  1  0
M  END
> <Uni-Dock RESULT> 
ENERGY=   -5.869  LOWER_BOUND=    0.000  UPPER_BOUND=    0.000
INTER + INTRA:          -5.869
INTER:                  -5.869
INTRA:                   0.000
UNBOUND:                 0.000

$$$$

     RDKit          3D

 71 73  0  0  0  0  0  0  0  0999 V2000
   50.1375    6.5509   15.8939 Cl  0  0  0  0  0  0  0  0  0  0  0  0
   55.4876    4.0450   16.9049 C   0  0  0  0  0  0  0  0  0  0  0  0
   54.3414    3.8374   17.6465 C   0  0  0  0  0  0  0  0  0  0  0  0
   53.3752    4.8141   17.7636 C   0  0  0  0  0  0  0  0  0  0  0  0
   53.5978    6.0167   17.1066 C   0  0  0  0  0  0  0  0  0  0  0  0
   54.7562    6.2172   16.3612 C   0  0  0  0  0  0  0  0  0  0  0  0
   55.7220    5.2390   16.2451 C   0  0  0  0  0  0  0  0  0  0  0  0
   50.5408    6.2809   19.4046 C   0  0  0  0  0  0  0  0  0  0  0  0
   51.0559    5.4450   18.4438 C   0  0  0  0  0  0  0  0  0  0  0  0
   52.1765    4.5331   18.5695 C   0  0  2  0  0  0  0  0  0  0  0  0
   50.4238    5.5137   17.1982 C   0  0  0  0  0  0  0  0  0  0  0  0
   49.3740    6.3409   16.9339 C   0  0  0  0  0  0  0  0  0  0  0  0
   48.8683    7.1755   17.9097 C   0  0  0  0  0  0  0  0  0  0  0  0
   49.4727    7.1275   19.1468 C   0  0  0  0  0  0  0  0  0  0  0  0
   47.8243    7.9854   17.6153 F   0  0  0  0  0  0  0  0  0  0  0  0
   47.2701    4.7297   16.1429 O   0  0  0  0  0  0  0  0  0  0  0  0
   47.7087    5.5360   15.2518 C   0  0  0  0  0  0  0  0  0  0  0  0
   48.7780    6.3602   15.6404 N   0  0  0  0  0  0  0  0  0  0  0  0
   56.4682    2.9854   16.8163 C   0  0  0  0  0  0  0  0  0  0  0  0
   57.2642    2.1309   16.7274 N   0  0  0  0  0  0  0  0  0  0  0  0
   52.4202    3.9851   19.8636 N   0  0  0  0  0  0  0  0  0  0  0  0
   53.5574    4.4313   20.5748 C   0  0  0  0  0  0  0  0  0  0  0  0
   53.5840    5.8558   21.0443 C   0  0  0  0  0  0  0  0  0  0  0  0
   54.8312    6.2832   21.8113 C   0  0  0  0  0  0  0  0  0  0  0  0
   53.5163    6.1734   22.4892 C   0  0  0  0  0  0  0  0  0  0  0  0
   47.0642    5.5056   13.9715 C   0  0  0  0  0  0  0  0  0  0  0  0
   46.0147    4.6416   13.6640 C   0  0  0  0  0  0  0  0  0  0  0  0
   45.6164    4.8591   12.3605 C   0  0  0  0  0  0  0  0  0  0  0  0
   46.4074    5.8292   11.8987 N   0  0  0  0  0  0  0  0  0  0  0  0
   47.2650    6.2091   12.8595 N   0  0  0  0  0  0  0  0  0  0  0  0
   44.5372    4.1729   11.6009 C   0  0  0  0  0  0  0  0  0  0  0  0
   44.1118    4.9817   10.5708 F   0  0  0  0  0  0  0  0  0  0  0  0
   43.5093    3.8042   12.4239 F   0  0  0  0  0  0  0  0  0  0  0  0
   45.0535    3.0309   11.0196 F   0  0  0  0  0  0  0  0  0  0  0  0
   48.2192    7.2311   12.6292 C   0  0  0  0  0  0  0  0  0  0  0  0
   47.8435    8.5462   12.9295 C   0  0  0  0  0  0  0  0  0  0  0  0
   49.4901    6.9582   12.1107 C   0  0  0  0  0  0  0  0  0  0  0  0
   50.3334    8.0206   11.9151 C   0  0  0  0  0  0  0  0  0  0  0  0
   49.9834    9.3348   12.2058 C   0  0  0  0  0  0  0  0  0  0  0  0
   48.7106    9.5964   12.7235 C   0  0  0  0  0  0  0  0  0  0  0  0
   48.2886   10.9981   13.0541 C   0  0  0  0  0  0  0  0  0  0  0  0
   48.6304   11.3227   14.4212 N   0  0  0  0  0  0  0  0  0  0  0  0
   50.1324    6.5538   15.8896 Cl  0  0  0  0  0  0  0  0  0  0  0  0
   51.0939    6.0073   16.7094 H   0  0  0  0  0  0  0  0  0  0  0  0
   54.2397    2.8588   18.1333 H   0  0  0  0  0  0  0  0  0  0  0  0
   52.8441    6.7923   17.1916 H   0  0  0  0  0  0  0  0  0  0  0  0
   54.9304    7.1604   15.8460 H   0  0  0  0  0  0  0  0  0  0  0  0
   56.6333    5.3671   15.6721 H   0  0  0  0  0  0  0  0  0  0  0  0
   50.9310    6.3058   20.4010 H   0  0  0  0  0  0  0  0  0  0  0  0
   51.7900    3.5490   17.9921 H   0  0  0  0  0  0  0  0  0  0  0  0
   50.7735    4.8814   16.3856 H   0  0  0  0  0  0  0  0  0  0  0  0
   49.0689    7.7880   19.9110 H   0  0  0  0  0  0  0  0  0  0  0  0
   49.1754    7.0327   14.9577 H   0  0  0  0  0  0  0  0  0  0  0  0
   52.1745    3.0078   20.0230 H   0  0  0  0  0  0  0  0  0  0  0  0
   53.6747    3.8069   21.5127 H   0  0  0  0  0  0  0  0  0  0  0  0
   54.5230    4.2724   20.0388 H   0  0  0  0  0  0  0  0  0  0  0  0
   53.2771    6.6387   20.2940 H   0  0  0  0  0  0  0  0  0  0  0  0
   55.2805    7.2765   21.6173 H   0  0  0  0  0  0  0  0  0  0  0  0
   55.5976    5.4952   22.0118 H   0  0  0  0  0  0  0  0  0  0  0  0
   53.3380    5.3839   23.2326 H   0  0  0  0  0  0  0  0  0  0  0  0
   53.0680    7.1444   22.8032 H   0  0  0  0  0  0  0  0  0  0  0  0
   45.5381    3.8983   14.2873 H   0  0  0  0  0  0  0  0  0  0  0  0
   46.8357    8.7242   13.3363 H   0  0  0  0  0  0  0  0  0  0  0  0
   49.7708    5.9474   11.8829 H   0  0  0  0  0  0  0  0  0  0  0  0
   51.3290    7.8116   11.5098 H   0  0  0  0  0  0  0  0  0  0  0  0
   50.6749   10.1552   12.0397 H   0  0  0  0  0  0  0  0  0  0  0  0
   48.8043   11.7073   12.3962 H   0  0  0  0  0  0  0  0  0  0  0  0
   47.1752   11.0137   12.8985 H   0  0  0  0  0  0  0  0  0  0  0  0
   48.4069   12.3069   14.5935 H   0  0  0  0  0  0  0  0  0  0  0  0
   48.2525   10.6673   15.1124 H   0  0  0  0  0  0  0  0  0  0  0  0
   51.0989    6.0044   16.7137 H   0  0  0  0  0  0  0  0  0  0  0  0
  2  3  2  0
  3  4  1  0
  4  5  2  0
  5  6  1  0
  6  7  2  0
  2  7  1  0
  8  9  2  0
  9 10  1  0
 10  4  1  0
 11 12  2  0
 12 13  1  0
 13 14  2  0
  8 14  1  0
  9 11  1  0
 16 17  2  0
 17 18  1  0
 15 13  1  0
 18 12  1  0
  2 19  1  0
 19 20  3  0
 10 21  1  0
 21 22  1  0
 22 23  1  0
 23 24  1  0
 23 25  1  0
 24 25  1  0
 17 26  1  0
 27 28  1  0
 28 29  2  0
 29 30  1  0
 30 26  1  0
 27 26  2  0
 28 31  1  0
 31 32  1  0
 31 33  1  0
 31 34  1  0
 30 35  1  0
 37 38  1  0
 38 39  2  0
 39 40  1  0
 36 40  2  0
 36 35  1  0
 35 37  2  0
 40 41  1  0
 41 42  1  0
  1 44  1  0
  3 45  1  0
  5 46  1  0
  6 47  1  0
  7 48  1  0
  8 49  1  0
 10 50  1  6
 11 51  1  0
 14 52  1  0
 18 53  1  0
 21 54  1  0
 22 55  1  0
 22 56  1  0
 23 57  1  0
 24 58  1  0
 24 59  1  0
 25 60  1  0
 25 61  1  0
 27 62  1  0
 36 63  1  0
 37 64  1  0
 38 65  1  0
 39 66  1  0
 41 67  1  0
 41 68  1  0
 42 69  1  0
 42 70  1  0
 43 71  1  0
M  END
> <Uni-Dock RESULT> 
ENERGY=   -5.037  LOWER_BOUND=    3.648  UPPER_BOUND=    6.609
INTER + INTRA:          -5.037
INTER:                  -5.037
INTRA:                   0.000
UNBOUND:                 0.000

$$$$

     RDKit          3D

 71 73  0  0  0  0  0  0  0  0999 V2000
   45.9197   11.5271   11.5547 Cl  0  0  0  0  0  0  0  0  0  0  0  0
   47.7679    6.3860   14.0203 C   0  0  0  0  0  0  0  0  0  0  0  0
   48.4800    7.5685   13.9800 C   0  0  0  0  0  0  0  0  0  0  0  0
   48.3106    8.4742   12.9543 C   0  0  0  0  0  0  0  0  0  0  0  0
   47.3952    8.1526   11.9612 C   0  0  0  0  0  0  0  0  0  0  0  0
   46.6818    6.9583   12.0099 C   0  0  0  0  0  0  0  0  0  0  0  0
   46.8525    6.0531   13.0369 C   0  0  0  0  0  0  0  0  0  0  0  0
   49.4077   11.2655   10.9838 C   0  0  0  0  0  0  0  0  0  0  0  0
   48.7031   10.7712   12.0544 C   0  0  0  0  0  0  0  0  0  0  0  0
   49.1000    9.7159   12.9667 C   0  0  2  0  0  0  0  0  0  0  0  0
   47.4478   11.3534   12.2572 C   0  0  0  0  0  0  0  0  0  0  0  0
   46.9405   12.3385   11.4646 C   0  0  0  0  0  0  0  0  0  0  0  0
   47.6604   12.8241   10.3920 C   0  0  0  0  0  0  0  0  0  0  0  0
   48.9011   12.2678   10.1698 C   0  0  0  0  0  0  0  0  0  0  0  0
   47.1284   13.8035    9.6238 F   0  0  0  0  0  0  0  0  0  0  0  0
   46.4574   14.5115   13.1056 O   0  0  0  0  0  0  0  0  0  0  0  0
   45.4213   13.9914   12.5647 C   0  0  0  0  0  0  0  0  0  0  0  0
   45.6526   12.8862   11.7288 N   0  0  0  0  0  0  0  0  0  0  0  0
   47.9856    5.4723   15.1202 C   0  0  0  0  0  0  0  0  0  0  0  0
   48.1446    4.7296   16.0118 N   0  0  0  0  0  0  0  0  0  0  0  0
   50.4983    9.5532   13.1955 N   0  0  0  0  0  0  0  0  0  0  0  0
   51.1367    8.4156   12.6509 C   0  0  0  0  0  0  0  0  0  0  0  0
   51.2501    8.3150   11.1585 C   0  0  0  0  0  0  0  0  0  0  0  0
   51.9526    7.0709   10.6243 C   0  0  0  0  0  0  0  0  0  0  0  0
   52.5710    8.4132   10.4958 C   0  0  0  0  0  0  0  0  0  0  0  0
   44.1557   14.5911   12.8713 C   0  0  0  0  0  0  0  0  0  0  0  0
   44.0136   15.6819   13.7271 C   0  0  0  0  0  0  0  0  0  0  0  0
   42.6780   16.0195   13.8123 C   0  0  0  0  0  0  0  0  0  0  0  0
   42.0360   15.1526   13.0272 N   0  0  0  0  0  0  0  0  0  0  0  0
   42.9184   14.3069   12.4711 N   0  0  0  0  0  0  0  0  0  0  0  0
   42.0533   17.1128   14.6043 C   0  0  0  0  0  0  0  0  0  0  0  0
   40.8391   17.4494   14.0489 F   0  0  0  0  0  0  0  0  0  0  0  0
   42.8890   18.1903   14.7065 F   0  0  0  0  0  0  0  0  0  0  0  0
   41.7904   16.6500   15.8792 F   0  0  0  0  0  0  0  0  0  0  0  0
   42.4963   13.2822   11.5880 C   0  0  0  0  0  0  0  0  0  0  0  0
   42.4523   13.5839   10.2214 C   0  0  0  0  0  0  0  0  0  0  0  0
   42.1224   12.0138   12.0461 C   0  0  0  0  0  0  0  0  0  0  0  0
   41.7188   11.0982   11.1096 C   0  0  0  0  0  0  0  0  0  0  0  0
   41.6670   11.3740    9.7474 C   0  0  0  0  0  0  0  0  0  0  0  0
   42.0427   12.6450    9.3005 C   0  0  0  0  0  0  0  0  0  0  0  0
   42.0049   12.9884    7.8401 C   0  0  0  0  0  0  0  0  0  0  0  0
   43.2688   12.6750    7.2113 N   0  0  0  0  0  0  0  0  0  0  0  0
   45.9146   11.5318   11.5527 Cl  0  0  0  0  0  0  0  0  0  0  0  0
   46.8884   10.6365   11.9337 H   0  0  0  0  0  0  0  0  0  0  0  0
   49.1824    7.7493   14.8040 H   0  0  0  0  0  0  0  0  0  0  0  0
   47.2535    8.8579   11.1492 H   0  0  0  0  0  0  0  0  0  0  0  0
   45.9640    6.7064   11.2310 H   0  0  0  0  0  0  0  0  0  0  0  0
   46.3114    5.1159   13.1007 H   0  0  0  0  0  0  0  0  0  0  0  0
   50.3869   10.9098   10.7380 H   0  0  0  0  0  0  0  0  0  0  0  0
   48.7581   10.1436   14.0396 H   0  0  0  0  0  0  0  0  0  0  0  0
   46.8297   11.0162   13.0859 H   0  0  0  0  0  0  0  0  0  0  0  0
   49.4628   12.6555    9.3227 H   0  0  0  0  0  0  0  0  0  0  0  0
   44.8486   12.4231   11.2646 H   0  0  0  0  0  0  0  0  0  0  0  0
   50.8760    9.8660   14.0902 H   0  0  0  0  0  0  0  0  0  0  0  0
   52.2020    8.3713   13.0337 H   0  0  0  0  0  0  0  0  0  0  0  0
   50.7031    7.4439   12.9865 H   0  0  0  0  0  0  0  0  0  0  0  0
   50.3192    8.5449   10.5664 H   0  0  0  0  0  0  0  0  0  0  0  0
   51.5476    6.5529    9.7334 H   0  0  0  0  0  0  0  0  0  0  0  0
   52.3745    6.3638   11.3795 H   0  0  0  0  0  0  0  0  0  0  0  0
   53.4727    8.6674   11.0701 H   0  0  0  0  0  0  0  0  0  0  0  0
   52.6193    8.8097    9.4551 H   0  0  0  0  0  0  0  0  0  0  0  0
   44.7730   16.2265   14.2701 H   0  0  0  0  0  0  0  0  0  0  0  0
   42.7538   14.5920    9.8964 H   0  0  0  0  0  0  0  0  0  0  0  0
   42.1588   11.7901   13.0954 H   0  0  0  0  0  0  0  0  0  0  0  0
   41.4256   10.1044   11.4634 H   0  0  0  0  0  0  0  0  0  0  0  0
   41.3427   10.6263    9.0300 H   0  0  0  0  0  0  0  0  0  0  0  0
   41.2219   12.4059    7.3407 H   0  0  0  0  0  0  0  0  0  0  0  0
   41.7951   14.0924    7.8035 H   0  0  0  0  0  0  0  0  0  0  0  0
   43.1878   12.8414    6.2044 H   0  0  0  0  0  0  0  0  0  0  0  0
   44.0779   13.1178    7.6579 H   0  0  0  0  0  0  0  0  0  0  0  0
   46.8935   10.6318   11.9357 H   0  0  0  0  0  0  0  0  0  0  0  0
  2  3  2  0
  3  4  1  0
  4  5  2  0
  5  6  1  0
  6  7  2  0
  2  7  1  0
  8  9  2  0
  9 10  1  0
 10  4  1  0
 11 12  2  0
 12 13  1  0
 13 14  2  0
  8 14  1  0
  9 11  1  0
 16 17  2  0
 17 18  1  0
 15 13  1  0
 18 12  1  0
  2 19  1  0
 19 20  3  0
 10 21  1  0
 21 22  1  0
 22 23  1  0
 23 24  1  0
 23 25  1  0
 24 25  1  0
 17 26  1  0
 27 28  1  0
 28 29  2  0
 29 30  1  0
 30 26  1  0
 27 26  2  0
 28 31  1  0
 31 32  1  0
 31 33  1  0
 31 34  1  0
 30 35  1  0
 37 38  1  0
 38 39  2  0
 39 40  1  0
 36 40  2  0
 36 35  1  0
 35 37  2  0
 40 41  1  0
 41 42  1  0
  1 44  1  0
  3 45  1  0
  5 46  1  0
  6 47  1  0
  7 48  1  0
  8 49  1  0
 10 50  1  6
 11 51  1  0
 14 52  1  0
 18 53  1  0
 21 54  1  0
 22 55  1  0
 22 56  1  0
 23 57  1  0
 24 58  1  0
 24 59  1  0
 25 60  1  0
 25 61  1  0
 27 62  1  0
 36 63  1  0
 37 64  1  0
 38 65  1  0
 39 66  1  0
 41 67  1  0
 41 68  1  0
 42 69  1  0
 42 70  1  0
 43 71  1  0
M  END
> <Uni-Dock RESULT> 
ENERGY=   -4.871  LOWER_BOUND=    4.201  UPPER_BOUND=    6.192
INTER + INTRA:          -4.871
INTER:                  -4.871
INTRA:                   0.000
UNBOUND:                 0.000

$$$$

     RDKit          3D

 71 73  0  0  0  0  0  0  0  0999 V2000
   48.6015   11.5082   10.3903 Cl  0  0  0  0  0  0  0  0  0  0  0  0
   44.1438   11.3247    6.3876 C   0  0  0  0  0  0  0  0  0  0  0  0
   45.3231   12.0311    6.2567 C   0  0  0  0  0  0  0  0  0  0  0  0
   45.9961   12.5155    7.3583 C   0  0  0  0  0  0  0  0  0  0  0  0
   45.4430   12.2659    8.6070 C   0  0  0  0  0  0  0  0  0  0  0  0
   44.2538   11.5528    8.7295 C   0  0  0  0  0  0  0  0  0  0  0  0
   43.5816   11.0689    7.6263 C   0  0  0  0  0  0  0  0  0  0  0  0
   48.3782   14.7145    8.8969 C   0  0  0  0  0  0  0  0  0  0  0  0
   48.0798   13.5062    8.3156 C   0  0  0  0  0  0  0  0  0  0  0  0
   47.2472   13.2624    7.1534 C   0  0  2  0  0  0  0  0  0  0  0  0
   48.6373   12.3906    8.9484 C   0  0  0  0  0  0  0  0  0  0  0  0
   49.4206   12.4718   10.0601 C   0  0  0  0  0  0  0  0  0  0  0  0
   49.7108   13.6933   10.6331 C   0  0  0  0  0  0  0  0  0  0  0  0
   49.1741   14.8092   10.0290 C   0  0  0  0  0  0  0  0  0  0  0  0
   50.4922   13.7402   11.7373 F   0  0  0  0  0  0  0  0  0  0  0  0
   51.8567   11.3400    9.4024 O   0  0  0  0  0  0  0  0  0  0  0  0
   51.1952   10.7286   10.3108 C   0  0  0  0  0  0  0  0  0  0  0  0
   49.9552   11.2929   10.6543 N   0  0  0  0  0  0  0  0  0  0  0  0
   43.4799   10.8398    5.1976 C   0  0  0  0  0  0  0  0  0  0  0  0
   42.9390   10.4319    4.2421 N   0  0  0  0  0  0  0  0  0  0  0  0
   47.1932   14.2946    6.1707 N   0  0  0  0  0  0  0  0  0  0  0  0
   45.9974   15.0384    6.0479 C   0  0  0  0  0  0  0  0  0  0  0  0
   45.6038   15.9369    7.1828 C   0  0  0  0  0  0  0  0  0  0  0  0
   44.3086   16.7206    6.9960 C   0  0  0  0  0  0  0  0  0  0  0  0
   45.6225   17.4087    7.0188 C   0  0  0  0  0  0  0  0  0  0  0  0
   51.7901    9.5492   10.8680 C   0  0  0  0  0  0  0  0  0  0  0  0
   53.0237    9.0476   10.4567 C   0  0  0  0  0  0  0  0  0  0  0  0
   53.3147    7.9103   11.1827 C   0  0  0  0  0  0  0  0  0  0  0  0
   52.2813    7.7350   12.0081 N   0  0  0  0  0  0  0  0  0  0  0  0
   51.3792    8.7110   11.8169 N   0  0  0  0  0  0  0  0  0  0  0  0
   54.5174    7.0402   11.0879 C   0  0  0  0  0  0  0  0  0  0  0  0
   54.6838    6.3525   12.2692 F   0  0  0  0  0  0  0  0  0  0  0  0
   55.6278    7.7645   10.7532 F   0  0  0  0  0  0  0  0  0  0  0  0
   54.3097    6.0924   10.1045 F   0  0  0  0  0  0  0  0  0  0  0  0
   50.1809    8.7609   12.5717 C   0  0  0  0  0  0  0  0  0  0  0  0
   50.1996    9.4898   13.7671 C   0  0  0  0  0  0  0  0  0  0  0  0
   49.0158    8.1035   12.1607 C   0  0  0  0  0  0  0  0  0  0  0  0
   47.9145    8.2062   12.9698 C   0  0  0  0  0  0  0  0  0  0  0  0
   47.9084    8.9241   14.1610 C   0  0  0  0  0  0  0  0  0  0  0  0
   49.0783    9.5771   14.5623 C   0  0  0  0  0  0  0  0  0  0  0  0
   49.1192   10.3654   15.8387 C   0  0  0  0  0  0  0  0  0  0  0  0
   48.7396   11.7400   15.5996 N   0  0  0  0  0  0  0  0  0  0  0  0
   48.6054   11.5054   10.3956 Cl  0  0  0  0  0  0  0  0  0  0  0  0
   47.8470   12.0447    9.3812 H   0  0  0  0  0  0  0  0  0  0  0  0
   45.6954   12.1840    5.2354 H   0  0  0  0  0  0  0  0  0  0  0  0
   45.9641   12.6420    9.4810 H   0  0  0  0  0  0  0  0  0  0  0  0
   43.8204   11.3572    9.7090 H   0  0  0  0  0  0  0  0  0  0  0  0
   42.6543   10.5111    7.6914 H   0  0  0  0  0  0  0  0  0  0  0  0
   48.0222   15.6398    8.4934 H   0  0  0  0  0  0  0  0  0  0  0  0
   47.8671   12.4256    6.5479 H   0  0  0  0  0  0  0  0  0  0  0  0
   48.4478   11.3980    8.5470 H   0  0  0  0  0  0  0  0  0  0  0  0
   49.4070   15.7686   10.4860 H   0  0  0  0  0  0  0  0  0  0  0  0
   49.3747   10.8382   11.3840 H   0  0  0  0  0  0  0  0  0  0  0  0
   47.6952   14.1475    5.2947 H   0  0  0  0  0  0  0  0  0  0  0  0
   46.0761   15.7174    5.1445 H   0  0  0  0  0  0  0  0  0  0  0  0
   45.0955   14.4202    5.8260 H   0  0  0  0  0  0  0  0  0  0  0  0
   45.6704   15.4980    8.2186 H   0  0  0  0  0  0  0  0  0  0  0  0
   43.6053   16.8273    7.8447 H   0  0  0  0  0  0  0  0  0  0  0  0
   43.7861   16.6094    6.0147 H   0  0  0  0  0  0  0  0  0  0  0  0
   46.0249   17.8695    6.1059 H   0  0  0  0  0  0  0  0  0  0  0  0
   45.8034   18.0448    7.9161 H   0  0  0  0  0  0  0  0  0  0  0  0
   53.6979    9.4284    9.7027 H   0  0  0  0  0  0  0  0  0  0  0  0
   51.1336    9.9947   14.0595 H   0  0  0  0  0  0  0  0  0  0  0  0
   49.0093    7.5466   11.2430 H   0  0  0  0  0  0  0  0  0  0  0  0
   47.0005    7.6936   12.6520 H   0  0  0  0  0  0  0  0  0  0  0  0
   47.0187    8.9865   14.7801 H   0  0  0  0  0  0  0  0  0  0  0  0
   48.4156    9.9383   16.5628 H   0  0  0  0  0  0  0  0  0  0  0  0
   50.1835   10.2932   16.1942 H   0  0  0  0  0  0  0  0  0  0  0  0
   48.6966   12.2323   16.4963 H   0  0  0  0  0  0  0  0  0  0  0  0
   49.2970   12.2070   14.8776 H   0  0  0  0  0  0  0  0  0  0  0  0
   47.8430   12.0475    9.3759 H   0  0  0  0  0  0  0  0  0  0  0  0
  2  3  2  0
  3  4  1  0
  4  5  2  0
  5  6  1  0
  6  7  2  0
  2  7  1  0
  8  9  2  0
  9 10  1  0
 10  4  1  0
 11 12  2  0
 12 13  1  0
 13 14  2  0
  8 14  1  0
  9 11  1  0
 16 17  2  0
 17 18  1  0
 15 13  1  0
 18 12  1  0
  2 19  1  0
 19 20  3  0
 10 21  1  0
 21 22  1  0
 22 23  1  0
 23 24  1  0
 23 25  1  0
 24 25  1  0
 17 26  1  0
 27 28  1  0
 28 29  2  0
 29 30  1  0
 30 26  1  0
 27 26  2  0
 28 31  1  0
 31 32  1  0
 31 33  1  0
 31 34  1  0
 30 35  1  0
 37 38  1  0
 38 39  2  0
 39 40  1  0
 36 40  2  0
 36 35  1  0
 35 37  2  0
 40 41  1  0
 41 42  1  0
  1 44  1  0
  3 45  1  0
  5 46  1  0
  6 47  1  0
  7 48  1  0
  8 49  1  0
 10 50  1  6
 11 51  1  0
 14 52  1  0
 18 53  1  0
 21 54  1  0
 22 55  1  0
 22 56  1  0
 23 57  1  0
 24 58  1  0
 24 59  1  0
 25 60  1  0
 25 61  1  0
 27 62  1  0
 36 63  1  0
 37 64  1  0
 38 65  1  0
 39 66  1  0
 41 67  1  0
 41 68  1  0
 42 69  1  0
 42 70  1  0
 43 71  1  0
M  END
> <Uni-Dock RESULT> 
ENERGY=   -4.550  LOWER_BOUND=    5.601  UPPER_BOUND=   11.108
INTER + INTRA:          -4.550
INTER:                  -4.550
INTRA:                   0.000
UNBOUND:                 0.000

$$$$

     RDKit          3D

 71 73  0  0  0  0  0  0  0  0999 V2000
   48.6207   10.3793   14.0513 Cl  0  0  0  0  0  0  0  0  0  0  0  0
   44.4407   14.3571   12.4292 C   0  0  0  0  0  0  0  0  0  0  0  0
   44.9943   13.3858   11.6185 C   0  0  0  0  0  0  0  0  0  0  0  0
   46.2822   12.9344   11.8157 C   0  0  0  0  0  0  0  0  0  0  0  0
   47.0033   13.4937   12.8619 C   0  0  0  0  0  0  0  0  0  0  0  0
   46.4372   14.4723   13.6740 C   0  0  0  0  0  0  0  0  0  0  0  0
   45.1485   14.9229   13.4755 C   0  0  0  0  0  0  0  0  0  0  0  0
   49.2672   11.2923   10.6884 C   0  0  0  0  0  0  0  0  0  0  0  0
   48.0447   11.2373   11.3126 C   0  0  0  0  0  0  0  0  0  0  0  0
   46.8162   11.8988   10.9171 C   0  0  2  0  0  0  0  0  0  0  0  0
   48.0086   10.4643   12.4775 C   0  0  0  0  0  0  0  0  0  0  0  0
   49.0926    9.8063   12.9755 C   0  0  0  0  0  0  0  0  0  0  0  0
   50.3144    9.8719   12.3372 C   0  0  0  0  0  0  0  0  0  0  0  0
   50.3777   10.6269   11.1865 C   0  0  0  0  0  0  0  0  0  0  0  0
   51.3721    9.2065   12.8575 F   0  0  0  0  0  0  0  0  0  0  0  0
   48.4232    7.1245   13.0675 O   0  0  0  0  0  0  0  0  0  0  0  0
   48.6437    7.6741   14.2015 C   0  0  0  0  0  0  0  0  0  0  0  0
   48.9843    9.0368   14.1691 N   0  0  0  0  0  0  0  0  0  0  0  0
   43.0850   14.7933   12.1768 C   0  0  0  0  0  0  0  0  0  0  0  0
   41.9840   15.1466   11.9898 N   0  0  0  0  0  0  0  0  0  0  0  0
   46.6334   12.1402    9.5233 N   0  0  0  0  0  0  0  0  0  0  0  0
   46.7213   13.4724    9.0588 C   0  0  0  0  0  0  0  0  0  0  0  0
   48.0546   14.1570    9.1221 C   0  0  0  0  0  0  0  0  0  0  0  0
   48.0947   15.5907    8.6030 C   0  0  0  0  0  0  0  0  0  0  0  0
   48.7864   14.4956    7.8799 C   0  0  0  0  0  0  0  0  0  0  0  0
   48.5188    6.8437   15.3634 C   0  0  0  0  0  0  0  0  0  0  0  0
   48.1600    5.4981   15.3067 C   0  0  0  0  0  0  0  0  0  0  0  0
   48.1290    4.9835   16.5870 C   0  0  0  0  0  0  0  0  0  0  0  0
   48.4608    5.9954   17.3906 N   0  0  0  0  0  0  0  0  0  0  0  0
   48.6911    7.0973   16.6587 N   0  0  0  0  0  0  0  0  0  0  0  0
   47.7980    3.5977   17.0146 C   0  0  0  0  0  0  0  0  0  0  0  0
   48.3608    3.3479   18.2463 F   0  0  0  0  0  0  0  0  0  0  0  0
   48.1876    2.6831   16.0757 F   0  0  0  0  0  0  0  0  0  0  0  0
   46.4301    3.4922   17.1761 F   0  0  0  0  0  0  0  0  0  0  0  0
   49.0643    8.3199   17.2704 C   0  0  0  0  0  0  0  0  0  0  0  0
   50.4322    8.5681   17.4379 C   0  0  0  0  0  0  0  0  0  0  0  0
   48.1163    9.2517   17.7081 C   0  0  0  0  0  0  0  0  0  0  0  0
   48.5829   10.3976   18.2972 C   0  0  0  0  0  0  0  0  0  0  0  0
   49.9359   10.6667   18.4744 C   0  0  0  0  0  0  0  0  0  0  0  0
   50.8748    9.7285   18.0335 C   0  0  0  0  0  0  0  0  0  0  0  0
   52.3455    9.9758   18.2013 C   0  0  0  0  0  0  0  0  0  0  0  0
   52.8790   10.6696   17.0501 N   0  0  0  0  0  0  0  0  0  0  0  0
   48.6241   10.3752   14.0561 Cl  0  0  0  0  0  0  0  0  0  0  0  0
   47.9830   11.1713   13.1340 H   0  0  0  0  0  0  0  0  0  0  0  0
   44.3581   12.9929   10.8150 H   0  0  0  0  0  0  0  0  0  0  0  0
   48.0176   13.1460   13.0265 H   0  0  0  0  0  0  0  0  0  0  0  0
   47.0030   14.9106   14.4945 H   0  0  0  0  0  0  0  0  0  0  0  0
   44.6821   15.6833   14.0914 H   0  0  0  0  0  0  0  0  0  0  0  0
   49.4147   11.8393    9.7803 H   0  0  0  0  0  0  0  0  0  0  0  0
   45.9819   11.0484   11.0959 H   0  0  0  0  0  0  0  0  0  0  0  0
   47.0757   10.3708   13.0283 H   0  0  0  0  0  0  0  0  0  0  0  0
   51.3438   10.6741   10.6888 H   0  0  0  0  0  0  0  0  0  0  0  0
   49.1724    9.5348   15.0595 H   0  0  0  0  0  0  0  0  0  0  0  0
   45.9637   11.5572    9.0209 H   0  0  0  0  0  0  0  0  0  0  0  0
   46.4230   13.5029    7.9664 H   0  0  0  0  0  0  0  0  0  0  0  0
   45.9994   14.1731    9.5413 H   0  0  0  0  0  0  0  0  0  0  0  0
   48.6270   14.0555   10.0875 H   0  0  0  0  0  0  0  0  0  0  0  0
   48.6776   16.3560    9.1512 H   0  0  0  0  0  0  0  0  0  0  0  0
   47.1499   15.9985    8.1676 H   0  0  0  0  0  0  0  0  0  0  0  0
   48.4209   14.1582    6.9000 H   0  0  0  0  0  0  0  0  0  0  0  0
   49.8997   14.5431    7.9108 H   0  0  0  0  0  0  0  0  0  0  0  0
   47.9293    4.8894   14.4439 H   0  0  0  0  0  0  0  0  0  0  0  0
   51.1502    7.8130   17.0814 H   0  0  0  0  0  0  0  0  0  0  0  0
   47.0693    9.0542   17.5761 H   0  0  0  0  0  0  0  0  0  0  0  0
   47.8447   11.1296   18.6409 H   0  0  0  0  0  0  0  0  0  0  0  0
   50.2739   11.5849   18.9450 H   0  0  0  0  0  0  0  0  0  0  0  0
   52.5197   10.5992   19.0860 H   0  0  0  0  0  0  0  0  0  0  0  0
   52.8042    8.9550   18.3096 H   0  0  0  0  0  0  0  0  0  0  0  0
   53.8614   10.8972   17.2268 H   0  0  0  0  0  0  0  0  0  0  0  0
   52.6993   10.1975   16.1585 H   0  0  0  0  0  0  0  0  0  0  0  0
   47.9796   11.1755   13.1292 H   0  0  0  0  0  0  0  0  0  0  0  0
  2  3  2  0
  3  4  1  0
  4  5  2  0
  5  6  1  0
  6  7  2  0
  2  7  1  0
  8  9  2  0
  9 10  1  0
 10  4  1  0
 11 12  2  0
 12 13  1  0
 13 14  2  0
  8 14  1  0
  9 11  1  0
 16 17  2  0
 17 18  1  0
 15 13  1  0
 18 12  1  0
  2 19  1  0
 19 20  3  0
 10 21  1  0
 21 22  1  0
 22 23  1  0
 23 24  1  0
 23 25  1  0
 24 25  1  0
 17 26  1  0
 27 28  1  0
 28 29  2  0
 29 30  1  0
 30 26  1  0
 27 26  2  0
 28 31  1  0
 31 32  1  0
 31 33  1  0
 31 34  1  0
 30 35  1  0
 37 38  1  0
 38 39  2  0
 39 40  1  0
 36 40  2  0
 36 35  1  0
 35 37  2  0
 40 41  1  0
 41 42  1  0
  1 44  1  0
  3 45  1  0
  5 46  1  0
  6 47  1  0
  7 48  1  0
  8 49  1  0
 10 50  1  6
 11 51  1  0
 14 52  1  0
 18 53  1  0
 21 54  1  0
 22 55  1  0
 22 56  1  0
 23 57  1  0
 24 58  1  0
 24 59  1  0
 25 60  1  0
 25 61  1  0
 27 62  1  0
 36 63  1  0
 37 64  1  0
 38 65  1  0
 39 66  1  0
 41 67  1  0
 41 68  1  0
 42 69  1  0
 42 70  1  0
 43 71  1  0
M  END
> <Uni-Dock RESULT> 
ENERGY=   -4.527  LOWER_BOUND=    4.862  UPPER_BOUND=    9.519
INTER + INTRA:          -4.527
INTER:                  -4.527
INTRA:                   0.000
UNBOUND:                 0.000

$$$$

     RDKit          3D

 71 73  0  0  0  0  0  0  0  0999 V2000
   47.1380   12.9321    7.4124 Cl  0  0  0  0  0  0  0  0  0  0  0  0
   52.1528   10.0931    5.7638 C   0  0  0  0  0  0  0  0  0  0  0  0
   51.9580   10.7730    6.9499 C   0  0  0  0  0  0  0  0  0  0  0  0
   51.0966   11.8467    7.0289 C   0  0  0  0  0  0  0  0  0  0  0  0
   50.4306   12.2197    5.8692 C   0  0  0  0  0  0  0  0  0  0  0  0
   50.6331   11.5284    4.6780 C   0  0  0  0  0  0  0  0  0  0  0  0
   51.4953   10.4543    4.6006 C   0  0  0  0  0  0  0  0  0  0  0  0
   49.8796   14.8158    8.6354 C   0  0  0  0  0  0  0  0  0  0  0  0
   49.8231   13.4554    8.4538 C   0  0  0  0  0  0  0  0  0  0  0  0
   50.9330   12.5313    8.3211 C   0  0  2  0  0  0  0  0  0  0  0  0
   48.5331   12.9223    8.3676 C   0  0  0  0  0  0  0  0  0  0  0  0
   47.4020   13.6766    8.4538 C   0  0  0  0  0  0  0  0  0  0  0  0
   47.4752   15.0427    8.6355 C   0  0  0  0  0  0  0  0  0  0  0  0
   48.7347   15.5939    8.7241 C   0  0  0  0  0  0  0  0  0  0  0  0
   46.3327   15.7640    8.7174 F   0  0  0  0  0  0  0  0  0  0  0  0
   45.9540   12.6986   10.5974 O   0  0  0  0  0  0  0  0  0  0  0  0
   45.3932   12.5744    9.4543 C   0  0  0  0  0  0  0  0  0  0  0  0
   46.1185   13.0669    8.3563 N   0  0  0  0  0  0  0  0  0  0  0  0
   53.0684    8.9737    5.7384 C   0  0  0  0  0  0  0  0  0  0  0  0
   53.7985    8.0583    5.7077 N   0  0  0  0  0  0  0  0  0  0  0  0
   52.1436   12.8766    8.9915 N   0  0  0  0  0  0  0  0  0  0  0  0
   53.2490   13.2811    8.2087 C   0  0  0  0  0  0  0  0  0  0  0  0
   53.1519   14.5809    7.4661 C   0  0  0  0  0  0  0  0  0  0  0  0
   54.3742   14.9723    6.6420 C   0  0  0  0  0  0  0  0  0  0  0  0
   53.9939   15.7352    7.8560 C   0  0  0  0  0  0  0  0  0  0  0  0
   44.1017   11.9529    9.4261 C   0  0  0  0  0  0  0  0  0  0  0  0
   43.4571   11.4767   10.5664 C   0  0  0  0  0  0  0  0  0  0  0  0
   42.2379   10.9394   10.2061 C   0  0  0  0  0  0  0  0  0  0  0  0
   42.1542   11.0897    8.8831 N   0  0  0  0  0  0  0  0  0  0  0  0
   43.2636   11.6921    8.4254 N   0  0  0  0  0  0  0  0  0  0  0  0
   41.2113   10.3153   11.0833 C   0  0  0  0  0  0  0  0  0  0  0  0
   39.9800   10.3787   10.4702 F   0  0  0  0  0  0  0  0  0  0  0  0
   41.1999   10.8943   12.3220 F   0  0  0  0  0  0  0  0  0  0  0  0
   41.5076    8.9748   11.2379 F   0  0  0  0  0  0  0  0  0  0  0  0
   43.4302   11.9732    7.0465 C   0  0  0  0  0  0  0  0  0  0  0  0
   42.9835   13.2161    6.5813 C   0  0  0  0  0  0  0  0  0  0  0  0
   44.0065   11.0519    6.1646 C   0  0  0  0  0  0  0  0  0  0  0  0
   44.1108   11.4186    4.8483 C   0  0  0  0  0  0  0  0  0  0  0  0
   43.6749   12.6468    4.3626 C   0  0  0  0  0  0  0  0  0  0  0  0
   43.1002   13.5599    5.2527 C   0  0  0  0  0  0  0  0  0  0  0  0
   42.6169   14.8981    4.7754 C   0  0  0  0  0  0  0  0  0  0  0  0
   43.6763   15.8791    4.8547 N   0  0  0  0  0  0  0  0  0  0  0  0
   47.1309   12.9330    7.4124 Cl  0  0  0  0  0  0  0  0  0  0  0  0
   48.4959   12.7549    7.4178 H   0  0  0  0  0  0  0  0  0  0  0  0
   52.5202   10.4144    7.8218 H   0  0  0  0  0  0  0  0  0  0  0  0
   49.7501   13.0630    5.9197 H   0  0  0  0  0  0  0  0  0  0  0  0
   50.1105   11.8211    3.7688 H   0  0  0  0  0  0  0  0  0  0  0  0
   51.6728    9.8979    3.6874 H   0  0  0  0  0  0  0  0  0  0  0  0
   50.8103   15.3357    8.7318 H   0  0  0  0  0  0  0  0  0  0  0  0
   50.5827   11.5909    8.9874 H   0  0  0  0  0  0  0  0  0  0  0  0
   48.4055   11.8518    8.2249 H   0  0  0  0  0  0  0  0  0  0  0  0
   48.7847   16.6711    8.8672 H   0  0  0  0  0  0  0  0  0  0  0  0
   45.7130   12.9913    7.4045 H   0  0  0  0  0  0  0  0  0  0  0  0
   52.3866   12.3590    9.8364 H   0  0  0  0  0  0  0  0  0  0  0  0
   54.1562   13.3885    8.8786 H   0  0  0  0  0  0  0  0  0  0  0  0
   53.5752   12.5265    7.4544 H   0  0  0  0  0  0  0  0  0  0  0  0
   52.1979   14.7640    6.8949 H   0  0  0  0  0  0  0  0  0  0  0  0
   54.2382   15.4153    5.6363 H   0  0  0  0  0  0  0  0  0  0  0  0
   55.2613   14.2953    6.6984 H   0  0  0  0  0  0  0  0  0  0  0  0
   54.6221   15.6964    8.7569 H   0  0  0  0  0  0  0  0  0  0  0  0
   53.6130   16.7648    7.6629 H   0  0  0  0  0  0  0  0  0  0  0  0
   43.7908   11.4897   11.5943 H   0  0  0  0  0  0  0  0  0  0  0  0
   42.5353   13.9165    7.3033 H   0  0  0  0  0  0  0  0  0  0  0  0
   44.3466   10.1011    6.5288 H   0  0  0  0  0  0  0  0  0  0  0  0
   44.5613   10.7010    4.1547 H   0  0  0  0  0  0  0  0  0  0  0  0
   43.7719   12.9077    3.3132 H   0  0  0  0  0  0  0  0  0  0  0  0
   42.2958   14.8268    3.7296 H   0  0  0  0  0  0  0  0  0  0  0  0
   41.7649   15.1634    5.4593 H   0  0  0  0  0  0  0  0  0  0  0  0
   43.3447   16.7581    4.4477 H   0  0  0  0  0  0  0  0  0  0  0  0
   44.0954   15.9660    5.7858 H   0  0  0  0  0  0  0  0  0  0  0  0
   48.5030   12.7540    7.4178 H   0  0  0  0  0  0  0  0  0  0  0  0
  2  3  2  0
  3  4  1  0
  4  5  2  0
  5  6  1  0
  6  7  2  0
  2  7  1  0
  8  9  2  0
  9 10  1  0
 10  4  1  0
 11 12  2  0
 12 13  1  0
 13 14  2  0
  8 14  1  0
  9 11  1  0
 16 17  2  0
 17 18  1  0
 15 13  1  0
 18 12  1  0
  2 19  1  0
 19 20  3  0
 10 21  1  0
 21 22  1  0
 22 23  1  0
 23 24  1  0
 23 25  1  0
 24 25  1  0
 17 26  1  0
 27 28  1  0
 28 29  2  0
 29 30  1  0
 30 26  1  0
 27 26  2  0
 28 31  1  0
 31 32  1  0
 31 33  1  0
 31 34  1  0
 30 35  1  0
 37 38  1  0
 38 39  2  0
 39 40  1  0
 36 40  2  0
 36 35  1  0
 35 37  2  0
 40 41  1  0
 41 42  1  0
  1 44  1  0
  3 45  1  0
  5 46  1  0
  6 47  1  0
  7 48  1  0
  8 49  1  0
 10 50  1  6
 11 51  1  0
 14 52  1  0
 18 53  1  0
 21 54  1  0
 22 55  1  0
 22 56  1  0
 23 57  1  0
 24 58  1  0
 24 59  1  0
 25 60  1  0
 25 61  1  0
 27 62  1  0
 36 63  1  0
 37 64  1  0
 38 65  1  0
 39 66  1  0
 41 67  1  0
 41 68  1  0
 42 69  1  0
 42 70  1  0
 43 71  1  0
M  END
> <Uni-Dock RESULT> 
ENERGY=   -4.494  LOWER_BOUND=    7.834  UPPER_BOUND=    9.861
INTER + INTRA:          -4.494
INTER:                  -4.494
INTRA:                   0.000
UNBOUND:                 0.000

$$$$

     RDKit          3D

 71 73  0  0  0  0  0  0  0  0999 V2000
   48.5877    8.6890   16.1439 Cl  0  0  0  0  0  0  0  0  0  0  0  0
   48.4662   12.8396   20.4663 C   0  0  0  0  0  0  0  0  0  0  0  0
   49.2111   11.6768   20.4788 C   0  0  0  0  0  0  0  0  0  0  0  0
   48.7837   10.5431   19.8207 C   0  0  0  0  0  0  0  0  0  0  0  0
   47.5739   10.6140   19.1433 C   0  0  0  0  0  0  0  0  0  0  0  0
   46.8296   11.7904   19.1361 C   0  0  0  0  0  0  0  0  0  0  0  0
   47.2586   12.9239   19.7951 C   0  0  0  0  0  0  0  0  0  0  0  0
   48.8508    7.0010   19.2490 C   0  0  0  0  0  0  0  0  0  0  0  0
   49.3071    8.2615   18.9489 C   0  0  0  0  0  0  0  0  0  0  0  0
   49.6214    9.3345   19.8726 C   0  0  2  0  0  0  0  0  0  0  0  0
   49.4584    8.5274   17.5843 C   0  0  0  0  0  0  0  0  0  0  0  0
   49.1796    7.6197   16.6074 C   0  0  0  0  0  0  0  0  0  0  0  0
   48.7210    6.3574   16.9250 C   0  0  0  0  0  0  0  0  0  0  0  0
   48.5633    6.0689   18.2629 C   0  0  0  0  0  0  0  0  0  0  0  0
   48.4533    5.4784   15.9310 F   0  0  0  0  0  0  0  0  0  0  0  0
   51.5172    7.2447   15.1780 O   0  0  0  0  0  0  0  0  0  0  0  0
   50.5494    7.7623   14.5208 C   0  0  0  0  0  0  0  0  0  0  0  0
   49.3558    7.9588   15.2353 N   0  0  0  0  0  0  0  0  0  0  0  0
   48.9626   13.9992   21.1740 C   0  0  0  0  0  0  0  0  0  0  0  0
   49.3597   14.9485   21.7336 N   0  0  0  0  0  0  0  0  0  0  0  0
   50.0749    8.9560   21.1708 N   0  0  0  0  0  0  0  0  0  0  0  0
   49.2061    9.1583   22.2674 C   0  0  0  0  0  0  0  0  0  0  0  0
   47.9527    8.3371   22.3375 C   0  0  0  0  0  0  0  0  0  0  0  0
   47.0544    8.5911   23.5438 C   0  0  0  0  0  0  0  0  0  0  0  0
   47.7845    7.3090   23.3901 C   0  0  0  0  0  0  0  0  0  0  0  0
   50.7925    8.0792   13.1439 C   0  0  0  0  0  0  0  0  0  0  0  0
   52.0174    7.8645   12.5145 C   0  0  0  0  0  0  0  0  0  0  0  0
   51.9273    8.2702   11.1983 C   0  0  0  0  0  0  0  0  0  0  0  0
   50.6798    8.7168   11.0431 N   0  0  0  0  0  0  0  0  0  0  0  0
   50.0107    8.6010   12.2015 N   0  0  0  0  0  0  0  0  0  0  0  0
   52.9809    8.2320   10.1489 C   0  0  0  0  0  0  0  0  0  0  0  0
   52.3924    8.2237    8.9040 F   0  0  0  0  0  0  0  0  0  0  0  0
   53.8206    7.1679   10.3284 F   0  0  0  0  0  0  0  0  0  0  0  0
   53.7314    9.3895   10.2237 F   0  0  0  0  0  0  0  0  0  0  0  0
   48.6567    9.0048   12.3103 C   0  0  0  0  0  0  0  0  0  0  0  0
   47.6723    8.0441   12.0479 C   0  0  0  0  0  0  0  0  0  0  0  0
   48.2966   10.3127   12.6543 C   0  0  0  0  0  0  0  0  0  0  0  0
   46.9587   10.6020   12.7210 C   0  0  0  0  0  0  0  0  0  0  0  0
   45.9629    9.6654   12.4652 C   0  0  0  0  0  0  0  0  0  0  0  0
   46.3340    8.3613   12.1220 C   0  0  0  0  0  0  0  0  0  0  0  0
   45.2951    7.3159   11.8389 C   0  0  0  0  0  0  0  0  0  0  0  0
   44.9314    6.6189   13.0526 N   0  0  0  0  0  0  0  0  0  0  0  0
   48.5872    8.6868   16.1370 Cl  0  0  0  0  0  0  0  0  0  0  0  0
   48.6882    9.0930   17.4485 H   0  0  0  0  0  0  0  0  0  0  0  0
   50.1569   11.7033   21.0353 H   0  0  0  0  0  0  0  0  0  0  0  0
   47.2279    9.7281   18.6216 H   0  0  0  0  0  0  0  0  0  0  0  0
   45.8810   11.8457   18.6046 H   0  0  0  0  0  0  0  0  0  0  0  0
   46.7003   13.8530   19.8069 H   0  0  0  0  0  0  0  0  0  0  0  0
   48.7107    6.6757   20.2591 H   0  0  0  0  0  0  0  0  0  0  0  0
   50.6385    9.7928   19.4182 H   0  0  0  0  0  0  0  0  0  0  0  0
   49.8166    9.5036   17.2663 H   0  0  0  0  0  0  0  0  0  0  0  0
   48.2015    5.0722   18.5058 H   0  0  0  0  0  0  0  0  0  0  0  0
   48.5379    8.3768   14.7531 H   0  0  0  0  0  0  0  0  0  0  0  0
   51.0654    9.0745   21.3846 H   0  0  0  0  0  0  0  0  0  0  0  0
   49.7640    8.9319   23.2270 H   0  0  0  0  0  0  0  0  0  0  0  0
   48.8811   10.2169   22.4036 H   0  0  0  0  0  0  0  0  0  0  0  0
   47.3501    8.2567   21.3886 H   0  0  0  0  0  0  0  0  0  0  0  0
   45.9558    8.6299   23.4105 H   0  0  0  0  0  0  0  0  0  0  0  0
   47.4223    9.3220   24.3046 H   0  0  0  0  0  0  0  0  0  0  0  0
   48.6113    7.0551   24.0680 H   0  0  0  0  0  0  0  0  0  0  0  0
   47.1400    6.4249   23.1764 H   0  0  0  0  0  0  0  0  0  0  0  0
   52.9306    7.4537   12.9213 H   0  0  0  0  0  0  0  0  0  0  0  0
   47.9918    7.0248   11.7802 H   0  0  0  0  0  0  0  0  0  0  0  0
   49.0570   11.0436   12.8541 H   0  0  0  0  0  0  0  0  0  0  0  0
   46.6723   11.6241   12.9902 H   0  0  0  0  0  0  0  0  0  0  0  0
   44.9107    9.9262   12.5268 H   0  0  0  0  0  0  0  0  0  0  0  0
   44.3926    7.7881   11.4334 H   0  0  0  0  0  0  0  0  0  0  0  0
   45.7741    6.6193   11.0977 H   0  0  0  0  0  0  0  0  0  0  0  0
   44.1656    5.9716   12.8457 H   0  0  0  0  0  0  0  0  0  0  0  0
   45.7258    6.2028   13.5484 H   0  0  0  0  0  0  0  0  0  0  0  0
   48.6887    9.0951   17.4553 H   0  0  0  0  0  0  0  0  0  0  0  0
  2  3  2  0
  3  4  1  0
  4  5  2  0
  5  6  1  0
  6  7  2  0
  2  7  1  0
  8  9  2  0
  9 10  1  0
 10  4  1  0
 11 12  2  0
 12 13  1  0
 13 14  2  0
  8 14  1  0
  9 11  1  0
 16 17  2  0
 17 18  1  0
 15 13  1  0
 18 12  1  0
  2 19  1  0
 19 20  3  0
 10 21  1  0
 21 22  1  0
 22 23  1  0
 23 24  1  0
 23 25  1  0
 24 25  1  0
 17 26  1  0
 27 28  1  0
 28 29  2  0
 29 30  1  0
 30 26  1  0
 27 26  2  0
 28 31  1  0
 31 32  1  0
 31 33  1  0
 31 34  1  0
 30 35  1  0
 37 38  1  0
 38 39  2  0
 39 40  1  0
 36 40  2  0
 36 35  1  0
 35 37  2  0
 40 41  1  0
 41 42  1  0
  1 44  1  0
  3 45  1  0
  5 46  1  0
  6 47  1  0
  7 48  1  0
  8 49  1  0
 10 50  1  6
 11 51  1  0
 14 52  1  0
 18 53  1  0
 21 54  1  0
 22 55  1  0
 22 56  1  0
 23 57  1  0
 24 58  1  0
 24 59  1  0
 25 60  1  0
 25 61  1  0
 27 62  1  0
 36 63  1  0
 37 64  1  0
 38 65  1  0
 39 66  1  0
 41 67  1  0
 41 68  1  0
 42 69  1  0
 42 70  1  0
 43 71  1  0
M  END
> <Uni-Dock RESULT> 
ENERGY=   -4.485  LOWER_BOUND=    4.123  UPPER_BOUND=    7.208
INTER + INTRA:          -4.485
INTER:                  -4.485
INTRA:                   0.000
UNBOUND:                 0.000

$$$$

     RDKit          3D

 71 73  0  0  0  0  0  0  0  0999 V2000
   49.2408   10.4790   16.0981 Cl  0  0  0  0  0  0  0  0  0  0  0  0
   45.8478   14.5932   13.3618 C   0  0  0  0  0  0  0  0  0  0  0  0
   46.7607   13.7571   12.7498 C   0  0  0  0  0  0  0  0  0  0  0  0
   47.8761   13.2993   13.4187 C   0  0  0  0  0  0  0  0  0  0  0  0
   48.0477   13.7108   14.7335 C   0  0  0  0  0  0  0  0  0  0  0  0
   47.1223   14.5538   15.3424 C   0  0  0  0  0  0  0  0  0  0  0  0
   46.0068   15.0111   14.6718 C   0  0  0  0  0  0  0  0  0  0  0  0
   51.1706   11.8779   13.4753 C   0  0  0  0  0  0  0  0  0  0  0  0
   49.8068   11.7167   13.5065 C   0  0  0  0  0  0  0  0  0  0  0  0
   48.8129   12.4119   12.7114 C   0  0  2  0  0  0  0  0  0  0  0  0
   49.3419   10.7827   14.4378 C   0  0  0  0  0  0  0  0  0  0  0  0
   50.1617   10.0742   15.2635 C   0  0  0  0  0  0  0  0  0  0  0  0
   51.5301   10.2479   15.2207 C   0  0  0  0  0  0  0  0  0  0  0  0
   52.0150   11.1623   14.3114 C   0  0  0  0  0  0  0  0  0  0  0  0
   52.3174    9.5284   16.0542 F   0  0  0  0  0  0  0  0  0  0  0  0
   49.7154    7.3986   14.7245 O   0  0  0  0  0  0  0  0  0  0  0  0
   49.3980    7.7811   15.9033 C   0  0  0  0  0  0  0  0  0  0  0  0
   49.6192    9.1385   16.1903 N   0  0  0  0  0  0  0  0  0  0  0  0
   44.6954   15.0432   12.6125 C   0  0  0  0  0  0  0  0  0  0  0  0
   43.7520   15.4050   12.0200 N   0  0  0  0  0  0  0  0  0  0  0  0
   49.2152   12.8502   11.4152 N   0  0  0  0  0  0  0  0  0  0  0  0
   49.3915   14.2367   11.2035 C   0  0  0  0  0  0  0  0  0  0  0  0
   50.5204   14.9227   11.9143 C   0  0  0  0  0  0  0  0  0  0  0  0
   50.6690   16.4169   11.6460 C   0  0  0  0  0  0  0  0  0  0  0  0
   51.6791   15.4474   11.1558 C   0  0  0  0  0  0  0  0  0  0  0  0
   48.8582    6.7895   16.7869 C   0  0  0  0  0  0  0  0  0  0  0  0
   48.6568    5.4617   16.4145 C   0  0  0  0  0  0  0  0  0  0  0  0
   48.1289    4.7667   17.4839 C   0  0  0  0  0  0  0  0  0  0  0  0
   48.0169    5.6560   18.4721 N   0  0  0  0  0  0  0  0  0  0  0  0
   48.4514    6.8552   18.0526 N   0  0  0  0  0  0  0  0  0  0  0  0
   47.7522    3.3293   17.5521 C   0  0  0  0  0  0  0  0  0  0  0  0
   47.7623    2.9113   18.8642 F   0  0  0  0  0  0  0  0  0  0  0  0
   48.5663    2.5657   16.7624 F   0  0  0  0  0  0  0  0  0  0  0  0
   46.4548    3.1831   17.1006 F   0  0  0  0  0  0  0  0  0  0  0  0
   48.4418    7.9812   18.9130 C   0  0  0  0  0  0  0  0  0  0  0  0
   49.5904    8.2209   19.6771 C   0  0  0  0  0  0  0  0  0  0  0  0
   47.3318    8.8270   19.0178 C   0  0  0  0  0  0  0  0  0  0  0  0
   47.4219    9.8817   19.8881 C   0  0  0  0  0  0  0  0  0  0  0  0
   48.5514   10.1405   20.6572 C   0  0  0  0  0  0  0  0  0  0  0  0
   49.6551    9.2887   20.5448 C   0  0  0  0  0  0  0  0  0  0  0  0
   50.8966    9.5288   21.3530 C   0  0  0  0  0  0  0  0  0  0  0  0
   51.8115   10.3890   20.6361 N   0  0  0  0  0  0  0  0  0  0  0  0
   49.2421   10.4742   16.1033 Cl  0  0  0  0  0  0  0  0  0  0  0  0
   48.9908   11.3868   15.1037 H   0  0  0  0  0  0  0  0  0  0  0  0
   46.5516   13.4762   11.7095 H   0  0  0  0  0  0  0  0  0  0  0  0
   48.9216   13.3565   15.2697 H   0  0  0  0  0  0  0  0  0  0  0  0
   47.2572   14.8762   16.3736 H   0  0  0  0  0  0  0  0  0  0  0  0
   45.2702   15.6679   15.1201 H   0  0  0  0  0  0  0  0  0  0  0  0
   51.6451   12.5526   12.7931 H   0  0  0  0  0  0  0  0  0  0  0  0
   48.0459   11.5335   12.4095 H   0  0  0  0  0  0  0  0  0  0  0  0
   48.2736   10.5980   14.5220 H   0  0  0  0  0  0  0  0  0  0  0  0
   53.0944   11.2941   14.2832 H   0  0  0  0  0  0  0  0  0  0  0  0
   49.3786    9.5048   17.1306 H   0  0  0  0  0  0  0  0  0  0  0  0
   48.8634   12.3372   10.6065 H   0  0  0  0  0  0  0  0  0  0  0  0
   49.5782   14.4210   10.1014 H   0  0  0  0  0  0  0  0  0  0  0  0
   48.4842   14.8503   11.4158 H   0  0  0  0  0  0  0  0  0  0  0  0
   50.6402   14.6902   13.0104 H   0  0  0  0  0  0  0  0  0  0  0  0
   50.9095   17.1025   12.4815 H   0  0  0  0  0  0  0  0  0  0  0  0
   49.9672   16.8707   10.9044 H   0  0  0  0  0  0  0  0  0  0  0  0
   51.7849   15.2506   10.0798 H   0  0  0  0  0  0  0  0  0  0  0  0
   52.6696   15.5048   11.6639 H   0  0  0  0  0  0  0  0  0  0  0  0
   48.8554    4.9813   15.4670 H   0  0  0  0  0  0  0  0  0  0  0  0
   50.4453    7.5351   19.5692 H   0  0  0  0  0  0  0  0  0  0  0  0
   46.4548    8.6367   18.4286 H   0  0  0  0  0  0  0  0  0  0  0  0
   46.5558   10.5463   19.9731 H   0  0  0  0  0  0  0  0  0  0  0  0
   48.5918   10.9853   21.3380 H   0  0  0  0  0  0  0  0  0  0  0  0
   50.6367   10.0198   22.2981 H   0  0  0  0  0  0  0  0  0  0  0  0
   51.3413    8.5093   21.5177 H   0  0  0  0  0  0  0  0  0  0  0  0
   52.6091   10.6018   21.2416 H   0  0  0  0  0  0  0  0  0  0  0  0
   52.0582   10.0487   19.7015 H   0  0  0  0  0  0  0  0  0  0  0  0
   48.9895   11.3916   15.0985 H   0  0  0  0  0  0  0  0  0  0  0  0
  2  3  2  0
  3  4  1  0
  4  5  2  0
  5  6  1  0
  6  7  2  0
  2  7  1  0
  8  9  2  0
  9 10  1  0
 10  4  1  0
 11 12  2  0
 12 13  1  0
 13 14  2  0
  8 14  1  0
  9 11  1  0
 16 17  2  0
 17 18  1  0
 15 13  1  0
 18 12  1  0
  2 19  1  0
 19 20  3  0
 10 21  1  0
 21 22  1  0
 22 23  1  0
 23 24  1  0
 23 25  1  0
 24 25  1  0
 17 26  1  0
 27 28  1  0
 28 29  2  0
 29 30  1  0
 30 26  1  0
 27 26  2  0
 28 31  1  0
 31 32  1  0
 31 33  1  0
 31 34  1  0
 30 35  1  0
 37 38  1  0
 38 39  2  0
 39 40  1  0
 36 40  2  0
 36 35  1  0
 35 37  2  0
 40 41  1  0
 41 42  1  0
  1 44  1  0
  3 45  1  0
  5 46  1  0
  6 47  1  0
  7 48  1  0
  8 49  1  0
 10 50  1  6
 11 51  1  0
 14 52  1  0
 18 53  1  0
 21 54  1  0
 22 55  1  0
 22 56  1  0
 23 57  1  0
 24 58  1  0
 24 59  1  0
 25 60  1  0
 25 61  1  0
 27 62  1  0
 36 63  1  0
 37 64  1  0
 38 65  1  0
 39 66  1  0
 41 67  1  0
 41 68  1  0
 42 69  1  0
 42 70  1  0
 43 71  1  0
M  END
> <Uni-Dock RESULT> 
ENERGY=   -4.224  LOWER_BOUND=    5.762  UPPER_BOUND=    9.625
INTER + INTRA:          -4.224
INTER:                  -4.224
INTRA:                   0.000
UNBOUND:                 0.000

$$$$
