
     RDKit          3D

 71 73  0  0  0  0  0  0  0  0999 V2000
   48.8340    9.7784   15.4518 Cl  0  0  0  0  0  0  0  0  0  0  0  0
   47.5368    9.9457   19.5509 C   0  0  0  0  0  0  0  0  0  0  0  0
   48.3549   10.8439   18.8631 C   0  0  0  0  0  0  0  0  0  0  0  0
   48.0494   12.2040   18.8254 C   0  0  0  0  0  0  0  0  0  0  0  0
   46.9141   12.6240   19.4908 C   0  0  0  0  0  0  0  0  0  0  0  0
   46.0876   11.7538   20.1794 C   0  0  0  0  0  0  0  0  0  0  0  0
   46.4096   10.4079   20.2036 C   0  0  0  0  0  0  0  0  0  0  0  0
   47.8345   14.1358   16.0638 C   0  0  0  0  0  0  0  0  0  0  0  0
   48.6555   13.1766   16.6316 C   0  0  0  0  0  0  0  0  0  0  0  0
   48.9414   13.1388   18.0786 C   0  0  2  0  0  0  0  0  0  0  0  0
   49.2190   12.2345   15.7996 C   0  0  0  0  0  0  0  0  0  0  0  0
   48.9745   12.2441   14.4425 C   0  0  0  0  0  0  0  0  0  0  0  0
   48.1461   13.2100   13.8626 C   0  0  0  0  0  0  0  0  0  0  0  0
   47.6001   14.1320   14.7065 C   0  0  0  0  0  0  0  0  0  0  0  0
   47.9096   13.2141   12.5205 F   0  0  0  0  0  0  0  0  0  0  0  0
   47.8871    9.6280   13.7945 O   0  0  0  0  0  0  0  0  0  0  0  0
   49.0121    9.9831   13.3593 C   0  0  0  0  0  0  0  0  0  0  0  0
   49.5926   11.2484   13.6439 N   0  0  0  0  0  0  0  0  0  0  0  0
   47.8400    8.5362   19.5984 C   0  0  0  0  0  0  0  0  0  0  0  0
   48.1013    7.4005   19.6440 N   0  0  0  0  0  0  0  0  0  0  0  0
   50.3289   12.9068   18.3312 N   0  0  0  0  0  0  0  0  0  0  0  0
   50.7527   13.0606   19.6852 C   0  0  0  0  0  0  0  0  0  0  0  0
   50.6951   14.4976   20.1599 C   0  0  0  0  0  0  0  0  0  0  0  0
   51.1293   14.7236   21.5849 C   0  0  0  0  0  0  0  0  0  0  0  0
   49.6996   14.9278   21.1905 C   0  0  0  0  0  0  0  0  0  0  0  0
   49.8021    9.0757   12.5096 C   0  0  0  0  0  0  0  0  0  0  0  0
   51.0539    9.3209   11.9439 C   0  0  0  0  0  0  0  0  0  0  0  0
   51.4564    8.2182   11.2153 C   0  0  0  0  0  0  0  0  0  0  0  0
   50.4566    7.3292   11.3461 N   0  0  0  0  0  0  0  0  0  0  0  0
   49.4915    7.8316   12.1021 N   0  0  0  0  0  0  0  0  0  0  0  0
   52.7343    8.0619   10.4513 C   0  0  0  0  0  0  0  0  0  0  0  0
   53.3208    6.8383   10.6648 F   0  0  0  0  0  0  0  0  0  0  0  0
   53.6448    9.0438   10.8380 F   0  0  0  0  0  0  0  0  0  0  0  0
   52.4738    8.2686    9.1101 F   0  0  0  0  0  0  0  0  0  0  0  0
   48.3097    7.1047   12.4076 C   0  0  0  0  0  0  0  0  0  0  0  0
   48.2142    6.2199   13.4554 C   0  0  0  0  0  0  0  0  0  0  0  0
   47.2132    7.3272   11.5738 C   0  0  0  0  0  0  0  0  0  0  0  0
   46.0107    6.6692   11.7775 C   0  0  0  0  0  0  0  0  0  0  0  0
   45.9158    5.7862   12.8234 C   0  0  0  0  0  0  0  0  0  0  0  0
   47.0093    5.5757   13.6407 C   0  0  0  0  0  0  0  0  0  0  0  0
   46.8515    4.6061   14.7632 C   0  0  0  0  0  0  0  0  0  0  0  0
   47.2372    3.2780   14.2656 N   0  0  0  0  0  0  0  0  0  0  0  0
   48.8344    9.7822   15.4562 Cl  0  0  0  0  0  0  0  0  0  0  0  0
   48.9361   10.6780   16.4978 H   0  0  0  0  0  0  0  0  0  0  0  0
   49.2231   10.4354   18.3706 H   0  0  0  0  0  0  0  0  0  0  0  0
   46.6532   13.6910   19.4744 H   0  0  0  0  0  0  0  0  0  0  0  0
   45.2001   12.1020   20.6971 H   0  0  0  0  0  0  0  0  0  0  0  0
   45.7434    9.7481   20.7510 H   0  0  0  0  0  0  0  0  0  0  0  0
   47.4024   14.8680   16.7388 H   0  0  0  0  0  0  0  0  0  0  0  0
   48.7288   14.1771   18.4806 H   0  0  0  0  0  0  0  0  0  0  0  0
   49.8549   11.4881   16.2254 H   0  0  0  0  0  0  0  0  0  0  0  0
   46.9536   14.8992   14.2976 H   0  0  0  0  0  0  0  0  0  0  0  0
   50.5427   11.4985   13.2552 H   0  0  0  0  0  0  0  0  0  0  0  0
   50.9730   13.2118   17.6017 H   0  0  0  0  0  0  0  0  0  0  0  0
   50.2453   12.4006   20.3943 H   0  0  0  0  0  0  0  0  0  0  0  0
   51.8382   12.7569   19.7114 H   0  0  0  0  0  0  0  0  0  0  0  0
   51.0796   15.2485   19.4396 H   0  0  0  0  0  0  0  0  0  0  0  0
   51.2963   13.8481   22.2548 H   0  0  0  0  0  0  0  0  0  0  0  0
   51.6791   15.6549   21.8330 H   0  0  0  0  0  0  0  0  0  0  0  0
   49.3014   15.9633   21.0204 H   0  0  0  0  0  0  0  0  0  0  0  0
   48.9128   14.2305   21.5541 H   0  0  0  0  0  0  0  0  0  0  0  0
   51.6332   10.2194   12.0455 H   0  0  0  0  0  0  0  0  0  0  0  0
   49.0768    6.0524   14.1008 H   0  0  0  0  0  0  0  0  0  0  0  0
   47.2810    8.0109   10.7637 H   0  0  0  0  0  0  0  0  0  0  0  0
   45.1603    6.8423   11.1283 H   0  0  0  0  0  0  0  0  0  0  0  0
   44.9706    5.2838   12.9645 H   0  0  0  0  0  0  0  0  0  0  0  0
   47.5346    4.8659   15.5966 H   0  0  0  0  0  0  0  0  0  0  0  0
   45.7799    4.5779   15.0817 H   0  0  0  0  0  0  0  0  0  0  0  0
   48.2282    3.4167   13.8977 H   0  0  0  0  0  0  0  0  0  0  0  0
   47.2837    2.6204   15.0524 H   0  0  0  0  0  0  0  0  0  0  0  0
   48.9357   10.6743   16.4935 H   0  0  0  0  0  0  0  0  0  0  0  0
  2  3  2  0
  3  4  1  0
  4  5  2  0
  5  6  1  0
  6  7  2  0
  2  7  1  0
  8  9  2  0
  9 10  1  0
 10  4  1  0
 11 12  2  0
 12 13  1  0
 13 14  2  0
  8 14  1  0
  9 11  1  0
 16 17  2  0
 17 18  1  0
 15 13  1  0
 18 12  1  0
  2 19  1  0
 19 20  3  0
 10 21  1  0
 21 22  1  0
 22 23  1  0
 23 24  1  0
 23 25  1  0
 24 25  1  0
 17 26  1  0
 27 28  1  0
 28 29  2  0
 29 30  1  0
 30 26  1  0
 27 26  2  0
 28 31  1  0
 31 32  1  0
 31 33  1  0
 31 34  1  0
 30 35  1  0
 37 38  1  0
 38 39  2  0
 39 40  1  0
 36 40  2  0
 36 35  1  0
 35 37  2  0
 40 41  1  0
 41 42  1  0
  1 44  1  0
  3 45  1  0
  5 46  1  0
  6 47  1  0
  7 48  1  0
  8 49  1  0
 10 50  1  1
 11 51  1  0
 14 52  1  0
 18 53  1  0
 21 54  1  0
 22 55  1  0
 22 56  1  0
 23 57  1  0
 24 58  1  0
 24 59  1  0
 25 60  1  0
 25 61  1  0
 27 62  1  0
 36 63  1  0
 37 64  1  0
 38 65  1  0
 39 66  1  0
 41 67  1  0
 41 68  1  0
 42 69  1  0
 42 70  1  0
 43 71  1  0
M  END
> <Uni-Dock RESULT> 
ENERGY=   -6.085  LOWER_BOUND=    0.000  UPPER_BOUND=    0.000
INTER + INTRA:          -6.085
INTER:                  -6.085
INTRA:                   0.000
UNBOUND:                 0.000

$$$$

     RDKit          3D

 71 73  0  0  0  0  0  0  0  0999 V2000
   50.1161    6.6207   15.8707 Cl  0  0  0  0  0  0  0  0  0  0  0  0
   48.8105    4.1440   19.1378 C   0  0  0  0  0  0  0  0  0  0  0  0
   50.0685    4.7125   18.9298 C   0  0  0  0  0  0  0  0  0  0  0  0
   50.6670    5.5021   19.9111 C   0  0  0  0  0  0  0  0  0  0  0  0
   49.9712    5.6975   21.0882 C   0  0  0  0  0  0  0  0  0  0  0  0
   48.7237    5.1450   21.3185 C   0  0  0  0  0  0  0  0  0  0  0  0
   48.1482    4.3648   20.3307 C   0  0  0  0  0  0  0  0  0  0  0  0
   51.9474    8.5984   19.4894 C   0  0  0  0  0  0  0  0  0  0  0  0
   51.9483    7.3537   18.8835 C   0  0  0  0  0  0  0  0  0  0  0  0
   52.0111    6.0992   19.6576 C   0  0  2  0  0  0  0  0  0  0  0  0
   51.8915    7.3051   17.5081 C   0  0  0  0  0  0  0  0  0  0  0  0
   51.8353    8.4591   16.7554 C   0  0  0  0  0  0  0  0  0  0  0  0
   51.8338    9.7195   17.3610 C   0  0  0  0  0  0  0  0  0  0  0  0
   51.8909    9.7420   18.7237 C   0  0  0  0  0  0  0  0  0  0  0  0
   51.7791   10.8559   16.6109 F   0  0  0  0  0  0  0  0  0  0  0  0
   49.4398    8.2486   15.1233 O   0  0  0  0  0  0  0  0  0  0  0  0
   50.5811    8.2364   14.5957 C   0  0  0  0  0  0  0  0  0  0  0  0
   51.7852    8.3356   15.3435 N   0  0  0  0  0  0  0  0  0  0  0  0
   48.1790    3.3254   18.1319 C   0  0  0  0  0  0  0  0  0  0  0  0
   47.6827    2.6524   17.3189 N   0  0  0  0  0  0  0  0  0  0  0  0
   52.9323    5.1729   19.0776 N   0  0  0  0  0  0  0  0  0  0  0  0
   53.2297    4.0151   19.8572 C   0  0  0  0  0  0  0  0  0  0  0  0
   54.0208    4.3355   21.1082 C   0  0  0  0  0  0  0  0  0  0  0  0
   54.3637    3.1516   21.9748 C   0  0  0  0  0  0  0  0  0  0  0  0
   53.4059    4.1928   22.4646 C   0  0  0  0  0  0  0  0  0  0  0  0
   50.7248    8.1149   13.1348 C   0  0  0  0  0  0  0  0  0  0  0  0
   51.9105    8.0951   12.3995 C   0  0  0  0  0  0  0  0  0  0  0  0
   51.6191    7.9664   11.0551 C   0  0  0  0  0  0  0  0  0  0  0  0
   50.2776    7.9107   10.9923 N   0  0  0  0  0  0  0  0  0  0  0  0
   49.7570    7.9976   12.2076 N   0  0  0  0  0  0  0  0  0  0  0  0
   52.5979    7.9029    9.9242 C   0  0  0  0  0  0  0  0  0  0  0  0
   52.2867    6.9143    9.0228 F   0  0  0  0  0  0  0  0  0  0  0  0
   53.8772    7.6451   10.4140 F   0  0  0  0  0  0  0  0  0  0  0  0
   52.6486    9.1422    9.3152 F   0  0  0  0  0  0  0  0  0  0  0  0
   48.3555    7.9645   12.4377 C   0  0  0  0  0  0  0  0  0  0  0  0
   47.6377    6.8001   12.5754 C   0  0  0  0  0  0  0  0  0  0  0  0
   47.7120    9.2001   12.5178 C   0  0  0  0  0  0  0  0  0  0  0  0
   46.3462    9.2859   12.7364 C   0  0  0  0  0  0  0  0  0  0  0  0
   45.6302    8.1234   12.8738 C   0  0  0  0  0  0  0  0  0  0  0  0
   46.2803    6.9074   12.7922 C   0  0  0  0  0  0  0  0  0  0  0  0
   45.4546    5.6751   12.9494 C   0  0  0  0  0  0  0  0  0  0  0  0
   44.9897    5.2739   11.6141 N   0  0  0  0  0  0  0  0  0  0  0  0
   50.1184    6.6189   15.8757 Cl  0  0  0  0  0  0  0  0  0  0  0  0
   50.6482    6.1854   17.0712 H   0  0  0  0  0  0  0  0  0  0  0  0
   50.5455    4.5106   17.9838 H   0  0  0  0  0  0  0  0  0  0  0  0
   50.4229    6.3164   21.8755 H   0  0  0  0  0  0  0  0  0  0  0  0
   48.1921    5.3087   22.2499 H   0  0  0  0  0  0  0  0  0  0  0  0
   47.1689    3.9444   20.5381 H   0  0  0  0  0  0  0  0  0  0  0  0
   51.9934    8.6119   20.5739 H   0  0  0  0  0  0  0  0  0  0  0  0
   52.4430    6.3627   20.6719 H   0  0  0  0  0  0  0  0  0  0  0  0
   51.8915    6.3501   17.0276 H   0  0  0  0  0  0  0  0  0  0  0  0
   51.8938   10.6983   19.2327 H   0  0  0  0  0  0  0  0  0  0  0  0
   52.7205    8.3188   14.8524 H   0  0  0  0  0  0  0  0  0  0  0  0
   53.6940    5.5804   18.5356 H   0  0  0  0  0  0  0  0  0  0  0  0
   52.3593    3.3990   20.0997 H   0  0  0  0  0  0  0  0  0  0  0  0
   53.8918    3.3657   19.2159 H   0  0  0  0  0  0  0  0  0  0  0  0
   54.8516    5.0573   20.9695 H   0  0  0  0  0  0  0  0  0  0  0  0
   53.8935    2.1624   21.7664 H   0  0  0  0  0  0  0  0  0  0  0  0
   55.3424    3.1398   22.4976 H   0  0  0  0  0  0  0  0  0  0  0  0
   53.7453    4.9770   23.1924 H   0  0  0  0  0  0  0  0  0  0  0  0
   52.3267    3.9504   22.5824 H   0  0  0  0  0  0  0  0  0  0  0  0
   52.9062    8.1671   12.7954 H   0  0  0  0  0  0  0  0  0  0  0  0
   48.1496    5.8397   12.5105 H   0  0  0  0  0  0  0  0  0  0  0  0
   48.2619   10.1029   12.4136 H   0  0  0  0  0  0  0  0  0  0  0  0
   45.8477   10.2463   12.7972 H   0  0  0  0  0  0  0  0  0  0  0  0
   44.5677    8.2122   13.0430 H   0  0  0  0  0  0  0  0  0  0  0  0
   46.0700    4.8474   13.3555 H   0  0  0  0  0  0  0  0  0  0  0  0
   44.5668    5.9022   13.5904 H   0  0  0  0  0  0  0  0  0  0  0  0
   45.8867    5.1717   11.0471 H   0  0  0  0  0  0  0  0  0  0  0  0
   44.5477    4.3493   11.6715 H   0  0  0  0  0  0  0  0  0  0  0  0
   50.6460    6.1872   17.0661 H   0  0  0  0  0  0  0  0  0  0  0  0
  2  3  2  0
  3  4  1  0
  4  5  2  0
  5  6  1  0
  6  7  2  0
  2  7  1  0
  8  9  2  0
  9 10  1  0
 10  4  1  0
 11 12  2  0
 12 13  1  0
 13 14  2  0
  8 14  1  0
  9 11  1  0
 16 17  2  0
 17 18  1  0
 15 13  1  0
 18 12  1  0
  2 19  1  0
 19 20  3  0
 10 21  1  0
 21 22  1  0
 22 23  1  0
 23 24  1  0
 23 25  1  0
 24 25  1  0
 17 26  1  0
 27 28  1  0
 28 29  2  0
 29 30  1  0
 30 26  1  0
 27 26  2  0
 28 31  1  0
 31 32  1  0
 31 33  1  0
 31 34  1  0
 30 35  1  0
 37 38  1  0
 38 39  2  0
 39 40  1  0
 36 40  2  0
 36 35  1  0
 35 37  2  0
 40 41  1  0
 41 42  1  0
  1 44  1  0
  3 45  1  0
  5 46  1  0
  6 47  1  0
  7 48  1  0
  8 49  1  0
 10 50  1  1
 11 51  1  0
 14 52  1  0
 18 53  1  0
 21 54  1  0
 22 55  1  0
 22 56  1  0
 23 57  1  0
 24 58  1  0
 24 59  1  0
 25 60  1  0
 25 61  1  0
 27 62  1  0
 36 63  1  0
 37 64  1  0
 38 65  1  0
 39 66  1  0
 41 67  1  0
 41 68  1  0
 42 69  1  0
 42 70  1  0
 43 71  1  0
M  END
> <Uni-Dock RESULT> 
ENERGY=   -5.443  LOWER_BOUND=    3.925  UPPER_BOUND=    5.616
INTER + INTRA:          -5.443
INTER:                  -5.443
INTRA:                   0.000
UNBOUND:                 0.000

$$$$

     RDKit          3D

 71 73  0  0  0  0  0  0  0  0999 V2000
   45.6950   10.6683   11.6979 Cl  0  0  0  0  0  0  0  0  0  0  0  0
   49.5622   11.9123   13.1157 C   0  0  0  0  0  0  0  0  0  0  0  0
   48.6912   10.9784   13.6797 C   0  0  0  0  0  0  0  0  0  0  0  0
   49.1220    9.6845   13.9711 C   0  0  0  0  0  0  0  0  0  0  0  0
   50.4347    9.3662   13.6819 C   0  0  0  0  0  0  0  0  0  0  0  0
   51.3171   10.2738   13.1231 C   0  0  0  0  0  0  0  0  0  0  0  0
   50.8683   11.5525   12.8419 C   0  0  0  0  0  0  0  0  0  0  0  0
   47.6212    6.8104   13.0268 C   0  0  0  0  0  0  0  0  0  0  0  0
   47.3107    8.0470   13.5660 C   0  0  0  0  0  0  0  0  0  0  0  0
   48.1662    8.7074   14.5704 C   0  0  2  0  0  0  0  0  0  0  0  0
   46.1563    8.6658   13.1397 C   0  0  0  0  0  0  0  0  0  0  0  0
   45.3334    8.0740   12.2047 C   0  0  0  0  0  0  0  0  0  0  0  0
   45.6412    6.8252   11.6560 C   0  0  0  0  0  0  0  0  0  0  0  0
   46.7890    6.2323   12.0938 C   0  0  0  0  0  0  0  0  0  0  0  0
   44.8230    6.2457   10.7331 F   0  0  0  0  0  0  0  0  0  0  0  0
   45.0877    9.9746   10.0198 O   0  0  0  0  0  0  0  0  0  0  0  0
   44.0953    9.6849   10.7355 C   0  0  0  0  0  0  0  0  0  0  0  0
   44.1571    8.7641   11.8158 N   0  0  0  0  0  0  0  0  0  0  0  0
   49.1307   13.2542   12.8087 C   0  0  0  0  0  0  0  0  0  0  0  0
   48.7772   14.3413   12.5779 N   0  0  0  0  0  0  0  0  0  0  0  0
   47.3894    9.2667   15.6319 N   0  0  0  0  0  0  0  0  0  0  0  0
   48.1224    9.7425   16.7601 C   0  0  0  0  0  0  0  0  0  0  0  0
   48.7763    8.6277   17.5495 C   0  0  0  0  0  0  0  0  0  0  0  0
   49.5676    9.0687   18.7535 C   0  0  0  0  0  0  0  0  0  0  0  0
   50.2640    8.4706   17.5709 C   0  0  0  0  0  0  0  0  0  0  0  0
   42.7849   10.3063   10.4779 C   0  0  0  0  0  0  0  0  0  0  0  0
   41.5931   10.0867   11.1697 C   0  0  0  0  0  0  0  0  0  0  0  0
   40.5899   10.8620   10.6208 C   0  0  0  0  0  0  0  0  0  0  0  0
   41.1778   11.5336    9.6158 N   0  0  0  0  0  0  0  0  0  0  0  0
   42.4594   11.2079    9.5338 N   0  0  0  0  0  0  0  0  0  0  0  0
   39.1611   10.9295   11.0624 C   0  0  0  0  0  0  0  0  0  0  0  0
   38.6981   12.2210   11.1281 F   0  0  0  0  0  0  0  0  0  0  0  0
   39.0257   10.3637   12.3291 F   0  0  0  0  0  0  0  0  0  0  0  0
   38.3975   10.1637   10.2022 F   0  0  0  0  0  0  0  0  0  0  0  0
   43.3252   11.7703    8.5578 C   0  0  0  0  0  0  0  0  0  0  0  0
   43.9829   12.9655    8.7273 C   0  0  0  0  0  0  0  0  0  0  0  0
   43.4855   11.0412    7.3789 C   0  0  0  0  0  0  0  0  0  0  0  0
   44.3039   11.4974    6.3578 C   0  0  0  0  0  0  0  0  0  0  0  0
   44.9602   12.6904    6.5274 C   0  0  0  0  0  0  0  0  0  0  0  0
   44.7921   13.4016    7.6995 C   0  0  0  0  0  0  0  0  0  0  0  0
   45.5293   14.6916    7.8322 C   0  0  0  0  0  0  0  0  0  0  0  0
   44.6626   15.7585    7.3119 N   0  0  0  0  0  0  0  0  0  0  0  0
   45.6986   10.6667   11.7022 Cl  0  0  0  0  0  0  0  0  0  0  0  0
   46.5572   10.2928   12.7125 H   0  0  0  0  0  0  0  0  0  0  0  0
   47.6828   11.3068   13.8757 H   0  0  0  0  0  0  0  0  0  0  0  0
   50.7962    8.3525   13.9024 H   0  0  0  0  0  0  0  0  0  0  0  0
   52.3452   10.0062   12.9035 H   0  0  0  0  0  0  0  0  0  0  0  0
   51.5818   12.2436   12.4035 H   0  0  0  0  0  0  0  0  0  0  0  0
   48.5352    6.3418   13.3783 H   0  0  0  0  0  0  0  0  0  0  0  0
   48.7945    7.8945   15.0493 H   0  0  0  0  0  0  0  0  0  0  0  0
   45.9049    9.6212   13.5481 H   0  0  0  0  0  0  0  0  0  0  0  0
   47.0636    5.2630   11.6954 H   0  0  0  0  0  0  0  0  0  0  0  0
   43.2942    8.5559   12.3888 H   0  0  0  0  0  0  0  0  0  0  0  0
   46.4914    8.8185   15.8125 H   0  0  0  0  0  0  0  0  0  0  0  0
   48.8485   10.5267   16.5280 H   0  0  0  0  0  0  0  0  0  0  0  0
   47.3672   10.2220   17.4464 H   0  0  0  0  0  0  0  0  0  0  0  0
   48.1404    7.7352   17.7215 H   0  0  0  0  0  0  0  0  0  0  0  0
   49.7791   10.1528   18.9062 H   0  0  0  0  0  0  0  0  0  0  0  0
   49.5603    8.4284   19.6597 H   0  0  0  0  0  0  0  0  0  0  0  0
   50.5985    7.3994   17.5928 H   0  0  0  0  0  0  0  0  0  0  0  0
   50.9165    9.1006   16.9270 H   0  0  0  0  0  0  0  0  0  0  0  0
   41.4536    9.4229   12.0023 H   0  0  0  0  0  0  0  0  0  0  0  0
   43.8505   13.5281    9.6517 H   0  0  0  0  0  0  0  0  0  0  0  0
   42.9809   10.1164    7.2432 H   0  0  0  0  0  0  0  0  0  0  0  0
   44.4265   10.9304    5.4423 H   0  0  0  0  0  0  0  0  0  0  0  0
   45.5924   13.0281    5.7200 H   0  0  0  0  0  0  0  0  0  0  0  0
   45.7326   14.9120    8.8993 H   0  0  0  0  0  0  0  0  0  0  0  0
   46.4633   14.6503    7.2186 H   0  0  0  0  0  0  0  0  0  0  0  0
   43.7668   15.6661    7.8825 H   0  0  0  0  0  0  0  0  0  0  0  0
   45.0796   16.6711    7.5281 H   0  0  0  0  0  0  0  0  0  0  0  0
   46.5536   10.2943   12.7082 H   0  0  0  0  0  0  0  0  0  0  0  0
  2  3  2  0
  3  4  1  0
  4  5  2  0
  5  6  1  0
  6  7  2  0
  2  7  1  0
  8  9  2  0
  9 10  1  0
 10  4  1  0
 11 12  2  0
 12 13  1  0
 13 14  2  0
  8 14  1  0
  9 11  1  0
 16 17  2  0
 17 18  1  0
 15 13  1  0
 18 12  1  0
  2 19  1  0
 19 20  3  0
 10 21  1  0
 21 22  1  0
 22 23  1  0
 23 24  1  0
 23 25  1  0
 24 25  1  0
 17 26  1  0
 27 28  1  0
 28 29  2  0
 29 30  1  0
 30 26  1  0
 27 26  2  0
 28 31  1  0
 31 32  1  0
 31 33  1  0
 31 34  1  0
 30 35  1  0
 37 38  1  0
 38 39  2  0
 39 40  1  0
 36 40  2  0
 36 35  1  0
 35 37  2  0
 40 41  1  0
 41 42  1  0
  1 44  1  0
  3 45  1  0
  5 46  1  0
  6 47  1  0
  7 48  1  0
  8 49  1  0
 10 50  1  1
 11 51  1  0
 14 52  1  0
 18 53  1  0
 21 54  1  0
 22 55  1  0
 22 56  1  0
 23 57  1  0
 24 58  1  0
 24 59  1  0
 25 60  1  0
 25 61  1  0
 27 62  1  0
 36 63  1  0
 37 64  1  0
 38 65  1  0
 39 66  1  0
 41 67  1  0
 41 68  1  0
 42 69  1  0
 42 70  1  0
 43 71  1  0
M  END
> <Uni-Dock RESULT> 
ENERGY=   -5.208  LOWER_BOUND=    5.472  UPPER_BOUND=    8.774
INTER + INTRA:          -5.208
INTER:                  -5.208
INTRA:                   0.000
UNBOUND:                 0.000

$$$$

     RDKit          3D

 71 73  0  0  0  0  0  0  0  0999 V2000
   50.0499    9.0772   18.6313 Cl  0  0  0  0  0  0  0  0  0  0  0  0
   52.5405   12.5352   18.0380 C   0  0  0  0  0  0  0  0  0  0  0  0
   51.2132   12.3458   17.6490 C   0  0  0  0  0  0  0  0  0  0  0  0
   50.2238   13.2571   18.0165 C   0  0  0  0  0  0  0  0  0  0  0  0
   50.6064   14.3466   18.7747 C   0  0  0  0  0  0  0  0  0  0  0  0
   51.9149   14.5566   19.1725 C   0  0  0  0  0  0  0  0  0  0  0  0
   52.8808   13.6393   18.7966 C   0  0  0  0  0  0  0  0  0  0  0  0
   47.2836   12.5317   19.5110 C   0  0  0  0  0  0  0  0  0  0  0  0
   48.0877   12.0932   18.4729 C   0  0  0  0  0  0  0  0  0  0  0  0
   48.8131   13.0252   17.5885 C   0  0  2  0  0  0  0  0  0  0  0  0
   48.1994   10.7350   18.2722 C   0  0  0  0  0  0  0  0  0  0  0  0
   47.5321    9.8376   19.0790 C   0  0  0  0  0  0  0  0  0  0  0  0
   46.7185   10.2738   20.1292 C   0  0  0  0  0  0  0  0  0  0  0  0
   46.6235   11.6228   20.3080 C   0  0  0  0  0  0  0  0  0  0  0  0
   46.0611    9.3814   20.9220 F   0  0  0  0  0  0  0  0  0  0  0  0
   49.5618    8.0797   20.1910 O   0  0  0  0  0  0  0  0  0  0  0  0
   48.7012    7.6409   19.3862 C   0  0  0  0  0  0  0  0  0  0  0  0
   47.6870    8.4535   18.8116 N   0  0  0  0  0  0  0  0  0  0  0  0
   53.5746   11.6009   17.6655 C   0  0  0  0  0  0  0  0  0  0  0  0
   54.4065   10.8482   17.3469 N   0  0  0  0  0  0  0  0  0  0  0  0
   48.7030   12.6368   16.2174 N   0  0  0  0  0  0  0  0  0  0  0  0
   49.1856   13.5784   15.2598 C   0  0  0  0  0  0  0  0  0  0  0  0
   48.3372   14.8308   15.1871 C   0  0  0  0  0  0  0  0  0  0  0  0
   48.7986   15.8653   14.1935 C   0  0  0  0  0  0  0  0  0  0  0  0
   48.8666   16.1470   15.6623 C   0  0  0  0  0  0  0  0  0  0  0  0
   48.7063    6.2218   18.9912 C   0  0  0  0  0  0  0  0  0  0  0  0
   47.8217    5.5816   18.1223 C   0  0  0  0  0  0  0  0  0  0  0  0
   48.1647    4.2478   18.0129 C   0  0  0  0  0  0  0  0  0  0  0  0
   49.2392    4.0972   18.8065 N   0  0  0  0  0  0  0  0  0  0  0  0
   49.5539    5.2508   19.3770 N   0  0  0  0  0  0  0  0  0  0  0  0
   47.4786    3.2072   17.1838 C   0  0  0  0  0  0  0  0  0  0  0  0
   48.3697    2.4211   16.4950 F   0  0  0  0  0  0  0  0  0  0  0  0
   46.6394    3.8162   16.2522 F   0  0  0  0  0  0  0  0  0  0  0  0
   46.6707    2.4486   18.0091 F   0  0  0  0  0  0  0  0  0  0  0  0
   50.6525    5.3828   20.2680 C   0  0  0  0  0  0  0  0  0  0  0  0
   51.9414    5.6181   19.8519 C   0  0  0  0  0  0  0  0  0  0  0  0
   50.3652    5.2567   21.6277 C   0  0  0  0  0  0  0  0  0  0  0  0
   51.3611    5.3644   22.5854 C   0  0  0  0  0  0  0  0  0  0  0  0
   52.6475    5.5993   22.1696 C   0  0  0  0  0  0  0  0  0  0  0  0
   52.9173    5.7219   20.8205 C   0  0  0  0  0  0  0  0  0  0  0  0
   54.3323    5.9775   20.4233 C   0  0  0  0  0  0  0  0  0  0  0  0
   54.9819    4.6754   20.2165 N   0  0  0  0  0  0  0  0  0  0  0  0
   50.0492    9.0826   18.6292 Cl  0  0  0  0  0  0  0  0  0  0  0  0
   49.8819   10.3587   18.1380 H   0  0  0  0  0  0  0  0  0  0  0  0
   50.9977   11.4702   17.0573 H   0  0  0  0  0  0  0  0  0  0  0  0
   49.8439   15.0776   19.0764 H   0  0  0  0  0  0  0  0  0  0  0  0
   52.1972   15.4188   19.7673 H   0  0  0  0  0  0  0  0  0  0  0  0
   53.8988   13.8289   19.1230 H   0  0  0  0  0  0  0  0  0  0  0  0
   47.2103   13.6059   19.6495 H   0  0  0  0  0  0  0  0  0  0  0  0
   48.2848   14.0252   17.6645 H   0  0  0  0  0  0  0  0  0  0  0  0
   48.8174   10.3831   17.4740 H   0  0  0  0  0  0  0  0  0  0  0  0
   46.0017   12.0030   21.1095 H   0  0  0  0  0  0  0  0  0  0  0  0
   46.9877    8.0366   18.1383 H   0  0  0  0  0  0  0  0  0  0  0  0
   47.8705   12.1024   15.9697 H   0  0  0  0  0  0  0  0  0  0  0  0
   50.2424   13.8357   15.3733 H   0  0  0  0  0  0  0  0  0  0  0  0
   49.1022   13.0752   14.2542 H   0  0  0  0  0  0  0  0  0  0  0  0
   47.2412   14.6597   15.1942 H   0  0  0  0  0  0  0  0  0  0  0  0
   49.7945   15.7533   13.7048 H   0  0  0  0  0  0  0  0  0  0  0  0
   48.0353   16.4537   13.6437 H   0  0  0  0  0  0  0  0  0  0  0  0
   48.0878   16.7898   16.1522 H   0  0  0  0  0  0  0  0  0  0  0  0
   49.8515   16.2179   16.1744 H   0  0  0  0  0  0  0  0  0  0  0  0
   46.9955    6.0350   17.6074 H   0  0  0  0  0  0  0  0  0  0  0  0
   52.1558    5.7144   18.7873 H   0  0  0  0  0  0  0  0  0  0  0  0
   49.3709    5.0763   21.9550 H   0  0  0  0  0  0  0  0  0  0  0  0
   51.1365    5.2651   23.6410 H   0  0  0  0  0  0  0  0  0  0  0  0
   53.4084    5.6794   22.9313 H   0  0  0  0  0  0  0  0  0  0  0  0
   54.3698    6.5299   19.4630 H   0  0  0  0  0  0  0  0  0  0  0  0
   54.8576    6.5189   21.2488 H   0  0  0  0  0  0  0  0  0  0  0  0
   54.3682    4.1918   19.4912 H   0  0  0  0  0  0  0  0  0  0  0  0
   55.9078    4.8200   19.7980 H   0  0  0  0  0  0  0  0  0  0  0  0
   49.8826   10.3534   18.1401 H   0  0  0  0  0  0  0  0  0  0  0  0
  2  3  2  0
  3  4  1  0
  4  5  2  0
  5  6  1  0
  6  7  2  0
  2  7  1  0
  8  9  2  0
  9 10  1  0
 10  4  1  0
 11 12  2  0
 12 13  1  0
 13 14  2  0
  8 14  1  0
  9 11  1  0
 16 17  2  0
 17 18  1  0
 15 13  1  0
 18 12  1  0
  2 19  1  0
 19 20  3  0
 10 21  1  0
 21 22  1  0
 22 23  1  0
 23 24  1  0
 23 25  1  0
 24 25  1  0
 17 26  1  0
 27 28  1  0
 28 29  2  0
 29 30  1  0
 30 26  1  0
 27 26  2  0
 28 31  1  0
 31 32  1  0
 31 33  1  0
 31 34  1  0
 30 35  1  0
 37 38  1  0
 38 39  2  0
 39 40  1  0
 36 40  2  0
 36 35  1  0
 35 37  2  0
 40 41  1  0
 41 42  1  0
  1 44  1  0
  3 45  1  0
  5 46  1  0
  6 47  1  0
  7 48  1  0
  8 49  1  0
 10 50  1  1
 11 51  1  0
 14 52  1  0
 18 53  1  0
 21 54  1  0
 22 55  1  0
 22 56  1  0
 23 57  1  0
 24 58  1  0
 24 59  1  0
 25 60  1  0
 25 61  1  0
 27 62  1  0
 36 63  1  0
 37 64  1  0
 38 65  1  0
 39 66  1  0
 41 67  1  0
 41 68  1  0
 42 69  1  0
 42 70  1  0
 43 71  1  0
M  END
> <Uni-Dock RESULT> 
ENERGY=   -5.203  LOWER_BOUND=    4.852  UPPER_BOUND=    7.385
INTER + INTRA:          -5.203
INTER:                  -5.203
INTRA:                   0.000
UNBOUND:                 0.000

$$$$

     RDKit          3D

 71 73  0  0  0  0  0  0  0  0999 V2000
   48.6522   12.2170    9.3684 Cl  0  0  0  0  0  0  0  0  0  0  0  0
   50.1760   11.7500    5.3718 C   0  0  0  0  0  0  0  0  0  0  0  0
   50.8783   12.0672    6.5359 C   0  0  0  0  0  0  0  0  0  0  0  0
   51.9865   11.3173    6.9286 C   0  0  0  0  0  0  0  0  0  0  0  0
   52.3589   10.2565    6.1260 C   0  0  0  0  0  0  0  0  0  0  0  0
   51.6795    9.9222    4.9679 C   0  0  0  0  0  0  0  0  0  0  0  0
   50.5823   10.6800    4.5971 C   0  0  0  0  0  0  0  0  0  0  0  0
   52.4988    9.9355    9.9671 C   0  0  0  0  0  0  0  0  0  0  0  0
   52.0844   11.1257    9.3943 C   0  0  0  0  0  0  0  0  0  0  0  0
   52.7145   11.6788    8.1802 C   0  0  2  0  0  0  0  0  0  0  0  0
   51.0478   11.8050    9.9954 C   0  0  0  0  0  0  0  0  0  0  0  0
   50.4397   11.3168   11.1327 C   0  0  0  0  0  0  0  0  0  0  0  0
   50.8533   10.1153   11.7163 C   0  0  0  0  0  0  0  0  0  0  0  0
   51.8814    9.4611   11.1033 C   0  0  0  0  0  0  0  0  0  0  0  0
   50.2485    9.6392   12.8408 F   0  0  0  0  0  0  0  0  0  0  0  0
   47.6123   11.0787   10.5038 O   0  0  0  0  0  0  0  0  0  0  0  0
   48.0141   11.9111   11.3563 C   0  0  0  0  0  0  0  0  0  0  0  0
   49.3827   12.0711   11.7030 N   0  0  0  0  0  0  0  0  0  0  0  0
   49.0278   12.5165    4.9532 C   0  0  0  0  0  0  0  0  0  0  0  0
   48.1098   13.1511    4.6146 N   0  0  0  0  0  0  0  0  0  0  0  0
   52.9452   13.0838    8.3051 N   0  0  0  0  0  0  0  0  0  0  0  0
   53.7385   13.6811    7.2802 C   0  0  0  0  0  0  0  0  0  0  0  0
   55.1842   13.2315    7.3182 C   0  0  0  0  0  0  0  0  0  0  0  0
   56.0727   13.8275    6.2572 C   0  0  0  0  0  0  0  0  0  0  0  0
   55.7491   12.3659    6.2365 C   0  0  0  0  0  0  0  0  0  0  0  0
   47.0547   12.7839   12.0544 C   0  0  0  0  0  0  0  0  0  0  0  0
   47.3363   13.7454   13.0257 C   0  0  0  0  0  0  0  0  0  0  0  0
   46.1626   14.3507   13.4315 C   0  0  0  0  0  0  0  0  0  0  0  0
   45.1959   13.7565   12.7109 N   0  0  0  0  0  0  0  0  0  0  0  0
   45.7185   12.8418   11.9075 N   0  0  0  0  0  0  0  0  0  0  0  0
   46.0156   15.4345   14.4537 C   0  0  0  0  0  0  0  0  0  0  0  0
   45.1669   16.4306   14.0364 F   0  0  0  0  0  0  0  0  0  0  0  0
   47.2557   16.0140   14.7166 F   0  0  0  0  0  0  0  0  0  0  0  0
   45.5837   14.8677   15.6377 F   0  0  0  0  0  0  0  0  0  0  0  0
   44.9229   12.0584   11.0291 C   0  0  0  0  0  0  0  0  0  0  0  0
   44.5527   12.4711    9.7711 C   0  0  0  0  0  0  0  0  0  0  0  0
   44.5141   10.8134   11.5087 C   0  0  0  0  0  0  0  0  0  0  0  0
   43.7322    9.9680   10.7377 C   0  0  0  0  0  0  0  0  0  0  0  0
   43.3629   10.3803    9.4821 C   0  0  0  0  0  0  0  0  0  0  0  0
   43.7747   11.6153    9.0204 C   0  0  0  0  0  0  0  0  0  0  0  0
   43.3458   12.0137    7.6484 C   0  0  0  0  0  0  0  0  0  0  0  0
   42.0648   12.7242    7.7681 N   0  0  0  0  0  0  0  0  0  0  0  0
   48.6574   12.2169    9.3659 Cl  0  0  0  0  0  0  0  0  0  0  0  0
   49.8982   12.2061    8.7675 H   0  0  0  0  0  0  0  0  0  0  0  0
   50.5235   12.9111    7.1060 H   0  0  0  0  0  0  0  0  0  0  0  0
   53.2286    9.6511    6.4158 H   0  0  0  0  0  0  0  0  0  0  0  0
   51.9870    9.0858    4.3493 H   0  0  0  0  0  0  0  0  0  0  0  0
   50.0680   10.3949    3.6843 H   0  0  0  0  0  0  0  0  0  0  0  0
   53.3176    9.4184    9.4765 H   0  0  0  0  0  0  0  0  0  0  0  0
   53.7425   11.2077    8.1025 H   0  0  0  0  0  0  0  0  0  0  0  0
   50.7180   12.7254    9.5631 H   0  0  0  0  0  0  0  0  0  0  0  0
   52.2339    8.5272   11.5242 H   0  0  0  0  0  0  0  0  0  0  0  0
   49.6695   12.7869   12.4252 H   0  0  0  0  0  0  0  0  0  0  0  0
   53.0672   13.4340    9.2551 H   0  0  0  0  0  0  0  0  0  0  0  0
   53.3285   13.5733    6.2721 H   0  0  0  0  0  0  0  0  0  0  0  0
   53.7411   14.7890    7.4898 H   0  0  0  0  0  0  0  0  0  0  0  0
   55.6403   13.1930    8.3286 H   0  0  0  0  0  0  0  0  0  0  0  0
   55.6179   14.4065    5.4199 H   0  0  0  0  0  0  0  0  0  0  0  0
   57.1252   14.0654    6.5157 H   0  0  0  0  0  0  0  0  0  0  0  0
   56.4952   11.6154    6.6105 H   0  0  0  0  0  0  0  0  0  0  0  0
   55.0976   11.9474    5.4379 H   0  0  0  0  0  0  0  0  0  0  0  0
   48.3068   13.9936   13.4129 H   0  0  0  0  0  0  0  0  0  0  0  0
   44.8765   13.4459    9.4058 H   0  0  0  0  0  0  0  0  0  0  0  0
   44.7985   10.4889   12.4793 H   0  0  0  0  0  0  0  0  0  0  0  0
   43.4146    9.0018   11.1121 H   0  0  0  0  0  0  0  0  0  0  0  0
   42.7536    9.7072    8.8981 H   0  0  0  0  0  0  0  0  0  0  0  0
   44.0801   12.7142    7.2026 H   0  0  0  0  0  0  0  0  0  0  0  0
   43.1964   11.0972    7.0253 H   0  0  0  0  0  0  0  0  0  0  0  0
   42.2719   13.5194    8.4473 H   0  0  0  0  0  0  0  0  0  0  0  0
   41.8210   13.1407    6.8622 H   0  0  0  0  0  0  0  0  0  0  0  0
   49.8930   12.2061    8.7700 H   0  0  0  0  0  0  0  0  0  0  0  0
  2  3  2  0
  3  4  1  0
  4  5  2  0
  5  6  1  0
  6  7  2  0
  2  7  1  0
  8  9  2  0
  9 10  1  0
 10  4  1  0
 11 12  2  0
 12 13  1  0
 13 14  2  0
  8 14  1  0
  9 11  1  0
 16 17  2  0
 17 18  1  0
 15 13  1  0
 18 12  1  0
  2 19  1  0
 19 20  3  0
 10 21  1  0
 21 22  1  0
 22 23  1  0
 23 24  1  0
 23 25  1  0
 24 25  1  0
 17 26  1  0
 27 28  1  0
 28 29  2  0
 29 30  1  0
 30 26  1  0
 27 26  2  0
 28 31  1  0
 31 32  1  0
 31 33  1  0
 31 34  1  0
 30 35  1  0
 37 38  1  0
 38 39  2  0
 39 40  1  0
 36 40  2  0
 36 35  1  0
 35 37  2  0
 40 41  1  0
 41 42  1  0
  1 44  1  0
  3 45  1  0
  5 46  1  0
  6 47  1  0
  7 48  1  0
  8 49  1  0
 10 50  1  1
 11 51  1  0
 14 52  1  0
 18 53  1  0
 21 54  1  0
 22 55  1  0
 22 56  1  0
 23 57  1  0
 24 58  1  0
 24 59  1  0
 25 60  1  0
 25 61  1  0
 27 62  1  0
 36 63  1  0
 37 64  1  0
 38 65  1  0
 39 66  1  0
 41 67  1  0
 41 68  1  0
 42 69  1  0
 42 70  1  0
 43 71  1  0
M  END
> <Uni-Dock RESULT> 
ENERGY=   -5.179  LOWER_BOUND=    5.531  UPPER_BOUND=   10.280
INTER + INTRA:          -5.179
INTER:                  -5.179
INTRA:                   0.000
UNBOUND:                 0.000

$$$$

     RDKit          3D

 71 73  0  0  0  0  0  0  0  0999 V2000
   50.5582    7.4799   14.3502 Cl  0  0  0  0  0  0  0  0  0  0  0  0
   52.4195    5.5286   17.7029 C   0  0  0  0  0  0  0  0  0  0  0  0
   51.0942    5.9465   17.5693 C   0  0  0  0  0  0  0  0  0  0  0  0
   50.0402    5.0574   17.7770 C   0  0  0  0  0  0  0  0  0  0  0  0
   50.3572    3.7568   18.1177 C   0  0  0  0  0  0  0  0  0  0  0  0
   51.6622    3.3185   18.2564 C   0  0  0  0  0  0  0  0  0  0  0  0
   52.6930    4.2178   18.0454 C   0  0  0  0  0  0  0  0  0  0  0  0
   47.4600    4.4795   15.6763 C   0  0  0  0  0  0  0  0  0  0  0  0
   48.1751    5.5324   16.2208 C   0  0  0  0  0  0  0  0  0  0  0  0
   48.6341    5.5332   17.6230 C   0  0  2  0  0  0  0  0  0  0  0  0
   48.4554    6.6101   15.4101 C   0  0  0  0  0  0  0  0  0  0  0  0
   48.0380    6.6419   14.0962 C   0  0  0  0  0  0  0  0  0  0  0  0
   47.3156    5.5817   13.5399 C   0  0  0  0  0  0  0  0  0  0  0  0
   47.0500    4.5262   14.3621 C   0  0  0  0  0  0  0  0  0  0  0  0
   46.9054    5.6202   12.2410 F   0  0  0  0  0  0  0  0  0  0  0  0
   50.4305    7.0321   12.4930 O   0  0  0  0  0  0  0  0  0  0  0  0
   49.5441    7.9218   12.5534 C   0  0  0  0  0  0  0  0  0  0  0  0
   48.3557    7.7857   13.3204 N   0  0  0  0  0  0  0  0  0  0  0  0
   53.5200    6.4368   17.4910 C   0  0  0  0  0  0  0  0  0  0  0  0
   54.4030    7.1821   17.3325 N   0  0  0  0  0  0  0  0  0  0  0  0
   48.4015    6.7973   18.2482 N   0  0  0  0  0  0  0  0  0  0  0  0
   48.6114    6.8456   19.6589 C   0  0  0  0  0  0  0  0  0  0  0  0
   47.5880    6.0420   20.4338 C   0  0  0  0  0  0  0  0  0  0  0  0
   47.7589    6.0529   21.9308 C   0  0  0  0  0  0  0  0  0  0  0  0
   47.9786    4.7911   21.1555 C   0  0  0  0  0  0  0  0  0  0  0  0
   49.7031    9.1830   11.8092 C   0  0  0  0  0  0  0  0  0  0  0  0
   48.8140   10.2576   11.7646 C   0  0  0  0  0  0  0  0  0  0  0  0
   49.3297   11.2514   10.9552 C   0  0  0  0  0  0  0  0  0  0  0  0
   50.5099   10.7736   10.5242 N   0  0  0  0  0  0  0  0  0  0  0  0
   50.7263    9.5657   11.0238 N   0  0  0  0  0  0  0  0  0  0  0  0
   48.6986   12.5712   10.6374 C   0  0  0  0  0  0  0  0  0  0  0  0
   49.5957   13.6084   10.7160 F   0  0  0  0  0  0  0  0  0  0  0  0
   47.6642   12.8339   11.5341 F   0  0  0  0  0  0  0  0  0  0  0  0
   48.1256   12.4947    9.3823 F   0  0  0  0  0  0  0  0  0  0  0  0
   51.9020    8.8230   10.7334 C   0  0  0  0  0  0  0  0  0  0  0  0
   53.0767    8.9593   11.4344 C   0  0  0  0  0  0  0  0  0  0  0  0
   51.8182    7.9218    9.6713 C   0  0  0  0  0  0  0  0  0  0  0  0
   52.9055    7.1477    9.2985 C   0  0  0  0  0  0  0  0  0  0  0  0
   54.0778    7.2841    9.9985 C   0  0  0  0  0  0  0  0  0  0  0  0
   54.1464    8.1801   11.0475 C   0  0  0  0  0  0  0  0  0  0  0  0
   55.4442    8.2881   11.7750 C   0  0  0  0  0  0  0  0  0  0  0  0
   56.2430    9.3297   11.1139 N   0  0  0  0  0  0  0  0  0  0  0  0
   50.5565    7.4777   14.3553 Cl  0  0  0  0  0  0  0  0  0  0  0  0
   50.1421    6.9597   15.5626 H   0  0  0  0  0  0  0  0  0  0  0  0
   50.9320    6.9786   17.3016 H   0  0  0  0  0  0  0  0  0  0  0  0
   49.5431    3.0385   18.2858 H   0  0  0  0  0  0  0  0  0  0  0  0
   51.8923    2.2930   18.5256 H   0  0  0  0  0  0  0  0  0  0  0  0
   53.7067    3.8465   18.1606 H   0  0  0  0  0  0  0  0  0  0  0  0
   47.2503    3.6418   16.3341 H   0  0  0  0  0  0  0  0  0  0  0  0
   47.9808    4.7935   18.1807 H   0  0  0  0  0  0  0  0  0  0  0  0
   49.0071    7.4298   15.8182 H   0  0  0  0  0  0  0  0  0  0  0  0
   46.4910    3.6846   13.9712 H   0  0  0  0  0  0  0  0  0  0  0  0
   47.6416    8.5641   13.3395 H   0  0  0  0  0  0  0  0  0  0  0  0
   47.6301    7.3473   17.8708 H   0  0  0  0  0  0  0  0  0  0  0  0
   49.6253    6.5825   19.9733 H   0  0  0  0  0  0  0  0  0  0  0  0
   48.4700    7.9226   19.9613 H   0  0  0  0  0  0  0  0  0  0  0  0
   46.5391    6.1584   20.0919 H   0  0  0  0  0  0  0  0  0  0  0  0
   48.6872    6.4815   22.3756 H   0  0  0  0  0  0  0  0  0  0  0  0
   46.8523    6.0518   22.5705 H   0  0  0  0  0  0  0  0  0  0  0  0
   47.1862    3.9965   21.1308 H   0  0  0  0  0  0  0  0  0  0  0  0
   49.0017    4.3664   21.0545 H   0  0  0  0  0  0  0  0  0  0  0  0
   47.8700   10.3241   12.2723 H   0  0  0  0  0  0  0  0  0  0  0  0
   53.1323    9.6667   12.2621 H   0  0  0  0  0  0  0  0  0  0  0  0
   50.9126    7.8114    9.1272 H   0  0  0  0  0  0  0  0  0  0  0  0
   52.8391    6.4490    8.4727 H   0  0  0  0  0  0  0  0  0  0  0  0
   54.9128    6.6723    9.6919 H   0  0  0  0  0  0  0  0  0  0  0  0
   55.2739    8.6072   12.8228 H   0  0  0  0  0  0  0  0  0  0  0  0
   55.9897    7.3142   11.7079 H   0  0  0  0  0  0  0  0  0  0  0  0
   55.6158   10.1915   11.1374 H   0  0  0  0  0  0  0  0  0  0  0  0
   57.0747    9.5315   11.6806 H   0  0  0  0  0  0  0  0  0  0  0  0
   50.1438    6.9619   15.5575 H   0  0  0  0  0  0  0  0  0  0  0  0
  2  3  2  0
  3  4  1  0
  4  5  2  0
  5  6  1  0
  6  7  2  0
  2  7  1  0
  8  9  2  0
  9 10  1  0
 10  4  1  0
 11 12  2  0
 12 13  1  0
 13 14  2  0
  8 14  1  0
  9 11  1  0
 16 17  2  0
 17 18  1  0
 15 13  1  0
 18 12  1  0
  2 19  1  0
 19 20  3  0
 10 21  1  0
 21 22  1  0
 22 23  1  0
 23 24  1  0
 23 25  1  0
 24 25  1  0
 17 26  1  0
 27 28  1  0
 28 29  2  0
 29 30  1  0
 30 26  1  0
 27 26  2  0
 28 31  1  0
 31 32  1  0
 31 33  1  0
 31 34  1  0
 30 35  1  0
 37 38  1  0
 38 39  2  0
 39 40  1  0
 36 40  2  0
 36 35  1  0
 35 37  2  0
 40 41  1  0
 41 42  1  0
  1 44  1  0
  3 45  1  0
  5 46  1  0
  6 47  1  0
  7 48  1  0
  8 49  1  0
 10 50  1  1
 11 51  1  0
 14 52  1  0
 18 53  1  0
 21 54  1  0
 22 55  1  0
 22 56  1  0
 23 57  1  0
 24 58  1  0
 24 59  1  0
 25 60  1  0
 25 61  1  0
 27 62  1  0
 36 63  1  0
 37 64  1  0
 38 65  1  0
 39 66  1  0
 41 67  1  0
 41 68  1  0
 42 69  1  0
 42 70  1  0
 43 71  1  0
M  END
> <Uni-Dock RESULT> 
ENERGY=   -5.092  LOWER_BOUND=    4.386  UPPER_BOUND=    7.021
INTER + INTRA:          -5.092
INTER:                  -5.092
INTRA:                   0.000
UNBOUND:                 0.000

$$$$

     RDKit          3D

 71 73  0  0  0  0  0  0  0  0999 V2000
   52.1013    5.9376   17.2058 Cl  0  0  0  0  0  0  0  0  0  0  0  0
   56.1046    4.5642   16.4306 C   0  0  0  0  0  0  0  0  0  0  0  0
   55.2057    4.1137   17.3992 C   0  0  0  0  0  0  0  0  0  0  0  0
   54.8779    2.7617   17.4960 C   0  0  0  0  0  0  0  0  0  0  0  0
   55.4735    1.8927   16.6026 C   0  0  0  0  0  0  0  0  0  0  0  0
   56.3673    2.3145   15.6342 C   0  0  0  0  0  0  0  0  0  0  0  0
   56.6782    3.6610   15.5559 C   0  0  0  0  0  0  0  0  0  0  0  0
   51.7658    1.4526   17.5699 C   0  0  0  0  0  0  0  0  0  0  0  0
   52.5027    2.4806   18.1327 C   0  0  0  0  0  0  0  0  0  0  0  0
   53.9108    2.3113   18.5396 C   0  0  2  0  0  0  0  0  0  0  0  0
   51.8810    3.6962   18.3145 C   0  0  0  0  0  0  0  0  0  0  0  0
   50.5653    3.8862   17.9480 C   0  0  0  0  0  0  0  0  0  0  0  0
   49.8154    2.8523   17.3789 C   0  0  0  0  0  0  0  0  0  0  0  0
   50.4525    1.6582   17.2091 C   0  0  0  0  0  0  0  0  0  0  0  0
   48.5153    3.0468   17.0199 F   0  0  0  0  0  0  0  0  0  0  0  0
   50.5536    6.1244   16.0941 O   0  0  0  0  0  0  0  0  0  0  0  0
   50.0106    6.2218   17.2239 C   0  0  0  0  0  0  0  0  0  0  0  0
   49.9862    5.1617   18.1697 N   0  0  0  0  0  0  0  0  0  0  0  0
   56.4530    5.9596   16.3183 C   0  0  0  0  0  0  0  0  0  0  0  0
   56.7403    7.0875   16.2449 N   0  0  0  0  0  0  0  0  0  0  0  0
   54.1588    2.8969   19.8196 N   0  0  0  0  0  0  0  0  0  0  0  0
   55.4288    2.6095   20.4036 C   0  0  0  0  0  0  0  0  0  0  0  0
   55.5744    1.1579   20.8103 C   0  0  0  0  0  0  0  0  0  0  0  0
   56.8972    0.7922   21.4321 C   0  0  0  0  0  0  0  0  0  0  0  0
   56.5187    0.2483   20.0896 C   0  0  0  0  0  0  0  0  0  0  0  0
   49.3558    7.4774   17.6296 C   0  0  0  0  0  0  0  0  0  0  0  0
   48.7055    7.7419   18.8355 C   0  0  0  0  0  0  0  0  0  0  0  0
   48.2260    9.0375   18.8281 C   0  0  0  0  0  0  0  0  0  0  0  0
   48.5866    9.5366   17.6332 N   0  0  0  0  0  0  0  0  0  0  0  0
   49.2461    8.6242   16.9347 N   0  0  0  0  0  0  0  0  0  0  0  0
   47.4706    9.7239   19.9233 C   0  0  0  0  0  0  0  0  0  0  0  0
   47.9294   10.9983   20.1511 F   0  0  0  0  0  0  0  0  0  0  0  0
   47.5969    9.0070   21.1121 F   0  0  0  0  0  0  0  0  0  0  0  0
   46.1272    9.7222   19.5999 F   0  0  0  0  0  0  0  0  0  0  0  0
   49.7475    8.8820   15.6307 C   0  0  0  0  0  0  0  0  0  0  0  0
   50.9683    9.4665   15.3903 C   0  0  0  0  0  0  0  0  0  0  0  0
   48.9248    8.5103   14.5666 C   0  0  0  0  0  0  0  0  0  0  0  0
   49.3123    8.7181   13.2524 C   0  0  0  0  0  0  0  0  0  0  0  0
   50.5310    9.3016   13.0129 C   0  0  0  0  0  0  0  0  0  0  0  0
   51.3349    9.6644   14.0759 C   0  0  0  0  0  0  0  0  0  0  0  0
   52.6497   10.2941   13.7594 C   0  0  0  0  0  0  0  0  0  0  0  0
   52.4459   11.7482   13.6942 N   0  0  0  0  0  0  0  0  0  0  0  0
   52.1047    5.9333   17.2077 Cl  0  0  0  0  0  0  0  0  0  0  0  0
   52.9171    4.9201   17.6672 H   0  0  0  0  0  0  0  0  0  0  0  0
   54.7855    4.8562   18.0589 H   0  0  0  0  0  0  0  0  0  0  0  0
   55.2300    0.8231   16.6597 H   0  0  0  0  0  0  0  0  0  0  0  0
   56.8262    1.6173   14.9412 H   0  0  0  0  0  0  0  0  0  0  0  0
   57.3819    3.9637   14.7864 H   0  0  0  0  0  0  0  0  0  0  0  0
   52.2764    0.5039   17.4371 H   0  0  0  0  0  0  0  0  0  0  0  0
   54.0795    1.1988   18.6765 H   0  0  0  0  0  0  0  0  0  0  0  0
   52.4389    4.4985   18.7481 H   0  0  0  0  0  0  0  0  0  0  0  0
   49.9069    0.8300   16.7732 H   0  0  0  0  0  0  0  0  0  0  0  0
   49.5180    5.2946   19.1074 H   0  0  0  0  0  0  0  0  0  0  0  0
   53.3573    2.9545   20.4475 H   0  0  0  0  0  0  0  0  0  0  0  0
   56.2845    2.9280   19.8017 H   0  0  0  0  0  0  0  0  0  0  0  0
   55.4831    3.2159   21.3527 H   0  0  0  0  0  0  0  0  0  0  0  0
   54.6921    0.7197   21.3202 H   0  0  0  0  0  0  0  0  0  0  0  0
   57.7384    1.5236   21.4064 H   0  0  0  0  0  0  0  0  0  0  0  0
   56.9125    0.0412   22.2487 H   0  0  0  0  0  0  0  0  0  0  0  0
   56.1372   -0.8027   19.9915 H   0  0  0  0  0  0  0  0  0  0  0  0
   57.0559    0.5865   19.1761 H   0  0  0  0  0  0  0  0  0  0  0  0
   48.5843    7.0598   19.6561 H   0  0  0  0  0  0  0  0  0  0  0  0
   51.6035    9.7540   16.2284 H   0  0  0  0  0  0  0  0  0  0  0  0
   47.9812    8.0570   14.7465 H   0  0  0  0  0  0  0  0  0  0  0  0
   48.6717    8.4300   12.4270 H   0  0  0  0  0  0  0  0  0  0  0  0
   50.8137    9.4550   11.9823 H   0  0  0  0  0  0  0  0  0  0  0  0
   53.3795   10.0912   14.5685 H   0  0  0  0  0  0  0  0  0  0  0  0
   53.0045    9.9317   12.7626 H   0  0  0  0  0  0  0  0  0  0  0  0
   52.0212   11.9931   14.6410 H   0  0  0  0  0  0  0  0  0  0  0  0
   53.3569   12.2166   13.6284 H   0  0  0  0  0  0  0  0  0  0  0  0
   52.9137    4.9243   17.6653 H   0  0  0  0  0  0  0  0  0  0  0  0
  2  3  2  0
  3  4  1  0
  4  5  2  0
  5  6  1  0
  6  7  2  0
  2  7  1  0
  8  9  2  0
  9 10  1  0
 10  4  1  0
 11 12  2  0
 12 13  1  0
 13 14  2  0
  8 14  1  0
  9 11  1  0
 16 17  2  0
 17 18  1  0
 15 13  1  0
 18 12  1  0
  2 19  1  0
 19 20  3  0
 10 21  1  0
 21 22  1  0
 22 23  1  0
 23 24  1  0
 23 25  1  0
 24 25  1  0
 17 26  1  0
 27 28  1  0
 28 29  2  0
 29 30  1  0
 30 26  1  0
 27 26  2  0
 28 31  1  0
 31 32  1  0
 31 33  1  0
 31 34  1  0
 30 35  1  0
 37 38  1  0
 38 39  2  0
 39 40  1  0
 36 40  2  0
 36 35  1  0
 35 37  2  0
 40 41  1  0
 41 42  1  0
  1 44  1  0
  3 45  1  0
  5 46  1  0
  6 47  1  0
  7 48  1  0
  8 49  1  0
 10 50  1  1
 11 51  1  0
 14 52  1  0
 18 53  1  0
 21 54  1  0
 22 55  1  0
 22 56  1  0
 23 57  1  0
 24 58  1  0
 24 59  1  0
 25 60  1  0
 25 61  1  0
 27 62  1  0
 36 63  1  0
 37 64  1  0
 38 65  1  0
 39 66  1  0
 41 67  1  0
 41 68  1  0
 42 69  1  0
 42 70  1  0
 43 71  1  0
M  END
> <Uni-Dock RESULT> 
ENERGY=   -5.000  LOWER_BOUND=    6.523  UPPER_BOUND=   10.043
INTER + INTRA:          -5.000
INTER:                  -5.000
INTRA:                   0.000
UNBOUND:                 0.000

$$$$

     RDKit          3D

 71 73  0  0  0  0  0  0  0  0999 V2000
   50.6849    6.9145   17.8124 Cl  0  0  0  0  0  0  0  0  0  0  0  0
   51.8797    4.8760   21.4082 C   0  0  0  0  0  0  0  0  0  0  0  0
   52.2199    4.5762   20.0878 C   0  0  0  0  0  0  0  0  0  0  0  0
   53.5549    4.4522   19.7044 C   0  0  0  0  0  0  0  0  0  0  0  0
   54.5199    4.6360   20.6756 C   0  0  0  0  0  0  0  0  0  0  0  0
   54.2083    4.9335   21.9905 C   0  0  0  0  0  0  0  0  0  0  0  0
   52.8767    5.0522   22.3491 C   0  0  0  0  0  0  0  0  0  0  0  0
   55.0521    6.0197   17.1149 C   0  0  0  0  0  0  0  0  0  0  0  0
   53.8922    5.3254   17.4132 C   0  0  0  0  0  0  0  0  0  0  0  0
   53.8870    4.1347   18.2845 C   0  0  2  0  0  0  0  0  0  0  0  0
   52.7113    5.7754   16.8650 C   0  0  0  0  0  0  0  0  0  0  0  0
   52.6825    6.8830   16.0442 C   0  0  0  0  0  0  0  0  0  0  0  0
   53.8504    7.5889   15.7390 C   0  0  0  0  0  0  0  0  0  0  0  0
   55.0069    7.1243   16.2932 C   0  0  0  0  0  0  0  0  0  0  0  0
   53.8147    8.6822   14.9263 F   0  0  0  0  0  0  0  0  0  0  0  0
   50.8044    8.7420   17.2539 O   0  0  0  0  0  0  0  0  0  0  0  0
   50.5529    8.2026   16.1464 C   0  0  0  0  0  0  0  0  0  0  0  0
   51.4330    7.2871   15.5089 N   0  0  0  0  0  0  0  0  0  0  0  0
   50.5033    5.0076   21.8193 C   0  0  0  0  0  0  0  0  0  0  0  0
   49.3872    5.0970   22.1459 N   0  0  0  0  0  0  0  0  0  0  0  0
   53.0731    3.0931   17.7410 N   0  0  0  0  0  0  0  0  0  0  0  0
   53.1633    1.8254   18.3901 C   0  0  0  0  0  0  0  0  0  0  0  0
   54.5087    1.1583   18.1937 C   0  0  0  0  0  0  0  0  0  0  0  0
   54.6655   -0.1847   18.8586 C   0  0  0  0  0  0  0  0  0  0  0  0
   55.4586    0.9914   19.3374 C   0  0  0  0  0  0  0  0  0  0  0  0
   49.2966    8.5048   15.4392 C   0  0  0  0  0  0  0  0  0  0  0  0
   48.8755    8.0003   14.2082 C   0  0  0  0  0  0  0  0  0  0  0  0
   47.6385    8.5273   13.8910 C   0  0  0  0  0  0  0  0  0  0  0  0
   47.3284    9.3346   14.9200 N   0  0  0  0  0  0  0  0  0  0  0  0
   48.2978    9.3203   15.8231 N   0  0  0  0  0  0  0  0  0  0  0  0
   46.8297    8.2486   12.6625 C   0  0  0  0  0  0  0  0  0  0  0  0
   45.5053    8.0268   12.9517 F   0  0  0  0  0  0  0  0  0  0  0  0
   47.3197    7.1154   12.0153 F   0  0  0  0  0  0  0  0  0  0  0  0
   46.9837    9.3045   11.7846 F   0  0  0  0  0  0  0  0  0  0  0  0
   48.2334   10.0848   17.0188 C   0  0  0  0  0  0  0  0  0  0  0  0
   47.6128    9.6478   18.1650 C   0  0  0  0  0  0  0  0  0  0  0  0
   48.8412   11.3404   16.9840 C   0  0  0  0  0  0  0  0  0  0  0  0
   48.8359   12.1721   18.0926 C   0  0  0  0  0  0  0  0  0  0  0  0
   48.2164   11.7354   19.2364 C   0  0  0  0  0  0  0  0  0  0  0  0
   47.6187   10.4903   19.2565 C   0  0  0  0  0  0  0  0  0  0  0  0
   46.9602   10.0646   20.5255 C   0  0  0  0  0  0  0  0  0  0  0  0
   45.5576   10.5004   20.4704 N   0  0  0  0  0  0  0  0  0  0  0  0
   50.6885    6.9101   17.8138 Cl  0  0  0  0  0  0  0  0  0  0  0  0
   51.5462    5.8821   18.1384 H   0  0  0  0  0  0  0  0  0  0  0  0
   51.4069    4.4470   19.3911 H   0  0  0  0  0  0  0  0  0  0  0  0
   55.5784    4.5437   20.3966 H   0  0  0  0  0  0  0  0  0  0  0  0
   54.9797    5.0738   22.7402 H   0  0  0  0  0  0  0  0  0  0  0  0
   52.6614    5.2866   23.3871 H   0  0  0  0  0  0  0  0  0  0  0  0
   55.9703    5.6463   17.5575 H   0  0  0  0  0  0  0  0  0  0  0  0
   54.9441    3.7257   18.2846 H   0  0  0  0  0  0  0  0  0  0  0  0
   51.8083    5.2483   17.0875 H   0  0  0  0  0  0  0  0  0  0  0  0
   55.9349    7.6412   16.0807 H   0  0  0  0  0  0  0  0  0  0  0  0
   51.1743    6.8593   14.5781 H   0  0  0  0  0  0  0  0  0  0  0  0
   52.9658    3.0929   16.7268 H   0  0  0  0  0  0  0  0  0  0  0  0
   52.8927    1.8410   19.4496 H   0  0  0  0  0  0  0  0  0  0  0  0
   52.4000    1.1618   17.8918 H   0  0  0  0  0  0  0  0  0  0  0  0
   54.9147    1.2089   17.1626 H   0  0  0  0  0  0  0  0  0  0  0  0
   53.8909   -0.5356   19.5797 H   0  0  0  0  0  0  0  0  0  0  0  0
   55.2613   -0.9671   18.3448 H   0  0  0  0  0  0  0  0  0  0  0  0
   56.5355    1.1061   19.0425 H   0  0  0  0  0  0  0  0  0  0  0  0
   55.2454    1.4442   20.3308 H   0  0  0  0  0  0  0  0  0  0  0  0
   49.4128    7.3090   13.5864 H   0  0  0  0  0  0  0  0  0  0  0  0
   47.1401    8.6655   18.1818 H   0  0  0  0  0  0  0  0  0  0  0  0
   49.3234   11.6825   16.1015 H   0  0  0  0  0  0  0  0  0  0  0  0
   49.3075   13.1475   18.0636 H   0  0  0  0  0  0  0  0  0  0  0  0
   48.2232   12.3984   20.0884 H   0  0  0  0  0  0  0  0  0  0  0  0
   46.9674    8.9596   20.6123 H   0  0  0  0  0  0  0  0  0  0  0  0
   47.4625   10.5648   21.3904 H   0  0  0  0  0  0  0  0  0  0  0  0
   45.1842   10.0598   19.5742 H   0  0  0  0  0  0  0  0  0  0  0  0
   45.0433   10.0915   21.2590 H   0  0  0  0  0  0  0  0  0  0  0  0
   51.5426    5.8865   18.1370 H   0  0  0  0  0  0  0  0  0  0  0  0
  2  3  2  0
  3  4  1  0
  4  5  2  0
  5  6  1  0
  6  7  2  0
  2  7  1  0
  8  9  2  0
  9 10  1  0
 10  4  1  0
 11 12  2  0
 12 13  1  0
 13 14  2  0
  8 14  1  0
  9 11  1  0
 16 17  2  0
 17 18  1  0
 15 13  1  0
 18 12  1  0
  2 19  1  0
 19 20  3  0
 10 21  1  0
 21 22  1  0
 22 23  1  0
 23 24  1  0
 23 25  1  0
 24 25  1  0
 17 26  1  0
 27 28  1  0
 28 29  2  0
 29 30  1  0
 30 26  1  0
 27 26  2  0
 28 31  1  0
 31 32  1  0
 31 33  1  0
 31 34  1  0
 30 35  1  0
 37 38  1  0
 38 39  2  0
 39 40  1  0
 36 40  2  0
 36 35  1  0
 35 37  2  0
 40 41  1  0
 41 42  1  0
  1 44  1  0
  3 45  1  0
  5 46  1  0
  6 47  1  0
  7 48  1  0
  8 49  1  0
 10 50  1  1
 11 51  1  0
 14 52  1  0
 18 53  1  0
 21 54  1  0
 22 55  1  0
 22 56  1  0
 23 57  1  0
 24 58  1  0
 24 59  1  0
 25 60  1  0
 25 61  1  0
 27 62  1  0
 36 63  1  0
 37 64  1  0
 38 65  1  0
 39 66  1  0
 41 67  1  0
 41 68  1  0
 42 69  1  0
 42 70  1  0
 43 71  1  0
M  END
> <Uni-Dock RESULT> 
ENERGY=   -4.864  LOWER_BOUND=    5.396  UPPER_BOUND=    8.294
INTER + INTRA:          -4.864
INTER:                  -4.864
INTRA:                   0.000
UNBOUND:                 0.000

$$$$

     RDKit          3D

 71 73  0  0  0  0  0  0  0  0999 V2000
   45.7817   10.7342   11.5126 Cl  0  0  0  0  0  0  0  0  0  0  0  0
   50.0718   10.6793   11.8360 C   0  0  0  0  0  0  0  0  0  0  0  0
   49.1341   10.0152   12.6288 C   0  0  0  0  0  0  0  0  0  0  0  0
   49.2112    8.6365   12.8235 C   0  0  0  0  0  0  0  0  0  0  0  0
   50.2445    7.9593   12.2056 C   0  0  0  0  0  0  0  0  0  0  0  0
   51.1861    8.5946   11.4155 C   0  0  0  0  0  0  0  0  0  0  0  0
   51.0905    9.9636   11.2357 C   0  0  0  0  0  0  0  0  0  0  0  0
   46.7187    6.4040   12.3677 C   0  0  0  0  0  0  0  0  0  0  0  0
   46.9480    7.6417   12.9437 C   0  0  0  0  0  0  0  0  0  0  0  0
   48.1916    7.9545   13.6735 C   0  0  2  0  0  0  0  0  0  0  0  0
   45.9672    8.6014   12.8235 C   0  0  0  0  0  0  0  0  0  0  0  0
   44.7923    8.3400   12.1507 C   0  0  0  0  0  0  0  0  0  0  0  0
   44.5544    7.0920   11.5665 C   0  0  0  0  0  0  0  0  0  0  0  0
   45.5399    6.1583   11.6989 C   0  0  0  0  0  0  0  0  0  0  0  0
   43.3905    6.8403   10.9038 F   0  0  0  0  0  0  0  0  0  0  0  0
   44.5826   10.3566   10.0684 O   0  0  0  0  0  0  0  0  0  0  0  0
   43.7681   10.3332   11.0259 C   0  0  0  0  0  0  0  0  0  0  0  0
   43.8227    9.3720   12.0709 N   0  0  0  0  0  0  0  0  0  0  0  0
   50.0047   12.1048   11.6255 C   0  0  0  0  0  0  0  0  0  0  0  0
   49.9512   13.2599   11.4733 N   0  0  0  0  0  0  0  0  0  0  0  0
   47.9215    8.6544   14.8901 N   0  0  0  0  0  0  0  0  0  0  0  0
   49.0284    8.8204   15.7754 C   0  0  0  0  0  0  0  0  0  0  0  0
   49.4926    7.5155   16.3879 C   0  0  0  0  0  0  0  0  0  0  0  0
   50.6619    7.6262   17.3317 C   0  0  0  0  0  0  0  0  0  0  0  0
   50.8152    6.9207   16.0201 C   0  0  0  0  0  0  0  0  0  0  0  0
   42.6884   11.3317   11.1095 C   0  0  0  0  0  0  0  0  0  0  0  0
   41.7060   11.4359   12.0950 C   0  0  0  0  0  0  0  0  0  0  0  0
   40.8801   12.5070   11.8136 C   0  0  0  0  0  0  0  0  0  0  0  0
   41.3652   13.0325   10.6754 N   0  0  0  0  0  0  0  0  0  0  0  0
   42.4210   12.3449   10.2657 N   0  0  0  0  0  0  0  0  0  0  0  0
   39.7032   12.9707   12.6142 C   0  0  0  0  0  0  0  0  0  0  0  0
   39.6876   14.3350   12.7725 F   0  0  0  0  0  0  0  0  0  0  0  0
   39.7326   12.3951   13.8833 F   0  0  0  0  0  0  0  0  0  0  0  0
   38.5490   12.5213   12.0015 F   0  0  0  0  0  0  0  0  0  0  0  0
   43.1353   12.6818    9.0848 C   0  0  0  0  0  0  0  0  0  0  0  0
   44.1453   13.6137    9.0502 C   0  0  0  0  0  0  0  0  0  0  0  0
   42.7581   12.0111    7.9207 C   0  0  0  0  0  0  0  0  0  0  0  0
   43.3850   12.2636    6.7109 C   0  0  0  0  0  0  0  0  0  0  0  0
   44.3931   13.1939    6.6768 C   0  0  0  0  0  0  0  0  0  0  0  0
   44.7560   13.8502    7.8368 C   0  0  0  0  0  0  0  0  0  0  0  0
   45.8583   14.8510    7.7438 C   0  0  0  0  0  0  0  0  0  0  0  0
   45.2535   16.1574    7.4478 N   0  0  0  0  0  0  0  0  0  0  0  0
   45.7857   10.7313   11.5158 Cl  0  0  0  0  0  0  0  0  0  0  0  0
   46.7194   10.0576   12.2720 H   0  0  0  0  0  0  0  0  0  0  0  0
   48.3590   10.6169   13.0765 H   0  0  0  0  0  0  0  0  0  0  0  0
   50.3250    6.8726   12.3442 H   0  0  0  0  0  0  0  0  0  0  0  0
   51.9917    8.0464   10.9385 H   0  0  0  0  0  0  0  0  0  0  0  0
   51.8424   10.4357   10.6106 H   0  0  0  0  0  0  0  0  0  0  0  0
   47.5052    5.6636   12.4759 H   0  0  0  0  0  0  0  0  0  0  0  0
   48.6441    6.9636   13.9869 H   0  0  0  0  0  0  0  0  0  0  0  0
   46.1317    9.5616   13.2637 H   0  0  0  0  0  0  0  0  0  0  0  0
   45.3950    5.1774   11.2626 H   0  0  0  0  0  0  0  0  0  0  0  0
   43.1150    9.3962   12.8550 H   0  0  0  0  0  0  0  0  0  0  0  0
   47.0079    8.4844   15.3100 H   0  0  0  0  0  0  0  0  0  0  0  0
   49.8731    9.3648   15.3440 H   0  0  0  0  0  0  0  0  0  0  0  0
   48.6575    9.4606   16.6261 H   0  0  0  0  0  0  0  0  0  0  0  0
   48.6823    6.8445   16.7398 H   0  0  0  0  0  0  0  0  0  0  0  0
   51.2244    8.5864   17.4006 H   0  0  0  0  0  0  0  0  0  0  0  0
   50.6935    6.9634   18.2209 H   0  0  0  0  0  0  0  0  0  0  0  0
   50.8025    5.7992   15.9756 H   0  0  0  0  0  0  0  0  0  0  0  0
   51.4397    7.3653   15.2142 H   0  0  0  0  0  0  0  0  0  0  0  0
   41.5904   10.7945   12.9487 H   0  0  0  0  0  0  0  0  0  0  0  0
   44.4322   14.1329    9.9649 H   0  0  0  0  0  0  0  0  0  0  0  0
   41.9793   11.2890    7.9420 H   0  0  0  0  0  0  0  0  0  0  0  0
   43.0901   11.7426    5.8074 H   0  0  0  0  0  0  0  0  0  0  0  0
   44.8682   13.3760    5.7246 H   0  0  0  0  0  0  0  0  0  0  0  0
   46.3860   14.9353    8.7149 H   0  0  0  0  0  0  0  0  0  0  0  0
   46.5450   14.5703    6.9070 H   0  0  0  0  0  0  0  0  0  0  0  0
   44.5502   16.3020    8.2359 H   0  0  0  0  0  0  0  0  0  0  0  0
   45.9688   16.8892    7.5275 H   0  0  0  0  0  0  0  0  0  0  0  0
   46.7155   10.0604   12.2688 H   0  0  0  0  0  0  0  0  0  0  0  0
  2  3  2  0
  3  4  1  0
  4  5  2  0
  5  6  1  0
  6  7  2  0
  2  7  1  0
  8  9  2  0
  9 10  1  0
 10  4  1  0
 11 12  2  0
 12 13  1  0
 13 14  2  0
  8 14  1  0
  9 11  1  0
 16 17  2  0
 17 18  1  0
 15 13  1  0
 18 12  1  0
  2 19  1  0
 19 20  3  0
 10 21  1  0
 21 22  1  0
 22 23  1  0
 23 24  1  0
 23 25  1  0
 24 25  1  0
 17 26  1  0
 27 28  1  0
 28 29  2  0
 29 30  1  0
 30 26  1  0
 27 26  2  0
 28 31  1  0
 31 32  1  0
 31 33  1  0
 31 34  1  0
 30 35  1  0
 37 38  1  0
 38 39  2  0
 39 40  1  0
 36 40  2  0
 36 35  1  0
 35 37  2  0
 40 41  1  0
 41 42  1  0
  1 44  1  0
  3 45  1  0
  5 46  1  0
  6 47  1  0
  7 48  1  0
  8 49  1  0
 10 50  1  1
 11 51  1  0
 14 52  1  0
 18 53  1  0
 21 54  1  0
 22 55  1  0
 22 56  1  0
 23 57  1  0
 24 58  1  0
 24 59  1  0
 25 60  1  0
 25 61  1  0
 27 62  1  0
 36 63  1  0
 37 64  1  0
 38 65  1  0
 39 66  1  0
 41 67  1  0
 41 68  1  0
 42 69  1  0
 42 70  1  0
 43 71  1  0
M  END
> <Uni-Dock RESULT> 
ENERGY=   -4.834  LOWER_BOUND=    5.514  UPPER_BOUND=    9.309
INTER + INTRA:          -4.834
INTER:                  -4.834
INTRA:                   0.000
UNBOUND:                 0.000

$$$$
