
     RDKit          3D

 71 73  0  0  0  0  0  0  0  0999 V2000
   46.0727   11.8358   10.8630 Cl  0  0  0  0  0  0  0  0  0  0  0  0
   44.3885    4.9251   10.4908 C   0  0  0  0  0  0  0  0  0  0  0  0
   44.9776    6.1388   10.8165 C   0  0  0  0  0  0  0  0  0  0  0  0
   44.6095    6.8263   11.9678 C   0  0  0  0  0  0  0  0  0  0  0  0
   43.6335    6.2510   12.7729 C   0  0  0  0  0  0  0  0  0  0  0  0
   43.0451    5.0393   12.4482 C   0  0  0  0  0  0  0  0  0  0  0  0
   43.4179    4.3597   11.2980 C   0  0  0  0  0  0  0  0  0  0  0  0
   43.5813    9.0217   10.7279 C   0  0  0  0  0  0  0  0  0  0  0  0
   44.6918    9.2424   11.5164 C   0  0  0  0  0  0  0  0  0  0  0  0
   45.2318    8.1128   12.3159 C   0  0  2  0  0  0  0  0  0  0  0  0
   45.3253   10.4622   11.5982 C   0  0  0  0  0  0  0  0  0  0  0  0
   44.7970   11.4900   10.8420 C   0  0  0  0  0  0  0  0  0  0  0  0
   43.6781   11.3137   10.0320 C   0  0  0  0  0  0  0  0  0  0  0  0
   43.0754   10.0691    9.9825 C   0  0  0  0  0  0  0  0  0  0  0  0
   43.1640   12.3355    9.2888 F   0  0  0  0  0  0  0  0  0  0  0  0
   43.9699   13.2846   12.5778 O   0  0  0  0  0  0  0  0  0  0  0  0
   44.8690   13.7134   11.8030 C   0  0  0  0  0  0  0  0  0  0  0  0
   45.3664   12.8088   10.8406 N   0  0  0  0  0  0  0  0  0  0  0  0
   44.7746    4.2104    9.2896 C   0  0  0  0  0  0  0  0  0  0  0  0
   45.0677    3.6268    8.3243 N   0  0  0  0  0  0  0  0  0  0  0  0
   46.6703    8.1071   12.1589 N   0  0  0  0  0  0  0  0  0  0  0  0
   47.3167    7.1298   12.9777 C   0  0  0  0  0  0  0  0  0  0  0  0
   48.8343    7.1615   12.7777 C   0  0  0  0  0  0  0  0  0  0  0  0
   49.5432    8.4537   13.0982 C   0  0  0  0  0  0  0  0  0  0  0  0
   49.7160    7.2042   13.9695 C   0  0  0  0  0  0  0  0  0  0  0  0
   45.2965   15.0814   11.9785 C   0  0  0  0  0  0  0  0  0  0  0  0
   44.7653   15.9187   12.9461 C   0  0  0  0  0  0  0  0  0  0  0  0
   45.3835   17.1626   12.8568 C   0  0  0  0  0  0  0  0  0  0  0  0
   46.2536   17.0572   11.8634 N   0  0  0  0  0  0  0  0  0  0  0  0
   46.2066   15.8230   11.3376 N   0  0  0  0  0  0  0  0  0  0  0  0
   45.1039   18.3604   13.7200 C   0  0  0  0  0  0  0  0  0  0  0  0
   45.1003   19.5250   12.9694 F   0  0  0  0  0  0  0  0  0  0  0  0
   43.8865   18.1688   14.3526 F   0  0  0  0  0  0  0  0  0  0  0  0
   46.0747   18.3966   14.7009 F   0  0  0  0  0  0  0  0  0  0  0  0
   47.0415   15.4491   10.2571 C   0  0  0  0  0  0  0  0  0  0  0  0
   46.6615   15.6139    8.9231 C   0  0  0  0  0  0  0  0  0  0  0  0
   48.2916   14.9075   10.5801 C   0  0  0  0  0  0  0  0  0  0  0  0
   49.1884   14.5192    9.6121 C   0  0  0  0  0  0  0  0  0  0  0  0
   48.8115   14.6828    8.2871 C   0  0  0  0  0  0  0  0  0  0  0  0
   47.5678   15.2215    7.9631 C   0  0  0  0  0  0  0  0  0  0  0  0
   47.1724   15.3930    6.5368 C   0  0  0  0  0  0  0  0  0  0  0  0
   47.6042   16.7191    6.1035 N   0  0  0  0  0  0  0  0  0  0  0  0
   46.0726   11.8362   10.8628 Cl  0  0  0  0  0  0  0  0  0  0  0  0
   46.1210   10.5545   11.3463 H   0  0  0  0  0  0  0  0  0  0  0  0
   45.7359    6.5471   10.1546 H   0  0  0  0  0  0  0  0  0  0  0  0
   43.3591    6.8040   13.6689 H   0  0  0  0  0  0  0  0  0  0  0  0
   42.2968    4.6553   13.1190 H   0  0  0  0  0  0  0  0  0  0  0  0
   42.9403    3.4094   11.0655 H   0  0  0  0  0  0  0  0  0  0  0  0
   43.0841    8.0544   10.6671 H   0  0  0  0  0  0  0  0  0  0  0  0
   45.0511    8.2828   13.4089 H   0  0  0  0  0  0  0  0  0  0  0  0
   46.1966   10.6457   12.2133 H   0  0  0  0  0  0  0  0  0  0  0  0
   42.2109    9.9479    9.3517 H   0  0  0  0  0  0  0  0  0  0  0  0
   46.1042   13.1062   10.1792 H   0  0  0  0  0  0  0  0  0  0  0  0
   46.9614    8.0956   11.1572 H   0  0  0  0  0  0  0  0  0  0  0  0
   47.1517    7.4494   14.0428 H   0  0  0  0  0  0  0  0  0  0  0  0
   46.9271    6.1072   12.9082 H   0  0  0  0  0  0  0  0  0  0  0  0
   49.1584    6.5754   11.9023 H   0  0  0  0  0  0  0  0  0  0  0  0
   50.4010    8.7126   12.4367 H   0  0  0  0  0  0  0  0  0  0  0  0
   49.0189    9.3187   13.5037 H   0  0  0  0  0  0  0  0  0  0  0  0
   50.6529    6.6239   13.8893 H   0  0  0  0  0  0  0  0  0  0  0  0
   49.2642    7.2755   14.9801 H   0  0  0  0  0  0  0  0  0  0  0  0
   44.0019   15.7291   13.6857 H   0  0  0  0  0  0  0  0  0  0  0  0
   45.7025   16.0294    8.7303 H   0  0  0  0  0  0  0  0  0  0  0  0
   48.5665   14.7882   11.6224 H   0  0  0  0  0  0  0  0  0  0  0  0
   50.1480   14.1035    9.8455 H   0  0  0  0  0  0  0  0  0  0  0  0
   49.5157   14.3778    7.5094 H   0  0  0  0  0  0  0  0  0  0  0  0
   47.6729   14.6740    5.8684 H   0  0  0  0  0  0  0  0  0  0  0  0
   46.0719   15.3752    6.4384 H   0  0  0  0  0  0  0  0  0  0  0  0
   48.6204   16.7168    5.8449 H   0  0  0  0  0  0  0  0  0  0  0  0
   47.5197   17.3814    6.9157 H   0  0  0  0  0  0  0  0  0  0  0  0
   46.1211   10.5541   11.3465 H   0  0  0  0  0  0  0  0  0  0  0  0
  2  3  2  0
  3  4  1  0
  4  5  2  0
  5  6  1  0
  6  7  2  0
  2  7  1  0
  8  9  2  0
  9 10  1  0
 10  4  1  0
 11 12  2  0
 12 13  1  0
 13 14  2  0
  8 14  1  0
  9 11  1  0
 16 17  2  0
 17 18  1  0
 15 13  1  0
 18 12  1  0
  2 19  1  0
 19 20  3  0
 10 21  1  0
 21 22  1  0
 22 23  1  0
 23 24  1  0
 23 25  1  0
 24 25  1  0
 17 26  1  0
 27 28  1  0
 28 29  2  0
 29 30  1  0
 30 26  1  0
 27 26  2  0
 28 31  1  0
 31 32  1  0
 31 33  1  0
 31 34  1  0
 30 35  1  0
 37 38  1  0
 38 39  2  0
 39 40  1  0
 36 40  2  0
 36 35  1  0
 35 37  2  0
 40 41  1  0
 41 42  1  0
  1 44  1  0
  3 45  1  0
  5 46  1  0
  6 47  1  0
  7 48  1  0
  8 49  1  0
 10 50  1  6
 11 51  1  0
 14 52  1  0
 18 53  1  0
 21 54  1  0
 22 55  1  0
 22 56  1  0
 23 57  1  0
 24 58  1  0
 24 59  1  0
 25 60  1  0
 25 61  1  0
 27 62  1  0
 36 63  1  0
 37 64  1  0
 38 65  1  0
 39 66  1  0
 41 67  1  0
 41 68  1  0
 42 69  1  0
 42 70  1  0
 43 71  1  0
M  END
> <Uni-Dock RESULT> 
ENERGY=   -5.261  LOWER_BOUND=    0.000  UPPER_BOUND=    0.000
INTER + INTRA:          -5.261
INTER:                  -5.261
INTRA:                   0.000
UNBOUND:                 0.000

$$$$

     RDKit          3D

 71 73  0  0  0  0  0  0  0  0999 V2000
   47.6590   10.0150   13.3363 Cl  0  0  0  0  0  0  0  0  0  0  0  0
   51.9312    5.8162   17.1899 C   0  0  0  0  0  0  0  0  0  0  0  0
   51.0372    6.7974   16.7847 C   0  0  0  0  0  0  0  0  0  0  0  0
   49.6656    6.6177   16.9262 C   0  0  0  0  0  0  0  0  0  0  0  0
   49.2307    5.4225   17.4866 C   0  0  0  0  0  0  0  0  0  0  0  0
   50.1228    4.4427   17.8914 C   0  0  0  0  0  0  0  0  0  0  0  0
   51.4895    4.6296   17.7468 C   0  0  0  0  0  0  0  0  0  0  0  0
   49.0519    6.6497   14.2736 C   0  0  0  0  0  0  0  0  0  0  0  0
   48.5205    7.6775   15.0253 C   0  0  0  0  0  0  0  0  0  0  0  0
   48.7154    7.6555   16.4978 C   0  0  2  0  0  0  0  0  0  0  0  0
   47.8164    8.7250   14.4751 C   0  0  0  0  0  0  0  0  0  0  0  0
   47.6540    8.7138   13.1036 C   0  0  0  0  0  0  0  0  0  0  0  0
   48.1727    7.6978   12.3050 C   0  0  0  0  0  0  0  0  0  0  0  0
   48.8733    6.6657   12.9038 C   0  0  0  0  0  0  0  0  0  0  0  0
   48.0068    7.6960   10.9510 F   0  0  0  0  0  0  0  0  0  0  0  0
   45.0639    8.4889   12.7057 O   0  0  0  0  0  0  0  0  0  0  0  0
   45.5528    9.5538   12.2368 C   0  0  0  0  0  0  0  0  0  0  0  0
   46.9397    9.7492   12.4100 N   0  0  0  0  0  0  0  0  0  0  0  0
   53.3610    6.0066   17.0412 C   0  0  0  0  0  0  0  0  0  0  0  0
   54.5126    6.1402   16.9217 N   0  0  0  0  0  0  0  0  0  0  0  0
   49.1046    8.9860   16.9127 N   0  0  0  0  0  0  0  0  0  0  0  0
   49.2098    9.1191   18.3321 C   0  0  0  0  0  0  0  0  0  0  0  0
   49.6231   10.5408   18.7222 C   0  0  0  0  0  0  0  0  0  0  0  0
   48.7063   11.6627   18.3029 C   0  0  0  0  0  0  0  0  0  0  0  0
   48.8533   11.2509   19.7723 C   0  0  0  0  0  0  0  0  0  0  0  0
   44.6471   10.4614   11.5729 C   0  0  0  0  0  0  0  0  0  0  0  0
   43.2917   10.2083   11.4368 C   0  0  0  0  0  0  0  0  0  0  0  0
   42.6999   11.2677   10.7548 C   0  0  0  0  0  0  0  0  0  0  0  0
   43.6821   12.1188   10.4981 N   0  0  0  0  0  0  0  0  0  0  0  0
   44.8414   11.6454   10.9816 N   0  0  0  0  0  0  0  0  0  0  0  0
   41.2462   11.3954   10.3965 C   0  0  0  0  0  0  0  0  0  0  0  0
   41.0916   11.9175    9.1225 F   0  0  0  0  0  0  0  0  0  0  0  0
   40.6590   10.1450   10.4996 F   0  0  0  0  0  0  0  0  0  0  0  0
   40.6574   12.2048   11.3473 F   0  0  0  0  0  0  0  0  0  0  0  0
   46.0504   12.3680   10.8387 C   0  0  0  0  0  0  0  0  0  0  0  0
   46.8920   12.2119    9.7349 C   0  0  0  0  0  0  0  0  0  0  0  0
   46.3733   13.2713   11.8587 C   0  0  0  0  0  0  0  0  0  0  0  0
   47.5171   14.0342   11.8198 C   0  0  0  0  0  0  0  0  0  0  0  0
   48.3532   13.8795   10.7237 C   0  0  0  0  0  0  0  0  0  0  0  0
   48.0341   12.9811    9.7073 C   0  0  0  0  0  0  0  0  0  0  0  0
   48.9390   12.8224    8.5342 C   0  0  0  0  0  0  0  0  0  0  0  0
   48.5231   13.7759    7.5092 N   0  0  0  0  0  0  0  0  0  0  0  0
   47.6589   10.0152   13.3359 Cl  0  0  0  0  0  0  0  0  0  0  0  0
   48.0978    9.5140   14.5338 H   0  0  0  0  0  0  0  0  0  0  0  0
   51.4269    7.7145   16.3522 H   0  0  0  0  0  0  0  0  0  0  0  0
   48.1543    5.3007   17.5889 H   0  0  0  0  0  0  0  0  0  0  0  0
   49.7131    3.5433   18.3167 H   0  0  0  0  0  0  0  0  0  0  0  0
   52.1694    3.8443   18.0727 H   0  0  0  0  0  0  0  0  0  0  0  0
   49.6082    5.8233   14.7143 H   0  0  0  0  0  0  0  0  0  0  0  0
   47.7449    7.4515   17.0201 H   0  0  0  0  0  0  0  0  0  0  0  0
   47.3956    9.5357   15.0555 H   0  0  0  0  0  0  0  0  0  0  0  0
   49.2685    5.8870   12.2734 H   0  0  0  0  0  0  0  0  0  0  0  0
   47.3942   10.6043   12.0459 H   0  0  0  0  0  0  0  0  0  0  0  0
   49.9275    9.3442   16.3808 H   0  0  0  0  0  0  0  0  0  0  0  0
   48.1703    8.9905   18.7404 H   0  0  0  0  0  0  0  0  0  0  0  0
   49.8269    8.3706   18.8431 H   0  0  0  0  0  0  0  0  0  0  0  0
   50.7136   10.6933   18.6733 H   0  0  0  0  0  0  0  0  0  0  0  0
   49.2071   12.6127   18.0076 H   0  0  0  0  0  0  0  0  0  0  0  0
   47.7626   11.4806   17.7895 H   0  0  0  0  0  0  0  0  0  0  0  0
   49.4489   11.8908   20.4481 H   0  0  0  0  0  0  0  0  0  0  0  0
   47.9568   10.7681   20.2122 H   0  0  0  0  0  0  0  0  0  0  0  0
   42.7059    9.3643   11.7688 H   0  0  0  0  0  0  0  0  0  0  0  0
   46.6026   11.5137    8.9878 H   0  0  0  0  0  0  0  0  0  0  0  0
   45.7057   13.3768   12.7068 H   0  0  0  0  0  0  0  0  0  0  0  0
   47.7759   14.7289   12.5933 H   0  0  0  0  0  0  0  0  0  0  0  0
   49.2648   14.4803   10.6819 H   0  0  0  0  0  0  0  0  0  0  0  0
   49.9874   13.0648    8.7712 H   0  0  0  0  0  0  0  0  0  0  0  0
   48.8212   11.8167    8.0915 H   0  0  0  0  0  0  0  0  0  0  0  0
   48.9093   14.7307    7.7063 H   0  0  0  0  0  0  0  0  0  0  0  0
   47.4776   13.8787    7.5510 H   0  0  0  0  0  0  0  0  0  0  0  0
   48.0979    9.5138   14.5342 H   0  0  0  0  0  0  0  0  0  0  0  0
  2  3  2  0
  3  4  1  0
  4  5  2  0
  5  6  1  0
  6  7  2  0
  2  7  1  0
  8  9  2  0
  9 10  1  0
 10  4  1  0
 11 12  2  0
 12 13  1  0
 13 14  2  0
  8 14  1  0
  9 11  1  0
 16 17  2  0
 17 18  1  0
 15 13  1  0
 18 12  1  0
  2 19  1  0
 19 20  3  0
 10 21  1  0
 21 22  1  0
 22 23  1  0
 23 24  1  0
 23 25  1  0
 24 25  1  0
 17 26  1  0
 27 28  1  0
 28 29  2  0
 29 30  1  0
 30 26  1  0
 27 26  2  0
 28 31  1  0
 31 32  1  0
 31 33  1  0
 31 34  1  0
 30 35  1  0
 37 38  1  0
 38 39  2  0
 39 40  1  0
 36 40  2  0
 36 35  1  0
 35 37  2  0
 40 41  1  0
 41 42  1  0
  1 44  1  0
  3 45  1  0
  5 46  1  0
  6 47  1  0
  7 48  1  0
  8 49  1  0
 10 50  1  6
 11 51  1  0
 14 52  1  0
 18 53  1  0
 21 54  1  0
 22 55  1  0
 22 56  1  0
 23 57  1  0
 24 58  1  0
 24 59  1  0
 25 60  1  0
 25 61  1  0
 27 62  1  0
 36 63  1  0
 37 64  1  0
 38 65  1  0
 39 66  1  0
 41 67  1  0
 41 68  1  0
 42 69  1  0
 42 70  1  0
 43 71  1  0
M  END
> <Uni-Dock RESULT> 
ENERGY=   -4.888  LOWER_BOUND=    3.925  UPPER_BOUND=    6.664
INTER + INTRA:          -4.888
INTER:                  -4.888
INTRA:                   0.000
UNBOUND:                 0.000

$$$$

     RDKit          3D

 71 73  0  0  0  0  0  0  0  0999 V2000
   49.0785   11.1391   10.4340 Cl  0  0  0  0  0  0  0  0  0  0  0  0
   54.1906    6.1961   10.0258 C   0  0  0  0  0  0  0  0  0  0  0  0
   53.4895    7.3939   10.0171 C   0  0  0  0  0  0  0  0  0  0  0  0
   53.5018    8.2379   11.1221 C   0  0  0  0  0  0  0  0  0  0  0  0
   54.2405    7.8343   12.2281 C   0  0  0  0  0  0  0  0  0  0  0  0
   54.9407    6.6387   12.2373 C   0  0  0  0  0  0  0  0  0  0  0  0
   54.9233    5.8023   11.1309 C   0  0  0  0  0  0  0  0  0  0  0  0
   50.8458    8.0690   11.6974 C   0  0  0  0  0  0  0  0  0  0  0  0
   51.3018    9.3176   11.3275 C   0  0  0  0  0  0  0  0  0  0  0  0
   52.7599    9.5079   11.1162 C   0  0  2  0  0  0  0  0  0  0  0  0
   50.4687   10.3984   11.1443 C   0  0  0  0  0  0  0  0  0  0  0  0
   49.1194   10.1862   11.3492 C   0  0  0  0  0  0  0  0  0  0  0  0
   48.6138    8.9438   11.7230 C   0  0  0  0  0  0  0  0  0  0  0  0
   49.4906    7.8871   11.8951 C   0  0  0  0  0  0  0  0  0  0  0  0
   47.2793    8.7444   11.9228 F   0  0  0  0  0  0  0  0  0  0  0  0
   48.4730   11.7065   13.3958 O   0  0  0  0  0  0  0  0  0  0  0  0
   47.8563   12.0038   12.3356 C   0  0  0  0  0  0  0  0  0  0  0  0
   48.1483   11.2326   11.1902 N   0  0  0  0  0  0  0  0  0  0  0  0
   54.1759    5.3181    8.8719 C   0  0  0  0  0  0  0  0  0  0  0  0
   54.1685    4.5974    7.9560 N   0  0  0  0  0  0  0  0  0  0  0  0
   52.9354   10.2607    9.8929 N   0  0  0  0  0  0  0  0  0  0  0  0
   54.2993   10.6076    9.6424 C   0  0  0  0  0  0  0  0  0  0  0  0
   54.4348   11.4015    8.3402 C   0  0  0  0  0  0  0  0  0  0  0  0
   53.6884   12.7092    8.2516 C   0  0  0  0  0  0  0  0  0  0  0  0
   55.2179   12.6609    8.3441 C   0  0  0  0  0  0  0  0  0  0  0  0
   46.9176   13.0990   12.4011 C   0  0  0  0  0  0  0  0  0  0  0  0
   46.6773   13.8172   13.5613 C   0  0  0  0  0  0  0  0  0  0  0  0
   45.7270   14.7993   13.2967 C   0  0  0  0  0  0  0  0  0  0  0  0
   45.4187   14.6604   12.0159 N   0  0  0  0  0  0  0  0  0  0  0  0
   46.1228   13.6519   11.4783 N   0  0  0  0  0  0  0  0  0  0  0  0
   45.1808   15.7977   14.2780 C   0  0  0  0  0  0  0  0  0  0  0  0
   43.8175   15.9726   14.1035 F   0  0  0  0  0  0  0  0  0  0  0  0
   45.4687   15.3546   15.5586 F   0  0  0  0  0  0  0  0  0  0  0  0
   45.8685   16.9797   14.0886 F   0  0  0  0  0  0  0  0  0  0  0  0
   45.9782   13.2952   10.1159 C   0  0  0  0  0  0  0  0  0  0  0  0
   45.0375   12.3588    9.6810 C   0  0  0  0  0  0  0  0  0  0  0  0
   46.8215   13.9360    9.2001 C   0  0  0  0  0  0  0  0  0  0  0  0
   46.7621   13.6758    7.8507 C   0  0  0  0  0  0  0  0  0  0  0  0
   45.8279   12.7458    7.4184 C   0  0  0  0  0  0  0  0  0  0  0  0
   44.9875   12.1066    8.3279 C   0  0  0  0  0  0  0  0  0  0  0  0
   43.9875   11.1092    7.8533 C   0  0  0  0  0  0  0  0  0  0  0  0
   42.7465   11.8190    7.5549 N   0  0  0  0  0  0  0  0  0  0  0  0
   49.0781   11.1392   10.4340 Cl  0  0  0  0  0  0  0  0  0  0  0  0
   50.3967   10.7673   10.3934 H   0  0  0  0  0  0  0  0  0  0  0  0
   52.9268    7.6647    9.1283 H   0  0  0  0  0  0  0  0  0  0  0  0
   54.2378    8.5080   13.0825 H   0  0  0  0  0  0  0  0  0  0  0  0
   55.4903    6.3921   13.1287 H   0  0  0  0  0  0  0  0  0  0  0  0
   55.4818    4.8684   11.1636 H   0  0  0  0  0  0  0  0  0  0  0  0
   51.5096    7.2174   11.8409 H   0  0  0  0  0  0  0  0  0  0  0  0
   53.1945   10.1488   11.9265 H   0  0  0  0  0  0  0  0  0  0  0  0
   50.8161   11.3815   10.8544 H   0  0  0  0  0  0  0  0  0  0  0  0
   49.0850    6.9322   12.1843 H   0  0  0  0  0  0  0  0  0  0  0  0
   47.6725   11.4319   10.2935 H   0  0  0  0  0  0  0  0  0  0  0  0
   52.4423    9.8253    9.0832 H   0  0  0  0  0  0  0  0  0  0  0  0
   54.5995   11.3216   10.4570 H   0  0  0  0  0  0  0  0  0  0  0  0
   55.0226    9.7845    9.6841 H   0  0  0  0  0  0  0  0  0  0  0  0
   54.4848   10.7517    7.4513 H   0  0  0  0  0  0  0  0  0  0  0  0
   53.2653   12.9586    7.2519 H   0  0  0  0  0  0  0  0  0  0  0  0
   53.1155   13.1089    9.0880 H   0  0  0  0  0  0  0  0  0  0  0  0
   55.8133   12.8538    7.4335 H   0  0  0  0  0  0  0  0  0  0  0  0
   55.6386   13.0390    9.2983 H   0  0  0  0  0  0  0  0  0  0  0  0
   47.1041   13.7078   14.5470 H   0  0  0  0  0  0  0  0  0  0  0  0
   44.4211   11.9001   10.4152 H   0  0  0  0  0  0  0  0  0  0  0  0
   47.5449   14.6599    9.5593 H   0  0  0  0  0  0  0  0  0  0  0  0
   47.4013   14.1589    7.1395 H   0  0  0  0  0  0  0  0  0  0  0  0
   45.7715   12.5308    6.3487 H   0  0  0  0  0  0  0  0  0  0  0  0
   44.2918   10.6163    6.9160 H   0  0  0  0  0  0  0  0  0  0  0  0
   43.7503   10.3901    8.6582 H   0  0  0  0  0  0  0  0  0  0  0  0
   42.7873   12.2631    6.6058 H   0  0  0  0  0  0  0  0  0  0  0  0
   42.6424   12.6134    8.2356 H   0  0  0  0  0  0  0  0  0  0  0  0
   50.3972   10.7672   10.3934 H   0  0  0  0  0  0  0  0  0  0  0  0
  2  3  2  0
  3  4  1  0
  4  5  2  0
  5  6  1  0
  6  7  2  0
  2  7  1  0
  8  9  2  0
  9 10  1  0
 10  4  1  0
 11 12  2  0
 12 13  1  0
 13 14  2  0
  8 14  1  0
  9 11  1  0
 16 17  2  0
 17 18  1  0
 15 13  1  0
 18 12  1  0
  2 19  1  0
 19 20  3  0
 10 21  1  0
 21 22  1  0
 22 23  1  0
 23 24  1  0
 23 25  1  0
 24 25  1  0
 17 26  1  0
 27 28  1  0
 28 29  2  0
 29 30  1  0
 30 26  1  0
 27 26  2  0
 28 31  1  0
 31 32  1  0
 31 33  1  0
 31 34  1  0
 30 35  1  0
 37 38  1  0
 38 39  2  0
 39 40  1  0
 36 40  2  0
 36 35  1  0
 35 37  2  0
 40 41  1  0
 41 42  1  0
  1 44  1  0
  3 45  1  0
  5 46  1  0
  6 47  1  0
  7 48  1  0
  8 49  1  0
 10 50  1  6
 11 51  1  0
 14 52  1  0
 18 53  1  0
 21 54  1  0
 22 55  1  0
 22 56  1  0
 23 57  1  0
 24 58  1  0
 24 59  1  0
 25 60  1  0
 25 61  1  0
 27 62  1  0
 36 63  1  0
 37 64  1  0
 38 65  1  0
 39 66  1  0
 41 67  1  0
 41 68  1  0
 42 69  1  0
 42 70  1  0
 43 71  1  0
M  END
> <Uni-Dock RESULT> 
ENERGY=   -4.764  LOWER_BOUND=    4.120  UPPER_BOUND=    6.408
INTER + INTRA:          -4.764
INTER:                  -4.764
INTRA:                   0.000
UNBOUND:                 0.000

$$$$

     RDKit          3D

 71 73  0  0  0  0  0  0  0  0999 V2000
   48.3618    9.8896   14.9582 Cl  0  0  0  0  0  0  0  0  0  0  0  0
   50.3872    6.3782   20.8148 C   0  0  0  0  0  0  0  0  0  0  0  0
   49.8335    7.2986   19.9358 C   0  0  0  0  0  0  0  0  0  0  0  0
   48.4909    7.2301   19.5805 C   0  0  0  0  0  0  0  0  0  0  0  0
   47.7320    6.2082   20.1386 C   0  0  0  0  0  0  0  0  0  0  0  0
   48.2843    5.2891   21.0162 C   0  0  0  0  0  0  0  0  0  0  0  0
   49.6244    5.3643   21.3656 C   0  0  0  0  0  0  0  0  0  0  0  0
   48.8746    6.7294   16.9317 C   0  0  0  0  0  0  0  0  0  0  0  0
   48.2494    7.9220   17.2329 C   0  0  0  0  0  0  0  0  0  0  0  0
   47.9010    8.2039   18.6493 C   0  0  2  0  0  0  0  0  0  0  0  0
   47.9319    8.8656   16.2819 C   0  0  0  0  0  0  0  0  0  0  0  0
   48.2698    8.5711   14.9755 C   0  0  0  0  0  0  0  0  0  0  0  0
   48.9015    7.3807   14.6246 C   0  0  0  0  0  0  0  0  0  0  0  0
   49.2005    6.4627   15.6159 C   0  0  0  0  0  0  0  0  0  0  0  0
   49.2312    7.0993   13.3313 F   0  0  0  0  0  0  0  0  0  0  0  0
   45.9869    8.4113   13.6793 O   0  0  0  0  0  0  0  0  0  0  0  0
   46.7459    9.3226   13.2478 C   0  0  0  0  0  0  0  0  0  0  0  0
   47.9925    9.4728   13.8923 N   0  0  0  0  0  0  0  0  0  0  0  0
   51.7876    6.4523   21.1835 C   0  0  0  0  0  0  0  0  0  0  0  0
   52.9128    6.4929   21.4844 N   0  0  0  0  0  0  0  0  0  0  0  0
   48.2872    9.5685   18.9369 N   0  0  0  0  0  0  0  0  0  0  0  0
   47.8952    9.9953   20.2437 C   0  0  0  0  0  0  0  0  0  0  0  0
   48.3245   11.4422   20.5016 C   0  0  0  0  0  0  0  0  0  0  0  0
   47.7732   12.4982   19.5764 C   0  0  0  0  0  0  0  0  0  0  0  0
   47.3307   12.4018   21.0410 C   0  0  0  0  0  0  0  0  0  0  0  0
   46.2642   10.1167   12.1423 C   0  0  0  0  0  0  0  0  0  0  0  0
   45.0261    9.9165   11.5536 C   0  0  0  0  0  0  0  0  0  0  0  0
   44.8611   10.8372   10.5228 C   0  0  0  0  0  0  0  0  0  0  0  0
   45.9726   11.5578   10.5078 N   0  0  0  0  0  0  0  0  0  0  0  0
   46.8101   11.1345   11.4676 N   0  0  0  0  0  0  0  0  0  0  0  0
   43.6612   10.9664    9.6274 C   0  0  0  0  0  0  0  0  0  0  0  0
   44.0414   11.2125    8.3180 F   0  0  0  0  0  0  0  0  0  0  0  0
   42.9175    9.8016    9.7222 F   0  0  0  0  0  0  0  0  0  0  0  0
   42.8832   11.9917   10.1270 F   0  0  0  0  0  0  0  0  0  0  0  0
   48.0740   11.7414   11.6642 C   0  0  0  0  0  0  0  0  0  0  0  0
   49.2260   11.3066   11.0047 C   0  0  0  0  0  0  0  0  0  0  0  0
   48.1268   12.8220   12.5529 C   0  0  0  0  0  0  0  0  0  0  0  0
   49.2985   13.4941   12.8124 C   0  0  0  0  0  0  0  0  0  0  0  0
   50.4429   13.0627   12.1576 C   0  0  0  0  0  0  0  0  0  0  0  0
   50.3929   11.9873   11.2727 C   0  0  0  0  0  0  0  0  0  0  0  0
   51.6278   11.5316   10.5744 C   0  0  0  0  0  0  0  0  0  0  0  0
   51.7340   12.2662    9.3167 N   0  0  0  0  0  0  0  0  0  0  0  0
   48.3619    9.8897   14.9577 Cl  0  0  0  0  0  0  0  0  0  0  0  0
   48.2745    9.6320   16.3011 H   0  0  0  0  0  0  0  0  0  0  0  0
   50.4685    8.0791   19.5264 H   0  0  0  0  0  0  0  0  0  0  0  0
   46.6840    6.1712   19.8483 H   0  0  0  0  0  0  0  0  0  0  0  0
   47.6357    4.5255   21.4084 H   0  0  0  0  0  0  0  0  0  0  0  0
   50.0339    4.6299   22.0571 H   0  0  0  0  0  0  0  0  0  0  0  0
   49.1234    5.9865   17.6883 H   0  0  0  0  0  0  0  0  0  0  0  0
   46.7903    8.1705   18.7953 H   0  0  0  0  0  0  0  0  0  0  0  0
   47.4417    9.8037   16.5076 H   0  0  0  0  0  0  0  0  0  0  0  0
   49.6891    5.5466   15.3295 H   0  0  0  0  0  0  0  0  0  0  0  0
   48.6548   10.2037   13.5805 H   0  0  0  0  0  0  0  0  0  0  0  0
   49.2850    9.7584   18.6992 H   0  0  0  0  0  0  0  0  0  0  0  0
   46.7712   10.0150   20.2468 H   0  0  0  0  0  0  0  0  0  0  0  0
   48.1855    9.3398   21.0734 H   0  0  0  0  0  0  0  0  0  0  0  0
   49.3705   11.5196   20.8403 H   0  0  0  0  0  0  0  0  0  0  0  0
   48.4663   13.3338   19.3276 H   0  0  0  0  0  0  0  0  0  0  0  0
   47.0598   12.2636   18.7868 H   0  0  0  0  0  0  0  0  0  0  0  0
   47.7240   13.1369   21.7661 H   0  0  0  0  0  0  0  0  0  0  0  0
   46.2812   12.0748   21.1894 H   0  0  0  0  0  0  0  0  0  0  0  0
   44.2552    9.1968   11.7849 H   0  0  0  0  0  0  0  0  0  0  0  0
   49.1336   10.4823   10.3403 H   0  0  0  0  0  0  0  0  0  0  0  0
   47.2204   13.1432   13.0544 H   0  0  0  0  0  0  0  0  0  0  0  0
   49.3528   14.3223   13.4900 H   0  0  0  0  0  0  0  0  0  0  0  0
   51.3796   13.5888   12.3559 H   0  0  0  0  0  0  0  0  0  0  0  0
   52.5446   11.7601   11.1413 H   0  0  0  0  0  0  0  0  0  0  0  0
   51.5451   10.4628   10.3060 H   0  0  0  0  0  0  0  0  0  0  0  0
   52.1460   13.2179    9.4718 H   0  0  0  0  0  0  0  0  0  0  0  0
   50.7656   12.4336    8.9432 H   0  0  0  0  0  0  0  0  0  0  0  0
   48.2744    9.6319   16.3016 H   0  0  0  0  0  0  0  0  0  0  0  0
  2  3  2  0
  3  4  1  0
  4  5  2  0
  5  6  1  0
  6  7  2  0
  2  7  1  0
  8  9  2  0
  9 10  1  0
 10  4  1  0
 11 12  2  0
 12 13  1  0
 13 14  2  0
  8 14  1  0
  9 11  1  0
 16 17  2  0
 17 18  1  0
 15 13  1  0
 18 12  1  0
  2 19  1  0
 19 20  3  0
 10 21  1  0
 21 22  1  0
 22 23  1  0
 23 24  1  0
 23 25  1  0
 24 25  1  0
 17 26  1  0
 27 28  1  0
 28 29  2  0
 29 30  1  0
 30 26  1  0
 27 26  2  0
 28 31  1  0
 31 32  1  0
 31 33  1  0
 31 34  1  0
 30 35  1  0
 37 38  1  0
 38 39  2  0
 39 40  1  0
 36 40  2  0
 36 35  1  0
 35 37  2  0
 40 41  1  0
 41 42  1  0
  1 44  1  0
  3 45  1  0
  5 46  1  0
  6 47  1  0
  7 48  1  0
  8 49  1  0
 10 50  1  6
 11 51  1  0
 14 52  1  0
 18 53  1  0
 21 54  1  0
 22 55  1  0
 22 56  1  0
 23 57  1  0
 24 58  1  0
 24 59  1  0
 25 60  1  0
 25 61  1  0
 27 62  1  0
 36 63  1  0
 37 64  1  0
 38 65  1  0
 39 66  1  0
 41 67  1  0
 41 68  1  0
 42 69  1  0
 42 70  1  0
 43 71  1  0
M  END
> <Uni-Dock RESULT> 
ENERGY=   -4.732  LOWER_BOUND=    5.164  UPPER_BOUND=    7.945
INTER + INTRA:          -4.732
INTER:                  -4.732
INTRA:                   0.000
UNBOUND:                 0.000

$$$$

     RDKit          3D

 71 73  0  0  0  0  0  0  0  0999 V2000
   47.7639   13.6437   16.9105 Cl  0  0  0  0  0  0  0  0  0  0  0  0
   46.9911   14.2921    9.8596 C   0  0  0  0  0  0  0  0  0  0  0  0
   46.8232   14.3858   11.2342 C   0  0  0  0  0  0  0  0  0  0  0  0
   47.2684   15.5014   11.9346 C   0  0  0  0  0  0  0  0  0  0  0  0
   47.8844   16.5117   11.2055 C   0  0  0  0  0  0  0  0  0  0  0  0
   48.0522   16.4187    9.8333 C   0  0  0  0  0  0  0  0  0  0  0  0
   47.6053   15.3024    9.1419 C   0  0  0  0  0  0  0  0  0  0  0  0
   49.1287   14.2182   13.4534 C   0  0  0  0  0  0  0  0  0  0  0  0
   48.0783   14.7869   14.1441 C   0  0  0  0  0  0  0  0  0  0  0  0
   47.0920   15.6039   13.3913 C   0  0  2  0  0  0  0  0  0  0  0  0
   47.8997   14.6334   15.5006 C   0  0  0  0  0  0  0  0  0  0  0  0
   48.8350   13.8680   16.1690 C   0  0  0  0  0  0  0  0  0  0  0  0
   49.9110   13.2747   15.5138 C   0  0  0  0  0  0  0  0  0  0  0  0
   50.0485   13.4575   14.1490 C   0  0  0  0  0  0  0  0  0  0  0  0
   50.8294   12.5203   16.1831 F   0  0  0  0  0  0  0  0  0  0  0  0
   50.0212   15.5135   17.8433 O   0  0  0  0  0  0  0  0  0  0  0  0
   49.4227   14.5611   18.4155 C   0  0  0  0  0  0  0  0  0  0  0  0
   48.7600   13.6328   17.5841 N   0  0  0  0  0  0  0  0  0  0  0  0
   46.5256   13.1274    9.1319 C   0  0  0  0  0  0  0  0  0  0  0  0
   46.1644   12.1952    8.5329 N   0  0  0  0  0  0  0  0  0  0  0  0
   45.7689   15.2160   13.8304 N   0  0  0  0  0  0  0  0  0  0  0  0
   44.7337   16.0182   13.2574 C   0  0  0  0  0  0  0  0  0  0  0  0
   43.3549   15.5713   13.7504 C   0  0  0  0  0  0  0  0  0  0  0  0
   43.1031   15.6320   15.2364 C   0  0  0  0  0  0  0  0  0  0  0  0
   42.4090   16.5920   14.2633 C   0  0  0  0  0  0  0  0  0  0  0  0
   49.4761   14.5172   19.8577 C   0  0  0  0  0  0  0  0  0  0  0  0
   50.1463   15.4633   20.6162 C   0  0  0  0  0  0  0  0  0  0  0  0
   50.0104   15.1420   21.9636 C   0  0  0  0  0  0  0  0  0  0  0  0
   49.2801   14.0371   21.9942 N   0  0  0  0  0  0  0  0  0  0  0  0
   48.9596   13.6611   20.7461 N   0  0  0  0  0  0  0  0  0  0  0  0
   50.5830   15.9062   23.1239 C   0  0  0  0  0  0  0  0  0  0  0  0
   51.0762   15.0461   24.0917 F   0  0  0  0  0  0  0  0  0  0  0  0
   51.5765   16.7455   22.6470 F   0  0  0  0  0  0  0  0  0  0  0  0
   49.5765   16.7062   23.6269 F   0  0  0  0  0  0  0  0  0  0  0  0
   48.1796   12.5052   20.5012 C   0  0  0  0  0  0  0  0  0  0  0  0
   48.7466   11.2411   20.3232 C   0  0  0  0  0  0  0  0  0  0  0  0
   46.7907   12.6761   20.4540 C   0  0  0  0  0  0  0  0  0  0  0  0
   45.9350   11.6220   20.2334 C   0  0  0  0  0  0  0  0  0  0  0  0
   46.4977   10.3664   20.0565 C   0  0  0  0  0  0  0  0  0  0  0  0
   47.8797   10.1937   20.1031 C   0  0  0  0  0  0  0  0  0  0  0  0
   48.4741    8.8409   19.9118 C   0  0  0  0  0  0  0  0  0  0  0  0
   48.5804    8.2037   21.2216 N   0  0  0  0  0  0  0  0  0  0  0  0
   47.7641   13.6435   16.9109 Cl  0  0  0  0  0  0  0  0  0  0  0  0
   47.2201   14.2469   15.8069 H   0  0  0  0  0  0  0  0  0  0  0  0
   46.3354   13.5693   11.7589 H   0  0  0  0  0  0  0  0  0  0  0  0
   48.2258   17.3761   11.7713 H   0  0  0  0  0  0  0  0  0  0  0  0
   48.5380   17.2397    9.3358 H   0  0  0  0  0  0  0  0  0  0  0  0
   47.7493   15.2538    8.0639 H   0  0  0  0  0  0  0  0  0  0  0  0
   49.2650   14.3430   12.3799 H   0  0  0  0  0  0  0  0  0  0  0  0
   47.1909   16.6872   13.6612 H   0  0  0  0  0  0  0  0  0  0  0  0
   47.0797   15.0751   16.0517 H   0  0  0  0  0  0  0  0  0  0  0  0
   50.8856   12.9927   13.6559 H   0  0  0  0  0  0  0  0  0  0  0  0
   48.2531   12.8321   17.9989 H   0  0  0  0  0  0  0  0  0  0  0  0
   45.6112   14.1873   13.7585 H   0  0  0  0  0  0  0  0  0  0  0  0
   44.8729   17.0556   13.6676 H   0  0  0  0  0  0  0  0  0  0  0  0
   44.7518   16.1229   12.1660 H   0  0  0  0  0  0  0  0  0  0  0  0
   42.9533   14.7225   13.1732 H   0  0  0  0  0  0  0  0  0  0  0  0
   42.4711   14.8156   15.6543 H   0  0  0  0  0  0  0  0  0  0  0  0
   43.8424   16.0226   15.9352 H   0  0  0  0  0  0  0  0  0  0  0  0
   41.3457   16.4227   14.0151 H   0  0  0  0  0  0  0  0  0  0  0  0
   42.7359   17.6492   14.3400 H   0  0  0  0  0  0  0  0  0  0  0  0
   50.7052   16.3334   20.3058 H   0  0  0  0  0  0  0  0  0  0  0  0
   49.8056   11.1639   20.3679 H   0  0  0  0  0  0  0  0  0  0  0  0
   46.3715   13.6663   20.5947 H   0  0  0  0  0  0  0  0  0  0  0  0
   44.8707   11.7390   20.1949 H   0  0  0  0  0  0  0  0  0  0  0  0
   45.8278    9.5215   19.8805 H   0  0  0  0  0  0  0  0  0  0  0  0
   47.8383    8.1806   19.3004 H   0  0  0  0  0  0  0  0  0  0  0  0
   49.5044    8.9257   19.5212 H   0  0  0  0  0  0  0  0  0  0  0  0
   47.6636    7.7847   21.5104 H   0  0  0  0  0  0  0  0  0  0  0  0
   48.7926    8.9433   21.9382 H   0  0  0  0  0  0  0  0  0  0  0  0
   47.2199   14.2471   15.8065 H   0  0  0  0  0  0  0  0  0  0  0  0
  2  3  2  0
  3  4  1  0
  4  5  2  0
  5  6  1  0
  6  7  2  0
  2  7  1  0
  8  9  2  0
  9 10  1  0
 10  4  1  0
 11 12  2  0
 12 13  1  0
 13 14  2  0
  8 14  1  0
  9 11  1  0
 16 17  2  0
 17 18  1  0
 15 13  1  0
 18 12  1  0
  2 19  1  0
 19 20  3  0
 10 21  1  0
 21 22  1  0
 22 23  1  0
 23 24  1  0
 23 25  1  0
 24 25  1  0
 17 26  1  0
 27 28  1  0
 28 29  2  0
 29 30  1  0
 30 26  1  0
 27 26  2  0
 28 31  1  0
 31 32  1  0
 31 33  1  0
 31 34  1  0
 30 35  1  0
 37 38  1  0
 38 39  2  0
 39 40  1  0
 36 40  2  0
 36 35  1  0
 35 37  2  0
 40 41  1  0
 41 42  1  0
  1 44  1  0
  3 45  1  0
  5 46  1  0
  6 47  1  0
  7 48  1  0
  8 49  1  0
 10 50  1  6
 11 51  1  0
 14 52  1  0
 18 53  1  0
 21 54  1  0
 22 55  1  0
 22 56  1  0
 23 57  1  0
 24 58  1  0
 24 59  1  0
 25 60  1  0
 25 61  1  0
 27 62  1  0
 36 63  1  0
 37 64  1  0
 38 65  1  0
 39 66  1  0
 41 67  1  0
 41 68  1  0
 42 69  1  0
 42 70  1  0
 43 71  1  0
M  END
> <Uni-Dock RESULT> 
ENERGY=   -4.621  LOWER_BOUND=    6.670  UPPER_BOUND=   10.238
INTER + INTRA:          -4.621
INTER:                  -4.621
INTRA:                   0.000
UNBOUND:                 0.000

$$$$

     RDKit          3D

 71 73  0  0  0  0  0  0  0  0999 V2000
   49.4901    9.1194   16.9248 Cl  0  0  0  0  0  0  0  0  0  0  0  0
   46.5848   15.2280   14.6940 C   0  0  0  0  0  0  0  0  0  0  0  0
   47.2431   14.2562   15.4347 C   0  0  0  0  0  0  0  0  0  0  0  0
   48.6306   14.1650   15.4219 C   0  0  0  0  0  0  0  0  0  0  0  0
   49.3255   15.0815   14.6417 C   0  0  0  0  0  0  0  0  0  0  0  0
   48.6688   16.0519   13.9022 C   0  0  0  0  0  0  0  0  0  0  0  0
   47.2845   16.1362   13.9203 C   0  0  0  0  0  0  0  0  0  0  0  0
   48.7898   11.6988   14.2790 C   0  0  0  0  0  0  0  0  0  0  0  0
   49.2770   11.7966   15.5661 C   0  0  0  0  0  0  0  0  0  0  0  0
   49.3314   13.1364   16.2056 C   0  0  2  0  0  0  0  0  0  0  0  0
   49.7164   10.7097   16.2883 C   0  0  0  0  0  0  0  0  0  0  0  0
   49.6519    9.4798   15.6634 C   0  0  0  0  0  0  0  0  0  0  0  0
   49.1677    9.3330   14.3660 C   0  0  0  0  0  0  0  0  0  0  0  0
   48.7373   10.4550   13.6800 C   0  0  0  0  0  0  0  0  0  0  0  0
   49.1080    8.1136   13.7577 F   0  0  0  0  0  0  0  0  0  0  0  0
   52.1459    8.6757   15.4380 O   0  0  0  0  0  0  0  0  0  0  0  0
   51.4329    7.9074   16.1408 C   0  0  0  0  0  0  0  0  0  0  0  0
   50.0796    8.2705   16.3100 N   0  0  0  0  0  0  0  0  0  0  0  0
   45.1378   15.3206   14.7095 C   0  0  0  0  0  0  0  0  0  0  0  0
   43.9753   15.4042   14.7046 N   0  0  0  0  0  0  0  0  0  0  0  0
   48.8203   13.0047   17.5530 N   0  0  0  0  0  0  0  0  0  0  0  0
   48.9302   14.2115   18.3114 C   0  0  0  0  0  0  0  0  0  0  0  0
   48.3780   14.0237   19.7270 C   0  0  0  0  0  0  0  0  0  0  0  0
   49.0351   12.9736   20.5877 C   0  0  0  0  0  0  0  0  0  0  0  0
   49.1940   14.4697   20.8823 C   0  0  0  0  0  0  0  0  0  0  0  0
   52.0713    6.7388   16.6990 C   0  0  0  0  0  0  0  0  0  0  0  0
   53.4084    6.4399   16.4936 C   0  0  0  0  0  0  0  0  0  0  0  0
   53.7150    5.2567   17.1595 C   0  0  0  0  0  0  0  0  0  0  0  0
   52.5878    4.8723   17.7395 N   0  0  0  0  0  0  0  0  0  0  0  0
   51.6076    5.7487   17.4697 N   0  0  0  0  0  0  0  0  0  0  0  0
   55.0547    4.5770   17.1970 C   0  0  0  0  0  0  0  0  0  0  0  0
   54.9186    3.2024   17.0898 F   0  0  0  0  0  0  0  0  0  0  0  0
   55.8316    5.0848   16.1686 F   0  0  0  0  0  0  0  0  0  0  0  0
   55.6631    4.9317   18.3844 F   0  0  0  0  0  0  0  0  0  0  0  0
   50.2970    5.5682   17.9737 C   0  0  0  0  0  0  0  0  0  0  0  0
   49.3190    4.8499   17.2818 C   0  0  0  0  0  0  0  0  0  0  0  0
   50.0137    6.1374   19.2212 C   0  0  0  0  0  0  0  0  0  0  0  0
   48.7778    6.0165   19.8125 C   0  0  0  0  0  0  0  0  0  0  0  0
   47.8062    5.3032   19.1256 C   0  0  0  0  0  0  0  0  0  0  0  0
   48.0856    4.7357   17.8838 C   0  0  0  0  0  0  0  0  0  0  0  0
   47.0350    3.9716   17.1542 C   0  0  0  0  0  0  0  0  0  0  0  0
   47.1298    2.5716   17.5593 N   0  0  0  0  0  0  0  0  0  0  0  0
   49.4901    9.1189   16.9248 Cl  0  0  0  0  0  0  0  0  0  0  0  0
   49.3334   10.4786   16.9989 H   0  0  0  0  0  0  0  0  0  0  0  0
   46.6548   13.5627   16.0288 H   0  0  0  0  0  0  0  0  0  0  0  0
   50.4101   14.9939   14.6448 H   0  0  0  0  0  0  0  0  0  0  0  0
   49.2727   16.7270   13.3217 H   0  0  0  0  0  0  0  0  0  0  0  0
   46.7927   16.9078   13.3303 H   0  0  0  0  0  0  0  0  0  0  0  0
   48.4435   12.5621   13.7123 H   0  0  0  0  0  0  0  0  0  0  0  0
   50.3937   13.4745   16.3206 H   0  0  0  0  0  0  0  0  0  0  0  0
   50.1002   10.7756   17.2980 H   0  0  0  0  0  0  0  0  0  0  0  0
   48.3655   10.3259   12.6774 H   0  0  0  0  0  0  0  0  0  0  0  0
   49.4487    7.6777   16.8763 H   0  0  0  0  0  0  0  0  0  0  0  0
   47.8772   12.5596   17.5795 H   0  0  0  0  0  0  0  0  0  0  0  0
   50.0299   14.4025   18.4456 H   0  0  0  0  0  0  0  0  0  0  0  0
   48.5243   15.1156   17.8422 H   0  0  0  0  0  0  0  0  0  0  0  0
   47.2838   14.1477   19.7747 H   0  0  0  0  0  0  0  0  0  0  0  0
   48.3560   12.4096   21.2668 H   0  0  0  0  0  0  0  0  0  0  0  0
   49.8985   12.4018   20.2487 H   0  0  0  0  0  0  0  0  0  0  0  0
   48.6281   14.9105   21.7227 H   0  0  0  0  0  0  0  0  0  0  0  0
   50.2126   14.8727   20.7077 H   0  0  0  0  0  0  0  0  0  0  0  0
   54.1605    6.9718   15.9304 H   0  0  0  0  0  0  0  0  0  0  0  0
   49.5836    4.4376   16.3387 H   0  0  0  0  0  0  0  0  0  0  0  0
   50.7877    6.6911   19.7414 H   0  0  0  0  0  0  0  0  0  0  0  0
   48.5479    6.4470   20.7663 H   0  0  0  0  0  0  0  0  0  0  0  0
   46.8205    5.2005   19.5854 H   0  0  0  0  0  0  0  0  0  0  0  0
   46.0153    4.2977   17.4144 H   0  0  0  0  0  0  0  0  0  0  0  0
   47.2282    3.9957   16.0664 H   0  0  0  0  0  0  0  0  0  0  0  0
   46.6423    2.4120   18.4738 H   0  0  0  0  0  0  0  0  0  0  0  0
   48.1407    2.3402   17.7323 H   0  0  0  0  0  0  0  0  0  0  0  0
   49.3334   10.4791   16.9989 H   0  0  0  0  0  0  0  0  0  0  0  0
  2  3  2  0
  3  4  1  0
  4  5  2  0
  5  6  1  0
  6  7  2  0
  2  7  1  0
  8  9  2  0
  9 10  1  0
 10  4  1  0
 11 12  2  0
 12 13  1  0
 13 14  2  0
  8 14  1  0
  9 11  1  0
 16 17  2  0
 17 18  1  0
 15 13  1  0
 18 12  1  0
  2 19  1  0
 19 20  3  0
 10 21  1  0
 21 22  1  0
 22 23  1  0
 23 24  1  0
 23 25  1  0
 24 25  1  0
 17 26  1  0
 27 28  1  0
 28 29  2  0
 29 30  1  0
 30 26  1  0
 27 26  2  0
 28 31  1  0
 31 32  1  0
 31 33  1  0
 31 34  1  0
 30 35  1  0
 37 38  1  0
 38 39  2  0
 39 40  1  0
 36 40  2  0
 36 35  1  0
 35 37  2  0
 40 41  1  0
 41 42  1  0
  1 44  1  0
  3 45  1  0
  5 46  1  0
  6 47  1  0
  7 48  1  0
  8 49  1  0
 10 50  1  6
 11 51  1  0
 14 52  1  0
 18 53  1  0
 21 54  1  0
 22 55  1  0
 22 56  1  0
 23 57  1  0
 24 58  1  0
 24 59  1  0
 25 60  1  0
 25 61  1  0
 27 62  1  0
 36 63  1  0
 37 64  1  0
 38 65  1  0
 39 66  1  0
 41 67  1  0
 41 68  1  0
 42 69  1  0
 42 70  1  0
 43 71  1  0
M  END
> <Uni-Dock RESULT> 
ENERGY=   -4.395  LOWER_BOUND=    7.082  UPPER_BOUND=   11.977
INTER + INTRA:          -4.395
INTER:                  -4.395
INTRA:                   0.000
UNBOUND:                 0.000

$$$$

     RDKit          3D

 71 73  0  0  0  0  0  0  0  0999 V2000
   48.7528    7.5091   11.8405 Cl  0  0  0  0  0  0  0  0  0  0  0  0
   55.6996    6.8968   13.2897 C   0  0  0  0  0  0  0  0  0  0  0  0
   54.4802    7.0575   12.6466 C   0  0  0  0  0  0  0  0  0  0  0  0
   54.0023    8.3233   12.3256 C   0  0  0  0  0  0  0  0  0  0  0  0
   54.7917    9.4131   12.6735 C   0  0  0  0  0  0  0  0  0  0  0  0
   56.0091    9.2532   13.3154 C   0  0  0  0  0  0  0  0  0  0  0  0
   56.4787    7.9872   13.6322 C   0  0  0  0  0  0  0  0  0  0  0  0
   51.7959    8.2584   13.9197 C   0  0  0  0  0  0  0  0  0  0  0  0
   51.5546    8.3374   12.5635 C   0  0  0  0  0  0  0  0  0  0  0  0
   52.7106    8.4972   11.6441 C   0  0  2  0  0  0  0  0  0  0  0  0
   50.2912    8.2752   12.0197 C   0  0  0  0  0  0  0  0  0  0  0  0
   49.2399    8.1265   12.9030 C   0  0  0  0  0  0  0  0  0  0  0  0
   49.4355    8.0423   14.2791 C   0  0  0  0  0  0  0  0  0  0  0  0
   50.7241    8.1098   14.7787 C   0  0  0  0  0  0  0  0  0  0  0  0
   48.3903    7.8954   15.1432 F   0  0  0  0  0  0  0  0  0  0  0  0
   47.8057   10.3180   12.6617 O   0  0  0  0  0  0  0  0  0  0  0  0
   47.1736    9.2689   12.3575 C   0  0  0  0  0  0  0  0  0  0  0  0
   47.8754    8.0488   12.4610 N   0  0  0  0  0  0  0  0  0  0  0  0
   56.1953    5.5755   13.6231 C   0  0  0  0  0  0  0  0  0  0  0  0
   56.6048    4.5214   13.9051 N   0  0  0  0  0  0  0  0  0  0  0  0
   52.5260    7.5827   10.5379 N   0  0  0  0  0  0  0  0  0  0  0  0
   53.5222    7.7272    9.5229 C   0  0  0  0  0  0  0  0  0  0  0  0
   53.2858    6.7409    8.3759 C   0  0  0  0  0  0  0  0  0  0  0  0
   51.9744    6.8460    7.6381 C   0  0  0  0  0  0  0  0  0  0  0  0
   53.3011    7.2436    6.9807 C   0  0  0  0  0  0  0  0  0  0  0  0
   45.8012    9.4221   11.9357 C   0  0  0  0  0  0  0  0  0  0  0  0
   45.1703   10.6530   11.8557 C   0  0  0  0  0  0  0  0  0  0  0  0
   43.8618   10.4633   11.4206 C   0  0  0  0  0  0  0  0  0  0  0  0
   43.7293    9.1563   11.2502 N   0  0  0  0  0  0  0  0  0  0  0  0
   44.8782    8.5323   11.5546 N   0  0  0  0  0  0  0  0  0  0  0  0
   42.8327   11.5355   11.1982 C   0  0  0  0  0  0  0  0  0  0  0  0
   41.5861   11.1294   11.6460 F   0  0  0  0  0  0  0  0  0  0  0  0
   43.2495   12.6838   11.8513 F   0  0  0  0  0  0  0  0  0  0  0  0
   42.8155   11.8156    9.8464 F   0  0  0  0  0  0  0  0  0  0  0  0
   45.0022    7.1254   11.4560 C   0  0  0  0  0  0  0  0  0  0  0  0
   44.7047    6.2694   12.5189 C   0  0  0  0  0  0  0  0  0  0  0  0
   45.4319    6.6117   10.2263 C   0  0  0  0  0  0  0  0  0  0  0  0
   45.5780    5.2607   10.0132 C   0  0  0  0  0  0  0  0  0  0  0  0
   45.2825    4.4102   11.0686 C   0  0  0  0  0  0  0  0  0  0  0  0
   44.8548    4.9191   12.2934 C   0  0  0  0  0  0  0  0  0  0  0  0
   44.5400    3.9970   13.4207 C   0  0  0  0  0  0  0  0  0  0  0  0
   43.1261    3.6419   13.3340 N   0  0  0  0  0  0  0  0  0  0  0  0
   48.7524    7.5090   11.8407 Cl  0  0  0  0  0  0  0  0  0  0  0  0
   50.0729    7.6512   11.5020 H   0  0  0  0  0  0  0  0  0  0  0  0
   53.9001    6.1741   12.3958 H   0  0  0  0  0  0  0  0  0  0  0  0
   54.4007   10.3948   12.4140 H   0  0  0  0  0  0  0  0  0  0  0  0
   56.5653   10.1428   13.5536 H   0  0  0  0  0  0  0  0  0  0  0  0
   57.4384    7.8887   14.1367 H   0  0  0  0  0  0  0  0  0  0  0  0
   52.7977    8.3082   14.3444 H   0  0  0  0  0  0  0  0  0  0  0  0
   52.7120    9.5211   11.1883 H   0  0  0  0  0  0  0  0  0  0  0  0
   50.0913    8.3362   10.9578 H   0  0  0  0  0  0  0  0  0  0  0  0
   50.8598    8.0433   15.8451 H   0  0  0  0  0  0  0  0  0  0  0  0
   47.4069    7.1573   12.2243 H   0  0  0  0  0  0  0  0  0  0  0  0
   52.3680    6.6014   10.8547 H   0  0  0  0  0  0  0  0  0  0  0  0
   53.3708    8.7462    9.0730 H   0  0  0  0  0  0  0  0  0  0  0  0
   54.5646    7.7014    9.8619 H   0  0  0  0  0  0  0  0  0  0  0  0
   53.7062    5.7431    8.5819 H   0  0  0  0  0  0  0  0  0  0  0  0
   51.5297    5.8821    7.3010 H   0  0  0  0  0  0  0  0  0  0  0  0
   51.2397    7.6177    7.8665 H   0  0  0  0  0  0  0  0  0  0  0  0
   53.7512    6.5637    6.2349 H   0  0  0  0  0  0  0  0  0  0  0  0
   53.4204    8.3304    6.7935 H   0  0  0  0  0  0  0  0  0  0  0  0
   45.5463   11.6417   12.0725 H   0  0  0  0  0  0  0  0  0  0  0  0
   44.3825    6.7085   13.4315 H   0  0  0  0  0  0  0  0  0  0  0  0
   45.6576    7.2942    9.4143 H   0  0  0  0  0  0  0  0  0  0  0  0
   45.9058    4.8546    9.0775 H   0  0  0  0  0  0  0  0  0  0  0  0
   45.3949    3.3349   10.9111 H   0  0  0  0  0  0  0  0  0  0  0  0
   45.0984    3.0489   13.3620 H   0  0  0  0  0  0  0  0  0  0  0  0
   44.6735    4.5137   14.3884 H   0  0  0  0  0  0  0  0  0  0  0  0
   42.9741    2.8752   12.6350 H   0  0  0  0  0  0  0  0  0  0  0  0
   42.5940    4.4707   12.9662 H   0  0  0  0  0  0  0  0  0  0  0  0
   50.0734    7.6512   11.5018 H   0  0  0  0  0  0  0  0  0  0  0  0
  2  3  2  0
  3  4  1  0
  4  5  2  0
  5  6  1  0
  6  7  2  0
  2  7  1  0
  8  9  2  0
  9 10  1  0
 10  4  1  0
 11 12  2  0
 12 13  1  0
 13 14  2  0
  8 14  1  0
  9 11  1  0
 16 17  2  0
 17 18  1  0
 15 13  1  0
 18 12  1  0
  2 19  1  0
 19 20  3  0
 10 21  1  0
 21 22  1  0
 22 23  1  0
 23 24  1  0
 23 25  1  0
 24 25  1  0
 17 26  1  0
 27 28  1  0
 28 29  2  0
 29 30  1  0
 30 26  1  0
 27 26  2  0
 28 31  1  0
 31 32  1  0
 31 33  1  0
 31 34  1  0
 30 35  1  0
 37 38  1  0
 38 39  2  0
 39 40  1  0
 36 40  2  0
 36 35  1  0
 35 37  2  0
 40 41  1  0
 41 42  1  0
  1 44  1  0
  3 45  1  0
  5 46  1  0
  6 47  1  0
  7 48  1  0
  8 49  1  0
 10 50  1  6
 11 51  1  0
 14 52  1  0
 18 53  1  0
 21 54  1  0
 22 55  1  0
 22 56  1  0
 23 57  1  0
 24 58  1  0
 24 59  1  0
 25 60  1  0
 25 61  1  0
 27 62  1  0
 36 63  1  0
 37 64  1  0
 38 65  1  0
 39 66  1  0
 41 67  1  0
 41 68  1  0
 42 69  1  0
 42 70  1  0
 43 71  1  0
M  END
> <Uni-Dock RESULT> 
ENERGY=   -4.363  LOWER_BOUND=    4.663  UPPER_BOUND=    9.050
INTER + INTRA:          -4.363
INTER:                  -4.363
INTRA:                   0.000
UNBOUND:                 0.000

$$$$

     RDKit          3D

 71 73  0  0  0  0  0  0  0  0999 V2000
   47.9921   11.3651   10.7347 Cl  0  0  0  0  0  0  0  0  0  0  0  0
   53.9796    7.5384   10.2467 C   0  0  0  0  0  0  0  0  0  0  0  0
   52.9776    8.4785   10.0504 C   0  0  0  0  0  0  0  0  0  0  0  0
   53.0751    9.7527   10.5987 C   0  0  0  0  0  0  0  0  0  0  0  0
   54.2102   10.0431   11.3464 C   0  0  0  0  0  0  0  0  0  0  0  0
   55.2108    9.1049   11.5426 C   0  0  0  0  0  0  0  0  0  0  0  0
   55.1060    7.8361   10.9923 C   0  0  0  0  0  0  0  0  0  0  0  0
   50.9230    9.5655   12.2563 C   0  0  0  0  0  0  0  0  0  0  0  0
   50.8310   10.5129   11.2575 C   0  0  0  0  0  0  0  0  0  0  0  0
   52.0151   10.7513   10.3927 C   0  0  2  0  0  0  0  0  0  0  0  0
   49.6919   11.2500   11.0231 C   0  0  0  0  0  0  0  0  0  0  0  0
   48.6102   11.0028   11.8456 C   0  0  0  0  0  0  0  0  0  0  0  0
   48.6571   10.0564   12.8659 C   0  0  0  0  0  0  0  0  0  0  0  0
   49.8245    9.3401   13.0631 C   0  0  0  0  0  0  0  0  0  0  0  0
   47.5831    9.8197   13.6729 F   0  0  0  0  0  0  0  0  0  0  0  0
   48.2030   13.2435   13.1613 O   0  0  0  0  0  0  0  0  0  0  0  0
   47.2247   12.8993   12.4422 C   0  0  0  0  0  0  0  0  0  0  0  0
   47.3653   11.7052   11.7030 N   0  0  0  0  0  0  0  0  0  0  0  0
   53.8752    6.2105    9.6736 C   0  0  0  0  0  0  0  0  0  0  0  0
   53.8035    5.1366    9.2266 N   0  0  0  0  0  0  0  0  0  0  0  0
   51.5563   10.8158    9.0218 N   0  0  0  0  0  0  0  0  0  0  0  0
   52.5952   11.1580    8.1015 C   0  0  0  0  0  0  0  0  0  0  0  0
   52.0630   11.2139    6.6670 C   0  0  0  0  0  0  0  0  0  0  0  0
   50.9614   12.2035    6.3805 C   0  0  0  0  0  0  0  0  0  0  0  0
   52.3786   12.3957    5.8285 C   0  0  0  0  0  0  0  0  0  0  0  0
   46.0644   13.7587   12.4481 C   0  0  0  0  0  0  0  0  0  0  0  0
   45.9911   14.9208   13.1989 C   0  0  0  0  0  0  0  0  0  0  0  0
   44.7518   15.5182   12.9880 C   0  0  0  0  0  0  0  0  0  0  0  0
   44.1157   14.7275   12.1365 N   0  0  0  0  0  0  0  0  0  0  0  0
   44.8904   13.6804   11.8120 N   0  0  0  0  0  0  0  0  0  0  0  0
   44.2612   16.7954   13.6096 C   0  0  0  0  0  0  0  0  0  0  0  0
   42.9284   16.6921   13.9735 F   0  0  0  0  0  0  0  0  0  0  0  0
   45.0584   17.0828   14.7054 F   0  0  0  0  0  0  0  0  0  0  0  0
   44.4543   17.8033   12.6860 F   0  0  0  0  0  0  0  0  0  0  0  0
   44.4430   12.6820   10.9135 C   0  0  0  0  0  0  0  0  0  0  0  0
   43.7509   11.5456   11.3383 C   0  0  0  0  0  0  0  0  0  0  0  0
   44.7149   12.8842    9.5549 C   0  0  0  0  0  0  0  0  0  0  0  0
   44.3182   11.9857    8.5919 C   0  0  0  0  0  0  0  0  0  0  0  0
   43.6308   10.8569    9.0134 C   0  0  0  0  0  0  0  0  0  0  0  0
   43.3590   10.6534   10.3650 C   0  0  0  0  0  0  0  0  0  0  0  0
   42.6200    9.4376   10.8074 C   0  0  0  0  0  0  0  0  0  0  0  0
   41.1930    9.7482   10.8024 N   0  0  0  0  0  0  0  0  0  0  0  0
   47.9916   11.3652   10.7349 Cl  0  0  0  0  0  0  0  0  0  0  0  0
   49.2777   11.1872   10.2953 H   0  0  0  0  0  0  0  0  0  0  0  0
   52.1098    8.2029    9.4581 H   0  0  0  0  0  0  0  0  0  0  0  0
   54.2680   11.0449   11.7670 H   0  0  0  0  0  0  0  0  0  0  0  0
   56.0602    9.4011   12.1327 H   0  0  0  0  0  0  0  0  0  0  0  0
   55.9060    7.1173   11.1613 H   0  0  0  0  0  0  0  0  0  0  0  0
   51.8269    8.9852   12.4372 H   0  0  0  0  0  0  0  0  0  0  0  0
   52.4618   11.7569   10.6059 H   0  0  0  0  0  0  0  0  0  0  0  0
   49.6094   11.9952   10.2427 H   0  0  0  0  0  0  0  0  0  0  0  0
   49.8458    8.6116   13.8561 H   0  0  0  0  0  0  0  0  0  0  0  0
   46.5951   11.3748   11.0966 H   0  0  0  0  0  0  0  0  0  0  0  0
   50.9937    9.9802    8.7505 H   0  0  0  0  0  0  0  0  0  0  0  0
   52.9001   12.2121    8.3454 H   0  0  0  0  0  0  0  0  0  0  0  0
   53.5118   10.5593    8.1633 H   0  0  0  0  0  0  0  0  0  0  0  0
   52.0294   10.2214    6.1888 H   0  0  0  0  0  0  0  0  0  0  0  0
   50.1907   11.8718    5.6480 H   0  0  0  0  0  0  0  0  0  0  0  0
   50.5862   12.8906    7.1386 H   0  0  0  0  0  0  0  0  0  0  0  0
   52.5678   12.1845    4.7605 H   0  0  0  0  0  0  0  0  0  0  0  0
   52.9392   13.2446    6.2708 H   0  0  0  0  0  0  0  0  0  0  0  0
   46.7176   15.3665   13.8617 H   0  0  0  0  0  0  0  0  0  0  0  0
   43.5695   11.4383   12.3799 H   0  0  0  0  0  0  0  0  0  0  0  0
   45.2537   13.7735    9.2468 H   0  0  0  0  0  0  0  0  0  0  0  0
   44.5197   12.1283    7.5493 H   0  0  0  0  0  0  0  0  0  0  0  0
   43.3107   10.1360    8.2574 H   0  0  0  0  0  0  0  0  0  0  0  0
   42.7511    8.5874   10.1189 H   0  0  0  0  0  0  0  0  0  0  0  0
   42.8817    9.1877   11.8516 H   0  0  0  0  0  0  0  0  0  0  0  0
   40.7946    9.6660    9.8359 H   0  0  0  0  0  0  0  0  0  0  0  0
   41.0680   10.7556   11.0761 H   0  0  0  0  0  0  0  0  0  0  0  0
   49.2781   11.1871   10.2952 H   0  0  0  0  0  0  0  0  0  0  0  0
  2  3  2  0
  3  4  1  0
  4  5  2  0
  5  6  1  0
  6  7  2  0
  2  7  1  0
  8  9  2  0
  9 10  1  0
 10  4  1  0
 11 12  2  0
 12 13  1  0
 13 14  2  0
  8 14  1  0
  9 11  1  0
 16 17  2  0
 17 18  1  0
 15 13  1  0
 18 12  1  0
  2 19  1  0
 19 20  3  0
 10 21  1  0
 21 22  1  0
 22 23  1  0
 23 24  1  0
 23 25  1  0
 24 25  1  0
 17 26  1  0
 27 28  1  0
 28 29  2  0
 29 30  1  0
 30 26  1  0
 27 26  2  0
 28 31  1  0
 31 32  1  0
 31 33  1  0
 31 34  1  0
 30 35  1  0
 37 38  1  0
 38 39  2  0
 39 40  1  0
 36 40  2  0
 36 35  1  0
 35 37  2  0
 40 41  1  0
 41 42  1  0
  1 44  1  0
  3 45  1  0
  5 46  1  0
  6 47  1  0
  7 48  1  0
  8 49  1  0
 10 50  1  6
 11 51  1  0
 14 52  1  0
 18 53  1  0
 21 54  1  0
 22 55  1  0
 22 56  1  0
 23 57  1  0
 24 58  1  0
 24 59  1  0
 25 60  1  0
 25 61  1  0
 27 62  1  0
 36 63  1  0
 37 64  1  0
 38 65  1  0
 39 66  1  0
 41 67  1  0
 41 68  1  0
 42 69  1  0
 42 70  1  0
 43 71  1  0
M  END
> <Uni-Dock RESULT> 
ENERGY=   -4.355  LOWER_BOUND=    3.750  UPPER_BOUND=    6.778
INTER + INTRA:          -4.355
INTER:                  -4.355
INTRA:                   0.000
UNBOUND:                 0.000

$$$$

     RDKit          3D

 71 73  0  0  0  0  0  0  0  0999 V2000
   50.0478   11.9873   13.7773 Cl  0  0  0  0  0  0  0  0  0  0  0  0
   53.0326    8.2262    8.5164 C   0  0  0  0  0  0  0  0  0  0  0  0
   52.8213    9.0381    9.6221 C   0  0  0  0  0  0  0  0  0  0  0  0
   52.9300    8.5317   10.9125 C   0  0  0  0  0  0  0  0  0  0  0  0
   53.2568    7.1875   11.0476 C   0  0  0  0  0  0  0  0  0  0  0  0
   53.4679    6.3765    9.9442 C   0  0  0  0  0  0  0  0  0  0  0  0
   53.3576    6.8894    8.6602 C   0  0  0  0  0  0  0  0  0  0  0  0
   50.3323    8.9086   11.6361 C   0  0  0  0  0  0  0  0  0  0  0  0
   51.2650    9.6354   12.3469 C   0  0  0  0  0  0  0  0  0  0  0  0
   52.7067    9.3893   12.0864 C   0  0  2  0  0  0  0  0  0  0  0  0
   50.9234   10.5801   13.2886 C   0  0  0  0  0  0  0  0  0  0  0  0
   49.5746   10.7833   13.5056 C   0  0  0  0  0  0  0  0  0  0  0  0
   48.5979   10.0734   12.8119 C   0  0  0  0  0  0  0  0  0  0  0  0
   48.9903    9.1339   11.8748 C   0  0  0  0  0  0  0  0  0  0  0  0
   47.2682   10.2816   13.0336 F   0  0  0  0  0  0  0  0  0  0  0  0
   49.1480   10.0579   15.9975 O   0  0  0  0  0  0  0  0  0  0  0  0
   48.8865   11.2727   15.7770 C   0  0  0  0  0  0  0  0  0  0  0  0
   49.0898   11.7402   14.4610 N   0  0  0  0  0  0  0  0  0  0  0  0
   52.9187    8.7572    7.1719 C   0  0  0  0  0  0  0  0  0  0  0  0
   52.8236    9.1661    6.0847 N   0  0  0  0  0  0  0  0  0  0  0  0
   53.3633   10.6746   11.9820 N   0  0  0  0  0  0  0  0  0  0  0  0
   54.7822   10.5664   11.8454 C   0  0  0  0  0  0  0  0  0  0  0  0
   55.4315   11.9489   11.7388 C   0  0  0  0  0  0  0  0  0  0  0  0
   55.2330   12.8930   12.8983 C   0  0  0  0  0  0  0  0  0  0  0  0
   56.5983   12.2635   12.5985 C   0  0  0  0  0  0  0  0  0  0  0  0
   48.4073   12.0588   16.8893 C   0  0  0  0  0  0  0  0  0  0  0  0
   48.2294   11.5365   18.1602 C   0  0  0  0  0  0  0  0  0  0  0  0
   47.7603   12.5418   19.0009 C   0  0  0  0  0  0  0  0  0  0  0  0
   47.6657   13.6242   18.2431 N   0  0  0  0  0  0  0  0  0  0  0  0
   48.0487   13.3437   16.9876 N   0  0  0  0  0  0  0  0  0  0  0  0
   47.4360   12.4023   20.4616 C   0  0  0  0  0  0  0  0  0  0  0  0
   46.2833   13.0999   20.7843 F   0  0  0  0  0  0  0  0  0  0  0  0
   47.3037   11.0546   20.7533 F   0  0  0  0  0  0  0  0  0  0  0  0
   48.5235   12.8709   21.1713 F   0  0  0  0  0  0  0  0  0  0  0  0
   48.0411   14.3334   15.9753 C   0  0  0  0  0  0  0  0  0  0  0  0
   46.9255   14.5750   15.1702 C   0  0  0  0  0  0  0  0  0  0  0  0
   49.2119   15.0843   15.8143 C   0  0  0  0  0  0  0  0  0  0  0  0
   49.3142   16.0790   14.8698 C   0  0  0  0  0  0  0  0  0  0  0  0
   48.2065   16.3193   14.0700 C   0  0  0  0  0  0  0  0  0  0  0  0
   47.0401   15.5732   14.2283 C   0  0  0  0  0  0  0  0  0  0  0  0
   45.8559   15.8391   13.3640 C   0  0  0  0  0  0  0  0  0  0  0  0
   45.0295   16.8454   14.0253 N   0  0  0  0  0  0  0  0  0  0  0  0
   50.0474   11.9875   13.7776 Cl  0  0  0  0  0  0  0  0  0  0  0  0
   51.1286   11.3878   13.1858 H   0  0  0  0  0  0  0  0  0  0  0  0
   52.5680   10.0825    9.4639 H   0  0  0  0  0  0  0  0  0  0  0  0
   53.3371    6.8101   12.0650 H   0  0  0  0  0  0  0  0  0  0  0  0
   53.7176    5.3459   10.1260 H   0  0  0  0  0  0  0  0  0  0  0  0
   53.5284    6.2312    7.8100 H   0  0  0  0  0  0  0  0  0  0  0  0
   50.6084    8.1624   10.8922 H   0  0  0  0  0  0  0  0  0  0  0  0
   53.1837    8.8804   12.9637 H   0  0  0  0  0  0  0  0  0  0  0  0
   51.6469   11.1553   13.8514 H   0  0  0  0  0  0  0  0  0  0  0  0
   48.2237    8.5926   11.3462 H   0  0  0  0  0  0  0  0  0  0  0  0
   48.8918   12.7273   14.2230 H   0  0  0  0  0  0  0  0  0  0  0  0
   52.9062   11.2996   11.2830 H   0  0  0  0  0  0  0  0  0  0  0  0
   55.1616   10.1349   12.8116 H   0  0  0  0  0  0  0  0  0  0  0  0
   55.1418    9.8955   11.0562 H   0  0  0  0  0  0  0  0  0  0  0  0
   55.4094   12.3491   10.7121 H   0  0  0  0  0  0  0  0  0  0  0  0
   55.1202   13.9688   12.6330 H   0  0  0  0  0  0  0  0  0  0  0  0
   54.6968   12.6000   13.8006 H   0  0  0  0  0  0  0  0  0  0  0  0
   57.3809   12.8865   12.1291 H   0  0  0  0  0  0  0  0  0  0  0  0
   56.9419   11.5193   13.3459 H   0  0  0  0  0  0  0  0  0  0  0  0
   48.3983   10.5362   18.5300 H   0  0  0  0  0  0  0  0  0  0  0  0
   46.0612   13.9780   15.3316 H   0  0  0  0  0  0  0  0  0  0  0  0
   50.0664   14.8802   16.4501 H   0  0  0  0  0  0  0  0  0  0  0  0
   50.2039   16.6609   14.7363 H   0  0  0  0  0  0  0  0  0  0  0  0
   48.2761   17.1070   13.3162 H   0  0  0  0  0  0  0  0  0  0  0  0
   46.1316   16.2637   12.3854 H   0  0  0  0  0  0  0  0  0  0  0  0
   45.2323   14.9309   13.2768 H   0  0  0  0  0  0  0  0  0  0  0  0
   45.4015   17.8101   13.8508 H   0  0  0  0  0  0  0  0  0  0  0  0
   45.0925   16.7008   15.0648 H   0  0  0  0  0  0  0  0  0  0  0  0
   51.1290   11.3876   13.1856 H   0  0  0  0  0  0  0  0  0  0  0  0
  2  3  2  0
  3  4  1  0
  4  5  2  0
  5  6  1  0
  6  7  2  0
  2  7  1  0
  8  9  2  0
  9 10  1  0
 10  4  1  0
 11 12  2  0
 12 13  1  0
 13 14  2  0
  8 14  1  0
  9 11  1  0
 16 17  2  0
 17 18  1  0
 15 13  1  0
 18 12  1  0
  2 19  1  0
 19 20  3  0
 10 21  1  0
 21 22  1  0
 22 23  1  0
 23 24  1  0
 23 25  1  0
 24 25  1  0
 17 26  1  0
 27 28  1  0
 28 29  2  0
 29 30  1  0
 30 26  1  0
 27 26  2  0
 28 31  1  0
 31 32  1  0
 31 33  1  0
 31 34  1  0
 30 35  1  0
 37 38  1  0
 38 39  2  0
 39 40  1  0
 36 40  2  0
 36 35  1  0
 35 37  2  0
 40 41  1  0
 41 42  1  0
  1 44  1  0
  3 45  1  0
  5 46  1  0
  6 47  1  0
  7 48  1  0
  8 49  1  0
 10 50  1  6
 11 51  1  0
 14 52  1  0
 18 53  1  0
 21 54  1  0
 22 55  1  0
 22 56  1  0
 23 57  1  0
 24 58  1  0
 24 59  1  0
 25 60  1  0
 25 61  1  0
 27 62  1  0
 36 63  1  0
 37 64  1  0
 38 65  1  0
 39 66  1  0
 41 67  1  0
 41 68  1  0
 42 69  1  0
 42 70  1  0
 43 71  1  0
M  END
> <Uni-Dock RESULT> 
ENERGY=   -4.282  LOWER_BOUND=    5.649  UPPER_BOUND=    7.636
INTER + INTRA:          -4.282
INTER:                  -4.282
INTRA:                   0.000
UNBOUND:                 0.000

$$$$
