
     RDKit          3D

 71 73  0  0  0  0  0  0  0  0999 V2000
   48.1506    8.8296   16.0122 Cl  0  0  0  0  0  0  0  0  0  0  0  0
   49.6847    8.7536   22.7893 C   0  0  0  0  0  0  0  0  0  0  0  0
   49.4005    9.0801   21.4714 C   0  0  0  0  0  0  0  0  0  0  0  0
   48.0909    9.1948   21.0192 C   0  0  0  0  0  0  0  0  0  0  0  0
   47.0607    8.9796   21.8990 C   0  0  0  0  0  0  0  0  0  0  0  0
   47.3369    8.6536   23.2154 C   0  0  0  0  0  0  0  0  0  0  0  0
   48.6499    8.5368   23.6758 C   0  0  0  0  0  0  0  0  0  0  0  0
   48.3254    7.0799   19.3989 C   0  0  0  0  0  0  0  0  0  0  0  0
   48.1483    8.3125   18.7573 C   0  0  0  0  0  0  0  0  0  0  0  0
   47.9008    9.5450   19.5870 C   0  0  2  0  0  0  0  0  0  0  0  0
   48.1975    8.3486   17.3828 C   0  0  0  0  0  0  0  0  0  0  0  0
   48.4200    7.1707   16.6657 C   0  0  0  0  0  0  0  0  0  0  0  0
   48.5945    5.9559   17.2955 C   0  0  0  0  0  0  0  0  0  0  0  0
   48.5444    5.9234   18.6783 C   0  0  0  0  0  0  0  0  0  0  0  0
   48.8051    4.8595   16.5424 F   0  0  0  0  0  0  0  0  0  0  0  0
   50.7037    7.6246   15.4282 O   0  0  0  0  0  0  0  0  0  0  0  0
   49.7080    7.5379   14.6450 C   0  0  0  0  0  0  0  0  0  0  0  0
   48.4579    7.2960   15.2290 N   0  0  0  0  0  0  0  0  0  0  0  0
   51.0574    8.6402   23.2394 C   0  0  0  0  0  0  0  0  0  0  0  0
   52.1553    8.5478   23.5805 N   0  0  0  0  0  0  0  0  0  0  0  0
   48.7475   10.5639   19.1314 N   0  0  0  0  0  0  0  0  0  0  0  0
   48.8092   11.8169   19.7602 C   0  0  0  0  0  0  0  0  0  0  0  0
   47.6614   12.7435   19.6913 C   0  0  0  0  0  0  0  0  0  0  0  0
   46.3273   12.4167   20.2477 C   0  0  0  0  0  0  0  0  0  0  0  0
   47.2031   13.3899   20.9671 C   0  0  0  0  0  0  0  0  0  0  0  0
   49.9787    7.6993   13.2329 C   0  0  0  0  0  0  0  0  0  0  0  0
   51.2480    7.9030   12.7265 C   0  0  0  0  0  0  0  0  0  0  0  0
   51.1734    8.0226   11.3395 C   0  0  0  0  0  0  0  0  0  0  0  0
   49.8782    7.8903   11.0450 N   0  0  0  0  0  0  0  0  0  0  0  0
   49.1680    7.6985   12.1680 N   0  0  0  0  0  0  0  0  0  0  0  0
   52.3045    8.2492   10.4019 C   0  0  0  0  0  0  0  0  0  0  0  0
   52.4468    9.5892   10.1076 F   0  0  0  0  0  0  0  0  0  0  0  0
   52.1714    7.4837    9.2560 F   0  0  0  0  0  0  0  0  0  0  0  0
   53.4752    7.8487   11.0146 F   0  0  0  0  0  0  0  0  0  0  0  0
   47.7651    7.5345   12.1347 C   0  0  0  0  0  0  0  0  0  0  0  0
   47.0065    8.7033   12.2700 C   0  0  0  0  0  0  0  0  0  0  0  0
   47.1475    6.2968   11.9652 C   0  0  0  0  0  0  0  0  0  0  0  0
   45.7782    6.2791   11.9377 C   0  0  0  0  0  0  0  0  0  0  0  0
   45.0255    7.4437   12.0725 C   0  0  0  0  0  0  0  0  0  0  0  0
   45.6227    8.6745   12.2408 C   0  0  0  0  0  0  0  0  0  0  0  0
   44.8519    9.9327   12.3888 C   0  0  0  0  0  0  0  0  0  0  0  0
   44.6463   10.4970   11.0608 N   0  0  0  0  0  0  0  0  0  0  0  0
   48.1506    8.8289   16.0076 Cl  0  0  0  0  0  0  0  0  0  0  0  0
   48.1347    9.0424   17.3679 H   0  0  0  0  0  0  0  0  0  0  0  0
   50.2278    9.2411   20.8124 H   0  0  0  0  0  0  0  0  0  0  0  0
   46.0569    9.0766   21.5167 H   0  0  0  0  0  0  0  0  0  0  0  0
   46.5189    8.4856   23.9029 H   0  0  0  0  0  0  0  0  0  0  0  0
   48.8064    8.2800   24.7137 H   0  0  0  0  0  0  0  0  0  0  0  0
   48.2814    7.0860   20.4793 H   0  0  0  0  0  0  0  0  0  0  0  0
   46.8405    9.8065   19.4299 H   0  0  0  0  0  0  0  0  0  0  0  0
   48.0649    9.2666   16.8410 H   0  0  0  0  0  0  0  0  0  0  0  0
   48.6777    4.9844   19.1977 H   0  0  0  0  0  0  0  0  0  0  0  0
   47.6119    7.2134   14.6370 H   0  0  0  0  0  0  0  0  0  0  0  0
   48.6580   10.7042   18.1079 H   0  0  0  0  0  0  0  0  0  0  0  0
   49.1320   11.7702   20.8341 H   0  0  0  0  0  0  0  0  0  0  0  0
   49.6853   12.3683   19.2799 H   0  0  0  0  0  0  0  0  0  0  0  0
   47.6696   13.5153   18.8361 H   0  0  0  0  0  0  0  0  0  0  0  0
   46.1614   11.4892   20.8090 H   0  0  0  0  0  0  0  0  0  0  0  0
   45.4045   12.8486   19.7948 H   0  0  0  0  0  0  0  0  0  0  0  0
   47.7057   13.0913   21.9311 H   0  0  0  0  0  0  0  0  0  0  0  0
   46.8795   14.4413   21.0022 H   0  0  0  0  0  0  0  0  0  0  0  0
   52.1997    7.9737   13.2335 H   0  0  0  0  0  0  0  0  0  0  0  0
   47.4717    9.6665   12.4015 H   0  0  0  0  0  0  0  0  0  0  0  0
   47.7652    5.4165   11.8645 H   0  0  0  0  0  0  0  0  0  0  0  0
   45.2846    5.3178   11.8061 H   0  0  0  0  0  0  0  0  0  0  0  0
   43.9483    7.4241   12.0505 H   0  0  0  0  0  0  0  0  0  0  0  0
   43.8690    9.6940   12.8715 H   0  0  0  0  0  0  0  0  0  0  0  0
   45.4402   10.6595   12.9957 H   0  0  0  0  0  0  0  0  0  0  0  0
   44.3399    9.7163   10.4499 H   0  0  0  0  0  0  0  0  0  0  0  0
   45.5713   10.8200   10.7188 H   0  0  0  0  0  0  0  0  0  0  0  0
   48.1347    9.0431   17.3724 H   0  0  0  0  0  0  0  0  0  0  0  0
  2  3  2  0
  3  4  1  0
  4  5  2  0
  5  6  1  0
  6  7  2  0
  2  7  1  0
  8  9  2  0
  9 10  1  0
 10  4  1  0
 11 12  2  0
 12 13  1  0
 13 14  2  0
  8 14  1  0
  9 11  1  0
 16 17  2  0
 17 18  1  0
 15 13  1  0
 18 12  1  0
  2 19  1  0
 19 20  3  0
 10 21  1  0
 21 22  1  0
 22 23  1  0
 23 24  1  0
 23 25  1  0
 24 25  1  0
 17 26  1  0
 27 28  1  0
 28 29  2  0
 29 30  1  0
 30 26  1  0
 27 26  2  0
 28 31  1  0
 31 32  1  0
 31 33  1  0
 31 34  1  0
 30 35  1  0
 37 38  1  0
 38 39  2  0
 39 40  1  0
 36 40  2  0
 36 35  1  0
 35 37  2  0
 40 41  1  0
 41 42  1  0
  1 44  1  0
  3 45  1  0
  5 46  1  0
  6 47  1  0
  7 48  1  0
  8 49  1  0
 10 50  1  1
 11 51  1  0
 14 52  1  0
 18 53  1  0
 21 54  1  0
 22 55  1  0
 22 56  1  0
 23 57  1  0
 24 58  1  0
 24 59  1  0
 25 60  1  0
 25 61  1  0
 27 62  1  0
 36 63  1  0
 37 64  1  0
 38 65  1  0
 39 66  1  0
 41 67  1  0
 41 68  1  0
 42 69  1  0
 42 70  1  0
 43 71  1  0
M  END
> <Uni-Dock RESULT> 
ENERGY=   -5.561  LOWER_BOUND=    0.000  UPPER_BOUND=    0.000
INTER + INTRA:          -5.561
INTER:                  -5.561
INTRA:                   0.000
UNBOUND:                 0.000

$$$$

     RDKit          3D

 71 73  0  0  0  0  0  0  0  0999 V2000
   50.7469    7.8803   15.3585 Cl  0  0  0  0  0  0  0  0  0  0  0  0
   52.4858   10.4028    9.1213 C   0  0  0  0  0  0  0  0  0  0  0  0
   52.4105   10.0289   10.4550 C   0  0  0  0  0  0  0  0  0  0  0  0
   52.8363    8.7763   10.8820 C   0  0  0  0  0  0  0  0  0  0  0  0
   53.3410    7.8942    9.9607 C   0  0  0  0  0  0  0  0  0  0  0  0
   53.4190    8.2603    8.6284 C   0  0  0  0  0  0  0  0  0  0  0  0
   52.9931    9.5168    8.1931 C   0  0  0  0  0  0  0  0  0  0  0  0
   50.3626    8.0222   11.5646 C   0  0  0  0  0  0  0  0  0  0  0  0
   51.2640    8.1613   12.6278 C   0  0  0  0  0  0  0  0  0  0  0  0
   52.7065    8.4789   12.3327 C   0  0  2  0  0  0  0  0  0  0  0  0
   50.7956    7.9911   13.9102 C   0  0  0  0  0  0  0  0  0  0  0  0
   49.4487    7.6872   14.1218 C   0  0  0  0  0  0  0  0  0  0  0  0
   48.5595    7.5497   13.0763 C   0  0  0  0  0  0  0  0  0  0  0  0
   49.0342    7.7216   11.7876 C   0  0  0  0  0  0  0  0  0  0  0  0
   47.2746    7.2558   13.3524 F   0  0  0  0  0  0  0  0  0  0  0  0
   48.5596    9.7533   15.4980 O   0  0  0  0  0  0  0  0  0  0  0  0
   48.5798    8.6702   16.1604 C   0  0  0  0  0  0  0  0  0  0  0  0
   49.0395    7.5258   15.4959 N   0  0  0  0  0  0  0  0  0  0  0  0
   52.0371   11.7141    8.6985 C   0  0  0  0  0  0  0  0  0  0  0  0
   51.6701   12.7592    8.3770 N   0  0  0  0  0  0  0  0  0  0  0  0
   53.1098    9.5283   13.1687 N   0  0  0  0  0  0  0  0  0  0  0  0
   54.3849   10.1063   13.0749 C   0  0  0  0  0  0  0  0  0  0  0  0
   55.5833    9.3374   13.4666 C   0  0  0  0  0  0  0  0  0  0  0  0
   55.9914    8.0824   12.7924 C   0  0  0  0  0  0  0  0  0  0  0  0
   56.7559    9.3383   12.5282 C   0  0  0  0  0  0  0  0  0  0  0  0
   48.1239    8.7410   17.5318 C   0  0  0  0  0  0  0  0  0  0  0  0
   47.6514    9.9033   18.1105 C   0  0  0  0  0  0  0  0  0  0  0  0
   47.2964    9.6439   19.4336 C   0  0  0  0  0  0  0  0  0  0  0  0
   47.5594    8.3486   19.6200 N   0  0  0  0  0  0  0  0  0  0  0  0
   48.0508    7.8116   18.4920 N   0  0  0  0  0  0  0  0  0  0  0  0
   46.7438   10.6140   20.4152 C   0  0  0  0  0  0  0  0  0  0  0  0
   47.7408   11.1429   21.2081 F   0  0  0  0  0  0  0  0  0  0  0  0
   45.7334   10.0459   21.1722 F   0  0  0  0  0  0  0  0  0  0  0  0
   46.1799   11.6692   19.7261 F   0  0  0  0  0  0  0  0  0  0  0  0
   48.4180    6.4491   18.4226 C   0  0  0  0  0  0  0  0  0  0  0  0
   49.7520    6.1558   18.7297 C   0  0  0  0  0  0  0  0  0  0  0  0
   47.5228    5.4360   18.0843 C   0  0  0  0  0  0  0  0  0  0  0  0
   48.0055    4.1543   18.0670 C   0  0  0  0  0  0  0  0  0  0  0  0
   49.3335    3.8651   18.3731 C   0  0  0  0  0  0  0  0  0  0  0  0
   50.2298    4.8567   18.7093 C   0  0  0  0  0  0  0  0  0  0  0  0
   51.6497    4.5840   19.0390 C   0  0  0  0  0  0  0  0  0  0  0  0
   51.7464    4.3606   20.4759 N   0  0  0  0  0  0  0  0  0  0  0  0
   50.7446    7.8793   15.3624 Cl  0  0  0  0  0  0  0  0  0  0  0  0
   51.4104    8.1611   14.1905 H   0  0  0  0  0  0  0  0  0  0  0  0
   52.0118   10.7413   11.1465 H   0  0  0  0  0  0  0  0  0  0  0  0
   53.6625    6.9311   10.3244 H   0  0  0  0  0  0  0  0  0  0  0  0
   53.8183    7.5590    7.9082 H   0  0  0  0  0  0  0  0  0  0  0  0
   53.0776    9.7487    7.1411 H   0  0  0  0  0  0  0  0  0  0  0  0
   50.7625    8.1625   10.5696 H   0  0  0  0  0  0  0  0  0  0  0  0
   53.2695    7.5554   12.5509 H   0  0  0  0  0  0  0  0  0  0  0  0
   51.4447    8.0835   14.7611 H   0  0  0  0  0  0  0  0  0  0  0  0
   48.3589    7.6192   10.9494 H   0  0  0  0  0  0  0  0  0  0  0  0
   49.0747    6.6149   15.9875 H   0  0  0  0  0  0  0  0  0  0  0  0
   52.9053    9.3221   14.1642 H   0  0  0  0  0  0  0  0  0  0  0  0
   54.6011   10.5685   12.0752 H   0  0  0  0  0  0  0  0  0  0  0  0
   54.3664   11.0235   13.7538 H   0  0  0  0  0  0  0  0  0  0  0  0
   55.9449    9.4599   14.5535 H   0  0  0  0  0  0  0  0  0  0  0  0
   55.4515    7.7129   11.9120 H   0  0  0  0  0  0  0  0  0  0  0  0
   56.5464    7.2941   13.3527 H   0  0  0  0  0  0  0  0  0  0  0  0
   56.6503    9.8654   11.5372 H   0  0  0  0  0  0  0  0  0  0  0  0
   57.7926    9.3933   12.8937 H   0  0  0  0  0  0  0  0  0  0  0  0
   47.5370   10.8945   17.6954 H   0  0  0  0  0  0  0  0  0  0  0  0
   50.4542    6.9298   18.9930 H   0  0  0  0  0  0  0  0  0  0  0  0
   46.5013    5.7001   17.8531 H   0  0  0  0  0  0  0  0  0  0  0  0
   47.3153    3.3546   17.8039 H   0  0  0  0  0  0  0  0  0  0  0  0
   49.7081    2.8548   18.3576 H   0  0  0  0  0  0  0  0  0  0  0  0
   51.9777    3.6721   18.4759 H   0  0  0  0  0  0  0  0  0  0  0  0
   52.2695    5.4724   18.7757 H   0  0  0  0  0  0  0  0  0  0  0  0
   50.9745    3.7152   20.7294 H   0  0  0  0  0  0  0  0  0  0  0  0
   51.5617    5.2701   20.9404 H   0  0  0  0  0  0  0  0  0  0  0  0
   51.4127    8.1620   14.1866 H   0  0  0  0  0  0  0  0  0  0  0  0
  2  3  2  0
  3  4  1  0
  4  5  2  0
  5  6  1  0
  6  7  2  0
  2  7  1  0
  8  9  2  0
  9 10  1  0
 10  4  1  0
 11 12  2  0
 12 13  1  0
 13 14  2  0
  8 14  1  0
  9 11  1  0
 16 17  2  0
 17 18  1  0
 15 13  1  0
 18 12  1  0
  2 19  1  0
 19 20  3  0
 10 21  1  0
 21 22  1  0
 22 23  1  0
 23 24  1  0
 23 25  1  0
 24 25  1  0
 17 26  1  0
 27 28  1  0
 28 29  2  0
 29 30  1  0
 30 26  1  0
 27 26  2  0
 28 31  1  0
 31 32  1  0
 31 33  1  0
 31 34  1  0
 30 35  1  0
 37 38  1  0
 38 39  2  0
 39 40  1  0
 36 40  2  0
 36 35  1  0
 35 37  2  0
 40 41  1  0
 41 42  1  0
  1 44  1  0
  3 45  1  0
  5 46  1  0
  6 47  1  0
  7 48  1  0
  8 49  1  0
 10 50  1  1
 11 51  1  0
 14 52  1  0
 18 53  1  0
 21 54  1  0
 22 55  1  0
 22 56  1  0
 23 57  1  0
 24 58  1  0
 24 59  1  0
 25 60  1  0
 25 61  1  0
 27 62  1  0
 36 63  1  0
 37 64  1  0
 38 65  1  0
 39 66  1  0
 41 67  1  0
 41 68  1  0
 42 69  1  0
 42 70  1  0
 43 71  1  0
M  END
> <Uni-Dock RESULT> 
ENERGY=   -5.205  LOWER_BOUND=    3.357  UPPER_BOUND=    9.725
INTER + INTRA:          -5.205
INTER:                  -5.205
INTRA:                   0.000
UNBOUND:                 0.000

$$$$

     RDKit          3D

 71 73  0  0  0  0  0  0  0  0999 V2000
   51.0089    7.1328   15.8168 Cl  0  0  0  0  0  0  0  0  0  0  0  0
   51.1193   11.9190   10.7799 C   0  0  0  0  0  0  0  0  0  0  0  0
   51.3563   11.1118   11.8829 C   0  0  0  0  0  0  0  0  0  0  0  0
   52.0510    9.9130   11.7680 C   0  0  0  0  0  0  0  0  0  0  0  0
   52.5099    9.5241   10.5353 C   0  0  0  0  0  0  0  0  0  0  0  0
   52.2771   10.3244    9.4305 C   0  0  0  0  0  0  0  0  0  0  0  0
   51.5801   11.5295    9.5391 C   0  0  0  0  0  0  0  0  0  0  0  0
   49.9035    8.4544   12.4119 C   0  0  0  0  0  0  0  0  0  0  0  0
   50.9535    8.4207   13.3386 C   0  0  0  0  0  0  0  0  0  0  0  0
   52.2448    9.1246   13.0134 C   0  0  2  0  0  0  0  0  0  0  0  0
   50.7671    7.7318   14.5148 C   0  0  0  0  0  0  0  0  0  0  0  0
   49.5507    7.0891   14.7568 C   0  0  0  0  0  0  0  0  0  0  0  0
   48.5155    7.1211   13.8457 C   0  0  0  0  0  0  0  0  0  0  0  0
   48.7066    7.8151   12.6635 C   0  0  0  0  0  0  0  0  0  0  0  0
   47.3696    6.4795   14.1435 F   0  0  0  0  0  0  0  0  0  0  0  0
   48.6133    8.3265   16.8884 O   0  0  0  0  0  0  0  0  0  0  0  0
   48.9318    7.1157   17.1006 C   0  0  0  0  0  0  0  0  0  0  0  0
   49.4374    6.3905   16.0140 N   0  0  0  0  0  0  0  0  0  0  0  0
   50.3938   13.1651   10.9227 C   0  0  0  0  0  0  0  0  0  0  0  0
   49.8093   14.1510   11.0520 N   0  0  0  0  0  0  0  0  0  0  0  0
   52.6227    9.8930   14.1222 N   0  0  0  0  0  0  0  0  0  0  0  0
   53.7475   10.7316   14.0978 C   0  0  0  0  0  0  0  0  0  0  0  0
   55.1061   10.1561   14.0371 C   0  0  0  0  0  0  0  0  0  0  0  0
   55.5778    9.3214   12.9071 C   0  0  0  0  0  0  0  0  0  0  0  0
   56.0665   10.7274   13.0337 C   0  0  0  0  0  0  0  0  0  0  0  0
   48.7353    6.6206   18.4459 C   0  0  0  0  0  0  0  0  0  0  0  0
   48.1982    7.3883   19.4614 C   0  0  0  0  0  0  0  0  0  0  0  0
   48.1437    6.6287   20.6292 C   0  0  0  0  0  0  0  0  0  0  0  0
   48.6425    5.4363   20.2958 N   0  0  0  0  0  0  0  0  0  0  0  0
   48.9941    5.4303   19.0002 N   0  0  0  0  0  0  0  0  0  0  0  0
   47.6354    7.0675   21.9555 C   0  0  0  0  0  0  0  0  0  0  0  0
   48.6646    7.5025   22.7642 F   0  0  0  0  0  0  0  0  0  0  0  0
   46.8898    6.0727   22.5646 F   0  0  0  0  0  0  0  0  0  0  0  0
   46.7898    8.1434   21.7723 F   0  0  0  0  0  0  0  0  0  0  0  0
   49.5568    4.2849   18.3939 C   0  0  0  0  0  0  0  0  0  0  0  0
   50.9542    4.2031   18.4134 C   0  0  0  0  0  0  0  0  0  0  0  0
   48.7896    3.2755   17.8154 C   0  0  0  0  0  0  0  0  0  0  0  0
   49.4608    2.2118   17.2732 C   0  0  0  0  0  0  0  0  0  0  0  0
   50.8516    2.1328   17.2940 C   0  0  0  0  0  0  0  0  0  0  0  0
   51.6231    3.1235   17.8625 C   0  0  0  0  0  0  0  0  0  0  0  0
   53.1046    3.0716   17.9004 C   0  0  0  0  0  0  0  0  0  0  0  0
   53.5034    2.4050   19.1335 N   0  0  0  0  0  0  0  0  0  0  0  0
   51.0076    7.1302   15.8203 Cl  0  0  0  0  0  0  0  0  0  0  0  0
   51.3880    7.9271   14.7637 H   0  0  0  0  0  0  0  0  0  0  0  0
   50.9844   11.4455   12.8289 H   0  0  0  0  0  0  0  0  0  0  0  0
   53.0450    8.5893   10.4804 H   0  0  0  0  0  0  0  0  0  0  0  0
   52.6423   10.0106    8.4619 H   0  0  0  0  0  0  0  0  0  0  0  0
   51.4276   12.1140    8.6430 H   0  0  0  0  0  0  0  0  0  0  0  0
   50.0821    9.0044   11.4981 H   0  0  0  0  0  0  0  0  0  0  0  0
   52.9801    8.3275   12.8103 H   0  0  0  0  0  0  0  0  0  0  0  0
   51.5405    7.6717   15.2580 H   0  0  0  0  0  0  0  0  0  0  0  0
   47.9118    7.8561   11.9315 H   0  0  0  0  0  0  0  0  0  0  0  0
   49.7106    5.3981   16.1299 H   0  0  0  0  0  0  0  0  0  0  0  0
   52.6441    9.3250   14.9895 H   0  0  0  0  0  0  0  0  0  0  0  0
   53.6952   11.5382   13.3191 H   0  0  0  0  0  0  0  0  0  0  0  0
   53.7086   11.3399   15.0627 H   0  0  0  0  0  0  0  0  0  0  0  0
   55.6401    9.9816   15.0428 H   0  0  0  0  0  0  0  0  0  0  0  0
   54.9495    9.1613   12.0224 H   0  0  0  0  0  0  0  0  0  0  0  0
   56.3476    8.5315   13.0703 H   0  0  0  0  0  0  0  0  0  0  0  0
   55.6936   11.5205   12.3245 H   0  0  0  0  0  0  0  0  0  0  0  0
   57.1306   10.8804   13.2696 H   0  0  0  0  0  0  0  0  0  0  0  0
   47.8497    8.4112   19.4547 H   0  0  0  0  0  0  0  0  0  0  0  0
   51.5591    4.9767   18.8576 H   0  0  0  0  0  0  0  0  0  0  0  0
   47.7138    3.3730   17.8186 H   0  0  0  0  0  0  0  0  0  0  0  0
   48.8719    1.4173   16.8183 H   0  0  0  0  0  0  0  0  0  0  0  0
   51.3748    1.2938   16.8656 H   0  0  0  0  0  0  0  0  0  0  0  0
   53.4642    2.4966   17.0081 H   0  0  0  0  0  0  0  0  0  0  0  0
   53.5125    4.1091   17.9102 H   0  0  0  0  0  0  0  0  0  0  0  0
   52.9070    1.5605   19.2216 H   0  0  0  0  0  0  0  0  0  0  0  0
   53.2646    3.0421   19.9171 H   0  0  0  0  0  0  0  0  0  0  0  0
   51.3892    7.9298   14.7602 H   0  0  0  0  0  0  0  0  0  0  0  0
  2  3  2  0
  3  4  1  0
  4  5  2  0
  5  6  1  0
  6  7  2  0
  2  7  1  0
  8  9  2  0
  9 10  1  0
 10  4  1  0
 11 12  2  0
 12 13  1  0
 13 14  2  0
  8 14  1  0
  9 11  1  0
 16 17  2  0
 17 18  1  0
 15 13  1  0
 18 12  1  0
  2 19  1  0
 19 20  3  0
 10 21  1  0
 21 22  1  0
 22 23  1  0
 23 24  1  0
 23 25  1  0
 24 25  1  0
 17 26  1  0
 27 28  1  0
 28 29  2  0
 29 30  1  0
 30 26  1  0
 27 26  2  0
 28 31  1  0
 31 32  1  0
 31 33  1  0
 31 34  1  0
 30 35  1  0
 37 38  1  0
 38 39  2  0
 39 40  1  0
 36 40  2  0
 36 35  1  0
 35 37  2  0
 40 41  1  0
 41 42  1  0
  1 44  1  0
  3 45  1  0
  5 46  1  0
  6 47  1  0
  7 48  1  0
  8 49  1  0
 10 50  1  1
 11 51  1  0
 14 52  1  0
 18 53  1  0
 21 54  1  0
 22 55  1  0
 22 56  1  0
 23 57  1  0
 24 58  1  0
 24 59  1  0
 25 60  1  0
 25 61  1  0
 27 62  1  0
 36 63  1  0
 37 64  1  0
 38 65  1  0
 39 66  1  0
 41 67  1  0
 41 68  1  0
 42 69  1  0
 42 70  1  0
 43 71  1  0
M  END
> <Uni-Dock RESULT> 
ENERGY=   -5.054  LOWER_BOUND=    3.774  UPPER_BOUND=    9.507
INTER + INTRA:          -5.054
INTER:                  -5.054
INTRA:                   0.000
UNBOUND:                 0.000

$$$$

     RDKit          3D

 71 73  0  0  0  0  0  0  0  0999 V2000
   51.8446    8.5577   13.4334 Cl  0  0  0  0  0  0  0  0  0  0  0  0
   47.7663    5.2016   17.9494 C   0  0  0  0  0  0  0  0  0  0  0  0
   48.8122    5.7447   17.2176 C   0  0  0  0  0  0  0  0  0  0  0  0
   49.2876    7.0258   17.4736 C   0  0  0  0  0  0  0  0  0  0  0  0
   48.7067    7.7651   18.4724 C   0  0  0  0  0  0  0  0  0  0  0  0
   47.6629    7.2296   19.2065 C   0  0  0  0  0  0  0  0  0  0  0  0
   47.1807    5.9437   18.9545 C   0  0  0  0  0  0  0  0  0  0  0  0
   48.4668    7.9473   15.1007 C   0  0  0  0  0  0  0  0  0  0  0  0
   49.8550    7.9131   15.2852 C   0  0  0  0  0  0  0  0  0  0  0  0
   50.4092    7.5100   16.6265 C   0  0  2  0  0  0  0  0  0  0  0  0
   50.6650    8.2616   14.2291 C   0  0  0  0  0  0  0  0  0  0  0  0
   50.0933    8.6372   13.0112 C   0  0  0  0  0  0  0  0  0  0  0  0
   48.7266    8.6717   12.8274 C   0  0  0  0  0  0  0  0  0  0  0  0
   47.9148    8.3204   13.8920 C   0  0  0  0  0  0  0  0  0  0  0  0
   48.2431    9.0433   11.6268 F   0  0  0  0  0  0  0  0  0  0  0  0
   50.9549    6.7959   11.3320 O   0  0  0  0  0  0  0  0  0  0  0  0
   51.4256    7.9531   11.1049 C   0  0  0  0  0  0  0  0  0  0  0  0
   51.0127    8.9866   11.9557 N   0  0  0  0  0  0  0  0  0  0  0  0
   47.2873    3.8638   17.6662 C   0  0  0  0  0  0  0  0  0  0  0  0
   46.9135    2.7998   17.4244 N   0  0  0  0  0  0  0  0  0  0  0  0
   51.4204    6.5621   16.4221 N   0  0  0  0  0  0  0  0  0  0  0  0
   52.0769    5.9323   17.4904 C   0  0  0  0  0  0  0  0  0  0  0  0
   52.9801    6.7022   18.3692 C   0  0  0  0  0  0  0  0  0  0  0  0
   52.5217    7.8460   19.1925 C   0  0  0  0  0  0  0  0  0  0  0  0
   52.8215    6.5405   19.8539 C   0  0  0  0  0  0  0  0  0  0  0  0
   52.3384    8.0736    9.9888 C   0  0  0  0  0  0  0  0  0  0  0  0
   52.6739    7.0118    9.1707 C   0  0  0  0  0  0  0  0  0  0  0  0
   53.5709    7.4500    8.1974 C   0  0  0  0  0  0  0  0  0  0  0  0
   53.7534    8.7484    8.4475 N   0  0  0  0  0  0  0  0  0  0  0  0
   53.0225    9.1197    9.5106 N   0  0  0  0  0  0  0  0  0  0  0  0
   54.1846    6.6329    7.1178 C   0  0  0  0  0  0  0  0  0  0  0  0
   55.4318    6.1746    7.4877 F   0  0  0  0  0  0  0  0  0  0  0  0
   54.2276    7.3280    5.9212 F   0  0  0  0  0  0  0  0  0  0  0  0
   53.3976    5.5190    6.9032 F   0  0  0  0  0  0  0  0  0  0  0  0
   53.0402   10.4486    9.9902 C   0  0  0  0  0  0  0  0  0  0  0  0
   53.9874   10.7315   10.9815 C   0  0  0  0  0  0  0  0  0  0  0  0
   52.1862   11.4411    9.5133 C   0  0  0  0  0  0  0  0  0  0  0  0
   52.3166   12.6924   10.0548 C   0  0  0  0  0  0  0  0  0  0  0  0
   53.2601   12.9714   11.0412 C   0  0  0  0  0  0  0  0  0  0  0  0
   54.1111   11.9998   11.5224 C   0  0  0  0  0  0  0  0  0  0  0  0
   55.1251   12.2622   12.5721 C   0  0  0  0  0  0  0  0  0  0  0  0
   56.3632   12.6632   11.9161 N   0  0  0  0  0  0  0  0  0  0  0  0
   51.8466    8.5592   13.4296 Cl  0  0  0  0  0  0  0  0  0  0  0  0
   51.2451    8.1072   14.5829 H   0  0  0  0  0  0  0  0  0  0  0  0
   49.2419    5.1407   16.4462 H   0  0  0  0  0  0  0  0  0  0  0  0
   49.0989    8.7547   18.6456 H   0  0  0  0  0  0  0  0  0  0  0  0
   47.2103    7.8191   19.9925 H   0  0  0  0  0  0  0  0  0  0  0  0
   46.3636    5.5769   19.5591 H   0  0  0  0  0  0  0  0  0  0  0  0
   47.8587    7.6674   15.9499 H   0  0  0  0  0  0  0  0  0  0  0  0
   50.8122    8.4334   17.0763 H   0  0  0  0  0  0  0  0  0  0  0  0
   51.7355    8.2556   14.3178 H   0  0  0  0  0  0  0  0  0  0  0  0
   46.8400    8.3388   13.7756 H   0  0  0  0  0  0  0  0  0  0  0  0
   51.3633    9.9509   11.8147 H   0  0  0  0  0  0  0  0  0  0  0  0
   52.1279    6.9004   15.7437 H   0  0  0  0  0  0  0  0  0  0  0  0
   51.3949    5.3392   18.1558 H   0  0  0  0  0  0  0  0  0  0  0  0
   52.7182    5.1103   17.0262 H   0  0  0  0  0  0  0  0  0  0  0  0
   54.0971    6.7065   18.0877 H   0  0  0  0  0  0  0  0  0  0  0  0
   51.4604    8.1191   19.2386 H   0  0  0  0  0  0  0  0  0  0  0  0
   53.2195    8.6792   19.4414 H   0  0  0  0  0  0  0  0  0  0  0  0
   51.9799    5.8955   20.2370 H   0  0  0  0  0  0  0  0  0  0  0  0
   53.6892    6.4961   20.5295 H   0  0  0  0  0  0  0  0  0  0  0  0
   52.3522    5.9805    9.1967 H   0  0  0  0  0  0  0  0  0  0  0  0
   54.6537    9.9731   11.3588 H   0  0  0  0  0  0  0  0  0  0  0  0
   51.4676   11.1858    8.7482 H   0  0  0  0  0  0  0  0  0  0  0  0
   51.6546   13.4759    9.6902 H   0  0  0  0  0  0  0  0  0  0  0  0
   53.3583   13.9576   11.4641 H   0  0  0  0  0  0  0  0  0  0  0  0
   54.7475   13.0828   13.2355 H   0  0  0  0  0  0  0  0  0  0  0  0
   55.3155   11.3262   13.1470 H   0  0  0  0  0  0  0  0  0  0  0  0
   56.1046   13.3624   11.1944 H   0  0  0  0  0  0  0  0  0  0  0  0
   56.7347   11.8274   11.4259 H   0  0  0  0  0  0  0  0  0  0  0  0
   51.2431    8.1057   14.5867 H   0  0  0  0  0  0  0  0  0  0  0  0
  2  3  2  0
  3  4  1  0
  4  5  2  0
  5  6  1  0
  6  7  2  0
  2  7  1  0
  8  9  2  0
  9 10  1  0
 10  4  1  0
 11 12  2  0
 12 13  1  0
 13 14  2  0
  8 14  1  0
  9 11  1  0
 16 17  2  0
 17 18  1  0
 15 13  1  0
 18 12  1  0
  2 19  1  0
 19 20  3  0
 10 21  1  0
 21 22  1  0
 22 23  1  0
 23 24  1  0
 23 25  1  0
 24 25  1  0
 17 26  1  0
 27 28  1  0
 28 29  2  0
 29 30  1  0
 30 26  1  0
 27 26  2  0
 28 31  1  0
 31 32  1  0
 31 33  1  0
 31 34  1  0
 30 35  1  0
 37 38  1  0
 38 39  2  0
 39 40  1  0
 36 40  2  0
 36 35  1  0
 35 37  2  0
 40 41  1  0
 41 42  1  0
  1 44  1  0
  3 45  1  0
  5 46  1  0
  6 47  1  0
  7 48  1  0
  8 49  1  0
 10 50  1  1
 11 51  1  0
 14 52  1  0
 18 53  1  0
 21 54  1  0
 22 55  1  0
 22 56  1  0
 23 57  1  0
 24 58  1  0
 24 59  1  0
 25 60  1  0
 25 61  1  0
 27 62  1  0
 36 63  1  0
 37 64  1  0
 38 65  1  0
 39 66  1  0
 41 67  1  0
 41 68  1  0
 42 69  1  0
 42 70  1  0
 43 71  1  0
M  END
> <Uni-Dock RESULT> 
ENERGY=   -4.851  LOWER_BOUND=    3.735  UPPER_BOUND=    6.364
INTER + INTRA:          -4.851
INTER:                  -4.851
INTRA:                   0.000
UNBOUND:                 0.000

$$$$

     RDKit          3D

 71 73  0  0  0  0  0  0  0  0999 V2000
   47.1768   12.0106   10.0681 Cl  0  0  0  0  0  0  0  0  0  0  0  0
   52.8310   14.8040   12.9861 C   0  0  0  0  0  0  0  0  0  0  0  0
   51.9121   14.1024   12.2197 C   0  0  0  0  0  0  0  0  0  0  0  0
   51.2978   14.6807   11.1147 C   0  0  0  0  0  0  0  0  0  0  0  0
   51.6102   15.9734   10.7791 C   0  0  0  0  0  0  0  0  0  0  0  0
   52.5261   16.6795   11.5392 C   0  0  0  0  0  0  0  0  0  0  0  0
   53.1466   16.1045   12.6501 C   0  0  0  0  0  0  0  0  0  0  0  0
   48.8827   14.6249   12.2628 C   0  0  0  0  0  0  0  0  0  0  0  0
   49.0360   13.7965   11.1436 C   0  0  0  0  0  0  0  0  0  0  0  0
   50.3260   13.8399   10.3672 C   0  0  2  0  0  0  0  0  0  0  0  0
   47.9904   12.9762   10.7876 C   0  0  0  0  0  0  0  0  0  0  0  0
   46.8135   12.9868   11.5401 C   0  0  0  0  0  0  0  0  0  0  0  0
   46.6605   13.8017   12.6424 C   0  0  0  0  0  0  0  0  0  0  0  0
   47.7145   14.6256   12.9976 C   0  0  0  0  0  0  0  0  0  0  0  0
   45.4988   13.7612   13.3224 F   0  0  0  0  0  0  0  0  0  0  0  0
   46.6670   10.5311   12.4895 O   0  0  0  0  0  0  0  0  0  0  0  0
   45.7564   10.8078   11.6489 C   0  0  0  0  0  0  0  0  0  0  0  0
   45.7670   12.0966   11.0999 N   0  0  0  0  0  0  0  0  0  0  0  0
   53.4601   14.1812   14.1333 C   0  0  0  0  0  0  0  0  0  0  0  0
   53.9475   13.6733   15.0469 N   0  0  0  0  0  0  0  0  0  0  0  0
   50.7577   12.5249   10.1502 N   0  0  0  0  0  0  0  0  0  0  0  0
   51.9784   12.2367    9.5209 C   0  0  0  0  0  0  0  0  0  0  0  0
   52.1662   12.5322    8.0863 C   0  0  0  0  0  0  0  0  0  0  0  0
   52.0861   13.9029    7.5287 C   0  0  0  0  0  0  0  0  0  0  0  0
   53.4208   13.2482    7.6752 C   0  0  0  0  0  0  0  0  0  0  0  0
   44.8074    9.7567   11.3525 C   0  0  0  0  0  0  0  0  0  0  0  0
   44.8407    8.5167   11.9611 C   0  0  0  0  0  0  0  0  0  0  0  0
   43.8020    7.7332   11.4600 C   0  0  0  0  0  0  0  0  0  0  0  0
   43.1745    8.5081   10.5726 N   0  0  0  0  0  0  0  0  0  0  0  0
   43.7704    9.7094   10.5078 N   0  0  0  0  0  0  0  0  0  0  0  0
   43.4757    6.3342   11.8427 C   0  0  0  0  0  0  0  0  0  0  0  0
   44.0417    5.4330   10.9653 F   0  0  0  0  0  0  0  0  0  0  0  0
   42.1086    6.1483   11.9583 F   0  0  0  0  0  0  0  0  0  0  0  0
   44.0191    6.0764   13.0855 F   0  0  0  0  0  0  0  0  0  0  0  0
   43.3031   10.7186    9.6364 C   0  0  0  0  0  0  0  0  0  0  0  0
   43.8853   10.7494    8.3637 C   0  0  0  0  0  0  0  0  0  0  0  0
   42.3136   11.6330    9.9923 C   0  0  0  0  0  0  0  0  0  0  0  0
   41.9424   12.5528    9.0478 C   0  0  0  0  0  0  0  0  0  0  0  0
   42.5233   12.5814    7.7819 C   0  0  0  0  0  0  0  0  0  0  0  0
   43.5029   11.6834    7.4161 C   0  0  0  0  0  0  0  0  0  0  0  0
   44.1429   11.6869    6.0784 C   0  0  0  0  0  0  0  0  0  0  0  0
   43.3708   10.8127    5.2044 N   0  0  0  0  0  0  0  0  0  0  0  0
   47.1728   12.0083   10.0674 Cl  0  0  0  0  0  0  0  0  0  0  0  0
   48.3574   12.6789   10.2754 H   0  0  0  0  0  0  0  0  0  0  0  0
   51.6918   13.0964   12.5098 H   0  0  0  0  0  0  0  0  0  0  0  0
   51.1164   16.3924    9.9166 H   0  0  0  0  0  0  0  0  0  0  0  0
   52.7671   17.6985   11.2678 H   0  0  0  0  0  0  0  0  0  0  0  0
   53.8538   16.7026   13.2068 H   0  0  0  0  0  0  0  0  0  0  0  0
   49.7230   15.2568   12.5158 H   0  0  0  0  0  0  0  0  0  0  0  0
   50.0884   14.3446    9.4153 H   0  0  0  0  0  0  0  0  0  0  0  0
   48.0541   12.3239    9.9365 H   0  0  0  0  0  0  0  0  0  0  0  0
   47.6214   15.2748   13.8572 H   0  0  0  0  0  0  0  0  0  0  0  0
   45.0458   12.3771   10.4114 H   0  0  0  0  0  0  0  0  0  0  0  0
   50.0122   11.9452    9.7218 H   0  0  0  0  0  0  0  0  0  0  0  0
   52.8744   12.6420   10.0618 H   0  0  0  0  0  0  0  0  0  0  0  0
   52.1322   11.1112    9.6310 H   0  0  0  0  0  0  0  0  0  0  0  0
   51.9360   11.6790    7.3473 H   0  0  0  0  0  0  0  0  0  0  0  0
   51.9582   14.7728    8.1844 H   0  0  0  0  0  0  0  0  0  0  0  0
   51.7474   14.0675    6.4792 H   0  0  0  0  0  0  0  0  0  0  0  0
   54.1321   13.5906    8.4802 H   0  0  0  0  0  0  0  0  0  0  0  0
   53.9656   12.9845    6.7560 H   0  0  0  0  0  0  0  0  0  0  0  0
   45.5146    8.1227   12.7083 H   0  0  0  0  0  0  0  0  0  0  0  0
   44.6513   10.0480    8.0758 H   0  0  0  0  0  0  0  0  0  0  0  0
   41.8875   11.5791   10.9834 H   0  0  0  0  0  0  0  0  0  0  0  0
   41.1703   13.2725    9.3147 H   0  0  0  0  0  0  0  0  0  0  0  0
   42.2277   13.3075    7.0425 H   0  0  0  0  0  0  0  0  0  0  0  0
   44.1422   12.7365    5.6855 H   0  0  0  0  0  0  0  0  0  0  0  0
   45.1780   11.2814    6.1608 H   0  0  0  0  0  0  0  0  0  0  0  0
   42.3718   11.0510    5.3524 H   0  0  0  0  0  0  0  0  0  0  0  0
   43.5154    9.8408    5.5381 H   0  0  0  0  0  0  0  0  0  0  0  0
   48.3613   12.6811   10.2761 H   0  0  0  0  0  0  0  0  0  0  0  0
  2  3  2  0
  3  4  1  0
  4  5  2  0
  5  6  1  0
  6  7  2  0
  2  7  1  0
  8  9  2  0
  9 10  1  0
 10  4  1  0
 11 12  2  0
 12 13  1  0
 13 14  2  0
  8 14  1  0
  9 11  1  0
 16 17  2  0
 17 18  1  0
 15 13  1  0
 18 12  1  0
  2 19  1  0
 19 20  3  0
 10 21  1  0
 21 22  1  0
 22 23  1  0
 23 24  1  0
 23 25  1  0
 24 25  1  0
 17 26  1  0
 27 28  1  0
 28 29  2  0
 29 30  1  0
 30 26  1  0
 27 26  2  0
 28 31  1  0
 31 32  1  0
 31 33  1  0
 31 34  1  0
 30 35  1  0
 37 38  1  0
 38 39  2  0
 39 40  1  0
 36 40  2  0
 36 35  1  0
 35 37  2  0
 40 41  1  0
 41 42  1  0
  1 44  1  0
  3 45  1  0
  5 46  1  0
  6 47  1  0
  7 48  1  0
  8 49  1  0
 10 50  1  1
 11 51  1  0
 14 52  1  0
 18 53  1  0
 21 54  1  0
 22 55  1  0
 22 56  1  0
 23 57  1  0
 24 58  1  0
 24 59  1  0
 25 60  1  0
 25 61  1  0
 27 62  1  0
 36 63  1  0
 37 64  1  0
 38 65  1  0
 39 66  1  0
 41 67  1  0
 41 68  1  0
 42 69  1  0
 42 70  1  0
 43 71  1  0
M  END
> <Uni-Dock RESULT> 
ENERGY=   -4.351  LOWER_BOUND=    7.235  UPPER_BOUND=    9.515
INTER + INTRA:          -4.351
INTER:                  -4.351
INTRA:                   0.000
UNBOUND:                 0.000

$$$$

     RDKit          3D

 71 73  0  0  0  0  0  0  0  0999 V2000
   45.7020   11.5457   12.0844 Cl  0  0  0  0  0  0  0  0  0  0  0  0
   52.3609    9.6237   12.5896 C   0  0  0  0  0  0  0  0  0  0  0  0
   50.9981    9.8304   12.7459 C   0  0  0  0  0  0  0  0  0  0  0  0
   50.0649    9.0612   12.0601 C   0  0  0  0  0  0  0  0  0  0  0  0
   50.5060    8.0779   11.2116 C   0  0  0  0  0  0  0  0  0  0  0  0
   51.8642    7.8661   11.0507 C   0  0  0  0  0  0  0  0  0  0  0  0
   52.8065    8.6351   11.7365 C   0  0  0  0  0  0  0  0  0  0  0  0
   49.2049   11.1473   10.6240 C   0  0  0  0  0  0  0  0  0  0  0  0
   48.2743   10.6118   11.5237 C   0  0  0  0  0  0  0  0  0  0  0  0
   48.6306    9.3706   12.2991 C   0  0  2  0  0  0  0  0  0  0  0  0
   47.0572   11.2391   11.6580 C   0  0  0  0  0  0  0  0  0  0  0  0
   46.7791   12.3817   10.9042 C   0  0  0  0  0  0  0  0  0  0  0  0
   47.6940   12.9107   10.0177 C   0  0  0  0  0  0  0  0  0  0  0  0
   48.9174   12.2769    9.8852 C   0  0  0  0  0  0  0  0  0  0  0  0
   47.3600   14.0148    9.3229 F   0  0  0  0  0  0  0  0  0  0  0  0
   46.4433   14.2565   12.7278 O   0  0  0  0  0  0  0  0  0  0  0  0
   45.3823   13.9666   12.0934 C   0  0  0  0  0  0  0  0  0  0  0  0
   45.4810   12.9783   11.1055 N   0  0  0  0  0  0  0  0  0  0  0  0
   53.3161   10.4366   13.3151 C   0  0  0  0  0  0  0  0  0  0  0  0
   54.0637   11.0962   13.8951 N   0  0  0  0  0  0  0  0  0  0  0  0
   48.3091    9.5814   13.6462 N   0  0  0  0  0  0  0  0  0  0  0  0
   48.5997    8.6322   14.6380 C   0  0  0  0  0  0  0  0  0  0  0  0
   47.8800    7.3432   14.6708 C   0  0  0  0  0  0  0  0  0  0  0  0
   47.9419    6.3573   13.5660 C   0  0  0  0  0  0  0  0  0  0  0  0
   48.6916    6.0896   14.8301 C   0  0  0  0  0  0  0  0  0  0  0  0
   44.1870   14.6928   12.4642 C   0  0  0  0  0  0  0  0  0  0  0  0
   44.1739   15.6814   13.4294 C   0  0  0  0  0  0  0  0  0  0  0  0
   42.8784   16.1813   13.5546 C   0  0  0  0  0  0  0  0  0  0  0  0
   42.1497   15.4919   12.6740 N   0  0  0  0  0  0  0  0  0  0  0  0
   42.9252   14.6081   12.0262 N   0  0  0  0  0  0  0  0  0  0  0  0
   42.4218   17.2538   14.4771 C   0  0  0  0  0  0  0  0  0  0  0  0
   41.8986   16.7231   15.6377 F   0  0  0  0  0  0  0  0  0  0  0  0
   41.5273   18.1079   13.8547 F   0  0  0  0  0  0  0  0  0  0  0  0
   43.5122   18.0173   14.8435 F   0  0  0  0  0  0  0  0  0  0  0  0
   42.3958   13.7456   11.0403 C   0  0  0  0  0  0  0  0  0  0  0  0
   41.9508   12.4971   11.4910 C   0  0  0  0  0  0  0  0  0  0  0  0
   42.2984   14.0964    9.6952 C   0  0  0  0  0  0  0  0  0  0  0  0
   41.7528   13.1715    8.8450 C   0  0  0  0  0  0  0  0  0  0  0  0
   41.3106   11.9297    9.2960 C   0  0  0  0  0  0  0  0  0  0  0  0
   41.4007   11.5692   10.6233 C   0  0  0  0  0  0  0  0  0  0  0  0
   40.9413   10.2559   11.1364 C   0  0  0  0  0  0  0  0  0  0  0  0
   39.5439   10.3864   11.5290 N   0  0  0  0  0  0  0  0  0  0  0  0
   45.6982   11.5482   12.0841 Cl  0  0  0  0  0  0  0  0  0  0  0  0
   46.8567   10.8086   12.1679 H   0  0  0  0  0  0  0  0  0  0  0  0
   50.6891   10.6055   13.4154 H   0  0  0  0  0  0  0  0  0  0  0  0
   49.7566    7.4992   10.6950 H   0  0  0  0  0  0  0  0  0  0  0  0
   52.2038    7.0886   10.3798 H   0  0  0  0  0  0  0  0  0  0  0  0
   53.8539    8.4256   11.5723 H   0  0  0  0  0  0  0  0  0  0  0  0
   50.1516   10.6310   10.5424 H   0  0  0  0  0  0  0  0  0  0  0  0
   48.0221    8.5588   11.8654 H   0  0  0  0  0  0  0  0  0  0  0  0
   46.3066   10.8683   12.3312 H   0  0  0  0  0  0  0  0  0  0  0  0
   49.6531   12.6701    9.1972 H   0  0  0  0  0  0  0  0  0  0  0  0
   44.6472   12.7044   10.5553 H   0  0  0  0  0  0  0  0  0  0  0  0
   47.3277    9.8969   13.7586 H   0  0  0  0  0  0  0  0  0  0  0  0
   49.6936    8.4025   14.7394 H   0  0  0  0  0  0  0  0  0  0  0  0
   48.3772    9.1399   15.6356 H   0  0  0  0  0  0  0  0  0  0  0  0
   46.9379    7.2927   15.3319 H   0  0  0  0  0  0  0  0  0  0  0  0
   48.5976    6.5183   12.7016 H   0  0  0  0  0  0  0  0  0  0  0  0
   47.0818    5.6761   13.3672 H   0  0  0  0  0  0  0  0  0  0  0  0
   49.8155    6.1762   14.8488 H   0  0  0  0  0  0  0  0  0  0  0  0
   48.3516    5.2534   15.4598 H   0  0  0  0  0  0  0  0  0  0  0  0
   44.9752   16.0732   14.0395 H   0  0  0  0  0  0  0  0  0  0  0  0
   42.0203   12.2135   12.5285 H   0  0  0  0  0  0  0  0  0  0  0  0
   42.6524   15.0683    9.3840 H   0  0  0  0  0  0  0  0  0  0  0  0
   41.6718   13.4344    7.7917 H   0  0  0  0  0  0  0  0  0  0  0  0
   40.8823   11.2055    8.6227 H   0  0  0  0  0  0  0  0  0  0  0  0
   41.0515    9.4959   10.3201 H   0  0  0  0  0  0  0  0  0  0  0  0
   41.5382    9.9793   12.0364 H   0  0  0  0  0  0  0  0  0  0  0  0
   39.0642   10.8902   10.7592 H   0  0  0  0  0  0  0  0  0  0  0  0
   39.5173   10.9957   12.3687 H   0  0  0  0  0  0  0  0  0  0  0  0
   46.8605   10.8061   12.1682 H   0  0  0  0  0  0  0  0  0  0  0  0
  2  3  2  0
  3  4  1  0
  4  5  2  0
  5  6  1  0
  6  7  2  0
  2  7  1  0
  8  9  2  0
  9 10  1  0
 10  4  1  0
 11 12  2  0
 12 13  1  0
 13 14  2  0
  8 14  1  0
  9 11  1  0
 16 17  2  0
 17 18  1  0
 15 13  1  0
 18 12  1  0
  2 19  1  0
 19 20  3  0
 10 21  1  0
 21 22  1  0
 22 23  1  0
 23 24  1  0
 23 25  1  0
 24 25  1  0
 17 26  1  0
 27 28  1  0
 28 29  2  0
 29 30  1  0
 30 26  1  0
 27 26  2  0
 28 31  1  0
 31 32  1  0
 31 33  1  0
 31 34  1  0
 30 35  1  0
 37 38  1  0
 38 39  2  0
 39 40  1  0
 36 40  2  0
 36 35  1  0
 35 37  2  0
 40 41  1  0
 41 42  1  0
  1 44  1  0
  3 45  1  0
  5 46  1  0
  6 47  1  0
  7 48  1  0
  8 49  1  0
 10 50  1  1
 11 51  1  0
 14 52  1  0
 18 53  1  0
 21 54  1  0
 22 55  1  0
 22 56  1  0
 23 57  1  0
 24 58  1  0
 24 59  1  0
 25 60  1  0
 25 61  1  0
 27 62  1  0
 36 63  1  0
 37 64  1  0
 38 65  1  0
 39 66  1  0
 41 67  1  0
 41 68  1  0
 42 69  1  0
 42 70  1  0
 43 71  1  0
M  END
> <Uni-Dock RESULT> 
ENERGY=   -4.269  LOWER_BOUND=    5.747  UPPER_BOUND=    9.574
INTER + INTRA:          -4.269
INTER:                  -4.269
INTRA:                   0.000
UNBOUND:                 0.000

$$$$

     RDKit          3D

 71 73  0  0  0  0  0  0  0  0999 V2000
   49.2435    9.4194   14.1497 Cl  0  0  0  0  0  0  0  0  0  0  0  0
   49.4485    3.3801   17.5811 C   0  0  0  0  0  0  0  0  0  0  0  0
   49.5812    4.6875   17.1370 C   0  0  0  0  0  0  0  0  0  0  0  0
   48.6069    5.6442   17.3979 C   0  0  0  0  0  0  0  0  0  0  0  0
   47.4917    5.2827   18.1101 C   0  0  0  0  0  0  0  0  0  0  0  0
   47.3526    3.9801   18.5563 C   0  0  0  0  0  0  0  0  0  0  0  0
   48.3275    3.0145   18.2977 C   0  0  0  0  0  0  0  0  0  0  0  0
   47.9643    5.8858   14.8128 C   0  0  0  0  0  0  0  0  0  0  0  0
   48.5502    7.0171   15.3954 C   0  0  0  0  0  0  0  0  0  0  0  0
   48.8489    7.0133   16.8716 C   0  0  2  0  0  0  0  0  0  0  0  0
   48.8229    8.1005   14.5924 C   0  0  0  0  0  0  0  0  0  0  0  0
   48.5138    8.0499   13.2310 C   0  0  0  0  0  0  0  0  0  0  0  0
   47.9369    6.9370   12.6554 C   0  0  0  0  0  0  0  0  0  0  0  0
   47.6640    5.8489   13.4663 C   0  0  0  0  0  0  0  0  0  0  0  0
   47.6654    6.9562   11.3366 F   0  0  0  0  0  0  0  0  0  0  0  0
   50.8638    8.2767   12.0567 O   0  0  0  0  0  0  0  0  0  0  0  0
   50.1012    9.2743   11.8680 C   0  0  0  0  0  0  0  0  0  0  0  0
   48.8326    9.2271   12.4603 N   0  0  0  0  0  0  0  0  0  0  0  0
   50.4771    2.3993   17.2986 C   0  0  0  0  0  0  0  0  0  0  0  0
   51.3017    1.6290   17.0602 N   0  0  0  0  0  0  0  0  0  0  0  0
   50.1584    7.4741   17.0605 N   0  0  0  0  0  0  0  0  0  0  0  0
   50.7592    7.5092   18.3281 C   0  0  0  0  0  0  0  0  0  0  0  0
   50.2807    8.4568   19.3547 C   0  0  0  0  0  0  0  0  0  0  0  0
   48.9019    8.4286   19.8971 C   0  0  0  0  0  0  0  0  0  0  0  0
   50.0304    7.9268   20.7374 C   0  0  0  0  0  0  0  0  0  0  0  0
   50.6310   10.3508   11.0592 C   0  0  0  0  0  0  0  0  0  0  0  0
   51.8840   10.3115   10.4782 C   0  0  0  0  0  0  0  0  0  0  0  0
   52.0974   11.4939    9.7709 C   0  0  0  0  0  0  0  0  0  0  0  0
   50.9834   12.2095    9.9393 N   0  0  0  0  0  0  0  0  0  0  0  0
   50.1122   11.5322   10.7039 N   0  0  0  0  0  0  0  0  0  0  0  0
   53.3125   11.8639    8.9985 C   0  0  0  0  0  0  0  0  0  0  0  0
   54.1690   12.6347    9.7567 F   0  0  0  0  0  0  0  0  0  0  0  0
   52.9828   12.4853    7.8060 F   0  0  0  0  0  0  0  0  0  0  0  0
   53.9976   10.7109    8.6707 F   0  0  0  0  0  0  0  0  0  0  0  0
   48.8506   12.0721   11.0401 C   0  0  0  0  0  0  0  0  0  0  0  0
   48.7933   12.8033   12.2326 C   0  0  0  0  0  0  0  0  0  0  0  0
   47.7181   11.9128   10.2439 C   0  0  0  0  0  0  0  0  0  0  0  0
   46.5594   12.4992   10.6792 C   0  0  0  0  0  0  0  0  0  0  0  0
   46.5049   13.2264   11.8663 C   0  0  0  0  0  0  0  0  0  0  0  0
   47.6169   13.3921   12.6637 C   0  0  0  0  0  0  0  0  0  0  0  0
   47.5934   14.1583   13.9332 C   0  0  0  0  0  0  0  0  0  0  0  0
   47.9166   15.5468   13.6306 N   0  0  0  0  0  0  0  0  0  0  0  0
   49.2438    9.4226   14.1465 Cl  0  0  0  0  0  0  0  0  0  0  0  0
   49.1301    8.4478   15.1124 H   0  0  0  0  0  0  0  0  0  0  0  0
   50.4634    4.9350   16.5846 H   0  0  0  0  0  0  0  0  0  0  0  0
   46.7550    6.0483   18.2955 H   0  0  0  0  0  0  0  0  0  0  0  0
   46.4703    3.7031   19.1174 H   0  0  0  0  0  0  0  0  0  0  0  0
   48.1663    2.0131   18.6704 H   0  0  0  0  0  0  0  0  0  0  0  0
   47.7633    5.0518   15.4711 H   0  0  0  0  0  0  0  0  0  0  0  0
   48.1146    7.6976   17.3298 H   0  0  0  0  0  0  0  0  0  0  0  0
   49.2685    8.9940   14.9886 H   0  0  0  0  0  0  0  0  0  0  0  0
   47.2117    4.9636   13.0412 H   0  0  0  0  0  0  0  0  0  0  0  0
   48.1688   10.0125   12.3369 H   0  0  0  0  0  0  0  0  0  0  0  0
   50.3136    8.3841   16.5883 H   0  0  0  0  0  0  0  0  0  0  0  0
   50.8410    6.5034   18.8194 H   0  0  0  0  0  0  0  0  0  0  0  0
   51.8563    7.7688   18.1503 H   0  0  0  0  0  0  0  0  0  0  0  0
   50.8179    9.4743   19.4109 H   0  0  0  0  0  0  0  0  0  0  0  0
   48.1968    7.6402   19.6067 H   0  0  0  0  0  0  0  0  0  0  0  0
   48.4170    9.3655   20.2583 H   0  0  0  0  0  0  0  0  0  0  0  0
   50.1508    6.8206   20.9185 H   0  0  0  0  0  0  0  0  0  0  0  0
   50.2946    8.5031   21.6372 H   0  0  0  0  0  0  0  0  0  0  0  0
   52.6440    9.5438   10.5068 H   0  0  0  0  0  0  0  0  0  0  0  0
   49.6617   12.9341   12.8573 H   0  0  0  0  0  0  0  0  0  0  0  0
   47.8002   11.3417    9.3307 H   0  0  0  0  0  0  0  0  0  0  0  0
   45.6680   12.3813   10.0655 H   0  0  0  0  0  0  0  0  0  0  0  0
   45.5905   13.6856   12.2044 H   0  0  0  0  0  0  0  0  0  0  0  0
   46.5674   14.0808   14.3774 H   0  0  0  0  0  0  0  0  0  0  0  0
   48.3701   13.7559   14.6243 H   0  0  0  0  0  0  0  0  0  0  0  0
   47.3503   15.8105   12.8021 H   0  0  0  0  0  0  0  0  0  0  0  0
   48.9156   15.5747   13.3508 H   0  0  0  0  0  0  0  0  0  0  0  0
   49.1298    8.4446   15.1156 H   0  0  0  0  0  0  0  0  0  0  0  0
  2  3  2  0
  3  4  1  0
  4  5  2  0
  5  6  1  0
  6  7  2  0
  2  7  1  0
  8  9  2  0
  9 10  1  0
 10  4  1  0
 11 12  2  0
 12 13  1  0
 13 14  2  0
  8 14  1  0
  9 11  1  0
 16 17  2  0
 17 18  1  0
 15 13  1  0
 18 12  1  0
  2 19  1  0
 19 20  3  0
 10 21  1  0
 21 22  1  0
 22 23  1  0
 23 24  1  0
 23 25  1  0
 24 25  1  0
 17 26  1  0
 27 28  1  0
 28 29  2  0
 29 30  1  0
 30 26  1  0
 27 26  2  0
 28 31  1  0
 31 32  1  0
 31 33  1  0
 31 34  1  0
 30 35  1  0
 37 38  1  0
 38 39  2  0
 39 40  1  0
 36 40  2  0
 36 35  1  0
 35 37  2  0
 40 41  1  0
 41 42  1  0
  1 44  1  0
  3 45  1  0
  5 46  1  0
  6 47  1  0
  7 48  1  0
  8 49  1  0
 10 50  1  1
 11 51  1  0
 14 52  1  0
 18 53  1  0
 21 54  1  0
 22 55  1  0
 22 56  1  0
 23 57  1  0
 24 58  1  0
 24 59  1  0
 25 60  1  0
 25 61  1  0
 27 62  1  0
 36 63  1  0
 37 64  1  0
 38 65  1  0
 39 66  1  0
 41 67  1  0
 41 68  1  0
 42 69  1  0
 42 70  1  0
 43 71  1  0
M  END
> <Uni-Dock RESULT> 
ENERGY=   -4.245  LOWER_BOUND=    3.220  UPPER_BOUND=    5.152
INTER + INTRA:          -4.245
INTER:                  -4.245
INTRA:                   0.000
UNBOUND:                 0.000

$$$$

     RDKit          3D

 71 73  0  0  0  0  0  0  0  0999 V2000
   49.2435    9.4194   14.1496 Cl  0  0  0  0  0  0  0  0  0  0  0  0
   49.4486    3.3802   17.5811 C   0  0  0  0  0  0  0  0  0  0  0  0
   49.5813    4.6877   17.1371 C   0  0  0  0  0  0  0  0  0  0  0  0
   48.6069    5.6444   17.3979 C   0  0  0  0  0  0  0  0  0  0  0  0
   47.4917    5.2829   18.1101 C   0  0  0  0  0  0  0  0  0  0  0  0
   47.3526    3.9802   18.5563 C   0  0  0  0  0  0  0  0  0  0  0  0
   48.3276    3.0147   18.2977 C   0  0  0  0  0  0  0  0  0  0  0  0
   47.9644    5.8859   14.8129 C   0  0  0  0  0  0  0  0  0  0  0  0
   48.5502    7.0172   15.3954 C   0  0  0  0  0  0  0  0  0  0  0  0
   48.8489    7.0134   16.8716 C   0  0  2  0  0  0  0  0  0  0  0  0
   48.8229    8.1006   14.5923 C   0  0  0  0  0  0  0  0  0  0  0  0
   48.5138    8.0499   13.2310 C   0  0  0  0  0  0  0  0  0  0  0  0
   47.9369    6.9370   12.6554 C   0  0  0  0  0  0  0  0  0  0  0  0
   47.6640    5.8490   13.4664 C   0  0  0  0  0  0  0  0  0  0  0  0
   47.6654    6.9562   11.3366 F   0  0  0  0  0  0  0  0  0  0  0  0
   50.8638    8.2768   12.0567 O   0  0  0  0  0  0  0  0  0  0  0  0
   50.1012    9.2744   11.8679 C   0  0  0  0  0  0  0  0  0  0  0  0
   48.8327    9.2272   12.4603 N   0  0  0  0  0  0  0  0  0  0  0  0
   50.4771    2.3995   17.2987 C   0  0  0  0  0  0  0  0  0  0  0  0
   51.3018    1.6292   17.0603 N   0  0  0  0  0  0  0  0  0  0  0  0
   50.1584    7.4742   17.0605 N   0  0  0  0  0  0  0  0  0  0  0  0
   50.7593    7.5094   18.3281 C   0  0  0  0  0  0  0  0  0  0  0  0
   50.2807    8.4570   19.3547 C   0  0  0  0  0  0  0  0  0  0  0  0
   48.9019    8.4288   19.8971 C   0  0  0  0  0  0  0  0  0  0  0  0
   50.0304    7.9270   20.7374 C   0  0  0  0  0  0  0  0  0  0  0  0
   50.6310   10.3508   11.0592 C   0  0  0  0  0  0  0  0  0  0  0  0
   51.8840   10.3115   10.4782 C   0  0  0  0  0  0  0  0  0  0  0  0
   52.0974   11.4939    9.7708 C   0  0  0  0  0  0  0  0  0  0  0  0
   50.9834   12.2096    9.9392 N   0  0  0  0  0  0  0  0  0  0  0  0
   50.1123   11.5322   10.7038 N   0  0  0  0  0  0  0  0  0  0  0  0
   53.3125   11.8640    8.9984 C   0  0  0  0  0  0  0  0  0  0  0  0
   54.1690   12.6347    9.7566 F   0  0  0  0  0  0  0  0  0  0  0  0
   52.9828   12.4853    7.8060 F   0  0  0  0  0  0  0  0  0  0  0  0
   53.9976   10.7110    8.6706 F   0  0  0  0  0  0  0  0  0  0  0  0
   48.8506   12.0721   11.0400 C   0  0  0  0  0  0  0  0  0  0  0  0
   48.7933   12.8033   12.2325 C   0  0  0  0  0  0  0  0  0  0  0  0
   47.7181   11.9128   10.2438 C   0  0  0  0  0  0  0  0  0  0  0  0
   46.5594   12.4992   10.6791 C   0  0  0  0  0  0  0  0  0  0  0  0
   46.5049   13.2265   11.8662 C   0  0  0  0  0  0  0  0  0  0  0  0
   47.6169   13.3922   12.6636 C   0  0  0  0  0  0  0  0  0  0  0  0
   47.5934   14.1583   13.9330 C   0  0  0  0  0  0  0  0  0  0  0  0
   47.9166   15.5469   13.6304 N   0  0  0  0  0  0  0  0  0  0  0  0
   49.2439    9.4227   14.1464 Cl  0  0  0  0  0  0  0  0  0  0  0  0
   49.1301    8.4479   15.1124 H   0  0  0  0  0  0  0  0  0  0  0  0
   50.4634    4.9351   16.5846 H   0  0  0  0  0  0  0  0  0  0  0  0
   46.7550    6.0485   18.2955 H   0  0  0  0  0  0  0  0  0  0  0  0
   46.4703    3.7032   19.1174 H   0  0  0  0  0  0  0  0  0  0  0  0
   48.1664    2.0133   18.6705 H   0  0  0  0  0  0  0  0  0  0  0  0
   47.7634    5.0518   15.4711 H   0  0  0  0  0  0  0  0  0  0  0  0
   48.1146    7.6977   17.3298 H   0  0  0  0  0  0  0  0  0  0  0  0
   49.2685    8.9941   14.9885 H   0  0  0  0  0  0  0  0  0  0  0  0
   47.2117    4.9636   13.0412 H   0  0  0  0  0  0  0  0  0  0  0  0
   48.1688   10.0126   12.3368 H   0  0  0  0  0  0  0  0  0  0  0  0
   50.3136    8.3843   16.5883 H   0  0  0  0  0  0  0  0  0  0  0  0
   50.8410    6.5036   18.8195 H   0  0  0  0  0  0  0  0  0  0  0  0
   51.8563    7.7690   18.1503 H   0  0  0  0  0  0  0  0  0  0  0  0
   50.8179    9.4745   19.4109 H   0  0  0  0  0  0  0  0  0  0  0  0
   48.1968    7.6404   19.6067 H   0  0  0  0  0  0  0  0  0  0  0  0
   48.4170    9.3656   20.2583 H   0  0  0  0  0  0  0  0  0  0  0  0
   50.1508    6.8208   20.9185 H   0  0  0  0  0  0  0  0  0  0  0  0
   50.2946    8.5033   21.6372 H   0  0  0  0  0  0  0  0  0  0  0  0
   52.6440    9.5438   10.5068 H   0  0  0  0  0  0  0  0  0  0  0  0
   49.6617   12.9341   12.8572 H   0  0  0  0  0  0  0  0  0  0  0  0
   47.8002   11.3417    9.3307 H   0  0  0  0  0  0  0  0  0  0  0  0
   45.6680   12.3813   10.0654 H   0  0  0  0  0  0  0  0  0  0  0  0
   45.5905   13.6856   12.2043 H   0  0  0  0  0  0  0  0  0  0  0  0
   46.5674   14.0809   14.3773 H   0  0  0  0  0  0  0  0  0  0  0  0
   48.3701   13.7560   14.6242 H   0  0  0  0  0  0  0  0  0  0  0  0
   47.3503   15.8105   12.8020 H   0  0  0  0  0  0  0  0  0  0  0  0
   48.9156   15.5748   13.3507 H   0  0  0  0  0  0  0  0  0  0  0  0
   49.1298    8.4447   15.1156 H   0  0  0  0  0  0  0  0  0  0  0  0
  2  3  2  0
  3  4  1  0
  4  5  2  0
  5  6  1  0
  6  7  2  0
  2  7  1  0
  8  9  2  0
  9 10  1  0
 10  4  1  0
 11 12  2  0
 12 13  1  0
 13 14  2  0
  8 14  1  0
  9 11  1  0
 16 17  2  0
 17 18  1  0
 15 13  1  0
 18 12  1  0
  2 19  1  0
 19 20  3  0
 10 21  1  0
 21 22  1  0
 22 23  1  0
 23 24  1  0
 23 25  1  0
 24 25  1  0
 17 26  1  0
 27 28  1  0
 28 29  2  0
 29 30  1  0
 30 26  1  0
 27 26  2  0
 28 31  1  0
 31 32  1  0
 31 33  1  0
 31 34  1  0
 30 35  1  0
 37 38  1  0
 38 39  2  0
 39 40  1  0
 36 40  2  0
 36 35  1  0
 35 37  2  0
 40 41  1  0
 41 42  1  0
  1 44  1  0
  3 45  1  0
  5 46  1  0
  6 47  1  0
  7 48  1  0
  8 49  1  0
 10 50  1  1
 11 51  1  0
 14 52  1  0
 18 53  1  0
 21 54  1  0
 22 55  1  0
 22 56  1  0
 23 57  1  0
 24 58  1  0
 24 59  1  0
 25 60  1  0
 25 61  1  0
 27 62  1  0
 36 63  1  0
 37 64  1  0
 38 65  1  0
 39 66  1  0
 41 67  1  0
 41 68  1  0
 42 69  1  0
 42 70  1  0
 43 71  1  0
M  END
> <Uni-Dock RESULT> 
ENERGY=   -4.244  LOWER_BOUND=    3.220  UPPER_BOUND=    5.152
INTER + INTRA:          -4.244
INTER:                  -4.244
INTRA:                   0.000
UNBOUND:                 0.000

$$$$

     RDKit          3D

 71 73  0  0  0  0  0  0  0  0999 V2000
   50.3606   10.4529   19.1336 Cl  0  0  0  0  0  0  0  0  0  0  0  0
   47.9379    4.3837   16.7705 C   0  0  0  0  0  0  0  0  0  0  0  0
   48.6836    5.5081   17.0929 C   0  0  0  0  0  0  0  0  0  0  0  0
   49.3683    5.6025   18.2992 C   0  0  0  0  0  0  0  0  0  0  0  0
   49.3020    4.5587   19.1867 C   0  0  0  0  0  0  0  0  0  0  0  0
   48.5599    3.4338   18.8716 C   0  0  0  0  0  0  0  0  0  0  0  0
   47.8699    3.3327   17.6619 C   0  0  0  0  0  0  0  0  0  0  0  0
   47.8227    7.6035   19.1715 C   0  0  0  0  0  0  0  0  0  0  0  0
   49.1624    7.9374   18.9348 C   0  0  0  0  0  0  0  0  0  0  0  0
   50.1327    6.8537   18.5438 C   0  0  2  0  0  0  0  0  0  0  0  0
   49.5456    9.2507   19.0798 C   0  0  0  0  0  0  0  0  0  0  0  0
   48.6028   10.2108   19.4550 C   0  0  0  0  0  0  0  0  0  0  0  0
   47.2831    9.8842   19.6885 C   0  0  0  0  0  0  0  0  0  0  0  0
   46.9012    8.5619   19.5417 C   0  0  0  0  0  0  0  0  0  0  0  0
   46.4273   10.8600   20.0473 F   0  0  0  0  0  0  0  0  0  0  0  0
   48.5381   11.8505   17.3910 O   0  0  0  0  0  0  0  0  0  0  0  0
   49.0204   12.3737   18.4427 C   0  0  0  0  0  0  0  0  0  0  0  0
   49.0867   11.5638   19.5838 N   0  0  0  0  0  0  0  0  0  0  0  0
   47.2328    4.3061   15.5070 C   0  0  0  0  0  0  0  0  0  0  0  0
   46.6723    4.2624   14.4999 N   0  0  0  0  0  0  0  0  0  0  0  0
   50.8709    7.2968   17.4386 N   0  0  0  0  0  0  0  0  0  0  0  0
   51.8047    6.4748   16.7895 C   0  0  0  0  0  0  0  0  0  0  0  0
   53.0581    6.0888   17.4684 C   0  0  0  0  0  0  0  0  0  0  0  0
   53.0852    5.3012   18.7234 C   0  0  0  0  0  0  0  0  0  0  0  0
   53.4573    4.6414   17.4359 C   0  0  0  0  0  0  0  0  0  0  0  0
   49.4481   13.7523   18.3429 C   0  0  0  0  0  0  0  0  0  0  0  0
   49.3199   14.5001   17.1881 C   0  0  0  0  0  0  0  0  0  0  0  0
   49.8250   15.7800   17.4137 C   0  0  0  0  0  0  0  0  0  0  0  0
   50.2407   15.7747   18.6821 N   0  0  0  0  0  0  0  0  0  0  0  0
   50.0176   14.5717   19.2346 N   0  0  0  0  0  0  0  0  0  0  0  0
   49.8814   16.9009   16.4388 C   0  0  0  0  0  0  0  0  0  0  0  0
   51.1121   16.9603   15.8189 F   0  0  0  0  0  0  0  0  0  0  0  0
   49.5484   18.1053   17.0348 F   0  0  0  0  0  0  0  0  0  0  0  0
   48.9463   16.6746   15.4485 F   0  0  0  0  0  0  0  0  0  0  0  0
   50.3729   14.2980   20.5744 C   0  0  0  0  0  0  0  0  0  0  0  0
   51.6519   13.7649   20.7743 C   0  0  0  0  0  0  0  0  0  0  0  0
   49.5255   14.5465   21.6524 C   0  0  0  0  0  0  0  0  0  0  0  0
   49.9986   14.2474   22.9025 C   0  0  0  0  0  0  0  0  0  0  0  0
   51.2718   13.7171   23.0988 C   0  0  0  0  0  0  0  0  0  0  0  0
   52.1206   13.4661   22.0422 C   0  0  0  0  0  0  0  0  0  0  0  0
   53.4807   12.9011   22.2155 C   0  0  0  0  0  0  0  0  0  0  0  0
   54.4148   14.0086   22.3733 N   0  0  0  0  0  0  0  0  0  0  0  0
   50.3612   10.4574   19.1346 Cl  0  0  0  0  0  0  0  0  0  0  0  0
   50.1940    9.1180   18.8619 H   0  0  0  0  0  0  0  0  0  0  0  0
   48.7135    6.3032   16.3778 H   0  0  0  0  0  0  0  0  0  0  0  0
   49.8444    4.6634   20.1129 H   0  0  0  0  0  0  0  0  0  0  0  0
   48.5128    2.6150   19.5769 H   0  0  0  0  0  0  0  0  0  0  0  0
   47.3066    2.4310   17.4689 H   0  0  0  0  0  0  0  0  0  0  0  0
   47.5543    6.5632   19.0485 H   0  0  0  0  0  0  0  0  0  0  0  0
   50.7824    6.6991   19.4221 H   0  0  0  0  0  0  0  0  0  0  0  0
   50.5608    9.5602   18.9137 H   0  0  0  0  0  0  0  0  0  0  0  0
   45.8730    8.2780   19.7188 H   0  0  0  0  0  0  0  0  0  0  0  0
   49.4687   11.9401   20.4700 H   0  0  0  0  0  0  0  0  0  0  0  0
   51.3023    8.2231   17.6155 H   0  0  0  0  0  0  0  0  0  0  0  0
   51.3616    5.5388   16.3568 H   0  0  0  0  0  0  0  0  0  0  0  0
   52.1197    7.0375   15.8479 H   0  0  0  0  0  0  0  0  0  0  0  0
   53.9765    6.7582   17.2798 H   0  0  0  0  0  0  0  0  0  0  0  0
   52.1612    4.9034   19.1605 H   0  0  0  0  0  0  0  0  0  0  0  0
   53.9184    5.4288   19.4533 H   0  0  0  0  0  0  0  0  0  0  0  0
   52.7546    3.9010   16.9574 H   0  0  0  0  0  0  0  0  0  0  0  0
   54.5048    4.3305   17.3039 H   0  0  0  0  0  0  0  0  0  0  0  0
   48.9128   14.2324   16.2236 H   0  0  0  0  0  0  0  0  0  0  0  0
   52.3171   13.5682   19.9494 H   0  0  0  0  0  0  0  0  0  0  0  0
   48.5455   14.9580   21.4597 H   0  0  0  0  0  0  0  0  0  0  0  0
   49.3452   14.4371   23.7523 H   0  0  0  0  0  0  0  0  0  0  0  0
   51.6390   13.4833   24.0845 H   0  0  0  0  0  0  0  0  0  0  0  0
   53.4831   12.2511   23.1285 H   0  0  0  0  0  0  0  0  0  0  0  0
   53.7632   12.3263   21.3031 H   0  0  0  0  0  0  0  0  0  0  0  0
   53.9860   14.6651   23.0528 H   0  0  0  0  0  0  0  0  0  0  0  0
   54.4708   14.4948   21.4582 H   0  0  0  0  0  0  0  0  0  0  0  0
   50.1934    9.1136   18.8610 H   0  0  0  0  0  0  0  0  0  0  0  0
  2  3  2  0
  3  4  1  0
  4  5  2  0
  5  6  1  0
  6  7  2  0
  2  7  1  0
  8  9  2  0
  9 10  1  0
 10  4  1  0
 11 12  2  0
 12 13  1  0
 13 14  2  0
  8 14  1  0
  9 11  1  0
 16 17  2  0
 17 18  1  0
 15 13  1  0
 18 12  1  0
  2 19  1  0
 19 20  3  0
 10 21  1  0
 21 22  1  0
 22 23  1  0
 23 24  1  0
 23 25  1  0
 24 25  1  0
 17 26  1  0
 27 28  1  0
 28 29  2  0
 29 30  1  0
 30 26  1  0
 27 26  2  0
 28 31  1  0
 31 32  1  0
 31 33  1  0
 31 34  1  0
 30 35  1  0
 37 38  1  0
 38 39  2  0
 39 40  1  0
 36 40  2  0
 36 35  1  0
 35 37  2  0
 40 41  1  0
 41 42  1  0
  1 44  1  0
  3 45  1  0
  5 46  1  0
  6 47  1  0
  7 48  1  0
  8 49  1  0
 10 50  1  1
 11 51  1  0
 14 52  1  0
 18 53  1  0
 21 54  1  0
 22 55  1  0
 22 56  1  0
 23 57  1  0
 24 58  1  0
 24 59  1  0
 25 60  1  0
 25 61  1  0
 27 62  1  0
 36 63  1  0
 37 64  1  0
 38 65  1  0
 39 66  1  0
 41 67  1  0
 41 68  1  0
 42 69  1  0
 42 70  1  0
 43 71  1  0
M  END
> <Uni-Dock RESULT> 
ENERGY=   -4.198  LOWER_BOUND=    4.910  UPPER_BOUND=    8.960
INTER + INTRA:          -4.198
INTER:                  -4.198
INTRA:                   0.000
UNBOUND:                 0.000

$$$$
