
     RDKit          3D

 71 73  0  0  0  0  0  0  0  0999 V2000
   46.8965    7.2804   13.7140 Cl  0  0  0  0  0  0  0  0  0  0  0  0
   52.6218    6.0880   17.6471 C   0  0  0  0  0  0  0  0  0  0  0  0
   51.6259    7.0252   17.3529 C   0  0  0  0  0  0  0  0  0  0  0  0
   50.3354    6.5329   17.1730 C   0  0  0  0  0  0  0  0  0  0  0  0
   50.1032    5.1633   17.2915 C   0  0  0  0  0  0  0  0  0  0  0  0
   51.0818    4.2534   17.5794 C   0  0  0  0  0  0  0  0  0  0  0  0
   52.3654    4.7466   17.7581 C   0  0  0  0  0  0  0  0  0  0  0  0
   50.2855    7.5268   14.5869 C   0  0  0  0  0  0  0  0  0  0  0  0
   49.1830    7.7461   15.4194 C   0  0  0  0  0  0  0  0  0  0  0  0
   49.1851    7.4290   16.8570 C   0  0  2  0  0  0  0  0  0  0  0  0
   48.0627    8.2569   14.7691 C   0  0  0  0  0  0  0  0  0  0  0  0
   48.0390    8.5266   13.4198 C   0  0  0  0  0  0  0  0  0  0  0  0
   49.1387    8.3019   12.6234 C   0  0  0  0  0  0  0  0  0  0  0  0
   50.2594    7.7964   13.2389 C   0  0  0  0  0  0  0  0  0  0  0  0
   49.1163    8.5645   11.3108 F   0  0  0  0  0  0  0  0  0  0  0  0
   46.1658    6.8708   12.4956 O   0  0  0  0  0  0  0  0  0  0  0  0
   45.9081    8.1007   12.3499 C   0  0  0  0  0  0  0  0  0  0  0  0
   46.8464    9.0626   12.8112 N   0  0  0  0  0  0  0  0  0  0  0  0
   53.9413    6.6291   17.8298 C   0  0  0  0  0  0  0  0  0  0  0  0
   55.0288    7.0545   17.9750 N   0  0  0  0  0  0  0  0  0  0  0  0
   49.2713    8.6240   17.6471 N   0  0  0  0  0  0  0  0  0  0  0  0
   48.2211    9.5866   17.4538 C   0  0  0  0  0  0  0  0  0  0  0  0
   48.3676   10.7025   18.4772 C   0  0  0  0  0  0  0  0  0  0  0  0
   48.3009   10.3500   19.9215 C   0  0  0  0  0  0  0  0  0  0  0  0
   49.6262   10.7443   19.3062 C   0  0  0  0  0  0  0  0  0  0  0  0
   44.6534    8.5355   11.7121 C   0  0  0  0  0  0  0  0  0  0  0  0
   44.2416    9.8383   11.4618 C   0  0  0  0  0  0  0  0  0  0  0  0
   42.9954    9.7651   10.8483 C   0  0  0  0  0  0  0  0  0  0  0  0
   42.6991    8.4507   10.7492 N   0  0  0  0  0  0  0  0  0  0  0  0
   43.6762    7.7240   11.2585 N   0  0  0  0  0  0  0  0  0  0  0  0
   42.1897   10.9361   10.4051 C   0  0  0  0  0  0  0  0  0  0  0  0
   42.8795   11.6611    9.4430 F   0  0  0  0  0  0  0  0  0  0  0  0
   41.0619   10.4431    9.7764 F   0  0  0  0  0  0  0  0  0  0  0  0
   41.7900   11.7335   11.4555 F   0  0  0  0  0  0  0  0  0  0  0  0
   43.7766    6.3008   11.3634 C   0  0  0  0  0  0  0  0  0  0  0  0
   44.4305    5.5313   10.4251 C   0  0  0  0  0  0  0  0  0  0  0  0
   43.1739    5.7209   12.4849 C   0  0  0  0  0  0  0  0  0  0  0  0
   43.2567    4.3473   12.6202 C   0  0  0  0  0  0  0  0  0  0  0  0
   43.9086    3.6029   11.6808 C   0  0  0  0  0  0  0  0  0  0  0  0
   44.5000    4.1833   10.5776 C   0  0  0  0  0  0  0  0  0  0  0  0
   45.1947    3.2898    9.5996 C   0  0  0  0  0  0  0  0  0  0  0  0
   44.2030    2.9030    8.6136 N   0  0  0  0  0  0  0  0  0  0  0  0
   46.8979    7.2809   13.7158 Cl  0  0  0  0  0  0  0  0  0  0  0  0
   47.7244    7.5716   14.7772 H   0  0  0  0  0  0  0  0  0  0  0  0
   51.8518    8.0609   17.2699 H   0  0  0  0  0  0  0  0  0  0  0  0
   49.0980    4.7796   17.1515 H   0  0  0  0  0  0  0  0  0  0  0  0
   50.9044    3.1954   17.6710 H   0  0  0  0  0  0  0  0  0  0  0  0
   53.1758    4.0449   17.9893 H   0  0  0  0  0  0  0  0  0  0  0  0
   51.2066    7.1300   14.9822 H   0  0  0  0  0  0  0  0  0  0  0  0
   48.2594    6.8399   17.1343 H   0  0  0  0  0  0  0  0  0  0  0  0
   47.1262    8.4503   15.3010 H   0  0  0  0  0  0  0  0  0  0  0  0
   51.1363    7.6176   12.6000 H   0  0  0  0  0  0  0  0  0  0  0  0
   46.6951   10.0923   12.7222 H   0  0  0  0  0  0  0  0  0  0  0  0
   50.1636    9.1465   17.4219 H   0  0  0  0  0  0  0  0  0  0  0  0
   47.2367    9.1262   17.5768 H   0  0  0  0  0  0  0  0  0  0  0  0
   48.3307   10.0460   16.4170 H   0  0  0  0  0  0  0  0  0  0  0  0
   47.8690   11.6543   18.1783 H   0  0  0  0  0  0  0  0  0  0  0  0
   47.8538   11.1053   20.6182 H   0  0  0  0  0  0  0  0  0  0  0  0
   48.1558    9.2809   20.1635 H   0  0  0  0  0  0  0  0  0  0  0  0
   50.4078    9.9860   19.1994 H   0  0  0  0  0  0  0  0  0  0  0  0
   50.0372   11.7505   19.5854 H   0  0  0  0  0  0  0  0  0  0  0  0
   44.7996   10.7444   11.7057 H   0  0  0  0  0  0  0  0  0  0  0  0
   44.8939    6.0002    9.5590 H   0  0  0  0  0  0  0  0  0  0  0  0
   42.6577    6.3511   13.2200 H   0  0  0  0  0  0  0  0  0  0  0  0
   42.7834    3.8974   13.5001 H   0  0  0  0  0  0  0  0  0  0  0  0
   43.9704    2.5261   11.7922 H   0  0  0  0  0  0  0  0  0  0  0  0
   45.6042    2.4200   10.1439 H   0  0  0  0  0  0  0  0  0  0  0  0
   46.0154    3.7938    9.0803 H   0  0  0  0  0  0  0  0  0  0  0  0
   43.2281    2.9704    8.9463 H   0  0  0  0  0  0  0  0  0  0  0  0
   44.3921    3.2464    7.6609 H   0  0  0  0  0  0  0  0  0  0  0  0
   47.7230    7.5712   14.7754 H   0  0  0  0  0  0  0  0  0  0  0  0
  2  3  2  0
  3  4  1  0
  4  5  2  0
  5  6  1  0
  6  7  2  0
  2  7  1  0
  8  9  2  0
  9 10  1  0
 10  4  1  0
 11 12  2  0
 12 13  1  0
 13 14  2  0
  8 14  1  0
  9 11  1  0
 16 17  2  0
 17 18  1  0
 15 13  1  0
 18 12  1  0
  2 19  1  0
 19 20  3  0
 10 21  1  0
 21 22  1  0
 22 23  1  0
 23 24  1  0
 23 25  1  0
 24 25  1  0
 17 26  1  0
 27 28  1  0
 28 29  2  0
 29 30  1  0
 30 26  1  0
 27 26  2  0
 28 31  1  0
 31 32  1  0
 31 33  1  0
 31 34  1  0
 30 35  1  0
 37 38  1  0
 38 39  2  0
 39 40  1  0
 36 40  2  0
 36 35  1  0
 35 37  2  0
 40 41  1  0
 41 42  1  0
  1 44  1  0
  3 45  1  0
  5 46  1  0
  6 47  1  0
  7 48  1  0
  8 49  1  0
 10 50  1  6
 11 51  1  0
 14 52  1  0
 18 53  1  0
 21 54  1  0
 22 55  1  0
 22 56  1  0
 23 57  1  0
 24 58  1  0
 24 59  1  0
 25 60  1  0
 25 61  1  0
 27 62  1  0
 36 63  1  0
 37 64  1  0
 38 65  1  0
 39 66  1  0
 41 67  1  0
 41 68  1  0
 42 69  1  0
 42 70  1  0
 43 71  1  0
M  END
> <Uni-Dock RESULT> 
ENERGY=   -6.723  LOWER_BOUND=    0.000  UPPER_BOUND=    0.000
INTER + INTRA:          -6.723
INTER:                  -6.723
INTRA:                   0.000
UNBOUND:                 0.000

$$$$

     RDKit          3D

 71 73  0  0  0  0  0  0  0  0999 V2000
   50.3152    7.7042   14.7034 Cl  0  0  0  0  0  0  0  0  0  0  0  0
   53.2503    7.3494    8.3058 C   0  0  0  0  0  0  0  0  0  0  0  0
   52.9484    8.2101    9.3664 C   0  0  0  0  0  0  0  0  0  0  0  0
   53.1331    7.7087   10.6526 C   0  0  0  0  0  0  0  0  0  0  0  0
   53.5984    6.4049   10.8181 C   0  0  0  0  0  0  0  0  0  0  0  0
   53.8915    5.5696    9.7765 C   0  0  0  0  0  0  0  0  0  0  0  0
   53.7067    6.0717    8.4973 C   0  0  0  0  0  0  0  0  0  0  0  0
   50.4480    8.0925   11.2192 C   0  0  0  0  0  0  0  0  0  0  0  0
   51.4044    8.5104   12.1505 C   0  0  0  0  0  0  0  0  0  0  0  0
   52.8490    8.5266   11.8676 C   0  0  2  0  0  0  0  0  0  0  0  0
   50.8817    8.8770   13.3880 C   0  0  0  0  0  0  0  0  0  0  0  0
   49.5362    8.8349   13.6740 C   0  0  0  0  0  0  0  0  0  0  0  0
   48.6160    8.4200   12.7384 C   0  0  0  0  0  0  0  0  0  0  0  0
   49.1042    8.0506   11.5073 C   0  0  0  0  0  0  0  0  0  0  0  0
   47.3070    8.3793   13.0160 F   0  0  0  0  0  0  0  0  0  0  0  0
   49.3821    7.0403   15.6388 O   0  0  0  0  0  0  0  0  0  0  0  0
   49.0156    8.2090   15.9553 C   0  0  0  0  0  0  0  0  0  0  0  0
   49.0615    9.2366   14.9752 N   0  0  0  0  0  0  0  0  0  0  0  0
   53.0518    7.8986    6.9920 C   0  0  0  0  0  0  0  0  0  0  0  0
   52.8877    8.3300    5.9095 N   0  0  0  0  0  0  0  0  0  0  0  0
   53.3191    9.8679   11.6687 N   0  0  0  0  0  0  0  0  0  0  0  0
   53.1182   10.7770   12.7643 C   0  0  0  0  0  0  0  0  0  0  0  0
   53.8175   12.0932   12.4598 C   0  0  0  0  0  0  0  0  0  0  0  0
   55.2895   12.0774   12.2422 C   0  0  0  0  0  0  0  0  0  0  0  0
   54.3604   12.3032   11.0690 C   0  0  0  0  0  0  0  0  0  0  0  0
   48.5476    8.5065   17.3200 C   0  0  0  0  0  0  0  0  0  0  0  0
   48.0942    9.7247   17.8095 C   0  0  0  0  0  0  0  0  0  0  0  0
   47.7619    9.5327   19.1465 C   0  0  0  0  0  0  0  0  0  0  0  0
   48.0190    8.2344   19.4177 N   0  0  0  0  0  0  0  0  0  0  0  0
   48.4827    7.6276   18.3411 N   0  0  0  0  0  0  0  0  0  0  0  0
   47.2287   10.5847   20.0554 C   0  0  0  0  0  0  0  0  0  0  0  0
   46.0149   11.0633   19.5812 F   0  0  0  0  0  0  0  0  0  0  0  0
   46.9537    9.9786   21.2667 F   0  0  0  0  0  0  0  0  0  0  0  0
   48.1295   11.6047   20.2726 F   0  0  0  0  0  0  0  0  0  0  0  0
   48.8837    6.2637   18.1811 C   0  0  0  0  0  0  0  0  0  0  0  0
   48.0354    5.2926   17.6940 C   0  0  0  0  0  0  0  0  0  0  0  0
   50.2005    5.9612   18.5439 C   0  0  0  0  0  0  0  0  0  0  0  0
   50.6228    4.6528   18.3968 C   0  0  0  0  0  0  0  0  0  0  0  0
   49.7681    3.7058   17.9126 C   0  0  0  0  0  0  0  0  0  0  0  0
   48.4707    4.0132   17.5575 C   0  0  0  0  0  0  0  0  0  0  0  0
   47.6046    2.9116   17.0342 C   0  0  0  0  0  0  0  0  0  0  0  0
   46.9383    2.3262   18.1826 N   0  0  0  0  0  0  0  0  0  0  0  0
   50.3165    7.7051   14.7017 Cl  0  0  0  0  0  0  0  0  0  0  0  0
   51.1079    8.2163   13.6984 H   0  0  0  0  0  0  0  0  0  0  0  0
   52.5933    9.1968    9.1905 H   0  0  0  0  0  0  0  0  0  0  0  0
   53.7424    6.0140   11.8199 H   0  0  0  0  0  0  0  0  0  0  0  0
   54.2506    4.5624    9.9023 H   0  0  0  0  0  0  0  0  0  0  0  0
   53.9309    5.4289    7.6376 H   0  0  0  0  0  0  0  0  0  0  0  0
   50.7393    7.7821   10.2288 H   0  0  0  0  0  0  0  0  0  0  0  0
   53.4228    8.0290   12.7066 H   0  0  0  0  0  0  0  0  0  0  0  0
   51.5250    9.1993   14.2124 H   0  0  0  0  0  0  0  0  0  0  0  0
   48.3668    7.7193   10.7620 H   0  0  0  0  0  0  0  0  0  0  0  0
   48.7738   10.2216   15.1707 H   0  0  0  0  0  0  0  0  0  0  0  0
   52.8164   10.3130   10.8507 H   0  0  0  0  0  0  0  0  0  0  0  0
   53.5269   10.3707   13.6937 H   0  0  0  0  0  0  0  0  0  0  0  0
   52.0033   10.9884   12.8659 H   0  0  0  0  0  0  0  0  0  0  0  0
   53.4130   12.9599   13.0335 H   0  0  0  0  0  0  0  0  0  0  0  0
   55.8708   12.9772   12.5714 H   0  0  0  0  0  0  0  0  0  0  0  0
   55.7887   11.0930   12.3075 H   0  0  0  0  0  0  0  0  0  0  0  0
   54.2797   11.5291   10.2998 H   0  0  0  0  0  0  0  0  0  0  0  0
   54.3227   13.3404   10.6423 H   0  0  0  0  0  0  0  0  0  0  0  0
   48.0172   10.6543   17.2423 H   0  0  0  0  0  0  0  0  0  0  0  0
   47.0140    5.5467   17.4164 H   0  0  0  0  0  0  0  0  0  0  0  0
   50.8598    6.7487   18.9301 H   0  0  0  0  0  0  0  0  0  0  0  0
   51.6549    4.4204   18.6820 H   0  0  0  0  0  0  0  0  0  0  0  0
   50.1048    2.6814   17.7994 H   0  0  0  0  0  0  0  0  0  0  0  0
   48.2420    2.1816   16.5040 H   0  0  0  0  0  0  0  0  0  0  0  0
   46.8386    3.2732   16.3414 H   0  0  0  0  0  0  0  0  0  0  0  0
   47.4268    2.4812   19.0786 H   0  0  0  0  0  0  0  0  0  0  0  0
   45.9146    2.4425   18.1869 H   0  0  0  0  0  0  0  0  0  0  0  0
   51.1065    8.2155   13.7001 H   0  0  0  0  0  0  0  0  0  0  0  0
  2  3  2  0
  3  4  1  0
  4  5  2  0
  5  6  1  0
  6  7  2  0
  2  7  1  0
  8  9  2  0
  9 10  1  0
 10  4  1  0
 11 12  2  0
 12 13  1  0
 13 14  2  0
  8 14  1  0
  9 11  1  0
 16 17  2  0
 17 18  1  0
 15 13  1  0
 18 12  1  0
  2 19  1  0
 19 20  3  0
 10 21  1  0
 21 22  1  0
 22 23  1  0
 23 24  1  0
 23 25  1  0
 24 25  1  0
 17 26  1  0
 27 28  1  0
 28 29  2  0
 29 30  1  0
 30 26  1  0
 27 26  2  0
 28 31  1  0
 31 32  1  0
 31 33  1  0
 31 34  1  0
 30 35  1  0
 37 38  1  0
 38 39  2  0
 39 40  1  0
 36 40  2  0
 36 35  1  0
 35 37  2  0
 40 41  1  0
 41 42  1  0
  1 44  1  0
  3 45  1  0
  5 46  1  0
  6 47  1  0
  7 48  1  0
  8 49  1  0
 10 50  1  6
 11 51  1  0
 14 52  1  0
 18 53  1  0
 21 54  1  0
 22 55  1  0
 22 56  1  0
 23 57  1  0
 24 58  1  0
 24 59  1  0
 25 60  1  0
 25 61  1  0
 27 62  1  0
 36 63  1  0
 37 64  1  0
 38 65  1  0
 39 66  1  0
 41 67  1  0
 41 68  1  0
 42 69  1  0
 42 70  1  0
 43 71  1  0
M  END
> <Uni-Dock RESULT> 
ENERGY=   -5.596  LOWER_BOUND=    4.612  UPPER_BOUND=    7.974
INTER + INTRA:          -5.596
INTER:                  -5.596
INTRA:                   0.000
UNBOUND:                 0.000

$$$$

     RDKit          3D

 71 73  0  0  0  0  0  0  0  0999 V2000
   48.2496    9.2272   14.6206 Cl  0  0  0  0  0  0  0  0  0  0  0  0
   47.6286   14.0355    9.5055 C   0  0  0  0  0  0  0  0  0  0  0  0
   47.1200   12.8256    9.9893 C   0  0  0  0  0  0  0  0  0  0  0  0
   46.9747   12.7140   11.3700 C   0  0  0  0  0  0  0  0  0  0  0  0
   47.3344   13.7869   12.1844 C   0  0  0  0  0  0  0  0  0  0  0  0
   47.8308   14.9665   11.7042 C   0  0  0  0  0  0  0  0  0  0  0  0
   47.9740   15.0745   10.3292 C   0  0  0  0  0  0  0  0  0  0  0  0
   48.7150   10.5581   11.4081 C   0  0  0  0  0  0  0  0  0  0  0  0
   47.5131   10.4724   12.1186 C   0  0  0  0  0  0  0  0  0  0  0  0
   46.4419   11.4764   12.0108 C   0  0  2  0  0  0  0  0  0  0  0  0
   47.4243    9.3743   12.9702 C   0  0  0  0  0  0  0  0  0  0  0  0
   48.4327    8.4472   13.1031 C   0  0  0  0  0  0  0  0  0  0  0  0
   49.6056    8.5551   12.3912 C   0  0  0  0  0  0  0  0  0  0  0  0
   49.7214    9.6309   11.5430 C   0  0  0  0  0  0  0  0  0  0  0  0
   50.5865    7.6532   12.5199 F   0  0  0  0  0  0  0  0  0  0  0  0
   49.1507    8.6833   15.6592 O   0  0  0  0  0  0  0  0  0  0  0  0
   48.6827    7.5521   15.3399 C   0  0  0  0  0  0  0  0  0  0  0  0
   48.2715    7.3282   13.9985 N   0  0  0  0  0  0  0  0  0  0  0  0
   47.7630   14.1190    8.0765 C   0  0  0  0  0  0  0  0  0  0  0  0
   47.8865   14.2014    6.9091 N   0  0  0  0  0  0  0  0  0  0  0  0
   45.3387   10.9712   11.2444 N   0  0  0  0  0  0  0  0  0  0  0  0
   44.7152    9.7768   11.7459 C   0  0  0  0  0  0  0  0  0  0  0  0
   43.4719    9.4753   10.9226 C   0  0  0  0  0  0  0  0  0  0  0  0
   42.3831   10.4892   10.8899 C   0  0  0  0  0  0  0  0  0  0  0  0
   43.2437   10.2731    9.6638 C   0  0  0  0  0  0  0  0  0  0  0  0
   48.5626    6.4784   16.3412 C   0  0  0  0  0  0  0  0  0  0  0  0
   48.0940    5.1863   16.1405 C   0  0  0  0  0  0  0  0  0  0  0  0
   48.1599    4.5300   17.3652 C   0  0  0  0  0  0  0  0  0  0  0  0
   48.6545    5.4251   18.2481 N   0  0  0  0  0  0  0  0  0  0  0  0
   48.8925    6.5751   17.6455 N   0  0  0  0  0  0  0  0  0  0  0  0
   47.7546    3.1170   17.6017 C   0  0  0  0  0  0  0  0  0  0  0  0
   48.5301    2.2571   16.8360 F   0  0  0  0  0  0  0  0  0  0  0  0
   48.0459    2.8224   18.9203 F   0  0  0  0  0  0  0  0  0  0  0  0
   46.4079    2.9095   17.3957 F   0  0  0  0  0  0  0  0  0  0  0  0
   49.4118    7.7882   18.1981 C   0  0  0  0  0  0  0  0  0  0  0  0
   50.7506    8.1126   18.1505 C   0  0  0  0  0  0  0  0  0  0  0  0
   48.4786    8.6441   18.7930 C   0  0  0  0  0  0  0  0  0  0  0  0
   48.9459    9.8284   19.3324 C   0  0  0  0  0  0  0  0  0  0  0  0
   50.2750   10.1316   19.2753 C   0  0  0  0  0  0  0  0  0  0  0  0
   51.1884    9.2813   18.6867 C   0  0  0  0  0  0  0  0  0  0  0  0
   52.6255    9.6959   18.6681 C   0  0  0  0  0  0  0  0  0  0  0  0
   53.2241    9.1732   19.8820 N   0  0  0  0  0  0  0  0  0  0  0  0
   48.2485    9.2282   14.6189 Cl  0  0  0  0  0  0  0  0  0  0  0  0
   47.5624    9.8142   13.5797 H   0  0  0  0  0  0  0  0  0  0  0  0
   46.8616   12.0335    9.3285 H   0  0  0  0  0  0  0  0  0  0  0  0
   47.2213   13.7003   13.2600 H   0  0  0  0  0  0  0  0  0  0  0  0
   48.1093   15.7960   12.3315 H   0  0  0  0  0  0  0  0  0  0  0  0
   48.3703   16.0066    9.9088 H   0  0  0  0  0  0  0  0  0  0  0  0
   48.8950   11.3696   10.7217 H   0  0  0  0  0  0  0  0  0  0  0  0
   46.0931   11.7959   13.0390 H   0  0  0  0  0  0  0  0  0  0  0  0
   46.5467    9.2041   13.6011 H   0  0  0  0  0  0  0  0  0  0  0  0
   50.6597    9.7147   10.9758 H   0  0  0  0  0  0  0  0  0  0  0  0
   47.8768    6.4187   13.6695 H   0  0  0  0  0  0  0  0  0  0  0  0
   45.6578   10.7212   10.2669 H   0  0  0  0  0  0  0  0  0  0  0  0
   44.4213    9.8951   12.7926 H   0  0  0  0  0  0  0  0  0  0  0  0
   45.4379    8.9051   11.6203 H   0  0  0  0  0  0  0  0  0  0  0  0
   43.1510    8.4081   10.9683 H   0  0  0  0  0  0  0  0  0  0  0  0
   41.3301   10.1149   10.8066 H   0  0  0  0  0  0  0  0  0  0  0  0
   42.5530   11.4164   11.4678 H   0  0  0  0  0  0  0  0  0  0  0  0
   43.9336   11.0640    9.3541 H   0  0  0  0  0  0  0  0  0  0  0  0
   42.7657    9.7524    8.7922 H   0  0  0  0  0  0  0  0  0  0  0  0
   47.7414    4.7727   15.1937 H   0  0  0  0  0  0  0  0  0  0  0  0
   51.4621    7.4343   17.6830 H   0  0  0  0  0  0  0  0  0  0  0  0
   47.4172    8.3672   18.8209 H   0  0  0  0  0  0  0  0  0  0  0  0
   48.2116   10.4957   19.7973 H   0  0  0  0  0  0  0  0  0  0  0  0
   50.6357   11.0618   19.6999 H   0  0  0  0  0  0  0  0  0  0  0  0
   52.6752   10.7984   18.6188 H   0  0  0  0  0  0  0  0  0  0  0  0
   53.1700    9.2841   17.8129 H   0  0  0  0  0  0  0  0  0  0  0  0
   52.5483    8.9865   20.6397 H   0  0  0  0  0  0  0  0  0  0  0  0
   53.9535    8.4624   19.7263 H   0  0  0  0  0  0  0  0  0  0  0  0
   47.5635    9.8133   13.5814 H   0  0  0  0  0  0  0  0  0  0  0  0
  2  3  2  0
  3  4  1  0
  4  5  2  0
  5  6  1  0
  6  7  2  0
  2  7  1  0
  8  9  2  0
  9 10  1  0
 10  4  1  0
 11 12  2  0
 12 13  1  0
 13 14  2  0
  8 14  1  0
  9 11  1  0
 16 17  2  0
 17 18  1  0
 15 13  1  0
 18 12  1  0
  2 19  1  0
 19 20  3  0
 10 21  1  0
 21 22  1  0
 22 23  1  0
 23 24  1  0
 23 25  1  0
 24 25  1  0
 17 26  1  0
 27 28  1  0
 28 29  2  0
 29 30  1  0
 30 26  1  0
 27 26  2  0
 28 31  1  0
 31 32  1  0
 31 33  1  0
 31 34  1  0
 30 35  1  0
 37 38  1  0
 38 39  2  0
 39 40  1  0
 36 40  2  0
 36 35  1  0
 35 37  2  0
 40 41  1  0
 41 42  1  0
  1 44  1  0
  3 45  1  0
  5 46  1  0
  6 47  1  0
  7 48  1  0
  8 49  1  0
 10 50  1  6
 11 51  1  0
 14 52  1  0
 18 53  1  0
 21 54  1  0
 22 55  1  0
 22 56  1  0
 23 57  1  0
 24 58  1  0
 24 59  1  0
 25 60  1  0
 25 61  1  0
 27 62  1  0
 36 63  1  0
 37 64  1  0
 38 65  1  0
 39 66  1  0
 41 67  1  0
 41 68  1  0
 42 69  1  0
 42 70  1  0
 43 71  1  0
M  END
> <Uni-Dock RESULT> 
ENERGY=   -5.574  LOWER_BOUND=    4.020  UPPER_BOUND=    9.521
INTER + INTRA:          -5.574
INTER:                  -5.574
INTRA:                   0.000
UNBOUND:                 0.000

$$$$

     RDKit          3D

 71 73  0  0  0  0  0  0  0  0999 V2000
   49.3667   10.8902   11.0054 Cl  0  0  0  0  0  0  0  0  0  0  0  0
   46.8404    5.0302   13.9969 C   0  0  0  0  0  0  0  0  0  0  0  0
   47.5600    6.2050   14.2394 C   0  0  0  0  0  0  0  0  0  0  0  0
   47.1051    7.3604   13.6083 C   0  0  0  0  0  0  0  0  0  0  0  0
   45.9821    7.2928   12.7849 C   0  0  0  0  0  0  0  0  0  0  0  0
   45.2838    6.1408   12.5527 C   0  0  0  0  0  0  0  0  0  0  0  0
   45.7391    4.9925   13.1826 C   0  0  0  0  0  0  0  0  0  0  0  0
   49.5285    7.6303   12.2921 C   0  0  0  0  0  0  0  0  0  0  0  0
   48.9618    8.7517   12.9071 C   0  0  0  0  0  0  0  0  0  0  0  0
   47.7836    8.6771   13.7864 C   0  0  2  0  0  0  0  0  0  0  0  0
   49.5818    9.9575   12.5899 C   0  0  0  0  0  0  0  0  0  0  0  0
   50.6636   10.0427   11.7435 C   0  0  0  0  0  0  0  0  0  0  0  0
   51.2021    8.9228   11.1519 C   0  0  0  0  0  0  0  0  0  0  0  0
   50.6090    7.7179   11.4463 C   0  0  0  0  0  0  0  0  0  0  0  0
   52.2548    9.0052   10.3288 F   0  0  0  0  0  0  0  0  0  0  0  0
   49.7473   11.5197    9.7228 O   0  0  0  0  0  0  0  0  0  0  0  0
   50.7053   12.0358   10.3678 C   0  0  0  0  0  0  0  0  0  0  0  0
   51.2628   11.3244   11.4640 N   0  0  0  0  0  0  0  0  0  0  0  0
   47.3341    3.8571   14.6656 C   0  0  0  0  0  0  0  0  0  0  0  0
   47.7294    2.8858   15.1995 N   0  0  0  0  0  0  0  0  0  0  0  0
   48.1568    8.8470   15.1618 N   0  0  0  0  0  0  0  0  0  0  0  0
   48.8198   10.0799   15.4891 C   0  0  0  0  0  0  0  0  0  0  0  0
   48.9913   10.1732   16.9978 C   0  0  0  0  0  0  0  0  0  0  0  0
   47.7714   10.1582   17.8498 C   0  0  0  0  0  0  0  0  0  0  0  0
   48.6829    8.9503   17.8240 C   0  0  0  0  0  0  0  0  0  0  0  0
   51.2391   13.3565    9.9927 C   0  0  0  0  0  0  0  0  0  0  0  0
   52.2943   14.0391   10.5844 C   0  0  0  0  0  0  0  0  0  0  0  0
   52.4400   15.2424    9.9021 C   0  0  0  0  0  0  0  0  0  0  0  0
   51.4901   15.2501    8.9413 N   0  0  0  0  0  0  0  0  0  0  0  0
   50.7808   14.1382    8.9935 N   0  0  0  0  0  0  0  0  0  0  0  0
   53.4606   16.2821   10.2090 C   0  0  0  0  0  0  0  0  0  0  0  0
   54.7394   15.7669   10.0462 F   0  0  0  0  0  0  0  0  0  0  0  0
   53.3270   17.2797    9.2619 F   0  0  0  0  0  0  0  0  0  0  0  0
   53.2907   16.8404   11.4574 F   0  0  0  0  0  0  0  0  0  0  0  0
   49.6817   13.7344    8.1716 C   0  0  0  0  0  0  0  0  0  0  0  0
   49.8399   12.9334    7.0610 C   0  0  0  0  0  0  0  0  0  0  0  0
   48.4191   14.1951    8.5600 C   0  0  0  0  0  0  0  0  0  0  0  0
   47.3336   13.8189    7.7905 C   0  0  0  0  0  0  0  0  0  0  0  0
   47.5107   13.0254    6.6947 C   0  0  0  0  0  0  0  0  0  0  0  0
   48.7599   12.5757    6.3190 C   0  0  0  0  0  0  0  0  0  0  0  0
   48.8597   11.7085    5.1044 C   0  0  0  0  0  0  0  0  0  0  0  0
   49.0614   12.5971    3.9752 N   0  0  0  0  0  0  0  0  0  0  0  0
   49.3661   10.8889   11.0073 Cl  0  0  0  0  0  0  0  0  0  0  0  0
   49.0172   10.1408   12.1085 H   0  0  0  0  0  0  0  0  0  0  0  0
   48.4132    6.2069   14.8741 H   0  0  0  0  0  0  0  0  0  0  0  0
   45.6275    8.1926   12.2931 H   0  0  0  0  0  0  0  0  0  0  0  0
   44.4166    6.0867   11.9170 H   0  0  0  0  0  0  0  0  0  0  0  0
   45.2037    4.0496   13.0183 H   0  0  0  0  0  0  0  0  0  0  0  0
   49.1276    6.6443   12.4626 H   0  0  0  0  0  0  0  0  0  0  0  0
   47.0165    9.4539   13.4881 H   0  0  0  0  0  0  0  0  0  0  0  0
   49.2209   10.9120   12.9848 H   0  0  0  0  0  0  0  0  0  0  0  0
   51.0412    6.8250   10.9719 H   0  0  0  0  0  0  0  0  0  0  0  0
   52.0538   11.6935   12.0379 H   0  0  0  0  0  0  0  0  0  0  0  0
   48.8351    8.0883   15.4519 H   0  0  0  0  0  0  0  0  0  0  0  0
   48.2393   10.9421   15.1491 H   0  0  0  0  0  0  0  0  0  0  0  0
   49.8574   10.0746   15.0186 H   0  0  0  0  0  0  0  0  0  0  0  0
   49.8062   10.8654   17.3152 H   0  0  0  0  0  0  0  0  0  0  0  0
   47.7954   10.7548   18.7982 H   0  0  0  0  0  0  0  0  0  0  0  0
   46.8023   10.0697   17.3248 H   0  0  0  0  0  0  0  0  0  0  0  0
   48.3234    8.0245   17.3645 H   0  0  0  0  0  0  0  0  0  0  0  0
   49.3064    8.7640   18.7381 H   0  0  0  0  0  0  0  0  0  0  0  0
   52.8915   13.6878   11.4281 H   0  0  0  0  0  0  0  0  0  0  0  0
   50.8302   12.5841    6.7744 H   0  0  0  0  0  0  0  0  0  0  0  0
   48.3145   14.8322    9.4471 H   0  0  0  0  0  0  0  0  0  0  0  0
   46.3466   14.1819    8.0983 H   0  0  0  0  0  0  0  0  0  0  0  0
   46.6558   12.7335    6.0951 H   0  0  0  0  0  0  0  0  0  0  0  0
   47.9292   11.1201    5.0121 H   0  0  0  0  0  0  0  0  0  0  0  0
   49.7061   11.0166    5.1511 H   0  0  0  0  0  0  0  0  0  0  0  0
   48.7326   13.5627    4.1337 H   0  0  0  0  0  0  0  0  0  0  0  0
   49.9714   12.4890    3.5045 H   0  0  0  0  0  0  0  0  0  0  0  0
   49.0178   10.1421   12.1067 H   0  0  0  0  0  0  0  0  0  0  0  0
  2  3  2  0
  3  4  1  0
  4  5  2  0
  5  6  1  0
  6  7  2  0
  2  7  1  0
  8  9  2  0
  9 10  1  0
 10  4  1  0
 11 12  2  0
 12 13  1  0
 13 14  2  0
  8 14  1  0
  9 11  1  0
 16 17  2  0
 17 18  1  0
 15 13  1  0
 18 12  1  0
  2 19  1  0
 19 20  3  0
 10 21  1  0
 21 22  1  0
 22 23  1  0
 23 24  1  0
 23 25  1  0
 24 25  1  0
 17 26  1  0
 27 28  1  0
 28 29  2  0
 29 30  1  0
 30 26  1  0
 27 26  2  0
 28 31  1  0
 31 32  1  0
 31 33  1  0
 31 34  1  0
 30 35  1  0
 37 38  1  0
 38 39  2  0
 39 40  1  0
 36 40  2  0
 36 35  1  0
 35 37  2  0
 40 41  1  0
 41 42  1  0
  1 44  1  0
  3 45  1  0
  5 46  1  0
  6 47  1  0
  7 48  1  0
  8 49  1  0
 10 50  1  6
 11 51  1  0
 14 52  1  0
 18 53  1  0
 21 54  1  0
 22 55  1  0
 22 56  1  0
 23 57  1  0
 24 58  1  0
 24 59  1  0
 25 60  1  0
 25 61  1  0
 27 62  1  0
 36 63  1  0
 37 64  1  0
 38 65  1  0
 39 66  1  0
 41 67  1  0
 41 68  1  0
 42 69  1  0
 42 70  1  0
 43 71  1  0
M  END
> <Uni-Dock RESULT> 
ENERGY=   -5.114  LOWER_BOUND=    5.624  UPPER_BOUND=    7.996
INTER + INTRA:          -5.114
INTER:                  -5.114
INTRA:                   0.000
UNBOUND:                 0.000

$$$$

     RDKit          3D

 71 73  0  0  0  0  0  0  0  0999 V2000
   46.5277   10.7958   11.4048 Cl  0  0  0  0  0  0  0  0  0  0  0  0
   39.7268   12.2425   10.2539 C   0  0  0  0  0  0  0  0  0  0  0  0
   41.0013   12.2617    9.6776 C   0  0  0  0  0  0  0  0  0  0  0  0
   41.8282   11.1741    9.9485 C   0  0  0  0  0  0  0  0  0  0  0  0
   41.3582   10.1435   10.7613 C   0  0  0  0  0  0  0  0  0  0  0  0
   40.1111   10.1317   11.3209 C   0  0  0  0  0  0  0  0  0  0  0  0
   39.2903   11.2157   11.0492 C   0  0  0  0  0  0  0  0  0  0  0  0
   43.6986   12.8506   11.1185 C   0  0  0  0  0  0  0  0  0  0  0  0
   44.1319   11.8818   10.2073 C   0  0  0  0  0  0  0  0  0  0  0  0
   43.2092   11.0741    9.3929 C   0  0  2  0  0  0  0  0  0  0  0  0
   45.5134   11.7142   10.1581 C   0  0  0  0  0  0  0  0  0  0  0  0
   46.3835   12.4409   10.9383 C   0  0  0  0  0  0  0  0  0  0  0  0
   45.9301   13.3891   11.8270 C   0  0  0  0  0  0  0  0  0  0  0  0
   44.5698   13.5751   11.8976 C   0  0  0  0  0  0  0  0  0  0  0  0
   46.7763   14.0966   12.5858 F   0  0  0  0  0  0  0  0  0  0  0  0
   47.5536   10.5817   12.4479 O   0  0  0  0  0  0  0  0  0  0  0  0
   48.3347   11.2102   11.6764 C   0  0  0  0  0  0  0  0  0  0  0  0
   47.8049   12.2218   10.8312 N   0  0  0  0  0  0  0  0  0  0  0  0
   38.8978   13.3778    9.9520 C   0  0  0  0  0  0  0  0  0  0  0  0
   38.2089   14.3034    9.7210 N   0  0  0  0  0  0  0  0  0  0  0  0
   43.2134   11.5105    8.0257 N   0  0  0  0  0  0  0  0  0  0  0  0
   44.4825   11.4651    7.3517 C   0  0  0  0  0  0  0  0  0  0  0  0
   44.2820   11.7942    5.8801 C   0  0  0  0  0  0  0  0  0  0  0  0
   43.3907   10.9160    5.0746 C   0  0  0  0  0  0  0  0  0  0  0  0
   42.9337   12.3103    5.4456 C   0  0  0  0  0  0  0  0  0  0  0  0
   49.7748   10.9010   11.6498 C   0  0  0  0  0  0  0  0  0  0  0  0
   50.7553   11.5145   10.8806 C   0  0  0  0  0  0  0  0  0  0  0  0
   51.9633   10.8952   11.1838 C   0  0  0  0  0  0  0  0  0  0  0  0
   51.6822    9.9481   12.1054 N   0  0  0  0  0  0  0  0  0  0  0  0
   50.3915    9.9503   12.3813 N   0  0  0  0  0  0  0  0  0  0  0  0
   53.2797   11.2472   10.5836 C   0  0  0  0  0  0  0  0  0  0  0  0
   53.6114   12.5616   10.8830 F   0  0  0  0  0  0  0  0  0  0  0  0
   54.2347   10.4618   11.2012 F   0  0  0  0  0  0  0  0  0  0  0  0
   53.3265   11.0054    9.2278 F   0  0  0  0  0  0  0  0  0  0  0  0
   49.6657    9.1172   13.2901 C   0  0  0  0  0  0  0  0  0  0  0  0
   49.3850    9.4987   14.5846 C   0  0  0  0  0  0  0  0  0  0  0  0
   49.2443    7.8802   12.7907 C   0  0  0  0  0  0  0  0  0  0  0  0
   48.5353    7.0521   13.6412 C   0  0  0  0  0  0  0  0  0  0  0  0
   48.2672    7.4478   14.9192 C   0  0  0  0  0  0  0  0  0  0  0  0
   48.6870    8.6696   15.4034 C   0  0  0  0  0  0  0  0  0  0  0  0
   48.3467    9.0211   16.8170 C   0  0  0  0  0  0  0  0  0  0  0  0
   49.4436    8.5450   17.6388 N   0  0  0  0  0  0  0  0  0  0  0  0
   46.5260   10.7962   11.4034 Cl  0  0  0  0  0  0  0  0  0  0  0  0
   45.4671   11.0710   10.5682 H   0  0  0  0  0  0  0  0  0  0  0  0
   41.3166   13.0722    9.0658 H   0  0  0  0  0  0  0  0  0  0  0  0
   42.0021    9.2961   10.9725 H   0  0  0  0  0  0  0  0  0  0  0  0
   39.7466    9.3368   11.9491 H   0  0  0  0  0  0  0  0  0  0  0  0
   38.2832   11.2402   11.4824 H   0  0  0  0  0  0  0  0  0  0  0  0
   42.6490   13.0624   11.2432 H   0  0  0  0  0  0  0  0  0  0  0  0
   43.4807    9.9773    9.4565 H   0  0  0  0  0  0  0  0  0  0  0  0
   45.9805   10.9709    9.5049 H   0  0  0  0  0  0  0  0  0  0  0  0
   44.2105   14.3331   12.6086 H   0  0  0  0  0  0  0  0  0  0  0  0
   48.3942   12.7772   10.1713 H   0  0  0  0  0  0  0  0  0  0  0  0
   42.9096   12.5224    7.9650 H   0  0  0  0  0  0  0  0  0  0  0  0
   44.9350   10.4725    7.4296 H   0  0  0  0  0  0  0  0  0  0  0  0
   45.1640   12.2611    7.7986 H   0  0  0  0  0  0  0  0  0  0  0  0
   45.2052   12.1592    5.3717 H   0  0  0  0  0  0  0  0  0  0  0  0
   43.6482   10.7692    3.9939 H   0  0  0  0  0  0  0  0  0  0  0  0
   42.9156   10.0715    5.6073 H   0  0  0  0  0  0  0  0  0  0  0  0
   42.1091   12.4268    6.1556 H   0  0  0  0  0  0  0  0  0  0  0  0
   42.9040   13.0718    4.6219 H   0  0  0  0  0  0  0  0  0  0  0  0
   50.5967   12.3301   10.1723 H   0  0  0  0  0  0  0  0  0  0  0  0
   49.7208   10.4653   14.9556 H   0  0  0  0  0  0  0  0  0  0  0  0
   49.4783    7.5951   11.7573 H   0  0  0  0  0  0  0  0  0  0  0  0
   48.2070    6.0843   13.2459 H   0  0  0  0  0  0  0  0  0  0  0  0
   47.7107    6.7942   15.5817 H   0  0  0  0  0  0  0  0  0  0  0  0
   47.3877    8.5399   17.0803 H   0  0  0  0  0  0  0  0  0  0  0  0
   48.2482   10.1002   16.9690 H   0  0  0  0  0  0  0  0  0  0  0  0
   49.9951    7.7858   17.2085 H   0  0  0  0  0  0  0  0  0  0  0  0
   49.9729    9.2887   18.1164 H   0  0  0  0  0  0  0  0  0  0  0  0
   45.4689   11.0705   10.5696 H   0  0  0  0  0  0  0  0  0  0  0  0
  2  3  2  0
  3  4  1  0
  4  5  2  0
  5  6  1  0
  6  7  2  0
  2  7  1  0
  8  9  2  0
  9 10  1  0
 10  4  1  0
 11 12  2  0
 12 13  1  0
 13 14  2  0
  8 14  1  0
  9 11  1  0
 16 17  2  0
 17 18  1  0
 15 13  1  0
 18 12  1  0
  2 19  1  0
 19 20  3  0
 10 21  1  0
 21 22  1  0
 22 23  1  0
 23 24  1  0
 23 25  1  0
 24 25  1  0
 17 26  1  0
 27 28  1  0
 28 29  2  0
 29 30  1  0
 30 26  1  0
 27 26  2  0
 28 31  1  0
 31 32  1  0
 31 33  1  0
 31 34  1  0
 30 35  1  0
 37 38  1  0
 38 39  2  0
 39 40  1  0
 36 40  2  0
 36 35  1  0
 35 37  2  0
 40 41  1  0
 41 42  1  0
  1 44  1  0
  3 45  1  0
  5 46  1  0
  6 47  1  0
  7 48  1  0
  8 49  1  0
 10 50  1  6
 11 51  1  0
 14 52  1  0
 18 53  1  0
 21 54  1  0
 22 55  1  0
 22 56  1  0
 23 57  1  0
 24 58  1  0
 24 59  1  0
 25 60  1  0
 25 61  1  0
 27 62  1  0
 36 63  1  0
 37 64  1  0
 38 65  1  0
 39 66  1  0
 41 67  1  0
 41 68  1  0
 42 69  1  0
 42 70  1  0
 43 71  1  0
M  END
> <Uni-Dock RESULT> 
ENERGY=   -4.884  LOWER_BOUND=    4.369  UPPER_BOUND=   10.538
INTER + INTRA:          -4.884
INTER:                  -4.884
INTRA:                   0.000
UNBOUND:                 0.000

$$$$

     RDKit          3D

 71 73  0  0  0  0  0  0  0  0999 V2000
   50.2643    6.9488   15.7796 Cl  0  0  0  0  0  0  0  0  0  0  0  0
   55.0978    8.0156   20.7965 C   0  0  0  0  0  0  0  0  0  0  0  0
   54.2985    7.0453   20.1830 C   0  0  0  0  0  0  0  0  0  0  0  0
   54.1629    7.1283   18.7992 C   0  0  0  0  0  0  0  0  0  0  0  0
   54.8140    8.1494   18.1083 C   0  0  0  0  0  0  0  0  0  0  0  0
   55.5937    9.0941   18.7150 C   0  0  0  0  0  0  0  0  0  0  0  0
   55.7268    9.0087   20.0925 C   0  0  0  0  0  0  0  0  0  0  0  0
   51.4205    7.4294   19.0569 C   0  0  0  0  0  0  0  0  0  0  0  0
   51.9180    6.5259   18.1120 C   0  0  0  0  0  0  0  0  0  0  0  0
   53.3396    6.1533   18.0264 C   0  0  2  0  0  0  0  0  0  0  0  0
   50.9620    6.0317   17.2284 C   0  0  0  0  0  0  0  0  0  0  0  0
   49.6364    6.3980   17.2787 C   0  0  0  0  0  0  0  0  0  0  0  0
   49.1730    7.2892   18.2197 C   0  0  0  0  0  0  0  0  0  0  0  0
   50.0957    7.7945   19.1049 C   0  0  0  0  0  0  0  0  0  0  0  0
   47.8835    7.6454   18.2693 F   0  0  0  0  0  0  0  0  0  0  0  0
   49.2426    7.6018   14.9334 O   0  0  0  0  0  0  0  0  0  0  0  0
   48.5570    6.5545   15.1160 C   0  0  0  0  0  0  0  0  0  0  0  0
   48.6969    5.8412   16.3368 N   0  0  0  0  0  0  0  0  0  0  0  0
   55.2194    7.8996   22.2244 C   0  0  0  0  0  0  0  0  0  0  0  0
   55.3236    7.8237   23.3941 N   0  0  0  0  0  0  0  0  0  0  0  0
   53.5554    4.8283   18.5339 N   0  0  0  0  0  0  0  0  0  0  0  0
   52.8280    3.7747   17.8799 C   0  0  0  0  0  0  0  0  0  0  0  0
   53.2947    2.4314   18.4203 C   0  0  0  0  0  0  0  0  0  0  0  0
   54.7274    2.0636   18.2579 C   0  0  0  0  0  0  0  0  0  0  0  0
   54.1971    2.4271   19.6280 C   0  0  0  0  0  0  0  0  0  0  0  0
   47.6253    6.0757   14.0803 C   0  0  0  0  0  0  0  0  0  0  0  0
   46.7936    4.9649   14.1420 C   0  0  0  0  0  0  0  0  0  0  0  0
   46.0991    4.9037   12.9384 C   0  0  0  0  0  0  0  0  0  0  0  0
   46.5229    5.9549   12.2030 N   0  0  0  0  0  0  0  0  0  0  0  0
   47.4234    6.6472   12.8753 N   0  0  0  0  0  0  0  0  0  0  0  0
   45.0945    3.8641   12.5820 C   0  0  0  0  0  0  0  0  0  0  0  0
   44.0243    3.9032   13.4654 F   0  0  0  0  0  0  0  0  0  0  0  0
   44.5802    4.1988   11.3436 F   0  0  0  0  0  0  0  0  0  0  0  0
   45.6426    2.6024   12.5001 F   0  0  0  0  0  0  0  0  0  0  0  0
   48.1318    7.8247   12.4774 C   0  0  0  0  0  0  0  0  0  0  0  0
   47.7083    9.0938   12.8092 C   0  0  0  0  0  0  0  0  0  0  0  0
   49.2958    7.6208   11.7286 C   0  0  0  0  0  0  0  0  0  0  0  0
   50.0081    8.7376   11.3320 C   0  0  0  0  0  0  0  0  0  0  0  0
   49.5726    9.9857   11.6705 C   0  0  0  0  0  0  0  0  0  0  0  0
   48.4232   10.1773   12.4093 C   0  0  0  0  0  0  0  0  0  0  0  0
   48.0222   11.5809   12.7356 C   0  0  0  0  0  0  0  0  0  0  0  0
   47.1623   12.0287   11.6561 N   0  0  0  0  0  0  0  0  0  0  0  0
   50.2659    6.9481   15.7811 Cl  0  0  0  0  0  0  0  0  0  0  0  0
   51.2105    6.4949   16.6736 H   0  0  0  0  0  0  0  0  0  0  0  0
   53.8192    6.2863   20.7528 H   0  0  0  0  0  0  0  0  0  0  0  0
   54.7085    8.2142   17.0304 H   0  0  0  0  0  0  0  0  0  0  0  0
   56.0970    9.8834   18.1831 H   0  0  0  0  0  0  0  0  0  0  0  0
   56.3443    9.7508   20.6128 H   0  0  0  0  0  0  0  0  0  0  0  0
   52.0718    7.8783   19.7892 H   0  0  0  0  0  0  0  0  0  0  0  0
   53.7058    6.2298   16.9583 H   0  0  0  0  0  0  0  0  0  0  0  0
   51.2246    5.3362   16.4255 H   0  0  0  0  0  0  0  0  0  0  0  0
   49.7227    8.5064   19.8554 H   0  0  0  0  0  0  0  0  0  0  0  0
   48.1615    4.9702   16.5506 H   0  0  0  0  0  0  0  0  0  0  0  0
   53.2592    4.7737   19.5484 H   0  0  0  0  0  0  0  0  0  0  0  0
   52.9935    3.7934   16.7990 H   0  0  0  0  0  0  0  0  0  0  0  0
   51.7212    3.8854   18.1259 H   0  0  0  0  0  0  0  0  0  0  0  0
   52.5551    1.6087   18.2781 H   0  0  0  0  0  0  0  0  0  0  0  0
   54.9698    0.9793   18.1115 H   0  0  0  0  0  0  0  0  0  0  0  0
   55.3747    2.8056   17.7549 H   0  0  0  0  0  0  0  0  0  0  0  0
   54.5316    3.3578   20.0963 H   0  0  0  0  0  0  0  0  0  0  0  0
   54.0808    1.5905   20.3668 H   0  0  0  0  0  0  0  0  0  0  0  0
   46.7085    4.2744   14.9834 H   0  0  0  0  0  0  0  0  0  0  0  0
   46.8002    9.2329   13.3930 H   0  0  0  0  0  0  0  0  0  0  0  0
   49.6156    6.6024   11.4745 H   0  0  0  0  0  0  0  0  0  0  0  0
   50.9191    8.5734   10.7458 H   0  0  0  0  0  0  0  0  0  0  0  0
   50.1354   10.8578   11.3568 H   0  0  0  0  0  0  0  0  0  0  0  0
   48.9343   12.1976   12.8265 H   0  0  0  0  0  0  0  0  0  0  0  0
   47.4604   11.6499   13.6720 H   0  0  0  0  0  0  0  0  0  0  0  0
   47.2942   11.5151   10.7704 H   0  0  0  0  0  0  0  0  0  0  0  0
   46.1908   12.2245   11.9377 H   0  0  0  0  0  0  0  0  0  0  0  0
   51.2089    6.4956   16.6721 H   0  0  0  0  0  0  0  0  0  0  0  0
  2  3  2  0
  3  4  1  0
  4  5  2  0
  5  6  1  0
  6  7  2  0
  2  7  1  0
  8  9  2  0
  9 10  1  0
 10  4  1  0
 11 12  2  0
 12 13  1  0
 13 14  2  0
  8 14  1  0
  9 11  1  0
 16 17  2  0
 17 18  1  0
 15 13  1  0
 18 12  1  0
  2 19  1  0
 19 20  3  0
 10 21  1  0
 21 22  1  0
 22 23  1  0
 23 24  1  0
 23 25  1  0
 24 25  1  0
 17 26  1  0
 27 28  1  0
 28 29  2  0
 29 30  1  0
 30 26  1  0
 27 26  2  0
 28 31  1  0
 31 32  1  0
 31 33  1  0
 31 34  1  0
 30 35  1  0
 37 38  1  0
 38 39  2  0
 39 40  1  0
 36 40  2  0
 36 35  1  0
 35 37  2  0
 40 41  1  0
 41 42  1  0
  1 44  1  0
  3 45  1  0
  5 46  1  0
  6 47  1  0
  7 48  1  0
  8 49  1  0
 10 50  1  6
 11 51  1  0
 14 52  1  0
 18 53  1  0
 21 54  1  0
 22 55  1  0
 22 56  1  0
 23 57  1  0
 24 58  1  0
 24 59  1  0
 25 60  1  0
 25 61  1  0
 27 62  1  0
 36 63  1  0
 37 64  1  0
 38 65  1  0
 39 66  1  0
 41 67  1  0
 41 68  1  0
 42 69  1  0
 42 70  1  0
 43 71  1  0
M  END
> <Uni-Dock RESULT> 
ENERGY=   -4.861  LOWER_BOUND=    3.596  UPPER_BOUND=    6.495
INTER + INTRA:          -4.861
INTER:                  -4.861
INTRA:                   0.000
UNBOUND:                 0.000

$$$$

     RDKit          3D

 71 73  0  0  0  0  0  0  0  0999 V2000
   49.7712   10.4226   11.1524 Cl  0  0  0  0  0  0  0  0  0  0  0  0
   42.7942   11.2563   10.6066 C   0  0  0  0  0  0  0  0  0  0  0  0
   43.9236   11.6238   11.3457 C   0  0  0  0  0  0  0  0  0  0  0  0
   45.0872   11.8828   10.6253 C   0  0  0  0  0  0  0  0  0  0  0  0
   45.0716   11.7663    9.2360 C   0  0  0  0  0  0  0  0  0  0  0  0
   43.9638   11.4067    8.5206 C   0  0  0  0  0  0  0  0  0  0  0  0
   42.8070   11.1497    9.2406 C   0  0  0  0  0  0  0  0  0  0  0  0
   46.4079    9.8535   11.9727 C   0  0  0  0  0  0  0  0  0  0  0  0
   47.0406   11.0921   11.8227 C   0  0  0  0  0  0  0  0  0  0  0  0
   46.3581   12.2850   11.2954 C   0  0  2  0  0  0  0  0  0  0  0  0
   48.3867   11.0982   12.1789 C   0  0  0  0  0  0  0  0  0  0  0  0
   49.0431    9.9809   12.6423 C   0  0  0  0  0  0  0  0  0  0  0  0
   48.3961    8.7740   12.7810 C   0  0  0  0  0  0  0  0  0  0  0  0
   47.0659    8.7383   12.4353 C   0  0  0  0  0  0  0  0  0  0  0  0
   49.0342    7.6870   13.2322 F   0  0  0  0  0  0  0  0  0  0  0  0
   50.9123    9.5548   10.7904 O   0  0  0  0  0  0  0  0  0  0  0  0
   51.3571    9.8168   11.9453 C   0  0  0  0  0  0  0  0  0  0  0  0
   50.4378   10.0594   13.0011 N   0  0  0  0  0  0  0  0  0  0  0  0
   41.6098   10.9991   11.3799 C   0  0  0  0  0  0  0  0  0  0  0  0
   40.6333   10.7776   11.9982 N   0  0  0  0  0  0  0  0  0  0  0  0
   46.0761   13.2222   12.3450 N   0  0  0  0  0  0  0  0  0  0  0  0
   47.2116   13.7068   13.0816 C   0  0  0  0  0  0  0  0  0  0  0  0
   46.7623   14.8066   14.0317 C   0  0  0  0  0  0  0  0  0  0  0  0
   46.1334   16.0256   13.4547 C   0  0  0  0  0  0  0  0  0  0  0  0
   45.2818   15.0288   14.2106 C   0  0  0  0  0  0  0  0  0  0  0  0
   52.8073    9.8718   12.1979 C   0  0  0  0  0  0  0  0  0  0  0  0
   53.4443   10.1219   13.4066 C   0  0  0  0  0  0  0  0  0  0  0  0
   54.8137   10.0773   13.1669 C   0  0  0  0  0  0  0  0  0  0  0  0
   54.9589    9.8082   11.8509 N   0  0  0  0  0  0  0  0  0  0  0  0
   53.7761    9.6867   11.2778 N   0  0  0  0  0  0  0  0  0  0  0  0
   55.8698   10.2891   14.1949 C   0  0  0  0  0  0  0  0  0  0  0  0
   55.7769    9.3246   15.1890 F   0  0  0  0  0  0  0  0  0  0  0  0
   57.0894   10.0854   13.5773 F   0  0  0  0  0  0  0  0  0  0  0  0
   55.8533   11.5640   14.7178 F   0  0  0  0  0  0  0  0  0  0  0  0
   53.4652    9.4088    9.9093 C   0  0  0  0  0  0  0  0  0  0  0  0
   53.2097    8.1347    9.4498 C   0  0  0  0  0  0  0  0  0  0  0  0
   53.4276   10.5115    9.0491 C   0  0  0  0  0  0  0  0  0  0  0  0
   53.1247   10.2792    7.7202 C   0  0  0  0  0  0  0  0  0  0  0  0
   52.8746    9.0106    7.2845 C   0  0  0  0  0  0  0  0  0  0  0  0
   52.9142    7.9288    8.1401 C   0  0  0  0  0  0  0  0  0  0  0  0
   52.6250    6.5742    7.5755 C   0  0  0  0  0  0  0  0  0  0  0  0
   53.8966    6.0239    7.1444 N   0  0  0  0  0  0  0  0  0  0  0  0
   49.7692   10.4237   11.1529 Cl  0  0  0  0  0  0  0  0  0  0  0  0
   48.5987   11.0862   11.4447 H   0  0  0  0  0  0  0  0  0  0  0  0
   43.8878   11.6969   12.4059 H   0  0  0  0  0  0  0  0  0  0  0  0
   45.9779   11.9681    8.6746 H   0  0  0  0  0  0  0  0  0  0  0  0
   43.9499   11.3160    7.4478 H   0  0  0  0  0  0  0  0  0  0  0  0
   41.8991   10.8576    8.6993 H   0  0  0  0  0  0  0  0  0  0  0  0
   45.3663    9.7309   11.7238 H   0  0  0  0  0  0  0  0  0  0  0  0
   46.9823   12.7745   10.4882 H   0  0  0  0  0  0  0  0  0  0  0  0
   49.0032   11.9973   12.0853 H   0  0  0  0  0  0  0  0  0  0  0  0
   46.5518    7.7728   12.5469 H   0  0  0  0  0  0  0  0  0  0  0  0
   50.7383   10.2813   13.9766 H   0  0  0  0  0  0  0  0  0  0  0  0
   45.4500   12.7771   13.0729 H   0  0  0  0  0  0  0  0  0  0  0  0
   47.9726   14.1142   12.4100 H   0  0  0  0  0  0  0  0  0  0  0  0
   47.6337   12.8540   13.7081 H   0  0  0  0  0  0  0  0  0  0  0  0
   47.4548   14.9684   14.8910 H   0  0  0  0  0  0  0  0  0  0  0  0
   46.3116   16.9985   13.9816 H   0  0  0  0  0  0  0  0  0  0  0  0
   46.0224   16.0516   12.3549 H   0  0  0  0  0  0  0  0  0  0  0  0
   44.5434   14.4374   13.6606 H   0  0  0  0  0  0  0  0  0  0  0  0
   44.9167   15.3382   15.2256 H   0  0  0  0  0  0  0  0  0  0  0  0
   52.9523   10.3165   14.3616 H   0  0  0  0  0  0  0  0  0  0  0  0
   53.2432    7.2888   10.1340 H   0  0  0  0  0  0  0  0  0  0  0  0
   53.6344   11.5177    9.4347 H   0  0  0  0  0  0  0  0  0  0  0  0
   53.0961   11.1457    7.0500 H   0  0  0  0  0  0  0  0  0  0  0  0
   52.6376    8.8344    6.2412 H   0  0  0  0  0  0  0  0  0  0  0  0
   51.9121    6.6842    6.7389 H   0  0  0  0  0  0  0  0  0  0  0  0
   52.1913    5.8950    8.3157 H   0  0  0  0  0  0  0  0  0  0  0  0
   54.6205    6.7342    6.9518 H   0  0  0  0  0  0  0  0  0  0  0  0
   54.1964    5.1856    7.6628 H   0  0  0  0  0  0  0  0  0  0  0  0
   48.6006   11.0851   11.4442 H   0  0  0  0  0  0  0  0  0  0  0  0
  2  3  2  0
  3  4  1  0
  4  5  2  0
  5  6  1  0
  6  7  2  0
  2  7  1  0
  8  9  2  0
  9 10  1  0
 10  4  1  0
 11 12  2  0
 12 13  1  0
 13 14  2  0
  8 14  1  0
  9 11  1  0
 16 17  2  0
 17 18  1  0
 15 13  1  0
 18 12  1  0
  2 19  1  0
 19 20  3  0
 10 21  1  0
 21 22  1  0
 22 23  1  0
 23 24  1  0
 23 25  1  0
 24 25  1  0
 17 26  1  0
 27 28  1  0
 28 29  2  0
 29 30  1  0
 30 26  1  0
 27 26  2  0
 28 31  1  0
 31 32  1  0
 31 33  1  0
 31 34  1  0
 30 35  1  0
 37 38  1  0
 38 39  2  0
 39 40  1  0
 36 40  2  0
 36 35  1  0
 35 37  2  0
 40 41  1  0
 41 42  1  0
  1 44  1  0
  3 45  1  0
  5 46  1  0
  6 47  1  0
  7 48  1  0
  8 49  1  0
 10 50  1  6
 11 51  1  0
 14 52  1  0
 18 53  1  0
 21 54  1  0
 22 55  1  0
 22 56  1  0
 23 57  1  0
 24 58  1  0
 24 59  1  0
 25 60  1  0
 25 61  1  0
 27 62  1  0
 36 63  1  0
 37 64  1  0
 38 65  1  0
 39 66  1  0
 41 67  1  0
 41 68  1  0
 42 69  1  0
 42 70  1  0
 43 71  1  0
M  END
> <Uni-Dock RESULT> 
ENERGY=   -4.821  LOWER_BOUND=    5.260  UPPER_BOUND=    9.967
INTER + INTRA:          -4.821
INTER:                  -4.821
INTRA:                   0.000
UNBOUND:                 0.000

$$$$

     RDKit          3D

 71 73  0  0  0  0  0  0  0  0999 V2000
   50.6680    7.1548   15.4294 Cl  0  0  0  0  0  0  0  0  0  0  0  0
   49.0466   12.3362   10.9356 C   0  0  0  0  0  0  0  0  0  0  0  0
   49.9755   11.3276   11.2126 C   0  0  0  0  0  0  0  0  0  0  0  0
   49.4659   10.1140   11.6681 C   0  0  0  0  0  0  0  0  0  0  0  0
   48.0883    9.9656   11.8228 C   0  0  0  0  0  0  0  0  0  0  0  0
   47.1866   10.9561   11.5498 C   0  0  0  0  0  0  0  0  0  0  0  0
   47.6969   12.1630   11.0964 C   0  0  0  0  0  0  0  0  0  0  0  0
   50.9059   10.3599   14.0226 C   0  0  0  0  0  0  0  0  0  0  0  0
   50.9217    9.1378   13.3421 C   0  0  0  0  0  0  0  0  0  0  0  0
   50.3514    8.9592   11.9968 C   0  0  2  0  0  0  0  0  0  0  0  0
   51.4902    8.0873   14.0578 C   0  0  0  0  0  0  0  0  0  0  0  0
   51.9971    8.2357   15.3286 C   0  0  0  0  0  0  0  0  0  0  0  0
   51.9694    9.4502   15.9753 C   0  0  0  0  0  0  0  0  0  0  0  0
   51.4124   10.5057   15.2926 C   0  0  0  0  0  0  0  0  0  0  0  0
   52.4629    9.5951   17.2114 F   0  0  0  0  0  0  0  0  0  0  0  0
   50.4520    6.6350   16.7966 O   0  0  0  0  0  0  0  0  0  0  0  0
   51.6751    6.3134   16.7668 C   0  0  0  0  0  0  0  0  0  0  0  0
   52.5796    7.1061   16.0103 N   0  0  0  0  0  0  0  0  0  0  0  0
   49.6050   13.5746   10.4646 C   0  0  0  0  0  0  0  0  0  0  0  0
   50.0459   14.5975   10.0851 N   0  0  0  0  0  0  0  0  0  0  0  0
   51.3871    8.8472   11.0098 N   0  0  0  0  0  0  0  0  0  0  0  0
   52.3204    7.7690   11.1925 C   0  0  0  0  0  0  0  0  0  0  0  0
   53.2392    7.6892    9.9827 C   0  0  0  0  0  0  0  0  0  0  0  0
   52.6298    7.4441    8.6474 C   0  0  0  0  0  0  0  0  0  0  0  0
   53.1879    8.8116    8.9774 C   0  0  0  0  0  0  0  0  0  0  0  0
   52.1606    5.1339   17.5036 C   0  0  0  0  0  0  0  0  0  0  0  0
   53.4672    4.6698   17.5865 C   0  0  0  0  0  0  0  0  0  0  0  0
   53.4495    3.5314   18.3855 C   0  0  0  0  0  0  0  0  0  0  0  0
   52.1623    3.3465   18.7523 N   0  0  0  0  0  0  0  0  0  0  0  0
   51.4007    4.2911   18.2328 N   0  0  0  0  0  0  0  0  0  0  0  0
   54.6435    2.7151   18.7386 C   0  0  0  0  0  0  0  0  0  0  0  0
   55.5604    3.4806   19.4461 F   0  0  0  0  0  0  0  0  0  0  0  0
   54.2214    1.7256   19.6064 F   0  0  0  0  0  0  0  0  0  0  0  0
   55.2198    2.1149   17.6401 F   0  0  0  0  0  0  0  0  0  0  0  0
   49.9879    4.4768   18.3594 C   0  0  0  0  0  0  0  0  0  0  0  0
   49.4303    5.3101   19.3053 C   0  0  0  0  0  0  0  0  0  0  0  0
   49.1889    3.7644   17.4587 C   0  0  0  0  0  0  0  0  0  0  0  0
   47.8186    3.9250   17.5497 C   0  0  0  0  0  0  0  0  0  0  0  0
   47.2857    4.7547   18.4929 C   0  0  0  0  0  0  0  0  0  0  0  0
   48.0814    5.4533   19.3773 C   0  0  0  0  0  0  0  0  0  0  0  0
   47.4109    6.3413   20.3770 C   0  0  0  0  0  0  0  0  0  0  0  0
   47.1636    5.5293   21.5537 N   0  0  0  0  0  0  0  0  0  0  0  0
   50.6682    7.1559   15.4273 Cl  0  0  0  0  0  0  0  0  0  0  0  0
   50.8001    7.8010   14.2188 H   0  0  0  0  0  0  0  0  0  0  0  0
   51.0183   11.4887   11.0815 H   0  0  0  0  0  0  0  0  0  0  0  0
   47.6911    9.0204   12.1775 H   0  0  0  0  0  0  0  0  0  0  0  0
   46.1224   10.8434   11.6690 H   0  0  0  0  0  0  0  0  0  0  0  0
   47.0024   12.9804   10.8685 H   0  0  0  0  0  0  0  0  0  0  0  0
   50.4865   11.2417   13.5660 H   0  0  0  0  0  0  0  0  0  0  0  0
   49.6808    8.0479   11.9684 H   0  0  0  0  0  0  0  0  0  0  0  0
   51.5422    7.0736   13.6492 H   0  0  0  0  0  0  0  0  0  0  0  0
   51.3914   11.4747   15.8119 H   0  0  0  0  0  0  0  0  0  0  0  0
   53.6006    6.8958   15.9434 H   0  0  0  0  0  0  0  0  0  0  0  0
   51.9814    9.7228   11.0039 H   0  0  0  0  0  0  0  0  0  0  0  0
   51.8014    6.8125   11.3011 H   0  0  0  0  0  0  0  0  0  0  0  0
   52.9635    7.9912   12.1062 H   0  0  0  0  0  0  0  0  0  0  0  0
   54.2058    7.1713   10.1862 H   0  0  0  0  0  0  0  0  0  0  0  0
   53.2263    6.8502    7.9076 H   0  0  0  0  0  0  0  0  0  0  0  0
   51.5291    7.3429    8.6171 H   0  0  0  0  0  0  0  0  0  0  0  0
   52.4973    9.6526    9.0926 H   0  0  0  0  0  0  0  0  0  0  0  0
   54.1449    9.1062    8.4707 H   0  0  0  0  0  0  0  0  0  0  0  0
   54.3388    5.1216   17.1090 H   0  0  0  0  0  0  0  0  0  0  0  0
   50.0680    5.8568   19.9975 H   0  0  0  0  0  0  0  0  0  0  0  0
   49.6524    3.1058   16.7134 H   0  0  0  0  0  0  0  0  0  0  0  0
   47.1966    3.3652   16.8423 H   0  0  0  0  0  0  0  0  0  0  0  0
   46.2103    4.8768   18.5596 H   0  0  0  0  0  0  0  0  0  0  0  0
   46.4768    6.7307   19.9341 H   0  0  0  0  0  0  0  0  0  0  0  0
   48.0367    7.1893   20.6714 H   0  0  0  0  0  0  0  0  0  0  0  0
   47.1259    4.5148   21.3665 H   0  0  0  0  0  0  0  0  0  0  0  0
   47.6812    5.8264   22.3936 H   0  0  0  0  0  0  0  0  0  0  0  0
   50.7999    7.7999   14.2208 H   0  0  0  0  0  0  0  0  0  0  0  0
  2  3  2  0
  3  4  1  0
  4  5  2  0
  5  6  1  0
  6  7  2  0
  2  7  1  0
  8  9  2  0
  9 10  1  0
 10  4  1  0
 11 12  2  0
 12 13  1  0
 13 14  2  0
  8 14  1  0
  9 11  1  0
 16 17  2  0
 17 18  1  0
 15 13  1  0
 18 12  1  0
  2 19  1  0
 19 20  3  0
 10 21  1  0
 21 22  1  0
 22 23  1  0
 23 24  1  0
 23 25  1  0
 24 25  1  0
 17 26  1  0
 27 28  1  0
 28 29  2  0
 29 30  1  0
 30 26  1  0
 27 26  2  0
 28 31  1  0
 31 32  1  0
 31 33  1  0
 31 34  1  0
 30 35  1  0
 37 38  1  0
 38 39  2  0
 39 40  1  0
 36 40  2  0
 36 35  1  0
 35 37  2  0
 40 41  1  0
 41 42  1  0
  1 44  1  0
  3 45  1  0
  5 46  1  0
  6 47  1  0
  7 48  1  0
  8 49  1  0
 10 50  1  6
 11 51  1  0
 14 52  1  0
 18 53  1  0
 21 54  1  0
 22 55  1  0
 22 56  1  0
 23 57  1  0
 24 58  1  0
 24 59  1  0
 25 60  1  0
 25 61  1  0
 27 62  1  0
 36 63  1  0
 37 64  1  0
 38 65  1  0
 39 66  1  0
 41 67  1  0
 41 68  1  0
 42 69  1  0
 42 70  1  0
 43 71  1  0
M  END
> <Uni-Dock RESULT> 
ENERGY=   -4.811  LOWER_BOUND=    5.701  UPPER_BOUND=   10.073
INTER + INTRA:          -4.811
INTER:                  -4.811
INTRA:                   0.000
UNBOUND:                 0.000

$$$$

     RDKit          3D

 71 73  0  0  0  0  0  0  0  0999 V2000
   47.3854    9.1915   15.0435 Cl  0  0  0  0  0  0  0  0  0  0  0  0
   43.6741   10.9362    9.3118 C   0  0  0  0  0  0  0  0  0  0  0  0
   44.2480    9.8660   10.0061 C   0  0  0  0  0  0  0  0  0  0  0  0
   44.1376    9.8881   11.3944 C   0  0  0  0  0  0  0  0  0  0  0  0
   43.4769   10.9498   12.0110 C   0  0  0  0  0  0  0  0  0  0  0  0
   42.9184   11.9922   11.3256 C   0  0  0  0  0  0  0  0  0  0  0  0
   43.0298   11.9672    9.9437 C   0  0  0  0  0  0  0  0  0  0  0  0
   46.8974    9.9015   11.6427 C   0  0  0  0  0  0  0  0  0  0  0  0
   46.1490    9.0259   12.4364 C   0  0  0  0  0  0  0  0  0  0  0  0
   44.7056    8.8053   12.2493 C   0  0  2  0  0  0  0  0  0  0  0  0
   46.8746    8.4030   13.4486 C   0  0  0  0  0  0  0  0  0  0  0  0
   48.2171    8.6263   13.6529 C   0  0  0  0  0  0  0  0  0  0  0  0
   48.9300    9.4932   12.8564 C   0  0  0  0  0  0  0  0  0  0  0  0
   48.2385   10.1236   11.8491 C   0  0  0  0  0  0  0  0  0  0  0  0
   50.2361    9.7104   13.0545 F   0  0  0  0  0  0  0  0  0  0  0  0
   48.2962    9.7027   16.0901 O   0  0  0  0  0  0  0  0  0  0  0  0
   48.8958    8.5945   15.9779 C   0  0  0  0  0  0  0  0  0  0  0  0
   48.9096    7.9411   14.7163 N   0  0  0  0  0  0  0  0  0  0  0  0
   43.8029   10.8811    7.8809 C   0  0  0  0  0  0  0  0  0  0  0  0
   43.9059   10.8555    6.7089 N   0  0  0  0  0  0  0  0  0  0  0  0
   44.4546    7.5287   11.6436 N   0  0  0  0  0  0  0  0  0  0  0  0
   44.9424    6.3821   12.3607 C   0  0  0  0  0  0  0  0  0  0  0  0
   44.4502    5.1152   11.6773 C   0  0  0  0  0  0  0  0  0  0  0  0
   42.9824    4.8982   11.5640 C   0  0  0  0  0  0  0  0  0  0  0  0
   43.7862    5.2477   10.3302 C   0  0  0  0  0  0  0  0  0  0  0  0
   49.5714    7.9845   17.1360 C   0  0  0  0  0  0  0  0  0  0  0  0
   50.2857    6.7935   17.1651 C   0  0  0  0  0  0  0  0  0  0  0  0
   50.7405    6.6183   18.4679 C   0  0  0  0  0  0  0  0  0  0  0  0
   50.2970    7.6841   19.1700 N   0  0  0  0  0  0  0  0  0  0  0  0
   49.6071    8.4909   18.3857 N   0  0  0  0  0  0  0  0  0  0  0  0
   51.5549    5.4657   18.9423 C   0  0  0  0  0  0  0  0  0  0  0  0
   52.7662    5.4189   18.2657 F   0  0  0  0  0  0  0  0  0  0  0  0
   51.8665    5.7022   20.2679 F   0  0  0  0  0  0  0  0  0  0  0  0
   50.8781    4.2681   18.8603 F   0  0  0  0  0  0  0  0  0  0  0  0
   48.9592    9.7239   18.7122 C   0  0  0  0  0  0  0  0  0  0  0  0
   49.5602   10.9504   18.5269 C   0  0  0  0  0  0  0  0  0  0  0  0
   47.6641    9.6214   19.2314 C   0  0  0  0  0  0  0  0  0  0  0  0
   47.0065   10.7945   19.5528 C   0  0  0  0  0  0  0  0  0  0  0  0
   47.6183   11.9991   19.3620 C   0  0  0  0  0  0  0  0  0  0  0  0
   48.8961   12.0906   18.8495 C   0  0  0  0  0  0  0  0  0  0  0  0
   49.4875   13.4531   18.6726 C   0  0  0  0  0  0  0  0  0  0  0  0
   50.1773   13.7700   19.9091 N   0  0  0  0  0  0  0  0  0  0  0  0
   47.3840    9.1910   15.0418 Cl  0  0  0  0  0  0  0  0  0  0  0  0
   46.5768    8.8715   13.9738 H   0  0  0  0  0  0  0  0  0  0  0  0
   44.7448    9.0791    9.4917 H   0  0  0  0  0  0  0  0  0  0  0  0
   43.3908   10.9673   13.0924 H   0  0  0  0  0  0  0  0  0  0  0  0
   42.4081   12.8130   11.8001 H   0  0  0  0  0  0  0  0  0  0  0  0
   42.5942   12.7880    9.3615 H   0  0  0  0  0  0  0  0  0  0  0  0
   46.4379   10.4416   10.8308 H   0  0  0  0  0  0  0  0  0  0  0  0
   44.1609    8.8854   13.2382 H   0  0  0  0  0  0  0  0  0  0  0  0
   46.4025    7.7135   14.1551 H   0  0  0  0  0  0  0  0  0  0  0  0
   48.8106   10.8158   11.2145 H   0  0  0  0  0  0  0  0  0  0  0  0
   49.3854    7.0251   14.5559 H   0  0  0  0  0  0  0  0  0  0  0  0
   44.9231    7.4762   10.6962 H   0  0  0  0  0  0  0  0  0  0  0  0
   44.5861    6.3827   13.3946 H   0  0  0  0  0  0  0  0  0  0  0  0
   46.0810    6.3814   12.3207 H   0  0  0  0  0  0  0  0  0  0  0  0
   45.0659    4.2137   11.9054 H   0  0  0  0  0  0  0  0  0  0  0  0
   42.6107    3.8419   11.6087 H   0  0  0  0  0  0  0  0  0  0  0  0
   42.3317    5.6884   11.9821 H   0  0  0  0  0  0  0  0  0  0  0  0
   43.6368    6.2239    9.8589 H   0  0  0  0  0  0  0  0  0  0  0  0
   43.9509    4.4283    9.5814 H   0  0  0  0  0  0  0  0  0  0  0  0
   50.4529    6.1261   16.3175 H   0  0  0  0  0  0  0  0  0  0  0  0
   50.5684   11.0105   18.1213 H   0  0  0  0  0  0  0  0  0  0  0  0
   47.2036    8.6354   19.3716 H   0  0  0  0  0  0  0  0  0  0  0  0
   45.9924   10.7097   19.9591 H   0  0  0  0  0  0  0  0  0  0  0  0
   47.0977   12.9158   19.6158 H   0  0  0  0  0  0  0  0  0  0  0  0
   48.6731   14.1667   18.4536 H   0  0  0  0  0  0  0  0  0  0  0  0
   50.2141   13.4922   17.8553 H   0  0  0  0  0  0  0  0  0  0  0  0
   49.8362   13.2446   20.7296 H   0  0  0  0  0  0  0  0  0  0  0  0
   51.1984   13.8696   19.8146 H   0  0  0  0  0  0  0  0  0  0  0  0
   46.5782    8.8721   13.9755 H   0  0  0  0  0  0  0  0  0  0  0  0
  2  3  2  0
  3  4  1  0
  4  5  2  0
  5  6  1  0
  6  7  2  0
  2  7  1  0
  8  9  2  0
  9 10  1  0
 10  4  1  0
 11 12  2  0
 12 13  1  0
 13 14  2  0
  8 14  1  0
  9 11  1  0
 16 17  2  0
 17 18  1  0
 15 13  1  0
 18 12  1  0
  2 19  1  0
 19 20  3  0
 10 21  1  0
 21 22  1  0
 22 23  1  0
 23 24  1  0
 23 25  1  0
 24 25  1  0
 17 26  1  0
 27 28  1  0
 28 29  2  0
 29 30  1  0
 30 26  1  0
 27 26  2  0
 28 31  1  0
 31 32  1  0
 31 33  1  0
 31 34  1  0
 30 35  1  0
 37 38  1  0
 38 39  2  0
 39 40  1  0
 36 40  2  0
 36 35  1  0
 35 37  2  0
 40 41  1  0
 41 42  1  0
  1 44  1  0
  3 45  1  0
  5 46  1  0
  6 47  1  0
  7 48  1  0
  8 49  1  0
 10 50  1  6
 11 51  1  0
 14 52  1  0
 18 53  1  0
 21 54  1  0
 22 55  1  0
 22 56  1  0
 23 57  1  0
 24 58  1  0
 24 59  1  0
 25 60  1  0
 25 61  1  0
 27 62  1  0
 36 63  1  0
 37 64  1  0
 38 65  1  0
 39 66  1  0
 41 67  1  0
 41 68  1  0
 42 69  1  0
 42 70  1  0
 43 71  1  0
M  END
> <Uni-Dock RESULT> 
ENERGY=   -4.795  LOWER_BOUND=    3.144  UPPER_BOUND=   10.209
INTER + INTRA:          -4.795
INTER:                  -4.795
INTRA:                   0.000
UNBOUND:                 0.000

$$$$
