
     RDKit          3D

 71 73  0  0  0  0  0  0  0  0999 V2000
   49.9531    6.8879   15.3659 Cl  0  0  0  0  0  0  0  0  0  0  0  0
   50.7168    5.4437   22.2891 C   0  0  0  0  0  0  0  0  0  0  0  0
   50.6187    5.4895   20.9064 C   0  0  0  0  0  0  0  0  0  0  0  0
   51.6063    5.0139   20.0686 C   0  0  0  0  0  0  0  0  0  0  0  0
   52.7276    4.4770   20.7182 C   0  0  0  0  0  0  0  0  0  0  0  0
   52.8262    4.4314   22.0896 C   0  0  0  0  0  0  0  0  0  0  0  0
   51.8269    4.9116   22.9097 C   0  0  0  0  0  0  0  0  0  0  0  0
   51.6147    7.5100   18.9072 C   0  0  0  0  0  0  0  0  0  0  0  0
   51.4650    6.4040   18.0957 C   0  0  0  0  0  0  0  0  0  0  0  0
   51.5543    5.0071   18.6143 C   0  0  2  0  0  0  0  0  0  0  0  0
   51.2189    6.5846   16.7328 C   0  0  0  0  0  0  0  0  0  0  0  0
   51.1315    7.8682   16.2319 C   0  0  0  0  0  0  0  0  0  0  0  0
   51.2840    8.9837   17.0584 C   0  0  0  0  0  0  0  0  0  0  0  0
   51.5273    8.8132   18.4057 C   0  0  0  0  0  0  0  0  0  0  0  0
   51.1977   10.2401   16.5595 F   0  0  0  0  0  0  0  0  0  0  0  0
   53.1230    8.1374   14.4503 O   0  0  0  0  0  0  0  0  0  0  0  0
   51.9517    8.2857   13.9567 C   0  0  0  0  0  0  0  0  0  0  0  0
   50.8828    8.1520   14.8583 N   0  0  0  0  0  0  0  0  0  0  0  0
   49.6338    5.9643   23.0974 C   0  0  0  0  0  0  0  0  0  0  0  0
   48.7646    6.4009   23.7493 N   0  0  0  0  0  0  0  0  0  0  0  0
   50.5614    4.1469   18.1091 N   0  0  0  0  0  0  0  0  0  0  0  0
   49.2215    4.2804   18.5421 C   0  0  0  0  0  0  0  0  0  0  0  0
   48.3056    3.2916   17.7983 C   0  0  0  0  0  0  0  0  0  0  0  0
   48.2510    3.4183   16.3092 C   0  0  0  0  0  0  0  0  0  0  0  0
   48.8884    2.2237   16.9491 C   0  0  0  0  0  0  0  0  0  0  0  0
   51.8665    8.5684   12.5554 C   0  0  0  0  0  0  0  0  0  0  0  0
   52.9923    8.6808   11.7354 C   0  0  0  0  0  0  0  0  0  0  0  0
   52.5782    8.9583   10.4338 C   0  0  0  0  0  0  0  0  0  0  0  0
   51.2571    9.0069   10.4886 N   0  0  0  0  0  0  0  0  0  0  0  0
   50.8315    8.7760   11.7466 N   0  0  0  0  0  0  0  0  0  0  0  0
   53.4356    9.1573    9.2372 C   0  0  0  0  0  0  0  0  0  0  0  0
   54.5489    8.3470    9.3700 F   0  0  0  0  0  0  0  0  0  0  0  0
   52.7583    8.9101    8.0802 F   0  0  0  0  0  0  0  0  0  0  0  0
   53.9083   10.4640    9.3109 F   0  0  0  0  0  0  0  0  0  0  0  0
   49.4691    8.7724   12.0735 C   0  0  0  0  0  0  0  0  0  0  0  0
   48.7034    7.5980   12.0052 C   0  0  0  0  0  0  0  0  0  0  0  0
   48.8734    9.9725   12.4634 C   0  0  0  0  0  0  0  0  0  0  0  0
   47.5339   10.0164   12.7839 C   0  0  0  0  0  0  0  0  0  0  0  0
   46.7837    8.8446   12.7126 C   0  0  0  0  0  0  0  0  0  0  0  0
   47.3666    7.6383   12.3245 C   0  0  0  0  0  0  0  0  0  0  0  0
   46.4839    6.4473   12.2806 C   0  0  0  0  0  0  0  0  0  0  0  0
   46.4359    5.7253   13.5186 N   0  0  0  0  0  0  0  0  0  0  0  0
   49.9504    6.8910   15.3600 Cl  0  0  0  0  0  0  0  0  0  0  0  0
   50.4698    6.2928   16.4833 H   0  0  0  0  0  0  0  0  0  0  0  0
   49.7398    5.9341   20.5036 H   0  0  0  0  0  0  0  0  0  0  0  0
   53.5256    4.0934   20.1139 H   0  0  0  0  0  0  0  0  0  0  0  0
   53.6930    4.0161   22.5815 H   0  0  0  0  0  0  0  0  0  0  0  0
   51.9236    4.8659   23.9725 H   0  0  0  0  0  0  0  0  0  0  0  0
   51.8048    7.4089   19.9518 H   0  0  0  0  0  0  0  0  0  0  0  0
   52.5458    4.6359   18.2204 H   0  0  0  0  0  0  0  0  0  0  0  0
   51.0945    5.7519   16.0592 H   0  0  0  0  0  0  0  0  0  0  0  0
   51.6486    9.6644   19.0643 H   0  0  0  0  0  0  0  0  0  0  0  0
   49.9118    8.2620   14.5138 H   0  0  0  0  0  0  0  0  0  0  0  0
   50.6639    3.9082   17.0931 H   0  0  0  0  0  0  0  0  0  0  0  0
   49.1681    3.9083   19.5994 H   0  0  0  0  0  0  0  0  0  0  0  0
   48.7802    5.2788   18.4101 H   0  0  0  0  0  0  0  0  0  0  0  0
   47.3565    3.0181   18.3399 H   0  0  0  0  0  0  0  0  0  0  0  0
   47.2474    3.2529   15.8539 H   0  0  0  0  0  0  0  0  0  0  0  0
   48.8698    4.1467   15.7717 H   0  0  0  0  0  0  0  0  0  0  0  0
   48.3131    1.2526   16.8694 H   0  0  0  0  0  0  0  0  0  0  0  0
   49.9691    2.0375   16.8538 H   0  0  0  0  0  0  0  0  0  0  0  0
   54.0324    8.5849   11.9818 H   0  0  0  0  0  0  0  0  0  0  0  0
   49.1445    6.6571   11.7054 H   0  0  0  0  0  0  0  0  0  0  0  0
   49.4777   10.8801   12.5129 H   0  0  0  0  0  0  0  0  0  0  0  0
   47.1057   10.9603   13.0810 H   0  0  0  0  0  0  0  0  0  0  0  0
   45.7292    8.8705   12.9630 H   0  0  0  0  0  0  0  0  0  0  0  0
   46.8687    5.7458   11.4841 H   0  0  0  0  0  0  0  0  0  0  0  0
   45.4431    6.7184   11.9889 H   0  0  0  0  0  0  0  0  0  0  0  0
   45.4809    5.3719   13.6893 H   0  0  0  0  0  0  0  0  0  0  0  0
   47.1735    4.9859   13.5884 H   0  0  0  0  0  0  0  0  0  0  0  0
   50.4725    6.2896   16.4892 H   0  0  0  0  0  0  0  0  0  0  0  0
  2  3  2  0
  3  4  1  0
  4  5  2  0
  5  6  1  0
  6  7  2  0
  2  7  1  0
  8  9  2  0
  9 10  1  0
 10  4  1  0
 11 12  2  0
 12 13  1  0
 13 14  2  0
  8 14  1  0
  9 11  1  0
 16 17  2  0
 17 18  1  0
 15 13  1  0
 18 12  1  0
  2 19  1  0
 19 20  3  0
 10 21  1  0
 21 22  1  0
 22 23  1  0
 23 24  1  0
 23 25  1  0
 24 25  1  0
 17 26  1  0
 27 28  1  0
 28 29  2  0
 29 30  1  0
 30 26  1  0
 27 26  2  0
 28 31  1  0
 31 32  1  0
 31 33  1  0
 31 34  1  0
 30 35  1  0
 37 38  1  0
 38 39  2  0
 39 40  1  0
 36 40  2  0
 36 35  1  0
 35 37  2  0
 40 41  1  0
 41 42  1  0
  1 44  1  0
  3 45  1  0
  5 46  1  0
  6 47  1  0
  7 48  1  0
  8 49  1  0
 10 50  1  1
 11 51  1  0
 14 52  1  0
 18 53  1  0
 21 54  1  0
 22 55  1  0
 22 56  1  0
 23 57  1  0
 24 58  1  0
 24 59  1  0
 25 60  1  0
 25 61  1  0
 27 62  1  0
 36 63  1  0
 37 64  1  0
 38 65  1  0
 39 66  1  0
 41 67  1  0
 41 68  1  0
 42 69  1  0
 42 70  1  0
 43 71  1  0
M  END
> <Uni-Dock RESULT> 
ENERGY=   -5.151  LOWER_BOUND=    0.000  UPPER_BOUND=    0.000
INTER + INTRA:          -5.151
INTER:                  -5.151
INTRA:                   0.000
UNBOUND:                 0.000

$$$$

     RDKit          3D

 71 73  0  0  0  0  0  0  0  0999 V2000
   47.7070   12.1533    9.2385 Cl  0  0  0  0  0  0  0  0  0  0  0  0
   54.1278    9.9402    7.1232 C   0  0  0  0  0  0  0  0  0  0  0  0
   52.9187   10.5639    7.3925 C   0  0  0  0  0  0  0  0  0  0  0  0
   52.8281   11.8777    7.8038 C   0  0  0  0  0  0  0  0  0  0  0  0
   54.0553   12.5448    7.9332 C   0  0  0  0  0  0  0  0  0  0  0  0
   55.2552   11.9271    7.6667 C   0  0  0  0  0  0  0  0  0  0  0  0
   55.3241   10.6125    7.2555 C   0  0  0  0  0  0  0  0  0  0  0  0
   51.4076   10.9450    9.9698 C   0  0  0  0  0  0  0  0  0  0  0  0
   50.8583   11.9525    9.2033 C   0  0  0  0  0  0  0  0  0  0  0  0
   51.5934   12.5982    8.0759 C   0  0  2  0  0  0  0  0  0  0  0  0
   49.5631   12.3946    9.4822 C   0  0  0  0  0  0  0  0  0  0  0  0
   48.8645   11.8106   10.5200 C   0  0  0  0  0  0  0  0  0  0  0  0
   49.4260   10.7913   11.2923 C   0  0  0  0  0  0  0  0  0  0  0  0
   50.7048   10.3493   11.0228 C   0  0  0  0  0  0  0  0  0  0  0  0
   48.7347   10.2237   12.3095 F   0  0  0  0  0  0  0  0  0  0  0  0
   48.3791   13.7522   12.3110 O   0  0  0  0  0  0  0  0  0  0  0  0
   47.3269   13.2139   11.8202 C   0  0  0  0  0  0  0  0  0  0  0  0
   47.5402   12.1933   10.8788 N   0  0  0  0  0  0  0  0  0  0  0  0
   54.1355    8.5567    6.6948 C   0  0  0  0  0  0  0  0  0  0  0  0
   54.1409    7.4334    6.3648 N   0  0  0  0  0  0  0  0  0  0  0  0
   50.8110   12.7926    6.9223 N   0  0  0  0  0  0  0  0  0  0  0  0
   50.4432   11.6863    6.1212 C   0  0  0  0  0  0  0  0  0  0  0  0
   49.5266   12.1286    4.9662 C   0  0  0  0  0  0  0  0  0  0  0  0
   48.2370   12.7833    5.3465 C   0  0  0  0  0  0  0  0  0  0  0  0
   49.3233   13.5701    4.6805 C   0  0  0  0  0  0  0  0  0  0  0  0
   46.0655   13.7092   12.2829 C   0  0  0  0  0  0  0  0  0  0  0  0
   45.9540   14.7351   13.2250 C   0  0  0  0  0  0  0  0  0  0  0  0
   44.6039   14.9857   13.4636 C   0  0  0  0  0  0  0  0  0  0  0  0
   43.9473   14.1372   12.6892 N   0  0  0  0  0  0  0  0  0  0  0  0
   44.8120   13.3781   11.9871 N   0  0  0  0  0  0  0  0  0  0  0  0
   44.0225   15.9913   14.3896 C   0  0  0  0  0  0  0  0  0  0  0  0
   44.8663   17.0872   14.4142 F   0  0  0  0  0  0  0  0  0  0  0  0
   42.7510   16.3326   14.0355 F   0  0  0  0  0  0  0  0  0  0  0  0
   44.0911   15.4328   15.6623 F   0  0  0  0  0  0  0  0  0  0  0  0
   44.3695   12.3972   11.0899 C   0  0  0  0  0  0  0  0  0  0  0  0
   44.1274   12.6962    9.7400 C   0  0  0  0  0  0  0  0  0  0  0  0
   44.1600   11.1026   11.5667 C   0  0  0  0  0  0  0  0  0  0  0  0
   43.7155   10.1096   10.7210 C   0  0  0  0  0  0  0  0  0  0  0  0
   43.4785   10.4177    9.3832 C   0  0  0  0  0  0  0  0  0  0  0  0
   43.6839   11.7075    8.8935 C   0  0  0  0  0  0  0  0  0  0  0  0
   43.4036   11.9342    7.4549 C   0  0  0  0  0  0  0  0  0  0  0  0
   44.5404   11.7131    6.6092 N   0  0  0  0  0  0  0  0  0  0  0  0
   47.7001   12.1528    9.2405 Cl  0  0  0  0  0  0  0  0  0  0  0  0
   49.0164   12.2541    8.8577 H   0  0  0  0  0  0  0  0  0  0  0  0
   52.0409    9.9717    7.2867 H   0  0  0  0  0  0  0  0  0  0  0  0
   54.0424   13.5686    8.2506 H   0  0  0  0  0  0  0  0  0  0  0  0
   56.1954   12.4482    7.7686 H   0  0  0  0  0  0  0  0  0  0  0  0
   56.2665   10.1523    7.0533 H   0  0  0  0  0  0  0  0  0  0  0  0
   52.3942   10.5841    9.7855 H   0  0  0  0  0  0  0  0  0  0  0  0
   51.8546   13.6220    8.4754 H   0  0  0  0  0  0  0  0  0  0  0  0
   49.0913   13.1783    8.9114 H   0  0  0  0  0  0  0  0  0  0  0  0
   51.1592    9.5601   11.6092 H   0  0  0  0  0  0  0  0  0  0  0  0
   46.7240   11.7217   10.4483 H   0  0  0  0  0  0  0  0  0  0  0  0
   50.0643   13.5228    7.0171 H   0  0  0  0  0  0  0  0  0  0  0  0
   51.3625   11.3398    5.5790 H   0  0  0  0  0  0  0  0  0  0  0  0
   49.9181   10.8764    6.6476 H   0  0  0  0  0  0  0  0  0  0  0  0
   49.5291   11.4505    4.0666 H   0  0  0  0  0  0  0  0  0  0  0  0
   47.3624   12.5185    4.7086 H   0  0  0  0  0  0  0  0  0  0  0  0
   47.9808   12.9819    6.3941 H   0  0  0  0  0  0  0  0  0  0  0  0
   49.1341   13.8640    3.6043 H   0  0  0  0  0  0  0  0  0  0  0  0
   49.8454   14.3802    5.2125 H   0  0  0  0  0  0  0  0  0  0  0  0
   46.7222   15.2897   13.7292 H   0  0  0  0  0  0  0  0  0  0  0  0
   44.2829   13.6926    9.3493 H   0  0  0  0  0  0  0  0  0  0  0  0
   44.3511   10.8807   12.6181 H   0  0  0  0  0  0  0  0  0  0  0  0
   43.5639    9.1204   11.1225 H   0  0  0  0  0  0  0  0  0  0  0  0
   43.1285    9.6423    8.7112 H   0  0  0  0  0  0  0  0  0  0  0  0
   43.0728   13.0051    7.3191 H   0  0  0  0  0  0  0  0  0  0  0  0
   42.5652   11.2948    7.0944 H   0  0  0  0  0  0  0  0  0  0  0  0
   44.2462   11.2713    5.7235 H   0  0  0  0  0  0  0  0  0  0  0  0
   45.1216   12.5731    6.4740 H   0  0  0  0  0  0  0  0  0  0  0  0
   49.0233   12.2546    8.8557 H   0  0  0  0  0  0  0  0  0  0  0  0
  2  3  2  0
  3  4  1  0
  4  5  2  0
  5  6  1  0
  6  7  2  0
  2  7  1  0
  8  9  2  0
  9 10  1  0
 10  4  1  0
 11 12  2  0
 12 13  1  0
 13 14  2  0
  8 14  1  0
  9 11  1  0
 16 17  2  0
 17 18  1  0
 15 13  1  0
 18 12  1  0
  2 19  1  0
 19 20  3  0
 10 21  1  0
 21 22  1  0
 22 23  1  0
 23 24  1  0
 23 25  1  0
 24 25  1  0
 17 26  1  0
 27 28  1  0
 28 29  2  0
 29 30  1  0
 30 26  1  0
 27 26  2  0
 28 31  1  0
 31 32  1  0
 31 33  1  0
 31 34  1  0
 30 35  1  0
 37 38  1  0
 38 39  2  0
 39 40  1  0
 36 40  2  0
 36 35  1  0
 35 37  2  0
 40 41  1  0
 41 42  1  0
  1 44  1  0
  3 45  1  0
  5 46  1  0
  6 47  1  0
  7 48  1  0
  8 49  1  0
 10 50  1  1
 11 51  1  0
 14 52  1  0
 18 53  1  0
 21 54  1  0
 22 55  1  0
 22 56  1  0
 23 57  1  0
 24 58  1  0
 24 59  1  0
 25 60  1  0
 25 61  1  0
 27 62  1  0
 36 63  1  0
 37 64  1  0
 38 65  1  0
 39 66  1  0
 41 67  1  0
 41 68  1  0
 42 69  1  0
 42 70  1  0
 43 71  1  0
M  END
> <Uni-Dock RESULT> 
ENERGY=   -4.957  LOWER_BOUND=    7.952  UPPER_BOUND=   11.436
INTER + INTRA:          -4.957
INTER:                  -4.957
INTRA:                   0.000
UNBOUND:                 0.000

$$$$

     RDKit          3D

 71 73  0  0  0  0  0  0  0  0999 V2000
   51.5160    6.7909   16.9112 Cl  0  0  0  0  0  0  0  0  0  0  0  0
   55.0144    0.6355   17.5981 C   0  0  0  0  0  0  0  0  0  0  0  0
   54.5223    1.9321   17.5819 C   0  0  0  0  0  0  0  0  0  0  0  0
   54.4231    2.7105   18.7167 C   0  0  0  0  0  0  0  0  0  0  0  0
   54.8572    2.0934   19.8993 C   0  0  0  0  0  0  0  0  0  0  0  0
   55.3451    0.8074   19.9166 C   0  0  0  0  0  0  0  0  0  0  0  0
   55.4370    0.0459   18.7705 C   0  0  0  0  0  0  0  0  0  0  0  0
   51.7596    3.0178   18.0916 C   0  0  0  0  0  0  0  0  0  0  0  0
   52.5203    4.1470   18.3159 C   0  0  0  0  0  0  0  0  0  0  0  0
   53.9427    4.0834   18.7643 C   0  0  2  0  0  0  0  0  0  0  0  0
   51.9491    5.4062   18.1185 C   0  0  0  0  0  0  0  0  0  0  0  0
   50.6351    5.4884   17.7031 C   0  0  0  0  0  0  0  0  0  0  0  0
   49.8702    4.3417   17.4777 C   0  0  0  0  0  0  0  0  0  0  0  0
   50.4275    3.0945   17.6705 C   0  0  0  0  0  0  0  0  0  0  0  0
   48.5812    4.4303   17.0709 F   0  0  0  0  0  0  0  0  0  0  0  0
   49.2900    6.7609   19.6483 O   0  0  0  0  0  0  0  0  0  0  0  0
   49.2739    7.3609   18.5182 C   0  0  0  0  0  0  0  0  0  0  0  0
   49.9674    6.7257   17.4746 N   0  0  0  0  0  0  0  0  0  0  0  0
   55.0861   -0.1144   16.3612 C   0  0  0  0  0  0  0  0  0  0  0  0
   55.1278   -0.7250   15.3631 N   0  0  0  0  0  0  0  0  0  0  0  0
   54.7930    4.9812   18.0921 N   0  0  0  0  0  0  0  0  0  0  0  0
   55.1499    4.7442   16.7441 C   0  0  0  0  0  0  0  0  0  0  0  0
   56.0160    5.8937   16.1978 C   0  0  0  0  0  0  0  0  0  0  0  0
   55.4034    7.2578   16.2072 C   0  0  0  0  0  0  0  0  0  0  0  0
   56.5493    6.9312   17.1144 C   0  0  0  0  0  0  0  0  0  0  0  0
   48.5575    8.5989   18.4482 C   0  0  0  0  0  0  0  0  0  0  0  0
   47.8975    9.1553   19.5469 C   0  0  0  0  0  0  0  0  0  0  0  0
   47.3008   10.3532   19.1573 C   0  0  0  0  0  0  0  0  0  0  0  0
   47.6001   10.4941   17.8763 N   0  0  0  0  0  0  0  0  0  0  0  0
   48.3460    9.4544   17.4523 N   0  0  0  0  0  0  0  0  0  0  0  0
   46.4988   11.2776   19.9994 C   0  0  0  0  0  0  0  0  0  0  0  0
   47.0053   11.2313   21.2859 F   0  0  0  0  0  0  0  0  0  0  0  0
   46.4921   12.5451   19.4977 F   0  0  0  0  0  0  0  0  0  0  0  0
   45.2234   10.7262   20.0754 F   0  0  0  0  0  0  0  0  0  0  0  0
   48.7963    9.3632   16.1287 C   0  0  0  0  0  0  0  0  0  0  0  0
   50.0257    9.9141   15.7345 C   0  0  0  0  0  0  0  0  0  0  0  0
   47.9887    8.7166   15.1923 C   0  0  0  0  0  0  0  0  0  0  0  0
   48.3881    8.6129   13.8775 C   0  0  0  0  0  0  0  0  0  0  0  0
   49.6102    9.1634   13.4976 C   0  0  0  0  0  0  0  0  0  0  0  0
   50.4272    9.8123   14.4234 C   0  0  0  0  0  0  0  0  0  0  0  0
   51.7087   10.3639   13.9204 C   0  0  0  0  0  0  0  0  0  0  0  0
   52.8001    9.4370   13.9984 N   0  0  0  0  0  0  0  0  0  0  0  0
   51.5118    6.7959   16.9081 Cl  0  0  0  0  0  0  0  0  0  0  0  0
   52.3122    5.8487   17.5013 H   0  0  0  0  0  0  0  0  0  0  0  0
   54.1969    2.3086   16.6413 H   0  0  0  0  0  0  0  0  0  0  0  0
   54.8013    2.6541   20.8111 H   0  0  0  0  0  0  0  0  0  0  0  0
   55.6775    0.3400   20.8314 H   0  0  0  0  0  0  0  0  0  0  0  0
   55.8196   -0.9507   18.8062 H   0  0  0  0  0  0  0  0  0  0  0  0
   52.1631    2.0408   18.2337 H   0  0  0  0  0  0  0  0  0  0  0  0
   53.9003    4.4127   19.8440 H   0  0  0  0  0  0  0  0  0  0  0  0
   52.5033    6.3169   18.2804 H   0  0  0  0  0  0  0  0  0  0  0  0
   49.8522    2.1925   17.5015 H   0  0  0  0  0  0  0  0  0  0  0  0
   49.9880    7.1667   16.5371 H   0  0  0  0  0  0  0  0  0  0  0  0
   54.6354    5.9916   18.3247 H   0  0  0  0  0  0  0  0  0  0  0  0
   55.8634    3.8782   16.7294 H   0  0  0  0  0  0  0  0  0  0  0  0
   54.3081    4.6254   16.0469 H   0  0  0  0  0  0  0  0  0  0  0  0
   56.6832    5.6207   15.3322 H   0  0  0  0  0  0  0  0  0  0  0  0
   55.6437    7.8937   15.3241 H   0  0  0  0  0  0  0  0  0  0  0  0
   54.4064    7.4368   16.6274 H   0  0  0  0  0  0  0  0  0  0  0  0
   57.5437    7.3995   16.8453 H   0  0  0  0  0  0  0  0  0  0  0  0
   56.4197    6.9090   18.2073 H   0  0  0  0  0  0  0  0  0  0  0  0
   47.8133    8.7911   20.5530 H   0  0  0  0  0  0  0  0  0  0  0  0
   50.6672   10.4195   16.4435 H   0  0  0  0  0  0  0  0  0  0  0  0
   47.0345    8.2919   15.5091 H   0  0  0  0  0  0  0  0  0  0  0  0
   47.7397    8.1071   13.1802 H   0  0  0  0  0  0  0  0  0  0  0  0
   49.9319    9.0863   12.4652 H   0  0  0  0  0  0  0  0  0  0  0  0
   51.9767   11.2688   14.5401 H   0  0  0  0  0  0  0  0  0  0  0  0
   51.6187   10.7159   12.8670 H   0  0  0  0  0  0  0  0  0  0  0  0
   53.4137    9.5374   13.1742 H   0  0  0  0  0  0  0  0  0  0  0  0
   53.3131    9.4867   14.9096 H   0  0  0  0  0  0  0  0  0  0  0  0
   52.3164    5.8438   17.5044 H   0  0  0  0  0  0  0  0  0  0  0  0
  2  3  2  0
  3  4  1  0
  4  5  2  0
  5  6  1  0
  6  7  2  0
  2  7  1  0
  8  9  2  0
  9 10  1  0
 10  4  1  0
 11 12  2  0
 12 13  1  0
 13 14  2  0
  8 14  1  0
  9 11  1  0
 16 17  2  0
 17 18  1  0
 15 13  1  0
 18 12  1  0
  2 19  1  0
 19 20  3  0
 10 21  1  0
 21 22  1  0
 22 23  1  0
 23 24  1  0
 23 25  1  0
 24 25  1  0
 17 26  1  0
 27 28  1  0
 28 29  2  0
 29 30  1  0
 30 26  1  0
 27 26  2  0
 28 31  1  0
 31 32  1  0
 31 33  1  0
 31 34  1  0
 30 35  1  0
 37 38  1  0
 38 39  2  0
 39 40  1  0
 36 40  2  0
 36 35  1  0
 35 37  2  0
 40 41  1  0
 41 42  1  0
  1 44  1  0
  3 45  1  0
  5 46  1  0
  6 47  1  0
  7 48  1  0
  8 49  1  0
 10 50  1  1
 11 51  1  0
 14 52  1  0
 18 53  1  0
 21 54  1  0
 22 55  1  0
 22 56  1  0
 23 57  1  0
 24 58  1  0
 24 59  1  0
 25 60  1  0
 25 61  1  0
 27 62  1  0
 36 63  1  0
 37 64  1  0
 38 65  1  0
 39 66  1  0
 41 67  1  0
 41 68  1  0
 42 69  1  0
 42 70  1  0
 43 71  1  0
M  END
> <Uni-Dock RESULT> 
ENERGY=   -4.911  LOWER_BOUND=    4.256  UPPER_BOUND=    7.260
INTER + INTRA:          -4.911
INTER:                  -4.911
INTRA:                   0.000
UNBOUND:                 0.000

$$$$

     RDKit          3D

 71 73  0  0  0  0  0  0  0  0999 V2000
   50.5585    6.6941   15.8208 Cl  0  0  0  0  0  0  0  0  0  0  0  0
   52.6980   10.3310   10.0941 C   0  0  0  0  0  0  0  0  0  0  0  0
   52.1037    9.7884   11.2236 C   0  0  0  0  0  0  0  0  0  0  0  0
   51.8140   10.5322   12.3490 C   0  0  0  0  0  0  0  0  0  0  0  0
   52.1667   11.8877   12.2712 C   0  0  0  0  0  0  0  0  0  0  0  0
   52.7565   12.4269   11.1515 C   0  0  0  0  0  0  0  0  0  0  0  0
   53.0370   11.6660   10.0360 C   0  0  0  0  0  0  0  0  0  0  0  0
   53.2922    8.6904   13.7639 C   0  0  0  0  0  0  0  0  0  0  0  0
   52.0096    8.9737   14.1867 C   0  0  0  0  0  0  0  0  0  0  0  0
   51.1685   10.0319   13.5535 C   0  0  2  0  0  0  0  0  0  0  0  0
   51.4640    8.2481   15.2482 C   0  0  0  0  0  0  0  0  0  0  0  0
   52.2241    7.2640   15.8481 C   0  0  0  0  0  0  0  0  0  0  0  0
   53.5218    6.9820   15.4156 C   0  0  0  0  0  0  0  0  0  0  0  0
   54.0675    7.6944   14.3677 C   0  0  0  0  0  0  0  0  0  0  0  0
   54.2619    6.0154   16.0096 F   0  0  0  0  0  0  0  0  0  0  0  0
   52.5688    8.0080   18.4055 O   0  0  0  0  0  0  0  0  0  0  0  0
   51.9538    6.8953   18.2594 C   0  0  0  0  0  0  0  0  0  0  0  0
   51.7541    6.4722   16.9349 N   0  0  0  0  0  0  0  0  0  0  0  0
   52.9680    9.4805    8.9534 C   0  0  0  0  0  0  0  0  0  0  0  0
   53.2009    8.7880    8.0385 N   0  0  0  0  0  0  0  0  0  0  0  0
   49.8335    9.6439   13.3345 N   0  0  0  0  0  0  0  0  0  0  0  0
   49.5247    8.7119   12.3162 C   0  0  0  0  0  0  0  0  0  0  0  0
   48.0213    8.3806   12.3162 C   0  0  0  0  0  0  0  0  0  0  0  0
   47.4651    7.7883   13.5716 C   0  0  0  0  0  0  0  0  0  0  0  0
   47.0795    9.1713   13.1460 C   0  0  0  0  0  0  0  0  0  0  0  0
   51.5441    6.2163   19.4518 C   0  0  0  0  0  0  0  0  0  0  0  0
   51.7870    6.7203   20.7321 C   0  0  0  0  0  0  0  0  0  0  0  0
   51.2689    5.8329   21.6737 C   0  0  0  0  0  0  0  0  0  0  0  0
   50.7412    4.8439   20.9708 N   0  0  0  0  0  0  0  0  0  0  0  0
   50.9029    5.0684   19.6515 N   0  0  0  0  0  0  0  0  0  0  0  0
   51.3005    5.9665   23.1529 C   0  0  0  0  0  0  0  0  0  0  0  0
   51.2149    7.3121   23.4620 F   0  0  0  0  0  0  0  0  0  0  0  0
   50.3128    5.2407   23.7496 F   0  0  0  0  0  0  0  0  0  0  0  0
   52.5725    5.5672   23.5518 F   0  0  0  0  0  0  0  0  0  0  0  0
   50.4311    4.1670   18.6883 C   0  0  0  0  0  0  0  0  0  0  0  0
   49.1351    4.2729   18.1599 C   0  0  0  0  0  0  0  0  0  0  0  0
   51.2766    3.1413   18.2636 C   0  0  0  0  0  0  0  0  0  0  0  0
   50.8496    2.2267   17.3255 C   0  0  0  0  0  0  0  0  0  0  0  0
   49.5613    2.3415   16.8078 C   0  0  0  0  0  0  0  0  0  0  0  0
   48.7060    3.3619   17.2236 C   0  0  0  0  0  0  0  0  0  0  0  0
   47.3551    3.3989   16.6128 C   0  0  0  0  0  0  0  0  0  0  0  0
   47.2898    4.1868   15.4164 N   0  0  0  0  0  0  0  0  0  0  0  0
   50.5573    6.6884   15.8250 Cl  0  0  0  0  0  0  0  0  0  0  0  0
   50.7940    7.7864   15.0326 H   0  0  0  0  0  0  0  0  0  0  0  0
   51.8912    8.7460   11.1985 H   0  0  0  0  0  0  0  0  0  0  0  0
   51.9639   12.5114   13.1190 H   0  0  0  0  0  0  0  0  0  0  0  0
   53.0244   13.4715   11.1000 H   0  0  0  0  0  0  0  0  0  0  0  0
   53.4950   12.1050    9.1767 H   0  0  0  0  0  0  0  0  0  0  0  0
   53.7405    9.2255   12.9575 H   0  0  0  0  0  0  0  0  0  0  0  0
   51.1512   10.8590   14.3226 H   0  0  0  0  0  0  0  0  0  0  0  0
   50.4665    8.4327   15.6137 H   0  0  0  0  0  0  0  0  0  0  0  0
   55.0719    7.4918   14.0165 H   0  0  0  0  0  0  0  0  0  0  0  0
   51.2615    5.5781   16.7568 H   0  0  0  0  0  0  0  0  0  0  0  0
   49.2600    9.5355   14.2058 H   0  0  0  0  0  0  0  0  0  0  0  0
   49.6561    9.2311   11.3301 H   0  0  0  0  0  0  0  0  0  0  0  0
   50.0586    7.7527   12.3767 H   0  0  0  0  0  0  0  0  0  0  0  0
   47.6122    8.0133   11.3329 H   0  0  0  0  0  0  0  0  0  0  0  0
   46.6939    6.9974   13.4238 H   0  0  0  0  0  0  0  0  0  0  0  0
   48.0872    7.6433   14.4630 H   0  0  0  0  0  0  0  0  0  0  0  0
   46.0237    9.2943   12.7579 H   0  0  0  0  0  0  0  0  0  0  0  0
   47.3744   10.0507   13.7388 H   0  0  0  0  0  0  0  0  0  0  0  0
   52.2800    7.6258   21.0306 H   0  0  0  0  0  0  0  0  0  0  0  0
   48.4632    5.0597   18.4749 H   0  0  0  0  0  0  0  0  0  0  0  0
   52.2824    3.0678   18.6810 H   0  0  0  0  0  0  0  0  0  0  0  0
   51.5286    1.4468   17.0198 H   0  0  0  0  0  0  0  0  0  0  0  0
   49.2175    1.6260   16.0695 H   0  0  0  0  0  0  0  0  0  0  0  0
   46.6359    3.8434   17.3610 H   0  0  0  0  0  0  0  0  0  0  0  0
   46.9807    2.3749   16.3824 H   0  0  0  0  0  0  0  0  0  0  0  0
   46.6577    3.7436   14.7308 H   0  0  0  0  0  0  0  0  0  0  0  0
   47.0657    5.1923   15.6020 H   0  0  0  0  0  0  0  0  0  0  0  0
   50.7952    7.7921   15.0284 H   0  0  0  0  0  0  0  0  0  0  0  0
  2  3  2  0
  3  4  1  0
  4  5  2  0
  5  6  1  0
  6  7  2  0
  2  7  1  0
  8  9  2  0
  9 10  1  0
 10  4  1  0
 11 12  2  0
 12 13  1  0
 13 14  2  0
  8 14  1  0
  9 11  1  0
 16 17  2  0
 17 18  1  0
 15 13  1  0
 18 12  1  0
  2 19  1  0
 19 20  3  0
 10 21  1  0
 21 22  1  0
 22 23  1  0
 23 24  1  0
 23 25  1  0
 24 25  1  0
 17 26  1  0
 27 28  1  0
 28 29  2  0
 29 30  1  0
 30 26  1  0
 27 26  2  0
 28 31  1  0
 31 32  1  0
 31 33  1  0
 31 34  1  0
 30 35  1  0
 37 38  1  0
 38 39  2  0
 39 40  1  0
 36 40  2  0
 36 35  1  0
 35 37  2  0
 40 41  1  0
 41 42  1  0
  1 44  1  0
  3 45  1  0
  5 46  1  0
  6 47  1  0
  7 48  1  0
  8 49  1  0
 10 50  1  1
 11 51  1  0
 14 52  1  0
 18 53  1  0
 21 54  1  0
 22 55  1  0
 22 56  1  0
 23 57  1  0
 24 58  1  0
 24 59  1  0
 25 60  1  0
 25 61  1  0
 27 62  1  0
 36 63  1  0
 37 64  1  0
 38 65  1  0
 39 66  1  0
 41 67  1  0
 41 68  1  0
 42 69  1  0
 42 70  1  0
 43 71  1  0
M  END
> <Uni-Dock RESULT> 
ENERGY=   -4.806  LOWER_BOUND=    2.943  UPPER_BOUND=    9.294
INTER + INTRA:          -4.806
INTER:                  -4.806
INTRA:                   0.000
UNBOUND:                 0.000

$$$$

     RDKit          3D

 71 73  0  0  0  0  0  0  0  0999 V2000
   48.8379   11.4327   14.6345 Cl  0  0  0  0  0  0  0  0  0  0  0  0
   49.0455    4.7547   17.0762 C   0  0  0  0  0  0  0  0  0  0  0  0
   49.2010    5.9927   16.4706 C   0  0  0  0  0  0  0  0  0  0  0  0
   50.3956    6.6828   16.4710 C   0  0  0  0  0  0  0  0  0  0  0  0
   51.4518    6.0400   17.1337 C   0  0  0  0  0  0  0  0  0  0  0  0
   51.2987    4.8123   17.7350 C   0  0  0  0  0  0  0  0  0  0  0  0
   50.0957    4.1383   17.7226 C   0  0  0  0  0  0  0  0  0  0  0  0
   49.0075    8.7871   17.5775 C   0  0  0  0  0  0  0  0  0  0  0  0
   49.7616    9.0155   16.4446 C   0  0  0  0  0  0  0  0  0  0  0  0
   50.6326    7.9690   15.8328 C   0  0  2  0  0  0  0  0  0  0  0  0
   49.7166   10.2717   15.8356 C   0  0  0  0  0  0  0  0  0  0  0  0
   48.9170   11.2543   16.3842 C   0  0  0  0  0  0  0  0  0  0  0  0
   48.1561   11.0169   17.5311 C   0  0  0  0  0  0  0  0  0  0  0  0
   48.1952    9.7786   18.1383 C   0  0  0  0  0  0  0  0  0  0  0  0
   47.3743   11.9862   18.0642 F   0  0  0  0  0  0  0  0  0  0  0  0
   50.5506   13.2532   17.1245 O   0  0  0  0  0  0  0  0  0  0  0  0
   49.6791   13.5832   16.2475 C   0  0  0  0  0  0  0  0  0  0  0  0
   48.8056   12.5636   15.8344 N   0  0  0  0  0  0  0  0  0  0  0  0
   47.7566    4.0960   17.0296 C   0  0  0  0  0  0  0  0  0  0  0  0
   46.7095    3.5726   17.0054 N   0  0  0  0  0  0  0  0  0  0  0  0
   50.5462    7.9044   14.4295 N   0  0  0  0  0  0  0  0  0  0  0  0
   49.3867    7.3769   13.8147 C   0  0  0  0  0  0  0  0  0  0  0  0
   49.4849    7.4815   12.2820 C   0  0  0  0  0  0  0  0  0  0  0  0
   49.6401    8.8554   11.7123 C   0  0  0  0  0  0  0  0  0  0  0  0
   50.7640    7.8684   11.6376 C   0  0  0  0  0  0  0  0  0  0  0  0
   49.6947   14.9410   15.7926 C   0  0  0  0  0  0  0  0  0  0  0  0
   50.6090   15.8871   16.2631 C   0  0  0  0  0  0  0  0  0  0  0  0
   50.3657   17.1051   15.6307 C   0  0  0  0  0  0  0  0  0  0  0  0
   49.3454   16.8813   14.8185 N   0  0  0  0  0  0  0  0  0  0  0  0
   48.9447   15.5977   14.9123 N   0  0  0  0  0  0  0  0  0  0  0  0
   51.0956   18.3843   15.8248 C   0  0  0  0  0  0  0  0  0  0  0  0
   52.4184   18.0843   16.0960 F   0  0  0  0  0  0  0  0  0  0  0  0
   50.9688   19.2099   14.7474 F   0  0  0  0  0  0  0  0  0  0  0  0
   50.5887   18.9474   16.9920 F   0  0  0  0  0  0  0  0  0  0  0  0
   47.8768   15.1027   14.1524 C   0  0  0  0  0  0  0  0  0  0  0  0
   48.0802   14.5479   12.8792 C   0  0  0  0  0  0  0  0  0  0  0  0
   46.5884   15.1800   14.6826 C   0  0  0  0  0  0  0  0  0  0  0  0
   45.5080   14.7144   13.9650 C   0  0  0  0  0  0  0  0  0  0  0  0
   45.7216   14.1656   12.7024 C   0  0  0  0  0  0  0  0  0  0  0  0
   47.0042   14.0823   12.1606 C   0  0  0  0  0  0  0  0  0  0  0  0
   47.1271   13.4813   10.8104 C   0  0  0  0  0  0  0  0  0  0  0  0
   47.3267   12.0614   10.8325 N   0  0  0  0  0  0  0  0  0  0  0  0
   48.8350   11.4388   14.6323 Cl  0  0  0  0  0  0  0  0  0  0  0  0
   49.3965   10.2583   15.0572 H   0  0  0  0  0  0  0  0  0  0  0  0
   48.3379    6.4118   16.0101 H   0  0  0  0  0  0  0  0  0  0  0  0
   52.4031    6.5331   17.1644 H   0  0  0  0  0  0  0  0  0  0  0  0
   52.1172    4.3245   18.2429 H   0  0  0  0  0  0  0  0  0  0  0  0
   49.9987    3.1853   18.1953 H   0  0  0  0  0  0  0  0  0  0  0  0
   49.0190    7.8405   18.0689 H   0  0  0  0  0  0  0  0  0  0  0  0
   51.6800    8.3084   16.0849 H   0  0  0  0  0  0  0  0  0  0  0  0
   50.2874   10.4978   14.9492 H   0  0  0  0  0  0  0  0  0  0  0  0
   47.6131    9.5733   19.0283 H   0  0  0  0  0  0  0  0  0  0  0  0
   48.0794   12.7740   15.1258 H   0  0  0  0  0  0  0  0  0  0  0  0
   50.9655    8.7235   13.9265 H   0  0  0  0  0  0  0  0  0  0  0  0
   49.3902    6.2670   13.9803 H   0  0  0  0  0  0  0  0  0  0  0  0
   48.4401    7.8561   14.1032 H   0  0  0  0  0  0  0  0  0  0  0  0
   48.8573    6.7410   11.7105 H   0  0  0  0  0  0  0  0  0  0  0  0
   49.0882    9.0420   10.7622 H   0  0  0  0  0  0  0  0  0  0  0  0
   49.7287    9.7380   12.3571 H   0  0  0  0  0  0  0  0  0  0  0  0
   50.9794    7.4389   10.6131 H   0  0  0  0  0  0  0  0  0  0  0  0
   51.7026    8.0340   12.1885 H   0  0  0  0  0  0  0  0  0  0  0  0
   51.3956   15.7805   16.9855 H   0  0  0  0  0  0  0  0  0  0  0  0
   49.0700   14.4782   12.4490 H   0  0  0  0  0  0  0  0  0  0  0  0
   46.4411   15.6134   15.6734 H   0  0  0  0  0  0  0  0  0  0  0  0
   44.5263   14.7897   14.4045 H   0  0  0  0  0  0  0  0  0  0  0  0
   44.8771   13.7972   12.1312 H   0  0  0  0  0  0  0  0  0  0  0  0
   48.0133   13.9485   10.2899 H   0  0  0  0  0  0  0  0  0  0  0  0
   46.2354   13.7031   10.1798 H   0  0  0  0  0  0  0  0  0  0  0  0
   46.8154   11.6166   10.0535 H   0  0  0  0  0  0  0  0  0  0  0  0
   48.3373   11.7923   10.8765 H   0  0  0  0  0  0  0  0  0  0  0  0
   49.3995   10.2521   15.0594 H   0  0  0  0  0  0  0  0  0  0  0  0
  2  3  2  0
  3  4  1  0
  4  5  2  0
  5  6  1  0
  6  7  2  0
  2  7  1  0
  8  9  2  0
  9 10  1  0
 10  4  1  0
 11 12  2  0
 12 13  1  0
 13 14  2  0
  8 14  1  0
  9 11  1  0
 16 17  2  0
 17 18  1  0
 15 13  1  0
 18 12  1  0
  2 19  1  0
 19 20  3  0
 10 21  1  0
 21 22  1  0
 22 23  1  0
 23 24  1  0
 23 25  1  0
 24 25  1  0
 17 26  1  0
 27 28  1  0
 28 29  2  0
 29 30  1  0
 30 26  1  0
 27 26  2  0
 28 31  1  0
 31 32  1  0
 31 33  1  0
 31 34  1  0
 30 35  1  0
 37 38  1  0
 38 39  2  0
 39 40  1  0
 36 40  2  0
 36 35  1  0
 35 37  2  0
 40 41  1  0
 41 42  1  0
  1 44  1  0
  3 45  1  0
  5 46  1  0
  6 47  1  0
  7 48  1  0
  8 49  1  0
 10 50  1  1
 11 51  1  0
 14 52  1  0
 18 53  1  0
 21 54  1  0
 22 55  1  0
 22 56  1  0
 23 57  1  0
 24 58  1  0
 24 59  1  0
 25 60  1  0
 25 61  1  0
 27 62  1  0
 36 63  1  0
 37 64  1  0
 38 65  1  0
 39 66  1  0
 41 67  1  0
 41 68  1  0
 42 69  1  0
 42 70  1  0
 43 71  1  0
M  END
> <Uni-Dock RESULT> 
ENERGY=   -4.770  LOWER_BOUND=    4.872  UPPER_BOUND=    6.847
INTER + INTRA:          -4.770
INTER:                  -4.770
INTRA:                   0.000
UNBOUND:                 0.000

$$$$

     RDKit          3D

 71 73  0  0  0  0  0  0  0  0999 V2000
   48.5388   11.1858   13.8942 Cl  0  0  0  0  0  0  0  0  0  0  0  0
   43.9737   16.6058   14.5134 C   0  0  0  0  0  0  0  0  0  0  0  0
   45.0142   15.6890   14.5233 C   0  0  0  0  0  0  0  0  0  0  0  0
   46.3017   16.0120   14.1470 C   0  0  0  0  0  0  0  0  0  0  0  0
   46.4867   17.3443   13.7488 C   0  0  0  0  0  0  0  0  0  0  0  0
   45.4553   18.2545   13.7382 C   0  0  0  0  0  0  0  0  0  0  0  0
   44.1751   17.9115   14.1192 C   0  0  0  0  0  0  0  0  0  0  0  0
   46.1385   13.9325   12.3503 C   0  0  0  0  0  0  0  0  0  0  0  0
   47.2064   13.9692   13.2235 C   0  0  0  0  0  0  0  0  0  0  0  0
   47.4416   15.1075   14.1601 C   0  0  2  0  0  0  0  0  0  0  0  0
   48.1105   12.9047   13.2426 C   0  0  0  0  0  0  0  0  0  0  0  0
   47.9116   11.8410   12.3853 C   0  0  0  0  0  0  0  0  0  0  0  0
   46.8288   11.8097   11.5036 C   0  0  0  0  0  0  0  0  0  0  0  0
   45.9315   12.8574   11.4790 C   0  0  0  0  0  0  0  0  0  0  0  0
   46.6407   10.7629   10.6648 F   0  0  0  0  0  0  0  0  0  0  0  0
   50.0439   11.7564   10.7547 O   0  0  0  0  0  0  0  0  0  0  0  0
   49.8836   10.7051   11.4664 C   0  0  0  0  0  0  0  0  0  0  0  0
   48.7780   10.7116   12.3329 N   0  0  0  0  0  0  0  0  0  0  0  0
   42.6502   16.1853   14.9246 C   0  0  0  0  0  0  0  0  0  0  0  0
   41.5774   15.8394   15.2413 N   0  0  0  0  0  0  0  0  0  0  0  0
   47.8061   14.7100   15.4601 N   0  0  0  0  0  0  0  0  0  0  0  0
   46.8438   14.1300   16.3194 C   0  0  0  0  0  0  0  0  0  0  0  0
   47.4869   13.7038   17.6516 C   0  0  0  0  0  0  0  0  0  0  0  0
   48.5950   12.7028   17.5713 C   0  0  0  0  0  0  0  0  0  0  0  0
   48.8736   14.1162   17.9803 C   0  0  0  0  0  0  0  0  0  0  0  0
   50.8408    9.6531   11.2990 C   0  0  0  0  0  0  0  0  0  0  0  0
   51.9144    9.7404   10.4091 C   0  0  0  0  0  0  0  0  0  0  0  0
   52.6572    8.5632   10.4792 C   0  0  0  0  0  0  0  0  0  0  0  0
   52.0413    7.8125   11.3780 N   0  0  0  0  0  0  0  0  0  0  0  0
   50.9626    8.4566   11.8664 N   0  0  0  0  0  0  0  0  0  0  0  0
   53.8812    8.2212    9.7099 C   0  0  0  0  0  0  0  0  0  0  0  0
   54.5942    9.3881    9.5010 F   0  0  0  0  0  0  0  0  0  0  0  0
   54.6285    7.2712   10.3404 F   0  0  0  0  0  0  0  0  0  0  0  0
   53.4480    7.8126    8.4522 F   0  0  0  0  0  0  0  0  0  0  0  0
   50.1354    7.8756   12.8366 C   0  0  0  0  0  0  0  0  0  0  0  0
   50.3842    8.0464   14.2074 C   0  0  0  0  0  0  0  0  0  0  0  0
   49.0514    7.1051   12.4144 C   0  0  0  0  0  0  0  0  0  0  0  0
   48.2181    6.5071   13.3347 C   0  0  0  0  0  0  0  0  0  0  0  0
   48.4745    6.6834   14.6927 C   0  0  0  0  0  0  0  0  0  0  0  0
   49.5546    7.4511   15.1283 C   0  0  0  0  0  0  0  0  0  0  0  0
   49.7423    7.5787   16.5939 C   0  0  0  0  0  0  0  0  0  0  0  0
   49.0518    8.6991   17.1634 N   0  0  0  0  0  0  0  0  0  0  0  0
   48.5410   11.1790   13.8938 Cl  0  0  0  0  0  0  0  0  0  0  0  0
   48.1244   12.4866   13.9731 H   0  0  0  0  0  0  0  0  0  0  0  0
   44.7740   14.6958   14.8206 H   0  0  0  0  0  0  0  0  0  0  0  0
   47.4688   17.6488   13.4457 H   0  0  0  0  0  0  0  0  0  0  0  0
   45.6066   19.2783   13.4305 H   0  0  0  0  0  0  0  0  0  0  0  0
   43.3887   18.6342   14.1041 H   0  0  0  0  0  0  0  0  0  0  0  0
   45.4299   14.7285   12.3081 H   0  0  0  0  0  0  0  0  0  0  0  0
   48.3313   15.6431   13.7158 H   0  0  0  0  0  0  0  0  0  0  0  0
   48.9594   12.8878   13.9071 H   0  0  0  0  0  0  0  0  0  0  0  0
   45.0851   12.8533   10.8033 H   0  0  0  0  0  0  0  0  0  0  0  0
   48.5993    9.8862   12.9334 H   0  0  0  0  0  0  0  0  0  0  0  0
   48.7627   14.2872   15.5371 H   0  0  0  0  0  0  0  0  0  0  0  0
   46.1420   14.9443   16.6413 H   0  0  0  0  0  0  0  0  0  0  0  0
   46.3282   13.2444   15.9210 H   0  0  0  0  0  0  0  0  0  0  0  0
   46.7792   13.6388   18.5256 H   0  0  0  0  0  0  0  0  0  0  0  0
   48.6114   11.9444   18.3878 H   0  0  0  0  0  0  0  0  0  0  0  0
   48.9627   12.3290   16.6082 H   0  0  0  0  0  0  0  0  0  0  0  0
   49.1220   14.2765   19.0725 H   0  0  0  0  0  0  0  0  0  0  0  0
   49.4818   14.7809   17.3477 H   0  0  0  0  0  0  0  0  0  0  0  0
   52.1940   10.5382    9.7478 H   0  0  0  0  0  0  0  0  0  0  0  0
   51.2186    8.6392   14.5568 H   0  0  0  0  0  0  0  0  0  0  0  0
   48.8669    6.9784   11.3461 H   0  0  0  0  0  0  0  0  0  0  0  0
   47.3899    5.9183   12.9740 H   0  0  0  0  0  0  0  0  0  0  0  0
   47.8239    6.2163   15.4233 H   0  0  0  0  0  0  0  0  0  0  0  0
   50.8442    7.7066   16.8038 H   0  0  0  0  0  0  0  0  0  0  0  0
   49.4220    6.6561   17.1306 H   0  0  0  0  0  0  0  0  0  0  0  0
   48.6721    8.4509   18.0909 H   0  0  0  0  0  0  0  0  0  0  0  0
   49.6273    9.5734   17.1681 H   0  0  0  0  0  0  0  0  0  0  0  0
   48.1223   12.4934   13.9735 H   0  0  0  0  0  0  0  0  0  0  0  0
  2  3  2  0
  3  4  1  0
  4  5  2  0
  5  6  1  0
  6  7  2  0
  2  7  1  0
  8  9  2  0
  9 10  1  0
 10  4  1  0
 11 12  2  0
 12 13  1  0
 13 14  2  0
  8 14  1  0
  9 11  1  0
 16 17  2  0
 17 18  1  0
 15 13  1  0
 18 12  1  0
  2 19  1  0
 19 20  3  0
 10 21  1  0
 21 22  1  0
 22 23  1  0
 23 24  1  0
 23 25  1  0
 24 25  1  0
 17 26  1  0
 27 28  1  0
 28 29  2  0
 29 30  1  0
 30 26  1  0
 27 26  2  0
 28 31  1  0
 31 32  1  0
 31 33  1  0
 31 34  1  0
 30 35  1  0
 37 38  1  0
 38 39  2  0
 39 40  1  0
 36 40  2  0
 36 35  1  0
 35 37  2  0
 40 41  1  0
 41 42  1  0
  1 44  1  0
  3 45  1  0
  5 46  1  0
  6 47  1  0
  7 48  1  0
  8 49  1  0
 10 50  1  1
 11 51  1  0
 14 52  1  0
 18 53  1  0
 21 54  1  0
 22 55  1  0
 22 56  1  0
 23 57  1  0
 24 58  1  0
 24 59  1  0
 25 60  1  0
 25 61  1  0
 27 62  1  0
 36 63  1  0
 37 64  1  0
 38 65  1  0
 39 66  1  0
 41 67  1  0
 41 68  1  0
 42 69  1  0
 42 70  1  0
 43 71  1  0
M  END
> <Uni-Dock RESULT> 
ENERGY=   -4.722  LOWER_BOUND=    4.796  UPPER_BOUND=    8.889
INTER + INTRA:          -4.722
INTER:                  -4.722
INTRA:                   0.000
UNBOUND:                 0.000

$$$$

     RDKit          3D

 71 73  0  0  0  0  0  0  0  0999 V2000
   50.5498   12.1391   13.6458 Cl  0  0  0  0  0  0  0  0  0  0  0  0
   53.1628    7.6775    8.7604 C   0  0  0  0  0  0  0  0  0  0  0  0
   52.8771    8.5399    9.8084 C   0  0  0  0  0  0  0  0  0  0  0  0
   53.1531    8.2363   11.1257 C   0  0  0  0  0  0  0  0  0  0  0  0
   53.7470    6.9825   11.3336 C   0  0  0  0  0  0  0  0  0  0  0  0
   54.0304    6.1262   10.2950 C   0  0  0  0  0  0  0  0  0  0  0  0
   53.7473    6.4493    8.9845 C   0  0  0  0  0  0  0  0  0  0  0  0
   50.4928    8.7245   11.6393 C   0  0  0  0  0  0  0  0  0  0  0  0
   51.4431    9.3807   12.3948 C   0  0  0  0  0  0  0  0  0  0  0  0
   52.9045    9.1049   12.2665 C   0  0  2  0  0  0  0  0  0  0  0  0
   51.0348   10.3444   13.3196 C   0  0  0  0  0  0  0  0  0  0  0  0
   49.6879   10.6161   13.4541 C   0  0  0  0  0  0  0  0  0  0  0  0
   48.7308    9.9484   12.6865 C   0  0  0  0  0  0  0  0  0  0  0  0
   49.1265    8.9952   11.7709 C   0  0  0  0  0  0  0  0  0  0  0  0
   47.4109   10.2198   12.8246 F   0  0  0  0  0  0  0  0  0  0  0  0
   49.0204    9.9753   15.9753 O   0  0  0  0  0  0  0  0  0  0  0  0
   48.8384   11.2070   15.6796 C   0  0  0  0  0  0  0  0  0  0  0  0
   49.1764   11.5811   14.3684 N   0  0  0  0  0  0  0  0  0  0  0  0
   52.8415    8.0733    7.4049 C   0  0  0  0  0  0  0  0  0  0  0  0
   52.5658    8.3879    6.3113 N   0  0  0  0  0  0  0  0  0  0  0  0
   53.7041   10.2630   12.2533 N   0  0  0  0  0  0  0  0  0  0  0  0
   53.7082   11.1081   11.1191 C   0  0  0  0  0  0  0  0  0  0  0  0
   54.5887   12.3469   11.3636 C   0  0  0  0  0  0  0  0  0  0  0  0
   54.2028   13.2286   12.5082 C   0  0  0  0  0  0  0  0  0  0  0  0
   55.4628   12.4208   12.5601 C   0  0  0  0  0  0  0  0  0  0  0  0
   48.3160   12.0537   16.7095 C   0  0  0  0  0  0  0  0  0  0  0  0
   48.0110   11.5879   17.9910 C   0  0  0  0  0  0  0  0  0  0  0  0
   47.5257   12.6482   18.7544 C   0  0  0  0  0  0  0  0  0  0  0  0
   47.5453   13.6981   17.9494 N   0  0  0  0  0  0  0  0  0  0  0  0
   48.0139   13.3486   16.7348 N   0  0  0  0  0  0  0  0  0  0  0  0
   47.0805   12.6108   20.1712 C   0  0  0  0  0  0  0  0  0  0  0  0
   47.8520   11.6750   20.8365 F   0  0  0  0  0  0  0  0  0  0  0  0
   47.1482   13.8396   20.7575 F   0  0  0  0  0  0  0  0  0  0  0  0
   45.7881   12.0951   20.1587 F   0  0  0  0  0  0  0  0  0  0  0  0
   48.1349   14.2813   15.6964 C   0  0  0  0  0  0  0  0  0  0  0  0
   49.3111   15.0256   15.5149 C   0  0  0  0  0  0  0  0  0  0  0  0
   47.0501   14.4699   14.8392 C   0  0  0  0  0  0  0  0  0  0  0  0
   47.1224   15.3844   13.8109 C   0  0  0  0  0  0  0  0  0  0  0  0
   48.2947   16.1175   13.6402 C   0  0  0  0  0  0  0  0  0  0  0  0
   49.3865   15.9388   14.4897 C   0  0  0  0  0  0  0  0  0  0  0  0
   50.5883   16.7664   14.2249 C   0  0  0  0  0  0  0  0  0  0  0  0
   51.5196   16.1506   13.3250 N   0  0  0  0  0  0  0  0  0  0  0  0
   50.5458   12.1445   13.6485 Cl  0  0  0  0  0  0  0  0  0  0  0  0
   51.3103   11.1200   13.1431 H   0  0  0  0  0  0  0  0  0  0  0  0
   52.4070    9.4606    9.5558 H   0  0  0  0  0  0  0  0  0  0  0  0
   53.9822    6.6960   12.3394 H   0  0  0  0  0  0  0  0  0  0  0  0
   54.4880    5.1630   10.4640 H   0  0  0  0  0  0  0  0  0  0  0  0
   53.9763    5.7697    8.1929 H   0  0  0  0  0  0  0  0  0  0  0  0
   50.7690    7.9821   10.9250 H   0  0  0  0  0  0  0  0  0  0  0  0
   53.1563    8.5392   13.2112 H   0  0  0  0  0  0  0  0  0  0  0  0
   51.7396   10.8836   13.9320 H   0  0  0  0  0  0  0  0  0  0  0  0
   48.4009    8.4658   11.1656 H   0  0  0  0  0  0  0  0  0  0  0  0
   49.0497   12.5664   14.0735 H   0  0  0  0  0  0  0  0  0  0  0  0
   53.7544   10.7712   13.1693 H   0  0  0  0  0  0  0  0  0  0  0  0
   54.2637   10.5762   10.3019 H   0  0  0  0  0  0  0  0  0  0  0  0
   52.7226   11.4795   10.8039 H   0  0  0  0  0  0  0  0  0  0  0  0
   54.9951   12.8364   10.4340 H   0  0  0  0  0  0  0  0  0  0  0  0
   54.3287   14.3216   12.3306 H   0  0  0  0  0  0  0  0  0  0  0  0
   53.3643   12.9780   13.1689 H   0  0  0  0  0  0  0  0  0  0  0  0
   56.4287   13.0020   12.4618 H   0  0  0  0  0  0  0  0  0  0  0  0
   55.5817   11.6002   13.2842 H   0  0  0  0  0  0  0  0  0  0  0  0
   48.1034   10.6007   18.4019 H   0  0  0  0  0  0  0  0  0  0  0  0
   50.1637   14.8956   16.1674 H   0  0  0  0  0  0  0  0  0  0  0  0
   46.1401   13.8862   14.9892 H   0  0  0  0  0  0  0  0  0  0  0  0
   46.2656   15.5051   13.1674 H   0  0  0  0  0  0  0  0  0  0  0  0
   48.3598   16.8391   12.8338 H   0  0  0  0  0  0  0  0  0  0  0  0
   51.1202   16.9488   15.2039 H   0  0  0  0  0  0  0  0  0  0  0  0
   50.3157   17.7683   13.8202 H   0  0  0  0  0  0  0  0  0  0  0  0
   51.9391   16.8607   12.7038 H   0  0  0  0  0  0  0  0  0  0  0  0
   52.2267   15.5542   13.8150 H   0  0  0  0  0  0  0  0  0  0  0  0
   51.3143   11.1146   13.1404 H   0  0  0  0  0  0  0  0  0  0  0  0
  2  3  2  0
  3  4  1  0
  4  5  2  0
  5  6  1  0
  6  7  2  0
  2  7  1  0
  8  9  2  0
  9 10  1  0
 10  4  1  0
 11 12  2  0
 12 13  1  0
 13 14  2  0
  8 14  1  0
  9 11  1  0
 16 17  2  0
 17 18  1  0
 15 13  1  0
 18 12  1  0
  2 19  1  0
 19 20  3  0
 10 21  1  0
 21 22  1  0
 22 23  1  0
 23 24  1  0
 23 25  1  0
 24 25  1  0
 17 26  1  0
 27 28  1  0
 28 29  2  0
 29 30  1  0
 30 26  1  0
 27 26  2  0
 28 31  1  0
 31 32  1  0
 31 33  1  0
 31 34  1  0
 30 35  1  0
 37 38  1  0
 38 39  2  0
 39 40  1  0
 36 40  2  0
 36 35  1  0
 35 37  2  0
 40 41  1  0
 41 42  1  0
  1 44  1  0
  3 45  1  0
  5 46  1  0
  6 47  1  0
  7 48  1  0
  8 49  1  0
 10 50  1  1
 11 51  1  0
 14 52  1  0
 18 53  1  0
 21 54  1  0
 22 55  1  0
 22 56  1  0
 23 57  1  0
 24 58  1  0
 24 59  1  0
 25 60  1  0
 25 61  1  0
 27 62  1  0
 36 63  1  0
 37 64  1  0
 38 65  1  0
 39 66  1  0
 41 67  1  0
 41 68  1  0
 42 69  1  0
 42 70  1  0
 43 71  1  0
M  END
> <Uni-Dock RESULT> 
ENERGY=   -4.469  LOWER_BOUND=    5.891  UPPER_BOUND=    9.938
INTER + INTRA:          -4.469
INTER:                  -4.469
INTRA:                   0.000
UNBOUND:                 0.000

$$$$

     RDKit          3D

 71 73  0  0  0  0  0  0  0  0999 V2000
   49.1636    9.2233   17.4991 Cl  0  0  0  0  0  0  0  0  0  0  0  0
   46.7651   15.3106   14.7077 C   0  0  0  0  0  0  0  0  0  0  0  0
   47.3200   14.2649   15.4301 C   0  0  0  0  0  0  0  0  0  0  0  0
   48.6325   14.2609   15.8554 C   0  0  0  0  0  0  0  0  0  0  0  0
   49.3740   15.3980   15.5022 C   0  0  0  0  0  0  0  0  0  0  0  0
   48.8248   16.4357   14.7853 C   0  0  0  0  0  0  0  0  0  0  0  0
   47.5098   16.4206   14.3702 C   0  0  0  0  0  0  0  0  0  0  0  0
   48.8920   11.8518   14.5485 C   0  0  0  0  0  0  0  0  0  0  0  0
   49.2689   11.9287   15.8737 C   0  0  0  0  0  0  0  0  0  0  0  0
   49.2675   13.2110   16.6379 C   0  0  2  0  0  0  0  0  0  0  0  0
   49.6692   10.7676   16.5388 C   0  0  0  0  0  0  0  0  0  0  0  0
   49.6773    9.5704   15.8513 C   0  0  0  0  0  0  0  0  0  0  0  0
   49.2947    9.4990   14.5100 C   0  0  0  0  0  0  0  0  0  0  0  0
   48.8980   10.6416   13.8463 C   0  0  0  0  0  0  0  0  0  0  0  0
   49.3060    8.3208   13.8418 F   0  0  0  0  0  0  0  0  0  0  0  0
   52.2239    8.7181   15.8178 O   0  0  0  0  0  0  0  0  0  0  0  0
   51.4109    7.9239   16.4059 C   0  0  0  0  0  0  0  0  0  0  0  0
   50.0684    8.3356   16.4441 N   0  0  0  0  0  0  0  0  0  0  0  0
   45.3775   15.2366   14.2995 C   0  0  0  0  0  0  0  0  0  0  0  0
   44.2603   15.1677   13.9559 N   0  0  0  0  0  0  0  0  0  0  0  0
   48.7336   13.1006   17.9354 N   0  0  0  0  0  0  0  0  0  0  0  0
   47.3415   12.9276   18.1162 C   0  0  0  0  0  0  0  0  0  0  0  0
   47.0017   12.7512   19.6073 C   0  0  0  0  0  0  0  0  0  0  0  0
   47.6351   11.5911   20.3067 C   0  0  0  0  0  0  0  0  0  0  0  0
   48.0336   12.9944   20.6451 C   0  0  0  0  0  0  0  0  0  0  0  0
   51.9582    6.7186   16.9519 C   0  0  0  0  0  0  0  0  0  0  0  0
   53.3150    6.3957   16.8660 C   0  0  0  0  0  0  0  0  0  0  0  0
   53.5282    5.1672   17.4888 C   0  0  0  0  0  0  0  0  0  0  0  0
   52.3392    4.7834   17.9243 N   0  0  0  0  0  0  0  0  0  0  0  0
   51.4052    5.7021   17.6072 N   0  0  0  0  0  0  0  0  0  0  0  0
   54.8158    4.4407   17.6346 C   0  0  0  0  0  0  0  0  0  0  0  0
   55.8236    5.3796   17.7626 F   0  0  0  0  0  0  0  0  0  0  0  0
   54.7917    3.5700   18.6832 F   0  0  0  0  0  0  0  0  0  0  0  0
   55.0433    3.8055   16.4176 F   0  0  0  0  0  0  0  0  0  0  0  0
   50.0588    5.5335   17.9566 C   0  0  0  0  0  0  0  0  0  0  0  0
   49.5565    6.0019   19.1807 C   0  0  0  0  0  0  0  0  0  0  0  0
   49.2148    4.8746   17.0618 C   0  0  0  0  0  0  0  0  0  0  0  0
   47.8861    4.6783   17.3695 C   0  0  0  0  0  0  0  0  0  0  0  0
   47.3983    5.1474   18.5873 C   0  0  0  0  0  0  0  0  0  0  0  0
   48.2311    5.8077   19.4908 C   0  0  0  0  0  0  0  0  0  0  0  0
   47.6168    6.2692   20.7593 C   0  0  0  0  0  0  0  0  0  0  0  0
   47.0801    7.5969   20.6848 N   0  0  0  0  0  0  0  0  0  0  0  0
   49.1636    9.2163   17.5008 Cl  0  0  0  0  0  0  0  0  0  0  0  0
   49.1634   10.5521   17.1762 H   0  0  0  0  0  0  0  0  0  0  0  0
   46.6863   13.4345   15.6333 H   0  0  0  0  0  0  0  0  0  0  0  0
   50.4004   15.4462   15.8075 H   0  0  0  0  0  0  0  0  0  0  0  0
   49.4028   17.3076   14.5179 H   0  0  0  0  0  0  0  0  0  0  0  0
   47.1031   17.2374   13.8149 H   0  0  0  0  0  0  0  0  0  0  0  0
   48.5821   12.7185   14.0095 H   0  0  0  0  0  0  0  0  0  0  0  0
   50.3637   13.4591   16.7507 H   0  0  0  0  0  0  0  0  0  0  0  0
   49.9720   10.7773   17.5736 H   0  0  0  0  0  0  0  0  0  0  0  0
   48.5974   10.6086   12.8063 H   0  0  0  0  0  0  0  0  0  0  0  0
   49.3656    7.7315   16.9079 H   0  0  0  0  0  0  0  0  0  0  0  0
   49.3262   12.5566   18.6083 H   0  0  0  0  0  0  0  0  0  0  0  0
   46.8438   13.9029   17.8703 H   0  0  0  0  0  0  0  0  0  0  0  0
   46.9002   12.0697   17.5890 H   0  0  0  0  0  0  0  0  0  0  0  0
   45.9486   13.0298   19.8945 H   0  0  0  0  0  0  0  0  0  0  0  0
   46.9876   11.0728   21.0512 H   0  0  0  0  0  0  0  0  0  0  0  0
   48.3438   10.9291   19.7949 H   0  0  0  0  0  0  0  0  0  0  0  0
   47.6799   13.3823   21.6475 H   0  0  0  0  0  0  0  0  0  0  0  0
   49.0470   13.3651   20.4270 H   0  0  0  0  0  0  0  0  0  0  0  0
   54.1226    6.9412   16.4163 H   0  0  0  0  0  0  0  0  0  0  0  0
   50.1928    6.5150   19.8890 H   0  0  0  0  0  0  0  0  0  0  0  0
   49.6155    4.5142   16.1127 H   0  0  0  0  0  0  0  0  0  0  0  0
   47.2620    4.1651   16.6554 H   0  0  0  0  0  0  0  0  0  0  0  0
   46.3542    4.9969   18.8373 H   0  0  0  0  0  0  0  0  0  0  0  0
   48.4079    6.2591   21.5646 H   0  0  0  0  0  0  0  0  0  0  0  0
   46.8094    5.5802   21.0988 H   0  0  0  0  0  0  0  0  0  0  0  0
   46.2045    7.6593   21.2285 H   0  0  0  0  0  0  0  0  0  0  0  0
   47.7800    8.3343   20.9340 H   0  0  0  0  0  0  0  0  0  0  0  0
   49.1634   10.5591   17.1745 H   0  0  0  0  0  0  0  0  0  0  0  0
  2  3  2  0
  3  4  1  0
  4  5  2  0
  5  6  1  0
  6  7  2  0
  2  7  1  0
  8  9  2  0
  9 10  1  0
 10  4  1  0
 11 12  2  0
 12 13  1  0
 13 14  2  0
  8 14  1  0
  9 11  1  0
 16 17  2  0
 17 18  1  0
 15 13  1  0
 18 12  1  0
  2 19  1  0
 19 20  3  0
 10 21  1  0
 21 22  1  0
 22 23  1  0
 23 24  1  0
 23 25  1  0
 24 25  1  0
 17 26  1  0
 27 28  1  0
 28 29  2  0
 29 30  1  0
 30 26  1  0
 27 26  2  0
 28 31  1  0
 31 32  1  0
 31 33  1  0
 31 34  1  0
 30 35  1  0
 37 38  1  0
 38 39  2  0
 39 40  1  0
 36 40  2  0
 36 35  1  0
 35 37  2  0
 40 41  1  0
 41 42  1  0
  1 44  1  0
  3 45  1  0
  5 46  1  0
  6 47  1  0
  7 48  1  0
  8 49  1  0
 10 50  1  1
 11 51  1  0
 14 52  1  0
 18 53  1  0
 21 54  1  0
 22 55  1  0
 22 56  1  0
 23 57  1  0
 24 58  1  0
 24 59  1  0
 25 60  1  0
 25 61  1  0
 27 62  1  0
 36 63  1  0
 37 64  1  0
 38 65  1  0
 39 66  1  0
 41 67  1  0
 41 68  1  0
 42 69  1  0
 42 70  1  0
 43 71  1  0
M  END
> <Uni-Dock RESULT> 
ENERGY=   -4.435  LOWER_BOUND=    4.441  UPPER_BOUND=    8.629
INTER + INTRA:          -4.435
INTER:                  -4.435
INTRA:                   0.000
UNBOUND:                 0.000

$$$$

     RDKit          3D

 71 73  0  0  0  0  0  0  0  0999 V2000
   51.9519    7.9136   12.9018 Cl  0  0  0  0  0  0  0  0  0  0  0  0
   47.8109    5.2752   18.0488 C   0  0  0  0  0  0  0  0  0  0  0  0
   48.7376    5.8993   17.2270 C   0  0  0  0  0  0  0  0  0  0  0  0
   48.9983    7.2529   17.2837 C   0  0  0  0  0  0  0  0  0  0  0  0
   48.2533    7.9611   18.2382 C   0  0  0  0  0  0  0  0  0  0  0  0
   47.3336    7.3433   19.0536 C   0  0  0  0  0  0  0  0  0  0  0  0
   47.0884    5.9881   18.9817 C   0  0  0  0  0  0  0  0  0  0  0  0
   48.4189    7.3250   14.5932 C   0  0  0  0  0  0  0  0  0  0  0  0
   49.6159    7.8580   15.0260 C   0  0  0  0  0  0  0  0  0  0  0  0
   49.9744    7.9635   16.4712 C   0  0  2  0  0  0  0  0  0  0  0  0
   50.5383    8.3203   14.0846 C   0  0  0  0  0  0  0  0  0  0  0  0
   50.2276    8.2317   12.7424 C   0  0  0  0  0  0  0  0  0  0  0  0
   49.0143    7.6912   12.3105 C   0  0  0  0  0  0  0  0  0  0  0  0
   48.0982    7.2324   13.2345 C   0  0  0  0  0  0  0  0  0  0  0  0
   48.7162    7.6082   10.9918 F   0  0  0  0  0  0  0  0  0  0  0  0
   50.1593   10.7454   11.7994 O   0  0  0  0  0  0  0  0  0  0  0  0
   51.0370    9.9984   11.2433 C   0  0  0  0  0  0  0  0  0  0  0  0
   51.1034    8.6752   11.7102 N   0  0  0  0  0  0  0  0  0  0  0  0
   47.5973    3.8481   17.9259 C   0  0  0  0  0  0  0  0  0  0  0  0
   47.4138    2.6972   17.8137 N   0  0  0  0  0  0  0  0  0  0  0  0
   51.2996    7.5867   16.7588 N   0  0  0  0  0  0  0  0  0  0  0  0
   51.6753    6.2240   16.7086 C   0  0  0  0  0  0  0  0  0  0  0  0
   53.1821    6.0620   16.9789 C   0  0  0  0  0  0  0  0  0  0  0  0
   54.1111    6.7598   16.0374 C   0  0  0  0  0  0  0  0  0  0  0  0
   53.9853    7.2132   17.4592 C   0  0  0  0  0  0  0  0  0  0  0  0
   51.8426   10.5920   10.2189 C   0  0  0  0  0  0  0  0  0  0  0  0
   51.7036   11.9247    9.8229 C   0  0  0  0  0  0  0  0  0  0  0  0
   52.6258   12.1954    8.8135 C   0  0  0  0  0  0  0  0  0  0  0  0
   53.2820   11.0621    8.6244 N   0  0  0  0  0  0  0  0  0  0  0  0
   52.8194   10.1083    9.4571 N   0  0  0  0  0  0  0  0  0  0  0  0
   52.8311   13.4820    8.0999 C   0  0  0  0  0  0  0  0  0  0  0  0
   52.5715   14.5095    8.9890 F   0  0  0  0  0  0  0  0  0  0  0  0
   54.0818   13.5723    7.5650 F   0  0  0  0  0  0  0  0  0  0  0  0
   51.8308   13.5551    7.1353 F   0  0  0  0  0  0  0  0  0  0  0  0
   53.3491    8.8112    9.4569 C   0  0  0  0  0  0  0  0  0  0  0  0
   54.4345    8.4642   10.2764 C   0  0  0  0  0  0  0  0  0  0  0  0
   52.7806    7.8586    8.6105 C   0  0  0  0  0  0  0  0  0  0  0  0
   53.2768    6.5736    8.5711 C   0  0  0  0  0  0  0  0  0  0  0  0
   54.3543    6.2402    9.3888 C   0  0  0  0  0  0  0  0  0  0  0  0
   54.9319    7.1828   10.2395 C   0  0  0  0  0  0  0  0  0  0  0  0
   56.0739    6.7297   11.0701 C   0  0  0  0  0  0  0  0  0  0  0  0
   55.6806    6.2044   12.3452 N   0  0  0  0  0  0  0  0  0  0  0  0
   51.9555    7.9137   12.8956 Cl  0  0  0  0  0  0  0  0  0  0  0  0
   51.2626    7.8914   14.0826 H   0  0  0  0  0  0  0  0  0  0  0  0
   49.2398    5.2840   16.5187 H   0  0  0  0  0  0  0  0  0  0  0  0
   48.4164    9.0171   18.3239 H   0  0  0  0  0  0  0  0  0  0  0  0
   46.7645    7.8960   19.7859 H   0  0  0  0  0  0  0  0  0  0  0  0
   46.3702    5.5283   19.6249 H   0  0  0  0  0  0  0  0  0  0  0  0
   47.6912    6.9639   15.2844 H   0  0  0  0  0  0  0  0  0  0  0  0
   49.8892    9.0683   16.6904 H   0  0  0  0  0  0  0  0  0  0  0  0
   51.4865    8.7443   14.3740 H   0  0  0  0  0  0  0  0  0  0  0  0
   47.1515    6.8096   12.9212 H   0  0  0  0  0  0  0  0  0  0  0  0
   51.7960    8.0253   11.2958 H   0  0  0  0  0  0  0  0  0  0  0  0
   52.0307    8.2484   16.4017 H   0  0  0  0  0  0  0  0  0  0  0  0
   51.2159    5.7127   17.5956 H   0  0  0  0  0  0  0  0  0  0  0  0
   51.4691    5.7124   15.7574 H   0  0  0  0  0  0  0  0  0  0  0  0
   53.4916    5.0542   17.3757 H   0  0  0  0  0  0  0  0  0  0  0  0
   55.0399    6.1993   15.7824 H   0  0  0  0  0  0  0  0  0  0  0  0
   53.7361    7.3943   15.2254 H   0  0  0  0  0  0  0  0  0  0  0  0
   54.8666    6.9862   18.1317 H   0  0  0  0  0  0  0  0  0  0  0  0
   53.5593    8.1979   17.7055 H   0  0  0  0  0  0  0  0  0  0  0  0
   51.0297   12.6797   10.1803 H   0  0  0  0  0  0  0  0  0  0  0  0
   54.8905    9.1865   10.9397 H   0  0  0  0  0  0  0  0  0  0  0  0
   51.9370    8.1388    7.9772 H   0  0  0  0  0  0  0  0  0  0  0  0
   52.8140    5.8626    7.9055 H   0  0  0  0  0  0  0  0  0  0  0  0
   54.7508    5.2316    9.3637 H   0  0  0  0  0  0  0  0  0  0  0  0
   56.7555    7.6110   11.2529 H   0  0  0  0  0  0  0  0  0  0  0  0
   56.6843    5.9601   10.5439 H   0  0  0  0  0  0  0  0  0  0  0  0
   56.2767    5.4007   12.5998 H   0  0  0  0  0  0  0  0  0  0  0  0
   55.6283    6.9381   13.0900 H   0  0  0  0  0  0  0  0  0  0  0  0
   51.2589    7.8913   14.0888 H   0  0  0  0  0  0  0  0  0  0  0  0
  2  3  2  0
  3  4  1  0
  4  5  2  0
  5  6  1  0
  6  7  2  0
  2  7  1  0
  8  9  2  0
  9 10  1  0
 10  4  1  0
 11 12  2  0
 12 13  1  0
 13 14  2  0
  8 14  1  0
  9 11  1  0
 16 17  2  0
 17 18  1  0
 15 13  1  0
 18 12  1  0
  2 19  1  0
 19 20  3  0
 10 21  1  0
 21 22  1  0
 22 23  1  0
 23 24  1  0
 23 25  1  0
 24 25  1  0
 17 26  1  0
 27 28  1  0
 28 29  2  0
 29 30  1  0
 30 26  1  0
 27 26  2  0
 28 31  1  0
 31 32  1  0
 31 33  1  0
 31 34  1  0
 30 35  1  0
 37 38  1  0
 38 39  2  0
 39 40  1  0
 36 40  2  0
 36 35  1  0
 35 37  2  0
 40 41  1  0
 41 42  1  0
  1 44  1  0
  3 45  1  0
  5 46  1  0
  6 47  1  0
  7 48  1  0
  8 49  1  0
 10 50  1  1
 11 51  1  0
 14 52  1  0
 18 53  1  0
 21 54  1  0
 22 55  1  0
 22 56  1  0
 23 57  1  0
 24 58  1  0
 24 59  1  0
 25 60  1  0
 25 61  1  0
 27 62  1  0
 36 63  1  0
 37 64  1  0
 38 65  1  0
 39 66  1  0
 41 67  1  0
 41 68  1  0
 42 69  1  0
 42 70  1  0
 43 71  1  0
M  END
> <Uni-Dock RESULT> 
ENERGY=   -4.411  LOWER_BOUND=    3.365  UPPER_BOUND=    5.570
INTER + INTRA:          -4.411
INTER:                  -4.411
INTRA:                   0.000
UNBOUND:                 0.000

$$$$
