
     RDKit          3D

 71 73  0  0  0  0  0  0  0  0999 V2000
   47.8859    8.5705   13.7105 Cl  0  0  0  0  0  0  0  0  0  0  0  0
   53.8234   10.5673   17.4994 C   0  0  0  0  0  0  0  0  0  0  0  0
   52.6854   10.7381   16.7373 C   0  0  0  0  0  0  0  0  0  0  0  0
   51.4499   10.9442   17.3150 C   0  0  0  0  0  0  0  0  0  0  0  0
   51.4016   10.9724   18.7122 C   0  0  0  0  0  0  0  0  0  0  0  0
   52.5326   10.8029   19.4835 C   0  0  0  0  0  0  0  0  0  0  0  0
   53.7372   10.6014   18.8779 C   0  0  0  0  0  0  0  0  0  0  0  0
   50.1647    8.6928   16.5708 C   0  0  0  0  0  0  0  0  0  0  0  0
   49.6331    9.8615   16.0673 C   0  0  0  0  0  0  0  0  0  0  0  0
   50.2043   11.1318   16.5213 C   0  0  2  0  0  0  0  0  0  0  0  0
   48.5991    9.8795   15.1638 C   0  0  0  0  0  0  0  0  0  0  0  0
   48.0163    8.6940   14.6947 C   0  0  0  0  0  0  0  0  0  0  0  0
   48.5457    7.5385   15.1960 C   0  0  0  0  0  0  0  0  0  0  0  0
   49.6031    7.5200   16.1199 C   0  0  0  0  0  0  0  0  0  0  0  0
   48.0914    6.3229   14.8434 F   0  0  0  0  0  0  0  0  0  0  0  0
   46.4191    6.6243   13.3053 O   0  0  0  0  0  0  0  0  0  0  0  0
   46.2245    7.8308   13.1311 C   0  0  0  0  0  0  0  0  0  0  0  0
   46.9697    8.8309   13.7785 N   0  0  0  0  0  0  0  0  0  0  0  0
   55.1242   10.3508   16.9325 C   0  0  0  0  0  0  0  0  0  0  0  0
   56.1721   10.1563   16.4730 N   0  0  0  0  0  0  0  0  0  0  0  0
   50.4231   12.0591   15.4093 N   0  0  0  0  0  0  0  0  0  0  0  0
   50.8381   13.3488   15.9234 C   0  0  0  0  0  0  0  0  0  0  0  0
   51.0800   14.3508   14.8300 C   0  0  0  0  0  0  0  0  0  0  0  0
   52.1428   14.0502   13.7785 C   0  0  0  0  0  0  0  0  0  0  0  0
   52.4030   15.0614   14.8812 C   0  0  0  0  0  0  0  0  0  0  0  0
   45.1452    8.1979   12.1874 C   0  0  0  0  0  0  0  0  0  0  0  0
   44.7505    9.4779   11.8382 C   0  0  0  0  0  0  0  0  0  0  0  0
   43.7203    9.3782   10.9390 C   0  0  0  0  0  0  0  0  0  0  0  0
   43.4938    8.0682   10.7457 N   0  0  0  0  0  0  0  0  0  0  0  0
   44.3419    7.3798   11.4889 N   0  0  0  0  0  0  0  0  0  0  0  0
   42.9679   10.4751   10.2783 C   0  0  0  0  0  0  0  0  0  0  0  0
   43.3531   10.6460    8.9633 F   0  0  0  0  0  0  0  0  0  0  0  0
   41.6116   10.1609   10.3449 F   0  0  0  0  0  0  0  0  0  0  0  0
   43.1888   11.6771   10.9575 F   0  0  0  0  0  0  0  0  0  0  0  0
   44.3908    5.9593   11.5366 C   0  0  0  0  0  0  0  0  0  0  0  0
   44.7877    5.1756   10.4796 C   0  0  0  0  0  0  0  0  0  0  0  0
   44.0091    5.3711   12.7344 C   0  0  0  0  0  0  0  0  0  0  0  0
   44.0089    4.0001   12.9192 C   0  0  0  0  0  0  0  0  0  0  0  0
   44.4059    3.2203   11.8611 C   0  0  0  0  0  0  0  0  0  0  0  0
   44.7891    3.8118   10.6588 C   0  0  0  0  0  0  0  0  0  0  0  0
   45.2018    2.8860    9.5737 C   0  0  0  0  0  0  0  0  0  0  0  0
   43.9988    2.5545    8.8044 N   0  0  0  0  0  0  0  0  0  0  0  0
   47.8834    8.5681   13.7089 Cl  0  0  0  0  0  0  0  0  0  0  0  0
   48.7913    9.4425   14.2558 H   0  0  0  0  0  0  0  0  0  0  0  0
   52.7722   10.7083   15.6563 H   0  0  0  0  0  0  0  0  0  0  0  0
   50.4447   11.1322   19.1649 H   0  0  0  0  0  0  0  0  0  0  0  0
   52.3840   10.8425   20.5594 H   0  0  0  0  0  0  0  0  0  0  0  0
   54.6022   10.4726   19.5283 H   0  0  0  0  0  0  0  0  0  0  0  0
   50.9769    8.6546   17.2815 H   0  0  0  0  0  0  0  0  0  0  0  0
   49.4728   11.6464   17.1864 H   0  0  0  0  0  0  0  0  0  0  0  0
   48.2593   10.8539   14.8342 H   0  0  0  0  0  0  0  0  0  0  0  0
   50.0023    6.5928   16.4998 H   0  0  0  0  0  0  0  0  0  0  0  0
   46.6757    9.8274   13.5182 H   0  0  0  0  0  0  0  0  0  0  0  0
   51.0482   11.6906   14.6857 H   0  0  0  0  0  0  0  0  0  0  0  0
   50.0437   13.7873   16.5730 H   0  0  0  0  0  0  0  0  0  0  0  0
   51.7375   13.2895   16.5500 H   0  0  0  0  0  0  0  0  0  0  0  0
   50.2056   14.9388   14.4614 H   0  0  0  0  0  0  0  0  0  0  0  0
   52.0030   14.4510   12.7473 H   0  0  0  0  0  0  0  0  0  0  0  0
   52.7557   13.1428   13.8521 H   0  0  0  0  0  0  0  0  0  0  0  0
   52.4482   16.1356   14.5529 H   0  0  0  0  0  0  0  0  0  0  0  0
   53.1563   14.8173   15.6636 H   0  0  0  0  0  0  0  0  0  0  0  0
   45.1602   10.4118   12.1926 H   0  0  0  0  0  0  0  0  0  0  0  0
   45.0800    5.6292    9.5621 H   0  0  0  0  0  0  0  0  0  0  0  0
   43.6885    5.9725   13.5925 H   0  0  0  0  0  0  0  0  0  0  0  0
   43.7051    3.5697   13.8674 H   0  0  0  0  0  0  0  0  0  0  0  0
   44.4043    2.1512   12.0092 H   0  0  0  0  0  0  0  0  0  0  0  0
   45.6466    1.9553   10.0075 H   0  0  0  0  0  0  0  0  0  0  0  0
   45.9417    3.3257    8.8864 H   0  0  0  0  0  0  0  0  0  0  0  0
   43.2740    3.3069    8.8624 H   0  0  0  0  0  0  0  0  0  0  0  0
   43.5622    1.7045    9.2530 H   0  0  0  0  0  0  0  0  0  0  0  0
   48.7938    9.4449   14.2573 H   0  0  0  0  0  0  0  0  0  0  0  0
  2  3  2  0
  3  4  1  0
  4  5  2  0
  5  6  1  0
  6  7  2  0
  2  7  1  0
  8  9  2  0
  9 10  1  0
 10  4  1  0
 11 12  2  0
 12 13  1  0
 13 14  2  0
  8 14  1  0
  9 11  1  0
 16 17  2  0
 17 18  1  0
 15 13  1  0
 18 12  1  0
  2 19  1  0
 19 20  3  0
 10 21  1  0
 21 22  1  0
 22 23  1  0
 23 24  1  0
 23 25  1  0
 24 25  1  0
 17 26  1  0
 27 28  1  0
 28 29  2  0
 29 30  1  0
 30 26  1  0
 27 26  2  0
 28 31  1  0
 31 32  1  0
 31 33  1  0
 31 34  1  0
 30 35  1  0
 37 38  1  0
 38 39  2  0
 39 40  1  0
 36 40  2  0
 36 35  1  0
 35 37  2  0
 40 41  1  0
 41 42  1  0
  1 44  1  0
  3 45  1  0
  5 46  1  0
  6 47  1  0
  7 48  1  0
  8 49  1  0
 10 50  1  1
 11 51  1  0
 14 52  1  0
 18 53  1  0
 21 54  1  0
 22 55  1  0
 22 56  1  0
 23 57  1  0
 24 58  1  0
 24 59  1  0
 25 60  1  0
 25 61  1  0
 27 62  1  0
 36 63  1  0
 37 64  1  0
 38 65  1  0
 39 66  1  0
 41 67  1  0
 41 68  1  0
 42 69  1  0
 42 70  1  0
 43 71  1  0
M  END
> <Uni-Dock RESULT> 
ENERGY=   -5.415  LOWER_BOUND=    0.000  UPPER_BOUND=    0.000
INTER + INTRA:          -5.415
INTER:                  -5.415
INTRA:                   0.000
UNBOUND:                 0.000

$$$$

     RDKit          3D

 71 73  0  0  0  0  0  0  0  0999 V2000
   43.9248   10.6206   11.7829 Cl  0  0  0  0  0  0  0  0  0  0  0  0
   40.0914   16.6915   10.3526 C   0  0  0  0  0  0  0  0  0  0  0  0
   41.0624   15.9127   10.9490 C   0  0  0  0  0  0  0  0  0  0  0  0
   42.3345   15.8127   10.4253 C   0  0  0  0  0  0  0  0  0  0  0  0
   42.5976   16.5381    9.2593 C   0  0  0  0  0  0  0  0  0  0  0  0
   41.6348   17.3196    8.6550 C   0  0  0  0  0  0  0  0  0  0  0  0
   40.3879   17.3946    9.2008 C   0  0  0  0  0  0  0  0  0  0  0  0
   42.3817   13.2123    9.7113 C   0  0  0  0  0  0  0  0  0  0  0  0
   43.2886   13.5654   10.6884 C   0  0  0  0  0  0  0  0  0  0  0  0
   43.4036   14.9817   11.0444 C   0  0  2  0  0  0  0  0  0  0  0  0
   44.0795   12.6480   11.3354 C   0  0  0  0  0  0  0  0  0  0  0  0
   44.0095   11.2805   11.0356 C   0  0  0  0  0  0  0  0  0  0  0  0
   43.1100   10.9349   10.0669 C   0  0  0  0  0  0  0  0  0  0  0  0
   42.3011   11.8729    9.4052 C   0  0  0  0  0  0  0  0  0  0  0  0
   42.9302    9.6631    9.6683 F   0  0  0  0  0  0  0  0  0  0  0  0
   44.3168    8.3380   10.9230 O   0  0  0  0  0  0  0  0  0  0  0  0
   44.9901    9.0400   11.6831 C   0  0  0  0  0  0  0  0  0  0  0  0
   44.8617   10.4375   11.7545 N   0  0  0  0  0  0  0  0  0  0  0  0
   38.7583   16.8187   10.8693 C   0  0  0  0  0  0  0  0  0  0  0  0
   37.6752   16.9050   11.2774 N   0  0  0  0  0  0  0  0  0  0  0  0
   43.4487   15.1770   12.4950 N   0  0  0  0  0  0  0  0  0  0  0  0
   43.7198   16.5691   12.7922 C   0  0  0  0  0  0  0  0  0  0  0  0
   43.7799   16.8387   14.2692 C   0  0  0  0  0  0  0  0  0  0  0  0
   42.5491   16.5465   15.1211 C   0  0  0  0  0  0  0  0  0  0  0  0
   42.9236   17.9727   14.7578 C   0  0  0  0  0  0  0  0  0  0  0  0
   45.9676    8.3360   12.5427 C   0  0  0  0  0  0  0  0  0  0  0  0
   46.8245    8.9114   13.4651 C   0  0  0  0  0  0  0  0  0  0  0  0
   47.5614    7.9122   14.0469 C   0  0  0  0  0  0  0  0  0  0  0  0
   47.1619    6.7561   13.4914 N   0  0  0  0  0  0  0  0  0  0  0  0
   46.2194    7.0186   12.6035 N   0  0  0  0  0  0  0  0  0  0  0  0
   48.6095    8.0329   15.0923 C   0  0  0  0  0  0  0  0  0  0  0  0
   48.1465    7.6454   16.3342 F   0  0  0  0  0  0  0  0  0  0  0  0
   49.6858    7.2341   14.7098 F   0  0  0  0  0  0  0  0  0  0  0  0
   49.0391    9.3605   15.1813 F   0  0  0  0  0  0  0  0  0  0  0  0
   45.5632    6.0300   11.8197 C   0  0  0  0  0  0  0  0  0  0  0  0
   44.7118    5.0861   12.3424 C   0  0  0  0  0  0  0  0  0  0  0  0
   45.8235    6.0539   10.4566 C   0  0  0  0  0  0  0  0  0  0  0  0
   45.2528    5.1507    9.5778 C   0  0  0  0  0  0  0  0  0  0  0  0
   44.4027    4.2092   10.1034 C   0  0  0  0  0  0  0  0  0  0  0  0
   44.1420    4.1860   11.4722 C   0  0  0  0  0  0  0  0  0  0  0  0
   43.2103    3.1310   11.9454 C   0  0  0  0  0  0  0  0  0  0  0  0
   44.0187    1.9534   12.2751 N   0  0  0  0  0  0  0  0  0  0  0  0
   43.9258   10.6170   11.7826 Cl  0  0  0  0  0  0  0  0  0  0  0  0
   43.5832   11.9431   11.8915 H   0  0  0  0  0  0  0  0  0  0  0  0
   40.8115   15.3677   11.8529 H   0  0  0  0  0  0  0  0  0  0  0  0
   43.5838   16.4636    8.8494 H   0  0  0  0  0  0  0  0  0  0  0  0
   41.9441   17.8415    7.7532 H   0  0  0  0  0  0  0  0  0  0  0  0
   39.6609   18.0243    8.6881 H   0  0  0  0  0  0  0  0  0  0  0  0
   41.7500   13.9159    9.1895 H   0  0  0  0  0  0  0  0  0  0  0  0
   44.3763   15.3766   10.6698 H   0  0  0  0  0  0  0  0  0  0  0  0
   44.7573   13.0354   12.0866 H   0  0  0  0  0  0  0  0  0  0  0  0
   41.5987   11.5725    8.6437 H   0  0  0  0  0  0  0  0  0  0  0  0
   45.5187   10.8975   12.4644 H   0  0  0  0  0  0  0  0  0  0  0  0
   42.6256   14.8108   12.9833 H   0  0  0  0  0  0  0  0  0  0  0  0
   44.7128   16.8724   12.3830 H   0  0  0  0  0  0  0  0  0  0  0  0
   42.9891   17.2524   12.3404 H   0  0  0  0  0  0  0  0  0  0  0  0
   44.7575   16.6859   14.7860 H   0  0  0  0  0  0  0  0  0  0  0  0
   42.6946   16.2403   16.1834 H   0  0  0  0  0  0  0  0  0  0  0  0
   41.6202   16.1966   14.6530 H   0  0  0  0  0  0  0  0  0  0  0  0
   43.3034   18.6051   15.6062 H   0  0  0  0  0  0  0  0  0  0  0  0
   42.2650   18.5373   14.0601 H   0  0  0  0  0  0  0  0  0  0  0  0
   46.9214    9.9589   13.7082 H   0  0  0  0  0  0  0  0  0  0  0  0
   44.5139    5.0700   13.3881 H   0  0  0  0  0  0  0  0  0  0  0  0
   46.4980    6.7955   10.0142 H   0  0  0  0  0  0  0  0  0  0  0  0
   45.4756    5.1946    8.5171 H   0  0  0  0  0  0  0  0  0  0  0  0
   43.9596    3.5064    9.4145 H   0  0  0  0  0  0  0  0  0  0  0  0
   42.4739    2.8766   11.1422 H   0  0  0  0  0  0  0  0  0  0  0  0
   42.6434    3.4239   12.8432 H   0  0  0  0  0  0  0  0  0  0  0  0
   44.9988    2.2090   12.5375 H   0  0  0  0  0  0  0  0  0  0  0  0
   44.1018    1.3726   11.3976 H   0  0  0  0  0  0  0  0  0  0  0  0
   43.5823   11.9468   11.8918 H   0  0  0  0  0  0  0  0  0  0  0  0
  2  3  2  0
  3  4  1  0
  4  5  2  0
  5  6  1  0
  6  7  2  0
  2  7  1  0
  8  9  2  0
  9 10  1  0
 10  4  1  0
 11 12  2  0
 12 13  1  0
 13 14  2  0
  8 14  1  0
  9 11  1  0
 16 17  2  0
 17 18  1  0
 15 13  1  0
 18 12  1  0
  2 19  1  0
 19 20  3  0
 10 21  1  0
 21 22  1  0
 22 23  1  0
 23 24  1  0
 23 25  1  0
 24 25  1  0
 17 26  1  0
 27 28  1  0
 28 29  2  0
 29 30  1  0
 30 26  1  0
 27 26  2  0
 28 31  1  0
 31 32  1  0
 31 33  1  0
 31 34  1  0
 30 35  1  0
 37 38  1  0
 38 39  2  0
 39 40  1  0
 36 40  2  0
 36 35  1  0
 35 37  2  0
 40 41  1  0
 41 42  1  0
  1 44  1  0
  3 45  1  0
  5 46  1  0
  6 47  1  0
  7 48  1  0
  8 49  1  0
 10 50  1  1
 11 51  1  0
 14 52  1  0
 18 53  1  0
 21 54  1  0
 22 55  1  0
 22 56  1  0
 23 57  1  0
 24 58  1  0
 24 59  1  0
 25 60  1  0
 25 61  1  0
 27 62  1  0
 36 63  1  0
 37 64  1  0
 38 65  1  0
 39 66  1  0
 41 67  1  0
 41 68  1  0
 42 69  1  0
 42 70  1  0
 43 71  1  0
M  END
> <Uni-Dock RESULT> 
ENERGY=   -5.270  LOWER_BOUND=    4.550  UPPER_BOUND=    9.276
INTER + INTRA:          -5.270
INTER:                  -5.270
INTRA:                   0.000
UNBOUND:                 0.000

$$$$

     RDKit          3D

 71 73  0  0  0  0  0  0  0  0999 V2000
   50.8023    7.5525   16.0367 Cl  0  0  0  0  0  0  0  0  0  0  0  0
   53.6258    5.9612   22.6012 C   0  0  0  0  0  0  0  0  0  0  0  0
   52.6539    6.0612   21.6262 C   0  0  0  0  0  0  0  0  0  0  0  0
   52.3734    5.0152   20.7720 C   0  0  0  0  0  0  0  0  0  0  0  0
   53.1201    3.8447   20.9384 C   0  0  0  0  0  0  0  0  0  0  0  0
   54.0936    3.7339   21.9095 C   0  0  0  0  0  0  0  0  0  0  0  0
   54.3437    4.7885   22.7361 C   0  0  0  0  0  0  0  0  0  0  0  0
   53.1539    6.0676   18.4145 C   0  0  0  0  0  0  0  0  0  0  0  0
   51.8096    5.7737   18.5057 C   0  0  0  0  0  0  0  0  0  0  0  0
   51.3320    5.0914   19.7107 C   0  0  2  0  0  0  0  0  0  0  0  0
   50.9097    6.0948   17.5192 C   0  0  0  0  0  0  0  0  0  0  0  0
   51.3117    6.7490   16.3465 C   0  0  0  0  0  0  0  0  0  0  0  0
   52.6442    7.0382   16.2601 C   0  0  0  0  0  0  0  0  0  0  0  0
   53.5646    6.7099   17.2687 C   0  0  0  0  0  0  0  0  0  0  0  0
   53.1811    7.6608   15.1959 F   0  0  0  0  0  0  0  0  0  0  0  0
   51.4806    8.1275   13.7318 O   0  0  0  0  0  0  0  0  0  0  0  0
   50.4167    7.6822   14.1719 C   0  0  0  0  0  0  0  0  0  0  0  0
   50.3119    7.0251   15.4095 N   0  0  0  0  0  0  0  0  0  0  0  0
   53.9441    7.0286   23.5065 C   0  0  0  0  0  0  0  0  0  0  0  0
   54.2138    7.8993   24.2250 N   0  0  0  0  0  0  0  0  0  0  0  0
   50.0994    5.6922   20.2247 N   0  0  0  0  0  0  0  0  0  0  0  0
   49.5840    4.8909   21.3165 C   0  0  0  0  0  0  0  0  0  0  0  0
   48.3149    5.4540   21.8913 C   0  0  0  0  0  0  0  0  0  0  0  0
   48.3360    6.8584   22.4856 C   0  0  0  0  0  0  0  0  0  0  0  0
   48.3013    5.6338   23.3831 C   0  0  0  0  0  0  0  0  0  0  0  0
   49.2188    7.8704   13.3235 C   0  0  0  0  0  0  0  0  0  0  0  0
   47.9288    7.4577   13.6091 C   0  0  0  0  0  0  0  0  0  0  0  0
   47.1199    7.8266   12.5653 C   0  0  0  0  0  0  0  0  0  0  0  0
   47.8998    8.4492   11.6659 N   0  0  0  0  0  0  0  0  0  0  0  0
   49.1386    8.4693   12.1246 N   0  0  0  0  0  0  0  0  0  0  0  0
   45.6595    7.6042   12.4113 C   0  0  0  0  0  0  0  0  0  0  0  0
   44.9348    8.7564   12.6437 F   0  0  0  0  0  0  0  0  0  0  0  0
   45.4332    7.1475   11.1140 F   0  0  0  0  0  0  0  0  0  0  0  0
   45.2308    6.6288   13.3167 F   0  0  0  0  0  0  0  0  0  0  0  0
   50.2367    9.0508   11.4329 C   0  0  0  0  0  0  0  0  0  0  0  0
   50.3691   10.4011   11.2137 C   0  0  0  0  0  0  0  0  0  0  0  0
   51.2063    8.1722   10.9700 C   0  0  0  0  0  0  0  0  0  0  0  0
   52.3268    8.6016   10.2816 C   0  0  0  0  0  0  0  0  0  0  0  0
   52.4558    9.9512   10.0645 C   0  0  0  0  0  0  0  0  0  0  0  0
   51.4817   10.8327   10.5297 C   0  0  0  0  0  0  0  0  0  0  0  0
   51.7095   12.2724   10.2461 C   0  0  0  0  0  0  0  0  0  0  0  0
   51.0823   12.5651    8.9538 N   0  0  0  0  0  0  0  0  0  0  0  0
   50.8023    7.5538   16.0331 Cl  0  0  0  0  0  0  0  0  0  0  0  0
   50.7937    7.0961   17.3286 H   0  0  0  0  0  0  0  0  0  0  0  0
   52.1002    6.9897   21.5350 H   0  0  0  0  0  0  0  0  0  0  0  0
   52.9056    3.0301   20.2777 H   0  0  0  0  0  0  0  0  0  0  0  0
   54.6145    2.7810   21.9530 H   0  0  0  0  0  0  0  0  0  0  0  0
   55.1217    4.6540   23.4876 H   0  0  0  0  0  0  0  0  0  0  0  0
   53.8792    5.8247   19.1770 H   0  0  0  0  0  0  0  0  0  0  0  0
   51.0563    4.0424   19.4538 H   0  0  0  0  0  0  0  0  0  0  0  0
   49.8774    5.8171   17.6948 H   0  0  0  0  0  0  0  0  0  0  0  0
   54.6119    6.9501   17.1747 H   0  0  0  0  0  0  0  0  0  0  0  0
   49.3189    6.6996   15.6447 H   0  0  0  0  0  0  0  0  0  0  0  0
   50.1949    6.6850   20.4599 H   0  0  0  0  0  0  0  0  0  0  0  0
   49.3330    3.8620   20.9648 H   0  0  0  0  0  0  0  0  0  0  0  0
   50.3095    4.7601   22.1299 H   0  0  0  0  0  0  0  0  0  0  0  0
   47.3514    5.1607   21.4099 H   0  0  0  0  0  0  0  0  0  0  0  0
   47.4080    7.4745   22.4345 H   0  0  0  0  0  0  0  0  0  0  0  0
   49.2747    7.4243   22.5399 H   0  0  0  0  0  0  0  0  0  0  0  0
   47.3367    5.4648   23.9352 H   0  0  0  0  0  0  0  0  0  0  0  0
   49.1979    5.3964   23.9986 H   0  0  0  0  0  0  0  0  0  0  0  0
   47.5854    6.9351   14.4893 H   0  0  0  0  0  0  0  0  0  0  0  0
   49.6241   11.0727   11.5698 H   0  0  0  0  0  0  0  0  0  0  0  0
   51.1253    7.0913   11.1312 H   0  0  0  0  0  0  0  0  0  0  0  0
   53.0678    7.8906    9.9322 H   0  0  0  0  0  0  0  0  0  0  0  0
   53.3313   10.2822    9.5270 H   0  0  0  0  0  0  0  0  0  0  0  0
   52.8064   12.4880   10.1962 H   0  0  0  0  0  0  0  0  0  0  0  0
   51.2681   12.9388   11.0038 H   0  0  0  0  0  0  0  0  0  0  0  0
   50.2915   11.9133    8.7428 H   0  0  0  0  0  0  0  0  0  0  0  0
   51.8049   12.3867    8.2053 H   0  0  0  0  0  0  0  0  0  0  0  0
   50.7937    7.0948   17.3322 H   0  0  0  0  0  0  0  0  0  0  0  0
  2  3  2  0
  3  4  1  0
  4  5  2  0
  5  6  1  0
  6  7  2  0
  2  7  1  0
  8  9  2  0
  9 10  1  0
 10  4  1  0
 11 12  2  0
 12 13  1  0
 13 14  2  0
  8 14  1  0
  9 11  1  0
 16 17  2  0
 17 18  1  0
 15 13  1  0
 18 12  1  0
  2 19  1  0
 19 20  3  0
 10 21  1  0
 21 22  1  0
 22 23  1  0
 23 24  1  0
 23 25  1  0
 24 25  1  0
 17 26  1  0
 27 28  1  0
 28 29  2  0
 29 30  1  0
 30 26  1  0
 27 26  2  0
 28 31  1  0
 31 32  1  0
 31 33  1  0
 31 34  1  0
 30 35  1  0
 37 38  1  0
 38 39  2  0
 39 40  1  0
 36 40  2  0
 36 35  1  0
 35 37  2  0
 40 41  1  0
 41 42  1  0
  1 44  1  0
  3 45  1  0
  5 46  1  0
  6 47  1  0
  7 48  1  0
  8 49  1  0
 10 50  1  1
 11 51  1  0
 14 52  1  0
 18 53  1  0
 21 54  1  0
 22 55  1  0
 22 56  1  0
 23 57  1  0
 24 58  1  0
 24 59  1  0
 25 60  1  0
 25 61  1  0
 27 62  1  0
 36 63  1  0
 37 64  1  0
 38 65  1  0
 39 66  1  0
 41 67  1  0
 41 68  1  0
 42 69  1  0
 42 70  1  0
 43 71  1  0
M  END
> <Uni-Dock RESULT> 
ENERGY=   -4.855  LOWER_BOUND=    4.955  UPPER_BOUND=    7.308
INTER + INTRA:          -4.855
INTER:                  -4.855
INTRA:                   0.000
UNBOUND:                 0.000

$$$$

     RDKit          3D

 71 73  0  0  0  0  0  0  0  0999 V2000
   48.1379    9.8159   14.2177 Cl  0  0  0  0  0  0  0  0  0  0  0  0
   47.8719   12.7072    7.4971 C   0  0  0  0  0  0  0  0  0  0  0  0
   47.7041   12.6563    8.8662 C   0  0  0  0  0  0  0  0  0  0  0  0
   48.6706   13.1224    9.7330 C   0  0  0  0  0  0  0  0  0  0  0  0
   49.8320   13.6506    9.1609 C   0  0  0  0  0  0  0  0  0  0  0  0
   50.0101   13.7064    7.7941 C   0  0  0  0  0  0  0  0  0  0  0  0
   49.0332   13.2363    6.9677 C   0  0  0  0  0  0  0  0  0  0  0  0
   49.4124   10.8276   10.9403 C   0  0  0  0  0  0  0  0  0  0  0  0
   48.8405   11.7664   11.7731 C   0  0  0  0  0  0  0  0  0  0  0  0
   48.5200   13.0817   11.2137 C   0  0  2  0  0  0  0  0  0  0  0  0
   48.5615   11.5167   13.0943 C   0  0  0  0  0  0  0  0  0  0  0  0
   48.8458   10.2757   13.6807 C   0  0  0  0  0  0  0  0  0  0  0  0
   49.4124    9.3485   12.8524 C   0  0  0  0  0  0  0  0  0  0  0  0
   49.6979    9.6036   11.5012 C   0  0  0  0  0  0  0  0  0  0  0  0
   49.7446    8.1139   13.2695 F   0  0  0  0  0  0  0  0  0  0  0  0
   49.1369    7.9367   15.4722 O   0  0  0  0  0  0  0  0  0  0  0  0
   48.6697    9.0100   15.8642 C   0  0  0  0  0  0  0  0  0  0  0  0
   48.5214   10.1331   15.0328 N   0  0  0  0  0  0  0  0  0  0  0  0
   46.8882   12.2317    6.5662 C   0  0  0  0  0  0  0  0  0  0  0  0
   46.1004   11.8289    5.8152 N   0  0  0  0  0  0  0  0  0  0  0  0
   47.1890   13.5371   11.6203 N   0  0  0  0  0  0  0  0  0  0  0  0
   46.9822   14.9006   11.1754 C   0  0  0  0  0  0  0  0  0  0  0  0
   45.6305   15.4309   11.5621 C   0  0  0  0  0  0  0  0  0  0  0  0
   44.3852   14.7167   11.0474 C   0  0  0  0  0  0  0  0  0  0  0  0
   44.8282   16.0394   10.4468 C   0  0  0  0  0  0  0  0  0  0  0  0
   48.2587    9.0740   17.2845 C   0  0  0  0  0  0  0  0  0  0  0  0
   47.7134   10.1642   17.9403 C   0  0  0  0  0  0  0  0  0  0  0  0
   47.4763    9.8063   19.2425 C   0  0  0  0  0  0  0  0  0  0  0  0
   47.8682    8.5281   19.3754 N   0  0  0  0  0  0  0  0  0  0  0  0
   48.3291    8.1055   18.2116 N   0  0  0  0  0  0  0  0  0  0  0  0
   46.9000   10.6340   20.3327 C   0  0  0  0  0  0  0  0  0  0  0  0
   45.5850   10.3024   20.5923 F   0  0  0  0  0  0  0  0  0  0  0  0
   47.6789   10.4390   21.4721 F   0  0  0  0  0  0  0  0  0  0  0  0
   46.9473   11.9854   19.9770 F   0  0  0  0  0  0  0  0  0  0  0  0
   48.8317    6.7955   17.9800 C   0  0  0  0  0  0  0  0  0  0  0  0
   48.0498    5.6653   18.0030 C   0  0  0  0  0  0  0  0  0  0  0  0
   50.1914    6.6959   17.7202 C   0  0  0  0  0  0  0  0  0  0  0  0
   50.8122    5.4837   17.4774 C   0  0  0  0  0  0  0  0  0  0  0  0
   50.0281    4.3568   17.5011 C   0  0  0  0  0  0  0  0  0  0  0  0
   48.6628    4.4577   17.7621 C   0  0  0  0  0  0  0  0  0  0  0  0
   47.8992    3.1842   17.7667 C   0  0  0  0  0  0  0  0  0  0  0  0
   47.9268    2.6660   19.1377 N   0  0  0  0  0  0  0  0  0  0  0  0
   48.1386    9.8132   14.2203 Cl  0  0  0  0  0  0  0  0  0  0  0  0
   47.8766   10.7744   13.2740 H   0  0  0  0  0  0  0  0  0  0  0  0
   46.7858   12.2375    9.2639 H   0  0  0  0  0  0  0  0  0  0  0  0
   50.5848   14.0137    9.8299 H   0  0  0  0  0  0  0  0  0  0  0  0
   50.9490   14.1359    7.4547 H   0  0  0  0  0  0  0  0  0  0  0  0
   49.2189   13.3013    5.8957 H   0  0  0  0  0  0  0  0  0  0  0  0
   49.6408   11.0015    9.8992 H   0  0  0  0  0  0  0  0  0  0  0  0
   49.2237   13.8392   11.6301 H   0  0  0  0  0  0  0  0  0  0  0  0
   48.1118   12.3261   13.6568 H   0  0  0  0  0  0  0  0  0  0  0  0
   50.1458    8.8530   10.8693 H   0  0  0  0  0  0  0  0  0  0  0  0
   48.1003   10.9853   15.5264 H   0  0  0  0  0  0  0  0  0  0  0  0
   46.4356   12.9008   11.3415 H   0  0  0  0  0  0  0  0  0  0  0  0
   47.7278   15.5849   11.6456 H   0  0  0  0  0  0  0  0  0  0  0  0
   47.1089   15.0200   10.0916 H   0  0  0  0  0  0  0  0  0  0  0  0
   45.5238   15.8951   12.5717 H   0  0  0  0  0  0  0  0  0  0  0  0
   43.4636   14.7297   11.6751 H   0  0  0  0  0  0  0  0  0  0  0  0
   44.4772   13.8636   10.3633 H   0  0  0  0  0  0  0  0  0  0  0  0
   44.1703   16.9212   10.6782 H   0  0  0  0  0  0  0  0  0  0  0  0
   45.2126   16.0503    9.4022 H   0  0  0  0  0  0  0  0  0  0  0  0
   47.4994   11.1393   17.5291 H   0  0  0  0  0  0  0  0  0  0  0  0
   47.0073    5.7445   18.2025 H   0  0  0  0  0  0  0  0  0  0  0  0
   50.8373    7.5808   17.6960 H   0  0  0  0  0  0  0  0  0  0  0  0
   51.8773    5.4377   17.2772 H   0  0  0  0  0  0  0  0  0  0  0  0
   50.5160    3.4130   17.3113 H   0  0  0  0  0  0  0  0  0  0  0  0
   48.3718    2.4473   17.0699 H   0  0  0  0  0  0  0  0  0  0  0  0
   46.8472    3.3082   17.4648 H   0  0  0  0  0  0  0  0  0  0  0  0
   48.0468    3.4279   19.8447 H   0  0  0  0  0  0  0  0  0  0  0  0
   48.7848    2.0576   19.2274 H   0  0  0  0  0  0  0  0  0  0  0  0
   47.8759   10.7770   13.2714 H   0  0  0  0  0  0  0  0  0  0  0  0
  2  3  2  0
  3  4  1  0
  4  5  2  0
  5  6  1  0
  6  7  2  0
  2  7  1  0
  8  9  2  0
  9 10  1  0
 10  4  1  0
 11 12  2  0
 12 13  1  0
 13 14  2  0
  8 14  1  0
  9 11  1  0
 16 17  2  0
 17 18  1  0
 15 13  1  0
 18 12  1  0
  2 19  1  0
 19 20  3  0
 10 21  1  0
 21 22  1  0
 22 23  1  0
 23 24  1  0
 23 25  1  0
 24 25  1  0
 17 26  1  0
 27 28  1  0
 28 29  2  0
 29 30  1  0
 30 26  1  0
 27 26  2  0
 28 31  1  0
 31 32  1  0
 31 33  1  0
 31 34  1  0
 30 35  1  0
 37 38  1  0
 38 39  2  0
 39 40  1  0
 36 40  2  0
 36 35  1  0
 35 37  2  0
 40 41  1  0
 41 42  1  0
  1 44  1  0
  3 45  1  0
  5 46  1  0
  6 47  1  0
  7 48  1  0
  8 49  1  0
 10 50  1  1
 11 51  1  0
 14 52  1  0
 18 53  1  0
 21 54  1  0
 22 55  1  0
 22 56  1  0
 23 57  1  0
 24 58  1  0
 24 59  1  0
 25 60  1  0
 25 61  1  0
 27 62  1  0
 36 63  1  0
 37 64  1  0
 38 65  1  0
 39 66  1  0
 41 67  1  0
 41 68  1  0
 42 69  1  0
 42 70  1  0
 43 71  1  0
M  END
> <Uni-Dock RESULT> 
ENERGY=   -4.791  LOWER_BOUND=    5.289  UPPER_BOUND=    8.335
INTER + INTRA:          -4.791
INTER:                  -4.791
INTRA:                   0.000
UNBOUND:                 0.000

$$$$

     RDKit          3D

 71 73  0  0  0  0  0  0  0  0999 V2000
   47.5659    8.9766   14.1786 Cl  0  0  0  0  0  0  0  0  0  0  0  0
   53.2758    9.5019   18.7303 C   0  0  0  0  0  0  0  0  0  0  0  0
   52.2938    8.8744   17.9906 C   0  0  0  0  0  0  0  0  0  0  0  0
   52.5284    8.4242   16.7081 C   0  0  0  0  0  0  0  0  0  0  0  0
   53.8099    8.6323   16.1888 C   0  0  0  0  0  0  0  0  0  0  0  0
   54.7987    9.2581   16.9193 C   0  0  0  0  0  0  0  0  0  0  0  0
   54.5309    9.6901   18.1841 C   0  0  0  0  0  0  0  0  0  0  0  0
   50.8842   10.0339   15.3011 C   0  0  0  0  0  0  0  0  0  0  0  0
   50.5758    8.6910   15.2432 C   0  0  0  0  0  0  0  0  0  0  0  0
   51.4910    7.7440   15.8847 C   0  0  2  0  0  0  0  0  0  0  0  0
   49.4529    8.2124   14.6139 C   0  0  0  0  0  0  0  0  0  0  0  0
   48.5428    9.0736   13.9855 C   0  0  0  0  0  0  0  0  0  0  0  0
   48.8521   10.4031   14.0451 C   0  0  0  0  0  0  0  0  0  0  0  0
   50.0003   10.8928   14.6885 C   0  0  0  0  0  0  0  0  0  0  0  0
   48.0780   11.3509   13.4873 F   0  0  0  0  0  0  0  0  0  0  0  0
   46.2628   10.3071   12.5554 O   0  0  0  0  0  0  0  0  0  0  0  0
   46.3639    9.0853   12.6999 C   0  0  0  0  0  0  0  0  0  0  0  0
   47.4359    8.4773   13.3749 N   0  0  0  0  0  0  0  0  0  0  0  0
   53.0672    9.9829   20.0665 C   0  0  0  0  0  0  0  0  0  0  0  0
   52.8912   10.3888   21.1395 N   0  0  0  0  0  0  0  0  0  0  0  0
   50.7721    6.7380   16.6692 N   0  0  0  0  0  0  0  0  0  0  0  0
   51.7033    5.7379   17.1515 C   0  0  0  0  0  0  0  0  0  0  0  0
   51.0278    4.6717   17.9669 C   0  0  0  0  0  0  0  0  0  0  0  0
   50.2824    5.0763   19.2344 C   0  0  0  0  0  0  0  0  0  0  0  0
   51.6389    4.3978   19.3121 C   0  0  0  0  0  0  0  0  0  0  0  0
   45.2828    8.2582   12.1191 C   0  0  0  0  0  0  0  0  0  0  0  0
   45.1849    6.8779   12.1573 C   0  0  0  0  0  0  0  0  0  0  0  0
   44.0361    6.5117   11.5044 C   0  0  0  0  0  0  0  0  0  0  0  0
   43.4491    7.6428   11.0793 N   0  0  0  0  0  0  0  0  0  0  0  0
   44.1949    8.6691   11.4482 N   0  0  0  0  0  0  0  0  0  0  0  0
   43.5010    5.1440   11.2834 C   0  0  0  0  0  0  0  0  0  0  0  0
   42.4436    4.8613   12.1253 F   0  0  0  0  0  0  0  0  0  0  0  0
   43.0932    5.0566    9.9534 F   0  0  0  0  0  0  0  0  0  0  0  0
   44.5060    4.1993   11.5126 F   0  0  0  0  0  0  0  0  0  0  0  0
   43.8795   10.0270   11.1676 C   0  0  0  0  0  0  0  0  0  0  0  0
   42.8123   10.6910   11.7237 C   0  0  0  0  0  0  0  0  0  0  0  0
   44.7201   10.6821   10.2785 C   0  0  0  0  0  0  0  0  0  0  0  0
   44.5301   12.0038    9.9165 C   0  0  0  0  0  0  0  0  0  0  0  0
   43.4630   12.6639   10.4740 C   0  0  0  0  0  0  0  0  0  0  0  0
   42.6194   12.0053   11.3667 C   0  0  0  0  0  0  0  0  0  0  0  0
   41.4935   12.8025   11.9161 C   0  0  0  0  0  0  0  0  0  0  0  0
   40.3543   12.6270   11.0102 N   0  0  0  0  0  0  0  0  0  0  0  0
   47.5632    8.9778   14.1763 Cl  0  0  0  0  0  0  0  0  0  0  0  0
   48.5559    8.5174   15.0072 H   0  0  0  0  0  0  0  0  0  0  0  0
   51.3144    8.7352   18.4358 H   0  0  0  0  0  0  0  0  0  0  0  0
   53.9965    8.2843   15.1938 H   0  0  0  0  0  0  0  0  0  0  0  0
   55.7585    9.3692   16.4215 H   0  0  0  0  0  0  0  0  0  0  0  0
   55.3431   10.1788   18.7221 H   0  0  0  0  0  0  0  0  0  0  0  0
   51.7609   10.4328   15.7898 H   0  0  0  0  0  0  0  0  0  0  0  0
   52.0308    7.1659   15.0994 H   0  0  0  0  0  0  0  0  0  0  0  0
   49.3084    7.1388   14.6290 H   0  0  0  0  0  0  0  0  0  0  0  0
   50.2205   11.9482   14.7206 H   0  0  0  0  0  0  0  0  0  0  0  0
   47.3741    7.4086   13.4128 H   0  0  0  0  0  0  0  0  0  0  0  0
   50.1865    7.1374   17.4092 H   0  0  0  0  0  0  0  0  0  0  0  0
   52.1909    5.2103   16.2976 H   0  0  0  0  0  0  0  0  0  0  0  0
   52.5216    6.1669   17.7443 H   0  0  0  0  0  0  0  0  0  0  0  0
   50.5933    3.7990   17.4232 H   0  0  0  0  0  0  0  0  0  0  0  0
   49.3975    4.4752   19.5491 H   0  0  0  0  0  0  0  0  0  0  0  0
   50.2865    6.1206   19.5715 H   0  0  0  0  0  0  0  0  0  0  0  0
   51.6315    3.3427   19.7001 H   0  0  0  0  0  0  0  0  0  0  0  0
   52.5107    4.9857   19.6775 H   0  0  0  0  0  0  0  0  0  0  0  0
   45.8739    6.1823   12.6124 H   0  0  0  0  0  0  0  0  0  0  0  0
   42.1692   10.1863   12.4053 H   0  0  0  0  0  0  0  0  0  0  0  0
   45.5778   10.1764    9.8209 H   0  0  0  0  0  0  0  0  0  0  0  0
   45.2043   12.4889    9.2189 H   0  0  0  0  0  0  0  0  0  0  0  0
   43.3180   13.6948   10.1891 H   0  0  0  0  0  0  0  0  0  0  0  0
   41.7755   13.8839   11.9705 H   0  0  0  0  0  0  0  0  0  0  0  0
   41.1865   12.4820   12.9241 H   0  0  0  0  0  0  0  0  0  0  0  0
   40.3990   11.7192   10.4920 H   0  0  0  0  0  0  0  0  0  0  0  0
   40.4199   13.3789   10.2722 H   0  0  0  0  0  0  0  0  0  0  0  0
   48.5586    8.5161   15.0095 H   0  0  0  0  0  0  0  0  0  0  0  0
  2  3  2  0
  3  4  1  0
  4  5  2  0
  5  6  1  0
  6  7  2  0
  2  7  1  0
  8  9  2  0
  9 10  1  0
 10  4  1  0
 11 12  2  0
 12 13  1  0
 13 14  2  0
  8 14  1  0
  9 11  1  0
 16 17  2  0
 17 18  1  0
 15 13  1  0
 18 12  1  0
  2 19  1  0
 19 20  3  0
 10 21  1  0
 21 22  1  0
 22 23  1  0
 23 24  1  0
 23 25  1  0
 24 25  1  0
 17 26  1  0
 27 28  1  0
 28 29  2  0
 29 30  1  0
 30 26  1  0
 27 26  2  0
 28 31  1  0
 31 32  1  0
 31 33  1  0
 31 34  1  0
 30 35  1  0
 37 38  1  0
 38 39  2  0
 39 40  1  0
 36 40  2  0
 36 35  1  0
 35 37  2  0
 40 41  1  0
 41 42  1  0
  1 44  1  0
  3 45  1  0
  5 46  1  0
  6 47  1  0
  7 48  1  0
  8 49  1  0
 10 50  1  1
 11 51  1  0
 14 52  1  0
 18 53  1  0
 21 54  1  0
 22 55  1  0
 22 56  1  0
 23 57  1  0
 24 58  1  0
 24 59  1  0
 25 60  1  0
 25 61  1  0
 27 62  1  0
 36 63  1  0
 37 64  1  0
 38 65  1  0
 39 66  1  0
 41 67  1  0
 41 68  1  0
 42 69  1  0
 42 70  1  0
 43 71  1  0
M  END
> <Uni-Dock RESULT> 
ENERGY=   -4.723  LOWER_BOUND=    2.883  UPPER_BOUND=    5.647
INTER + INTRA:          -4.723
INTER:                  -4.723
INTRA:                   0.000
UNBOUND:                 0.000

$$$$

     RDKit          3D

 71 73  0  0  0  0  0  0  0  0999 V2000
   50.7954    8.1872   15.0247 Cl  0  0  0  0  0  0  0  0  0  0  0  0
   55.0185   10.8700    9.6802 C   0  0  0  0  0  0  0  0  0  0  0  0
   54.2587    9.9322   10.3498 C   0  0  0  0  0  0  0  0  0  0  0  0
   52.9134    9.7706   10.0915 C   0  0  0  0  0  0  0  0  0  0  0  0
   52.3517   10.6019    9.1176 C   0  0  0  0  0  0  0  0  0  0  0  0
   53.1017   11.5424    8.4424 C   0  0  0  0  0  0  0  0  0  0  0  0
   54.4290   11.6742    8.7238 C   0  0  0  0  0  0  0  0  0  0  0  0
   51.8518   10.5556   12.4433 C   0  0  0  0  0  0  0  0  0  0  0  0
   51.6231    9.2368   12.1113 C   0  0  0  0  0  0  0  0  0  0  0  0
   52.0668    8.7688   10.7961 C   0  0  2  0  0  0  0  0  0  0  0  0
   51.0020    8.3533   12.9598 C   0  0  0  0  0  0  0  0  0  0  0  0
   50.5588    8.7470   14.2300 C   0  0  0  0  0  0  0  0  0  0  0  0
   50.7872   10.0543   14.5549 C   0  0  0  0  0  0  0  0  0  0  0  0
   51.4222   10.9579   13.6874 C   0  0  0  0  0  0  0  0  0  0  0  0
   50.4175   10.5807   15.7359 F   0  0  0  0  0  0  0  0  0  0  0  0
   49.4597    8.9069   16.9744 O   0  0  0  0  0  0  0  0  0  0  0  0
   49.4232    7.8658   16.3120 C   0  0  0  0  0  0  0  0  0  0  0  0
   49.9385    7.7658   15.0085 N   0  0  0  0  0  0  0  0  0  0  0  0
   56.4196   11.0656    9.9231 C   0  0  0  0  0  0  0  0  0  0  0  0
   57.5480   11.2359   10.1345 N   0  0  0  0  0  0  0  0  0  0  0  0
   52.7432    7.4726   10.8787 N   0  0  0  0  0  0  0  0  0  0  0  0
   53.0212    6.9810    9.5442 C   0  0  0  0  0  0  0  0  0  0  0  0
   53.7169    5.6491    9.5575 C   0  0  0  0  0  0  0  0  0  0  0  0
   55.0721    5.5338   10.2475 C   0  0  0  0  0  0  0  0  0  0  0  0
   54.9699    5.5626    8.7326 C   0  0  0  0  0  0  0  0  0  0  0  0
   48.7981    6.6908   16.9591 C   0  0  0  0  0  0  0  0  0  0  0  0
   48.6462    5.4280   16.4129 C   0  0  0  0  0  0  0  0  0  0  0  0
   48.0194    4.6336   17.3381 C   0  0  0  0  0  0  0  0  0  0  0  0
   47.7955    5.3955   18.4217 N   0  0  0  0  0  0  0  0  0  0  0  0
   48.2599    6.6098   18.1864 N   0  0  0  0  0  0  0  0  0  0  0  0
   47.6398    3.2030   17.2146 C   0  0  0  0  0  0  0  0  0  0  0  0
   48.4961    2.3793   17.9182 F   0  0  0  0  0  0  0  0  0  0  0  0
   46.3382    3.0653   17.6939 F   0  0  0  0  0  0  0  0  0  0  0  0
   47.6710    2.8191   15.8705 F   0  0  0  0  0  0  0  0  0  0  0  0
   48.1943    7.6838   19.1162 C   0  0  0  0  0  0  0  0  0  0  0  0
   48.9029    7.7155   20.2934 C   0  0  0  0  0  0  0  0  0  0  0  0
   47.3573    8.7384   18.7790 C   0  0  0  0  0  0  0  0  0  0  0  0
   47.1986    9.8468   19.5914 C   0  0  0  0  0  0  0  0  0  0  0  0
   47.9081    9.8751   20.7666 C   0  0  0  0  0  0  0  0  0  0  0  0
   48.7482    8.8157   21.1044 C   0  0  0  0  0  0  0  0  0  0  0  0
   49.4728    8.9378   22.3948 C   0  0  0  0  0  0  0  0  0  0  0  0
   48.6224    8.3403   23.4287 N   0  0  0  0  0  0  0  0  0  0  0  0
   50.7935    8.1872   15.0280 Cl  0  0  0  0  0  0  0  0  0  0  0  0
   51.4886    8.1647   13.8430 H   0  0  0  0  0  0  0  0  0  0  0  0
   54.7386    9.3095   11.0974 H   0  0  0  0  0  0  0  0  0  0  0  0
   51.3078   10.4798    8.9138 H   0  0  0  0  0  0  0  0  0  0  0  0
   52.5671   12.1362    7.7056 H   0  0  0  0  0  0  0  0  0  0  0  0
   54.9802   12.4304    8.1649 H   0  0  0  0  0  0  0  0  0  0  0  0
   52.3377   11.2677   11.7927 H   0  0  0  0  0  0  0  0  0  0  0  0
   51.1761    8.5887   10.1507 H   0  0  0  0  0  0  0  0  0  0  0  0
   50.8736    7.3407   12.5970 H   0  0  0  0  0  0  0  0  0  0  0  0
   51.5900   11.9853   13.9695 H   0  0  0  0  0  0  0  0  0  0  0  0
   49.8283    6.7937   14.5722 H   0  0  0  0  0  0  0  0  0  0  0  0
   53.5667    7.4785   11.4886 H   0  0  0  0  0  0  0  0  0  0  0  0
   52.0730    6.8276    8.9762 H   0  0  0  0  0  0  0  0  0  0  0  0
   53.6177    7.6822    8.9463 H   0  0  0  0  0  0  0  0  0  0  0  0
   53.0826    4.7320    9.6090 H   0  0  0  0  0  0  0  0  0  0  0  0
   55.3518    4.5619   10.7172 H   0  0  0  0  0  0  0  0  0  0  0  0
   55.5529    6.4210   10.6787 H   0  0  0  0  0  0  0  0  0  0  0  0
   55.2042    4.5938    8.2125 H   0  0  0  0  0  0  0  0  0  0  0  0
   55.3611    6.4506    8.1870 H   0  0  0  0  0  0  0  0  0  0  0  0
   48.9552    5.0936   15.4340 H   0  0  0  0  0  0  0  0  0  0  0  0
   49.5441    6.9054   20.5496 H   0  0  0  0  0  0  0  0  0  0  0  0
   46.7813    8.7384   17.8468 H   0  0  0  0  0  0  0  0  0  0  0  0
   46.5370   10.6557   19.3007 H   0  0  0  0  0  0  0  0  0  0  0  0
   47.7815   10.7415   21.3977 H   0  0  0  0  0  0  0  0  0  0  0  0
   49.6626   10.0149   22.6315 H   0  0  0  0  0  0  0  0  0  0  0  0
   50.4421    8.4148   22.3992 H   0  0  0  0  0  0  0  0  0  0  0  0
   47.9790    7.6134   23.0382 H   0  0  0  0  0  0  0  0  0  0  0  0
   47.9958    9.1037   23.8013 H   0  0  0  0  0  0  0  0  0  0  0  0
   51.4905    8.1646   13.8397 H   0  0  0  0  0  0  0  0  0  0  0  0
  2  3  2  0
  3  4  1  0
  4  5  2  0
  5  6  1  0
  6  7  2  0
  2  7  1  0
  8  9  2  0
  9 10  1  0
 10  4  1  0
 11 12  2  0
 12 13  1  0
 13 14  2  0
  8 14  1  0
  9 11  1  0
 16 17  2  0
 17 18  1  0
 15 13  1  0
 18 12  1  0
  2 19  1  0
 19 20  3  0
 10 21  1  0
 21 22  1  0
 22 23  1  0
 23 24  1  0
 23 25  1  0
 24 25  1  0
 17 26  1  0
 27 28  1  0
 28 29  2  0
 29 30  1  0
 30 26  1  0
 27 26  2  0
 28 31  1  0
 31 32  1  0
 31 33  1  0
 31 34  1  0
 30 35  1  0
 37 38  1  0
 38 39  2  0
 39 40  1  0
 36 40  2  0
 36 35  1  0
 35 37  2  0
 40 41  1  0
 41 42  1  0
  1 44  1  0
  3 45  1  0
  5 46  1  0
  6 47  1  0
  7 48  1  0
  8 49  1  0
 10 50  1  1
 11 51  1  0
 14 52  1  0
 18 53  1  0
 21 54  1  0
 22 55  1  0
 22 56  1  0
 23 57  1  0
 24 58  1  0
 24 59  1  0
 25 60  1  0
 25 61  1  0
 27 62  1  0
 36 63  1  0
 37 64  1  0
 38 65  1  0
 39 66  1  0
 41 67  1  0
 41 68  1  0
 42 69  1  0
 42 70  1  0
 43 71  1  0
M  END
> <Uni-Dock RESULT> 
ENERGY=   -4.617  LOWER_BOUND=    5.632  UPPER_BOUND=    8.725
INTER + INTRA:          -4.617
INTER:                  -4.617
INTRA:                   0.000
UNBOUND:                 0.000

$$$$

     RDKit          3D

 71 73  0  0  0  0  0  0  0  0999 V2000
   48.8247    9.6402   13.8964 Cl  0  0  0  0  0  0  0  0  0  0  0  0
   45.9294   14.7662    9.5446 C   0  0  0  0  0  0  0  0  0  0  0  0
   46.9262   14.0229   10.1436 C   0  0  0  0  0  0  0  0  0  0  0  0
   47.4379   12.8864    9.5526 C   0  0  0  0  0  0  0  0  0  0  0  0
   46.8999   12.5198    8.3152 C   0  0  0  0  0  0  0  0  0  0  0  0
   45.9036   13.2554    7.7075 C   0  0  0  0  0  0  0  0  0  0  0  0
   45.4219   14.3733    8.3211 C   0  0  0  0  0  0  0  0  0  0  0  0
   46.6300   11.0012   11.3040 C   0  0  0  0  0  0  0  0  0  0  0  0
   47.9970   11.1428   11.1887 C   0  0  0  0  0  0  0  0  0  0  0  0
   48.5126   12.0633   10.1725 C   0  0  2  0  0  0  0  0  0  0  0  0
   48.8849   10.4609   11.9840 C   0  0  0  0  0  0  0  0  0  0  0  0
   48.4466    9.5693   12.9728 C   0  0  0  0  0  0  0  0  0  0  0  0
   47.0918    9.4318   13.0837 C   0  0  0  0  0  0  0  0  0  0  0  0
   46.1836   10.1289   12.2704 C   0  0  0  0  0  0  0  0  0  0  0  0
   46.5198    8.6120   13.9833 F   0  0  0  0  0  0  0  0  0  0  0  0
   48.1979    7.6413   15.2058 O   0  0  0  0  0  0  0  0  0  0  0  0
   49.2947    8.0148   14.7798 C   0  0  0  0  0  0  0  0  0  0  0  0
   49.4376    8.9289   13.7221 N   0  0  0  0  0  0  0  0  0  0  0  0
   45.3737   15.9530   10.1304 C   0  0  0  0  0  0  0  0  0  0  0  0
   44.9117   16.9014   10.6144 N   0  0  0  0  0  0  0  0  0  0  0  0
   49.5866   12.9088   10.6979 N   0  0  0  0  0  0  0  0  0  0  0  0
   50.1672   13.6859    9.6215 C   0  0  0  0  0  0  0  0  0  0  0  0
   51.2800   14.5782   10.0944 C   0  0  0  0  0  0  0  0  0  0  0  0
   50.9761   15.6378   11.1482 C   0  0  0  0  0  0  0  0  0  0  0  0
   51.1707   16.0218    9.6918 C   0  0  0  0  0  0  0  0  0  0  0  0
   50.4904    7.4483   15.4427 C   0  0  0  0  0  0  0  0  0  0  0  0
   51.8130    7.7192   15.1370 C   0  0  0  0  0  0  0  0  0  0  0  0
   52.6067    6.9907   15.9852 C   0  0  0  0  0  0  0  0  0  0  0  0
   51.7858    6.2932   16.7880 N   0  0  0  0  0  0  0  0  0  0  0  0
   50.5371    6.5714   16.4583 N   0  0  0  0  0  0  0  0  0  0  0  0
   54.0900    6.9467   16.0449 C   0  0  0  0  0  0  0  0  0  0  0  0
   54.5853    7.6719   17.1105 F   0  0  0  0  0  0  0  0  0  0  0  0
   54.4719    5.6106   16.1537 F   0  0  0  0  0  0  0  0  0  0  0  0
   54.6274    7.4775   14.8683 F   0  0  0  0  0  0  0  0  0  0  0  0
   49.3982    6.0114   17.0998 C   0  0  0  0  0  0  0  0  0  0  0  0
   49.0441    6.2873   18.3989 C   0  0  0  0  0  0  0  0  0  0  0  0
   48.6283    5.1437   16.3379 C   0  0  0  0  0  0  0  0  0  0  0  0
   47.4939    4.5282   16.8361 C   0  0  0  0  0  0  0  0  0  0  0  0
   47.1431    4.8061   18.1342 C   0  0  0  0  0  0  0  0  0  0  0  0
   47.9168    5.6776   18.8985 C   0  0  0  0  0  0  0  0  0  0  0  0
   47.4572    5.9150   20.2904 C   0  0  0  0  0  0  0  0  0  0  0  0
   48.1009    4.9072   21.1383 N   0  0  0  0  0  0  0  0  0  0  0  0
   48.8247    9.6374   13.8989 Cl  0  0  0  0  0  0  0  0  0  0  0  0
   48.8345   10.6659   12.9879 H   0  0  0  0  0  0  0  0  0  0  0  0
   47.3126   14.3466   11.1043 H   0  0  0  0  0  0  0  0  0  0  0  0
   47.2942   11.6384    7.8527 H   0  0  0  0  0  0  0  0  0  0  0  0
   45.5567   12.8827    6.7473 H   0  0  0  0  0  0  0  0  0  0  0  0
   44.6353   14.9216    7.8030 H   0  0  0  0  0  0  0  0  0  0  0  0
   45.9135   11.5265   10.6900 H   0  0  0  0  0  0  0  0  0  0  0  0
   48.9836   11.4762    9.3504 H   0  0  0  0  0  0  0  0  0  0  0  0
   49.9373   10.6480   11.8076 H   0  0  0  0  0  0  0  0  0  0  0  0
   45.1181   10.0015   12.3793 H   0  0  0  0  0  0  0  0  0  0  0  0
   50.4561    9.1487   13.4738 H   0  0  0  0  0  0  0  0  0  0  0  0
   49.3039   13.4775   11.5021 H   0  0  0  0  0  0  0  0  0  0  0  0
   50.6162   13.0157    8.8504 H   0  0  0  0  0  0  0  0  0  0  0  0
   49.4277   14.2992    9.0904 H   0  0  0  0  0  0  0  0  0  0  0  0
   52.3076   14.1450   10.1446 H   0  0  0  0  0  0  0  0  0  0  0  0
   51.7827   15.9302   11.8604 H   0  0  0  0  0  0  0  0  0  0  0  0
   49.9510   15.7797   11.5133 H   0  0  0  0  0  0  0  0  0  0  0  0
   52.1144   16.5877    9.4617 H   0  0  0  0  0  0  0  0  0  0  0  0
   50.2939   16.3925    9.1148 H   0  0  0  0  0  0  0  0  0  0  0  0
   52.1885    8.3820   14.3719 H   0  0  0  0  0  0  0  0  0  0  0  0
   49.6363    6.9531   18.9810 H   0  0  0  0  0  0  0  0  0  0  0  0
   48.8881    4.9066   15.3001 H   0  0  0  0  0  0  0  0  0  0  0  0
   46.9123    3.8546   16.2160 H   0  0  0  0  0  0  0  0  0  0  0  0
   46.2576    4.3240   18.5192 H   0  0  0  0  0  0  0  0  0  0  0  0
   46.3447    5.8132   20.3531 H   0  0  0  0  0  0  0  0  0  0  0  0
   47.7275    6.9121   20.6723 H   0  0  0  0  0  0  0  0  0  0  0  0
   49.0054    4.5710   20.7337 H   0  0  0  0  0  0  0  0  0  0  0  0
   47.4681    4.0626   21.1596 H   0  0  0  0  0  0  0  0  0  0  0  0
   48.8345   10.6688   12.9854 H   0  0  0  0  0  0  0  0  0  0  0  0
  2  3  2  0
  3  4  1  0
  4  5  2  0
  5  6  1  0
  6  7  2  0
  2  7  1  0
  8  9  2  0
  9 10  1  0
 10  4  1  0
 11 12  2  0
 12 13  1  0
 13 14  2  0
  8 14  1  0
  9 11  1  0
 16 17  2  0
 17 18  1  0
 15 13  1  0
 18 12  1  0
  2 19  1  0
 19 20  3  0
 10 21  1  0
 21 22  1  0
 22 23  1  0
 23 24  1  0
 23 25  1  0
 24 25  1  0
 17 26  1  0
 27 28  1  0
 28 29  2  0
 29 30  1  0
 30 26  1  0
 27 26  2  0
 28 31  1  0
 31 32  1  0
 31 33  1  0
 31 34  1  0
 30 35  1  0
 37 38  1  0
 38 39  2  0
 39 40  1  0
 36 40  2  0
 36 35  1  0
 35 37  2  0
 40 41  1  0
 41 42  1  0
  1 44  1  0
  3 45  1  0
  5 46  1  0
  6 47  1  0
  7 48  1  0
  8 49  1  0
 10 50  1  1
 11 51  1  0
 14 52  1  0
 18 53  1  0
 21 54  1  0
 22 55  1  0
 22 56  1  0
 23 57  1  0
 24 58  1  0
 24 59  1  0
 25 60  1  0
 25 61  1  0
 27 62  1  0
 36 63  1  0
 37 64  1  0
 38 65  1  0
 39 66  1  0
 41 67  1  0
 41 68  1  0
 42 69  1  0
 42 70  1  0
 43 71  1  0
M  END
> <Uni-Dock RESULT> 
ENERGY=   -4.511  LOWER_BOUND=    4.472  UPPER_BOUND=    8.787
INTER + INTRA:          -4.511
INTER:                  -4.511
INTRA:                   0.000
UNBOUND:                 0.000

$$$$

     RDKit          3D

 71 73  0  0  0  0  0  0  0  0999 V2000
   47.3565    9.8828   12.7712 Cl  0  0  0  0  0  0  0  0  0  0  0  0
   53.8399   12.0180   15.4174 C   0  0  0  0  0  0  0  0  0  0  0  0
   52.8118   11.1446   15.1252 C   0  0  0  0  0  0  0  0  0  0  0  0
   52.8006   10.4005   13.9639 C   0  0  0  0  0  0  0  0  0  0  0  0
   53.8810   10.5709   13.0927 C   0  0  0  0  0  0  0  0  0  0  0  0
   54.9137   11.4409   13.3749 C   0  0  0  0  0  0  0  0  0  0  0  0
   54.8914   12.1603   14.5325 C   0  0  0  0  0  0  0  0  0  0  0  0
   50.6591   11.4569   12.7101 C   0  0  0  0  0  0  0  0  0  0  0  0
   50.5412   10.1239   13.0430 C   0  0  0  0  0  0  0  0  0  0  0  0
   51.7072    9.4503   13.6197 C   0  0  2  0  0  0  0  0  0  0  0  0
   49.3823    9.4107   12.8574 C   0  0  0  0  0  0  0  0  0  0  0  0
   48.2365   10.0054   12.3112 C   0  0  0  0  0  0  0  0  0  0  0  0
   48.3575   11.3261   11.9826 C   0  0  0  0  0  0  0  0  0  0  0  0
   49.5425   12.0555   12.1723 C   0  0  0  0  0  0  0  0  0  0  0  0
   47.3467   12.0331   11.4470 F   0  0  0  0  0  0  0  0  0  0  0  0
   45.5321   10.6422   11.2886 O   0  0  0  0  0  0  0  0  0  0  0  0
   45.8380    9.5108   11.6761 C   0  0  0  0  0  0  0  0  0  0  0  0
   47.1142    9.1850   12.1658 N   0  0  0  0  0  0  0  0  0  0  0  0
   53.8842   12.8077   16.6153 C   0  0  0  0  0  0  0  0  0  0  0  0
   53.9089   13.4600   17.5749 N   0  0  0  0  0  0  0  0  0  0  0  0
   51.3443    8.6250   14.7736 N   0  0  0  0  0  0  0  0  0  0  0  0
   52.4959    7.8608   15.2090 C   0  0  0  0  0  0  0  0  0  0  0  0
   52.1904    6.9889   16.3941 C   0  0  0  0  0  0  0  0  0  0  0  0
   51.7135    7.6440   17.6861 C   0  0  0  0  0  0  0  0  0  0  0  0
   53.1331    7.1199   17.5570 C   0  0  0  0  0  0  0  0  0  0  0  0
   44.7806    8.4779   11.6044 C   0  0  0  0  0  0  0  0  0  0  0  0
   44.8929    7.1505   11.9806 C   0  0  0  0  0  0  0  0  0  0  0  0
   43.6876    6.5375   11.7542 C   0  0  0  0  0  0  0  0  0  0  0  0
   42.8615    7.4704   11.2520 N   0  0  0  0  0  0  0  0  0  0  0  0
   43.5183    8.6136   11.1678 N   0  0  0  0  0  0  0  0  0  0  0  0
   43.3168    5.1204   11.9994 C   0  0  0  0  0  0  0  0  0  0  0  0
   42.5383    4.9791   13.1312 F   0  0  0  0  0  0  0  0  0  0  0  0
   42.6250    4.6617   10.8797 F   0  0  0  0  0  0  0  0  0  0  0  0
   44.4721    4.3504   12.1655 F   0  0  0  0  0  0  0  0  0  0  0  0
   42.9548    9.8239   10.6780 C   0  0  0  0  0  0  0  0  0  0  0  0
   41.9643   10.5202   11.3285 C   0  0  0  0  0  0  0  0  0  0  0  0
   43.4605   10.2943    9.4741 C   0  0  0  0  0  0  0  0  0  0  0  0
   43.0037   11.4588    8.8834 C   0  0  0  0  0  0  0  0  0  0  0  0
   42.0141   12.1518    9.5360 C   0  0  0  0  0  0  0  0  0  0  0  0
   41.5070   11.6787   10.7448 C   0  0  0  0  0  0  0  0  0  0  0  0
   40.4394   12.4968   11.3742 C   0  0  0  0  0  0  0  0  0  0  0  0
   39.1565   12.0033   10.8644 N   0  0  0  0  0  0  0  0  0  0  0  0
   47.3531    9.8832   12.7694 Cl  0  0  0  0  0  0  0  0  0  0  0  0
   48.5686    9.7331   13.3924 H   0  0  0  0  0  0  0  0  0  0  0  0
   51.9946   11.0459   15.8318 H   0  0  0  0  0  0  0  0  0  0  0  0
   53.8766    9.9952   12.1902 H   0  0  0  0  0  0  0  0  0  0  0  0
   55.7037   11.4974   12.6306 H   0  0  0  0  0  0  0  0  0  0  0  0
   55.7287   12.8345   14.7119 H   0  0  0  0  0  0  0  0  0  0  0  0
   51.5596   12.0372   12.8468 H   0  0  0  0  0  0  0  0  0  0  0  0
   52.1246    8.7354   12.8735 H   0  0  0  0  0  0  0  0  0  0  0  0
   49.4006    8.3690   13.1543 H   0  0  0  0  0  0  0  0  0  0  0  0
   49.6108   13.0979   11.9039 H   0  0  0  0  0  0  0  0  0  0  0  0
   47.2166    8.1606   12.4612 H   0  0  0  0  0  0  0  0  0  0  0  0
   50.8978    9.1525   15.5302 H   0  0  0  0  0  0  0  0  0  0  0  0
   52.8397    7.1726   14.4006 H   0  0  0  0  0  0  0  0  0  0  0  0
   53.3605    8.4922   15.4517 H   0  0  0  0  0  0  0  0  0  0  0  0
   51.7699    5.9737   16.1976 H   0  0  0  0  0  0  0  0  0  0  0  0
   51.0226    7.0746   18.3508 H   0  0  0  0  0  0  0  0  0  0  0  0
   51.6472    8.7367   17.7629 H   0  0  0  0  0  0  0  0  0  0  0  0
   53.3681    6.2028   18.1632 H   0  0  0  0  0  0  0  0  0  0  0  0
   53.9729    7.8502   17.5363 H   0  0  0  0  0  0  0  0  0  0  0  0
   45.7617    6.6530   12.3848 H   0  0  0  0  0  0  0  0  0  0  0  0
   41.5783   10.1573   12.2517 H   0  0  0  0  0  0  0  0  0  0  0  0
   44.2501    9.7588    8.9350 H   0  0  0  0  0  0  0  0  0  0  0  0
   43.4187   11.8012    7.9415 H   0  0  0  0  0  0  0  0  0  0  0  0
   41.6604   13.0597    9.0720 H   0  0  0  0  0  0  0  0  0  0  0  0
   40.5686   13.5751   11.1045 H   0  0  0  0  0  0  0  0  0  0  0  0
   40.4268   12.4223   12.4730 H   0  0  0  0  0  0  0  0  0  0  0  0
   39.2077   10.9995   10.5738 H   0  0  0  0  0  0  0  0  0  0  0  0
   38.9387   12.5432    9.9838 H   0  0  0  0  0  0  0  0  0  0  0  0
   48.5719    9.7327   13.3941 H   0  0  0  0  0  0  0  0  0  0  0  0
  2  3  2  0
  3  4  1  0
  4  5  2  0
  5  6  1  0
  6  7  2  0
  2  7  1  0
  8  9  2  0
  9 10  1  0
 10  4  1  0
 11 12  2  0
 12 13  1  0
 13 14  2  0
  8 14  1  0
  9 11  1  0
 16 17  2  0
 17 18  1  0
 15 13  1  0
 18 12  1  0
  2 19  1  0
 19 20  3  0
 10 21  1  0
 21 22  1  0
 22 23  1  0
 23 24  1  0
 23 25  1  0
 24 25  1  0
 17 26  1  0
 27 28  1  0
 28 29  2  0
 29 30  1  0
 30 26  1  0
 27 26  2  0
 28 31  1  0
 31 32  1  0
 31 33  1  0
 31 34  1  0
 30 35  1  0
 37 38  1  0
 38 39  2  0
 39 40  1  0
 36 40  2  0
 36 35  1  0
 35 37  2  0
 40 41  1  0
 41 42  1  0
  1 44  1  0
  3 45  1  0
  5 46  1  0
  6 47  1  0
  7 48  1  0
  8 49  1  0
 10 50  1  1
 11 51  1  0
 14 52  1  0
 18 53  1  0
 21 54  1  0
 22 55  1  0
 22 56  1  0
 23 57  1  0
 24 58  1  0
 24 59  1  0
 25 60  1  0
 25 61  1  0
 27 62  1  0
 36 63  1  0
 37 64  1  0
 38 65  1  0
 39 66  1  0
 41 67  1  0
 41 68  1  0
 42 69  1  0
 42 70  1  0
 43 71  1  0
M  END
> <Uni-Dock RESULT> 
ENERGY=   -4.486  LOWER_BOUND=    3.027  UPPER_BOUND=    5.568
INTER + INTRA:          -4.486
INTER:                  -4.486
INTRA:                   0.000
UNBOUND:                 0.000

$$$$

     RDKit          3D

 71 73  0  0  0  0  0  0  0  0999 V2000
   49.3364    9.7996   14.2195 Cl  0  0  0  0  0  0  0  0  0  0  0  0
   49.7406    3.2697   17.5048 C   0  0  0  0  0  0  0  0  0  0  0  0
   49.6632    4.6449   17.4159 C   0  0  0  0  0  0  0  0  0  0  0  0
   48.4528    5.3060   17.4376 C   0  0  0  0  0  0  0  0  0  0  0  0
   47.3035    4.5181   17.5541 C   0  0  0  0  0  0  0  0  0  0  0  0
   47.3693    3.1431   17.6437 C   0  0  0  0  0  0  0  0  0  0  0  0
   48.5833    2.5237   17.6191 C   0  0  0  0  0  0  0  0  0  0  0  0
   48.3987    6.3382   14.9464 C   0  0  0  0  0  0  0  0  0  0  0  0
   48.4243    7.2695   15.9633 C   0  0  0  0  0  0  0  0  0  0  0  0
   48.3357    6.7873   17.3437 C   0  0  2  0  0  0  0  0  0  0  0  0
   48.5301    8.6192   15.7330 C   0  0  0  0  0  0  0  0  0  0  0  0
   48.6195    9.1351   14.4327 C   0  0  0  0  0  0  0  0  0  0  0  0
   48.5937    8.2092   13.4283 C   0  0  0  0  0  0  0  0  0  0  0  0
   48.4855    6.8290   13.6635 C   0  0  0  0  0  0  0  0  0  0  0  0
   48.6680    8.5498   12.1294 F   0  0  0  0  0  0  0  0  0  0  0  0
   48.8866   10.8286   12.0190 O   0  0  0  0  0  0  0  0  0  0  0  0
   48.8475   11.3074   13.1561 C   0  0  0  0  0  0  0  0  0  0  0  0
   48.7218   10.5242   14.3160 N   0  0  0  0  0  0  0  0  0  0  0  0
   50.9819    2.5491   17.4854 C   0  0  0  0  0  0  0  0  0  0  0  0
   51.9851    1.9666   17.4498 N   0  0  0  0  0  0  0  0  0  0  0  0
   49.3088    7.4488   18.2153 N   0  0  0  0  0  0  0  0  0  0  0  0
   49.0779    7.0566   19.5911 C   0  0  0  0  0  0  0  0  0  0  0  0
   50.0459    7.7028   20.5414 C   0  0  0  0  0  0  0  0  0  0  0  0
   51.5378    7.4411   20.3631 C   0  0  0  0  0  0  0  0  0  0  0  0
   50.7574    6.7685   21.4789 C   0  0  0  0  0  0  0  0  0  0  0  0
   48.9405   12.7809   13.2576 C   0  0  0  0  0  0  0  0  0  0  0  0
   48.9184   13.5339   14.4190 C   0  0  0  0  0  0  0  0  0  0  0  0
   49.0292   14.8564   14.0743 C   0  0  0  0  0  0  0  0  0  0  0  0
   49.1167   14.9064   12.7346 N   0  0  0  0  0  0  0  0  0  0  0  0
   49.0631   13.6737   12.2624 N   0  0  0  0  0  0  0  0  0  0  0  0
   49.0527   16.0407   14.9702 C   0  0  0  0  0  0  0  0  0  0  0  0
   50.3268   16.5529   15.1151 F   0  0  0  0  0  0  0  0  0  0  0  0
   48.2065   17.0042   14.4241 F   0  0  0  0  0  0  0  0  0  0  0  0
   48.5783   15.6860   16.2368 F   0  0  0  0  0  0  0  0  0  0  0  0
   49.1276   13.3446   10.8805 C   0  0  0  0  0  0  0  0  0  0  0  0
   50.2514   13.5179   10.1085 C   0  0  0  0  0  0  0  0  0  0  0  0
   47.9710   12.8223   10.3185 C   0  0  0  0  0  0  0  0  0  0  0  0
   47.8938   12.4591    8.9858 C   0  0  0  0  0  0  0  0  0  0  0  0
   49.0184   12.6337    8.2177 C   0  0  0  0  0  0  0  0  0  0  0  0
   50.1793   13.1582    8.7828 C   0  0  0  0  0  0  0  0  0  0  0  0
   51.3426   13.3096    7.8723 C   0  0  0  0  0  0  0  0  0  0  0  0
   51.2581   14.6471    7.2783 N   0  0  0  0  0  0  0  0  0  0  0  0
   49.3363    9.8021   14.2166 Cl  0  0  0  0  0  0  0  0  0  0  0  0
   49.3946    8.9281   15.2752 H   0  0  0  0  0  0  0  0  0  0  0  0
   50.5823    5.2144   17.3269 H   0  0  0  0  0  0  0  0  0  0  0  0
   46.3618    5.0270   17.5714 H   0  0  0  0  0  0  0  0  0  0  0  0
   46.4169    2.6269   17.7310 H   0  0  0  0  0  0  0  0  0  0  0  0
   48.5851    1.4362   17.6926 H   0  0  0  0  0  0  0  0  0  0  0  0
   48.3160    5.2729   15.1036 H   0  0  0  0  0  0  0  0  0  0  0  0
   47.3400    7.0591   17.7643 H   0  0  0  0  0  0  0  0  0  0  0  0
   48.5409    9.2611   16.6056 H   0  0  0  0  0  0  0  0  0  0  0  0
   48.4674    6.1194   12.8514 H   0  0  0  0  0  0  0  0  0  0  0  0
   48.7033   11.0931   15.2233 H   0  0  0  0  0  0  0  0  0  0  0  0
   50.2803    7.3220   17.9150 H   0  0  0  0  0  0  0  0  0  0  0  0
   48.0610    7.3729   19.9247 H   0  0  0  0  0  0  0  0  0  0  0  0
   49.1157    5.9693   19.7374 H   0  0  0  0  0  0  0  0  0  0  0  0
   49.7892    8.7148   20.9365 H   0  0  0  0  0  0  0  0  0  0  0  0
   52.2594    8.2378   20.6596 H   0  0  0  0  0  0  0  0  0  0  0  0
   51.8914    6.7502   19.5873 H   0  0  0  0  0  0  0  0  0  0  0  0
   50.9918    7.1269   22.5184 H   0  0  0  0  0  0  0  0  0  0  0  0
   50.5928    5.6687   21.4287 H   0  0  0  0  0  0  0  0  0  0  0  0
   48.8306   13.1752   15.4335 H   0  0  0  0  0  0  0  0  0  0  0  0
   51.1371   13.9187   10.5420 H   0  0  0  0  0  0  0  0  0  0  0  0
   47.0614   12.6738   10.9112 H   0  0  0  0  0  0  0  0  0  0  0  0
   46.9755   12.0534    8.5752 H   0  0  0  0  0  0  0  0  0  0  0  0
   48.9542   12.3493    7.1785 H   0  0  0  0  0  0  0  0  0  0  0  0
   51.3087   12.5316    7.0688 H   0  0  0  0  0  0  0  0  0  0  0  0
   52.3116   13.2207    8.3883 H   0  0  0  0  0  0  0  0  0  0  0  0
   50.7404   15.3187    7.8912 H   0  0  0  0  0  0  0  0  0  0  0  0
   50.6824   14.5649    6.3973 H   0  0  0  0  0  0  0  0  0  0  0  0
   49.3948    8.9257   15.2781 H   0  0  0  0  0  0  0  0  0  0  0  0
  2  3  2  0
  3  4  1  0
  4  5  2  0
  5  6  1  0
  6  7  2  0
  2  7  1  0
  8  9  2  0
  9 10  1  0
 10  4  1  0
 11 12  2  0
 12 13  1  0
 13 14  2  0
  8 14  1  0
  9 11  1  0
 16 17  2  0
 17 18  1  0
 15 13  1  0
 18 12  1  0
  2 19  1  0
 19 20  3  0
 10 21  1  0
 21 22  1  0
 22 23  1  0
 23 24  1  0
 23 25  1  0
 24 25  1  0
 17 26  1  0
 27 28  1  0
 28 29  2  0
 29 30  1  0
 30 26  1  0
 27 26  2  0
 28 31  1  0
 31 32  1  0
 31 33  1  0
 31 34  1  0
 30 35  1  0
 37 38  1  0
 38 39  2  0
 39 40  1  0
 36 40  2  0
 36 35  1  0
 35 37  2  0
 40 41  1  0
 41 42  1  0
  1 44  1  0
  3 45  1  0
  5 46  1  0
  6 47  1  0
  7 48  1  0
  8 49  1  0
 10 50  1  1
 11 51  1  0
 14 52  1  0
 18 53  1  0
 21 54  1  0
 22 55  1  0
 22 56  1  0
 23 57  1  0
 24 58  1  0
 24 59  1  0
 25 60  1  0
 25 61  1  0
 27 62  1  0
 36 63  1  0
 37 64  1  0
 38 65  1  0
 39 66  1  0
 41 67  1  0
 41 68  1  0
 42 69  1  0
 42 70  1  0
 43 71  1  0
M  END
> <Uni-Dock RESULT> 
ENERGY=   -4.411  LOWER_BOUND=    4.713  UPPER_BOUND=    7.907
INTER + INTRA:          -4.411
INTER:                  -4.411
INTRA:                   0.000
UNBOUND:                 0.000

$$$$
