
     RDKit          3D

 71 73  0  0  0  0  0  0  0  0999 V2000
   44.7896   10.5751   11.5623 Cl  0  0  0  0  0  0  0  0  0  0  0  0
   47.1444   16.2896    9.3048 C   0  0  0  0  0  0  0  0  0  0  0  0
   46.4458   15.6960   10.3356 C   0  0  0  0  0  0  0  0  0  0  0  0
   45.0588   15.5350   10.2954 C   0  0  0  0  0  0  0  0  0  0  0  0
   44.4294   16.0110    9.1519 C   0  0  0  0  0  0  0  0  0  0  0  0
   45.1218   16.6064    8.1163 C   0  0  0  0  0  0  0  0  0  0  0  0
   46.4922   16.7531    8.1810 C   0  0  0  0  0  0  0  0  0  0  0  0
   42.7825   13.2847   10.3747 C   0  0  0  0  0  0  0  0  0  0  0  0
   43.9068   13.5073   11.1328 C   0  0  0  0  0  0  0  0  0  0  0  0
   44.3164   14.9039   11.3917 C   0  0  2  0  0  0  0  0  0  0  0  0
   44.6554   12.4812   11.6533 C   0  0  0  0  0  0  0  0  0  0  0  0
   44.3241   11.1350   11.4473 C   0  0  0  0  0  0  0  0  0  0  0  0
   43.2008   10.9254   10.6895 C   0  0  0  0  0  0  0  0  0  0  0  0
   42.4350   11.9716   10.1568 C   0  0  0  0  0  0  0  0  0  0  0  0
   42.7500    9.6924   10.3981 F   0  0  0  0  0  0  0  0  0  0  0  0
   44.1600    8.1852   11.4242 O   0  0  0  0  0  0  0  0  0  0  0  0
   45.0629    8.7821   11.9996 C   0  0  0  0  0  0  0  0  0  0  0  0
   45.1550   10.1830   12.0206 N   0  0  0  0  0  0  0  0  0  0  0  0
   48.5720   16.4023    9.4539 C   0  0  0  0  0  0  0  0  0  0  0  0
   49.7111   16.4799    9.5822 N   0  0  0  0  0  0  0  0  0  0  0  0
   43.1062   15.6323   11.7518 N   0  0  0  0  0  0  0  0  0  0  0  0
   43.3429   16.9737   12.1855 C   0  0  0  0  0  0  0  0  0  0  0  0
   42.0085   17.5881   12.5183 C   0  0  0  0  0  0  0  0  0  0  0  0
   41.9044   18.9910   13.0050 C   0  0  0  0  0  0  0  0  0  0  0  0
   41.7229   17.8291   13.9854 C   0  0  0  0  0  0  0  0  0  0  0  0
   46.0793    7.9542   12.6898 C   0  0  0  0  0  0  0  0  0  0  0  0
   47.1842    8.4113   13.3994 C   0  0  0  0  0  0  0  0  0  0  0  0
   47.8903    7.3183   13.8948 C   0  0  0  0  0  0  0  0  0  0  0  0
   47.2009    6.2447   13.4758 N   0  0  0  0  0  0  0  0  0  0  0  0
   46.1447    6.6197   12.7730 N   0  0  0  0  0  0  0  0  0  0  0  0
   49.1448    7.3650   14.7145 C   0  0  0  0  0  0  0  0  0  0  0  0
   49.1791    6.2473   15.5338 F   0  0  0  0  0  0  0  0  0  0  0  0
   49.2406    8.5435   15.3970 F   0  0  0  0  0  0  0  0  0  0  0  0
   50.2019    7.2482   13.8331 F   0  0  0  0  0  0  0  0  0  0  0  0
   45.1948    5.7440   12.1778 C   0  0  0  0  0  0  0  0  0  0  0  0
   45.3842    5.1229   10.9664 C   0  0  0  0  0  0  0  0  0  0  0  0
   44.0217    5.5380   12.9064 C   0  0  0  0  0  0  0  0  0  0  0  0
   43.0218    4.7107   12.4381 C   0  0  0  0  0  0  0  0  0  0  0  0
   43.2036    4.0915   11.2370 C   0  0  0  0  0  0  0  0  0  0  0  0
   44.3640    4.2991   10.5227 C   0  0  0  0  0  0  0  0  0  0  0  0
   44.5164    3.5998    9.2144 C   0  0  0  0  0  0  0  0  0  0  0  0
   45.1587    2.3189    9.5390 N   0  0  0  0  0  0  0  0  0  0  0  0
   44.7896   10.5834   11.5621 Cl  0  0  0  0  0  0  0  0  0  0  0  0
   44.7803   11.9575   11.5235 H   0  0  0  0  0  0  0  0  0  0  0  0
   46.9383   15.3218   11.2341 H   0  0  0  0  0  0  0  0  0  0  0  0
   43.3604   15.9313    9.0303 H   0  0  0  0  0  0  0  0  0  0  0  0
   44.6426   16.9806    7.2214 H   0  0  0  0  0  0  0  0  0  0  0  0
   47.0673   17.2138    7.3896 H   0  0  0  0  0  0  0  0  0  0  0  0
   42.1697   14.0624    9.9493 H   0  0  0  0  0  0  0  0  0  0  0  0
   44.9929   14.9259   12.2829 H   0  0  0  0  0  0  0  0  0  0  0  0
   45.5261   12.7706   12.2392 H   0  0  0  0  0  0  0  0  0  0  0  0
   41.5527   11.7765    9.5624 H   0  0  0  0  0  0  0  0  0  0  0  0
   46.0039   10.5486   12.5673 H   0  0  0  0  0  0  0  0  0  0  0  0
   42.5036   15.0606   12.3500 H   0  0  0  0  0  0  0  0  0  0  0  0
   43.7697   17.5447   11.3274 H   0  0  0  0  0  0  0  0  0  0  0  0
   44.0652   17.0494   13.0217 H   0  0  0  0  0  0  0  0  0  0  0  0
   41.1490   17.2164   11.9075 H   0  0  0  0  0  0  0  0  0  0  0  0
   40.9664   19.5482   12.7774 H   0  0  0  0  0  0  0  0  0  0  0  0
   42.8118   19.6086   13.1192 H   0  0  0  0  0  0  0  0  0  0  0  0
   42.5300   17.6099   14.7035 H   0  0  0  0  0  0  0  0  0  0  0  0
   40.6778   17.6130   14.3410 H   0  0  0  0  0  0  0  0  0  0  0  0
   47.4556    9.4632   13.5454 H   0  0  0  0  0  0  0  0  0  0  0  0
   46.2954    5.2979   10.4253 H   0  0  0  0  0  0  0  0  0  0  0  0
   43.8691    6.0277   13.8643 H   0  0  0  0  0  0  0  0  0  0  0  0
   42.1292    4.5805   13.0369 H   0  0  0  0  0  0  0  0  0  0  0  0
   42.3981    3.4407   10.8859 H   0  0  0  0  0  0  0  0  0  0  0  0
   43.5061    3.4223    8.7929 H   0  0  0  0  0  0  0  0  0  0  0  0
   45.1231    4.1604    8.4906 H   0  0  0  0  0  0  0  0  0  0  0  0
   44.4205    1.7744   10.0724 H   0  0  0  0  0  0  0  0  0  0  0  0
   45.9564    2.5440   10.2038 H   0  0  0  0  0  0  0  0  0  0  0  0
   44.7804   11.9492   11.5237 H   0  0  0  0  0  0  0  0  0  0  0  0
  2  3  2  0
  3  4  1  0
  4  5  2  0
  5  6  1  0
  6  7  2  0
  2  7  1  0
  8  9  2  0
  9 10  1  0
 10  4  1  0
 11 12  2  0
 12 13  1  0
 13 14  2  0
  8 14  1  0
  9 11  1  0
 16 17  2  0
 17 18  1  0
 15 13  1  0
 18 12  1  0
  2 19  1  0
 19 20  3  0
 10 21  1  0
 21 22  1  0
 22 23  1  0
 23 24  1  0
 23 25  1  0
 24 25  1  0
 17 26  1  0
 27 28  1  0
 28 29  2  0
 29 30  1  0
 30 26  1  0
 27 26  2  0
 28 31  1  0
 31 32  1  0
 31 33  1  0
 31 34  1  0
 30 35  1  0
 37 38  1  0
 38 39  2  0
 39 40  1  0
 36 40  2  0
 36 35  1  0
 35 37  2  0
 40 41  1  0
 41 42  1  0
  1 44  1  0
  3 45  1  0
  5 46  1  0
  6 47  1  0
  7 48  1  0
  8 49  1  0
 10 50  1  6
 11 51  1  0
 14 52  1  0
 18 53  1  0
 21 54  1  0
 22 55  1  0
 22 56  1  0
 23 57  1  0
 24 58  1  0
 24 59  1  0
 25 60  1  0
 25 61  1  0
 27 62  1  0
 36 63  1  0
 37 64  1  0
 38 65  1  0
 39 66  1  0
 41 67  1  0
 41 68  1  0
 42 69  1  0
 42 70  1  0
 43 71  1  0
M  END
> <Uni-Dock RESULT> 
ENERGY=   -6.026  LOWER_BOUND=    0.000  UPPER_BOUND=    0.000
INTER + INTRA:          -6.026
INTER:                  -6.026
INTRA:                   0.000
UNBOUND:                 0.000

$$$$

     RDKit          3D

 71 73  0  0  0  0  0  0  0  0999 V2000
   45.8724   10.5225   12.0407 Cl  0  0  0  0  0  0  0  0  0  0  0  0
   40.5128   13.5087   14.4187 C   0  0  0  0  0  0  0  0  0  0  0  0
   41.0428   12.8720   13.3157 C   0  0  0  0  0  0  0  0  0  0  0  0
   41.7548   13.5622   12.3319 C   0  0  0  0  0  0  0  0  0  0  0  0
   41.8945   14.9294   12.5359 C   0  0  0  0  0  0  0  0  0  0  0  0
   41.3669   15.5736   13.6373 C   0  0  0  0  0  0  0  0  0  0  0  0
   40.6675   14.8682   14.5948 C   0  0  0  0  0  0  0  0  0  0  0  0
   44.6245   13.6785   10.9165 C   0  0  0  0  0  0  0  0  0  0  0  0
   43.7750   12.6446   11.2286 C   0  0  0  0  0  0  0  0  0  0  0  0
   42.3180   12.8848   11.1591 C   0  0  2  0  0  0  0  0  0  0  0  0
   44.2334   11.4051   11.5997 C   0  0  0  0  0  0  0  0  0  0  0  0
   45.6006   11.1087   11.6858 C   0  0  0  0  0  0  0  0  0  0  0  0
   46.4384   12.1480   11.3723 C   0  0  0  0  0  0  0  0  0  0  0  0
   45.9724   13.4144   10.9932 C   0  0  0  0  0  0  0  0  0  0  0  0
   47.7773   12.0278   11.4080 F   0  0  0  0  0  0  0  0  0  0  0  0
   48.2563    9.8563   12.0145 O   0  0  0  0  0  0  0  0  0  0  0  0
   47.2166    9.2420   12.2251 C   0  0  0  0  0  0  0  0  0  0  0  0
   45.9470    9.8221   12.0730 N   0  0  0  0  0  0  0  0  0  0  0  0
   39.7978   12.6972   15.3690 C   0  0  0  0  0  0  0  0  0  0  0  0
   39.2356   12.0374   16.1231 N   0  0  0  0  0  0  0  0  0  0  0  0
   42.0741   13.6049    9.9154 N   0  0  0  0  0  0  0  0  0  0  0  0
   40.6892   13.7871    9.6115 C   0  0  0  0  0  0  0  0  0  0  0  0
   40.6025   14.5400    8.3098 C   0  0  0  0  0  0  0  0  0  0  0  0
   39.2875   14.8934    7.7084 C   0  0  0  0  0  0  0  0  0  0  0  0
   40.1194   13.7571    7.1075 C   0  0  0  0  0  0  0  0  0  0  0  0
   47.3485    7.8307   12.6562 C   0  0  0  0  0  0  0  0  0  0  0  0
   46.3142    6.9493   12.9507 C   0  0  0  0  0  0  0  0  0  0  0  0
   46.8551    5.7196   13.3164 C   0  0  0  0  0  0  0  0  0  0  0  0
   48.1845    5.8902   13.2336 N   0  0  0  0  0  0  0  0  0  0  0  0
   48.4687    7.1234   12.8481 N   0  0  0  0  0  0  0  0  0  0  0  0
   46.0907    4.4919   13.7114 C   0  0  0  0  0  0  0  0  0  0  0  0
   46.8391    3.3762   13.3695 F   0  0  0  0  0  0  0  0  0  0  0  0
   44.8396    4.4966   13.1649 F   0  0  0  0  0  0  0  0  0  0  0  0
   45.9985    4.5054   15.0896 F   0  0  0  0  0  0  0  0  0  0  0  0
   49.7767    7.6486   12.6565 C   0  0  0  0  0  0  0  0  0  0  0  0
   50.5641    8.1257   13.6772 C   0  0  0  0  0  0  0  0  0  0  0  0
   50.2388    7.6570   11.3390 C   0  0  0  0  0  0  0  0  0  0  0  0
   51.4911    8.1405   11.0206 C   0  0  0  0  0  0  0  0  0  0  0  0
   52.2772    8.6152   12.0285 C   0  0  0  0  0  0  0  0  0  0  0  0
   51.8151    8.6041   13.3271 C   0  0  0  0  0  0  0  0  0  0  0  0
   52.7114    9.1338   14.3946 C   0  0  0  0  0  0  0  0  0  0  0  0
   53.4878    7.9732   14.8517 N   0  0  0  0  0  0  0  0  0  0  0  0
   45.8653   10.5265   12.0396 Cl  0  0  0  0  0  0  0  0  0  0  0  0
   44.6759   11.1906   11.8547 H   0  0  0  0  0  0  0  0  0  0  0  0
   40.9340   11.7988   13.1538 H   0  0  0  0  0  0  0  0  0  0  0  0
   42.4284   15.5463   11.8300 H   0  0  0  0  0  0  0  0  0  0  0  0
   41.4693   16.6372   13.8067 H   0  0  0  0  0  0  0  0  0  0  0  0
   40.2406   15.3387   15.4699 H   0  0  0  0  0  0  0  0  0  0  0  0
   44.3035   14.6640   10.6214 H   0  0  0  0  0  0  0  0  0  0  0  0
   41.7899   11.9014   11.0806 H   0  0  0  0  0  0  0  0  0  0  0  0
   43.4733   10.6589   11.8249 H   0  0  0  0  0  0  0  0  0  0  0  0
   46.6569   14.2161   10.7511 H   0  0  0  0  0  0  0  0  0  0  0  0
   45.1394    9.1505   12.2961 H   0  0  0  0  0  0  0  0  0  0  0  0
   42.6602   13.2355    9.1618 H   0  0  0  0  0  0  0  0  0  0  0  0
   40.2434   14.4345   10.4031 H   0  0  0  0  0  0  0  0  0  0  0  0
   40.1100   12.8431    9.5950 H   0  0  0  0  0  0  0  0  0  0  0  0
   41.4368   15.2600    8.1214 H   0  0  0  0  0  0  0  0  0  0  0  0
   39.2388   15.8091    7.0750 H   0  0  0  0  0  0  0  0  0  0  0  0
   38.3497   14.6147    8.2191 H   0  0  0  0  0  0  0  0  0  0  0  0
   39.7954   12.7168    7.2745 H   0  0  0  0  0  0  0  0  0  0  0  0
   40.6370   13.9587    6.1294 H   0  0  0  0  0  0  0  0  0  0  0  0
   45.2447    7.1850   12.9025 H   0  0  0  0  0  0  0  0  0  0  0  0
   50.1855    8.1083   14.6822 H   0  0  0  0  0  0  0  0  0  0  0  0
   49.6185    7.2806   10.5301 H   0  0  0  0  0  0  0  0  0  0  0  0
   51.8076    8.1275    9.9853 H   0  0  0  0  0  0  0  0  0  0  0  0
   53.2653    8.9933   11.7527 H   0  0  0  0  0  0  0  0  0  0  0  0
   53.3865    9.8883   13.9420 H   0  0  0  0  0  0  0  0  0  0  0  0
   52.1665    9.5854   15.2345 H   0  0  0  0  0  0  0  0  0  0  0  0
   54.1220    7.7344   14.0352 H   0  0  0  0  0  0  0  0  0  0  0  0
   52.7927    7.1801   14.9806 H   0  0  0  0  0  0  0  0  0  0  0  0
   44.6830   11.1866   11.8558 H   0  0  0  0  0  0  0  0  0  0  0  0
  2  3  2  0
  3  4  1  0
  4  5  2  0
  5  6  1  0
  6  7  2  0
  2  7  1  0
  8  9  2  0
  9 10  1  0
 10  4  1  0
 11 12  2  0
 12 13  1  0
 13 14  2  0
  8 14  1  0
  9 11  1  0
 16 17  2  0
 17 18  1  0
 15 13  1  0
 18 12  1  0
  2 19  1  0
 19 20  3  0
 10 21  1  0
 21 22  1  0
 22 23  1  0
 23 24  1  0
 23 25  1  0
 24 25  1  0
 17 26  1  0
 27 28  1  0
 28 29  2  0
 29 30  1  0
 30 26  1  0
 27 26  2  0
 28 31  1  0
 31 32  1  0
 31 33  1  0
 31 34  1  0
 30 35  1  0
 37 38  1  0
 38 39  2  0
 39 40  1  0
 36 40  2  0
 36 35  1  0
 35 37  2  0
 40 41  1  0
 41 42  1  0
  1 44  1  0
  3 45  1  0
  5 46  1  0
  6 47  1  0
  7 48  1  0
  8 49  1  0
 10 50  1  6
 11 51  1  0
 14 52  1  0
 18 53  1  0
 21 54  1  0
 22 55  1  0
 22 56  1  0
 23 57  1  0
 24 58  1  0
 24 59  1  0
 25 60  1  0
 25 61  1  0
 27 62  1  0
 36 63  1  0
 37 64  1  0
 38 65  1  0
 39 66  1  0
 41 67  1  0
 41 68  1  0
 42 69  1  0
 42 70  1  0
 43 71  1  0
M  END
> <Uni-Dock RESULT> 
ENERGY=   -5.825  LOWER_BOUND=    3.314  UPPER_BOUND=    6.149
INTER + INTRA:          -5.825
INTER:                  -5.825
INTRA:                   0.000
UNBOUND:                 0.000

$$$$

     RDKit          3D

 71 73  0  0  0  0  0  0  0  0999 V2000
   48.8881    8.8162   17.3176 Cl  0  0  0  0  0  0  0  0  0  0  0  0
   51.4181   14.8539   17.9832 C   0  0  0  0  0  0  0  0  0  0  0  0
   50.2550   14.1458   17.7622 C   0  0  0  0  0  0  0  0  0  0  0  0
   49.8402   13.7829   16.4786 C   0  0  0  0  0  0  0  0  0  0  0  0
   50.6736   14.1807   15.4406 C   0  0  0  0  0  0  0  0  0  0  0  0
   51.8391   14.8896   15.6540 C   0  0  0  0  0  0  0  0  0  0  0  0
   52.2262   15.2356   16.9323 C   0  0  0  0  0  0  0  0  0  0  0  0
   49.1547   11.2206   14.6853 C   0  0  0  0  0  0  0  0  0  0  0  0
   48.8026   11.5932   15.9602 C   0  0  0  0  0  0  0  0  0  0  0  0
   48.6033   13.0302   16.2441 C   0  0  2  0  0  0  0  0  0  0  0  0
   48.6313   10.6798   16.9704 C   0  0  0  0  0  0  0  0  0  0  0  0
   48.8036    9.3033   16.7708 C   0  0  0  0  0  0  0  0  0  0  0  0
   49.1549    8.9436   15.4951 C   0  0  0  0  0  0  0  0  0  0  0  0
   49.3305    9.8746   14.4621 C   0  0  0  0  0  0  0  0  0  0  0  0
   49.3601    7.6628   15.1401 F   0  0  0  0  0  0  0  0  0  0  0  0
   48.9662    6.3623   17.0019 O   0  0  0  0  0  0  0  0  0  0  0  0
   48.6872    7.0758   17.9589 C   0  0  0  0  0  0  0  0  0  0  0  0
   48.6053    8.4744   17.8657 N   0  0  0  0  0  0  0  0  0  0  0  0
   51.7472   15.1731   19.3480 C   0  0  0  0  0  0  0  0  0  0  0  0
   52.0019   15.4156   20.4418 N   0  0  0  0  0  0  0  0  0  0  0  0
   47.8123   13.5659   15.1432 N   0  0  0  0  0  0  0  0  0  0  0  0
   47.3945   14.9198   15.3328 C   0  0  0  0  0  0  0  0  0  0  0  0
   46.5952   15.3248   14.1222 C   0  0  0  0  0  0  0  0  0  0  0  0
   46.0098   16.6884   14.0044 C   0  0  0  0  0  0  0  0  0  0  0  0
   45.1044   15.4955   14.3231 C   0  0  0  0  0  0  0  0  0  0  0  0
   48.4326    6.3949   19.2498 C   0  0  0  0  0  0  0  0  0  0  0  0
   48.1041    6.9975   20.4590 C   0  0  0  0  0  0  0  0  0  0  0  0
   47.9466    6.0121   21.4300 C   0  0  0  0  0  0  0  0  0  0  0  0
   48.1815    4.8560   20.7883 N   0  0  0  0  0  0  0  0  0  0  0  0
   48.4647    5.0834   19.5162 N   0  0  0  0  0  0  0  0  0  0  0  0
   47.5918    6.2289   22.8704 C   0  0  0  0  0  0  0  0  0  0  0  0
   46.9070    5.1144   23.3295 F   0  0  0  0  0  0  0  0  0  0  0  0
   46.9039    7.3966   23.0352 F   0  0  0  0  0  0  0  0  0  0  0  0
   48.7813    6.2846   23.5704 F   0  0  0  0  0  0  0  0  0  0  0  0
   48.7651    4.0876   18.5457 C   0  0  0  0  0  0  0  0  0  0  0  0
   50.0087    3.5225   18.3926 C   0  0  0  0  0  0  0  0  0  0  0  0
   47.7020    3.6983   17.7287 C   0  0  0  0  0  0  0  0  0  0  0  0
   47.8632    2.7409   16.7485 C   0  0  0  0  0  0  0  0  0  0  0  0
   49.0943    2.1762   16.5915 C   0  0  0  0  0  0  0  0  0  0  0  0
   50.1398    2.5651   17.4013 C   0  0  0  0  0  0  0  0  0  0  0  0
   51.4671    1.9188   17.1912 C   0  0  0  0  0  0  0  0  0  0  0  0
   51.4614    0.7412   18.0697 N   0  0  0  0  0  0  0  0  0  0  0  0
   48.8877    8.8244   17.3164 Cl  0  0  0  0  0  0  0  0  0  0  0  0
   48.8298   10.1826   17.1122 H   0  0  0  0  0  0  0  0  0  0  0  0
   49.5995   13.8328   18.5759 H   0  0  0  0  0  0  0  0  0  0  0  0
   50.4361   13.9464   14.4146 H   0  0  0  0  0  0  0  0  0  0  0  0
   52.4957   15.2045   14.8538 H   0  0  0  0  0  0  0  0  0  0  0  0
   53.1318   15.7897   17.1374 H   0  0  0  0  0  0  0  0  0  0  0  0
   49.2984   11.9067   13.8669 H   0  0  0  0  0  0  0  0  0  0  0  0
   47.9899   13.1362   17.1740 H   0  0  0  0  0  0  0  0  0  0  0  0
   48.3520   11.0842   17.9419 H   0  0  0  0  0  0  0  0  0  0  0  0
   49.6077    9.5619   13.4645 H   0  0  0  0  0  0  0  0  0  0  0  0
   48.3505    8.9515   18.7934 H   0  0  0  0  0  0  0  0  0  0  0  0
   47.0864   12.9013   14.8615 H   0  0  0  0  0  0  0  0  0  0  0  0
   48.3060   15.5623   15.3625 H   0  0  0  0  0  0  0  0  0  0  0  0
   46.8445   15.0866   16.2796 H   0  0  0  0  0  0  0  0  0  0  0  0
   46.9071   14.8412   13.1637 H   0  0  0  0  0  0  0  0  0  0  0  0
   45.8735   17.1050   12.9797 H   0  0  0  0  0  0  0  0  0  0  0  0
   46.1645   17.4309   14.8060 H   0  0  0  0  0  0  0  0  0  0  0  0
   44.7133   15.3853   15.3478 H   0  0  0  0  0  0  0  0  0  0  0  0
   44.4353   15.1215   13.4999 H   0  0  0  0  0  0  0  0  0  0  0  0
   47.9877    8.0752   20.6216 H   0  0  0  0  0  0  0  0  0  0  0  0
   50.8101    3.8393   19.0336 H   0  0  0  0  0  0  0  0  0  0  0  0
   46.7178    4.1434   17.8474 H   0  0  0  0  0  0  0  0  0  0  0  0
   47.0107    2.4702   16.1385 H   0  0  0  0  0  0  0  0  0  0  0  0
   49.1985    1.4201   15.8086 H   0  0  0  0  0  0  0  0  0  0  0  0
   51.5378    1.6016   16.1309 H   0  0  0  0  0  0  0  0  0  0  0  0
   52.3131    2.5752   17.4354 H   0  0  0  0  0  0  0  0  0  0  0  0
   50.7495    0.0846   17.6362 H   0  0  0  0  0  0  0  0  0  0  0  0
   51.0879    1.0697   19.0084 H   0  0  0  0  0  0  0  0  0  0  0  0
   48.8302   10.1744   17.1134 H   0  0  0  0  0  0  0  0  0  0  0  0
  2  3  2  0
  3  4  1  0
  4  5  2  0
  5  6  1  0
  6  7  2  0
  2  7  1  0
  8  9  2  0
  9 10  1  0
 10  4  1  0
 11 12  2  0
 12 13  1  0
 13 14  2  0
  8 14  1  0
  9 11  1  0
 16 17  2  0
 17 18  1  0
 15 13  1  0
 18 12  1  0
  2 19  1  0
 19 20  3  0
 10 21  1  0
 21 22  1  0
 22 23  1  0
 23 24  1  0
 23 25  1  0
 24 25  1  0
 17 26  1  0
 27 28  1  0
 28 29  2  0
 29 30  1  0
 30 26  1  0
 27 26  2  0
 28 31  1  0
 31 32  1  0
 31 33  1  0
 31 34  1  0
 30 35  1  0
 37 38  1  0
 38 39  2  0
 39 40  1  0
 36 40  2  0
 36 35  1  0
 35 37  2  0
 40 41  1  0
 41 42  1  0
  1 44  1  0
  3 45  1  0
  5 46  1  0
  6 47  1  0
  7 48  1  0
  8 49  1  0
 10 50  1  6
 11 51  1  0
 14 52  1  0
 18 53  1  0
 21 54  1  0
 22 55  1  0
 22 56  1  0
 23 57  1  0
 24 58  1  0
 24 59  1  0
 25 60  1  0
 25 61  1  0
 27 62  1  0
 36 63  1  0
 37 64  1  0
 38 65  1  0
 39 66  1  0
 41 67  1  0
 41 68  1  0
 42 69  1  0
 42 70  1  0
 43 71  1  0
M  END
> <Uni-Dock RESULT> 
ENERGY=   -5.301  LOWER_BOUND=    6.258  UPPER_BOUND=    8.072
INTER + INTRA:          -5.301
INTER:                  -5.301
INTRA:                   0.000
UNBOUND:                 0.000

$$$$

     RDKit          3D

 71 73  0  0  0  0  0  0  0  0999 V2000
   48.3289    8.1985   15.0985 Cl  0  0  0  0  0  0  0  0  0  0  0  0
   48.5319   14.2518   12.5266 C   0  0  0  0  0  0  0  0  0  0  0  0
   47.7094   13.1781   12.7983 C   0  0  0  0  0  0  0  0  0  0  0  0
   47.5436   12.1241   11.8967 C   0  0  0  0  0  0  0  0  0  0  0  0
   48.2595   12.2270   10.7104 C   0  0  0  0  0  0  0  0  0  0  0  0
   49.0845   13.2985   10.4315 C   0  0  0  0  0  0  0  0  0  0  0  0
   49.2307   14.3269   11.3396 C   0  0  0  0  0  0  0  0  0  0  0  0
   47.9316    8.9573   11.6275 C   0  0  0  0  0  0  0  0  0  0  0  0
   47.3783    9.7541   12.6008 C   0  0  0  0  0  0  0  0  0  0  0  0
   46.6689   10.9828   12.1858 C   0  0  2  0  0  0  0  0  0  0  0  0
   47.4631    9.4469   13.9360 C   0  0  0  0  0  0  0  0  0  0  0  0
   48.1201    8.2986   14.3986 C   0  0  0  0  0  0  0  0  0  0  0  0
   48.6681    7.5116   13.4186 C   0  0  0  0  0  0  0  0  0  0  0  0
   48.5829    7.8234   12.0547 C   0  0  0  0  0  0  0  0  0  0  0  0
   49.3337    6.3766   13.6965 F   0  0  0  0  0  0  0  0  0  0  0  0
   49.2831    6.0929   15.9833 O   0  0  0  0  0  0  0  0  0  0  0  0
   48.7024    7.0359   16.5089 C   0  0  0  0  0  0  0  0  0  0  0  0
   48.1438    8.0913   15.7704 N   0  0  0  0  0  0  0  0  0  0  0  0
   48.6268   15.2806   13.5293 C   0  0  0  0  0  0  0  0  0  0  0  0
   48.6992   16.0913   14.3402 N   0  0  0  0  0  0  0  0  0  0  0  0
   45.8240   10.6140   11.0567 N   0  0  0  0  0  0  0  0  0  0  0  0
   44.9465   11.6558   10.6229 C   0  0  0  0  0  0  0  0  0  0  0  0
   44.1477   11.1258    9.4612 C   0  0  0  0  0  0  0  0  0  0  0  0
   43.1329   11.9698    8.7729 C   0  0  0  0  0  0  0  0  0  0  0  0
   42.6808   10.8534    9.7182 C   0  0  0  0  0  0  0  0  0  0  0  0
   48.6074    7.0236   17.9873 C   0  0  0  0  0  0  0  0  0  0  0  0
   48.0006    7.9821   18.7913 C   0  0  0  0  0  0  0  0  0  0  0  0
   48.1264    7.6027   20.1250 C   0  0  0  0  0  0  0  0  0  0  0  0
   48.7973    6.4399   20.0900 N   0  0  0  0  0  0  0  0  0  0  0  0
   49.0762    6.1051   18.8409 N   0  0  0  0  0  0  0  0  0  0  0  0
   47.6128    8.3528   21.3171 C   0  0  0  0  0  0  0  0  0  0  0  0
   47.3291    7.4424   22.3234 F   0  0  0  0  0  0  0  0  0  0  0  0
   46.5500    9.1405   20.9799 F   0  0  0  0  0  0  0  0  0  0  0  0
   48.6527    9.1405   21.7712 F   0  0  0  0  0  0  0  0  0  0  0  0
   49.7766    4.9351   18.4357 C   0  0  0  0  0  0  0  0  0  0  0  0
   51.1469    4.8282   18.4353 C   0  0  0  0  0  0  0  0  0  0  0  0
   48.9801    3.8646   18.0246 C   0  0  0  0  0  0  0  0  0  0  0  0
   49.5377    2.6735   17.6079 C   0  0  0  0  0  0  0  0  0  0  0  0
   50.8965    2.5609   17.6052 C   0  0  0  0  0  0  0  0  0  0  0  0
   51.6773    3.6215   18.0122 C   0  0  0  0  0  0  0  0  0  0  0  0
   53.1584    3.4501   17.9915 C   0  0  0  0  0  0  0  0  0  0  0  0
   53.5000    2.9225   19.3196 N   0  0  0  0  0  0  0  0  0  0  0  0
   48.3258    8.2044   15.0936 Cl  0  0  0  0  0  0  0  0  0  0  0  0
   47.8119    9.1818   14.2748 H   0  0  0  0  0  0  0  0  0  0  0  0
   47.1465   13.0956   13.7290 H   0  0  0  0  0  0  0  0  0  0  0  0
   48.1954   11.4616    9.9529 H   0  0  0  0  0  0  0  0  0  0  0  0
   49.6466   13.3894    9.5116 H   0  0  0  0  0  0  0  0  0  0  0  0
   49.8676   15.1812   11.1556 H   0  0  0  0  0  0  0  0  0  0  0  0
   47.8863    9.1643   10.5710 H   0  0  0  0  0  0  0  0  0  0  0  0
   45.9902   11.3089   13.0137 H   0  0  0  0  0  0  0  0  0  0  0  0
   46.9892   10.1475   14.6215 H   0  0  0  0  0  0  0  0  0  0  0  0
   49.0247    7.1835   11.3030 H   0  0  0  0  0  0  0  0  0  0  0  0
   47.6705    8.8377   16.3803 H   0  0  0  0  0  0  0  0  0  0  0  0
   45.3992    9.6948   11.2069 H   0  0  0  0  0  0  0  0  0  0  0  0
   45.5710   12.4986   10.2431 H   0  0  0  0  0  0  0  0  0  0  0  0
   44.3046   12.0607   11.4296 H   0  0  0  0  0  0  0  0  0  0  0  0
   44.6788   10.3786    8.8212 H   0  0  0  0  0  0  0  0  0  0  0  0
   42.9356   11.7646    7.6954 H   0  0  0  0  0  0  0  0  0  0  0  0
   42.9586   13.0088    9.1017 H   0  0  0  0  0  0  0  0  0  0  0  0
   42.2785   11.1265   10.7074 H   0  0  0  0  0  0  0  0  0  0  0  0
   42.2475    9.9264    9.2512 H   0  0  0  0  0  0  0  0  0  0  0  0
   47.5031    8.8906   18.4324 H   0  0  0  0  0  0  0  0  0  0  0  0
   51.7374    5.6661   18.7560 H   0  0  0  0  0  0  0  0  0  0  0  0
   47.8965    3.9463   18.0238 H   0  0  0  0  0  0  0  0  0  0  0  0
   48.8812    1.8704   17.2978 H   0  0  0  0  0  0  0  0  0  0  0  0
   51.3161    1.6081   17.2710 H   0  0  0  0  0  0  0  0  0  0  0  0
   53.4136    2.7061   17.2098 H   0  0  0  0  0  0  0  0  0  0  0  0
   53.7011    4.3855   17.7995 H   0  0  0  0  0  0  0  0  0  0  0  0
   53.0966    1.9412   19.3319 H   0  0  0  0  0  0  0  0  0  0  0  0
   52.9669    3.5140   20.0229 H   0  0  0  0  0  0  0  0  0  0  0  0
   47.8150    9.1759   14.2797 H   0  0  0  0  0  0  0  0  0  0  0  0
  2  3  2  0
  3  4  1  0
  4  5  2  0
  5  6  1  0
  6  7  2  0
  2  7  1  0
  8  9  2  0
  9 10  1  0
 10  4  1  0
 11 12  2  0
 12 13  1  0
 13 14  2  0
  8 14  1  0
  9 11  1  0
 16 17  2  0
 17 18  1  0
 15 13  1  0
 18 12  1  0
  2 19  1  0
 19 20  3  0
 10 21  1  0
 21 22  1  0
 22 23  1  0
 23 24  1  0
 23 25  1  0
 24 25  1  0
 17 26  1  0
 27 28  1  0
 28 29  2  0
 29 30  1  0
 30 26  1  0
 27 26  2  0
 28 31  1  0
 31 32  1  0
 31 33  1  0
 31 34  1  0
 30 35  1  0
 37 38  1  0
 38 39  2  0
 39 40  1  0
 36 40  2  0
 36 35  1  0
 35 37  2  0
 40 41  1  0
 41 42  1  0
  1 44  1  0
  3 45  1  0
  5 46  1  0
  6 47  1  0
  7 48  1  0
  8 49  1  0
 10 50  1  6
 11 51  1  0
 14 52  1  0
 18 53  1  0
 21 54  1  0
 22 55  1  0
 22 56  1  0
 23 57  1  0
 24 58  1  0
 24 59  1  0
 25 60  1  0
 25 61  1  0
 27 62  1  0
 36 63  1  0
 37 64  1  0
 38 65  1  0
 39 66  1  0
 41 67  1  0
 41 68  1  0
 42 69  1  0
 42 70  1  0
 43 71  1  0
M  END
> <Uni-Dock RESULT> 
ENERGY=   -5.196  LOWER_BOUND=    4.610  UPPER_BOUND=    7.064
INTER + INTRA:          -5.196
INTER:                  -5.196
INTRA:                   0.000
UNBOUND:                 0.000

$$$$

     RDKit          3D

 71 73  0  0  0  0  0  0  0  0999 V2000
   48.1591    8.6355   13.4176 Cl  0  0  0  0  0  0  0  0  0  0  0  0
   54.1366   11.3830   13.5500 C   0  0  0  0  0  0  0  0  0  0  0  0
   52.8825   11.4033   14.1243 C   0  0  0  0  0  0  0  0  0  0  0  0
   51.8468   12.1908   13.6161 C   0  0  0  0  0  0  0  0  0  0  0  0
   52.1609   12.9512   12.4966 C   0  0  0  0  0  0  0  0  0  0  0  0
   53.4138   12.9362   11.9164 C   0  0  0  0  0  0  0  0  0  0  0  0
   54.4196   12.1491   12.4382 C   0  0  0  0  0  0  0  0  0  0  0  0
   48.8902   11.9851   12.4045 C   0  0  0  0  0  0  0  0  0  0  0  0
   49.4932   11.4238   13.5042 C   0  0  0  0  0  0  0  0  0  0  0  0
   50.5135   12.2122   14.2271 C   0  0  2  0  0  0  0  0  0  0  0  0
   49.1800   10.1635   13.9491 C   0  0  0  0  0  0  0  0  0  0  0  0
   48.2228    9.3623   13.3119 C   0  0  0  0  0  0  0  0  0  0  0  0
   47.6280    9.9329   12.2160 C   0  0  0  0  0  0  0  0  0  0  0  0
   47.9464   11.2194   11.7599 C   0  0  0  0  0  0  0  0  0  0  0  0
   46.6911    9.2946   11.4926 F   0  0  0  0  0  0  0  0  0  0  0  0
   46.3394    7.2425   12.4817 O   0  0  0  0  0  0  0  0  0  0  0  0
   47.0895    7.1071   13.4418 C   0  0  0  0  0  0  0  0  0  0  0  0
   47.9896    8.1045   13.8496 N   0  0  0  0  0  0  0  0  0  0  0  0
   55.1273   10.5336   14.1581 C   0  0  0  0  0  0  0  0  0  0  0  0
   55.9067    9.8466   14.6487 N   0  0  0  0  0  0  0  0  0  0  0  0
   49.9748   13.5593   14.3686 N   0  0  0  0  0  0  0  0  0  0  0  0
   50.7724   14.4213   15.1837 C   0  0  0  0  0  0  0  0  0  0  0  0
   50.0904   15.7633   15.2325 C   0  0  0  0  0  0  0  0  0  0  0  0
   50.6692   16.8958   16.0062 C   0  0  0  0  0  0  0  0  0  0  0  0
   49.4485   16.1475   16.5487 C   0  0  0  0  0  0  0  0  0  0  0  0
   47.0119    5.8226   14.1759 C   0  0  0  0  0  0  0  0  0  0  0  0
   47.7626    5.4504   15.2856 C   0  0  0  0  0  0  0  0  0  0  0  0
   47.3899    4.1673   15.6770 C   0  0  0  0  0  0  0  0  0  0  0  0
   46.4362    3.8046   14.8039 N   0  0  0  0  0  0  0  0  0  0  0  0
   46.2183    4.7731   13.9294 N   0  0  0  0  0  0  0  0  0  0  0  0
   47.9516    3.3884   16.8283 C   0  0  0  0  0  0  0  0  0  0  0  0
   46.9711    2.5303   17.3017 F   0  0  0  0  0  0  0  0  0  0  0  0
   48.4538    4.2222   17.7856 F   0  0  0  0  0  0  0  0  0  0  0  0
   48.9638    2.5981   16.3194 F   0  0  0  0  0  0  0  0  0  0  0  0
   45.2756    4.7287   12.8650 C   0  0  0  0  0  0  0  0  0  0  0  0
   45.5191    4.1233   11.6553 C   0  0  0  0  0  0  0  0  0  0  0  0
   44.0505    5.3497   13.1152 C   0  0  0  0  0  0  0  0  0  0  0  0
   43.0515    5.3759   12.1639 C   0  0  0  0  0  0  0  0  0  0  0  0
   43.2867    4.7771   10.9618 C   0  0  0  0  0  0  0  0  0  0  0  0
   44.4984    4.1657   10.7211 C   0  0  0  0  0  0  0  0  0  0  0  0
   44.7082    3.5246    9.3912 C   0  0  0  0  0  0  0  0  0  0  0  0
   44.2470    2.1397    9.5583 N   0  0  0  0  0  0  0  0  0  0  0  0
   48.1641    8.6418   13.4195 Cl  0  0  0  0  0  0  0  0  0  0  0  0
   49.0023    9.6849   13.7344 H   0  0  0  0  0  0  0  0  0  0  0  0
   52.6341   10.8070   15.0033 H   0  0  0  0  0  0  0  0  0  0  0  0
   51.4259   13.5908   12.0333 H   0  0  0  0  0  0  0  0  0  0  0  0
   53.6699   13.5239   11.0448 H   0  0  0  0  0  0  0  0  0  0  0  0
   55.4121   12.1119   12.0106 H   0  0  0  0  0  0  0  0  0  0  0  0
   49.1087   12.9698   12.0250 H   0  0  0  0  0  0  0  0  0  0  0  0
   50.6337   11.7943   15.2582 H   0  0  0  0  0  0  0  0  0  0  0  0
   49.7181    9.8170   14.8298 H   0  0  0  0  0  0  0  0  0  0  0  0
   47.4607   11.6446   10.8921 H   0  0  0  0  0  0  0  0  0  0  0  0
   48.5744    7.8295   14.7072 H   0  0  0  0  0  0  0  0  0  0  0  0
   48.9742   13.5288   14.5825 H   0  0  0  0  0  0  0  0  0  0  0  0
   51.7562   14.5638   14.6774 H   0  0  0  0  0  0  0  0  0  0  0  0
   50.9787   14.0133   16.1926 H   0  0  0  0  0  0  0  0  0  0  0  0
   49.5204   16.0401   14.3114 H   0  0  0  0  0  0  0  0  0  0  0  0
   50.4511   17.9291   15.6502 H   0  0  0  0  0  0  0  0  0  0  0  0
   51.6204   16.7682   16.5509 H   0  0  0  0  0  0  0  0  0  0  0  0
   49.5828   15.4601   17.3999 H   0  0  0  0  0  0  0  0  0  0  0  0
   48.4555   16.6731   16.4946 H   0  0  0  0  0  0  0  0  0  0  0  0
   48.5253    6.0682   15.7736 H   0  0  0  0  0  0  0  0  0  0  0  0
   46.4698    3.6525   11.4875 H   0  0  0  0  0  0  0  0  0  0  0  0
   43.8552    5.8292   14.0705 H   0  0  0  0  0  0  0  0  0  0  0  0
   42.1175    5.8690   12.4018 H   0  0  0  0  0  0  0  0  0  0  0  0
   42.4809    4.8103   10.2234 H   0  0  0  0  0  0  0  0  0  0  0  0
   44.0753    4.0487    8.6465 H   0  0  0  0  0  0  0  0  0  0  0  0
   45.7555    3.5427    9.0609 H   0  0  0  0  0  0  0  0  0  0  0  0
   43.1955    2.2180    9.6777 H   0  0  0  0  0  0  0  0  0  0  0  0
   44.6642    1.7934   10.4719 H   0  0  0  0  0  0  0  0  0  0  0  0
   48.9973    9.6786   13.7325 H   0  0  0  0  0  0  0  0  0  0  0  0
  2  3  2  0
  3  4  1  0
  4  5  2  0
  5  6  1  0
  6  7  2  0
  2  7  1  0
  8  9  2  0
  9 10  1  0
 10  4  1  0
 11 12  2  0
 12 13  1  0
 13 14  2  0
  8 14  1  0
  9 11  1  0
 16 17  2  0
 17 18  1  0
 15 13  1  0
 18 12  1  0
  2 19  1  0
 19 20  3  0
 10 21  1  0
 21 22  1  0
 22 23  1  0
 23 24  1  0
 23 25  1  0
 24 25  1  0
 17 26  1  0
 27 28  1  0
 28 29  2  0
 29 30  1  0
 30 26  1  0
 27 26  2  0
 28 31  1  0
 31 32  1  0
 31 33  1  0
 31 34  1  0
 30 35  1  0
 37 38  1  0
 38 39  2  0
 39 40  1  0
 36 40  2  0
 36 35  1  0
 35 37  2  0
 40 41  1  0
 41 42  1  0
  1 44  1  0
  3 45  1  0
  5 46  1  0
  6 47  1  0
  7 48  1  0
  8 49  1  0
 10 50  1  6
 11 51  1  0
 14 52  1  0
 18 53  1  0
 21 54  1  0
 22 55  1  0
 22 56  1  0
 23 57  1  0
 24 58  1  0
 24 59  1  0
 25 60  1  0
 25 61  1  0
 27 62  1  0
 36 63  1  0
 37 64  1  0
 38 65  1  0
 39 66  1  0
 41 67  1  0
 41 68  1  0
 42 69  1  0
 42 70  1  0
 43 71  1  0
M  END
> <Uni-Dock RESULT> 
ENERGY=   -5.127  LOWER_BOUND=    4.679  UPPER_BOUND=    6.037
INTER + INTRA:          -5.127
INTER:                  -5.127
INTRA:                   0.000
UNBOUND:                 0.000

$$$$

     RDKit          3D

 71 73  0  0  0  0  0  0  0  0999 V2000
   48.4841    9.1715   15.8981 Cl  0  0  0  0  0  0  0  0  0  0  0  0
   44.2923   11.0833   11.2001 C   0  0  0  0  0  0  0  0  0  0  0  0
   45.5808   10.6552   11.4438 C   0  0  0  0  0  0  0  0  0  0  0  0
   46.6109   11.5447   11.7584 C   0  0  0  0  0  0  0  0  0  0  0  0
   46.2542   12.8865   11.8097 C   0  0  0  0  0  0  0  0  0  0  0  0
   44.9668   13.3225   11.5669 C   0  0  0  0  0  0  0  0  0  0  0  0
   43.9674   12.4227   11.2582 C   0  0  0  0  0  0  0  0  0  0  0  0
   48.7366   12.2240   14.0543 C   0  0  0  0  0  0  0  0  0  0  0  0
   48.3565   11.0517   13.4465 C   0  0  0  0  0  0  0  0  0  0  0  0
   47.9808   11.0891   12.0172 C   0  0  2  0  0  0  0  0  0  0  0  0
   48.3153    9.8563   14.1198 C   0  0  0  0  0  0  0  0  0  0  0  0
   48.6584    9.7491   15.4745 C   0  0  0  0  0  0  0  0  0  0  0  0
   49.0359   10.9251   16.0702 C   0  0  0  0  0  0  0  0  0  0  0  0
   49.0786   12.1469   15.3846 C   0  0  0  0  0  0  0  0  0  0  0  0
   49.3929   10.9929   17.3649 F   0  0  0  0  0  0  0  0  0  0  0  0
   49.2718    8.8573   18.2236 O   0  0  0  0  0  0  0  0  0  0  0  0
   48.8730    8.0821   17.3618 C   0  0  0  0  0  0  0  0  0  0  0  0
   48.5777    8.4896   16.0510 N   0  0  0  0  0  0  0  0  0  0  0  0
   43.3112   10.0777   10.8854 C   0  0  0  0  0  0  0  0  0  0  0  0
   42.5364    9.2649   10.6422 N   0  0  0  0  0  0  0  0  0  0  0  0
   48.9866   11.9015   11.3440 N   0  0  0  0  0  0  0  0  0  0  0  0
   48.8621   11.9181    9.9200 C   0  0  0  0  0  0  0  0  0  0  0  0
   49.9618   12.7915    9.3756 C   0  0  0  0  0  0  0  0  0  0  0  0
   50.1138   13.0196    7.9125 C   0  0  0  0  0  0  0  0  0  0  0  0
   51.0838   12.0870    8.6429 C   0  0  0  0  0  0  0  0  0  0  0  0
   48.7092    6.6646   17.7604 C   0  0  0  0  0  0  0  0  0  0  0  0
   48.2717    5.6181   16.9562 C   0  0  0  0  0  0  0  0  0  0  0  0
   48.2571    4.4445   17.7052 C   0  0  0  0  0  0  0  0  0  0  0  0
   48.6810    4.8102   18.9259 N   0  0  0  0  0  0  0  0  0  0  0  0
   48.9439    6.1064   18.9543 N   0  0  0  0  0  0  0  0  0  0  0  0
   47.8506    3.0845   17.2228 C   0  0  0  0  0  0  0  0  0  0  0  0
   48.5485    2.1314   17.9483 F   0  0  0  0  0  0  0  0  0  0  0  0
   48.0198    2.9726   15.8727 F   0  0  0  0  0  0  0  0  0  0  0  0
   46.5152    2.9311   17.5406 F   0  0  0  0  0  0  0  0  0  0  0  0
   49.4126    6.8299   20.0859 C   0  0  0  0  0  0  0  0  0  0  0  0
   48.5931    7.2970   21.0855 C   0  0  0  0  0  0  0  0  0  0  0  0
   50.7904    7.0506   20.1350 C   0  0  0  0  0  0  0  0  0  0  0  0
   51.3701    7.7393   21.1805 C   0  0  0  0  0  0  0  0  0  0  0  0
   50.5627    8.2053   22.1754 C   0  0  0  0  0  0  0  0  0  0  0  0
   49.2032    7.9841   22.1209 C   0  0  0  0  0  0  0  0  0  0  0  0
   48.3618    8.5132   23.2325 C   0  0  0  0  0  0  0  0  0  0  0  0
   48.3160    7.4308   24.2249 N   0  0  0  0  0  0  0  0  0  0  0  0
   48.4825    9.1746   15.8906 Cl  0  0  0  0  0  0  0  0  0  0  0  0
   48.2283    9.6796   14.6375 H   0  0  0  0  0  0  0  0  0  0  0  0
   45.8627    9.6022   11.4038 H   0  0  0  0  0  0  0  0  0  0  0  0
   46.9817   13.6478   12.0446 H   0  0  0  0  0  0  0  0  0  0  0  0
   44.6774   14.3644   11.6040 H   0  0  0  0  0  0  0  0  0  0  0  0
   42.9486   12.7274   11.0623 H   0  0  0  0  0  0  0  0  0  0  0  0
   48.7816   13.1807   13.5603 H   0  0  0  0  0  0  0  0  0  0  0  0
   48.0535   10.0556   11.5943 H   0  0  0  0  0  0  0  0  0  0  0  0
   47.9999    8.9894   13.5416 H   0  0  0  0  0  0  0  0  0  0  0  0
   49.3807   13.0595   15.8802 H   0  0  0  0  0  0  0  0  0  0  0  0
   48.2401    7.6895   15.4193 H   0  0  0  0  0  0  0  0  0  0  0  0
   49.9197   11.7053   11.7166 H   0  0  0  0  0  0  0  0  0  0  0  0
   47.8910   12.4034    9.6632 H   0  0  0  0  0  0  0  0  0  0  0  0
   48.8558   10.9093    9.4628 H   0  0  0  0  0  0  0  0  0  0  0  0
   50.2668   13.6391   10.0378 H   0  0  0  0  0  0  0  0  0  0  0  0
   50.5660   13.9840    7.5845 H   0  0  0  0  0  0  0  0  0  0  0  0
   49.4090   12.5555    7.2014 H   0  0  0  0  0  0  0  0  0  0  0  0
   50.9888   10.9992    8.4922 H   0  0  0  0  0  0  0  0  0  0  0  0
   52.1265   12.4677    8.8251 H   0  0  0  0  0  0  0  0  0  0  0  0
   47.9844    5.7036   15.9018 H   0  0  0  0  0  0  0  0  0  0  0  0
   47.5364    7.1142   21.0243 H   0  0  0  0  0  0  0  0  0  0  0  0
   51.4407    6.6826   19.3461 H   0  0  0  0  0  0  0  0  0  0  0  0
   52.4427    7.8868   21.1769 H   0  0  0  0  0  0  0  0  0  0  0  0
   51.0440    8.7482   22.9935 H   0  0  0  0  0  0  0  0  0  0  0  0
   48.8680    9.4015   23.6621 H   0  0  0  0  0  0  0  0  0  0  0  0
   47.3462    8.7864   22.9161 H   0  0  0  0  0  0  0  0  0  0  0  0
   49.3029    7.3769   24.6111 H   0  0  0  0  0  0  0  0  0  0  0  0
   48.1171    6.5377   23.6849 H   0  0  0  0  0  0  0  0  0  0  0  0
   48.2299    9.6766   14.6451 H   0  0  0  0  0  0  0  0  0  0  0  0
  2  3  2  0
  3  4  1  0
  4  5  2  0
  5  6  1  0
  6  7  2  0
  2  7  1  0
  8  9  2  0
  9 10  1  0
 10  4  1  0
 11 12  2  0
 12 13  1  0
 13 14  2  0
  8 14  1  0
  9 11  1  0
 16 17  2  0
 17 18  1  0
 15 13  1  0
 18 12  1  0
  2 19  1  0
 19 20  3  0
 10 21  1  0
 21 22  1  0
 22 23  1  0
 23 24  1  0
 23 25  1  0
 24 25  1  0
 17 26  1  0
 27 28  1  0
 28 29  2  0
 29 30  1  0
 30 26  1  0
 27 26  2  0
 28 31  1  0
 31 32  1  0
 31 33  1  0
 31 34  1  0
 30 35  1  0
 37 38  1  0
 38 39  2  0
 39 40  1  0
 36 40  2  0
 36 35  1  0
 35 37  2  0
 40 41  1  0
 41 42  1  0
  1 44  1  0
  3 45  1  0
  5 46  1  0
  6 47  1  0
  7 48  1  0
  8 49  1  0
 10 50  1  6
 11 51  1  0
 14 52  1  0
 18 53  1  0
 21 54  1  0
 22 55  1  0
 22 56  1  0
 23 57  1  0
 24 58  1  0
 24 59  1  0
 25 60  1  0
 25 61  1  0
 27 62  1  0
 36 63  1  0
 37 64  1  0
 38 65  1  0
 39 66  1  0
 41 67  1  0
 41 68  1  0
 42 69  1  0
 42 70  1  0
 43 71  1  0
M  END
> <Uni-Dock RESULT> 
ENERGY=   -4.990  LOWER_BOUND=    4.856  UPPER_BOUND=    8.397
INTER + INTRA:          -4.990
INTER:                  -4.990
INTRA:                   0.000
UNBOUND:                 0.000

$$$$

     RDKit          3D

 71 73  0  0  0  0  0  0  0  0999 V2000
   44.8340   11.1675   11.8462 Cl  0  0  0  0  0  0  0  0  0  0  0  0
   39.7074   15.0896   13.1237 C   0  0  0  0  0  0  0  0  0  0  0  0
   40.4293   14.4836   12.1165 C   0  0  0  0  0  0  0  0  0  0  0  0
   41.5470   15.0891   11.5376 C   0  0  0  0  0  0  0  0  0  0  0  0
   41.8841   16.3394   12.0410 C   0  0  0  0  0  0  0  0  0  0  0  0
   41.1663   16.9523   13.0488 C   0  0  0  0  0  0  0  0  0  0  0  0
   40.0658   16.3322   13.6038 C   0  0  0  0  0  0  0  0  0  0  0  0
   44.6830   14.6522   11.0619 C   0  0  0  0  0  0  0  0  0  0  0  0
   43.5888   13.8363   10.9036 C   0  0  0  0  0  0  0  0  0  0  0  0
   42.3143   14.4445   10.4665 C   0  0  2  0  0  0  0  0  0  0  0  0
   43.6419   12.4846   11.1366 C   0  0  0  0  0  0  0  0  0  0  0  0
   44.8167   11.8433   11.5522 C   0  0  0  0  0  0  0  0  0  0  0  0
   45.9017   12.6674   11.7068 C   0  0  0  0  0  0  0  0  0  0  0  0
   45.8497   14.0479   11.4696 C   0  0  0  0  0  0  0  0  0  0  0  0
   47.1024   12.2086   12.1022 F   0  0  0  0  0  0  0  0  0  0  0  0
   46.9102    9.9281   12.3761 O   0  0  0  0  0  0  0  0  0  0  0  0
   45.7577    9.5756   12.1514 C   0  0  0  0  0  0  0  0  0  0  0  0
   44.7516   10.4727   11.7586 N   0  0  0  0  0  0  0  0  0  0  0  0
   38.5735   14.3726   13.6463 C   0  0  0  0  0  0  0  0  0  0  0  0
   37.6753   13.7872   14.0592 N   0  0  0  0  0  0  0  0  0  0  0  0
   42.6401   15.3535    9.3746 N   0  0  0  0  0  0  0  0  0  0  0  0
   41.4971   15.9172    8.7271 C   0  0  0  0  0  0  0  0  0  0  0  0
   41.9937   16.8252    7.6328 C   0  0  0  0  0  0  0  0  0  0  0  0
   41.0468   17.5730    6.7609 C   0  0  0  0  0  0  0  0  0  0  0  0
   41.7832   16.3481    6.2116 C   0  0  0  0  0  0  0  0  0  0  0  0
   45.4551    8.1343   12.3123 C   0  0  0  0  0  0  0  0  0  0  0  0
   44.2266    7.5137   12.1147 C   0  0  0  0  0  0  0  0  0  0  0  0
   44.3595    6.1511   12.3683 C   0  0  0  0  0  0  0  0  0  0  0  0
   45.6486    5.9885   12.7079 N   0  0  0  0  0  0  0  0  0  0  0  0
   46.2848    7.1479   12.6740 N   0  0  0  0  0  0  0  0  0  0  0  0
   43.2778    5.1174   12.2737 C   0  0  0  0  0  0  0  0  0  0  0  0
   43.8566    3.9008   11.9471 F   0  0  0  0  0  0  0  0  0  0  0  0
   42.3020    5.5075   11.4023 F   0  0  0  0  0  0  0  0  0  0  0  0
   42.7451    4.9802   13.5407 F   0  0  0  0  0  0  0  0  0  0  0  0
   47.6609    7.3446   12.9761 C   0  0  0  0  0  0  0  0  0  0  0  0
   48.1503    7.4743   14.2539 C   0  0  0  0  0  0  0  0  0  0  0  0
   48.5198    7.4015   11.8768 C   0  0  0  0  0  0  0  0  0  0  0  0
   49.8775    7.5883   12.0357 C   0  0  0  0  0  0  0  0  0  0  0  0
   50.3694    7.7175   13.3007 C   0  0  0  0  0  0  0  0  0  0  0  0
   49.5161    7.6604   14.3817 C   0  0  0  0  0  0  0  0  0  0  0  0
   50.1015    7.8071   15.7453 C   0  0  0  0  0  0  0  0  0  0  0  0
   50.4358    6.4397   16.1661 N   0  0  0  0  0  0  0  0  0  0  0  0
   44.8286   11.1733   11.8439 Cl  0  0  0  0  0  0  0  0  0  0  0  0
   43.9240   12.1347   11.4602 H   0  0  0  0  0  0  0  0  0  0  0  0
   40.1661   13.5021   11.7199 H   0  0  0  0  0  0  0  0  0  0  0  0
   42.7318   16.8848   11.6565 H   0  0  0  0  0  0  0  0  0  0  0  0
   41.4192   17.9252   13.4488 H   0  0  0  0  0  0  0  0  0  0  0  0
   39.4802   16.7814   14.3941 H   0  0  0  0  0  0  0  0  0  0  0  0
   44.6811   15.7158   10.8891 H   0  0  0  0  0  0  0  0  0  0  0  0
   41.6546   13.6448   10.0450 H   0  0  0  0  0  0  0  0  0  0  0  0
   42.7164   11.9330   10.9800 H   0  0  0  0  0  0  0  0  0  0  0  0
   46.7220   14.6739   11.5995 H   0  0  0  0  0  0  0  0  0  0  0  0
   43.7979   10.0049   11.6012 H   0  0  0  0  0  0  0  0  0  0  0  0
   43.3535   14.9457    8.7641 H   0  0  0  0  0  0  0  0  0  0  0  0
   40.9568   16.5515    9.4690 H   0  0  0  0  0  0  0  0  0  0  0  0
   40.7780   15.1605    8.3569 H   0  0  0  0  0  0  0  0  0  0  0  0
   42.9704   17.3284    7.8400 H   0  0  0  0  0  0  0  0  0  0  0  0
   41.3929   18.5434    6.3358 H   0  0  0  0  0  0  0  0  0  0  0  0
   39.9580   17.4788    6.9136 H   0  0  0  0  0  0  0  0  0  0  0  0
   41.2204   15.4113    6.0676 H   0  0  0  0  0  0  0  0  0  0  0  0
   42.6214   16.5335    5.4847 H   0  0  0  0  0  0  0  0  0  0  0  0
   43.3021    8.0166   11.8083 H   0  0  0  0  0  0  0  0  0  0  0  0
   47.4688    7.4270   15.0827 H   0  0  0  0  0  0  0  0  0  0  0  0
   48.1358    7.2994   10.8655 H   0  0  0  0  0  0  0  0  0  0  0  0
   50.5055    7.6260   11.1545 H   0  0  0  0  0  0  0  0  0  0  0  0
   51.4481    7.8647   13.4023 H   0  0  0  0  0  0  0  0  0  0  0  0
   51.0244    8.4168   15.6661 H   0  0  0  0  0  0  0  0  0  0  0  0
   49.4145    8.2725   16.4649 H   0  0  0  0  0  0  0  0  0  0  0  0
   51.2404    6.1528   15.5366 H   0  0  0  0  0  0  0  0  0  0  0  0
   49.5925    5.8387   15.9288 H   0  0  0  0  0  0  0  0  0  0  0  0
   43.9295   12.1289   11.4625 H   0  0  0  0  0  0  0  0  0  0  0  0
  2  3  2  0
  3  4  1  0
  4  5  2  0
  5  6  1  0
  6  7  2  0
  2  7  1  0
  8  9  2  0
  9 10  1  0
 10  4  1  0
 11 12  2  0
 12 13  1  0
 13 14  2  0
  8 14  1  0
  9 11  1  0
 16 17  2  0
 17 18  1  0
 15 13  1  0
 18 12  1  0
  2 19  1  0
 19 20  3  0
 10 21  1  0
 21 22  1  0
 22 23  1  0
 23 24  1  0
 23 25  1  0
 24 25  1  0
 17 26  1  0
 27 28  1  0
 28 29  2  0
 29 30  1  0
 30 26  1  0
 27 26  2  0
 28 31  1  0
 31 32  1  0
 31 33  1  0
 31 34  1  0
 30 35  1  0
 37 38  1  0
 38 39  2  0
 39 40  1  0
 36 40  2  0
 36 35  1  0
 35 37  2  0
 40 41  1  0
 41 42  1  0
  1 44  1  0
  3 45  1  0
  5 46  1  0
  6 47  1  0
  7 48  1  0
  8 49  1  0
 10 50  1  6
 11 51  1  0
 14 52  1  0
 18 53  1  0
 21 54  1  0
 22 55  1  0
 22 56  1  0
 23 57  1  0
 24 58  1  0
 24 59  1  0
 25 60  1  0
 25 61  1  0
 27 62  1  0
 36 63  1  0
 37 64  1  0
 38 65  1  0
 39 66  1  0
 41 67  1  0
 41 68  1  0
 42 69  1  0
 42 70  1  0
 43 71  1  0
M  END
> <Uni-Dock RESULT> 
ENERGY=   -4.949  LOWER_BOUND=    2.822  UPPER_BOUND=    5.816
INTER + INTRA:          -4.949
INTER:                  -4.949
INTRA:                   0.000
UNBOUND:                 0.000

$$$$

     RDKit          3D

 71 73  0  0  0  0  0  0  0  0999 V2000
   51.9595    7.4437   15.5525 Cl  0  0  0  0  0  0  0  0  0  0  0  0
   49.8691   13.1549   13.0405 C   0  0  0  0  0  0  0  0  0  0  0  0
   50.2537   11.8680   12.7262 C   0  0  0  0  0  0  0  0  0  0  0  0
   51.5872   11.5314   12.4814 C   0  0  0  0  0  0  0  0  0  0  0  0
   52.4995   12.5750   12.5747 C   0  0  0  0  0  0  0  0  0  0  0  0
   52.1219   13.8655   12.8886 C   0  0  0  0  0  0  0  0  0  0  0  0
   50.7977   14.1714   13.1260 C   0  0  0  0  0  0  0  0  0  0  0  0
   53.9412    9.6385   13.5432 C   0  0  0  0  0  0  0  0  0  0  0  0
   52.6145    9.4161   13.2628 C   0  0  0  0  0  0  0  0  0  0  0  0
   51.9958   10.1629   12.1471 C   0  0  2  0  0  0  0  0  0  0  0  0
   51.8518    8.5289   13.9807 C   0  0  0  0  0  0  0  0  0  0  0  0
   52.3743    7.7883   15.0497 C   0  0  0  0  0  0  0  0  0  0  0  0
   53.6987    8.0186   15.3202 C   0  0  0  0  0  0  0  0  0  0  0  0
   54.4793    8.9242   14.5885 C   0  0  0  0  0  0  0  0  0  0  0  0
   54.3491    7.3899   16.3152 F   0  0  0  0  0  0  0  0  0  0  0  0
   52.8521    5.9476   17.3109 O   0  0  0  0  0  0  0  0  0  0  0  0
   51.7527    6.0534   16.7791 C   0  0  0  0  0  0  0  0  0  0  0  0
   51.5092    6.9227   15.7037 N   0  0  0  0  0  0  0  0  0  0  0  0
   48.4672   13.3865   13.2731 C   0  0  0  0  0  0  0  0  0  0  0  0
   47.3470   13.5566   13.4631 N   0  0  0  0  0  0  0  0  0  0  0  0
   52.9376   10.1065   11.0360 N   0  0  0  0  0  0  0  0  0  0  0  0
   52.4304   10.6526    9.8162 C   0  0  0  0  0  0  0  0  0  0  0  0
   53.5100   10.5224    8.7739 C   0  0  0  0  0  0  0  0  0  0  0  0
   53.2992   11.0006    7.3801 C   0  0  0  0  0  0  0  0  0  0  0  0
   53.2754    9.4998    7.6824 C   0  0  0  0  0  0  0  0  0  0  0  0
   50.6620    5.2114   17.3235 C   0  0  0  0  0  0  0  0  0  0  0  0
   49.3441    5.1674   16.8824 C   0  0  0  0  0  0  0  0  0  0  0  0
   48.6367    4.2497   17.6544 C   0  0  0  0  0  0  0  0  0  0  0  0
   49.5358    3.7709   18.5295 N   0  0  0  0  0  0  0  0  0  0  0  0
   50.7165    4.3343   18.3333 N   0  0  0  0  0  0  0  0  0  0  0  0
   47.1865    3.8967   17.5132 C   0  0  0  0  0  0  0  0  0  0  0  0
   47.0074    2.5876   17.9326 F   0  0  0  0  0  0  0  0  0  0  0  0
   46.7481    4.1255   16.2406 F   0  0  0  0  0  0  0  0  0  0  0  0
   46.4924    4.6991   18.3977 F   0  0  0  0  0  0  0  0  0  0  0  0
   51.8964    4.0618   19.0797 C   0  0  0  0  0  0  0  0  0  0  0  0
   52.1790    4.6359   20.2961 C   0  0  0  0  0  0  0  0  0  0  0  0
   52.7837    3.1535   18.4992 C   0  0  0  0  0  0  0  0  0  0  0  0
   53.9640    2.8047   19.1225 C   0  0  0  0  0  0  0  0  0  0  0  0
   54.2503    3.3706   20.3296 C   0  0  0  0  0  0  0  0  0  0  0  0
   53.3701    4.2667   20.8973 C   0  0  0  0  0  0  0  0  0  0  0  0
   53.7274    4.8589   22.2184 C   0  0  0  0  0  0  0  0  0  0  0  0
   53.1556    3.9425   23.2144 N   0  0  0  0  0  0  0  0  0  0  0  0
   51.9588    7.4490   15.5462 Cl  0  0  0  0  0  0  0  0  0  0  0  0
   51.8327    8.3276   14.4963 H   0  0  0  0  0  0  0  0  0  0  0  0
   49.5389   11.0473   12.6524 H   0  0  0  0  0  0  0  0  0  0  0  0
   53.5519   12.4121   12.4024 H   0  0  0  0  0  0  0  0  0  0  0  0
   52.8232   14.6860   12.9641 H   0  0  0  0  0  0  0  0  0  0  0  0
   50.4654   15.1700   13.3744 H   0  0  0  0  0  0  0  0  0  0  0  0
   54.5720   10.3256   13.0036 H   0  0  0  0  0  0  0  0  0  0  0  0
   51.0680    9.6287   11.8214 H   0  0  0  0  0  0  0  0  0  0  0  0
   50.8121    8.4301   13.6733 H   0  0  0  0  0  0  0  0  0  0  0  0
   55.5224    9.0856   14.8242 H   0  0  0  0  0  0  0  0  0  0  0  0
   50.4946    6.8966   15.3528 H   0  0  0  0  0  0  0  0  0  0  0  0
   53.3704    9.1809   10.9745 H   0  0  0  0  0  0  0  0  0  0  0  0
   52.2474   11.7417    9.9743 H   0  0  0  0  0  0  0  0  0  0  0  0
   51.4717   10.2023    9.4925 H   0  0  0  0  0  0  0  0  0  0  0  0
   54.5560   10.5913    9.1626 H   0  0  0  0  0  0  0  0  0  0  0  0
   54.1948   11.3379    6.8090 H   0  0  0  0  0  0  0  0  0  0  0  0
   52.3433   11.4711    7.0924 H   0  0  0  0  0  0  0  0  0  0  0  0
   52.3070    8.9732    7.6784 H   0  0  0  0  0  0  0  0  0  0  0  0
   54.1647    8.8938    7.3553 H   0  0  0  0  0  0  0  0  0  0  0  0
   48.9289    5.7601   16.0590 H   0  0  0  0  0  0  0  0  0  0  0  0
   51.4802    5.3318   20.7215 H   0  0  0  0  0  0  0  0  0  0  0  0
   52.5629    2.6981   17.5375 H   0  0  0  0  0  0  0  0  0  0  0  0
   54.6218    2.0962   18.6352 H   0  0  0  0  0  0  0  0  0  0  0  0
   55.1910    3.0795   20.8048 H   0  0  0  0  0  0  0  0  0  0  0  0
   54.8327    4.8749   22.3071 H   0  0  0  0  0  0  0  0  0  0  0  0
   53.3328    5.8739   22.3602 H   0  0  0  0  0  0  0  0  0  0  0  0
   53.7340    3.0570   23.1297 H   0  0  0  0  0  0  0  0  0  0  0  0
   52.1659    3.7297   22.8920 H   0  0  0  0  0  0  0  0  0  0  0  0
   51.8335    8.3223   14.5027 H   0  0  0  0  0  0  0  0  0  0  0  0
  2  3  2  0
  3  4  1  0
  4  5  2  0
  5  6  1  0
  6  7  2  0
  2  7  1  0
  8  9  2  0
  9 10  1  0
 10  4  1  0
 11 12  2  0
 12 13  1  0
 13 14  2  0
  8 14  1  0
  9 11  1  0
 16 17  2  0
 17 18  1  0
 15 13  1  0
 18 12  1  0
  2 19  1  0
 19 20  3  0
 10 21  1  0
 21 22  1  0
 22 23  1  0
 23 24  1  0
 23 25  1  0
 24 25  1  0
 17 26  1  0
 27 28  1  0
 28 29  2  0
 29 30  1  0
 30 26  1  0
 27 26  2  0
 28 31  1  0
 31 32  1  0
 31 33  1  0
 31 34  1  0
 30 35  1  0
 37 38  1  0
 38 39  2  0
 39 40  1  0
 36 40  2  0
 36 35  1  0
 35 37  2  0
 40 41  1  0
 41 42  1  0
  1 44  1  0
  3 45  1  0
  5 46  1  0
  6 47  1  0
  7 48  1  0
  8 49  1  0
 10 50  1  6
 11 51  1  0
 14 52  1  0
 18 53  1  0
 21 54  1  0
 22 55  1  0
 22 56  1  0
 23 57  1  0
 24 58  1  0
 24 59  1  0
 25 60  1  0
 25 61  1  0
 27 62  1  0
 36 63  1  0
 37 64  1  0
 38 65  1  0
 39 66  1  0
 41 67  1  0
 41 68  1  0
 42 69  1  0
 42 70  1  0
 43 71  1  0
M  END
> <Uni-Dock RESULT> 
ENERGY=   -4.682  LOWER_BOUND=    6.456  UPPER_BOUND=   10.151
INTER + INTRA:          -4.682
INTER:                  -4.682
INTRA:                   0.000
UNBOUND:                 0.000

$$$$

     RDKit          3D

 71 73  0  0  0  0  0  0  0  0999 V2000
   46.1414   11.1957   11.7736 Cl  0  0  0  0  0  0  0  0  0  0  0  0
   52.1765   11.8570   14.3109 C   0  0  0  0  0  0  0  0  0  0  0  0
   51.4688   11.4627   13.1943 C   0  0  0  0  0  0  0  0  0  0  0  0
   50.9997   10.1564   13.0367 C   0  0  0  0  0  0  0  0  0  0  0  0
   51.2917    9.2813   14.0755 C   0  0  0  0  0  0  0  0  0  0  0  0
   51.9995    9.6687   15.1960 C   0  0  0  0  0  0  0  0  0  0  0  0
   52.4517   10.9656   15.3270 C   0  0  0  0  0  0  0  0  0  0  0  0
   48.2989    8.4818   12.6460 C   0  0  0  0  0  0  0  0  0  0  0  0
   48.7882    9.6218   12.0551 C   0  0  0  0  0  0  0  0  0  0  0  0
   50.2475    9.7375   11.8492 C   0  0  2  0  0  0  0  0  0  0  0  0
   47.9705   10.6484   11.6531 C   0  0  0  0  0  0  0  0  0  0  0  0
   46.5793   10.6043   11.8176 C   0  0  0  0  0  0  0  0  0  0  0  0
   46.1029    9.4622   12.4082 C   0  0  0  0  0  0  0  0  0  0  0  0
   46.9360    8.4127   12.8196 C   0  0  0  0  0  0  0  0  0  0  0  0
   44.7928    9.2652   12.6394 F   0  0  0  0  0  0  0  0  0  0  0  0
   43.6683   11.1092   11.8345 O   0  0  0  0  0  0  0  0  0  0  0  0
   44.4678   11.9256   11.3906 C   0  0  0  0  0  0  0  0  0  0  0  0
   45.8537   11.7009   11.3747 N   0  0  0  0  0  0  0  0  0  0  0  0
   52.6106   13.2286   14.3667 C   0  0  0  0  0  0  0  0  0  0  0  0
   52.9452   14.3272   14.4022 N   0  0  0  0  0  0  0  0  0  0  0  0
   50.6950    8.4571   11.3155 N   0  0  0  0  0  0  0  0  0  0  0  0
   52.0664    8.4431   10.9121 C   0  0  0  0  0  0  0  0  0  0  0  0
   52.3742    7.0649   10.3882 C   0  0  0  0  0  0  0  0  0  0  0  0
   53.7305    6.7160    9.8834 C   0  0  0  0  0  0  0  0  0  0  0  0
   52.5839    6.9415    8.8940 C   0  0  0  0  0  0  0  0  0  0  0  0
   43.9078   13.1895   10.8577 C   0  0  0  0  0  0  0  0  0  0  0  0
   44.6199   14.2511   10.3107 C   0  0  0  0  0  0  0  0  0  0  0  0
   43.7268   15.2483    9.9279 C   0  0  0  0  0  0  0  0  0  0  0  0
   42.5151   14.7673   10.2503 N   0  0  0  0  0  0  0  0  0  0  0  0
   42.6247   13.5657   10.7926 N   0  0  0  0  0  0  0  0  0  0  0  0
   44.0756   16.5623    9.2958 C   0  0  0  0  0  0  0  0  0  0  0  0
   43.0163   16.9631    8.4964 F   0  0  0  0  0  0  0  0  0  0  0  0
   45.2633   16.4844    8.6270 F   0  0  0  0  0  0  0  0  0  0  0  0
   44.1756   17.4837   10.3199 F   0  0  0  0  0  0  0  0  0  0  0  0
   41.5426   12.7642   11.2510 C   0  0  0  0  0  0  0  0  0  0  0  0
   40.9479   12.9167   12.4808 C   0  0  0  0  0  0  0  0  0  0  0  0
   41.0980   11.7824   10.3634 C   0  0  0  0  0  0  0  0  0  0  0  0
   40.0553   10.9396   10.6888 C   0  0  0  0  0  0  0  0  0  0  0  0
   39.4609   11.0858   11.9072 C   0  0  0  0  0  0  0  0  0  0  0  0
   39.9046   12.0570   12.7789 C   0  0  0  0  0  0  0  0  0  0  0  0
   39.2228   12.1779   14.0996 C   0  0  0  0  0  0  0  0  0  0  0  0
   38.1279   13.1321   13.8778 N   0  0  0  0  0  0  0  0  0  0  0  0
   46.1494   11.1937   11.7738 Cl  0  0  0  0  0  0  0  0  0  0  0  0
   47.4849   10.8689   11.8026 H   0  0  0  0  0  0  0  0  0  0  0  0
   51.2387   12.1483   12.3777 H   0  0  0  0  0  0  0  0  0  0  0  0
   50.9710    8.2518   14.0434 H   0  0  0  0  0  0  0  0  0  0  0  0
   52.2327    8.9963   16.0110 H   0  0  0  0  0  0  0  0  0  0  0  0
   53.0085   11.3046   16.1898 H   0  0  0  0  0  0  0  0  0  0  0  0
   48.9076    7.6555   12.9747 H   0  0  0  0  0  0  0  0  0  0  0  0
   50.4444   10.5100   11.0638 H   0  0  0  0  0  0  0  0  0  0  0  0
   48.4634   11.5048   11.1960 H   0  0  0  0  0  0  0  0  0  0  0  0
   46.5321    7.5228   13.2830 H   0  0  0  0  0  0  0  0  0  0  0  0
   46.4148   12.5135   10.9528 H   0  0  0  0  0  0  0  0  0  0  0  0
   50.0188    8.0895   10.6406 H   0  0  0  0  0  0  0  0  0  0  0  0
   52.6956    8.6049   11.8190 H   0  0  0  0  0  0  0  0  0  0  0  0
   52.3245    9.2399   10.1874 H   0  0  0  0  0  0  0  0  0  0  0  0
   51.8030    6.2345   10.8720 H   0  0  0  0  0  0  0  0  0  0  0  0
   54.0566    5.6540    9.9712 H   0  0  0  0  0  0  0  0  0  0  0  0
   54.5387    7.4673    9.8964 H   0  0  0  0  0  0  0  0  0  0  0  0
   52.5706    7.8699    8.3001 H   0  0  0  0  0  0  0  0  0  0  0  0
   52.1483    6.0329    8.3939 H   0  0  0  0  0  0  0  0  0  0  0  0
   45.7094   14.2956   10.1988 H   0  0  0  0  0  0  0  0  0  0  0  0
   41.3084   13.6794   13.1455 H   0  0  0  0  0  0  0  0  0  0  0  0
   41.5663   11.6594    9.3906 H   0  0  0  0  0  0  0  0  0  0  0  0
   39.7441   10.1929    9.9693 H   0  0  0  0  0  0  0  0  0  0  0  0
   38.6369   10.4070   12.1433 H   0  0  0  0  0  0  0  0  0  0  0  0
   38.8120   11.1848   14.3733 H   0  0  0  0  0  0  0  0  0  0  0  0
   39.8858   12.5343   14.8994 H   0  0  0  0  0  0  0  0  0  0  0  0
   37.4460   12.6185   13.2475 H   0  0  0  0  0  0  0  0  0  0  0  0
   38.5438   13.9436   13.3326 H   0  0  0  0  0  0  0  0  0  0  0  0
   47.4769   10.8709   11.8024 H   0  0  0  0  0  0  0  0  0  0  0  0
  2  3  2  0
  3  4  1  0
  4  5  2  0
  5  6  1  0
  6  7  2  0
  2  7  1  0
  8  9  2  0
  9 10  1  0
 10  4  1  0
 11 12  2  0
 12 13  1  0
 13 14  2  0
  8 14  1  0
  9 11  1  0
 16 17  2  0
 17 18  1  0
 15 13  1  0
 18 12  1  0
  2 19  1  0
 19 20  3  0
 10 21  1  0
 21 22  1  0
 22 23  1  0
 23 24  1  0
 23 25  1  0
 24 25  1  0
 17 26  1  0
 27 28  1  0
 28 29  2  0
 29 30  1  0
 30 26  1  0
 27 26  2  0
 28 31  1  0
 31 32  1  0
 31 33  1  0
 31 34  1  0
 30 35  1  0
 37 38  1  0
 38 39  2  0
 39 40  1  0
 36 40  2  0
 36 35  1  0
 35 37  2  0
 40 41  1  0
 41 42  1  0
  1 44  1  0
  3 45  1  0
  5 46  1  0
  6 47  1  0
  7 48  1  0
  8 49  1  0
 10 50  1  6
 11 51  1  0
 14 52  1  0
 18 53  1  0
 21 54  1  0
 22 55  1  0
 22 56  1  0
 23 57  1  0
 24 58  1  0
 24 59  1  0
 25 60  1  0
 25 61  1  0
 27 62  1  0
 36 63  1  0
 37 64  1  0
 38 65  1  0
 39 66  1  0
 41 67  1  0
 41 68  1  0
 42 69  1  0
 42 70  1  0
 43 71  1  0
M  END
> <Uni-Dock RESULT> 
ENERGY=   -4.674  LOWER_BOUND=    4.103  UPPER_BOUND=    9.228
INTER + INTRA:          -4.674
INTER:                  -4.674
INTRA:                   0.000
UNBOUND:                 0.000

$$$$
