
     RDKit          3D

 71 73  0  0  0  0  0  0  0  0999 V2000
   47.0500    8.6721   14.0137 Cl  0  0  0  0  0  0  0  0  0  0  0  0
   51.2147   13.8252   16.9306 C   0  0  0  0  0  0  0  0  0  0  0  0
   50.9137   12.5970   17.4953 C   0  0  0  0  0  0  0  0  0  0  0  0
   50.6617   11.4954   16.6847 C   0  0  0  0  0  0  0  0  0  0  0  0
   50.7050   11.5991   15.3139 C   0  0  0  0  0  0  0  0  0  0  0  0
   51.0089   12.8414   14.7580 C   0  0  0  0  0  0  0  0  0  0  0  0
   51.2633   13.9525   15.5492 C   0  0  0  0  0  0  0  0  0  0  0  0
   50.5150    7.9601   16.5156 C   0  0  0  0  0  0  0  0  0  0  0  0
   49.8432    9.1900   16.4997 C   0  0  0  0  0  0  0  0  0  0  0  0
   50.3540   10.2230   17.4036 C   0  0  2  0  0  0  0  0  0  0  0  0
   48.7754    9.3901   15.6585 C   0  0  0  0  0  0  0  0  0  0  0  0
   48.2976    8.4118   14.7886 C   0  0  0  0  0  0  0  0  0  0  0  0
   48.9660    7.2149   14.8170 C   0  0  0  0  0  0  0  0  0  0  0  0
   50.0601    6.9844   15.6655 C   0  0  0  0  0  0  0  0  0  0  0  0
   48.6427    6.1756   14.0248 F   0  0  0  0  0  0  0  0  0  0  0  0
   46.5748    6.7064   13.1126 O   0  0  0  0  0  0  0  0  0  0  0  0
   46.4155    7.9198   13.1788 C   0  0  0  0  0  0  0  0  0  0  0  0
   47.2126    8.7477   13.9669 N   0  0  0  0  0  0  0  0  0  0  0  0
   51.4732   14.9596   17.8048 C   0  0  0  0  0  0  0  0  0  0  0  0
   51.6702   15.8517   18.5142 N   0  0  0  0  0  0  0  0  0  0  0  0
   49.4935   10.5223   18.4857 N   0  0  0  0  0  0  0  0  0  0  0  0
   48.1901   10.9998   18.2619 C   0  0  0  0  0  0  0  0  0  0  0  0
   47.6164   11.3381   19.6628 C   0  0  0  0  0  0  0  0  0  0  0  0
   46.1935   11.8759   19.6293 C   0  0  0  0  0  0  0  0  0  0  0  0
   46.5247   10.4884   20.1419 C   0  0  0  0  0  0  0  0  0  0  0  0
   45.3149    8.4948   12.3692 C   0  0  0  0  0  0  0  0  0  0  0  0
   44.9721    9.8321   12.2768 C   0  0  0  0  0  0  0  0  0  0  0  0
   43.8879    9.9535   11.4197 C   0  0  0  0  0  0  0  0  0  0  0  0
   43.6026    8.6952   11.0170 N   0  0  0  0  0  0  0  0  0  0  0  0
   44.4454    7.8397   11.5789 N   0  0  0  0  0  0  0  0  0  0  0  0
   43.2387   11.2319   11.0716 C   0  0  0  0  0  0  0  0  0  0  0  0
   42.7022   11.0648    9.7943 F   0  0  0  0  0  0  0  0  0  0  0  0
   44.1756   12.2593   10.9859 F   0  0  0  0  0  0  0  0  0  0  0  0
   42.2671   11.5786   11.9716 F   0  0  0  0  0  0  0  0  0  0  0  0
   44.4771    6.4282   11.4148 C   0  0  0  0  0  0  0  0  0  0  0  0
   44.9039    5.8038   10.2623 C   0  0  0  0  0  0  0  0  0  0  0  0
   44.0418    5.6824   12.5131 C   0  0  0  0  0  0  0  0  0  0  0  0
   44.0214    4.3029   12.4896 C   0  0  0  0  0  0  0  0  0  0  0  0
   44.4488    3.6730   11.3355 C   0  0  0  0  0  0  0  0  0  0  0  0
   44.8798    4.4164   10.2476 C   0  0  0  0  0  0  0  0  0  0  0  0
   45.3210    3.6765    9.0452 C   0  0  0  0  0  0  0  0  0  0  0  0
   44.2055    3.4348    8.1310 N   0  0  0  0  0  0  0  0  0  0  0  0
   47.0486    8.6701   14.0106 Cl  0  0  0  0  0  0  0  0  0  0  0  0
   47.5198    9.3805   15.0879 H   0  0  0  0  0  0  0  0  0  0  0  0
   50.8770   12.5045   18.5885 H   0  0  0  0  0  0  0  0  0  0  0  0
   50.5167   10.7517   14.6744 H   0  0  0  0  0  0  0  0  0  0  0  0
   51.0467   12.9374   13.6774 H   0  0  0  0  0  0  0  0  0  0  0  0
   51.5025   14.9313   15.1087 H   0  0  0  0  0  0  0  0  0  0  0  0
   51.3534    7.8028   17.1756 H   0  0  0  0  0  0  0  0  0  0  0  0
   51.3361    9.9205   17.8509 H   0  0  0  0  0  0  0  0  0  0  0  0
   48.3147   10.3607   15.6755 H   0  0  0  0  0  0  0  0  0  0  0  0
   50.5751    6.0332   15.6745 H   0  0  0  0  0  0  0  0  0  0  0  0
   46.9555    9.7883   13.9249 H   0  0  0  0  0  0  0  0  0  0  0  0
   49.6893   10.0981   19.3928 H   0  0  0  0  0  0  0  0  0  0  0  0
   48.0683   11.9102   17.6674 H   0  0  0  0  0  0  0  0  0  0  0  0
   47.5419   10.2048   17.8152 H   0  0  0  0  0  0  0  0  0  0  0  0
   48.3035   11.8218   20.3868 H   0  0  0  0  0  0  0  0  0  0  0  0
   45.8774   12.6145   20.3907 H   0  0  0  0  0  0  0  0  0  0  0  0
   45.6354   11.9037   18.6843 H   0  0  0  0  0  0  0  0  0  0  0  0
   46.3847   10.3272   21.2365 H   0  0  0  0  0  0  0  0  0  0  0  0
   46.2200    9.6235   19.5269 H   0  0  0  0  0  0  0  0  0  0  0  0
   45.4555   10.6789   12.7842 H   0  0  0  0  0  0  0  0  0  0  0  0
   45.2366    6.3981    9.4230 H   0  0  0  0  0  0  0  0  0  0  0  0
   43.7046    6.1774   13.4252 H   0  0  0  0  0  0  0  0  0  0  0  0
   43.6754    3.7714   13.3649 H   0  0  0  0  0  0  0  0  0  0  0  0
   44.4279    2.5837   11.3306 H   0  0  0  0  0  0  0  0  0  0  0  0
   46.0643    4.2692    8.4776 H   0  0  0  0  0  0  0  0  0  0  0  0
   45.8069    2.7002    9.2871 H   0  0  0  0  0  0  0  0  0  0  0  0
   43.5047    4.2052    8.2197 H   0  0  0  0  0  0  0  0  0  0  0  0
   43.8163    2.5080    8.4147 H   0  0  0  0  0  0  0  0  0  0  0  0
   47.5211    9.3825   15.0911 H   0  0  0  0  0  0  0  0  0  0  0  0
  2  3  2  0
  3  4  1  0
  4  5  2  0
  5  6  1  0
  6  7  2  0
  2  7  1  0
  8  9  2  0
  9 10  1  0
 10  4  1  0
 11 12  2  0
 12 13  1  0
 13 14  2  0
  8 14  1  0
  9 11  1  0
 16 17  2  0
 17 18  1  0
 15 13  1  0
 18 12  1  0
  2 19  1  0
 19 20  3  0
 10 21  1  0
 21 22  1  0
 22 23  1  0
 23 24  1  0
 23 25  1  0
 24 25  1  0
 17 26  1  0
 27 28  1  0
 28 29  2  0
 29 30  1  0
 30 26  1  0
 27 26  2  0
 28 31  1  0
 31 32  1  0
 31 33  1  0
 31 34  1  0
 30 35  1  0
 37 38  1  0
 38 39  2  0
 39 40  1  0
 36 40  2  0
 36 35  1  0
 35 37  2  0
 40 41  1  0
 41 42  1  0
  1 44  1  0
  3 45  1  0
  5 46  1  0
  6 47  1  0
  7 48  1  0
  8 49  1  0
 10 50  1  1
 11 51  1  0
 14 52  1  0
 18 53  1  0
 21 54  1  0
 22 55  1  0
 22 56  1  0
 23 57  1  0
 24 58  1  0
 24 59  1  0
 25 60  1  0
 25 61  1  0
 27 62  1  0
 36 63  1  0
 37 64  1  0
 38 65  1  0
 39 66  1  0
 41 67  1  0
 41 68  1  0
 42 69  1  0
 42 70  1  0
 43 71  1  0
M  END
> <Uni-Dock RESULT> 
ENERGY=   -6.682  LOWER_BOUND=    0.000  UPPER_BOUND=    0.000
INTER + INTRA:          -6.682
INTER:                  -6.682
INTRA:                   0.000
UNBOUND:                 0.000

$$$$

     RDKit          3D

 71 73  0  0  0  0  0  0  0  0999 V2000
   48.0802    6.0278   15.3765 Cl  0  0  0  0  0  0  0  0  0  0  0  0
   53.6790    6.6481   19.9235 C   0  0  0  0  0  0  0  0  0  0  0  0
   52.4549    6.0649   20.2050 C   0  0  0  0  0  0  0  0  0  0  0  0
   51.7196    5.4551   19.1942 C   0  0  0  0  0  0  0  0  0  0  0  0
   52.1874    5.4172   17.9013 C   0  0  0  0  0  0  0  0  0  0  0  0
   53.4211    6.0083   17.6311 C   0  0  0  0  0  0  0  0  0  0  0  0
   54.1699    6.6218   18.6253 C   0  0  0  0  0  0  0  0  0  0  0  0
   49.1387    3.1497   18.4373 C   0  0  0  0  0  0  0  0  0  0  0  0
   49.5902    4.4762   18.4688 C   0  0  0  0  0  0  0  0  0  0  0  0
   50.4184    4.8553   19.6157 C   0  0  2  0  0  0  0  0  0  0  0  0
   49.2689    5.3460   17.4549 C   0  0  0  0  0  0  0  0  0  0  0  0
   48.4920    4.9818   16.3567 C   0  0  0  0  0  0  0  0  0  0  0  0
   48.0587    3.6810   16.3417 C   0  0  0  0  0  0  0  0  0  0  0  0
   48.3732    2.7717   17.3636 C   0  0  0  0  0  0  0  0  0  0  0  0
   47.3172    3.1667   15.3428 F   0  0  0  0  0  0  0  0  0  0  0  0
   46.6064    4.9887   14.0919 O   0  0  0  0  0  0  0  0  0  0  0  0
   47.3547    5.9337   14.3132 C   0  0  0  0  0  0  0  0  0  0  0  0
   48.2517    5.9576   15.3794 N   0  0  0  0  0  0  0  0  0  0  0  0
   54.4250    7.2791   21.0020 C   0  0  0  0  0  0  0  0  0  0  0  0
   55.0017    7.7810   21.8700 N   0  0  0  0  0  0  0  0  0  0  0  0
   49.7890    5.7486   20.5140 N   0  0  0  0  0  0  0  0  0  0  0  0
   49.3497    7.0139   20.0861 C   0  0  0  0  0  0  0  0  0  0  0  0
   48.8483    7.7418   21.3608 C   0  0  0  0  0  0  0  0  0  0  0  0
   48.3243    9.1460   21.0992 C   0  0  0  0  0  0  0  0  0  0  0  0
   47.4078    7.9893   21.4452 C   0  0  0  0  0  0  0  0  0  0  0  0
   47.2723    7.0842   13.3820 C   0  0  0  0  0  0  0  0  0  0  0  0
   48.0333    8.2387   13.4297 C   0  0  0  0  0  0  0  0  0  0  0  0
   47.6493    9.0662   12.3844 C   0  0  0  0  0  0  0  0  0  0  0  0
   46.6716    8.3971   11.7339 N   0  0  0  0  0  0  0  0  0  0  0  0
   46.4530    7.2306   12.3251 N   0  0  0  0  0  0  0  0  0  0  0  0
   48.2386   10.3905   12.1090 C   0  0  0  0  0  0  0  0  0  0  0  0
   48.1134   10.5978   10.7347 F   0  0  0  0  0  0  0  0  0  0  0  0
   49.6015   10.3989   12.3971 F   0  0  0  0  0  0  0  0  0  0  0  0
   47.6200   11.3871   12.8151 F   0  0  0  0  0  0  0  0  0  0  0  0
   45.5066    6.2387   11.9499 C   0  0  0  0  0  0  0  0  0  0  0  0
   45.6420    5.4377   10.8362 C   0  0  0  0  0  0  0  0  0  0  0  0
   44.3988    6.1116   12.7918 C   0  0  0  0  0  0  0  0  0  0  0  0
   43.4041    5.1874   12.5455 C   0  0  0  0  0  0  0  0  0  0  0  0
   43.5366    4.3821   11.4295 C   0  0  0  0  0  0  0  0  0  0  0  0
   44.6370    4.5115   10.5963 C   0  0  0  0  0  0  0  0  0  0  0  0
   44.7125    3.6186    9.4194 C   0  0  0  0  0  0  0  0  0  0  0  0
   44.0635    4.2190    8.2545 N   0  0  0  0  0  0  0  0  0  0  0  0
   48.0786    6.0272   15.3728 Cl  0  0  0  0  0  0  0  0  0  0  0  0
   48.6040    6.2258   16.6265 H   0  0  0  0  0  0  0  0  0  0  0  0
   52.0734    6.0900   21.2340 H   0  0  0  0  0  0  0  0  0  0  0  0
   51.6295    4.9431   17.1097 H   0  0  0  0  0  0  0  0  0  0  0  0
   53.8024    5.9855   16.6150 H   0  0  0  0  0  0  0  0  0  0  0  0
   55.1424    7.0876   18.4099 H   0  0  0  0  0  0  0  0  0  0  0  0
   49.3910    2.4666   19.2328 H   0  0  0  0  0  0  0  0  0  0  0  0
   50.7161    3.9566   20.2153 H   0  0  0  0  0  0  0  0  0  0  0  0
   49.6621    6.3436   17.5236 H   0  0  0  0  0  0  0  0  0  0  0  0
   48.0221    1.7489   17.3351 H   0  0  0  0  0  0  0  0  0  0  0  0
   48.8421    6.8506   15.4474 H   0  0  0  0  0  0  0  0  0  0  0  0
   49.3697    5.3678   21.3627 H   0  0  0  0  0  0  0  0  0  0  0  0
   50.0815    7.6885   19.6318 H   0  0  0  0  0  0  0  0  0  0  0  0
   48.4814    6.9225   19.3865 H   0  0  0  0  0  0  0  0  0  0  0  0
   49.4449    7.6085   22.2863 H   0  0  0  0  0  0  0  0  0  0  0  0
   48.4462    9.9218   21.8792 H   0  0  0  0  0  0  0  0  0  0  0  0
   48.2361    9.5202   20.0708 H   0  0  0  0  0  0  0  0  0  0  0  0
   46.9102    8.0433   22.4418 H   0  0  0  0  0  0  0  0  0  0  0  0
   46.7559    7.5898   20.6486 H   0  0  0  0  0  0  0  0  0  0  0  0
   48.8162    8.4892   14.1595 H   0  0  0  0  0  0  0  0  0  0  0  0
   46.5061    5.5514   10.1967 H   0  0  0  0  0  0  0  0  0  0  0  0
   44.2925    6.7457   13.6735 H   0  0  0  0  0  0  0  0  0  0  0  0
   42.5670    5.1281   13.2267 H   0  0  0  0  0  0  0  0  0  0  0  0
   42.7445    3.6567   11.2471 H   0  0  0  0  0  0  0  0  0  0  0  0
   45.7677    3.4462    9.1320 H   0  0  0  0  0  0  0  0  0  0  0  0
   44.2624    2.6132    9.6046 H   0  0  0  0  0  0  0  0  0  0  0  0
   44.1393    5.2601    8.3072 H   0  0  0  0  0  0  0  0  0  0  0  0
   43.0732    3.8895    8.2941 H   0  0  0  0  0  0  0  0  0  0  0  0
   48.6056    6.2264   16.6302 H   0  0  0  0  0  0  0  0  0  0  0  0
  2  3  2  0
  3  4  1  0
  4  5  2  0
  5  6  1  0
  6  7  2  0
  2  7  1  0
  8  9  2  0
  9 10  1  0
 10  4  1  0
 11 12  2  0
 12 13  1  0
 13 14  2  0
  8 14  1  0
  9 11  1  0
 16 17  2  0
 17 18  1  0
 15 13  1  0
 18 12  1  0
  2 19  1  0
 19 20  3  0
 10 21  1  0
 21 22  1  0
 22 23  1  0
 23 24  1  0
 23 25  1  0
 24 25  1  0
 17 26  1  0
 27 28  1  0
 28 29  2  0
 29 30  1  0
 30 26  1  0
 27 26  2  0
 28 31  1  0
 31 32  1  0
 31 33  1  0
 31 34  1  0
 30 35  1  0
 37 38  1  0
 38 39  2  0
 39 40  1  0
 36 40  2  0
 36 35  1  0
 35 37  2  0
 40 41  1  0
 41 42  1  0
  1 44  1  0
  3 45  1  0
  5 46  1  0
  6 47  1  0
  7 48  1  0
  8 49  1  0
 10 50  1  1
 11 51  1  0
 14 52  1  0
 18 53  1  0
 21 54  1  0
 22 55  1  0
 22 56  1  0
 23 57  1  0
 24 58  1  0
 24 59  1  0
 25 60  1  0
 25 61  1  0
 27 62  1  0
 36 63  1  0
 37 64  1  0
 38 65  1  0
 39 66  1  0
 41 67  1  0
 41 68  1  0
 42 69  1  0
 42 70  1  0
 43 71  1  0
M  END
> <Uni-Dock RESULT> 
ENERGY=   -5.918  LOWER_BOUND=    3.857  UPPER_BOUND=    4.797
INTER + INTRA:          -5.918
INTER:                  -5.918
INTRA:                   0.000
UNBOUND:                 0.000

$$$$

     RDKit          3D

 71 73  0  0  0  0  0  0  0  0999 V2000
   46.8426    9.4587   12.2361 Cl  0  0  0  0  0  0  0  0  0  0  0  0
   52.5834    7.2113   16.0309 C   0  0  0  0  0  0  0  0  0  0  0  0
   52.5765    8.2039   15.0651 C   0  0  0  0  0  0  0  0  0  0  0  0
   51.4328    8.9657   14.8508 C   0  0  0  0  0  0  0  0  0  0  0  0
   50.2908    8.7527   15.5871 C   0  0  0  0  0  0  0  0  0  0  0  0
   50.3109    7.7502   16.5561 C   0  0  0  0  0  0  0  0  0  0  0  0
   51.4415    6.9791   16.7852 C   0  0  0  0  0  0  0  0  0  0  0  0
   50.1312   11.9754   13.5104 C   0  0  0  0  0  0  0  0  0  0  0  0
   50.2404   10.5799   13.4395 C   0  0  0  0  0  0  0  0  0  0  0  0
   51.5436   10.0099   13.7887 C   0  0  2  0  0  0  0  0  0  0  0  0
   49.1600    9.8140   13.0737 C   0  0  0  0  0  0  0  0  0  0  0  0
   47.9161   10.3552   12.7544 C   0  0  0  0  0  0  0  0  0  0  0  0
   47.8266   11.7215   12.8288 C   0  0  0  0  0  0  0  0  0  0  0  0
   48.9142   12.5272   13.2007 C   0  0  0  0  0  0  0  0  0  0  0  0
   46.6909   12.3969   12.5720 F   0  0  0  0  0  0  0  0  0  0  0  0
   45.2660   10.8627   11.5694 O   0  0  0  0  0  0  0  0  0  0  0  0
   45.6389    9.7318   11.8591 C   0  0  0  0  0  0  0  0  0  0  0  0
   46.8881    9.4643   12.4157 N   0  0  0  0  0  0  0  0  0  0  0  0
   53.7949    6.4305   16.2318 C   0  0  0  0  0  0  0  0  0  0  0  0
   54.7643    5.8158   16.3741 N   0  0  0  0  0  0  0  0  0  0  0  0
   52.2448    9.4547   12.6928 N   0  0  0  0  0  0  0  0  0  0  0  0
   51.6961    8.3989   11.9436 C   0  0  0  0  0  0  0  0  0  0  0  0
   52.7971    7.9778   10.9353 C   0  0  0  0  0  0  0  0  0  0  0  0
   52.3863    6.8328   10.0215 C   0  0  0  0  0  0  0  0  0  0  0  0
   52.5284    8.2573    9.5236 C   0  0  0  0  0  0  0  0  0  0  0  0
   44.6897    8.6253   11.5904 C   0  0  0  0  0  0  0  0  0  0  0  0
   44.8926    7.2829   11.8573 C   0  0  0  0  0  0  0  0  0  0  0  0
   43.7676    6.5765   11.4570 C   0  0  0  0  0  0  0  0  0  0  0  0
   42.9169    7.5023   10.9608 N   0  0  0  0  0  0  0  0  0  0  0  0
   43.4643    8.7071   11.0413 N   0  0  0  0  0  0  0  0  0  0  0  0
   43.6118    5.1148   11.5827 C   0  0  0  0  0  0  0  0  0  0  0  0
   42.2434    4.8755   11.7138 F   0  0  0  0  0  0  0  0  0  0  0  0
   44.2178    4.6476   12.7469 F   0  0  0  0  0  0  0  0  0  0  0  0
   44.1268    4.4467   10.5043 F   0  0  0  0  0  0  0  0  0  0  0  0
   42.8956    9.9413   10.6246 C   0  0  0  0  0  0  0  0  0  0  0  0
   41.8648   10.5695   11.2905 C   0  0  0  0  0  0  0  0  0  0  0  0
   43.4503   10.5035    9.4721 C   0  0  0  0  0  0  0  0  0  0  0  0
   42.9935   11.6997    8.9577 C   0  0  0  0  0  0  0  0  0  0  0  0
   41.9600   12.3329    9.6228 C   0  0  0  0  0  0  0  0  0  0  0  0
   41.4119   11.7717   10.7660 C   0  0  0  0  0  0  0  0  0  0  0  0
   40.3076   12.5028   11.4247 C   0  0  0  0  0  0  0  0  0  0  0  0
   39.0080   12.0937   10.8932 N   0  0  0  0  0  0  0  0  0  0  0  0
   46.8387    9.4595   12.2358 Cl  0  0  0  0  0  0  0  0  0  0  0  0
   48.1771    9.1713   12.3504 H   0  0  0  0  0  0  0  0  0  0  0  0
   53.4833    8.3813   14.4726 H   0  0  0  0  0  0  0  0  0  0  0  0
   49.3993    9.3398   15.4342 H   0  0  0  0  0  0  0  0  0  0  0  0
   49.4164    7.5716   17.1447 H   0  0  0  0  0  0  0  0  0  0  0  0
   51.4550    6.1889   17.5497 H   0  0  0  0  0  0  0  0  0  0  0  0
   50.9791   12.5768   13.7979 H   0  0  0  0  0  0  0  0  0  0  0  0
   52.2169   10.7841   14.2394 H   0  0  0  0  0  0  0  0  0  0  0  0
   49.2986    8.7485   13.0585 H   0  0  0  0  0  0  0  0  0  0  0  0
   48.8252   13.6039   13.2536 H   0  0  0  0  0  0  0  0  0  0  0  0
   47.0757    8.4274   12.6164 H   0  0  0  0  0  0  0  0  0  0  0  0
   52.9766   10.0128   12.2523 H   0  0  0  0  0  0  0  0  0  0  0  0
   51.4154    7.4823   12.4711 H   0  0  0  0  0  0  0  0  0  0  0  0
   50.8111    8.7433   11.3521 H   0  0  0  0  0  0  0  0  0  0  0  0
   53.8413    7.9533   11.3085 H   0  0  0  0  0  0  0  0  0  0  0  0
   53.1553    6.1161    9.6749 H   0  0  0  0  0  0  0  0  0  0  0  0
   51.3587    6.4471   10.0466 H   0  0  0  0  0  0  0  0  0  0  0  0
   53.3754    8.4463    8.8231 H   0  0  0  0  0  0  0  0  0  0  0  0
   51.6079    8.8074    9.2602 H   0  0  0  0  0  0  0  0  0  0  0  0
   45.7829    6.8218   12.3078 H   0  0  0  0  0  0  0  0  0  0  0  0
   41.4486   10.1186   12.1802 H   0  0  0  0  0  0  0  0  0  0  0  0
   44.2664   10.0058    8.9459 H   0  0  0  0  0  0  0  0  0  0  0  0
   43.4555   12.0932    8.0633 H   0  0  0  0  0  0  0  0  0  0  0  0
   41.6093   13.2765    9.2063 H   0  0  0  0  0  0  0  0  0  0  0  0
   40.2851   12.2749   12.5080 H   0  0  0  0  0  0  0  0  0  0  0  0
   40.4019   13.6119   11.3324 H   0  0  0  0  0  0  0  0  0  0  0  0
   39.0542   11.0979   10.5789 H   0  0  0  0  0  0  0  0  0  0  0  0
   38.8165   12.7515   10.1048 H   0  0  0  0  0  0  0  0  0  0  0  0
   48.1810    9.1705   12.3507 H   0  0  0  0  0  0  0  0  0  0  0  0
  2  3  2  0
  3  4  1  0
  4  5  2  0
  5  6  1  0
  6  7  2  0
  2  7  1  0
  8  9  2  0
  9 10  1  0
 10  4  1  0
 11 12  2  0
 12 13  1  0
 13 14  2  0
  8 14  1  0
  9 11  1  0
 16 17  2  0
 17 18  1  0
 15 13  1  0
 18 12  1  0
  2 19  1  0
 19 20  3  0
 10 21  1  0
 21 22  1  0
 22 23  1  0
 23 24  1  0
 23 25  1  0
 24 25  1  0
 17 26  1  0
 27 28  1  0
 28 29  2  0
 29 30  1  0
 30 26  1  0
 27 26  2  0
 28 31  1  0
 31 32  1  0
 31 33  1  0
 31 34  1  0
 30 35  1  0
 37 38  1  0
 38 39  2  0
 39 40  1  0
 36 40  2  0
 36 35  1  0
 35 37  2  0
 40 41  1  0
 41 42  1  0
  1 44  1  0
  3 45  1  0
  5 46  1  0
  6 47  1  0
  7 48  1  0
  8 49  1  0
 10 50  1  1
 11 51  1  0
 14 52  1  0
 18 53  1  0
 21 54  1  0
 22 55  1  0
 22 56  1  0
 23 57  1  0
 24 58  1  0
 24 59  1  0
 25 60  1  0
 25 61  1  0
 27 62  1  0
 36 63  1  0
 37 64  1  0
 38 65  1  0
 39 66  1  0
 41 67  1  0
 41 68  1  0
 42 69  1  0
 42 70  1  0
 43 71  1  0
M  END
> <Uni-Dock RESULT> 
ENERGY=   -5.801  LOWER_BOUND=    3.486  UPPER_BOUND=    6.550
INTER + INTRA:          -5.801
INTER:                  -5.801
INTRA:                   0.000
UNBOUND:                 0.000

$$$$

     RDKit          3D

 71 73  0  0  0  0  0  0  0  0999 V2000
   44.7525   10.1219   11.7485 Cl  0  0  0  0  0  0  0  0  0  0  0  0
   43.8495   17.0488   13.6486 C   0  0  0  0  0  0  0  0  0  0  0  0
   43.7344   16.5274   12.3707 C   0  0  0  0  0  0  0  0  0  0  0  0
   43.3219   15.2123   12.1845 C   0  0  0  0  0  0  0  0  0  0  0  0
   43.0212   14.4050   13.2567 C   0  0  0  0  0  0  0  0  0  0  0  0
   43.1416   14.9420   14.5379 C   0  0  0  0  0  0  0  0  0  0  0  0
   43.5515   16.2514   14.7450 C   0  0  0  0  0  0  0  0  0  0  0  0
   41.9553   12.8698    9.9055 C   0  0  0  0  0  0  0  0  0  0  0  0
   43.0525   13.3110   10.6576 C   0  0  0  0  0  0  0  0  0  0  0  0
   43.2288   14.7611   10.7638 C   0  0  2  0  0  0  0  0  0  0  0  0
   43.8910   12.4067   11.2636 C   0  0  0  0  0  0  0  0  0  0  0  0
   43.7157   11.0271   11.1738 C   0  0  0  0  0  0  0  0  0  0  0  0
   42.6378   10.6127   10.4345 C   0  0  0  0  0  0  0  0  0  0  0  0
   41.7652   11.5150    9.8062 C   0  0  0  0  0  0  0  0  0  0  0  0
   42.3182    9.3158   10.2675 F   0  0  0  0  0  0  0  0  0  0  0  0
   44.1606    8.1181   11.0164 O   0  0  0  0  0  0  0  0  0  0  0  0
   44.8167    8.8330   11.7650 C   0  0  0  0  0  0  0  0  0  0  0  0
   44.6296   10.2109   11.8549 N   0  0  0  0  0  0  0  0  0  0  0  0
   44.2839   18.4281   13.8115 C   0  0  0  0  0  0  0  0  0  0  0  0
   44.6358   19.5243   13.9229 N   0  0  0  0  0  0  0  0  0  0  0  0
   44.3533   15.2601   10.0657 N   0  0  0  0  0  0  0  0  0  0  0  0
   45.6518   14.8208   10.3788 C   0  0  0  0  0  0  0  0  0  0  0  0
   46.6101   15.6799    9.5129 C   0  0  0  0  0  0  0  0  0  0  0  0
   48.0813   15.3474    9.7125 C   0  0  0  0  0  0  0  0  0  0  0  0
   47.3304   14.9791    8.4483 C   0  0  0  0  0  0  0  0  0  0  0  0
   45.8458    8.1642   12.5964 C   0  0  0  0  0  0  0  0  0  0  0  0
   46.6797    8.7695   13.5197 C   0  0  0  0  0  0  0  0  0  0  0  0
   47.4966    7.7993   14.0820 C   0  0  0  0  0  0  0  0  0  0  0  0
   47.1398    6.6382   13.4893 N   0  0  0  0  0  0  0  0  0  0  0  0
   46.1675    6.8581   12.6151 N   0  0  0  0  0  0  0  0  0  0  0  0
   48.5200    8.0645   15.1113 C   0  0  0  0  0  0  0  0  0  0  0  0
   48.6405    6.8910   15.8567 F   0  0  0  0  0  0  0  0  0  0  0  0
   48.0972    9.0601   15.9892 F   0  0  0  0  0  0  0  0  0  0  0  0
   49.7217    8.4243   14.5628 F   0  0  0  0  0  0  0  0  0  0  0  0
   45.5206    5.9008   11.7873 C   0  0  0  0  0  0  0  0  0  0  0  0
   44.6293    4.9615   12.2605 C   0  0  0  0  0  0  0  0  0  0  0  0
   45.8420    5.9612   10.4290 C   0  0  0  0  0  0  0  0  0  0  0  0
   45.2856    5.0913    9.5136 C   0  0  0  0  0  0  0  0  0  0  0  0
   44.3912    4.1480    9.9844 C   0  0  0  0  0  0  0  0  0  0  0  0
   44.0750    4.0909   11.3330 C   0  0  0  0  0  0  0  0  0  0  0  0
   43.1122    3.0550   11.7665 C   0  0  0  0  0  0  0  0  0  0  0  0
   43.7943    1.8110   12.1215 N   0  0  0  0  0  0  0  0  0  0  0  0
   44.7522   10.1180   11.7492 Cl  0  0  0  0  0  0  0  0  0  0  0  0
   44.8690   11.4651   11.5068 H   0  0  0  0  0  0  0  0  0  0  0  0
   43.9720   17.1642   11.5088 H   0  0  0  0  0  0  0  0  0  0  0  0
   42.6956   13.3855   13.1256 H   0  0  0  0  0  0  0  0  0  0  0  0
   42.9071   14.3160   15.3932 H   0  0  0  0  0  0  0  0  0  0  0  0
   43.6460   16.6727   15.7563 H   0  0  0  0  0  0  0  0  0  0  0  0
   41.2968   13.5795    9.4301 H   0  0  0  0  0  0  0  0  0  0  0  0
   42.3362   15.3081   10.3640 H   0  0  0  0  0  0  0  0  0  0  0  0
   44.7021   12.8053   11.8448 H   0  0  0  0  0  0  0  0  0  0  0  0
   40.9198   11.1697    9.2264 H   0  0  0  0  0  0  0  0  0  0  0  0
   45.2767   10.7057   12.5529 H   0  0  0  0  0  0  0  0  0  0  0  0
   44.2073   15.6774    9.1461 H   0  0  0  0  0  0  0  0  0  0  0  0
   46.0026   14.9378   11.4085 H   0  0  0  0  0  0  0  0  0  0  0  0
   45.7968   13.7518   10.0825 H   0  0  0  0  0  0  0  0  0  0  0  0
   46.3639   16.7558    9.4029 H   0  0  0  0  0  0  0  0  0  0  0  0
   48.8348   16.1524    9.6151 H   0  0  0  0  0  0  0  0  0  0  0  0
   48.3753   14.4995   10.3449 H   0  0  0  0  0  0  0  0  0  0  0  0
   47.6313   15.5283    7.5255 H   0  0  0  0  0  0  0  0  0  0  0  0
   47.1057   13.9124    8.2725 H   0  0  0  0  0  0  0  0  0  0  0  0
   46.7151    9.8356   13.7851 H   0  0  0  0  0  0  0  0  0  0  0  0
   44.3938    4.9304   13.3150 H   0  0  0  0  0  0  0  0  0  0  0  0
   46.5471    6.7053   10.0551 H   0  0  0  0  0  0  0  0  0  0  0  0
   45.5667    5.1784    8.4736 H   0  0  0  0  0  0  0  0  0  0  0  0
   43.9591    3.4678    9.2511 H   0  0  0  0  0  0  0  0  0  0  0  0
   42.5739    3.3840   12.6763 H   0  0  0  0  0  0  0  0  0  0  0  0
   42.3342    2.8325   10.9966 H   0  0  0  0  0  0  0  0  0  0  0  0
   44.7509    2.0254   12.4840 H   0  0  0  0  0  0  0  0  0  0  0  0
   43.8189    1.2522   11.2395 H   0  0  0  0  0  0  0  0  0  0  0  0
   44.8693   11.4691   11.5060 H   0  0  0  0  0  0  0  0  0  0  0  0
  2  3  2  0
  3  4  1  0
  4  5  2  0
  5  6  1  0
  6  7  2  0
  2  7  1  0
  8  9  2  0
  9 10  1  0
 10  4  1  0
 11 12  2  0
 12 13  1  0
 13 14  2  0
  8 14  1  0
  9 11  1  0
 16 17  2  0
 17 18  1  0
 15 13  1  0
 18 12  1  0
  2 19  1  0
 19 20  3  0
 10 21  1  0
 21 22  1  0
 22 23  1  0
 23 24  1  0
 23 25  1  0
 24 25  1  0
 17 26  1  0
 27 28  1  0
 28 29  2  0
 29 30  1  0
 30 26  1  0
 27 26  2  0
 28 31  1  0
 31 32  1  0
 31 33  1  0
 31 34  1  0
 30 35  1  0
 37 38  1  0
 38 39  2  0
 39 40  1  0
 36 40  2  0
 36 35  1  0
 35 37  2  0
 40 41  1  0
 41 42  1  0
  1 44  1  0
  3 45  1  0
  5 46  1  0
  6 47  1  0
  7 48  1  0
  8 49  1  0
 10 50  1  1
 11 51  1  0
 14 52  1  0
 18 53  1  0
 21 54  1  0
 22 55  1  0
 22 56  1  0
 23 57  1  0
 24 58  1  0
 24 59  1  0
 25 60  1  0
 25 61  1  0
 27 62  1  0
 36 63  1  0
 37 64  1  0
 38 65  1  0
 39 66  1  0
 41 67  1  0
 41 68  1  0
 42 69  1  0
 42 70  1  0
 43 71  1  0
M  END
> <Uni-Dock RESULT> 
ENERGY=   -5.282  LOWER_BOUND=    3.867  UPPER_BOUND=    7.420
INTER + INTRA:          -5.282
INTER:                  -5.282
INTRA:                   0.000
UNBOUND:                 0.000

$$$$

     RDKit          3D

 71 73  0  0  0  0  0  0  0  0999 V2000
   46.4921   10.1825   12.2811 Cl  0  0  0  0  0  0  0  0  0  0  0  0
   42.8568   12.8050    6.5965 C   0  0  0  0  0  0  0  0  0  0  0  0
   43.1633   13.4899    7.7605 C   0  0  0  0  0  0  0  0  0  0  0  0
   44.3107   13.1723    8.4795 C   0  0  0  0  0  0  0  0  0  0  0  0
   45.1611   12.1783    8.0547 C   0  0  0  0  0  0  0  0  0  0  0  0
   44.8409   11.4963    6.8814 C   0  0  0  0  0  0  0  0  0  0  0  0
   43.7010   11.7978    6.1498 C   0  0  0  0  0  0  0  0  0  0  0  0
   46.6510   14.2845   10.8950 C   0  0  0  0  0  0  0  0  0  0  0  0
   45.6058   13.4173   10.5487 C   0  0  0  0  0  0  0  0  0  0  0  0
   44.5419   13.9801    9.7143 C   0  0  2  0  0  0  0  0  0  0  0  0
   45.6155   12.1102   10.9720 C   0  0  0  0  0  0  0  0  0  0  0  0
   46.6346   11.5708   11.7548 C   0  0  0  0  0  0  0  0  0  0  0  0
   47.6489   12.4326   12.0846 C   0  0  0  0  0  0  0  0  0  0  0  0
   47.6642   13.7718   11.6645 C   0  0  0  0  0  0  0  0  0  0  0  0
   48.7161   12.0628   12.8169 F   0  0  0  0  0  0  0  0  0  0  0  0
   48.1711    9.9910   13.7114 O   0  0  0  0  0  0  0  0  0  0  0  0
   47.2813    9.4913   13.0328 C   0  0  0  0  0  0  0  0  0  0  0  0
   46.5370   10.2168   12.1046 N   0  0  0  0  0  0  0  0  0  0  0  0
   41.6490   13.1597    5.8662 C   0  0  0  0  0  0  0  0  0  0  0  0
   40.6824   13.4506    5.3016 N   0  0  0  0  0  0  0  0  0  0  0  0
   43.3039   14.1345   10.3811 N   0  0  0  0  0  0  0  0  0  0  0  0
   42.6372   13.0264   10.9331 C   0  0  0  0  0  0  0  0  0  0  0  0
   41.2756   13.5637   11.4465 C   0  0  0  0  0  0  0  0  0  0  0  0
   40.3986   12.4988   12.0882 C   0  0  0  0  0  0  0  0  0  0  0  0
   41.0873   13.5791   12.8982 C   0  0  0  0  0  0  0  0  0  0  0  0
   47.0151    8.0475   13.2374 C   0  0  0  0  0  0  0  0  0  0  0  0
   46.0783    7.2797   12.5686 C   0  0  0  0  0  0  0  0  0  0  0  0
   46.1429    5.9809   13.0521 C   0  0  0  0  0  0  0  0  0  0  0  0
   47.1106    5.9941   13.9957 N   0  0  0  0  0  0  0  0  0  0  0  0
   47.6211    7.2131   14.1013 N   0  0  0  0  0  0  0  0  0  0  0  0
   45.2935    4.8713   12.5788 C   0  0  0  0  0  0  0  0  0  0  0  0
   46.0330    3.7029   12.7668 F   0  0  0  0  0  0  0  0  0  0  0  0
   45.0485    4.9796   11.2117 F   0  0  0  0  0  0  0  0  0  0  0  0
   44.1014    4.8121   13.2495 F   0  0  0  0  0  0  0  0  0  0  0  0
   48.6539    7.6414   14.9789 C   0  0  0  0  0  0  0  0  0  0  0  0
   49.9804    7.3018   14.8188 C   0  0  0  0  0  0  0  0  0  0  0  0
   48.2458    8.4486   16.0437 C   0  0  0  0  0  0  0  0  0  0  0  0
   49.1454    8.9348   16.9703 C   0  0  0  0  0  0  0  0  0  0  0  0
   50.4767    8.5965   16.8130 C   0  0  0  0  0  0  0  0  0  0  0  0
   50.8778    7.7950   15.7553 C   0  0  0  0  0  0  0  0  0  0  0  0
   52.3173    7.4715   15.6499 C   0  0  0  0  0  0  0  0  0  0  0  0
   52.6421    6.2488   16.3836 N   0  0  0  0  0  0  0  0  0  0  0  0
   46.4949   10.1802   12.2827 Cl  0  0  0  0  0  0  0  0  0  0  0  0
   45.5102   10.9641   11.7321 H   0  0  0  0  0  0  0  0  0  0  0  0
   42.4906   14.2849    8.1074 H   0  0  0  0  0  0  0  0  0  0  0  0
   46.0564   11.9259    8.6001 H   0  0  0  0  0  0  0  0  0  0  0  0
   45.5035   10.7096    6.5344 H   0  0  0  0  0  0  0  0  0  0  0  0
   43.4503   11.2585    5.2249 H   0  0  0  0  0  0  0  0  0  0  0  0
   46.6438   15.3105   10.5626 H   0  0  0  0  0  0  0  0  0  0  0  0
   44.8240   14.9928    9.3263 H   0  0  0  0  0  0  0  0  0  0  0  0
   44.7982   11.4880   10.6566 H   0  0  0  0  0  0  0  0  0  0  0  0
   48.4730   14.4375   11.9347 H   0  0  0  0  0  0  0  0  0  0  0  0
   45.7921    9.6465   11.5844 H   0  0  0  0  0  0  0  0  0  0  0  0
   43.0580   15.0575   10.7398 H   0  0  0  0  0  0  0  0  0  0  0  0
   42.3919   12.1893   10.2727 H   0  0  0  0  0  0  0  0  0  0  0  0
   43.1936   12.6209   11.8149 H   0  0  0  0  0  0  0  0  0  0  0  0
   40.7534   14.3069   10.8100 H   0  0  0  0  0  0  0  0  0  0  0  0
   39.2983   12.5812   12.0013 H   0  0  0  0  0  0  0  0  0  0  0  0
   40.7854   11.4827   12.2407 H   0  0  0  0  0  0  0  0  0  0  0  0
   40.4180   14.3398   13.3642 H   0  0  0  0  0  0  0  0  0  0  0  0
   41.9327   13.2821   13.5435 H   0  0  0  0  0  0  0  0  0  0  0  0
   45.3846    7.6121   11.7834 H   0  0  0  0  0  0  0  0  0  0  0  0
   50.2765    6.6759   13.9888 H   0  0  0  0  0  0  0  0  0  0  0  0
   47.1958    8.7173   16.1695 H   0  0  0  0  0  0  0  0  0  0  0  0
   48.7799    9.5552   17.7764 H   0  0  0  0  0  0  0  0  0  0  0  0
   51.1761    8.9873   17.5512 H   0  0  0  0  0  0  0  0  0  0  0  0
   52.5949    7.2829   14.5948 H   0  0  0  0  0  0  0  0  0  0  0  0
   52.9778    8.2959   16.0128 H   0  0  0  0  0  0  0  0  0  0  0  0
   51.8141    5.6109   16.3884 H   0  0  0  0  0  0  0  0  0  0  0  0
   52.9042    6.5680   17.3430 H   0  0  0  0  0  0  0  0  0  0  0  0
   45.5073   10.9664   11.7305 H   0  0  0  0  0  0  0  0  0  0  0  0
  2  3  2  0
  3  4  1  0
  4  5  2  0
  5  6  1  0
  6  7  2  0
  2  7  1  0
  8  9  2  0
  9 10  1  0
 10  4  1  0
 11 12  2  0
 12 13  1  0
 13 14  2  0
  8 14  1  0
  9 11  1  0
 16 17  2  0
 17 18  1  0
 15 13  1  0
 18 12  1  0
  2 19  1  0
 19 20  3  0
 10 21  1  0
 21 22  1  0
 22 23  1  0
 23 24  1  0
 23 25  1  0
 24 25  1  0
 17 26  1  0
 27 28  1  0
 28 29  2  0
 29 30  1  0
 30 26  1  0
 27 26  2  0
 28 31  1  0
 31 32  1  0
 31 33  1  0
 31 34  1  0
 30 35  1  0
 37 38  1  0
 38 39  2  0
 39 40  1  0
 36 40  2  0
 36 35  1  0
 35 37  2  0
 40 41  1  0
 41 42  1  0
  1 44  1  0
  3 45  1  0
  5 46  1  0
  6 47  1  0
  7 48  1  0
  8 49  1  0
 10 50  1  1
 11 51  1  0
 14 52  1  0
 18 53  1  0
 21 54  1  0
 22 55  1  0
 22 56  1  0
 23 57  1  0
 24 58  1  0
 24 59  1  0
 25 60  1  0
 25 61  1  0
 27 62  1  0
 36 63  1  0
 37 64  1  0
 38 65  1  0
 39 66  1  0
 41 67  1  0
 41 68  1  0
 42 69  1  0
 42 70  1  0
 43 71  1  0
M  END
> <Uni-Dock RESULT> 
ENERGY=   -4.969  LOWER_BOUND=    3.857  UPPER_BOUND=    8.679
INTER + INTRA:          -4.969
INTER:                  -4.969
INTRA:                   0.000
UNBOUND:                 0.000

$$$$

     RDKit          3D

 71 73  0  0  0  0  0  0  0  0999 V2000
   51.6133    6.9460   16.2460 Cl  0  0  0  0  0  0  0  0  0  0  0  0
   49.3881   12.1013   11.6768 C   0  0  0  0  0  0  0  0  0  0  0  0
   50.4249   12.2060   12.5889 C   0  0  0  0  0  0  0  0  0  0  0  0
   51.1558   11.0799   12.9520 C   0  0  0  0  0  0  0  0  0  0  0  0
   50.8683    9.8454   12.4178 C   0  0  0  0  0  0  0  0  0  0  0  0
   49.8218    9.7537   11.5008 C   0  0  0  0  0  0  0  0  0  0  0  0
   49.0805   10.8650   11.1257 C   0  0  0  0  0  0  0  0  0  0  0  0
   54.1791    9.8821   14.3570 C   0  0  0  0  0  0  0  0  0  0  0  0
   52.7932   10.0597   14.4676 C   0  0  0  0  0  0  0  0  0  0  0  0
   52.2529   11.3138   13.9381 C   0  0  2  0  0  0  0  0  0  0  0  0
   52.0085    9.0841   15.0336 C   0  0  0  0  0  0  0  0  0  0  0  0
   52.5208    7.8850   15.5253 C   0  0  0  0  0  0  0  0  0  0  0  0
   53.8780    7.7276   15.4094 C   0  0  0  0  0  0  0  0  0  0  0  0
   54.7024    8.7076   14.8346 C   0  0  0  0  0  0  0  0  0  0  0  0
   54.5251    6.6196   15.8166 F   0  0  0  0  0  0  0  0  0  0  0  0
   52.9919    5.4374   17.0978 O   0  0  0  0  0  0  0  0  0  0  0  0
   51.8621    5.8069   16.7995 C   0  0  0  0  0  0  0  0  0  0  0  0
   51.6119    6.9621   16.0614 N   0  0  0  0  0  0  0  0  0  0  0  0
   48.6412   13.2974   11.3170 C   0  0  0  0  0  0  0  0  0  0  0  0
   48.0545   14.2569   11.0468 N   0  0  0  0  0  0  0  0  0  0  0  0
   51.7755   12.2027   14.9295 N   0  0  0  0  0  0  0  0  0  0  0  0
   50.7383   11.8245   15.8003 C   0  0  0  0  0  0  0  0  0  0  0  0
   50.4046   13.0882   16.6357 C   0  0  0  0  0  0  0  0  0  0  0  0
   49.2910   12.8761   17.6505 C   0  0  0  0  0  0  0  0  0  0  0  0
   50.7418   13.0354   18.0594 C   0  0  0  0  0  0  0  0  0  0  0  0
   50.7374    4.9596   17.2627 C   0  0  0  0  0  0  0  0  0  0  0  0
   49.3916    5.1738   17.0230 C   0  0  0  0  0  0  0  0  0  0  0  0
   48.6665    4.1572   17.6276 C   0  0  0  0  0  0  0  0  0  0  0  0
   49.5847    3.3579   18.2147 N   0  0  0  0  0  0  0  0  0  0  0  0
   50.8027    3.8345   17.9973 N   0  0  0  0  0  0  0  0  0  0  0  0
   47.1958    4.0450   17.5895 C   0  0  0  0  0  0  0  0  0  0  0  0
   46.9031    2.6844   17.6896 F   0  0  0  0  0  0  0  0  0  0  0  0
   46.6948    4.4777   16.3638 F   0  0  0  0  0  0  0  0  0  0  0  0
   46.5985    4.7522   18.5983 F   0  0  0  0  0  0  0  0  0  0  0  0
   52.0348    3.2878   18.4480 C   0  0  0  0  0  0  0  0  0  0  0  0
   52.5942    2.1390   17.9305 C   0  0  0  0  0  0  0  0  0  0  0  0
   52.6705    3.9941   19.4722 C   0  0  0  0  0  0  0  0  0  0  0  0
   53.8733    3.5749   20.0029 C   0  0  0  0  0  0  0  0  0  0  0  0
   54.4376    2.4233   19.4863 C   0  0  0  0  0  0  0  0  0  0  0  0
   53.8036    1.7248   18.4702 C   0  0  0  0  0  0  0  0  0  0  0  0
   54.4634    0.5003   17.9672 C   0  0  0  0  0  0  0  0  0  0  0  0
   54.0352   -0.6801   18.7168 N   0  0  0  0  0  0  0  0  0  0  0  0
   51.6140    6.9421   16.2469 Cl  0  0  0  0  0  0  0  0  0  0  0  0
   51.3675    8.2563   15.9313 H   0  0  0  0  0  0  0  0  0  0  0  0
   50.6619   13.1871   13.0205 H   0  0  0  0  0  0  0  0  0  0  0  0
   51.4305    8.9657   12.6871 H   0  0  0  0  0  0  0  0  0  0  0  0
   49.5842    8.7855   11.0712 H   0  0  0  0  0  0  0  0  0  0  0  0
   48.2555   10.7903   10.4025 H   0  0  0  0  0  0  0  0  0  0  0  0
   54.7952   10.6477   13.9125 H   0  0  0  0  0  0  0  0  0  0  0  0
   53.0276   11.8739   13.3533 H   0  0  0  0  0  0  0  0  0  0  0  0
   50.9505    9.2680   15.0707 H   0  0  0  0  0  0  0  0  0  0  0  0
   55.7716    8.5661   14.7518 H   0  0  0  0  0  0  0  0  0  0  0  0
   50.5737    7.1588   15.8766 H   0  0  0  0  0  0  0  0  0  0  0  0
   52.3792   12.9710   15.2233 H   0  0  0  0  0  0  0  0  0  0  0  0
   49.7884   11.5025   15.3634 H   0  0  0  0  0  0  0  0  0  0  0  0
   51.0796   11.0309   16.5113 H   0  0  0  0  0  0  0  0  0  0  0  0
   50.3986   14.0601   16.1012 H   0  0  0  0  0  0  0  0  0  0  0  0
   48.6189   13.7197   17.8988 H   0  0  0  0  0  0  0  0  0  0  0  0
   48.8690   11.8746   17.8067 H   0  0  0  0  0  0  0  0  0  0  0  0
   50.9935   13.9740   18.6065 H   0  0  0  0  0  0  0  0  0  0  0  0
   51.2715   12.1461   18.4438 H   0  0  0  0  0  0  0  0  0  0  0  0
   48.9408    5.9999   16.4552 H   0  0  0  0  0  0  0  0  0  0  0  0
   52.0870    1.6062   17.1386 H   0  0  0  0  0  0  0  0  0  0  0  0
   52.2273    4.9036   19.8810 H   0  0  0  0  0  0  0  0  0  0  0  0
   54.3250    4.1560   20.7945 H   0  0  0  0  0  0  0  0  0  0  0  0
   55.3873    2.1038   19.9140 H   0  0  0  0  0  0  0  0  0  0  0  0
   54.1834    0.3159   16.9120 H   0  0  0  0  0  0  0  0  0  0  0  0
   55.5783    0.5614   17.9968 H   0  0  0  0  0  0  0  0  0  0  0  0
   53.0579   -0.5429   19.0609 H   0  0  0  0  0  0  0  0  0  0  0  0
   54.7230   -0.7716   19.4976 H   0  0  0  0  0  0  0  0  0  0  0  0
   51.3668    8.2601   15.9304 H   0  0  0  0  0  0  0  0  0  0  0  0
  2  3  2  0
  3  4  1  0
  4  5  2  0
  5  6  1  0
  6  7  2  0
  2  7  1  0
  8  9  2  0
  9 10  1  0
 10  4  1  0
 11 12  2  0
 12 13  1  0
 13 14  2  0
  8 14  1  0
  9 11  1  0
 16 17  2  0
 17 18  1  0
 15 13  1  0
 18 12  1  0
  2 19  1  0
 19 20  3  0
 10 21  1  0
 21 22  1  0
 22 23  1  0
 23 24  1  0
 23 25  1  0
 24 25  1  0
 17 26  1  0
 27 28  1  0
 28 29  2  0
 29 30  1  0
 30 26  1  0
 27 26  2  0
 28 31  1  0
 31 32  1  0
 31 33  1  0
 31 34  1  0
 30 35  1  0
 37 38  1  0
 38 39  2  0
 39 40  1  0
 36 40  2  0
 36 35  1  0
 35 37  2  0
 40 41  1  0
 41 42  1  0
  1 44  1  0
  3 45  1  0
  5 46  1  0
  6 47  1  0
  7 48  1  0
  8 49  1  0
 10 50  1  1
 11 51  1  0
 14 52  1  0
 18 53  1  0
 21 54  1  0
 22 55  1  0
 22 56  1  0
 23 57  1  0
 24 58  1  0
 24 59  1  0
 25 60  1  0
 25 61  1  0
 27 62  1  0
 36 63  1  0
 37 64  1  0
 38 65  1  0
 39 66  1  0
 41 67  1  0
 41 68  1  0
 42 69  1  0
 42 70  1  0
 43 71  1  0
M  END
> <Uni-Dock RESULT> 
ENERGY=   -4.961  LOWER_BOUND=    5.459  UPPER_BOUND=    8.174
INTER + INTRA:          -4.961
INTER:                  -4.961
INTRA:                   0.000
UNBOUND:                 0.000

$$$$

     RDKit          3D

 71 73  0  0  0  0  0  0  0  0999 V2000
   47.5730   14.0826   16.5428 Cl  0  0  0  0  0  0  0  0  0  0  0  0
   43.6966   12.3057   10.6927 C   0  0  0  0  0  0  0  0  0  0  0  0
   43.9600   13.5886   11.1431 C   0  0  0  0  0  0  0  0  0  0  0  0
   45.1347   13.8611   11.8359 C   0  0  0  0  0  0  0  0  0  0  0  0
   46.0552   12.8706   12.0881 C   0  0  0  0  0  0  0  0  0  0  0  0
   45.7777   11.5833   11.6295 C   0  0  0  0  0  0  0  0  0  0  0  0
   44.6116   11.2908   10.9367 C   0  0  0  0  0  0  0  0  0  0  0  0
   47.4042   16.3764   12.8709 C   0  0  0  0  0  0  0  0  0  0  0  0
   46.4257   15.4317   13.2090 C   0  0  0  0  0  0  0  0  0  0  0  0
   45.3142   15.2796   12.2674 C   0  0  2  0  0  0  0  0  0  0  0  0
   46.5394   14.6924   14.3615 C   0  0  0  0  0  0  0  0  0  0  0  0
   47.6039   14.8274   15.2509 C   0  0  0  0  0  0  0  0  0  0  0  0
   48.5519   15.7558   14.9051 C   0  0  0  0  0  0  0  0  0  0  0  0
   48.4607   16.5233   13.7334 C   0  0  0  0  0  0  0  0  0  0  0  0
   49.6509   15.9922   15.6456 F   0  0  0  0  0  0  0  0  0  0  0  0
   49.2745   14.9320   17.6764 O   0  0  0  0  0  0  0  0  0  0  0  0
   48.4197   14.0685   17.5168 C   0  0  0  0  0  0  0  0  0  0  0  0
   47.6136   13.9996   16.3821 N   0  0  0  0  0  0  0  0  0  0  0  0
   42.4587   12.0513    9.9711 C   0  0  0  0  0  0  0  0  0  0  0  0
   41.4676   11.8658    9.4044 N   0  0  0  0  0  0  0  0  0  0  0  0
   44.0741   15.7550   12.7542 N   0  0  0  0  0  0  0  0  0  0  0  0
   43.4993   15.2145   13.9181 C   0  0  0  0  0  0  0  0  0  0  0  0
   42.1052   15.8814   14.0512 C   0  0  0  0  0  0  0  0  0  0  0  0
   41.3183   15.4198   15.2689 C   0  0  0  0  0  0  0  0  0  0  0  0
   41.9292   16.8037   15.1745 C   0  0  0  0  0  0  0  0  0  0  0  0
   48.2669   13.0702   18.6019 C   0  0  0  0  0  0  0  0  0  0  0  0
   47.3859   12.0035   18.6218 C   0  0  0  0  0  0  0  0  0  0  0  0
   47.5543   11.3117   19.8126 C   0  0  0  0  0  0  0  0  0  0  0  0
   48.5265   11.9721   20.4801 N   0  0  0  0  0  0  0  0  0  0  0  0
   48.9428   13.0070   19.7633 N   0  0  0  0  0  0  0  0  0  0  0  0
   46.7884   10.1100   20.1948 C   0  0  0  0  0  0  0  0  0  0  0  0
   47.6170    9.3677   21.0371 F   0  0  0  0  0  0  0  0  0  0  0  0
   46.5236    9.3136   19.0829 F   0  0  0  0  0  0  0  0  0  0  0  0
   45.6104   10.4257   20.8170 F   0  0  0  0  0  0  0  0  0  0  0  0
   49.9475   13.9492   20.1139 C   0  0  0  0  0  0  0  0  0  0  0  0
   51.2947   13.6570   20.1309 C   0  0  0  0  0  0  0  0  0  0  0  0
   49.4882   15.2252   20.4499 C   0  0  0  0  0  0  0  0  0  0  0  0
   50.3560   16.2361   20.8093 C   0  0  0  0  0  0  0  0  0  0  0  0
   51.7079   15.9469   20.8273 C   0  0  0  0  0  0  0  0  0  0  0  0
   52.1599   14.6795   20.4936 C   0  0  0  0  0  0  0  0  0  0  0  0
   53.6190   14.4404   20.5365 C   0  0  0  0  0  0  0  0  0  0  0  0
   54.0432   13.9800   21.8582 N   0  0  0  0  0  0  0  0  0  0  0  0
   47.5761   14.0820   16.5453 Cl  0  0  0  0  0  0  0  0  0  0  0  0
   46.5292   14.2846   15.6791 H   0  0  0  0  0  0  0  0  0  0  0  0
   43.2314   14.3857   10.9464 H   0  0  0  0  0  0  0  0  0  0  0  0
   46.9719   13.0699   12.6195 H   0  0  0  0  0  0  0  0  0  0  0  0
   46.4957   10.7921   11.8214 H   0  0  0  0  0  0  0  0  0  0  0  0
   44.3948   10.2748   10.5762 H   0  0  0  0  0  0  0  0  0  0  0  0
   47.3154   16.9566   11.9661 H   0  0  0  0  0  0  0  0  0  0  0  0
   45.5144   15.8300   11.3120 H   0  0  0  0  0  0  0  0  0  0  0  0
   45.7696   13.9685   14.5561 H   0  0  0  0  0  0  0  0  0  0  0  0
   49.2183   17.2516   13.4769 H   0  0  0  0  0  0  0  0  0  0  0  0
   46.9101   13.1898   16.3816 H   0  0  0  0  0  0  0  0  0  0  0  0
   43.7613   16.6813   12.4622 H   0  0  0  0  0  0  0  0  0  0  0  0
   43.3132   14.1369   13.9500 H   0  0  0  0  0  0  0  0  0  0  0  0
   44.0931   15.4907   14.8252 H   0  0  0  0  0  0  0  0  0  0  0  0
   41.5218   16.0230   13.1186 H   0  0  0  0  0  0  0  0  0  0  0  0
   40.2141   15.3691   15.2107 H   0  0  0  0  0  0  0  0  0  0  0  0
   41.7832   14.7534   16.0072 H   0  0  0  0  0  0  0  0  0  0  0  0
   41.2077   17.6501   15.0914 H   0  0  0  0  0  0  0  0  0  0  0  0
   42.8006   17.0291   15.8141 H   0  0  0  0  0  0  0  0  0  0  0  0
   46.6617   11.7248   17.8433 H   0  0  0  0  0  0  0  0  0  0  0  0
   51.6305   12.6638   19.8681 H   0  0  0  0  0  0  0  0  0  0  0  0
   48.4218   15.4558   20.4358 H   0  0  0  0  0  0  0  0  0  0  0  0
   49.9512   17.2062   21.0609 H   0  0  0  0  0  0  0  0  0  0  0  0
   52.3819   16.7540   21.1124 H   0  0  0  0  0  0  0  0  0  0  0  0
   53.9008   13.6409   19.8244 H   0  0  0  0  0  0  0  0  0  0  0  0
   54.2175   15.3419   20.2596 H   0  0  0  0  0  0  0  0  0  0  0  0
   53.2667   13.4465   22.3108 H   0  0  0  0  0  0  0  0  0  0  0  0
   54.2886   14.8486   22.3838 H   0  0  0  0  0  0  0  0  0  0  0  0
   46.5261   14.2852   15.6765 H   0  0  0  0  0  0  0  0  0  0  0  0
  2  3  2  0
  3  4  1  0
  4  5  2  0
  5  6  1  0
  6  7  2  0
  2  7  1  0
  8  9  2  0
  9 10  1  0
 10  4  1  0
 11 12  2  0
 12 13  1  0
 13 14  2  0
  8 14  1  0
  9 11  1  0
 16 17  2  0
 17 18  1  0
 15 13  1  0
 18 12  1  0
  2 19  1  0
 19 20  3  0
 10 21  1  0
 21 22  1  0
 22 23  1  0
 23 24  1  0
 23 25  1  0
 24 25  1  0
 17 26  1  0
 27 28  1  0
 28 29  2  0
 29 30  1  0
 30 26  1  0
 27 26  2  0
 28 31  1  0
 31 32  1  0
 31 33  1  0
 31 34  1  0
 30 35  1  0
 37 38  1  0
 38 39  2  0
 39 40  1  0
 36 40  2  0
 36 35  1  0
 35 37  2  0
 40 41  1  0
 41 42  1  0
  1 44  1  0
  3 45  1  0
  5 46  1  0
  6 47  1  0
  7 48  1  0
  8 49  1  0
 10 50  1  1
 11 51  1  0
 14 52  1  0
 18 53  1  0
 21 54  1  0
 22 55  1  0
 22 56  1  0
 23 57  1  0
 24 58  1  0
 24 59  1  0
 25 60  1  0
 25 61  1  0
 27 62  1  0
 36 63  1  0
 37 64  1  0
 38 65  1  0
 39 66  1  0
 41 67  1  0
 41 68  1  0
 42 69  1  0
 42 70  1  0
 43 71  1  0
M  END
> <Uni-Dock RESULT> 
ENERGY=   -4.811  LOWER_BOUND=    5.386  UPPER_BOUND=   10.666
INTER + INTRA:          -4.811
INTER:                  -4.811
INTRA:                   0.000
UNBOUND:                 0.000

$$$$

     RDKit          3D

 71 73  0  0  0  0  0  0  0  0999 V2000
   48.6244    9.5856   16.2961 Cl  0  0  0  0  0  0  0  0  0  0  0  0
   47.0625   12.8808   10.0424 C   0  0  0  0  0  0  0  0  0  0  0  0
   48.0513   11.9325   10.2449 C   0  0  0  0  0  0  0  0  0  0  0  0
   47.8963   10.9555   11.2225 C   0  0  0  0  0  0  0  0  0  0  0  0
   46.7662   10.9087   12.0051 C   0  0  0  0  0  0  0  0  0  0  0  0
   45.7783   11.8694   11.7913 C   0  0  0  0  0  0  0  0  0  0  0  0
   45.9139   12.8524   10.8214 C   0  0  0  0  0  0  0  0  0  0  0  0
   48.9500    7.7753   12.3732 C   0  0  0  0  0  0  0  0  0  0  0  0
   48.9125    9.1644   12.5558 C   0  0  0  0  0  0  0  0  0  0  0  0
   49.0233    9.9836   11.3468 C   0  0  2  0  0  0  0  0  0  0  0  0
   48.7632    9.6983   13.8130 C   0  0  0  0  0  0  0  0  0  0  0  0
   48.6442    8.9187   14.9621 C   0  0  0  0  0  0  0  0  0  0  0  0
   48.6830    7.5623   14.7656 C   0  0  0  0  0  0  0  0  0  0  0  0
   48.8335    6.9908   13.4924 C   0  0  0  0  0  0  0  0  0  0  0  0
   48.5611    6.6724   15.7683 F   0  0  0  0  0  0  0  0  0  0  0  0
   48.7889    7.9018   17.7243 O   0  0  0  0  0  0  0  0  0  0  0  0
   48.5461    9.0780   17.4802 C   0  0  0  0  0  0  0  0  0  0  0  0
   48.4768    9.5851   16.1841 N   0  0  0  0  0  0  0  0  0  0  0  0
   47.2536   13.8908    9.0123 C   0  0  0  0  0  0  0  0  0  0  0  0
   47.4244   14.6896    8.1933 N   0  0  0  0  0  0  0  0  0  0  0  0
   50.2391   10.6990   11.2419 N   0  0  0  0  0  0  0  0  0  0  0  0
   50.6131   11.6361   12.2212 C   0  0  0  0  0  0  0  0  0  0  0  0
   51.9127   12.3011   11.6969 C   0  0  0  0  0  0  0  0  0  0  0  0
   52.4811   13.3582   12.6320 C   0  0  0  0  0  0  0  0  0  0  0  0
   53.1399   12.0068   12.4390 C   0  0  0  0  0  0  0  0  0  0  0  0
   48.3216    9.9698   18.6429 C   0  0  0  0  0  0  0  0  0  0  0  0
   48.0140   11.3181   18.5996 C   0  0  0  0  0  0  0  0  0  0  0  0
   47.8857   11.7853   19.8996 C   0  0  0  0  0  0  0  0  0  0  0  0
   48.1174   10.7158   20.6929 N   0  0  0  0  0  0  0  0  0  0  0  0
   48.3738    9.6491   19.9483 N   0  0  0  0  0  0  0  0  0  0  0  0
   47.5605   13.1794   20.2568 C   0  0  0  0  0  0  0  0  0  0  0  0
   46.8995   13.1263   21.4845 F   0  0  0  0  0  0  0  0  0  0  0  0
   46.6690   13.7333   19.3408 F   0  0  0  0  0  0  0  0  0  0  0  0
   48.6784   13.9661   20.3337 F   0  0  0  0  0  0  0  0  0  0  0  0
   48.6704    8.3344   20.4000 C   0  0  0  0  0  0  0  0  0  0  0  0
   47.7339    7.4898   20.9568 C   0  0  0  0  0  0  0  0  0  0  0  0
   49.9983    7.9281   20.2464 C   0  0  0  0  0  0  0  0  0  0  0  0
   50.4231    6.6762   20.6420 C   0  0  0  0  0  0  0  0  0  0  0  0
   49.4867    5.8262   21.2007 C   0  0  0  0  0  0  0  0  0  0  0  0
   48.1700    6.2331   21.3518 C   0  0  0  0  0  0  0  0  0  0  0  0
   47.2229    5.2728   21.9590 C   0  0  0  0  0  0  0  0  0  0  0  0
   47.1803    5.4164   23.4137 N   0  0  0  0  0  0  0  0  0  0  0  0
   48.6233    9.5839   16.2996 Cl  0  0  0  0  0  0  0  0  0  0  0  0
   48.9924   10.1406   15.0991 H   0  0  0  0  0  0  0  0  0  0  0  0
   48.9567   11.9618    9.6250 H   0  0  0  0  0  0  0  0  0  0  0  0
   46.6315   10.1535   12.7628 H   0  0  0  0  0  0  0  0  0  0  0  0
   44.8810   11.8440   12.4017 H   0  0  0  0  0  0  0  0  0  0  0  0
   45.1337   13.6092   10.6547 H   0  0  0  0  0  0  0  0  0  0  0  0
   49.0669    7.3559   11.3864 H   0  0  0  0  0  0  0  0  0  0  0  0
   48.9419    9.3550   10.4226 H   0  0  0  0  0  0  0  0  0  0  0  0
   48.7195   10.7693   13.8874 H   0  0  0  0  0  0  0  0  0  0  0  0
   48.8623    5.9180   13.3565 H   0  0  0  0  0  0  0  0  0  0  0  0
   48.2558   10.6331   16.1249 H   0  0  0  0  0  0  0  0  0  0  0  0
   50.9779   10.3159   10.6516 H   0  0  0  0  0  0  0  0  0  0  0  0
   49.9273   12.4612   12.4355 H   0  0  0  0  0  0  0  0  0  0  0  0
   50.8597   11.1303   13.1882 H   0  0  0  0  0  0  0  0  0  0  0  0
   51.9601   12.5326   10.6132 H   0  0  0  0  0  0  0  0  0  0  0  0
   53.0159   14.2272   12.2031 H   0  0  0  0  0  0  0  0  0  0  0  0
   52.0310   13.5215   13.6200 H   0  0  0  0  0  0  0  0  0  0  0  0
   54.1233   12.0150   11.9132 H   0  0  0  0  0  0  0  0  0  0  0  0
   53.0923   11.2844   13.2728 H   0  0  0  0  0  0  0  0  0  0  0  0
   47.8872   11.9426   17.7040 H   0  0  0  0  0  0  0  0  0  0  0  0
   46.7114    7.8225   21.0676 H   0  0  0  0  0  0  0  0  0  0  0  0
   50.7389    8.5971   19.8052 H   0  0  0  0  0  0  0  0  0  0  0  0
   51.4611    6.4093   20.5022 H   0  0  0  0  0  0  0  0  0  0  0  0
   49.8353    4.8409   21.5082 H   0  0  0  0  0  0  0  0  0  0  0  0
   46.1937    5.4643   21.5983 H   0  0  0  0  0  0  0  0  0  0  0  0
   47.4577    4.2100   21.7083 H   0  0  0  0  0  0  0  0  0  0  0  0
   47.3843    6.4075   23.6756 H   0  0  0  0  0  0  0  0  0  0  0  0
   47.9017    4.7528   23.7745 H   0  0  0  0  0  0  0  0  0  0  0  0
   48.9935   10.1422   15.0956 H   0  0  0  0  0  0  0  0  0  0  0  0
  2  3  2  0
  3  4  1  0
  4  5  2  0
  5  6  1  0
  6  7  2  0
  2  7  1  0
  8  9  2  0
  9 10  1  0
 10  4  1  0
 11 12  2  0
 12 13  1  0
 13 14  2  0
  8 14  1  0
  9 11  1  0
 16 17  2  0
 17 18  1  0
 15 13  1  0
 18 12  1  0
  2 19  1  0
 19 20  3  0
 10 21  1  0
 21 22  1  0
 22 23  1  0
 23 24  1  0
 23 25  1  0
 24 25  1  0
 17 26  1  0
 27 28  1  0
 28 29  2  0
 29 30  1  0
 30 26  1  0
 27 26  2  0
 28 31  1  0
 31 32  1  0
 31 33  1  0
 31 34  1  0
 30 35  1  0
 37 38  1  0
 38 39  2  0
 39 40  1  0
 36 40  2  0
 36 35  1  0
 35 37  2  0
 40 41  1  0
 41 42  1  0
  1 44  1  0
  3 45  1  0
  5 46  1  0
  6 47  1  0
  7 48  1  0
  8 49  1  0
 10 50  1  1
 11 51  1  0
 14 52  1  0
 18 53  1  0
 21 54  1  0
 22 55  1  0
 22 56  1  0
 23 57  1  0
 24 58  1  0
 24 59  1  0
 25 60  1  0
 25 61  1  0
 27 62  1  0
 36 63  1  0
 37 64  1  0
 38 65  1  0
 39 66  1  0
 41 67  1  0
 41 68  1  0
 42 69  1  0
 42 70  1  0
 43 71  1  0
M  END
> <Uni-Dock RESULT> 
ENERGY=   -4.796  LOWER_BOUND=    4.564  UPPER_BOUND=    8.390
INTER + INTRA:          -4.796
INTER:                  -4.796
INTRA:                   0.000
UNBOUND:                 0.000

$$$$

     RDKit          3D

 71 73  0  0  0  0  0  0  0  0999 V2000
   47.4541   10.0187   13.0431 Cl  0  0  0  0  0  0  0  0  0  0  0  0
   53.0419    7.6406   16.9837 C   0  0  0  0  0  0  0  0  0  0  0  0
   51.7328    7.1961   17.0656 C   0  0  0  0  0  0  0  0  0  0  0  0
   50.9100    7.2283   15.9448 C   0  0  0  0  0  0  0  0  0  0  0  0
   51.3735    7.6988   14.7383 C   0  0  0  0  0  0  0  0  0  0  0  0
   52.6932    8.1437   14.6694 C   0  0  0  0  0  0  0  0  0  0  0  0
   53.5301    8.1200   15.7760 C   0  0  0  0  0  0  0  0  0  0  0  0
   47.9725    5.9483   14.4344 C   0  0  0  0  0  0  0  0  0  0  0  0
   48.6480    7.0299   15.0160 C   0  0  0  0  0  0  0  0  0  0  0  0
   49.5211    6.7190   16.1500 C   0  0  2  0  0  0  0  0  0  0  0  0
   48.4906    8.3000   14.5162 C   0  0  0  0  0  0  0  0  0  0  0  0
   47.6702    8.5941   13.4286 C   0  0  0  0  0  0  0  0  0  0  0  0
   47.0169    7.5249   12.8718 C   0  0  0  0  0  0  0  0  0  0  0  0
   47.1607    6.2174   13.3619 C   0  0  0  0  0  0  0  0  0  0  0  0
   46.2045    7.6369   11.8043 F   0  0  0  0  0  0  0  0  0  0  0  0
   45.8313    9.9130   11.5408 O   0  0  0  0  0  0  0  0  0  0  0  0
   46.7311   10.5268   12.1024 C   0  0  0  0  0  0  0  0  0  0  0  0
   47.6107    9.9283   13.0025 N   0  0  0  0  0  0  0  0  0  0  0  0
   53.8784    7.5950   18.1737 C   0  0  0  0  0  0  0  0  0  0  0  0
   54.5274    7.5569   19.1304 N   0  0  0  0  0  0  0  0  0  0  0  0
   49.0504    7.2036   17.3928 N   0  0  0  0  0  0  0  0  0  0  0  0
   48.8414    8.5785   17.6001 C   0  0  0  0  0  0  0  0  0  0  0  0
   48.4652    8.7289   19.0974 C   0  0  0  0  0  0  0  0  0  0  0  0
   48.1958   10.1652   19.5208 C   0  0  0  0  0  0  0  0  0  0  0  0
   47.0893    9.1382   19.3851 C   0  0  0  0  0  0  0  0  0  0  0  0
   46.8572   11.9689   11.7834 C   0  0  0  0  0  0  0  0  0  0  0  0
   47.8074   12.8427   12.2815 C   0  0  0  0  0  0  0  0  0  0  0  0
   47.5811   14.0996   11.7393 C   0  0  0  0  0  0  0  0  0  0  0  0
   46.5066   13.9571   10.9319 N   0  0  0  0  0  0  0  0  0  0  0  0
   46.0837   12.7008   10.9613 N   0  0  0  0  0  0  0  0  0  0  0  0
   48.3941   15.2947   12.0355 C   0  0  0  0  0  0  0  0  0  0  0  0
   48.3171   16.1116   10.9069 F   0  0  0  0  0  0  0  0  0  0  0  0
   49.7356   14.9564   12.1995 F   0  0  0  0  0  0  0  0  0  0  0  0
   47.9535   15.9544   13.1513 F   0  0  0  0  0  0  0  0  0  0  0  0
   44.9818   12.1461   10.2555 C   0  0  0  0  0  0  0  0  0  0  0  0
   44.9838   11.9175    8.8960 C   0  0  0  0  0  0  0  0  0  0  0  0
   43.8627   11.8339   11.0315 C   0  0  0  0  0  0  0  0  0  0  0  0
   42.7240   11.2888   10.4743 C   0  0  0  0  0  0  0  0  0  0  0  0
   42.7223   11.0580    9.1111 C   0  0  0  0  0  0  0  0  0  0  0  0
   43.8345   11.3695    8.3443 C   0  0  0  0  0  0  0  0  0  0  0  0
   43.7619   11.0978    6.8921 C   0  0  0  0  0  0  0  0  0  0  0  0
   43.2360   12.2505    6.1617 N   0  0  0  0  0  0  0  0  0  0  0  0
   47.4525   10.0201   13.0397 Cl  0  0  0  0  0  0  0  0  0  0  0  0
   47.9952    9.5506   14.2112 H   0  0  0  0  0  0  0  0  0  0  0  0
   51.3541    6.8187   18.0242 H   0  0  0  0  0  0  0  0  0  0  0  0
   50.7474    7.7243   13.8608 H   0  0  0  0  0  0  0  0  0  0  0  0
   53.0722    8.5173   13.7233 H   0  0  0  0  0  0  0  0  0  0  0  0
   54.5705    8.4715   15.7194 H   0  0  0  0  0  0  0  0  0  0  0  0
   48.0961    4.9511   14.8263 H   0  0  0  0  0  0  0  0  0  0  0  0
   49.6533    5.6124   16.2681 H   0  0  0  0  0  0  0  0  0  0  0  0
   49.0511    9.0849   14.9899 H   0  0  0  0  0  0  0  0  0  0  0  0
   46.6370    5.3859   12.9099 H   0  0  0  0  0  0  0  0  0  0  0  0
   48.3471   10.5900   13.4154 H   0  0  0  0  0  0  0  0  0  0  0  0
   48.5650    6.5556   18.0137 H   0  0  0  0  0  0  0  0  0  0  0  0
   49.6829    9.2591   17.4394 H   0  0  0  0  0  0  0  0  0  0  0  0
   47.9756    8.9491   16.9961 H   0  0  0  0  0  0  0  0  0  0  0  0
   49.0226    8.1028   19.8237 H   0  0  0  0  0  0  0  0  0  0  0  0
   48.4453   10.4798   20.5523 H   0  0  0  0  0  0  0  0  0  0  0  0
   48.1817   10.9685   18.7726 H   0  0  0  0  0  0  0  0  0  0  0  0
   46.6015    8.8192   20.3359 H   0  0  0  0  0  0  0  0  0  0  0  0
   46.3836    9.2465   18.5428 H   0  0  0  0  0  0  0  0  0  0  0  0
   48.6166   12.6123   12.9888 H   0  0  0  0  0  0  0  0  0  0  0  0
   45.8591   12.1662    8.3125 H   0  0  0  0  0  0  0  0  0  0  0  0
   43.8620   12.0146   12.1076 H   0  0  0  0  0  0  0  0  0  0  0  0
   41.8844   11.0651   11.1171 H   0  0  0  0  0  0  0  0  0  0  0  0
   41.8173   10.6271    8.6843 H   0  0  0  0  0  0  0  0  0  0  0  0
   44.7730   10.9068    6.4835 H   0  0  0  0  0  0  0  0  0  0  0  0
   43.1422   10.2017    6.6460 H   0  0  0  0  0  0  0  0  0  0  0  0
   43.4916   13.1312    6.6631 H   0  0  0  0  0  0  0  0  0  0  0  0
   42.2031   12.1003    6.1223 H   0  0  0  0  0  0  0  0  0  0  0  0
   47.9968    9.5493   14.2146 H   0  0  0  0  0  0  0  0  0  0  0  0
  2  3  2  0
  3  4  1  0
  4  5  2  0
  5  6  1  0
  6  7  2  0
  2  7  1  0
  8  9  2  0
  9 10  1  0
 10  4  1  0
 11 12  2  0
 12 13  1  0
 13 14  2  0
  8 14  1  0
  9 11  1  0
 16 17  2  0
 17 18  1  0
 15 13  1  0
 18 12  1  0
  2 19  1  0
 19 20  3  0
 10 21  1  0
 21 22  1  0
 22 23  1  0
 23 24  1  0
 23 25  1  0
 24 25  1  0
 17 26  1  0
 27 28  1  0
 28 29  2  0
 29 30  1  0
 30 26  1  0
 27 26  2  0
 28 31  1  0
 31 32  1  0
 31 33  1  0
 31 34  1  0
 30 35  1  0
 37 38  1  0
 38 39  2  0
 39 40  1  0
 36 40  2  0
 36 35  1  0
 35 37  2  0
 40 41  1  0
 41 42  1  0
  1 44  1  0
  3 45  1  0
  5 46  1  0
  6 47  1  0
  7 48  1  0
  8 49  1  0
 10 50  1  1
 11 51  1  0
 14 52  1  0
 18 53  1  0
 21 54  1  0
 22 55  1  0
 22 56  1  0
 23 57  1  0
 24 58  1  0
 24 59  1  0
 25 60  1  0
 25 61  1  0
 27 62  1  0
 36 63  1  0
 37 64  1  0
 38 65  1  0
 39 66  1  0
 41 67  1  0
 41 68  1  0
 42 69  1  0
 42 70  1  0
 43 71  1  0
M  END
> <Uni-Dock RESULT> 
ENERGY=   -4.732  LOWER_BOUND=    3.821  UPPER_BOUND=    5.284
INTER + INTRA:          -4.732
INTER:                  -4.732
INTRA:                   0.000
UNBOUND:                 0.000

$$$$
