
     RDKit          3D

 71 73  0  0  0  0  0  0  0  0999 V2000
   46.9545    9.7325   13.3030 Cl  0  0  0  0  0  0  0  0  0  0  0  0
   44.3510   11.5963    7.4188 C   0  0  0  0  0  0  0  0  0  0  0  0
   44.0491   11.1591    8.7164 C   0  0  0  0  0  0  0  0  0  0  0  0
   44.6009   11.7258    9.8243 C   0  0  0  0  0  0  0  0  0  0  0  0
   45.4993   12.7825    9.5849 C   0  0  0  0  0  0  0  0  0  0  0  0
   45.7980   13.2137    8.3135 C   0  0  0  0  0  0  0  0  0  0  0  0
   45.2379   12.6382    7.2161 C   0  0  0  0  0  0  0  0  0  0  0  0
   44.1741    8.8379   11.1497 C   0  0  0  0  0  0  0  0  0  0  0  0
   44.8287    9.9842   11.5323 C   0  0  0  0  0  0  0  0  0  0  0  0
   44.3302   11.3603   11.2337 C   0  0  2  0  0  0  0  0  0  0  0  0
   46.0182    9.7856   12.2494 C   0  0  0  0  0  0  0  0  0  0  0  0
   46.5003    8.5353   12.5520 C   0  0  0  0  0  0  0  0  0  0  0  0
   45.8310    7.3972   12.1611 C   0  0  0  0  0  0  0  0  0  0  0  0
   44.6598    7.5607   11.4550 C   0  0  0  0  0  0  0  0  0  0  0  0
   46.2824    6.1576   12.4451 F   0  0  0  0  0  0  0  0  0  0  0  0
   49.0114    8.4180   11.4094 O   0  0  0  0  0  0  0  0  0  0  0  0
   48.9962    8.3801   12.6703 C   0  0  0  0  0  0  0  0  0  0  0  0
   47.7285    8.4377   13.2922 N   0  0  0  0  0  0  0  0  0  0  0  0
   43.7374   10.9599    6.2869 C   0  0  0  0  0  0  0  0  0  0  0  0
   43.2569   10.4323    5.3779 N   0  0  0  0  0  0  0  0  0  0  0  0
   43.0376   11.6758   11.6491 N   0  0  0  0  0  0  0  0  0  0  0  0
   41.8573   11.0514   11.2658 C   0  0  0  0  0  0  0  0  0  0  0  0
   40.6007   11.7646   11.7944 C   0  0  0  0  0  0  0  0  0  0  0  0
   40.4097   11.9397   13.2314 C   0  0  0  0  0  0  0  0  0  0  0  0
   40.8227   13.1519   12.3793 C   0  0  0  0  0  0  0  0  0  0  0  0
   50.2650    8.2823   13.3488 C   0  0  0  0  0  0  0  0  0  0  0  0
   51.4773    8.2238   12.6742 C   0  0  0  0  0  0  0  0  0  0  0  0
   52.5109    8.1345   13.5965 C   0  0  0  0  0  0  0  0  0  0  0  0
   51.9156    8.1404   14.7962 N   0  0  0  0  0  0  0  0  0  0  0  0
   50.5869    8.2278   14.6453 N   0  0  0  0  0  0  0  0  0  0  0  0
   53.9739    8.0511   13.2836 C   0  0  0  0  0  0  0  0  0  0  0  0
   54.5182    9.3158   13.1333 F   0  0  0  0  0  0  0  0  0  0  0  0
   54.5798    7.4642   14.3800 F   0  0  0  0  0  0  0  0  0  0  0  0
   54.2233    7.2550   12.1847 F   0  0  0  0  0  0  0  0  0  0  0  0
   49.7167    8.2554   15.7628 C   0  0  0  0  0  0  0  0  0  0  0  0
   49.3289    9.4498   16.3803 C   0  0  0  0  0  0  0  0  0  0  0  0
   49.2625    7.0245   16.2395 C   0  0  0  0  0  0  0  0  0  0  0  0
   48.4208    6.9439   17.3290 C   0  0  0  0  0  0  0  0  0  0  0  0
   48.0402    8.1254   17.9361 C   0  0  0  0  0  0  0  0  0  0  0  0
   48.4902    9.3598   17.4649 C   0  0  0  0  0  0  0  0  0  0  0  0
   48.0233   10.5726   18.1843 C   0  0  0  0  0  0  0  0  0  0  0  0
   49.0034   10.8385   19.2410 N   0  0  0  0  0  0  0  0  0  0  0  0
   46.9523    9.7339   13.3009 Cl  0  0  0  0  0  0  0  0  0  0  0  0
   46.0551   10.3207   12.4490 H   0  0  0  0  0  0  0  0  0  0  0  0
   43.3774   10.3457    8.7831 H   0  0  0  0  0  0  0  0  0  0  0  0
   45.9924   13.2990   10.3983 H   0  0  0  0  0  0  0  0  0  0  0  0
   46.4987   14.0373    8.1433 H   0  0  0  0  0  0  0  0  0  0  0  0
   45.4391   12.9401    6.2001 H   0  0  0  0  0  0  0  0  0  0  0  0
   43.2584    8.8453   10.5831 H   0  0  0  0  0  0  0  0  0  0  0  0
   45.0214   12.0136   11.8853 H   0  0  0  0  0  0  0  0  0  0  0  0
   46.5989   10.6541   12.5899 H   0  0  0  0  0  0  0  0  0  0  0  0
   44.1083    6.6705   11.1320 H   0  0  0  0  0  0  0  0  0  0  0  0
   47.6523    8.4097   14.3168 H   0  0  0  0  0  0  0  0  0  0  0  0
   43.0197   11.9799   12.6859 H   0  0  0  0  0  0  0  0  0  0  0  0
   41.7953   10.0563   11.8296 H   0  0  0  0  0  0  0  0  0  0  0  0
   41.7136   10.7779   10.2235 H   0  0  0  0  0  0  0  0  0  0  0  0
   39.7134   11.6239   11.1274 H   0  0  0  0  0  0  0  0  0  0  0  0
   39.3872   12.0048   13.6423 H   0  0  0  0  0  0  0  0  0  0  0  0
   41.1586   11.5626   13.9630 H   0  0  0  0  0  0  0  0  0  0  0  0
   41.8417   13.5588   12.4889 H   0  0  0  0  0  0  0  0  0  0  0  0
   40.0204   13.8985   12.1666 H   0  0  0  0  0  0  0  0  0  0  0  0
   51.6759    8.2400   11.6123 H   0  0  0  0  0  0  0  0  0  0  0  0
   49.6837   10.3851   16.0049 H   0  0  0  0  0  0  0  0  0  0  0  0
   49.5803    6.1112   15.7399 H   0  0  0  0  0  0  0  0  0  0  0  0
   48.0562    5.9997   17.7155 H   0  0  0  0  0  0  0  0  0  0  0  0
   47.3738    8.0499   18.7981 H   0  0  0  0  0  0  0  0  0  0  0  0
   47.9340   11.4624   17.5305 H   0  0  0  0  0  0  0  0  0  0  0  0
   47.0669   10.3532   18.7024 H   0  0  0  0  0  0  0  0  0  0  0  0
   49.7259   11.5399   18.9305 H   0  0  0  0  0  0  0  0  0  0  0  0
   49.5276    9.9622   19.4722 H   0  0  0  0  0  0  0  0  0  0  0  0
   46.0573   10.3192   12.4511 H   0  0  0  0  0  0  0  0  0  0  0  0
  2  3  2  0
  3  4  1  0
  4  5  2  0
  5  6  1  0
  6  7  2  0
  2  7  1  0
  8  9  2  0
  9 10  1  0
 10  4  1  0
 11 12  2  0
 12 13  1  0
 13 14  2  0
  8 14  1  0
  9 11  1  0
 16 17  2  0
 17 18  1  0
 15 13  1  0
 18 12  1  0
  2 19  1  0
 19 20  3  0
 10 21  1  0
 21 22  1  0
 22 23  1  0
 23 24  1  0
 23 25  1  0
 24 25  1  0
 17 26  1  0
 27 28  1  0
 28 29  2  0
 29 30  1  0
 30 26  1  0
 27 26  2  0
 28 31  1  0
 31 32  1  0
 31 33  1  0
 31 34  1  0
 30 35  1  0
 37 38  1  0
 38 39  2  0
 39 40  1  0
 36 40  2  0
 36 35  1  0
 35 37  2  0
 40 41  1  0
 41 42  1  0
  1 44  1  0
  3 45  1  0
  5 46  1  0
  6 47  1  0
  7 48  1  0
  8 49  1  0
 10 50  1  6
 11 51  1  0
 14 52  1  0
 18 53  1  0
 21 54  1  0
 22 55  1  0
 22 56  1  0
 23 57  1  0
 24 58  1  0
 24 59  1  0
 25 60  1  0
 25 61  1  0
 27 62  1  0
 36 63  1  0
 37 64  1  0
 38 65  1  0
 39 66  1  0
 41 67  1  0
 41 68  1  0
 42 69  1  0
 42 70  1  0
 43 71  1  0
M  END
> <Uni-Dock RESULT> 
ENERGY=   -5.668  LOWER_BOUND=    0.000  UPPER_BOUND=    0.000
INTER + INTRA:          -5.668
INTER:                  -5.668
INTRA:                   0.000
UNBOUND:                 0.000

$$$$

     RDKit          3D

 71 73  0  0  0  0  0  0  0  0999 V2000
   46.9544    9.7325   13.3031 Cl  0  0  0  0  0  0  0  0  0  0  0  0
   44.3509   11.5963    7.4188 C   0  0  0  0  0  0  0  0  0  0  0  0
   44.0491   11.1591    8.7164 C   0  0  0  0  0  0  0  0  0  0  0  0
   44.6009   11.7258    9.8243 C   0  0  0  0  0  0  0  0  0  0  0  0
   45.4992   12.7825    9.5849 C   0  0  0  0  0  0  0  0  0  0  0  0
   45.7979   13.2137    8.3136 C   0  0  0  0  0  0  0  0  0  0  0  0
   45.2379   12.6382    7.2162 C   0  0  0  0  0  0  0  0  0  0  0  0
   44.1741    8.8378   11.1498 C   0  0  0  0  0  0  0  0  0  0  0  0
   44.8287    9.9842   11.5324 C   0  0  0  0  0  0  0  0  0  0  0  0
   44.3302   11.3602   11.2337 C   0  0  2  0  0  0  0  0  0  0  0  0
   46.0181    9.7856   12.2495 C   0  0  0  0  0  0  0  0  0  0  0  0
   46.5003    8.5353   12.5521 C   0  0  0  0  0  0  0  0  0  0  0  0
   45.8310    7.3972   12.1612 C   0  0  0  0  0  0  0  0  0  0  0  0
   44.6598    7.5606   11.4551 C   0  0  0  0  0  0  0  0  0  0  0  0
   46.2825    6.1576   12.4452 F   0  0  0  0  0  0  0  0  0  0  0  0
   49.0113    8.4180   11.4096 O   0  0  0  0  0  0  0  0  0  0  0  0
   48.9961    8.3801   12.6704 C   0  0  0  0  0  0  0  0  0  0  0  0
   47.7285    8.4378   13.2923 N   0  0  0  0  0  0  0  0  0  0  0  0
   43.7374   10.9599    6.2870 C   0  0  0  0  0  0  0  0  0  0  0  0
   43.2569   10.4322    5.3779 N   0  0  0  0  0  0  0  0  0  0  0  0
   43.0375   11.6757   11.6492 N   0  0  0  0  0  0  0  0  0  0  0  0
   41.8572   11.0513   11.2659 C   0  0  0  0  0  0  0  0  0  0  0  0
   40.6006   11.7645   11.7944 C   0  0  0  0  0  0  0  0  0  0  0  0
   40.4096   11.9395   13.2314 C   0  0  0  0  0  0  0  0  0  0  0  0
   40.8226   13.1518   12.3793 C   0  0  0  0  0  0  0  0  0  0  0  0
   50.2650    8.2824   13.3489 C   0  0  0  0  0  0  0  0  0  0  0  0
   51.4773    8.2239   12.6744 C   0  0  0  0  0  0  0  0  0  0  0  0
   52.5109    8.1346   13.5967 C   0  0  0  0  0  0  0  0  0  0  0  0
   51.9156    8.1406   14.7964 N   0  0  0  0  0  0  0  0  0  0  0  0
   50.5869    8.2279   14.6455 N   0  0  0  0  0  0  0  0  0  0  0  0
   53.9739    8.0513   13.2838 C   0  0  0  0  0  0  0  0  0  0  0  0
   54.5181    9.3160   13.1335 F   0  0  0  0  0  0  0  0  0  0  0  0
   54.5798    7.4644   14.3802 F   0  0  0  0  0  0  0  0  0  0  0  0
   54.2233    7.2552   12.1850 F   0  0  0  0  0  0  0  0  0  0  0  0
   49.7166    8.2554   15.7630 C   0  0  0  0  0  0  0  0  0  0  0  0
   49.3288    9.4499   16.3804 C   0  0  0  0  0  0  0  0  0  0  0  0
   49.2625    7.0246   16.2396 C   0  0  0  0  0  0  0  0  0  0  0  0
   48.4207    6.9440   17.3292 C   0  0  0  0  0  0  0  0  0  0  0  0
   48.0401    8.1255   17.9362 C   0  0  0  0  0  0  0  0  0  0  0  0
   48.4901    9.3599   17.4650 C   0  0  0  0  0  0  0  0  0  0  0  0
   48.0232   10.5727   18.1845 C   0  0  0  0  0  0  0  0  0  0  0  0
   49.0032   10.8386   19.2411 N   0  0  0  0  0  0  0  0  0  0  0  0
   46.9522    9.7339   13.3010 Cl  0  0  0  0  0  0  0  0  0  0  0  0
   46.0550   10.3207   12.4491 H   0  0  0  0  0  0  0  0  0  0  0  0
   43.3773   10.3457    8.7831 H   0  0  0  0  0  0  0  0  0  0  0  0
   45.9923   13.2990   10.3984 H   0  0  0  0  0  0  0  0  0  0  0  0
   46.4986   14.0373    8.1434 H   0  0  0  0  0  0  0  0  0  0  0  0
   45.4391   12.9401    6.2002 H   0  0  0  0  0  0  0  0  0  0  0  0
   43.2584    8.8453   10.5831 H   0  0  0  0  0  0  0  0  0  0  0  0
   45.0213   12.0136   11.8853 H   0  0  0  0  0  0  0  0  0  0  0  0
   46.5988   10.6541   12.5900 H   0  0  0  0  0  0  0  0  0  0  0  0
   44.1083    6.6705   11.1321 H   0  0  0  0  0  0  0  0  0  0  0  0
   47.6523    8.4098   14.3169 H   0  0  0  0  0  0  0  0  0  0  0  0
   43.0196   11.9799   12.6859 H   0  0  0  0  0  0  0  0  0  0  0  0
   41.7952   10.0562   11.8296 H   0  0  0  0  0  0  0  0  0  0  0  0
   41.7135   10.7778   10.2236 H   0  0  0  0  0  0  0  0  0  0  0  0
   39.7134   11.6238   11.1274 H   0  0  0  0  0  0  0  0  0  0  0  0
   39.3871   12.0047   13.6423 H   0  0  0  0  0  0  0  0  0  0  0  0
   41.1585   11.5625   13.9630 H   0  0  0  0  0  0  0  0  0  0  0  0
   41.8416   13.5587   12.4889 H   0  0  0  0  0  0  0  0  0  0  0  0
   40.0203   13.8984   12.1666 H   0  0  0  0  0  0  0  0  0  0  0  0
   51.6759    8.2401   11.6125 H   0  0  0  0  0  0  0  0  0  0  0  0
   49.6836   10.3852   16.0051 H   0  0  0  0  0  0  0  0  0  0  0  0
   49.5803    6.1113   15.7401 H   0  0  0  0  0  0  0  0  0  0  0  0
   48.0561    5.9997   17.7157 H   0  0  0  0  0  0  0  0  0  0  0  0
   47.3737    8.0499   18.7982 H   0  0  0  0  0  0  0  0  0  0  0  0
   47.9339   11.4625   17.5306 H   0  0  0  0  0  0  0  0  0  0  0  0
   47.0667   10.3532   18.7025 H   0  0  0  0  0  0  0  0  0  0  0  0
   49.7257   11.5400   18.9307 H   0  0  0  0  0  0  0  0  0  0  0  0
   49.5274    9.9623   19.4723 H   0  0  0  0  0  0  0  0  0  0  0  0
   46.0572   10.3192   12.4512 H   0  0  0  0  0  0  0  0  0  0  0  0
  2  3  2  0
  3  4  1  0
  4  5  2  0
  5  6  1  0
  6  7  2  0
  2  7  1  0
  8  9  2  0
  9 10  1  0
 10  4  1  0
 11 12  2  0
 12 13  1  0
 13 14  2  0
  8 14  1  0
  9 11  1  0
 16 17  2  0
 17 18  1  0
 15 13  1  0
 18 12  1  0
  2 19  1  0
 19 20  3  0
 10 21  1  0
 21 22  1  0
 22 23  1  0
 23 24  1  0
 23 25  1  0
 24 25  1  0
 17 26  1  0
 27 28  1  0
 28 29  2  0
 29 30  1  0
 30 26  1  0
 27 26  2  0
 28 31  1  0
 31 32  1  0
 31 33  1  0
 31 34  1  0
 30 35  1  0
 37 38  1  0
 38 39  2  0
 39 40  1  0
 36 40  2  0
 36 35  1  0
 35 37  2  0
 40 41  1  0
 41 42  1  0
  1 44  1  0
  3 45  1  0
  5 46  1  0
  6 47  1  0
  7 48  1  0
  8 49  1  0
 10 50  1  6
 11 51  1  0
 14 52  1  0
 18 53  1  0
 21 54  1  0
 22 55  1  0
 22 56  1  0
 23 57  1  0
 24 58  1  0
 24 59  1  0
 25 60  1  0
 25 61  1  0
 27 62  1  0
 36 63  1  0
 37 64  1  0
 38 65  1  0
 39 66  1  0
 41 67  1  0
 41 68  1  0
 42 69  1  0
 42 70  1  0
 43 71  1  0
M  END
> <Uni-Dock RESULT> 
ENERGY=   -5.662  LOWER_BOUND=    0.000  UPPER_BOUND=    0.000
INTER + INTRA:          -5.662
INTER:                  -5.662
INTRA:                   0.000
UNBOUND:                 0.000

$$$$

     RDKit          3D

 71 73  0  0  0  0  0  0  0  0999 V2000
   49.2265    9.5558   20.4239 Cl  0  0  0  0  0  0  0  0  0  0  0  0
   49.8984   14.9338   16.4867 C   0  0  0  0  0  0  0  0  0  0  0  0
   49.7120   14.4980   17.8063 C   0  0  0  0  0  0  0  0  0  0  0  0
   50.4871   13.5328   18.3726 C   0  0  0  0  0  0  0  0  0  0  0  0
   51.4917   12.9955   17.5461 C   0  0  0  0  0  0  0  0  0  0  0  0
   51.6772   13.4202   16.2512 C   0  0  0  0  0  0  0  0  0  0  0  0
   50.8953   14.3863   15.6994 C   0  0  0  0  0  0  0  0  0  0  0  0
   47.8985   12.9226   20.1631 C   0  0  0  0  0  0  0  0  0  0  0  0
   49.1059   12.2943   19.9729 C   0  0  0  0  0  0  0  0  0  0  0  0
   50.3927   13.0223   19.7596 C   0  0  2  0  0  0  0  0  0  0  0  0
   49.0646   10.8922   20.0030 C   0  0  0  0  0  0  0  0  0  0  0  0
   47.9019   10.1900   20.2082 C   0  0  0  0  0  0  0  0  0  0  0  0
   46.7007   10.8360   20.3976 C   0  0  0  0  0  0  0  0  0  0  0  0
   46.7099   12.2130   20.3731 C   0  0  0  0  0  0  0  0  0  0  0  0
   45.5444   10.1706   20.6012 F   0  0  0  0  0  0  0  0  0  0  0  0
   47.6053    8.5885   17.9785 O   0  0  0  0  0  0  0  0  0  0  0  0
   47.8080    7.9683   19.0582 C   0  0  0  0  0  0  0  0  0  0  0  0
   47.9647    8.7541   20.2222 N   0  0  0  0  0  0  0  0  0  0  0  0
   49.0494   15.9564   15.9426 C   0  0  0  0  0  0  0  0  0  0  0  0
   48.3514   16.7654   15.5020 N   0  0  0  0  0  0  0  0  0  0  0  0
   50.7628   13.9608   20.7215 N   0  0  0  0  0  0  0  0  0  0  0  0
   50.0600   15.0985   21.0978 C   0  0  0  0  0  0  0  0  0  0  0  0
   50.8426   15.9930   22.0747 C   0  0  0  0  0  0  0  0  0  0  0  0
   51.2853   15.4594   23.3597 C   0  0  0  0  0  0  0  0  0  0  0  0
   52.3190   15.6621   22.2387 C   0  0  0  0  0  0  0  0  0  0  0  0
   47.8594    6.5282   18.9992 C   0  0  0  0  0  0  0  0  0  0  0  0
   47.6910    5.8161   17.8191 C   0  0  0  0  0  0  0  0  0  0  0  0
   47.7938    4.4576   18.0851 C   0  0  0  0  0  0  0  0  0  0  0  0
   48.0195    4.3715   19.4024 N   0  0  0  0  0  0  0  0  0  0  0  0
   48.0574    5.5986   19.9396 N   0  0  0  0  0  0  0  0  0  0  0  0
   47.6734    3.3469   17.0866 C   0  0  0  0  0  0  0  0  0  0  0  0
   48.8941    3.0923   16.4836 F   0  0  0  0  0  0  0  0  0  0  0  0
   47.3148    2.2148   17.7960 F   0  0  0  0  0  0  0  0  0  0  0  0
   46.6864    3.5937   16.1548 F   0  0  0  0  0  0  0  0  0  0  0  0
   48.2846    5.7922   21.3244 C   0  0  0  0  0  0  0  0  0  0  0  0
   49.5691    5.9481   21.8575 C   0  0  0  0  0  0  0  0  0  0  0  0
   47.1606    5.8102   22.1519 C   0  0  0  0  0  0  0  0  0  0  0  0
   47.2769    5.9814   23.5155 C   0  0  0  0  0  0  0  0  0  0  0  0
   48.5467    6.1349   24.0382 C   0  0  0  0  0  0  0  0  0  0  0  0
   49.6752    6.1181   23.2168 C   0  0  0  0  0  0  0  0  0  0  0  0
   50.9959    6.2932   23.8737 C   0  0  0  0  0  0  0  0  0  0  0  0
   51.4722    4.9525   24.2250 N   0  0  0  0  0  0  0  0  0  0  0  0
   49.2275    9.5588   20.4231 Cl  0  0  0  0  0  0  0  0  0  0  0  0
   49.6284   10.8194   20.0691 H   0  0  0  0  0  0  0  0  0  0  0  0
   48.9166   14.9533   18.3330 H   0  0  0  0  0  0  0  0  0  0  0  0
   52.1606   12.2222   17.9012 H   0  0  0  0  0  0  0  0  0  0  0  0
   52.4633   12.9929   15.6207 H   0  0  0  0  0  0  0  0  0  0  0  0
   51.0011   14.7533   14.6905 H   0  0  0  0  0  0  0  0  0  0  0  0
   47.7847   13.9934   20.1504 H   0  0  0  0  0  0  0  0  0  0  0  0
   51.1680   12.1745   19.8553 H   0  0  0  0  0  0  0  0  0  0  0  0
   49.9903   10.3180   19.8584 H   0  0  0  0  0  0  0  0  0  0  0  0
   45.7667   12.7510   20.5208 H   0  0  0  0  0  0  0  0  0  0  0  0
   48.1312    8.3053   21.1318 H   0  0  0  0  0  0  0  0  0  0  0  0
   51.2585   13.4922   21.5595 H   0  0  0  0  0  0  0  0  0  0  0  0
   49.1896   14.7617   21.7618 H   0  0  0  0  0  0  0  0  0  0  0  0
   49.5911   15.7122   20.3327 H   0  0  0  0  0  0  0  0  0  0  0  0
   50.5648   17.0733   21.9858 H   0  0  0  0  0  0  0  0  0  0  0  0
   51.4128   16.1406   24.2190 H   0  0  0  0  0  0  0  0  0  0  0  0
   51.0653   14.4093   23.6549 H   0  0  0  0  0  0  0  0  0  0  0  0
   52.7539   14.7759   21.7474 H   0  0  0  0  0  0  0  0  0  0  0  0
   52.9999   16.5396   22.3517 H   0  0  0  0  0  0  0  0  0  0  0  0
   47.5076    6.1771   16.8173 H   0  0  0  0  0  0  0  0  0  0  0  0
   50.4209    5.9327   21.2126 H   0  0  0  0  0  0  0  0  0  0  0  0
   46.1736    5.6863   21.7103 H   0  0  0  0  0  0  0  0  0  0  0  0
   46.4183    5.9987   24.1762 H   0  0  0  0  0  0  0  0  0  0  0  0
   48.6271    6.2695   25.1190 H   0  0  0  0  0  0  0  0  0  0  0  0
   51.7436    6.7935   23.2272 H   0  0  0  0  0  0  0  0  0  0  0  0
   50.8654    6.8330   24.8344 H   0  0  0  0  0  0  0  0  0  0  0  0
   52.1120    4.5630   23.4839 H   0  0  0  0  0  0  0  0  0  0  0  0
   50.6636    4.2907   24.2900 H   0  0  0  0  0  0  0  0  0  0  0  0
   49.6274   10.8163   20.0700 H   0  0  0  0  0  0  0  0  0  0  0  0
  2  3  2  0
  3  4  1  0
  4  5  2  0
  5  6  1  0
  6  7  2  0
  2  7  1  0
  8  9  2  0
  9 10  1  0
 10  4  1  0
 11 12  2  0
 12 13  1  0
 13 14  2  0
  8 14  1  0
  9 11  1  0
 16 17  2  0
 17 18  1  0
 15 13  1  0
 18 12  1  0
  2 19  1  0
 19 20  3  0
 10 21  1  0
 21 22  1  0
 22 23  1  0
 23 24  1  0
 23 25  1  0
 24 25  1  0
 17 26  1  0
 27 28  1  0
 28 29  2  0
 29 30  1  0
 30 26  1  0
 27 26  2  0
 28 31  1  0
 31 32  1  0
 31 33  1  0
 31 34  1  0
 30 35  1  0
 37 38  1  0
 38 39  2  0
 39 40  1  0
 36 40  2  0
 36 35  1  0
 35 37  2  0
 40 41  1  0
 41 42  1  0
  1 44  1  0
  3 45  1  0
  5 46  1  0
  6 47  1  0
  7 48  1  0
  8 49  1  0
 10 50  1  6
 11 51  1  0
 14 52  1  0
 18 53  1  0
 21 54  1  0
 22 55  1  0
 22 56  1  0
 23 57  1  0
 24 58  1  0
 24 59  1  0
 25 60  1  0
 25 61  1  0
 27 62  1  0
 36 63  1  0
 37 64  1  0
 38 65  1  0
 39 66  1  0
 41 67  1  0
 41 68  1  0
 42 69  1  0
 42 70  1  0
 43 71  1  0
M  END
> <Uni-Dock RESULT> 
ENERGY=   -5.327  LOWER_BOUND=    7.500  UPPER_BOUND=    9.547
INTER + INTRA:          -5.327
INTER:                  -5.327
INTRA:                   0.000
UNBOUND:                 0.000

$$$$

     RDKit          3D

 71 73  0  0  0  0  0  0  0  0999 V2000
   45.4919   12.8398   12.2456 Cl  0  0  0  0  0  0  0  0  0  0  0  0
   50.1057   14.3295   16.8683 C   0  0  0  0  0  0  0  0  0  0  0  0
   49.4521   14.7870   15.7153 C   0  0  0  0  0  0  0  0  0  0  0  0
   48.0975   14.7580   15.5841 C   0  0  0  0  0  0  0  0  0  0  0  0
   47.3900   14.2360   16.6832 C   0  0  0  0  0  0  0  0  0  0  0  0
   48.0278   13.7861   17.8156 C   0  0  0  0  0  0  0  0  0  0  0  0
   49.3821   13.8223   17.9325 C   0  0  0  0  0  0  0  0  0  0  0  0
   48.7046   14.5150   12.4454 C   0  0  0  0  0  0  0  0  0  0  0  0
   47.5731   14.4023   13.2174 C   0  0  0  0  0  0  0  0  0  0  0  0
   47.3098   15.2396   14.4261 C   0  0  2  0  0  0  0  0  0  0  0  0
   46.6473   13.4391   12.7891 C   0  0  0  0  0  0  0  0  0  0  0  0
   46.8509   12.6598   11.6762 C   0  0  0  0  0  0  0  0  0  0  0  0
   47.9905   12.7864   10.9138 C   0  0  0  0  0  0  0  0  0  0  0  0
   48.9182   13.7242   11.3099 C   0  0  0  0  0  0  0  0  0  0  0  0
   48.2152   12.0339    9.8164 F   0  0  0  0  0  0  0  0  0  0  0  0
   46.7799   10.0518   12.5804 O   0  0  0  0  0  0  0  0  0  0  0  0
   45.8390   10.3736   11.8041 C   0  0  0  0  0  0  0  0  0  0  0  0
   45.8410   11.7011   11.3198 N   0  0  0  0  0  0  0  0  0  0  0  0
   51.5384   14.3851   16.9501 C   0  0  0  0  0  0  0  0  0  0  0  0
   52.6925   14.4131   17.0042 N   0  0  0  0  0  0  0  0  0  0  0  0
   47.3504   16.6237   14.2659 N   0  0  0  0  0  0  0  0  0  0  0  0
   48.4305   17.3879   13.8425 C   0  0  0  0  0  0  0  0  0  0  0  0
   48.1701   18.9012   13.9371 C   0  0  0  0  0  0  0  0  0  0  0  0
   47.0576   19.4987   13.2040 C   0  0  0  0  0  0  0  0  0  0  0  0
   46.9358   19.3133   14.7262 C   0  0  0  0  0  0  0  0  0  0  0  0
   44.8603    9.3622   11.4892 C   0  0  0  0  0  0  0  0  0  0  0  0
   44.9211    8.0712   11.9968 C   0  0  0  0  0  0  0  0  0  0  0  0
   43.8455    7.3381   11.5144 C   0  0  0  0  0  0  0  0  0  0  0  0
   43.1617    8.1853   10.7345 N   0  0  0  0  0  0  0  0  0  0  0  0
   43.7654    9.3817   10.7220 N   0  0  0  0  0  0  0  0  0  0  0  0
   43.5414    5.9033   11.8211 C   0  0  0  0  0  0  0  0  0  0  0  0
   42.8030    5.7949   12.9878 F   0  0  0  0  0  0  0  0  0  0  0  0
   42.7538    5.4359   10.7843 F   0  0  0  0  0  0  0  0  0  0  0  0
   44.6837    5.1309   11.8673 F   0  0  0  0  0  0  0  0  0  0  0  0
   43.2438   10.4646    9.9724 C   0  0  0  0  0  0  0  0  0  0  0  0
   42.3256   11.3736   10.5100 C   0  0  0  0  0  0  0  0  0  0  0  0
   43.6791   10.5856    8.6517 C   0  0  0  0  0  0  0  0  0  0  0  0
   43.2219   11.5995    7.8361 C   0  0  0  0  0  0  0  0  0  0  0  0
   42.3153   12.4949    8.3704 C   0  0  0  0  0  0  0  0  0  0  0  0
   41.8756   12.3802    9.6902 C   0  0  0  0  0  0  0  0  0  0  0  0
   40.9017   13.3931   10.1720 C   0  0  0  0  0  0  0  0  0  0  0  0
   39.5661   12.8617    9.8865 N   0  0  0  0  0  0  0  0  0  0  0  0
   45.4936   12.8417   12.2477 Cl  0  0  0  0  0  0  0  0  0  0  0  0
   46.2106   13.6356   13.1025 H   0  0  0  0  0  0  0  0  0  0  0  0
   50.0788   15.1410   14.9411 H   0  0  0  0  0  0  0  0  0  0  0  0
   46.3097   14.1685   16.6782 H   0  0  0  0  0  0  0  0  0  0  0  0
   47.4637   13.3829   18.6626 H   0  0  0  0  0  0  0  0  0  0  0  0
   49.9282   13.4825   18.7986 H   0  0  0  0  0  0  0  0  0  0  0  0
   49.5016   15.2042   12.6678 H   0  0  0  0  0  0  0  0  0  0  0  0
   46.2054   14.9971   14.6513 H   0  0  0  0  0  0  0  0  0  0  0  0
   45.7173   13.2897   13.3551 H   0  0  0  0  0  0  0  0  0  0  0  0
   49.8339   13.8442   10.7201 H   0  0  0  0  0  0  0  0  0  0  0  0
   45.1006   12.0215   10.6830 H   0  0  0  0  0  0  0  0  0  0  0  0
   46.4104   17.0055   13.8942 H   0  0  0  0  0  0  0  0  0  0  0  0
   48.5236   17.2542   12.7088 H   0  0  0  0  0  0  0  0  0  0  0  0
   49.4241   17.1616   14.2212 H   0  0  0  0  0  0  0  0  0  0  0  0
   49.1072   19.4895   14.1044 H   0  0  0  0  0  0  0  0  0  0  0  0
   47.1194   20.5527   12.8817 H   0  0  0  0  0  0  0  0  0  0  0  0
   46.3868   18.8791   12.5682 H   0  0  0  0  0  0  0  0  0  0  0  0
   46.2393   18.5530   15.1170 H   0  0  0  0  0  0  0  0  0  0  0  0
   47.0446   20.2372   15.3433 H   0  0  0  0  0  0  0  0  0  0  0  0
   45.6471    7.6263   12.6620 H   0  0  0  0  0  0  0  0  0  0  0  0
   42.0009   11.2695   11.5226 H   0  0  0  0  0  0  0  0  0  0  0  0
   44.3937    9.8644    8.2596 H   0  0  0  0  0  0  0  0  0  0  0  0
   43.5464   11.7122    6.8085 H   0  0  0  0  0  0  0  0  0  0  0  0
   41.9596   13.2935    7.7157 H   0  0  0  0  0  0  0  0  0  0  0  0
   40.9911   13.6058   11.2555 H   0  0  0  0  0  0  0  0  0  0  0  0
   40.9980   14.3191    9.5682 H   0  0  0  0  0  0  0  0  0  0  0  0
   39.1620   12.3622   10.7218 H   0  0  0  0  0  0  0  0  0  0  0  0
   39.6195   12.1514    9.1192 H   0  0  0  0  0  0  0  0  0  0  0  0
   46.2088   13.6337   13.1004 H   0  0  0  0  0  0  0  0  0  0  0  0
  2  3  2  0
  3  4  1  0
  4  5  2  0
  5  6  1  0
  6  7  2  0
  2  7  1  0
  8  9  2  0
  9 10  1  0
 10  4  1  0
 11 12  2  0
 12 13  1  0
 13 14  2  0
  8 14  1  0
  9 11  1  0
 16 17  2  0
 17 18  1  0
 15 13  1  0
 18 12  1  0
  2 19  1  0
 19 20  3  0
 10 21  1  0
 21 22  1  0
 22 23  1  0
 23 24  1  0
 23 25  1  0
 24 25  1  0
 17 26  1  0
 27 28  1  0
 28 29  2  0
 29 30  1  0
 30 26  1  0
 27 26  2  0
 28 31  1  0
 31 32  1  0
 31 33  1  0
 31 34  1  0
 30 35  1  0
 37 38  1  0
 38 39  2  0
 39 40  1  0
 36 40  2  0
 36 35  1  0
 35 37  2  0
 40 41  1  0
 41 42  1  0
  1 44  1  0
  3 45  1  0
  5 46  1  0
  6 47  1  0
  7 48  1  0
  8 49  1  0
 10 50  1  6
 11 51  1  0
 14 52  1  0
 18 53  1  0
 21 54  1  0
 22 55  1  0
 22 56  1  0
 23 57  1  0
 24 58  1  0
 24 59  1  0
 25 60  1  0
 25 61  1  0
 27 62  1  0
 36 63  1  0
 37 64  1  0
 38 65  1  0
 39 66  1  0
 41 67  1  0
 41 68  1  0
 42 69  1  0
 42 70  1  0
 43 71  1  0
M  END
> <Uni-Dock RESULT> 
ENERGY=   -5.188  LOWER_BOUND=    4.491  UPPER_BOUND=    9.120
INTER + INTRA:          -5.188
INTER:                  -5.188
INTRA:                   0.000
UNBOUND:                 0.000

$$$$

     RDKit          3D

 71 73  0  0  0  0  0  0  0  0999 V2000
   48.5732   10.9096   11.1691 Cl  0  0  0  0  0  0  0  0  0  0  0  0
   50.6641   16.5480    8.2173 C   0  0  0  0  0  0  0  0  0  0  0  0
   50.4516   15.1737    8.0382 C   0  0  0  0  0  0  0  0  0  0  0  0
   49.2849   14.5642    8.3850 C   0  0  0  0  0  0  0  0  0  0  0  0
   48.3003   15.4037    8.9390 C   0  0  0  0  0  0  0  0  0  0  0  0
   48.5053   16.7520    9.1166 C   0  0  0  0  0  0  0  0  0  0  0  0
   49.6762   17.3470    8.7643 C   0  0  0  0  0  0  0  0  0  0  0  0
   51.1129   11.9635    8.8012 C   0  0  0  0  0  0  0  0  0  0  0  0
   49.8054   12.2755    9.0874 C   0  0  0  0  0  0  0  0  0  0  0  0
   48.9491   13.1321    8.2131 C   0  0  2  0  0  0  0  0  0  0  0  0
   49.3010   11.7199   10.2728 C   0  0  0  0  0  0  0  0  0  0  0  0
   50.0557   10.9186   11.0947 C   0  0  0  0  0  0  0  0  0  0  0  0
   51.3645   10.6158   10.7922 C   0  0  0  0  0  0  0  0  0  0  0  0
   51.8876   11.1472    9.6343 C   0  0  0  0  0  0  0  0  0  0  0  0
   52.1277    9.8315   11.5819 F   0  0  0  0  0  0  0  0  0  0  0  0
   50.0753   12.1889   13.5463 O   0  0  0  0  0  0  0  0  0  0  0  0
   49.4775   11.0782   13.5252 C   0  0  0  0  0  0  0  0  0  0  0  0
   49.4463   10.3971   12.2874 N   0  0  0  0  0  0  0  0  0  0  0  0
   51.9164   17.1361    7.8322 C   0  0  0  0  0  0  0  0  0  0  0  0
   52.9327   17.6021    7.5393 N   0  0  0  0  0  0  0  0  0  0  0  0
   48.8152   12.7509    6.8790 N   0  0  0  0  0  0  0  0  0  0  0  0
   49.8287   12.6210    5.9378 C   0  0  0  0  0  0  0  0  0  0  0  0
   49.3006   12.3392    4.5206 C   0  0  0  0  0  0  0  0  0  0  0  0
   48.4842   11.1555    4.2667 C   0  0  0  0  0  0  0  0  0  0  0  0
   47.8047   12.5345    4.3197 C   0  0  0  0  0  0  0  0  0  0  0  0
   48.8888   10.6155   14.7577 C   0  0  0  0  0  0  0  0  0  0  0  0
   48.9614   11.3341   15.9437 C   0  0  0  0  0  0  0  0  0  0  0  0
   48.3042   10.6330   16.9453 C   0  0  0  0  0  0  0  0  0  0  0  0
   47.8513    9.5181   16.3575 N   0  0  0  0  0  0  0  0  0  0  0  0
   48.1993    9.5114   15.0634 N   0  0  0  0  0  0  0  0  0  0  0  0
   48.1509   11.0608   18.3731 C   0  0  0  0  0  0  0  0  0  0  0  0
   47.0418   11.8760   18.5266 F   0  0  0  0  0  0  0  0  0  0  0  0
   47.9277    9.9106   19.1086 F   0  0  0  0  0  0  0  0  0  0  0  0
   49.2948   11.6596   18.8593 F   0  0  0  0  0  0  0  0  0  0  0  0
   47.8412    8.4409   14.2075 C   0  0  0  0  0  0  0  0  0  0  0  0
   46.6462    8.4324   13.4793 C   0  0  0  0  0  0  0  0  0  0  0  0
   48.7352    7.3720   14.1258 C   0  0  0  0  0  0  0  0  0  0  0  0
   48.4728    6.2772   13.3291 C   0  0  0  0  0  0  0  0  0  0  0  0
   47.2919    6.2724   12.6117 C   0  0  0  0  0  0  0  0  0  0  0  0
   46.3933    7.3377   12.6884 C   0  0  0  0  0  0  0  0  0  0  0  0
   45.1524    7.2391   11.8778 C   0  0  0  0  0  0  0  0  0  0  0  0
   44.1486    6.5864   12.7227 N   0  0  0  0  0  0  0  0  0  0  0  0
   48.5736   10.9118   11.1666 Cl  0  0  0  0  0  0  0  0  0  0  0  0
   48.7497   11.8111   10.1492 H   0  0  0  0  0  0  0  0  0  0  0  0
   51.2634   14.6318    7.6322 H   0  0  0  0  0  0  0  0  0  0  0  0
   47.3380   15.0167    9.2485 H   0  0  0  0  0  0  0  0  0  0  0  0
   47.7297   17.3922    9.5486 H   0  0  0  0  0  0  0  0  0  0  0  0
   49.8850   18.3987    8.8827 H   0  0  0  0  0  0  0  0  0  0  0  0
   51.6286   12.3334    7.9313 H   0  0  0  0  0  0  0  0  0  0  0  0
   47.9038   12.9780    8.6743 H   0  0  0  0  0  0  0  0  0  0  0  0
   48.2629   11.9240   10.5700 H   0  0  0  0  0  0  0  0  0  0  0  0
   52.9272   10.9215    9.3712 H   0  0  0  0  0  0  0  0  0  0  0  0
   48.9748    9.4873   12.2084 H   0  0  0  0  0  0  0  0  0  0  0  0
   48.0484   11.9991    6.7586 H   0  0  0  0  0  0  0  0  0  0  0  0
   50.3829   11.6437    6.1611 H   0  0  0  0  0  0  0  0  0  0  0  0
   50.6149   13.3706    5.8948 H   0  0  0  0  0  0  0  0  0  0  0  0
   49.9815   12.7282    3.7224 H   0  0  0  0  0  0  0  0  0  0  0  0
   48.4892   10.6937    3.2641 H   0  0  0  0  0  0  0  0  0  0  0  0
   48.2340   10.4416    5.0827 H   0  0  0  0  0  0  0  0  0  0  0  0
   47.1499   12.7742    5.1739 H   0  0  0  0  0  0  0  0  0  0  0  0
   47.5034   12.9712    3.3375 H   0  0  0  0  0  0  0  0  0  0  0  0
   49.4297   12.2871   16.1437 H   0  0  0  0  0  0  0  0  0  0  0  0
   45.9709    9.2573   13.5509 H   0  0  0  0  0  0  0  0  0  0  0  0
   49.6572    7.4051   14.7033 H   0  0  0  0  0  0  0  0  0  0  0  0
   49.1524    5.4370   13.2507 H   0  0  0  0  0  0  0  0  0  0  0  0
   47.0942    5.4004   11.9844 H   0  0  0  0  0  0  0  0  0  0  0  0
   44.7697    8.2229   11.5418 H   0  0  0  0  0  0  0  0  0  0  0  0
   45.3213    6.5559   11.0199 H   0  0  0  0  0  0  0  0  0  0  0  0
   43.5384    7.2917   13.2133 H   0  0  0  0  0  0  0  0  0  0  0  0
   44.6197    6.0333   13.4766 H   0  0  0  0  0  0  0  0  0  0  0  0
   48.7493   11.8089   10.1516 H   0  0  0  0  0  0  0  0  0  0  0  0
  2  3  2  0
  3  4  1  0
  4  5  2  0
  5  6  1  0
  6  7  2  0
  2  7  1  0
  8  9  2  0
  9 10  1  0
 10  4  1  0
 11 12  2  0
 12 13  1  0
 13 14  2  0
  8 14  1  0
  9 11  1  0
 16 17  2  0
 17 18  1  0
 15 13  1  0
 18 12  1  0
  2 19  1  0
 19 20  3  0
 10 21  1  0
 21 22  1  0
 22 23  1  0
 23 24  1  0
 23 25  1  0
 24 25  1  0
 17 26  1  0
 27 28  1  0
 28 29  2  0
 29 30  1  0
 30 26  1  0
 27 26  2  0
 28 31  1  0
 31 32  1  0
 31 33  1  0
 31 34  1  0
 30 35  1  0
 37 38  1  0
 38 39  2  0
 39 40  1  0
 36 40  2  0
 36 35  1  0
 35 37  2  0
 40 41  1  0
 41 42  1  0
  1 44  1  0
  3 45  1  0
  5 46  1  0
  6 47  1  0
  7 48  1  0
  8 49  1  0
 10 50  1  6
 11 51  1  0
 14 52  1  0
 18 53  1  0
 21 54  1  0
 22 55  1  0
 22 56  1  0
 23 57  1  0
 24 58  1  0
 24 59  1  0
 25 60  1  0
 25 61  1  0
 27 62  1  0
 36 63  1  0
 37 64  1  0
 38 65  1  0
 39 66  1  0
 41 67  1  0
 41 68  1  0
 42 69  1  0
 42 70  1  0
 43 71  1  0
M  END
> <Uni-Dock RESULT> 
ENERGY=   -4.844  LOWER_BOUND=    4.533  UPPER_BOUND=    6.970
INTER + INTRA:          -4.844
INTER:                  -4.844
INTRA:                   0.000
UNBOUND:                 0.000

$$$$

     RDKit          3D

 71 73  0  0  0  0  0  0  0  0999 V2000
   48.4352   11.1753   10.6049 Cl  0  0  0  0  0  0  0  0  0  0  0  0
   54.4811   10.2456   13.3358 C   0  0  0  0  0  0  0  0  0  0  0  0
   53.5003    9.6805   12.5084 C   0  0  0  0  0  0  0  0  0  0  0  0
   52.9288   10.3663   11.4807 C   0  0  0  0  0  0  0  0  0  0  0  0
   53.3849   11.6856   11.3005 C   0  0  0  0  0  0  0  0  0  0  0  0
   54.3465   12.2432   12.1103 C   0  0  0  0  0  0  0  0  0  0  0  0
   54.9092   11.5452   13.1327 C   0  0  0  0  0  0  0  0  0  0  0  0
   50.3997    8.4693   12.0140 C   0  0  0  0  0  0  0  0  0  0  0  0
   50.6208    9.5813   11.2371 C   0  0  0  0  0  0  0  0  0  0  0  0
   51.9099    9.8564   10.5345 C   0  0  2  0  0  0  0  0  0  0  0  0
   49.5346   10.4625   11.1270 C   0  0  0  0  0  0  0  0  0  0  0  0
   48.3311   10.2357   11.7494 C   0  0  0  0  0  0  0  0  0  0  0  0
   48.1269    9.1158   12.5239 C   0  0  0  0  0  0  0  0  0  0  0  0
   49.1756    8.2320   12.6508 C   0  0  0  0  0  0  0  0  0  0  0  0
   46.9550    8.8689   13.1460 F   0  0  0  0  0  0  0  0  0  0  0  0
   47.9236   12.4234   13.3842 O   0  0  0  0  0  0  0  0  0  0  0  0
   47.1032   12.3075   12.4329 C   0  0  0  0  0  0  0  0  0  0  0  0
   47.2792   11.1993   11.5738 N   0  0  0  0  0  0  0  0  0  0  0  0
   55.0489    9.4733   14.4052 C   0  0  0  0  0  0  0  0  0  0  0  0
   55.4891    8.8553   15.2770 N   0  0  0  0  0  0  0  0  0  0  0  0
   52.3944    8.8690    9.6783 N   0  0  0  0  0  0  0  0  0  0  0  0
   52.7326    7.5630   10.0099 C   0  0  0  0  0  0  0  0  0  0  0  0
   53.3869    6.7975    8.8467 C   0  0  0  0  0  0  0  0  0  0  0  0
   52.6661    6.6242    7.5887 C   0  0  0  0  0  0  0  0  0  0  0  0
   53.8174    7.6422    7.6562 C   0  0  0  0  0  0  0  0  0  0  0  0
   46.0733   13.3103   12.3161 C   0  0  0  0  0  0  0  0  0  0  0  0
   45.9535   14.3737   13.2009 C   0  0  0  0  0  0  0  0  0  0  0  0
   44.8732   15.1612   12.8272 C   0  0  0  0  0  0  0  0  0  0  0  0
   44.3647   14.5699   11.7384 N   0  0  0  0  0  0  0  0  0  0  0  0
   45.0774   13.4752   11.4393 N   0  0  0  0  0  0  0  0  0  0  0  0
   44.4016   16.4048   13.5173 C   0  0  0  0  0  0  0  0  0  0  0  0
   45.0848   17.5158   13.0512 F   0  0  0  0  0  0  0  0  0  0  0  0
   43.0694   16.5629   13.1800 F   0  0  0  0  0  0  0  0  0  0  0  0
   44.4814   16.2964   14.8903 F   0  0  0  0  0  0  0  0  0  0  0  0
   44.7510   12.6625   10.3258 C   0  0  0  0  0  0  0  0  0  0  0  0
   45.2933   12.8819    9.0545 C   0  0  0  0  0  0  0  0  0  0  0  0
   43.8441   11.6246   10.5463 C   0  0  0  0  0  0  0  0  0  0  0  0
   43.4537   10.7845    9.5245 C   0  0  0  0  0  0  0  0  0  0  0  0
   43.9911   11.0043    8.2707 C   0  0  0  0  0  0  0  0  0  0  0  0
   44.8986   12.0401    8.0428 C   0  0  0  0  0  0  0  0  0  0  0  0
   45.4212   12.1935    6.6609 C   0  0  0  0  0  0  0  0  0  0  0  0
   44.5074   13.1029    5.9640 N   0  0  0  0  0  0  0  0  0  0  0  0
   48.4383   11.1742   10.6050 Cl  0  0  0  0  0  0  0  0  0  0  0  0
   49.7377   10.7480   10.6745 H   0  0  0  0  0  0  0  0  0  0  0  0
   53.2156    8.6899   12.7429 H   0  0  0  0  0  0  0  0  0  0  0  0
   52.9930   12.3152   10.5121 H   0  0  0  0  0  0  0  0  0  0  0  0
   54.6914   13.2708   11.9574 H   0  0  0  0  0  0  0  0  0  0  0  0
   55.6659   11.9371   13.7942 H   0  0  0  0  0  0  0  0  0  0  0  0
   51.1512    7.7193   12.1940 H   0  0  0  0  0  0  0  0  0  0  0  0
   51.6260   10.7363    9.8458 H   0  0  0  0  0  0  0  0  0  0  0  0
   49.6342   11.3749   10.5227 H   0  0  0  0  0  0  0  0  0  0  0  0
   49.0386    7.3329   13.2623 H   0  0  0  0  0  0  0  0  0  0  0  0
   46.6413   11.0514   10.7816 H   0  0  0  0  0  0  0  0  0  0  0  0
   51.9388    8.9363    8.7007 H   0  0  0  0  0  0  0  0  0  0  0  0
   51.7572    6.9757   10.1347 H   0  0  0  0  0  0  0  0  0  0  0  0
   53.2798    7.3717   10.9296 H   0  0  0  0  0  0  0  0  0  0  0  0
   54.0946    6.0049    9.1972 H   0  0  0  0  0  0  0  0  0  0  0  0
   52.8779    5.7457    6.9547 H   0  0  0  0  0  0  0  0  0  0  0  0
   51.6413    7.0348    7.4498 H   0  0  0  0  0  0  0  0  0  0  0  0
   53.5808    8.7185    7.6164 H   0  0  0  0  0  0  0  0  0  0  0  0
   54.7733    7.3353    7.1681 H   0  0  0  0  0  0  0  0  0  0  0  0
   46.5560   14.6240   14.0622 H   0  0  0  0  0  0  0  0  0  0  0  0
   45.9867   13.6799    8.8998 H   0  0  0  0  0  0  0  0  0  0  0  0
   43.4379   11.4770   11.5452 H   0  0  0  0  0  0  0  0  0  0  0  0
   42.7515    9.9729    9.6732 H   0  0  0  0  0  0  0  0  0  0  0  0
   43.6748   10.3334    7.4690 H   0  0  0  0  0  0  0  0  0  0  0  0
   46.4497   12.6035    6.6246 H   0  0  0  0  0  0  0  0  0  0  0  0
   45.3531   11.2231    6.1271 H   0  0  0  0  0  0  0  0  0  0  0  0
   44.8534   14.0977    5.9954 H   0  0  0  0  0  0  0  0  0  0  0  0
   43.5731   13.1036    6.4366 H   0  0  0  0  0  0  0  0  0  0  0  0
   49.7346   10.7490   10.6743 H   0  0  0  0  0  0  0  0  0  0  0  0
  2  3  2  0
  3  4  1  0
  4  5  2  0
  5  6  1  0
  6  7  2  0
  2  7  1  0
  8  9  2  0
  9 10  1  0
 10  4  1  0
 11 12  2  0
 12 13  1  0
 13 14  2  0
  8 14  1  0
  9 11  1  0
 16 17  2  0
 17 18  1  0
 15 13  1  0
 18 12  1  0
  2 19  1  0
 19 20  3  0
 10 21  1  0
 21 22  1  0
 22 23  1  0
 23 24  1  0
 23 25  1  0
 24 25  1  0
 17 26  1  0
 27 28  1  0
 28 29  2  0
 29 30  1  0
 30 26  1  0
 27 26  2  0
 28 31  1  0
 31 32  1  0
 31 33  1  0
 31 34  1  0
 30 35  1  0
 37 38  1  0
 38 39  2  0
 39 40  1  0
 36 40  2  0
 36 35  1  0
 35 37  2  0
 40 41  1  0
 41 42  1  0
  1 44  1  0
  3 45  1  0
  5 46  1  0
  6 47  1  0
  7 48  1  0
  8 49  1  0
 10 50  1  6
 11 51  1  0
 14 52  1  0
 18 53  1  0
 21 54  1  0
 22 55  1  0
 22 56  1  0
 23 57  1  0
 24 58  1  0
 24 59  1  0
 25 60  1  0
 25 61  1  0
 27 62  1  0
 36 63  1  0
 37 64  1  0
 38 65  1  0
 39 66  1  0
 41 67  1  0
 41 68  1  0
 42 69  1  0
 42 70  1  0
 43 71  1  0
M  END
> <Uni-Dock RESULT> 
ENERGY=   -4.751  LOWER_BOUND=    4.198  UPPER_BOUND=    9.886
INTER + INTRA:          -4.751
INTER:                  -4.751
INTRA:                   0.000
UNBOUND:                 0.000

$$$$

     RDKit          3D

 71 73  0  0  0  0  0  0  0  0999 V2000
   51.0267    6.6013   16.3605 Cl  0  0  0  0  0  0  0  0  0  0  0  0
   48.0576   10.8579   12.1248 C   0  0  0  0  0  0  0  0  0  0  0  0
   49.2467   10.1727   12.4121 C   0  0  0  0  0  0  0  0  0  0  0  0
   49.2734    8.8386   12.6816 C   0  0  0  0  0  0  0  0  0  0  0  0
   48.0263    8.1867   12.6553 C   0  0  0  0  0  0  0  0  0  0  0  0
   46.8580    8.8556   12.3742 C   0  0  0  0  0  0  0  0  0  0  0  0
   46.8471   10.1887   12.1059 C   0  0  0  0  0  0  0  0  0  0  0  0
   51.8773    9.5434   14.4143 C   0  0  0  0  0  0  0  0  0  0  0  0
   51.0974    8.4218   14.2634 C   0  0  0  0  0  0  0  0  0  0  0  0
   50.4720    8.0174   12.9685 C   0  0  2  0  0  0  0  0  0  0  0  0
   50.9260    7.6493   15.4219 C   0  0  0  0  0  0  0  0  0  0  0  0
   51.4954    7.9844   16.6263 C   0  0  0  0  0  0  0  0  0  0  0  0
   52.2747    9.1119   16.7594 C   0  0  0  0  0  0  0  0  0  0  0  0
   52.4609    9.8906   15.6387 C   0  0  0  0  0  0  0  0  0  0  0  0
   52.8456    9.4638   17.9304 F   0  0  0  0  0  0  0  0  0  0  0  0
   49.3864    8.2580   18.3875 O   0  0  0  0  0  0  0  0  0  0  0  0
   50.1677    7.2989   18.6349 C   0  0  0  0  0  0  0  0  0  0  0  0
   51.2602    7.1265   17.7552 N   0  0  0  0  0  0  0  0  0  0  0  0
   48.0909   12.2667   11.8477 C   0  0  0  0  0  0  0  0  0  0  0  0
   48.1193   13.4041   11.6448 N   0  0  0  0  0  0  0  0  0  0  0  0
   51.3169    7.8680   11.8700 N   0  0  0  0  0  0  0  0  0  0  0  0
   52.1266    8.8400   11.2960 C   0  0  0  0  0  0  0  0  0  0  0  0
   52.8027    8.3689    9.9968 C   0  0  0  0  0  0  0  0  0  0  0  0
   53.6783    7.2005   10.0106 C   0  0  0  0  0  0  0  0  0  0  0  0
   52.2701    7.0719    9.4051 C   0  0  0  0  0  0  0  0  0  0  0  0
   49.8716    6.4783   19.7832 C   0  0  0  0  0  0  0  0  0  0  0  0
   48.7811    6.7073   20.6117 C   0  0  0  0  0  0  0  0  0  0  0  0
   48.7654    5.7556   21.6221 C   0  0  0  0  0  0  0  0  0  0  0  0
   49.8309    4.9778   21.3915 N   0  0  0  0  0  0  0  0  0  0  0  0
   50.4829    5.4087   20.3029 N   0  0  0  0  0  0  0  0  0  0  0  0
   47.7551    5.6480   22.7234 C   0  0  0  0  0  0  0  0  0  0  0  0
   46.6590    4.9062   22.3154 F   0  0  0  0  0  0  0  0  0  0  0  0
   48.3660    4.9567   23.7541 F   0  0  0  0  0  0  0  0  0  0  0  0
   47.3819    6.8856   23.2057 F   0  0  0  0  0  0  0  0  0  0  0  0
   51.6510    4.7579   19.8353 C   0  0  0  0  0  0  0  0  0  0  0  0
   51.6042    3.7100   18.9090 C   0  0  0  0  0  0  0  0  0  0  0  0
   52.8699    5.2014   20.3513 C   0  0  0  0  0  0  0  0  0  0  0  0
   54.0629    4.6253   19.9678 C   0  0  0  0  0  0  0  0  0  0  0  0
   54.0126    3.5910   19.0530 C   0  0  0  0  0  0  0  0  0  0  0  0
   52.7975    3.1423   18.5328 C   0  0  0  0  0  0  0  0  0  0  0  0
   52.8486    2.0261   17.5541 C   0  0  0  0  0  0  0  0  0  0  0  0
   52.7529    0.7844   18.3266 N   0  0  0  0  0  0  0  0  0  0  0  0
   51.0260    6.6027   16.3576 Cl  0  0  0  0  0  0  0  0  0  0  0  0
   50.7340    7.1826   15.1520 H   0  0  0  0  0  0  0  0  0  0  0  0
   50.1248   10.7609   12.4254 H   0  0  0  0  0  0  0  0  0  0  0  0
   47.9395    7.1267   12.8569 H   0  0  0  0  0  0  0  0  0  0  0  0
   45.8955    8.3346   12.3571 H   0  0  0  0  0  0  0  0  0  0  0  0
   45.9588   10.7574   11.8796 H   0  0  0  0  0  0  0  0  0  0  0  0
   52.0793   10.2313   13.6107 H   0  0  0  0  0  0  0  0  0  0  0  0
   50.0971    6.9529   13.2042 H   0  0  0  0  0  0  0  0  0  0  0  0
   50.3149    6.7369   15.3812 H   0  0  0  0  0  0  0  0  0  0  0  0
   53.0767   10.7935   15.7184 H   0  0  0  0  0  0  0  0  0  0  0  0
   51.9314    6.3629   17.9062 H   0  0  0  0  0  0  0  0  0  0  0  0
   51.7813    6.8924   11.8593 H   0  0  0  0  0  0  0  0  0  0  0  0
   53.0371    8.9761   11.9774 H   0  0  0  0  0  0  0  0  0  0  0  0
   51.7382    9.8468   11.1640 H   0  0  0  0  0  0  0  0  0  0  0  0
   53.0078    9.2107    9.2887 H   0  0  0  0  0  0  0  0  0  0  0  0
   54.4953    7.1218    9.2724 H   0  0  0  0  0  0  0  0  0  0  0  0
   53.8735    6.6371   10.9501 H   0  0  0  0  0  0  0  0  0  0  0  0
   51.5104    6.4798    9.9421 H   0  0  0  0  0  0  0  0  0  0  0  0
   52.2164    7.0369    8.2905 H   0  0  0  0  0  0  0  0  0  0  0  0
   48.0212    7.4733   20.5538 H   0  0  0  0  0  0  0  0  0  0  0  0
   50.6644    3.3806   18.5218 H   0  0  0  0  0  0  0  0  0  0  0  0
   52.8768    6.0182   21.0706 H   0  0  0  0  0  0  0  0  0  0  0  0
   55.0200    4.9537   20.3552 H   0  0  0  0  0  0  0  0  0  0  0  0
   54.9631    3.1420   18.7567 H   0  0  0  0  0  0  0  0  0  0  0  0
   52.0310    2.0608   16.8073 H   0  0  0  0  0  0  0  0  0  0  0  0
   53.8440    2.0056   17.0641 H   0  0  0  0  0  0  0  0  0  0  0  0
   51.7598    0.4355   18.3763 H   0  0  0  0  0  0  0  0  0  0  0  0
   53.0529    0.9536   19.3153 H   0  0  0  0  0  0  0  0  0  0  0  0
   50.7347    7.1812   15.1549 H   0  0  0  0  0  0  0  0  0  0  0  0
  2  3  2  0
  3  4  1  0
  4  5  2  0
  5  6  1  0
  6  7  2  0
  2  7  1  0
  8  9  2  0
  9 10  1  0
 10  4  1  0
 11 12  2  0
 12 13  1  0
 13 14  2  0
  8 14  1  0
  9 11  1  0
 16 17  2  0
 17 18  1  0
 15 13  1  0
 18 12  1  0
  2 19  1  0
 19 20  3  0
 10 21  1  0
 21 22  1  0
 22 23  1  0
 23 24  1  0
 23 25  1  0
 24 25  1  0
 17 26  1  0
 27 28  1  0
 28 29  2  0
 29 30  1  0
 30 26  1  0
 27 26  2  0
 28 31  1  0
 31 32  1  0
 31 33  1  0
 31 34  1  0
 30 35  1  0
 37 38  1  0
 38 39  2  0
 39 40  1  0
 36 40  2  0
 36 35  1  0
 35 37  2  0
 40 41  1  0
 41 42  1  0
  1 44  1  0
  3 45  1  0
  5 46  1  0
  6 47  1  0
  7 48  1  0
  8 49  1  0
 10 50  1  6
 11 51  1  0
 14 52  1  0
 18 53  1  0
 21 54  1  0
 22 55  1  0
 22 56  1  0
 23 57  1  0
 24 58  1  0
 24 59  1  0
 25 60  1  0
 25 61  1  0
 27 62  1  0
 36 63  1  0
 37 64  1  0
 38 65  1  0
 39 66  1  0
 41 67  1  0
 41 68  1  0
 42 69  1  0
 42 70  1  0
 43 71  1  0
M  END
> <Uni-Dock RESULT> 
ENERGY=   -4.568  LOWER_BOUND=    4.976  UPPER_BOUND=    8.558
INTER + INTRA:          -4.568
INTER:                  -4.568
INTRA:                   0.000
UNBOUND:                 0.000

$$$$

     RDKit          3D

 71 73  0  0  0  0  0  0  0  0999 V2000
   51.3464    7.0339   18.6847 Cl  0  0  0  0  0  0  0  0  0  0  0  0
   47.5520    8.9041   13.4904 C   0  0  0  0  0  0  0  0  0  0  0  0
   47.8574    9.1596   14.8348 C   0  0  0  0  0  0  0  0  0  0  0  0
   49.1366    9.2991   15.2789 C   0  0  0  0  0  0  0  0  0  0  0  0
   50.1391    9.1687   14.2996 C   0  0  0  0  0  0  0  0  0  0  0  0
   49.8433    8.9178   12.9801 C   0  0  0  0  0  0  0  0  0  0  0  0
   48.5601    8.7818   12.5511 C   0  0  0  0  0  0  0  0  0  0  0  0
   47.9726    8.2166   18.0632 C   0  0  0  0  0  0  0  0  0  0  0  0
   49.2354    8.4619   17.5793 C   0  0  0  0  0  0  0  0  0  0  0  0
   49.5650    9.5963   16.6651 C   0  0  2  0  0  0  0  0  0  0  0  0
   50.2283    7.5704   18.0129 C   0  0  0  0  0  0  0  0  0  0  0  0
   49.9638    6.5236   18.8622 C   0  0  0  0  0  0  0  0  0  0  0  0
   48.6924    6.2928   19.3379 C   0  0  0  0  0  0  0  0  0  0  0  0
   47.6963    7.1517   18.9293 C   0  0  0  0  0  0  0  0  0  0  0  0
   48.4054    5.2723   20.1729 F   0  0  0  0  0  0  0  0  0  0  0  0
   50.7290    4.2519   17.4917 O   0  0  0  0  0  0  0  0  0  0  0  0
   51.4125    4.5107   18.5199 C   0  0  0  0  0  0  0  0  0  0  0  0
   51.0508    5.6663   19.2486 N   0  0  0  0  0  0  0  0  0  0  0  0
   46.1827    8.7666   13.0798 C   0  0  0  0  0  0  0  0  0  0  0  0
   45.0806    8.6370   12.7569 N   0  0  0  0  0  0  0  0  0  0  0  0
   49.2201   10.8789   17.0883 N   0  0  0  0  0  0  0  0  0  0  0  0
   47.9478   11.3505   17.3858 C   0  0  0  0  0  0  0  0  0  0  0  0
   47.9173   12.8630   17.6657 C   0  0  0  0  0  0  0  0  0  0  0  0
   48.7196   13.4219   18.7502 C   0  0  0  0  0  0  0  0  0  0  0  0
   49.1785   13.6308   17.2969 C   0  0  0  0  0  0  0  0  0  0  0  0
   52.4883    3.6084   18.8488 C   0  0  0  0  0  0  0  0  0  0  0  0
   52.7871    2.4843   18.0903 C   0  0  0  0  0  0  0  0  0  0  0  0
   53.8673    1.8225   18.6579 C   0  0  0  0  0  0  0  0  0  0  0  0
   54.1995    2.5466   19.7344 N   0  0  0  0  0  0  0  0  0  0  0  0
   53.3812    3.6022   19.8440 N   0  0  0  0  0  0  0  0  0  0  0  0
   54.5043    0.5655   18.1486 C   0  0  0  0  0  0  0  0  0  0  0  0
   55.4683    0.8527   17.1965 F   0  0  0  0  0  0  0  0  0  0  0  0
   55.1445   -0.0181   19.2271 F   0  0  0  0  0  0  0  0  0  0  0  0
   53.5703   -0.3319   17.6736 F   0  0  0  0  0  0  0  0  0  0  0  0
   53.5172    4.5359   20.9007 C   0  0  0  0  0  0  0  0  0  0  0  0
   54.3263    5.6728   20.7954 C   0  0  0  0  0  0  0  0  0  0  0  0
   52.8106    4.2680   22.0743 C   0  0  0  0  0  0  0  0  0  0  0  0
   52.8853    5.1100   23.1642 C   0  0  0  0  0  0  0  0  0  0  0  0
   53.6853    6.2314   23.0565 C   0  0  0  0  0  0  0  0  0  0  0  0
   54.3946    6.5057   21.8860 C   0  0  0  0  0  0  0  0  0  0  0  0
   55.2255    7.7369   21.8682 C   0  0  0  0  0  0  0  0  0  0  0  0
   56.5548    7.3545   22.3522 N   0  0  0  0  0  0  0  0  0  0  0  0
   51.3448    7.0360   18.6828 Cl  0  0  0  0  0  0  0  0  0  0  0  0
   50.6713    7.8990   17.8602 H   0  0  0  0  0  0  0  0  0  0  0  0
   47.0308    9.2194   15.4910 H   0  0  0  0  0  0  0  0  0  0  0  0
   51.1880    9.2616   14.5502 H   0  0  0  0  0  0  0  0  0  0  0  0
   50.6341    8.8193   12.2298 H   0  0  0  0  0  0  0  0  0  0  0  0
   48.2770    8.5854   11.5288 H   0  0  0  0  0  0  0  0  0  0  0  0
   47.1162    8.8142   17.8005 H   0  0  0  0  0  0  0  0  0  0  0  0
   50.7177    9.5806   16.6675 H   0  0  0  0  0  0  0  0  0  0  0  0
   51.2637    7.7010   17.6687 H   0  0  0  0  0  0  0  0  0  0  0  0
   46.6755    6.9894   19.2935 H   0  0  0  0  0  0  0  0  0  0  0  0
   51.5702    5.9281   20.0960 H   0  0  0  0  0  0  0  0  0  0  0  0
   49.9721   11.2932   17.7445 H   0  0  0  0  0  0  0  0  0  0  0  0
   47.6574   10.9339   18.4125 H   0  0  0  0  0  0  0  0  0  0  0  0
   47.1151   11.0791   16.7417 H   0  0  0  0  0  0  0  0  0  0  0  0
   46.9355   13.3299   17.4011 H   0  0  0  0  0  0  0  0  0  0  0  0
   48.3873   14.3456   19.2551 H   0  0  0  0  0  0  0  0  0  0  0  0
   49.3583   12.7722   19.3891 H   0  0  0  0  0  0  0  0  0  0  0  0
   50.0755   13.0986   16.9389 H   0  0  0  0  0  0  0  0  0  0  0  0
   49.0152   14.6503   16.8723 H   0  0  0  0  0  0  0  0  0  0  0  0
   52.3118    2.1121   17.1942 H   0  0  0  0  0  0  0  0  0  0  0  0
   54.8615    5.8660   19.8911 H   0  0  0  0  0  0  0  0  0  0  0  0
   52.1889    3.3763   22.1285 H   0  0  0  0  0  0  0  0  0  0  0  0
   52.3455    4.9215   24.0845 H   0  0  0  0  0  0  0  0  0  0  0  0
   53.7374    6.8909   23.9255 H   0  0  0  0  0  0  0  0  0  0  0  0
   55.3149    8.1902   20.8614 H   0  0  0  0  0  0  0  0  0  0  0  0
   54.8288    8.4645   22.6061 H   0  0  0  0  0  0  0  0  0  0  0  0
   57.2088    7.1372   21.5550 H   0  0  0  0  0  0  0  0  0  0  0  0
   56.4901    6.4796   22.9236 H   0  0  0  0  0  0  0  0  0  0  0  0
   50.6730    7.8969   17.8621 H   0  0  0  0  0  0  0  0  0  0  0  0
  2  3  2  0
  3  4  1  0
  4  5  2  0
  5  6  1  0
  6  7  2  0
  2  7  1  0
  8  9  2  0
  9 10  1  0
 10  4  1  0
 11 12  2  0
 12 13  1  0
 13 14  2  0
  8 14  1  0
  9 11  1  0
 16 17  2  0
 17 18  1  0
 15 13  1  0
 18 12  1  0
  2 19  1  0
 19 20  3  0
 10 21  1  0
 21 22  1  0
 22 23  1  0
 23 24  1  0
 23 25  1  0
 24 25  1  0
 17 26  1  0
 27 28  1  0
 28 29  2  0
 29 30  1  0
 30 26  1  0
 27 26  2  0
 28 31  1  0
 31 32  1  0
 31 33  1  0
 31 34  1  0
 30 35  1  0
 37 38  1  0
 38 39  2  0
 39 40  1  0
 36 40  2  0
 36 35  1  0
 35 37  2  0
 40 41  1  0
 41 42  1  0
  1 44  1  0
  3 45  1  0
  5 46  1  0
  6 47  1  0
  7 48  1  0
  8 49  1  0
 10 50  1  6
 11 51  1  0
 14 52  1  0
 18 53  1  0
 21 54  1  0
 22 55  1  0
 22 56  1  0
 23 57  1  0
 24 58  1  0
 24 59  1  0
 25 60  1  0
 25 61  1  0
 27 62  1  0
 36 63  1  0
 37 64  1  0
 38 65  1  0
 39 66  1  0
 41 67  1  0
 41 68  1  0
 42 69  1  0
 42 70  1  0
 43 71  1  0
M  END
> <Uni-Dock RESULT> 
ENERGY=   -4.476  LOWER_BOUND=    5.526  UPPER_BOUND=    8.049
INTER + INTRA:          -4.476
INTER:                  -4.476
INTRA:                   0.000
UNBOUND:                 0.000

$$$$

     RDKit          3D

 71 73  0  0  0  0  0  0  0  0999 V2000
   50.5396    7.7834   15.2553 Cl  0  0  0  0  0  0  0  0  0  0  0  0
   52.5031   12.2713   10.6859 C   0  0  0  0  0  0  0  0  0  0  0  0
   52.7251   10.9833   11.1935 C   0  0  0  0  0  0  0  0  0  0  0  0
   51.7142   10.0944   11.3960 C   0  0  0  0  0  0  0  0  0  0  0  0
   50.4252   10.5517   11.0638 C   0  0  0  0  0  0  0  0  0  0  0  0
   50.2037   11.8145   10.5660 C   0  0  0  0  0  0  0  0  0  0  0  0
   51.2240   12.6913   10.3682 C   0  0  0  0  0  0  0  0  0  0  0  0
   53.6139    8.9111   13.6917 C   0  0  0  0  0  0  0  0  0  0  0  0
   52.3090    8.6958   13.3177 C   0  0  0  0  0  0  0  0  0  0  0  0
   51.8427    8.7073   11.8986 C   0  0  2  0  0  0  0  0  0  0  0  0
   51.4160    8.4457   14.3705 C   0  0  0  0  0  0  0  0  0  0  0  0
   51.8116    8.4161   15.6857 C   0  0  0  0  0  0  0  0  0  0  0  0
   53.1236    8.6335   16.0425 C   0  0  0  0  0  0  0  0  0  0  0  0
   54.0238    8.8820   15.0301 C   0  0  0  0  0  0  0  0  0  0  0  0
   53.5387    8.6099   17.3263 F   0  0  0  0  0  0  0  0  0  0  0  0
   50.3073   10.3552   16.9511 O   0  0  0  0  0  0  0  0  0  0  0  0
   50.0690    9.1716   17.3167 C   0  0  0  0  0  0  0  0  0  0  0  0
   50.8197    8.1505   16.6914 N   0  0  0  0  0  0  0  0  0  0  0  0
   53.6095   13.1664   10.4929 C   0  0  0  0  0  0  0  0  0  0  0  0
   54.4999   13.8907   10.3577 N   0  0  0  0  0  0  0  0  0  0  0  0
   52.4888    7.8527   11.0068 N   0  0  0  0  0  0  0  0  0  0  0  0
   53.8375    7.8515   10.6737 C   0  0  0  0  0  0  0  0  0  0  0  0
   54.1742    6.8752    9.5334 C   0  0  0  0  0  0  0  0  0  0  0  0
   53.8873    5.4512    9.6817 C   0  0  0  0  0  0  0  0  0  0  0  0
   52.9839    6.3051    8.7757 C   0  0  0  0  0  0  0  0  0  0  0  0
   49.0611    8.9778   18.3297 C   0  0  0  0  0  0  0  0  0  0  0  0
   48.3627   10.0292   18.9084 C   0  0  0  0  0  0  0  0  0  0  0  0
   47.4676    9.5258   19.8423 C   0  0  0  0  0  0  0  0  0  0  0  0
   47.6366    8.1976   19.8136 N   0  0  0  0  0  0  0  0  0  0  0  0
   48.5803    7.8773   18.9176 N   0  0  0  0  0  0  0  0  0  0  0  0
   46.5243   10.3262   20.6876 C   0  0  0  0  0  0  0  0  0  0  0  0
   45.3386   10.5640   20.0124 F   0  0  0  0  0  0  0  0  0  0  0  0
   46.2261    9.5484   21.7920 F   0  0  0  0  0  0  0  0  0  0  0  0
   47.0988   11.4975   21.1366 F   0  0  0  0  0  0  0  0  0  0  0  0
   48.9533    6.5304   18.6869 C   0  0  0  0  0  0  0  0  0  0  0  0
   48.3253    5.7344   17.7223 C   0  0  0  0  0  0  0  0  0  0  0  0
   49.9804    6.0154   19.4796 C   0  0  0  0  0  0  0  0  0  0  0  0
   50.4091    4.7119   19.3399 C   0  0  0  0  0  0  0  0  0  0  0  0
   49.7866    3.9292   18.3865 C   0  0  0  0  0  0  0  0  0  0  0  0
   48.7589    4.4374   17.5902 C   0  0  0  0  0  0  0  0  0  0  0  0
   48.1545    3.5175   16.5928 C   0  0  0  0  0  0  0  0  0  0  0  0
   47.0383    2.8447   17.2630 N   0  0  0  0  0  0  0  0  0  0  0  0
   50.5407    7.7845   15.2523 Cl  0  0  0  0  0  0  0  0  0  0  0  0
   50.9980    8.2335   14.0422 H   0  0  0  0  0  0  0  0  0  0  0  0
   53.7285   10.7482   11.4287 H   0  0  0  0  0  0  0  0  0  0  0  0
   49.5536    9.9221   11.1888 H   0  0  0  0  0  0  0  0  0  0  0  0
   49.1952   12.1558   10.3119 H   0  0  0  0  0  0  0  0  0  0  0  0
   51.1021   13.6906    9.9804 H   0  0  0  0  0  0  0  0  0  0  0  0
   54.3991    9.1275   12.9872 H   0  0  0  0  0  0  0  0  0  0  0  0
   50.7731    8.2874   11.9931 H   0  0  0  0  0  0  0  0  0  0  0  0
   50.3546    8.2643   14.1513 H   0  0  0  0  0  0  0  0  0  0  0  0
   55.0742    9.0586   15.2878 H   0  0  0  0  0  0  0  0  0  0  0  0
   50.6707    7.1665   16.9484 H   0  0  0  0  0  0  0  0  0  0  0  0
   52.0788    6.8539   11.0504 H   0  0  0  0  0  0  0  0  0  0  0  0
   54.4068    7.3726   11.5446 H   0  0  0  0  0  0  0  0  0  0  0  0
   54.3463    8.7980   10.5095 H   0  0  0  0  0  0  0  0  0  0  0  0
   55.0568    7.2060    8.9303 H   0  0  0  0  0  0  0  0  0  0  0  0
   54.5004    4.7113    9.1383 H   0  0  0  0  0  0  0  0  0  0  0  0
   53.4280    5.0492   10.6121 H   0  0  0  0  0  0  0  0  0  0  0  0
   51.9535    6.5229    9.1025 H   0  0  0  0  0  0  0  0  0  0  0  0
   53.1292    6.1765    7.6763 H   0  0  0  0  0  0  0  0  0  0  0  0
   48.4383   11.0910   18.7226 H   0  0  0  0  0  0  0  0  0  0  0  0
   47.5406    6.1414   17.1221 H   0  0  0  0  0  0  0  0  0  0  0  0
   50.4511    6.6569   20.2222 H   0  0  0  0  0  0  0  0  0  0  0  0
   51.2043    4.2918   19.9441 H   0  0  0  0  0  0  0  0  0  0  0  0
   50.1337    2.8986   18.2846 H   0  0  0  0  0  0  0  0  0  0  0  0
   47.7833    4.0364   15.6871 H   0  0  0  0  0  0  0  0  0  0  0  0
   48.8811    2.7200   16.3333 H   0  0  0  0  0  0  0  0  0  0  0  0
   46.1237    3.3334   17.0758 H   0  0  0  0  0  0  0  0  0  0  0  0
   47.1758    2.8698   18.3006 H   0  0  0  0  0  0  0  0  0  0  0  0
   50.9969    8.2324   14.0452 H   0  0  0  0  0  0  0  0  0  0  0  0
  2  3  2  0
  3  4  1  0
  4  5  2  0
  5  6  1  0
  6  7  2  0
  2  7  1  0
  8  9  2  0
  9 10  1  0
 10  4  1  0
 11 12  2  0
 12 13  1  0
 13 14  2  0
  8 14  1  0
  9 11  1  0
 16 17  2  0
 17 18  1  0
 15 13  1  0
 18 12  1  0
  2 19  1  0
 19 20  3  0
 10 21  1  0
 21 22  1  0
 22 23  1  0
 23 24  1  0
 23 25  1  0
 24 25  1  0
 17 26  1  0
 27 28  1  0
 28 29  2  0
 29 30  1  0
 30 26  1  0
 27 26  2  0
 28 31  1  0
 31 32  1  0
 31 33  1  0
 31 34  1  0
 30 35  1  0
 37 38  1  0
 38 39  2  0
 39 40  1  0
 36 40  2  0
 36 35  1  0
 35 37  2  0
 40 41  1  0
 41 42  1  0
  1 44  1  0
  3 45  1  0
  5 46  1  0
  6 47  1  0
  7 48  1  0
  8 49  1  0
 10 50  1  6
 11 51  1  0
 14 52  1  0
 18 53  1  0
 21 54  1  0
 22 55  1  0
 22 56  1  0
 23 57  1  0
 24 58  1  0
 24 59  1  0
 25 60  1  0
 25 61  1  0
 27 62  1  0
 36 63  1  0
 37 64  1  0
 38 65  1  0
 39 66  1  0
 41 67  1  0
 41 68  1  0
 42 69  1  0
 42 70  1  0
 43 71  1  0
M  END
> <Uni-Dock RESULT> 
ENERGY=   -4.373  LOWER_BOUND=    5.601  UPPER_BOUND=    8.556
INTER + INTRA:          -4.373
INTER:                  -4.373
INTRA:                   0.000
UNBOUND:                 0.000

$$$$
