
     RDKit          3D

 43 42  0  0  0  0  0  0  0  0999 V2000
   -0.8236   -0.1753   -0.9980 C   0  0  0  0  0  0  0  0  0  0  0  0
   -3.1383    0.5628   -0.5897 N   0  0  0  0  0  0  0  0  0  0  0  0
    0.6166   -0.1557   -0.5395 C   0  0  0  0  0  0  0  0  0  0  0  0
   -1.8047    0.4469    0.0173 C   0  0  1  0  0  0  0  0  0  0  0  0
    1.3462    1.0413   -0.5363 C   0  0  0  0  0  0  0  0  0  0  0  0
    1.2413   -1.3327   -0.1054 C   0  0  0  0  0  0  0  0  0  0  0  0
   -1.9258   -0.3870    1.2933 C   0  0  0  0  0  0  0  0  0  0  0  0
    2.6735    1.0600   -0.1050 C   0  0  0  0  0  0  0  0  0  0  0  0
    2.5686   -1.3118    0.3258 C   0  0  0  0  0  0  0  0  0  0  0  0
    3.2840   -0.1160    0.3264 C   0  0  0  0  0  0  0  0  0  0  0  0
    3.1155   -0.1452   -0.2958 C   0  0  0  0  0  0  0  0  0  0  0  0
   -3.1845   -0.0391    0.1182 C   0  0  0  0  0  0  0  0  0  0  0  0
    3.3022   -1.2445   -0.7873 O   0  0  0  0  0  0  0  0  0  0  0  0
   -3.8907    0.6108   -0.6337 O   0  0  0  0  0  0  0  0  0  0  0  0
   -3.5193   -0.2029    1.4115 O   0  0  0  0  0  0  0  0  0  0  0  0
    4.1547    0.6638   -0.0101 O   0  0  0  0  0  0  0  0  0  0  0  0
   -1.8828   -0.6983   -0.2334 C   0  0  0  0  0  0  0  0  0  0  0  0
    1.7986    0.4865    0.0662 C   0  0  0  0  0  0  0  0  0  0  0  0
    0.6231   -0.4298   -0.2686 C   0  0  0  0  0  0  0  0  0  0  0  0
   -0.7111    0.2161    0.1027 C   0  0  0  0  0  0  0  0  0  0  0  0
   -0.8750    0.3711   -1.9500 H   0  0  0  0  0  0  0  0  0  0  0  0
   -1.1260   -1.2046   -1.2334 H   0  0  0  0  0  0  0  0  0  0  0  0
   -3.0934    1.1851   -1.3959 H   0  0  0  0  0  0  0  0  0  0  0  0
   -3.7767    1.0013    0.0734 H   0  0  0  0  0  0  0  0  0  0  0  0
   -1.4696    1.4549    0.2898 H   0  0  0  0  0  0  0  0  0  0  0  0
    0.8850    1.9667   -0.8733 H   0  0  0  0  0  0  0  0  0  0  0  0
    0.6960   -2.2739   -0.0980 H   0  0  0  0  0  0  0  0  0  0  0  0
   -2.6594    0.0504    1.9802 H   0  0  0  0  0  0  0  0  0  0  0  0
   -0.9720   -0.4318    1.8286 H   0  0  0  0  0  0  0  0  0  0  0  0
   -2.2402   -1.4136    1.0739 H   0  0  0  0  0  0  0  0  0  0  0  0
    3.2319    1.9924   -0.1070 H   0  0  0  0  0  0  0  0  0  0  0  0
    3.0441   -2.2297    0.6613 H   0  0  0  0  0  0  0  0  0  0  0  0
    4.3177   -0.1011    0.6615 H   0  0  0  0  0  0  0  0  0  0  0  0
   -4.3681    0.2793    1.5006 H   0  0  0  0  0  0  0  0  0  0  0  0
    4.9408    0.1480   -0.2874 H   0  0  0  0  0  0  0  0  0  0  0  0
   -1.9021   -0.9360   -1.3032 H   0  0  0  0  0  0  0  0  0  0  0  0
   -1.8116   -1.6538    0.2989 H   0  0  0  0  0  0  0  0  0  0  0  0
    1.7061    1.4269   -0.4883 H   0  0  0  0  0  0  0  0  0  0  0  0
    1.8070    0.7034    1.1400 H   0  0  0  0  0  0  0  0  0  0  0  0
    0.6338   -0.6668   -1.3400 H   0  0  0  0  0  0  0  0  0  0  0  0
    0.7337   -1.3821    0.2652 H   0  0  0  0  0  0  0  0  0  0  0  0
   -0.8232    1.1692   -0.4293 H   0  0  0  0  0  0  0  0  0  0  0  0
   -0.7222    0.4535    1.1738 H   0  0  0  0  0  0  0  0  0  0  0  0
  4  2  1  0
  3  1  1  0
  4  1  1  0
  5  3  2  0
  6  3  1  0
  4  7  1  0
  8  5  1  0
  9  6  2  0
 10  9  1  0
 10  8  2  0
 12 17  1  0
 13 11  2  0
 14 12  2  0
 15 12  1  0
 16 11  1  0
 17 20  1  0
 18 11  1  0
 19 18  1  0
 20 19  1  0
  1 21  1  0
  1 22  1  0
  2 23  1  0
  2 24  1  0
  4 25  1  1
  5 26  1  0
  6 27  1  0
  7 28  1  0
  7 29  1  0
  7 30  1  0
  8 31  1  0
  9 32  1  0
 10 33  1  0
 15 34  1  0
 16 35  1  0
 17 36  1  0
 17 37  1  0
 18 38  1  0
 18 39  1  0
 19 40  1  0
 19 41  1  0
 20 42  1  0
 20 43  1  0
M  END
$$$$
