
     RDKit          3D

 20 19  0  0  0  0  0  0  0  0999 V2000
   -1.1275   -0.3812   -1.1005 C   0  0  0  0  0  0  0  0  0  0  0  0
   -3.4121    0.5038   -0.9106 N   0  0  0  0  0  0  0  0  0  0  0  0
    0.1975   -0.2516   -0.4360 C   0  0  0  0  0  0  0  0  0  0  0  0
   -2.0871    0.5228   -0.3794 C   0  0  1  0  0  0  0  0  0  0  0  0
    1.1418    0.6835   -0.8233 C   0  0  0  0  0  0  0  0  0  0  0  0
    0.5263   -1.0770    0.6048 C   0  0  0  0  0  0  0  0  0  0  0  0
   -2.0042    0.3068    1.0981 C   0  0  0  0  0  0  0  0  0  0  0  0
    2.3609    0.7665   -0.1749 C   0  0  0  0  0  0  0  0  0  0  0  0
    1.7373   -1.0050    1.2596 C   0  0  0  0  0  0  0  0  0  0  0  0
    2.6673   -0.0684    0.8622 C   0  0  0  0  0  0  0  0  0  0  0  0
    2.1734    0.1219    0.6879 C   0  0  0  0  0  0  0  0  0  0  0  0
   -2.2344   -0.3062   -0.2355 C   0  0  0  0  0  0  0  0  0  0  0  0
    2.5016    0.8010   -0.3207 O   0  0  0  0  0  0  0  0  0  0  0  0
   -2.0478   -1.2680   -1.0002 O   0  0  0  0  0  0  0  0  0  0  0  0
   -3.3378   -0.1905    0.6169 O   0  0  0  0  0  0  0  0  0  0  0  0
    2.8055    0.2310    1.9203 O   0  0  0  0  0  0  0  0  0  0  0  0
   -1.2135    0.7800   -0.2381 C   0  0  0  0  0  0  0  0  0  0  0  0
    1.0536   -0.8550    0.5796 C   0  0  0  0  0  0  0  0  0  0  0  0
    0.4423   -0.8991   -0.7745 C   0  0  0  0  0  0  0  0  0  0  0  0
   -0.1429    0.4088   -1.2357 C   0  0  0  0  0  0  0  0  0  0  0  0
  4  2  1  0
  3  1  1  0
  4  1  1  0
  5  3  2  0
  6  3  1  0
  4  7  1  1
  8  5  1  0
  9  6  2  0
 10  9  1  0
 10  8  2  0
 12 17  1  0
 13 11  2  0
 14 12  2  0
 15 12  1  0
 16 11  1  0
 17 20  1  0
 18 11  1  0
 19 18  1  0
 20 19  1  0
M  END
