
     RDKit          3D

 43 42  0  0  0  0  0  0  0  0999 V2000
   -0.5945    1.2663    0.3780 C   0  0  0  0  0  0  0  0  0  0  0  0
   -3.0240    1.0745    0.7381 N   0  0  0  0  0  0  0  0  0  0  0  0
    0.7205    0.5501    0.1714 C   0  0  0  0  0  0  0  0  0  0  0  0
   -1.8213    0.3317    0.3355 C   0  0  1  0  0  0  0  0  0  0  0  0
    1.2651   -0.2456    1.1889 C   0  0  0  0  0  0  0  0  0  0  0  0
    1.4112    0.6665   -1.0424 C   0  0  0  0  0  0  0  0  0  0  0  0
   -2.0583   -0.2518   -1.0580 C   0  0  0  0  0  0  0  0  0  0  0  0
    2.4753   -0.9132    0.9943 C   0  0  0  0  0  0  0  0  0  0  0  0
    2.6211   -0.0021   -1.2352 C   0  0  0  0  0  0  0  0  0  0  0  0
    3.1526   -0.7918   -0.2175 C   0  0  0  0  0  0  0  0  0  0  0  0
   -2.4351    0.8592   -0.6139 C   0  0  0  0  0  0  0  0  0  0  0  0
    2.9776    0.0004    0.0268 C   0  0  0  0  0  0  0  0  0  0  0  0
   -1.9494    1.0223   -1.7193 O   0  0  0  0  0  0  0  0  0  0  0  0
    3.8079    0.1867   -0.8468 O   0  0  0  0  0  0  0  0  0  0  0  0
    3.1395    0.5374    1.2504 O   0  0  0  0  0  0  0  0  0  0  0  0
   -3.4462    1.6414   -0.1875 O   0  0  0  0  0  0  0  0  0  0  0  0
    1.7440   -0.8500   -0.0886 C   0  0  0  0  0  0  0  0  0  0  0  0
   -2.0596   -0.1791    0.4100 C   0  0  0  0  0  0  0  0  0  0  0  0
   -0.7744   -0.9273    0.0557 C   0  0  0  0  0  0  0  0  0  0  0  0
    0.4776   -0.0657    0.2453 C   0  0  0  0  0  0  0  0  0  0  0  0
   -0.5452    1.7737    1.3515 H   0  0  0  0  0  0  0  0  0  0  0  0
   -0.7037    2.0672   -0.3656 H   0  0  0  0  0  0  0  0  0  0  0  0
   -3.8275    0.4467    0.7374 H   0  0  0  0  0  0  0  0  0  0  0  0
   -2.9183    1.4005    1.6982 H   0  0  0  0  0  0  0  0  0  0  0  0
   -1.6841   -0.4960    1.0416 H   0  0  0  0  0  0  0  0  0  0  0  0
    0.7505   -0.3476    2.1415 H   0  0  0  0  0  0  0  0  0  0  0  0
    1.0088    1.2776   -1.8474 H   0  0  0  0  0  0  0  0  0  0  0  0
   -2.9586   -0.8768   -1.0742 H   0  0  0  0  0  0  0  0  0  0  0  0
   -2.1826    0.5373   -1.8081 H   0  0  0  0  0  0  0  0  0  0  0  0
   -1.2220   -0.8862   -1.3686 H   0  0  0  0  0  0  0  0  0  0  0  0
    2.8907   -1.5270    1.7892 H   0  0  0  0  0  0  0  0  0  0  0  0
    3.1490    0.0939   -2.1803 H   0  0  0  0  0  0  0  0  0  0  0  0
    4.0951   -1.3112   -0.3684 H   0  0  0  0  0  0  0  0  0  0  0  0
    3.9808    1.0356    1.1783 H   0  0  0  0  0  0  0  0  0  0  0  0
   -3.6025    2.2561   -0.9351 H   0  0  0  0  0  0  0  0  0  0  0  0
    1.8608   -1.7184    0.5689 H   0  0  0  0  0  0  0  0  0  0  0  0
    1.6908   -1.2231   -1.1181 H   0  0  0  0  0  0  0  0  0  0  0  0
   -1.9537    0.3052    1.3869 H   0  0  0  0  0  0  0  0  0  0  0  0
   -2.8867   -0.8960    0.4635 H   0  0  0  0  0  0  0  0  0  0  0  0
   -0.6975   -1.8096    0.7029 H   0  0  0  0  0  0  0  0  0  0  0  0
   -0.8218   -1.2920   -0.9776 H   0  0  0  0  0  0  0  0  0  0  0  0
    0.5215    0.2890    1.2824 H   0  0  0  0  0  0  0  0  0  0  0  0
    0.4264    0.8280   -0.3877 H   0  0  0  0  0  0  0  0  0  0  0  0
  4  2  1  0
  3  1  1  0
  4  1  1  0
  5  3  2  0
  6  3  1  0
  4  7  1  0
  8  5  1  0
  9  6  2  0
 10  9  1  0
 10  8  2  0
 12 17  1  0
 13 11  2  0
 14 12  2  0
 15 12  1  0
 16 11  1  0
 17 20  1  0
 18 11  1  0
 19 18  1  0
 20 19  1  0
  1 21  1  0
  1 22  1  0
  2 23  1  0
  2 24  1  0
  4 25  1  1
  5 26  1  0
  6 27  1  0
  7 28  1  0
  7 29  1  0
  7 30  1  0
  8 31  1  0
  9 32  1  0
 10 33  1  0
 15 34  1  0
 16 35  1  0
 17 36  1  0
 17 37  1  0
 18 38  1  0
 18 39  1  0
 19 40  1  0
 19 41  1  0
 20 42  1  0
 20 43  1  0
M  END
$$$$
