
     RDKit          3D

 43 42  0  0  0  0  0  0  0  0999 V2000
   -0.6983   -0.2836   -1.3304 C   0  0  0  0  0  0  0  0  0  0  0  0
   -1.6711   -1.8518    0.3653 N   0  0  0  0  0  0  0  0  0  0  0  0
    0.5810    0.0736   -0.6064 C   0  0  0  0  0  0  0  0  0  0  0  0
   -1.9081   -0.6452   -0.4371 C   0  0  1  0  0  0  0  0  0  0  0  0
    0.8794    1.4074   -0.2958 C   0  0  0  0  0  0  0  0  0  0  0  0
    1.4898   -0.9274   -0.2356 C   0  0  0  0  0  0  0  0  0  0  0  0
   -2.3457    0.5069    0.4680 C   0  0  0  0  0  0  0  0  0  0  0  0
    2.0583    1.7312    0.3781 C   0  0  0  0  0  0  0  0  0  0  0  0
    2.6680   -0.6024    0.4381 C   0  0  0  0  0  0  0  0  0  0  0  0
    2.9515    0.7267    0.7456 C   0  0  0  0  0  0  0  0  0  0  0  0
    2.1457    0.9367   -1.0731 C   0  0  0  0  0  0  0  0  0  0  0  0
   -2.4440   -0.2182    0.0317 C   0  0  0  0  0  0  0  0  0  0  0  0
    2.4787    0.3153   -2.0681 O   0  0  0  0  0  0  0  0  0  0  0  0
   -2.2533    0.6609   -0.7903 O   0  0  0  0  0  0  0  0  0  0  0  0
   -3.6480   -0.3544    0.6217 O   0  0  0  0  0  0  0  0  0  0  0  0
    1.7950    2.2334   -1.1500 O   0  0  0  0  0  0  0  0  0  0  0  0
   -1.4682   -1.2641    0.5029 C   0  0  0  0  0  0  0  0  0  0  0  0
    2.0646    0.3930    0.3251 C   0  0  0  0  0  0  0  0  0  0  0  0
    0.6232    0.1634    0.7706 C   0  0  0  0  0  0  0  0  0  0  0  0
   -0.0394   -1.0025    0.0255 C   0  0  0  0  0  0  0  0  0  0  0  0
   -0.4910   -1.1199   -2.0125 H   0  0  0  0  0  0  0  0  0  0  0  0
   -0.9771    0.5527   -1.9857 H   0  0  0  0  0  0  0  0  0  0  0  0
   -2.4827   -2.0331    0.9549 H   0  0  0  0  0  0  0  0  0  0  0  0
   -0.8993   -1.6714    1.0099 H   0  0  0  0  0  0  0  0  0  0  0  0
   -2.7442   -0.8704   -1.1107 H   0  0  0  0  0  0  0  0  0  0  0  0
    0.1947    2.2040   -0.5772 H   0  0  0  0  0  0  0  0  0  0  0  0
    1.2804   -1.9691   -0.4719 H   0  0  0  0  0  0  0  0  0  0  0  0
   -3.2837    0.2628    0.9796 H   0  0  0  0  0  0  0  0  0  0  0  0
   -2.5172    1.4163   -0.1177 H   0  0  0  0  0  0  0  0  0  0  0  0
   -1.6001    0.7316    1.2380 H   0  0  0  0  0  0  0  0  0  0  0  0
    2.2807    2.7684    0.6146 H   0  0  0  0  0  0  0  0  0  0  0  0
    3.3649   -1.3870    0.7203 H   0  0  0  0  0  0  0  0  0  0  0  0
    3.8698    0.9797    1.2686 H   0  0  0  0  0  0  0  0  0  0  0  0
   -4.1879    0.3625    0.2274 H   0  0  0  0  0  0  0  0  0  0  0  0
    1.8499    2.4408   -2.1062 H   0  0  0  0  0  0  0  0  0  0  0  0
   -1.8069   -2.2269    0.1040 H   0  0  0  0  0  0  0  0  0  0  0  0
   -1.4953   -1.3104    1.5971 H   0  0  0  0  0  0  0  0  0  0  0  0
    2.5627    1.1039    0.9948 H   0  0  0  0  0  0  0  0  0  0  0  0
    2.6438   -0.5361    0.3723 H   0  0  0  0  0  0  0  0  0  0  0  0
    0.0400    1.0806    0.6310 H   0  0  0  0  0  0  0  0  0  0  0  0
    0.6226   -0.0547    1.8456 H   0  0  0  0  0  0  0  0  0  0  0  0
   -0.0365   -0.8130   -1.0543 H   0  0  0  0  0  0  0  0  0  0  0  0
    0.5533   -1.9103    0.1923 H   0  0  0  0  0  0  0  0  0  0  0  0
  4  2  1  0
  3  1  1  0
  4  1  1  0
  5  3  2  0
  6  3  1  0
  4  7  1  0
  8  5  1  0
  9  6  2  0
 10  9  1  0
 10  8  2  0
 12 17  1  0
 13 11  2  0
 14 12  2  0
 15 12  1  0
 16 11  1  0
 17 20  1  0
 18 11  1  0
 19 18  1  0
 20 19  1  0
  1 21  1  0
  1 22  1  0
  2 23  1  0
  2 24  1  0
  4 25  1  6
  5 26  1  0
  6 27  1  0
  7 28  1  0
  7 29  1  0
  7 30  1  0
  8 31  1  0
  9 32  1  0
 10 33  1  0
 15 34  1  0
 16 35  1  0
 17 36  1  0
 17 37  1  0
 18 38  1  0
 18 39  1  0
 19 40  1  0
 19 41  1  0
 20 42  1  0
 20 43  1  0
M  END
$$$$
