
     RDKit          3D

 43 42  0  0  0  0  0  0  0  0999 V2000
   -0.6794   -0.7754    0.5341 C   0  0  0  0  0  0  0  0  0  0  0  0
   -2.0348    0.6199   -1.0292 N   0  0  0  0  0  0  0  0  0  0  0  0
    0.7483   -0.4269    0.1784 C   0  0  0  0  0  0  0  0  0  0  0  0
   -1.6633    0.4049    0.3764 C   0  0  1  0  0  0  0  0  0  0  0  0
    1.6747   -0.1131    1.1829 C   0  0  0  0  0  0  0  0  0  0  0  0
    1.1654   -0.4007   -1.1587 C   0  0  0  0  0  0  0  0  0  0  0  0
   -2.9358    0.1491    1.1867 C   0  0  0  0  0  0  0  0  0  0  0  0
    2.9926    0.2111    0.8555 C   0  0  0  0  0  0  0  0  0  0  0  0
    2.4830   -0.0754   -1.4849 C   0  0  0  0  0  0  0  0  0  0  0  0
    3.3968    0.2287   -0.4780 C   0  0  0  0  0  0  0  0  0  0  0  0
    1.6552    0.7802    0.6846 C   0  0  0  0  0  0  0  0  0  0  0  0
   -1.8470    0.4679    0.6907 C   0  0  0  0  0  0  0  0  0  0  0  0
    1.2080    1.6931    1.3598 O   0  0  0  0  0  0  0  0  0  0  0  0
   -2.0784    0.1508    1.8453 O   0  0  0  0  0  0  0  0  0  0  0  0
   -1.6142    1.7477    0.3510 O   0  0  0  0  0  0  0  0  0  0  0  0
    2.6633    0.9925   -0.1806 O   0  0  0  0  0  0  0  0  0  0  0  0
   -1.7840   -0.4706   -0.4812 C   0  0  0  0  0  0  0  0  0  0  0  0
    1.2040   -0.6538    0.7229 C   0  0  0  0  0  0  0  0  0  0  0  0
    0.6997   -1.1719   -0.6221 C   0  0  0  0  0  0  0  0  0  0  0  0
   -0.4664   -0.3980   -1.2542 C   0  0  0  0  0  0  0  0  0  0  0  0
   -1.0035   -1.6360   -0.0668 H   0  0  0  0  0  0  0  0  0  0  0  0
   -0.6964   -1.1305    1.5734 H   0  0  0  0  0  0  0  0  0  0  0  0
   -2.6727    1.4120   -1.0951 H   0  0  0  0  0  0  0  0  0  0  0  0
   -2.5465   -0.1885   -1.3799 H   0  0  0  0  0  0  0  0  0  0  0  0
   -1.1966    1.3240    0.7509 H   0  0  0  0  0  0  0  0  0  0  0  0
    1.3760   -0.1191    2.2284 H   0  0  0  0  0  0  0  0  0  0  0  0
    0.4586   -0.6237   -1.9549 H   0  0  0  0  0  0  0  0  0  0  0  0
   -3.6393    0.9836    1.0900 H   0  0  0  0  0  0  0  0  0  0  0  0
   -2.7004    0.0398    2.2509 H   0  0  0  0  0  0  0  0  0  0  0  0
   -3.4448   -0.7641    0.8585 H   0  0  0  0  0  0  0  0  0  0  0  0
    3.7035    0.4517    1.6413 H   0  0  0  0  0  0  0  0  0  0  0  0
    2.7929   -0.0548   -2.5261 H   0  0  0  0  0  0  0  0  0  0  0  0
    4.4217    0.4834   -0.7330 H   0  0  0  0  0  0  0  0  0  0  0  0
   -1.5329    2.2178    1.2091 H   0  0  0  0  0  0  0  0  0  0  0  0
    2.8594    1.9487   -0.0924 H   0  0  0  0  0  0  0  0  0  0  0  0
   -1.9634   -1.4909   -0.1245 H   0  0  0  0  0  0  0  0  0  0  0  0
   -2.6193   -0.2121   -1.1427 H   0  0  0  0  0  0  0  0  0  0  0  0
    0.4353   -0.7589    1.4938 H   0  0  0  0  0  0  0  0  0  0  0  0
    2.0538   -1.2591    1.0603 H   0  0  0  0  0  0  0  0  0  0  0  0
    1.5319   -1.1653   -1.3376 H   0  0  0  0  0  0  0  0  0  0  0  0
    0.4083   -2.2230   -0.5043 H   0  0  0  0  0  0  0  0  0  0  0  0
   -0.6426   -0.8371   -2.2448 H   0  0  0  0  0  0  0  0  0  0  0  0
   -0.1706    0.6418   -1.4331 H   0  0  0  0  0  0  0  0  0  0  0  0
  4  2  1  0
  3  1  1  0
  4  1  1  0
  5  3  2  0
  6  3  1  0
  4  7  1  0
  8  5  1  0
  9  6  2  0
 10  9  1  0
 10  8  2  0
 12 17  1  0
 13 11  2  0
 14 12  2  0
 15 12  1  0
 16 11  1  0
 17 20  1  0
 18 11  1  0
 19 18  1  0
 20 19  1  0
  1 21  1  0
  1 22  1  0
  2 23  1  0
  2 24  1  0
  4 25  1  1
  5 26  1  0
  6 27  1  0
  7 28  1  0
  7 29  1  0
  7 30  1  0
  8 31  1  0
  9 32  1  0
 10 33  1  0
 15 34  1  0
 16 35  1  0
 17 36  1  0
 17 37  1  0
 18 38  1  0
 18 39  1  0
 19 40  1  0
 19 41  1  0
 20 42  1  0
 20 43  1  0
M  END
$$$$
