
     RDKit          3D

 43 42  0  0  0  0  0  0  0  0999 V2000
   -0.7101    0.0770    0.8500 C   0  0  0  0  0  0  0  0  0  0  0  0
   -1.6507   -1.6096   -0.7306 N   0  0  0  0  0  0  0  0  0  0  0  0
    0.7290    0.2181    0.4080 C   0  0  0  0  0  0  0  0  0  0  0  0
   -1.6907   -0.2018   -0.3105 C   0  0  1  0  0  0  0  0  0  0  0  0
    1.5150   -0.9150    0.1615 C   0  0  0  0  0  0  0  0  0  0  0  0
    1.2956    1.4877    0.2269 C   0  0  0  0  0  0  0  0  0  0  0  0
   -3.1213    0.1456    0.1062 C   0  0  0  0  0  0  0  0  0  0  0  0
    2.8422   -0.7823   -0.2498 C   0  0  0  0  0  0  0  0  0  0  0  0
    2.6236    1.6192   -0.1834 C   0  0  0  0  0  0  0  0  0  0  0  0
    3.3969    0.4845   -0.4205 C   0  0  0  0  0  0  0  0  0  0  0  0
   -2.9437    0.1500   -0.2961 C   0  0  0  0  0  0  0  0  0  0  0  0
    2.5056    0.5958    0.4460 C   0  0  0  0  0  0  0  0  0  0  0  0
   -3.6355    1.0080   -0.8179 O   0  0  0  0  0  0  0  0  0  0  0  0
    2.1888    1.5705   -0.2130 O   0  0  0  0  0  0  0  0  0  0  0  0
    3.4440    0.6949    1.4081 O   0  0  0  0  0  0  0  0  0  0  0  0
   -3.2837   -0.3706    0.8977 O   0  0  0  0  0  0  0  0  0  0  0  0
    1.9813   -0.8098    0.3170 C   0  0  0  0  0  0  0  0  0  0  0  0
   -1.7081   -0.4717   -0.8833 C   0  0  0  0  0  0  0  0  0  0  0  0
   -0.5036   -0.3318    0.0440 C   0  0  0  0  0  0  0  0  0  0  0  0
    0.7613   -0.9084   -0.5989 C   0  0  0  0  0  0  0  0  0  0  0  0
   -0.7794   -0.7075    1.6158 H   0  0  0  0  0  0  0  0  0  0  0  0
   -1.0031    1.0031    1.3630 H   0  0  0  0  0  0  0  0  0  0  0  0
   -1.9757   -2.2070    0.0282 H   0  0  0  0  0  0  0  0  0  0  0  0
   -2.2990   -1.7523   -1.5039 H   0  0  0  0  0  0  0  0  0  0  0  0
   -1.4237    0.4200   -1.1736 H   0  0  0  0  0  0  0  0  0  0  0  0
    1.0901   -1.9095    0.2788 H   0  0  0  0  0  0  0  0  0  0  0  0
    0.7061    2.3839    0.4046 H   0  0  0  0  0  0  0  0  0  0  0  0
   -3.1994    1.2052    0.3728 H   0  0  0  0  0  0  0  0  0  0  0  0
   -3.8264   -0.0400   -0.7118 H   0  0  0  0  0  0  0  0  0  0  0  0
   -3.4425   -0.4445    0.9719 H   0  0  0  0  0  0  0  0  0  0  0  0
    3.4401   -1.6691   -0.4415 H   0  0  0  0  0  0  0  0  0  0  0  0
    3.0541    2.6075   -0.3199 H   0  0  0  0  0  0  0  0  0  0  0  0
    4.4295    0.5867   -0.7423 H   0  0  0  0  0  0  0  0  0  0  0  0
    3.7101    1.6381    1.3843 H   0  0  0  0  0  0  0  0  0  0  0  0
   -4.1043    0.1093    1.1376 H   0  0  0  0  0  0  0  0  0  0  0  0
    2.7902   -1.4209   -0.0990 H   0  0  0  0  0  0  0  0  0  0  0  0
    1.7330   -1.1907    1.3137 H   0  0  0  0  0  0  0  0  0  0  0  0
   -1.9222   -1.5232   -1.1037 H   0  0  0  0  0  0  0  0  0  0  0  0
   -1.5039    0.0282   -1.8374 H   0  0  0  0  0  0  0  0  0  0  0  0
   -0.6996   -0.8506    0.9904 H   0  0  0  0  0  0  0  0  0  0  0  0
   -0.3579    0.7260    0.2931 H   0  0  0  0  0  0  0  0  0  0  0  0
    0.5881   -1.9662   -0.8326 H   0  0  0  0  0  0  0  0  0  0  0  0
    0.9602   -0.3994   -1.5499 H   0  0  0  0  0  0  0  0  0  0  0  0
  4  2  1  0
  3  1  1  0
  4  1  1  0
  5  3  2  0
  6  3  1  0
  4  7  1  0
  8  5  1  0
  9  6  2  0
 10  9  1  0
 10  8  2  0
 12 17  1  0
 13 11  2  0
 14 12  2  0
 15 12  1  0
 16 11  1  0
 17 20  1  0
 18 11  1  0
 19 18  1  0
 20 19  1  0
  1 21  1  0
  1 22  1  0
  2 23  1  0
  2 24  1  0
  4 25  1  6
  5 26  1  0
  6 27  1  0
  7 28  1  0
  7 29  1  0
  7 30  1  0
  8 31  1  0
  9 32  1  0
 10 33  1  0
 15 34  1  0
 16 35  1  0
 17 36  1  0
 17 37  1  0
 18 38  1  0
 18 39  1  0
 19 40  1  0
 19 41  1  0
 20 42  1  0
 20 43  1  0
M  END
$$$$
