
     RDKit          3D

 43 42  0  0  0  0  0  0  0  0999 V2000
   -0.7218   -0.0904   -0.6849 C   0  0  0  0  0  0  0  0  0  0  0  0
   -1.8633    1.2032    1.1181 N   0  0  0  0  0  0  0  0  0  0  0  0
    0.7377   -0.0390   -0.2929 C   0  0  0  0  0  0  0  0  0  0  0  0
   -1.6866   -0.1279    0.5208 C   0  0  1  0  0  0  0  0  0  0  0  0
    1.3345    1.1715    0.0824 C   0  0  0  0  0  0  0  0  0  0  0  0
    1.5138   -1.2067   -0.2883 C   0  0  0  0  0  0  0  0  0  0  0  0
   -3.0557   -0.6586    0.0908 C   0  0  0  0  0  0  0  0  0  0  0  0
    2.6811    1.2159    0.4471 C   0  0  0  0  0  0  0  0  0  0  0  0
    2.8610   -1.1608    0.0757 C   0  0  0  0  0  0  0  0  0  0  0  0
    3.4445    0.0504    0.4421 C   0  0  0  0  0  0  0  0  0  0  0  0
   -2.1635   -0.7828    0.4869 C   0  0  0  0  0  0  0  0  0  0  0  0
    2.5837   -0.4832    0.6166 C   0  0  0  0  0  0  0  0  0  0  0  0
   -1.8075   -1.9417    0.3657 O   0  0  0  0  0  0  0  0  0  0  0  0
    3.3670    0.3426    0.1808 O   0  0  0  0  0  0  0  0  0  0  0  0
    2.9736   -1.3666    1.5565 O   0  0  0  0  0  0  0  0  0  0  0  0
   -2.9883   -0.4210    1.4891 O   0  0  0  0  0  0  0  0  0  0  0  0
    1.1373   -0.6648    0.2399 C   0  0  0  0  0  0  0  0  0  0  0  0
   -1.8061    0.3853   -0.3937 C   0  0  0  0  0  0  0  0  0  0  0  0
   -0.6986    0.0743   -1.4023 C   0  0  0  0  0  0  0  0  0  0  0  0
    0.7226    0.2973   -0.8715 C   0  0  0  0  0  0  0  0  0  0  0  0
   -0.8780   -0.9819   -1.3073 H   0  0  0  0  0  0  0  0  0  0  0  0
   -0.9514    0.7597   -1.3416 H   0  0  0  0  0  0  0  0  0  0  0  0
   -2.3137    1.8261    0.4493 H   0  0  0  0  0  0  0  0  0  0  0  0
   -2.4941    1.1370    1.9160 H   0  0  0  0  0  0  0  0  0  0  0  0
   -1.2852   -0.7976    1.2911 H   0  0  0  0  0  0  0  0  0  0  0  0
    0.7462    2.0863    0.1027 H   0  0  0  0  0  0  0  0  0  0  0  0
    1.0743   -2.1608   -0.5686 H   0  0  0  0  0  0  0  0  0  0  0  0
   -3.5055   -0.0289   -0.6852 H   0  0  0  0  0  0  0  0  0  0  0  0
   -2.9679   -1.6747   -0.3088 H   0  0  0  0  0  0  0  0  0  0  0  0
   -3.7477   -0.6981    0.9395 H   0  0  0  0  0  0  0  0  0  0  0  0
    3.1310    2.1606    0.7400 H   0  0  0  0  0  0  0  0  0  0  0  0
    3.4545   -2.0710    0.0751 H   0  0  0  0  0  0  0  0  0  0  0  0
    4.4921    0.0857    0.7279 H   0  0  0  0  0  0  0  0  0  0  0  0
    3.9167   -1.1495    1.7107 H   0  0  0  0  0  0  0  0  0  0  0  0
   -3.1571   -1.2562    1.9740 H   0  0  0  0  0  0  0  0  0  0  0  0
    0.5375   -0.4888    1.1382 H   0  0  0  0  0  0  0  0  0  0  0  0
    1.0010   -1.6988   -0.0944 H   0  0  0  0  0  0  0  0  0  0  0  0
   -2.7173    0.6501   -0.9430 H   0  0  0  0  0  0  0  0  0  0  0  0
   -1.5214    1.2365    0.2341 H   0  0  0  0  0  0  0  0  0  0  0  0
   -0.8302    0.7476   -2.2592 H   0  0  0  0  0  0  0  0  0  0  0  0
   -0.7939   -0.9456   -1.7930 H   0  0  0  0  0  0  0  0  0  0  0  0
    0.8259    1.3323   -0.5215 H   0  0  0  0  0  0  0  0  0  0  0  0
    1.4187    0.1922   -1.7140 H   0  0  0  0  0  0  0  0  0  0  0  0
  4  2  1  0
  3  1  1  0
  4  1  1  0
  5  3  2  0
  6  3  1  0
  4  7  1  0
  8  5  1  0
  9  6  2  0
 10  9  1  0
 10  8  2  0
 12 17  1  0
 13 11  2  0
 14 12  2  0
 15 12  1  0
 16 11  1  0
 17 20  1  0
 18 11  1  0
 19 18  1  0
 20 19  1  0
  1 21  1  0
  1 22  1  0
  2 23  1  0
  2 24  1  0
  4 25  1  1
  5 26  1  0
  6 27  1  0
  7 28  1  0
  7 29  1  0
  7 30  1  0
  8 31  1  0
  9 32  1  0
 10 33  1  0
 15 34  1  0
 16 35  1  0
 17 36  1  0
 17 37  1  0
 18 38  1  0
 18 39  1  0
 19 40  1  0
 19 41  1  0
 20 42  1  0
 20 43  1  0
M  END
$$$$
