
     RDKit          3D

 57 56  0  0  0  0  0  0  0  0999 V2000
   45.4529    5.1415   12.1781 C   0  0  2  0  0  0  0  0  0  0  0  0
   44.7230    5.7240   10.9426 C   0  0  2  0  0  0  0  0  0  0  0  0
   44.4883    4.2706   13.0027 C   0  0  2  0  0  0  0  0  0  0  0  0
   43.9819    3.1730   12.2612 O   0  0  0  0  0  0  0  0  0  0  0  0
   43.4813    4.9112   10.5182 C   0  0  1  0  0  0  0  0  0  0  0  0
   46.0194    6.2434   13.0011 N   0  0  0  0  0  0  0  0  0  0  0  0
   43.5507    3.4276   10.9138 C   0  0  1  0  0  0  0  0  0  0  0  0
   45.6690    5.8231    9.8624 O   0  0  0  0  0  0  0  0  0  0  0  0
   42.3040    5.4818   11.1253 O   0  0  0  0  0  0  0  0  0  0  0  0
   43.4212    5.0735   13.5085 O   0  0  0  0  0  0  0  0  0  0  0  0
   44.4112    2.5887    9.9528 C   0  0  0  0  0  0  0  0  0  0  0  0
   45.7227    3.1319    9.7829 O   0  0  0  0  0  0  0  0  0  0  0  0
   44.6358    3.2948   10.3854 C   0  0  2  0  0  0  0  0  0  0  0  0
   43.7052    3.4573   11.5945 C   0  0  2  0  0  0  0  0  0  0  0  0
   44.9666    4.6814    9.7858 C   0  0  1  0  0  0  0  0  0  0  0  0
   45.5067    5.5568   10.7662 O   0  0  0  0  0  0  0  0  0  0  0  0
   44.2574    4.4908   12.5857 C   0  0  1  0  0  0  0  0  0  0  0  0
   44.0226    2.3877    9.3865 N   0  0  0  0  0  0  0  0  0  0  0  0
   44.6055    5.7990   11.8580 C   0  0  1  0  0  0  0  0  0  0  0  0
   43.5400    2.1958   12.2648 O   0  0  0  0  0  0  0  0  0  0  0  0
   43.2801    4.6973   13.6169 O   0  0  0  0  0  0  0  0  0  0  0  0
   45.9518    4.5203    8.7750 O   0  0  0  0  0  0  0  0  0  0  0  0
   45.2965    6.8040   12.7893 C   0  0  0  0  0  0  0  0  0  0  0  0
   46.5739    6.3129   13.1985 O   0  0  0  0  0  0  0  0  0  0  0  0
   44.2873    4.4915   11.6702 S   0  0  0  0  0  0  0  0  0  0  0  0
   44.5800    4.8472   13.0357 O   0  0  0  0  0  0  0  0  0  0  0  0
   45.2238    3.2603   11.2388 O   0  0  0  0  0  0  0  0  0  0  0  0
   44.8856    5.6759   10.7660 O   0  0  0  0  0  0  0  0  0  0  0  0
   42.9605    4.1960   11.1882 O   0  0  0  0  0  0  0  0  0  0  0  0
   46.2940    4.5229   11.8469 H   0  0  0  0  0  0  0  0  0  0  0  0
   44.4004    6.7529   11.1499 H   0  0  0  0  0  0  0  0  0  0  0  0
   45.0119    3.8538   13.8713 H   0  0  0  0  0  0  0  0  0  0  0  0
   43.3256    4.9981    9.4368 H   0  0  0  0  0  0  0  0  0  0  0  0
   46.5445    6.8587   12.3716 H   0  0  0  0  0  0  0  0  0  0  0  0
   46.7140    5.8531   13.6395 H   0  0  0  0  0  0  0  0  0  0  0  0
   42.5363    3.0109   10.8682 H   0  0  0  0  0  0  0  0  0  0  0  0
   45.8971    4.8972    9.6198 H   0  0  0  0  0  0  0  0  0  0  0  0
   42.3785    5.3265   12.0939 H   0  0  0  0  0  0  0  0  0  0  0  0
   43.8607    5.9122   13.7718 H   0  0  0  0  0  0  0  0  0  0  0  0
   43.9460    2.5433    8.9636 H   0  0  0  0  0  0  0  0  0  0  0  0
   44.5210    1.5697   10.3404 H   0  0  0  0  0  0  0  0  0  0  0  0
   46.2436    2.4311    9.3404 H   0  0  0  0  0  0  0  0  0  0  0  0
   45.5673    2.8177   10.7186 H   0  0  0  0  0  0  0  0  0  0  0  0
   42.7033    3.7638   11.2671 H   0  0  0  0  0  0  0  0  0  0  0  0
   44.0766    5.1361    9.3341 H   0  0  0  0  0  0  0  0  0  0  0  0
   45.1468    4.0713   13.0723 H   0  0  0  0  0  0  0  0  0  0  0  0
   43.8491    1.4962    9.8575 H   0  0  0  0  0  0  0  0  0  0  0  0
   44.7268    2.2025    8.6701 H   0  0  0  0  0  0  0  0  0  0  0  0
   43.6923    6.2725   11.4743 H   0  0  0  0  0  0  0  0  0  0  0  0
   43.2034    2.4041   13.1595 H   0  0  0  0  0  0  0  0  0  0  0  0
   42.4550    5.0171   13.2101 H   0  0  0  0  0  0  0  0  0  0  0  0
   45.9419    5.3492    8.2730 H   0  0  0  0  0  0  0  0  0  0  0  0
   44.6972    7.0123   13.6807 H   0  0  0  0  0  0  0  0  0  0  0  0
   45.4717    7.7483   12.2607 H   0  0  0  0  0  0  0  0  0  0  0  0
   47.0260    6.0315   12.3792 H   0  0  0  0  0  0  0  0  0  0  0  0
   44.9472    2.9889   10.3406 H   0  0  0  0  0  0  0  0  0  0  0  0
   45.2873    6.3259   11.3825 H   0  0  0  0  0  0  0  0  0  0  0  0
  2  1  1  0
  3  1  1  0
  4  3  1  0
  5  2  1  0
  1  6  1  0
  7  4  1  0
  2  8  1  0
  5  9  1  0
  3 10  1  0
  7 11  1  0
 12 11  1  0
  5  7  1  0
 14 13  1  0
 15 13  1  0
 16 15  1  0
 17 14  1  0
 13 18  1  0
 19 16  1  0
 14 20  1  0
 17 21  1  0
 15 22  1  0
 19 23  1  0
 24 23  1  0
 17 19  1  0
 25 26  2  0
 25 27  1  0
 25 28  1  0
 25 29  2  0
  1 30  1  6
  2 31  1  1
  3 32  1  6
  5 33  1  1
  6 34  1  0
  6 35  1  0
  7 36  1  1
  8 37  1  0
  9 38  1  0
 10 39  1  0
 11 40  1  0
 11 41  1  0
 12 42  1  0
 13 43  1  6
 14 44  1  1
 15 45  1  1
 17 46  1  6
 18 47  1  0
 18 48  1  0
 19 49  1  1
 20 50  1  0
 21 51  1  0
 22 52  1  0
 23 53  1  0
 23 54  1  0
 24 55  1  0
 27 56  1  0
 28 57  1  0
M  END
> <Uni-Dock RESULT> 
ENERGY=   -6.308  LOWER_BOUND=    0.000  UPPER_BOUND=    0.000
INTER + INTRA:          -6.308
INTER:                  -6.308
INTRA:                   0.000
UNBOUND:                 0.000

$$$$

     RDKit          3D

 57 56  0  0  0  0  0  0  0  0999 V2000
   45.0107    3.9390   11.0240 C   0  0  2  0  0  0  0  0  0  0  0  0
   44.7711    3.7419   12.5412 C   0  0  2  0  0  0  0  0  0  0  0  0
   44.2873    5.2055   10.5325 C   0  0  2  0  0  0  0  0  0  0  0  0
   44.7471    6.3784   11.1836 O   0  0  0  0  0  0  0  0  0  0  0  0
   44.3954    5.0429   13.2818 C   0  0  1  0  0  0  0  0  0  0  0  0
   44.5566    2.7361   10.2762 N   0  0  0  0  0  0  0  0  0  0  0  0
   44.9349    6.3143   12.6073 C   0  0  1  0  0  0  0  0  0  0  0  0
   45.9495    3.1446   13.1123 O   0  0  0  0  0  0  0  0  0  0  0  0
   42.9594    5.1528   13.3603 O   0  0  0  0  0  0  0  0  0  0  0  0
   42.8771    5.0549   10.6998 O   0  0  0  0  0  0  0  0  0  0  0  0
   46.4175    6.5793   12.9224 C   0  0  0  0  0  0  0  0  0  0  0  0
   47.2463    5.4535   12.6230 O   0  0  0  0  0  0  0  0  0  0  0  0
   46.0658    5.8728   12.5858 C   0  0  2  0  0  0  0  0  0  0  0  0
   44.7202    6.2403   11.9465 C   0  0  2  0  0  0  0  0  0  0  0  0
   45.9694    4.4800   13.2509 C   0  0  1  0  0  0  0  0  0  0  0  0
   45.5240    3.4934   12.3303 O   0  0  0  0  0  0  0  0  0  0  0  0
   44.2075    5.1108   11.0427 C   0  0  1  0  0  0  0  0  0  0  0  0
   46.4785    6.9222   13.5475 N   0  0  0  0  0  0  0  0  0  0  0  0
   44.2196    3.7723   11.7980 C   0  0  1  0  0  0  0  0  0  0  0  0
   44.8525    7.4457   11.1735 O   0  0  0  0  0  0  0  0  0  0  0  0
   42.8897    5.4559   10.5891 O   0  0  0  0  0  0  0  0  0  0  0  0
   47.2630    4.0924   13.6922 O   0  0  0  0  0  0  0  0  0  0  0  0
   43.8532    2.5967   10.8824 C   0  0  0  0  0  0  0  0  0  0  0  0
   44.8536    2.4104    9.8800 O   0  0  0  0  0  0  0  0  0  0  0  0
   44.6582    5.0577   11.8384 S   0  0  0  0  0  0  0  0  0  0  0  0
   44.0803    4.6606   10.5794 O   0  0  0  0  0  0  0  0  0  0  0  0
   46.1283    5.6480   11.5754 O   0  0  0  0  0  0  0  0  0  0  0  0
   44.9989    3.6962   12.6184 O   0  0  0  0  0  0  0  0  0  0  0  0
   44.0106    5.9489   12.7692 O   0  0  0  0  0  0  0  0  0  0  0  0
   46.0842    4.0482   10.8353 H   0  0  0  0  0  0  0  0  0  0  0  0
   43.9632    3.0154   12.7006 H   0  0  0  0  0  0  0  0  0  0  0  0
   44.4671    5.3453    9.4598 H   0  0  0  0  0  0  0  0  0  0  0  0
   44.7438    4.9996   14.3201 H   0  0  0  0  0  0  0  0  0  0  0  0
   44.9711    1.9165   10.7314 H   0  0  0  0  0  0  0  0  0  0  0  0
   44.9619    2.7591    9.3393 H   0  0  0  0  0  0  0  0  0  0  0  0
   44.3750    7.1747   12.9958 H   0  0  0  0  0  0  0  0  0  0  0  0
   46.6555    3.8268   13.0449 H   0  0  0  0  0  0  0  0  0  0  0  0
   42.6331    5.2908   12.4426 H   0  0  0  0  0  0  0  0  0  0  0  0
   42.7078    4.1202   10.4477 H   0  0  0  0  0  0  0  0  0  0  0  0
   46.5478    6.8073   13.9844 H   0  0  0  0  0  0  0  0  0  0  0  0
   46.7809    7.4266   12.3304 H   0  0  0  0  0  0  0  0  0  0  0  0
   48.1660    5.7874   12.6524 H   0  0  0  0  0  0  0  0  0  0  0  0
   46.8329    5.8418   11.8004 H   0  0  0  0  0  0  0  0  0  0  0  0
   43.9741    6.4546   12.7227 H   0  0  0  0  0  0  0  0  0  0  0  0
   45.2993    4.5051   14.1190 H   0  0  0  0  0  0  0  0  0  0  0  0
   44.8448    5.0568   10.1513 H   0  0  0  0  0  0  0  0  0  0  0  0
   46.5303    7.8019   13.0277 H   0  0  0  0  0  0  0  0  0  0  0  0
   47.4321    6.7063   13.8436 H   0  0  0  0  0  0  0  0  0  0  0  0
   43.4917    3.7954   12.6195 H   0  0  0  0  0  0  0  0  0  0  0  0
   44.0841    7.4676   10.5682 H   0  0  0  0  0  0  0  0  0  0  0  0
   42.3090    5.5681   11.3629 H   0  0  0  0  0  0  0  0  0  0  0  0
   47.1149    3.3564   14.3050 H   0  0  0  0  0  0  0  0  0  0  0  0
   42.8870    2.7480   10.3918 H   0  0  0  0  0  0  0  0  0  0  0  0
   43.8058    1.6679   11.4628 H   0  0  0  0  0  0  0  0  0  0  0  0
   45.7075    2.3982   10.3549 H   0  0  0  0  0  0  0  0  0  0  0  0
   46.4616    5.9831   12.4319 H   0  0  0  0  0  0  0  0  0  0  0  0
   44.7210    2.9587   12.0329 H   0  0  0  0  0  0  0  0  0  0  0  0
  2  1  1  0
  3  1  1  0
  4  3  1  0
  5  2  1  0
  1  6  1  0
  7  4  1  0
  2  8  1  0
  5  9  1  0
  3 10  1  0
  7 11  1  0
 12 11  1  0
  5  7  1  0
 14 13  1  0
 15 13  1  0
 16 15  1  0
 17 14  1  0
 13 18  1  0
 19 16  1  0
 14 20  1  0
 17 21  1  0
 15 22  1  0
 19 23  1  0
 24 23  1  0
 17 19  1  0
 25 26  2  0
 25 27  1  0
 25 28  1  0
 25 29  2  0
  1 30  1  6
  2 31  1  1
  3 32  1  6
  5 33  1  1
  6 34  1  0
  6 35  1  0
  7 36  1  1
  8 37  1  0
  9 38  1  0
 10 39  1  0
 11 40  1  0
 11 41  1  0
 12 42  1  0
 13 43  1  6
 14 44  1  1
 15 45  1  1
 17 46  1  6
 18 47  1  0
 18 48  1  0
 19 49  1  1
 20 50  1  0
 21 51  1  0
 22 52  1  0
 23 53  1  0
 23 54  1  0
 24 55  1  0
 27 56  1  0
 28 57  1  0
M  END
> <Uni-Dock RESULT> 
ENERGY=   -6.056  LOWER_BOUND=    1.136  UPPER_BOUND=    3.656
INTER + INTRA:          -6.056
INTER:                  -6.056
INTRA:                   0.000
UNBOUND:                 0.000

$$$$

     RDKit          3D

 57 56  0  0  0  0  0  0  0  0999 V2000
   44.1012    5.8803   12.8277 C   0  0  2  0  0  0  0  0  0  0  0  0
   44.1988    6.4256   11.3815 C   0  0  2  0  0  0  0  0  0  0  0  0
   45.4031    5.1536   13.2099 C   0  0  2  0  0  0  0  0  0  0  0  0
   46.5340    6.0078   13.1614 O   0  0  0  0  0  0  0  0  0  0  0  0
   45.6492    6.6265   10.8932 C   0  0  1  0  0  0  0  0  0  0  0  0
   42.9252    4.9783   12.9535 N   0  0  0  0  0  0  0  0  0  0  0  0
   46.6520    6.8853   12.0289 C   0  0  1  0  0  0  0  0  0  0  0  0
   43.4550    7.6557   11.3099 O   0  0  0  0  0  0  0  0  0  0  0  0
   46.0803    5.4527   10.1744 O   0  0  0  0  0  0  0  0  0  0  0  0
   45.5913    4.0181   12.3647 O   0  0  0  0  0  0  0  0  0  0  0  0
   46.6330    8.3408   12.5278 C   0  0  0  0  0  0  0  0  0  0  0  0
   45.3211    8.7708   12.8994 O   0  0  0  0  0  0  0  0  0  0  0  0
   45.9767    7.7907   12.4746 C   0  0  2  0  0  0  0  0  0  0  0  0
   46.5251    6.3576   12.4690 C   0  0  2  0  0  0  0  0  0  0  0  0
   44.7588    7.8918   11.5268 C   0  0  1  0  0  0  0  0  0  0  0  0
   43.7625    6.9335   11.8558 O   0  0  0  0  0  0  0  0  0  0  0  0
   45.4084    5.3345   12.7170 C   0  0  1  0  0  0  0  0  0  0  0  0
   47.0471    8.7491   12.1107 N   0  0  0  0  0  0  0  0  0  0  0  0
   44.2331    5.5801   11.7575 C   0  0  1  0  0  0  0  0  0  0  0  0
   47.5378    6.2115   13.4794 O   0  0  0  0  0  0  0  0  0  0  0  0
   45.9578    4.0172   12.5619 O   0  0  0  0  0  0  0  0  0  0  0  0
   44.1718    9.1775   11.6707 O   0  0  0  0  0  0  0  0  0  0  0  0
   43.0383    4.6707   12.0736 C   0  0  0  0  0  0  0  0  0  0  0  0
   42.4852    4.9940   13.3502 O   0  0  0  0  0  0  0  0  0  0  0  0
   45.3823    6.1181   12.2435 S   0  0  0  0  0  0  0  0  0  0  0  0
   44.9304    4.9401   12.9398 O   0  0  0  0  0  0  0  0  0  0  0  0
   45.5898    7.3051   13.3051 O   0  0  0  0  0  0  0  0  0  0  0  0
   44.1171    6.6543   11.4128 O   0  0  0  0  0  0  0  0  0  0  0  0
   46.5265    6.1380   11.3657 O   0  0  0  0  0  0  0  0  0  0  0  0
   43.9431    6.7128   13.5218 H   0  0  0  0  0  0  0  0  0  0  0  0
   43.6996    5.7362   10.6878 H   0  0  0  0  0  0  0  0  0  0  0  0
   45.3322    4.7769   14.2374 H   0  0  0  0  0  0  0  0  0  0  0  0
   45.6925    7.4473   10.1682 H   0  0  0  0  0  0  0  0  0  0  0  0
   42.1158    5.4725   12.5647 H   0  0  0  0  0  0  0  0  0  0  0  0
   42.7137    4.8502   13.9441 H   0  0  0  0  0  0  0  0  0  0  0  0
   47.6634    6.7008   11.6445 H   0  0  0  0  0  0  0  0  0  0  0  0
   43.9479    8.3000   11.8669 H   0  0  0  0  0  0  0  0  0  0  0  0
   46.1421    4.7226   10.8308 H   0  0  0  0  0  0  0  0  0  0  0  0
   44.6886    3.6412   12.2706 H   0  0  0  0  0  0  0  0  0  0  0  0
   46.9890    9.0178   11.7455 H   0  0  0  0  0  0  0  0  0  0  0  0
   47.2784    8.4442   13.4071 H   0  0  0  0  0  0  0  0  0  0  0  0
   45.4468    9.6081   13.3907 H   0  0  0  0  0  0  0  0  0  0  0  0
   45.6578    8.0426   13.4949 H   0  0  0  0  0  0  0  0  0  0  0  0
   47.0145    6.1395   11.5109 H   0  0  0  0  0  0  0  0  0  0  0  0
   45.0638    7.7642   10.4810 H   0  0  0  0  0  0  0  0  0  0  0  0
   45.0792    5.4190   13.7602 H   0  0  0  0  0  0  0  0  0  0  0  0
   47.8028    8.6268   12.7894 H   0  0  0  0  0  0  0  0  0  0  0  0
   46.6770    9.6897   12.2584 H   0  0  0  0  0  0  0  0  0  0  0  0
   44.5415    5.3792   10.7231 H   0  0  0  0  0  0  0  0  0  0  0  0
   47.6325    5.2500   13.6339 H   0  0  0  0  0  0  0  0  0  0  0  0
   46.3125    3.9276   11.6593 H   0  0  0  0  0  0  0  0  0  0  0  0
   43.5899    9.2809   10.9026 H   0  0  0  0  0  0  0  0  0  0  0  0
   43.3186    3.6131   12.0689 H   0  0  0  0  0  0  0  0  0  0  0  0
   42.2437    4.8222   11.3336 H   0  0  0  0  0  0  0  0  0  0  0  0
   42.3609    5.9632   13.3489 H   0  0  0  0  0  0  0  0  0  0  0  0
   45.9729    8.0626   12.8189 H   0  0  0  0  0  0  0  0  0  0  0  0
   43.3763    6.0371   11.5978 H   0  0  0  0  0  0  0  0  0  0  0  0
  2  1  1  0
  3  1  1  0
  4  3  1  0
  5  2  1  0
  1  6  1  0
  7  4  1  0
  2  8  1  0
  5  9  1  0
  3 10  1  0
  7 11  1  0
 12 11  1  0
  5  7  1  0
 14 13  1  0
 15 13  1  0
 16 15  1  0
 17 14  1  0
 13 18  1  0
 19 16  1  0
 14 20  1  0
 17 21  1  0
 15 22  1  0
 19 23  1  0
 24 23  1  0
 17 19  1  0
 25 26  2  0
 25 27  1  0
 25 28  1  0
 25 29  2  0
  1 30  1  6
  2 31  1  1
  3 32  1  6
  5 33  1  1
  6 34  1  0
  6 35  1  0
  7 36  1  1
  8 37  1  0
  9 38  1  0
 10 39  1  0
 11 40  1  0
 11 41  1  0
 12 42  1  0
 13 43  1  6
 14 44  1  1
 15 45  1  1
 17 46  1  6
 18 47  1  0
 18 48  1  0
 19 49  1  1
 20 50  1  0
 21 51  1  0
 22 52  1  0
 23 53  1  0
 23 54  1  0
 24 55  1  0
 27 56  1  0
 28 57  1  0
M  END
> <Uni-Dock RESULT> 
ENERGY=   -5.443  LOWER_BOUND=    1.920  UPPER_BOUND=    3.946
INTER + INTRA:          -5.443
INTER:                  -5.443
INTRA:                   0.000
UNBOUND:                 0.000

$$$$

     RDKit          3D

 57 56  0  0  0  0  0  0  0  0999 V2000
   44.1098    4.2883    9.6384 C   0  0  2  0  0  0  0  0  0  0  0  0
   44.9732    5.3093   10.4197 C   0  0  2  0  0  0  0  0  0  0  0  0
   44.1066    2.9309   10.3639 C   0  0  2  0  0  0  0  0  0  0  0  0
   43.5678    3.0180   11.6727 O   0  0  0  0  0  0  0  0  0  0  0  0
   45.1407    4.9616   11.9142 C   0  0  1  0  0  0  0  0  0  0  0  0
   44.6162    4.1527    8.2465 N   0  0  0  0  0  0  0  0  0  0  0  0
   43.9837    4.1274   12.4867 C   0  0  1  0  0  0  0  0  0  0  0  0
   44.3904    6.6150   10.2557 O   0  0  0  0  0  0  0  0  0  0  0  0
   46.3629    4.2185   12.0998 O   0  0  0  0  0  0  0  0  0  0  0  0
   45.4299    2.3951   10.3971 O   0  0  0  0  0  0  0  0  0  0  0  0
   42.7475    4.9742   12.8365 C   0  0  0  0  0  0  0  0  0  0  0  0
   42.3045    5.7701   11.7346 O   0  0  0  0  0  0  0  0  0  0  0  0
   43.1577    4.9214   12.0848 C   0  0  2  0  0  0  0  0  0  0  0  0
   43.9351    3.5996   12.0315 C   0  0  2  0  0  0  0  0  0  0  0  0
   43.9732    6.0397   11.3948 C   0  0  1  0  0  0  0  0  0  0  0  0
   44.3312    5.6795   10.0677 O   0  0  0  0  0  0  0  0  0  0  0  0
   44.4059    3.2891   10.6041 C   0  0  1  0  0  0  0  0  0  0  0  0
   42.8222    5.2611   13.4879 N   0  0  0  0  0  0  0  0  0  0  0  0
   45.1452    4.4977   10.0084 C   0  0  1  0  0  0  0  0  0  0  0  0
   43.1106    2.5212   12.5060 O   0  0  0  0  0  0  0  0  0  0  0  0
   45.2395    2.1209   10.6458 O   0  0  0  0  0  0  0  0  0  0  0  0
   43.1699    7.2086   11.3130 O   0  0  0  0  0  0  0  0  0  0  0  0
   45.5018    4.2780    8.5322 C   0  0  0  0  0  0  0  0  0  0  0  0
   44.3185    4.1995    7.7362 O   0  0  0  0  0  0  0  0  0  0  0  0
   44.3483    4.0963   11.0331 S   0  0  0  0  0  0  0  0  0  0  0  0
   44.4873    3.1342    9.9693 O   0  0  0  0  0  0  0  0  0  0  0  0
   42.7868    4.3730   11.2866 O   0  0  0  0  0  0  0  0  0  0  0  0
   44.8238    5.5033   10.4228 O   0  0  0  0  0  0  0  0  0  0  0  0
   44.9622    3.9482   12.3298 O   0  0  0  0  0  0  0  0  0  0  0  0
   43.0804    4.6567    9.5712 H   0  0  0  0  0  0  0  0  0  0  0  0
   45.9738    5.3725    9.9718 H   0  0  0  0  0  0  0  0  0  0  0  0
   43.4871    2.2141    9.8115 H   0  0  0  0  0  0  0  0  0  0  0  0
   45.2619    5.8780   12.5030 H   0  0  0  0  0  0  0  0  0  0  0  0
   44.7177    5.0978    7.8629 H   0  0  0  0  0  0  0  0  0  0  0  0
   43.8965    3.7055    7.6769 H   0  0  0  0  0  0  0  0  0  0  0  0
   44.3215    3.6670   13.4241 H   0  0  0  0  0  0  0  0  0  0  0  0
   43.5279    6.5851   10.7284 H   0  0  0  0  0  0  0  0  0  0  0  0
   46.2376    3.3481   11.6588 H   0  0  0  0  0  0  0  0  0  0  0  0
   45.7945    2.6108    9.5104 H   0  0  0  0  0  0  0  0  0  0  0  0
   42.9722    5.6561   13.6620 H   0  0  0  0  0  0  0  0  0  0  0  0
   41.9175    4.3223   13.1308 H   0  0  0  0  0  0  0  0  0  0  0  0
   41.4152    6.0947   11.9838 H   0  0  0  0  0  0  0  0  0  0  0  0
   42.2057    4.7926   11.5525 H   0  0  0  0  0  0  0  0  0  0  0  0
   44.8032    3.6395   12.7022 H   0  0  0  0  0  0  0  0  0  0  0  0
   44.8763    6.2784   11.9696 H   0  0  0  0  0  0  0  0  0  0  0  0
   43.5314    3.0320    9.9934 H   0  0  0  0  0  0  0  0  0  0  0  0
   42.2761    4.4814   13.8629 H   0  0  0  0  0  0  0  0  0  0  0  0
   42.1950    6.0670   13.4647 H   0  0  0  0  0  0  0  0  0  0  0  0
   46.0805    4.6756   10.5552 H   0  0  0  0  0  0  0  0  0  0  0  0
   43.5249    1.6969   12.1801 H   0  0  0  0  0  0  0  0  0  0  0  0
   45.9999    2.2965   11.2285 H   0  0  0  0  0  0  0  0  0  0  0  0
   43.7858    7.9292   11.1117 H   0  0  0  0  0  0  0  0  0  0  0  0
   46.0861    3.3646    8.3857 H   0  0  0  0  0  0  0  0  0  0  0  0
   46.0846    5.1267    8.1553 H   0  0  0  0  0  0  0  0  0  0  0  0
   43.7769    4.9732    7.9870 H   0  0  0  0  0  0  0  0  0  0  0  0
   42.7214    4.9635   12.0638 H   0  0  0  0  0  0  0  0  0  0  0  0
   45.0844    5.3330    9.4916 H   0  0  0  0  0  0  0  0  0  0  0  0
  2  1  1  0
  3  1  1  0
  4  3  1  0
  5  2  1  0
  1  6  1  0
  7  4  1  0
  2  8  1  0
  5  9  1  0
  3 10  1  0
  7 11  1  0
 12 11  1  0
  5  7  1  0
 14 13  1  0
 15 13  1  0
 16 15  1  0
 17 14  1  0
 13 18  1  0
 19 16  1  0
 14 20  1  0
 17 21  1  0
 15 22  1  0
 19 23  1  0
 24 23  1  0
 17 19  1  0
 25 26  2  0
 25 27  1  0
 25 28  1  0
 25 29  2  0
  1 30  1  6
  2 31  1  1
  3 32  1  6
  5 33  1  1
  6 34  1  0
  6 35  1  0
  7 36  1  1
  8 37  1  0
  9 38  1  0
 10 39  1  0
 11 40  1  0
 11 41  1  0
 12 42  1  0
 13 43  1  6
 14 44  1  1
 15 45  1  1
 17 46  1  6
 18 47  1  0
 18 48  1  0
 19 49  1  1
 20 50  1  0
 21 51  1  0
 22 52  1  0
 23 53  1  0
 23 54  1  0
 24 55  1  0
 27 56  1  0
 28 57  1  0
M  END
> <Uni-Dock RESULT> 
ENERGY=   -5.435  LOWER_BOUND=    1.352  UPPER_BOUND=    3.324
INTER + INTRA:          -5.435
INTER:                  -5.435
INTRA:                   0.000
UNBOUND:                 0.000

$$$$

     RDKit          3D

 57 56  0  0  0  0  0  0  0  0999 V2000
   45.8209    5.7616   13.4070 C   0  0  2  0  0  0  0  0  0  0  0  0
   45.7098    4.6078   12.3799 C   0  0  2  0  0  0  0  0  0  0  0  0
   45.6445    7.1184   12.7022 C   0  0  2  0  0  0  0  0  0  0  0  0
   44.3799    7.2407   12.0724 O   0  0  0  0  0  0  0  0  0  0  0  0
   44.9312    4.9898   11.1031 C   0  0  1  0  0  0  0  0  0  0  0  0
   47.1272    5.6892   14.1147 N   0  0  0  0  0  0  0  0  0  0  0  0
   43.9038    6.1123   11.3199 C   0  0  1  0  0  0  0  0  0  0  0  0
   45.1065    3.4761   13.0332 O   0  0  0  0  0  0  0  0  0  0  0  0
   45.8590    5.4224   10.0869 O   0  0  0  0  0  0  0  0  0  0  0  0
   46.6992    7.3168   11.7601 O   0  0  0  0  0  0  0  0  0  0  0  0
   42.5931    5.6136   11.9533 C   0  0  0  0  0  0  0  0  0  0  0  0
   42.8167    4.8874   13.1643 O   0  0  0  0  0  0  0  0  0  0  0  0
   43.3930    5.5215   12.2496 C   0  0  2  0  0  0  0  0  0  0  0  0
   44.2828    6.6089   11.6329 C   0  0  2  0  0  0  0  0  0  0  0  0
   44.1871    4.2004   12.3753 C   0  0  1  0  0  0  0  0  0  0  0  0
   45.3932    4.3855   13.1035 O   0  0  0  0  0  0  0  0  0  0  0  0
   45.6251    6.7125   12.3697 C   0  0  1  0  0  0  0  0  0  0  0  0
   42.1582    5.3553   11.4471 N   0  0  0  0  0  0  0  0  0  0  0  0
   46.2824    5.3280   12.4840 C   0  0  1  0  0  0  0  0  0  0  0  0
   43.6141    7.8811   11.6803 O   0  0  0  0  0  0  0  0  0  0  0  0
   46.4595    7.6429   11.6631 O   0  0  0  0  0  0  0  0  0  0  0  0
   43.4008    3.2596   13.0928 O   0  0  0  0  0  0  0  0  0  0  0  0
   47.5539    5.3687   13.3421 C   0  0  0  0  0  0  0  0  0  0  0  0
   47.2348    5.6870   14.6975 O   0  0  0  0  0  0  0  0  0  0  0  0
   45.1246    5.9697   12.1779 S   0  0  0  0  0  0  0  0  0  0  0  0
   46.1331    6.8061   12.7781 O   0  0  0  0  0  0  0  0  0  0  0  0
   43.7674    6.0968   13.0269 O   0  0  0  0  0  0  0  0  0  0  0  0
   45.5567    4.4566   12.4968 O   0  0  0  0  0  0  0  0  0  0  0  0
   44.7543    6.0384   10.7857 O   0  0  0  0  0  0  0  0  0  0  0  0
   45.0383    5.6517   14.1654 H   0  0  0  0  0  0  0  0  0  0  0  0
   46.7129    4.2771   12.0795 H   0  0  0  0  0  0  0  0  0  0  0  0
   45.7155    7.9314   13.4348 H   0  0  0  0  0  0  0  0  0  0  0  0
   44.4316    4.1070   10.6881 H   0  0  0  0  0  0  0  0  0  0  0  0
   47.2425    4.7274   14.4497 H   0  0  0  0  0  0  0  0  0  0  0  0
   47.0773    6.2647   14.9566 H   0  0  0  0  0  0  0  0  0  0  0  0
   43.6376    6.5297   10.3403 H   0  0  0  0  0  0  0  0  0  0  0  0
   44.1798    3.7424   13.2297 H   0  0  0  0  0  0  0  0  0  0  0  0
   46.2488    6.2701   10.3985 H   0  0  0  0  0  0  0  0  0  0  0  0
   47.4950    6.9680   12.2193 H   0  0  0  0  0  0  0  0  0  0  0  0
   42.0657    4.9463   11.2652 H   0  0  0  0  0  0  0  0  0  0  0  0
   41.9441    6.4639   12.1903 H   0  0  0  0  0  0  0  0  0  0  0  0
   41.9384    4.8041   13.5883 H   0  0  0  0  0  0  0  0  0  0  0  0
   43.0802    5.8474   13.2507 H   0  0  0  0  0  0  0  0  0  0  0  0
   44.4641    6.3975   10.5710 H   0  0  0  0  0  0  0  0  0  0  0  0
   44.4125    3.7825   11.3865 H   0  0  0  0  0  0  0  0  0  0  0  0
   45.4480    7.1392   13.3649 H   0  0  0  0  0  0  0  0  0  0  0  0
   41.6900    6.2647   11.4250 H   0  0  0  0  0  0  0  0  0  0  0  0
   41.5411    4.7264   11.9640 H   0  0  0  0  0  0  0  0  0  0  0  0
   46.5629    4.9595   11.4886 H   0  0  0  0  0  0  0  0  0  0  0  0
   44.3093    8.5594   11.5621 H   0  0  0  0  0  0  0  0  0  0  0  0
   46.5903    7.3214   10.7531 H   0  0  0  0  0  0  0  0  0  0  0  0
   43.8189    2.4004   12.9318 H   0  0  0  0  0  0  0  0  0  0  0  0
   48.2745    6.1023   12.9684 H   0  0  0  0  0  0  0  0  0  0  0  0
   48.0345    4.3834   13.3501 H   0  0  0  0  0  0  0  0  0  0  0  0
   46.5079    5.0843   14.9487 H   0  0  0  0  0  0  0  0  0  0  0  0
   43.0816    5.5858   12.5520 H   0  0  0  0  0  0  0  0  0  0  0  0
   46.3916    4.5043   13.0114 H   0  0  0  0  0  0  0  0  0  0  0  0
  2  1  1  0
  3  1  1  0
  4  3  1  0
  5  2  1  0
  1  6  1  0
  7  4  1  0
  2  8  1  0
  5  9  1  0
  3 10  1  0
  7 11  1  0
 12 11  1  0
  5  7  1  0
 14 13  1  0
 15 13  1  0
 16 15  1  0
 17 14  1  0
 13 18  1  0
 19 16  1  0
 14 20  1  0
 17 21  1  0
 15 22  1  0
 19 23  1  0
 24 23  1  0
 17 19  1  0
 25 26  2  0
 25 27  1  0
 25 28  1  0
 25 29  2  0
  1 30  1  6
  2 31  1  1
  3 32  1  6
  5 33  1  1
  6 34  1  0
  6 35  1  0
  7 36  1  1
  8 37  1  0
  9 38  1  0
 10 39  1  0
 11 40  1  0
 11 41  1  0
 12 42  1  0
 13 43  1  6
 14 44  1  1
 15 45  1  1
 17 46  1  6
 18 47  1  0
 18 48  1  0
 19 49  1  1
 20 50  1  0
 21 51  1  0
 22 52  1  0
 23 53  1  0
 23 54  1  0
 24 55  1  0
 27 56  1  0
 28 57  1  0
M  END
> <Uni-Dock RESULT> 
ENERGY=   -5.388  LOWER_BOUND=    1.566  UPPER_BOUND=    3.331
INTER + INTRA:          -5.388
INTER:                  -5.388
INTRA:                   0.000
UNBOUND:                 0.000

$$$$

     RDKit          3D

 57 56  0  0  0  0  0  0  0  0999 V2000
   45.2874    6.8745   12.8126 C   0  0  2  0  0  0  0  0  0  0  0  0
   46.0495    5.8309   11.9590 C   0  0  2  0  0  0  0  0  0  0  0  0
   44.0315    7.3567   12.0647 C   0  0  2  0  0  0  0  0  0  0  0  0
   43.1260    6.3004   11.7904 O   0  0  0  0  0  0  0  0  0  0  0  0
   45.1640    5.1246   10.9105 C   0  0  1  0  0  0  0  0  0  0  0  0
   46.1848    8.0129   13.1459 N   0  0  0  0  0  0  0  0  0  0  0  0
   43.6772    5.0682   11.2963 C   0  0  1  0  0  0  0  0  0  0  0  0
   46.6585    4.8764   12.8476 O   0  0  0  0  0  0  0  0  0  0  0  0
   45.2730    5.8136    9.6481 O   0  0  0  0  0  0  0  0  0  0  0  0
   44.4100    8.0231   10.8597 O   0  0  0  0  0  0  0  0  0  0  0  0
   43.3587    3.9467   12.3005 C   0  0  0  0  0  0  0  0  0  0  0  0
   44.1848    4.0098   13.4657 O   0  0  0  0  0  0  0  0  0  0  0  0
   43.9338    4.5788   12.3775 C   0  0  2  0  0  0  0  0  0  0  0  0
   43.5333    5.7343   11.4507 C   0  0  2  0  0  0  0  0  0  0  0  0
   45.4731    4.4318   12.4004 C   0  0  1  0  0  0  0  0  0  0  0  0
   46.1071    5.6523   12.7578 O   0  0  0  0  0  0  0  0  0  0  0  0
   44.3140    7.0122   11.7868 C   0  0  1  0  0  0  0  0  0  0  0  0
   43.2608    3.3277   11.9549 N   0  0  0  0  0  0  0  0  0  0  0  0
   45.8220    6.7208   11.8413 C   0  0  1  0  0  0  0  0  0  0  0  0
   42.1235    5.9938   11.5643 O   0  0  0  0  0  0  0  0  0  0  0  0
   43.9980    8.0085   10.8025 O   0  0  0  0  0  0  0  0  0  0  0  0
   45.8268    3.4687   13.3831 O   0  0  0  0  0  0  0  0  0  0  0  0
   46.6223    7.9400   12.3183 C   0  0  0  0  0  0  0  0  0  0  0  0
   46.3044    8.2492   13.6761 O   0  0  0  0  0  0  0  0  0  0  0  0
   44.5941    6.1403   11.8030 S   0  0  0  0  0  0  0  0  0  0  0  0
   44.5780    7.5627   12.0334 O   0  0  0  0  0  0  0  0  0  0  0  0
   43.7674    5.4122   12.9715 O   0  0  0  0  0  0  0  0  0  0  0  0
   46.0907    5.6563   12.1256 O   0  0  0  0  0  0  0  0  0  0  0  0
   44.1905    5.5272   10.5614 O   0  0  0  0  0  0  0  0  0  0  0  0
   44.9821    6.4180   13.7603 H   0  0  0  0  0  0  0  0  0  0  0  0
   46.8805    6.3160   11.4299 H   0  0  0  0  0  0  0  0  0  0  0  0
   43.4910    8.0888   12.6766 H   0  0  0  0  0  0  0  0  0  0  0  0
   45.5360    4.1105   10.7247 H   0  0  0  0  0  0  0  0  0  0  0  0
   47.0540    7.6196   13.5208 H   0  0  0  0  0  0  0  0  0  0  0  0
   45.7729    8.5416   13.9161 H   0  0  0  0  0  0  0  0  0  0  0  0
   43.0944    4.8514   10.3918 H   0  0  0  0  0  0  0  0  0  0  0  0
   45.9147    4.3833   13.2621 H   0  0  0  0  0  0  0  0  0  0  0  0
   44.8544    6.6958    9.7673 H   0  0  0  0  0  0  0  0  0  0  0  0
   45.2032    8.5433   11.1165 H   0  0  0  0  0  0  0  0  0  0  0  0
   43.5164    2.9662   11.8414 H   0  0  0  0  0  0  0  0  0  0  0  0
   42.3158    4.0216   12.6278 H   0  0  0  0  0  0  0  0  0  0  0  0
   43.7706    3.4069   14.1161 H   0  0  0  0  0  0  0  0  0  0  0  0
   43.5806    4.8024   13.3931 H   0  0  0  0  0  0  0  0  0  0  0  0
   43.7113    5.4624   10.4021 H   0  0  0  0  0  0  0  0  0  0  0  0
   45.8493    4.0905   11.4283 H   0  0  0  0  0  0  0  0  0  0  0  0
   43.9600    7.3971   12.7514 H   0  0  0  0  0  0  0  0  0  0  0  0
   42.2536    3.5057   11.9798 H   0  0  0  0  0  0  0  0  0  0  0  0
   43.4466    2.6245   12.6722 H   0  0  0  0  0  0  0  0  0  0  0  0
   46.1906    6.4487   10.8436 H   0  0  0  0  0  0  0  0  0  0  0  0
   41.9814    6.8923   11.2040 H   0  0  0  0  0  0  0  0  0  0  0  0
   44.2484    7.6736    9.9229 H   0  0  0  0  0  0  0  0  0  0  0  0
   46.7473    3.2335   13.1917 H   0  0  0  0  0  0  0  0  0  0  0  0
   46.4274    8.8223   11.7013 H   0  0  0  0  0  0  0  0  0  0  0  0
   47.6963    7.7227   12.2832 H   0  0  0  0  0  0  0  0  0  0  0  0
   46.3795    7.4070   14.1657 H   0  0  0  0  0  0  0  0  0  0  0  0
   43.7260    4.4613   12.7456 H   0  0  0  0  0  0  0  0  0  0  0  0
   46.5949    6.4562   12.3902 H   0  0  0  0  0  0  0  0  0  0  0  0
  2  1  1  0
  3  1  1  0
  4  3  1  0
  5  2  1  0
  1  6  1  0
  7  4  1  0
  2  8  1  0
  5  9  1  0
  3 10  1  0
  7 11  1  0
 12 11  1  0
  5  7  1  0
 14 13  1  0
 15 13  1  0
 16 15  1  0
 17 14  1  0
 13 18  1  0
 19 16  1  0
 14 20  1  0
 17 21  1  0
 15 22  1  0
 19 23  1  0
 24 23  1  0
 17 19  1  0
 25 26  2  0
 25 27  1  0
 25 28  1  0
 25 29  2  0
  1 30  1  6
  2 31  1  1
  3 32  1  6
  5 33  1  1
  6 34  1  0
  6 35  1  0
  7 36  1  1
  8 37  1  0
  9 38  1  0
 10 39  1  0
 11 40  1  0
 11 41  1  0
 12 42  1  0
 13 43  1  6
 14 44  1  1
 15 45  1  1
 17 46  1  6
 18 47  1  0
 18 48  1  0
 19 49  1  1
 20 50  1  0
 21 51  1  0
 22 52  1  0
 23 53  1  0
 23 54  1  0
 24 55  1  0
 27 56  1  0
 28 57  1  0
M  END
> <Uni-Dock RESULT> 
ENERGY=   -5.207  LOWER_BOUND=    1.520  UPPER_BOUND=    2.844
INTER + INTRA:          -5.207
INTER:                  -5.207
INTRA:                   0.000
UNBOUND:                 0.000

$$$$

     RDKit          3D

 57 56  0  0  0  0  0  0  0  0999 V2000
   44.1798    6.4746   11.3111 C   0  0  2  0  0  0  0  0  0  0  0  0
   44.5417    5.9352   12.7170 C   0  0  2  0  0  0  0  0  0  0  0  0
   45.0750    5.8190   10.2445 C   0  0  2  0  0  0  0  0  0  0  0  0
   44.9233    4.4097   10.2026 O   0  0  0  0  0  0  0  0  0  0  0  0
   45.2392    4.5586   12.6902 C   0  0  1  0  0  0  0  0  0  0  0  0
   44.3097    7.9562   11.2852 N   0  0  0  0  0  0  0  0  0  0  0  0
   44.8837    3.7110   11.4582 C   0  0  1  0  0  0  0  0  0  0  0  0
   43.3402    5.8898   13.5081 O   0  0  0  0  0  0  0  0  0  0  0  0
   46.6694    4.7450   12.7076 O   0  0  0  0  0  0  0  0  0  0  0  0
   46.4396    6.1736   10.4713 O   0  0  0  0  0  0  0  0  0  0  0  0
   43.5231    3.0038   11.5872 C   0  0  0  0  0  0  0  0  0  0  0  0
   42.4657    3.9131   11.9018 O   0  0  0  0  0  0  0  0  0  0  0  0
   43.6935    3.8415   11.6606 C   0  0  2  0  0  0  0  0  0  0  0  0
   45.0065    4.1504   10.9290 C   0  0  2  0  0  0  0  0  0  0  0  0
   43.5926    4.6975   12.9446 C   0  0  1  0  0  0  0  0  0  0  0  0
   43.7366    6.0822   12.6595 O   0  0  0  0  0  0  0  0  0  0  0  0
   45.1905    5.6613   10.7318 C   0  0  1  0  0  0  0  0  0  0  0  0
   43.5980    2.3909   11.9490 N   0  0  0  0  0  0  0  0  0  0  0  0
   45.0040    6.4028   12.0650 C   0  0  1  0  0  0  0  0  0  0  0  0
   45.0245    3.4973    9.6479 O   0  0  0  0  0  0  0  0  0  0  0  0
   46.4922    5.8901   10.1712 O   0  0  0  0  0  0  0  0  0  0  0  0
   42.3049    4.5158   13.5164 O   0  0  0  0  0  0  0  0  0  0  0  0
   45.0352    7.9258   11.8805 C   0  0  0  0  0  0  0  0  0  0  0  0
   43.9141    8.3611   11.1100 O   0  0  0  0  0  0  0  0  0  0  0  0
   44.8278    5.2088   11.4408 S   0  0  0  0  0  0  0  0  0  0  0  0
   45.1772    6.2979   10.5642 O   0  0  0  0  0  0  0  0  0  0  0  0
   43.4787    4.5205   10.9068 O   0  0  0  0  0  0  0  0  0  0  0  0
   44.3192    5.8846   12.8057 O   0  0  0  0  0  0  0  0  0  0  0  0
   45.7326    4.1407   11.7882 O   0  0  0  0  0  0  0  0  0  0  0  0
   43.1333    6.2400   11.0886 H   0  0  0  0  0  0  0  0  0  0  0  0
   45.2074    6.6429   13.2288 H   0  0  0  0  0  0  0  0  0  0  0  0
   44.8091    6.1978    9.2503 H   0  0  0  0  0  0  0  0  0  0  0  0
   45.0047    3.9995   13.6032 H   0  0  0  0  0  0  0  0  0  0  0  0
   43.7978    8.3238   12.0936 H   0  0  0  0  0  0  0  0  0  0  0  0
   43.8163    8.3151   10.4666 H   0  0  0  0  0  0  0  0  0  0  0  0
   45.6375    2.9201   11.3547 H   0  0  0  0  0  0  0  0  0  0  0  0
   42.7755    5.1959   13.0985 H   0  0  0  0  0  0  0  0  0  0  0  0
   46.9137    5.1597   11.8496 H   0  0  0  0  0  0  0  0  0  0  0  0
   46.3975    7.1198   10.7331 H   0  0  0  0  0  0  0  0  0  0  0  0
   43.5561    2.2537   12.3829 H   0  0  0  0  0  0  0  0  0  0  0  0
   43.2668    2.5092   10.6438 H   0  0  0  0  0  0  0  0  0  0  0  0
   41.6362    3.4154   11.7525 H   0  0  0  0  0  0  0  0  0  0  0  0
   42.8535    4.0900   10.9981 H   0  0  0  0  0  0  0  0  0  0  0  0
   45.8602    3.7483   11.4898 H   0  0  0  0  0  0  0  0  0  0  0  0
   44.3459    4.3912   13.6806 H   0  0  0  0  0  0  0  0  0  0  0  0
   44.4610    6.0106    9.9904 H   0  0  0  0  0  0  0  0  0  0  0  0
   43.6597    1.9021   11.0524 H   0  0  0  0  0  0  0  0  0  0  0  0
   42.6590    2.2131   12.3097 H   0  0  0  0  0  0  0  0  0  0  0  0
   45.8083    6.1342   12.7625 H   0  0  0  0  0  0  0  0  0  0  0  0
   45.7119    3.9512    9.1198 H   0  0  0  0  0  0  0  0  0  0  0  0
   47.1648    5.5381   10.7814 H   0  0  0  0  0  0  0  0  0  0  0  0
   42.3749    4.8592   14.4199 H   0  0  0  0  0  0  0  0  0  0  0  0
   45.9528    8.2577   11.3857 H   0  0  0  0  0  0  0  0  0  0  0  0
   44.9664    8.4246   12.8544 H   0  0  0  0  0  0  0  0  0  0  0  0
   43.1309    7.9454   11.5207 H   0  0  0  0  0  0  0  0  0  0  0  0
   43.3119    3.7384   11.4702 H   0  0  0  0  0  0  0  0  0  0  0  0
   44.3844    6.8562   12.6806 H   0  0  0  0  0  0  0  0  0  0  0  0
  2  1  1  0
  3  1  1  0
  4  3  1  0
  5  2  1  0
  1  6  1  0
  7  4  1  0
  2  8  1  0
  5  9  1  0
  3 10  1  0
  7 11  1  0
 12 11  1  0
  5  7  1  0
 14 13  1  0
 15 13  1  0
 16 15  1  0
 17 14  1  0
 13 18  1  0
 19 16  1  0
 14 20  1  0
 17 21  1  0
 15 22  1  0
 19 23  1  0
 24 23  1  0
 17 19  1  0
 25 26  2  0
 25 27  1  0
 25 28  1  0
 25 29  2  0
  1 30  1  6
  2 31  1  1
  3 32  1  6
  5 33  1  1
  6 34  1  0
  6 35  1  0
  7 36  1  1
  8 37  1  0
  9 38  1  0
 10 39  1  0
 11 40  1  0
 11 41  1  0
 12 42  1  0
 13 43  1  6
 14 44  1  1
 15 45  1  1
 17 46  1  6
 18 47  1  0
 18 48  1  0
 19 49  1  1
 20 50  1  0
 21 51  1  0
 22 52  1  0
 23 53  1  0
 23 54  1  0
 24 55  1  0
 27 56  1  0
 28 57  1  0
M  END
> <Uni-Dock RESULT> 
ENERGY=   -4.567  LOWER_BOUND=    1.337  UPPER_BOUND=    3.079
INTER + INTRA:          -4.567
INTER:                  -4.567
INTRA:                   0.000
UNBOUND:                 0.000

$$$$

     RDKit          3D

 57 56  0  0  0  0  0  0  0  0999 V2000
   48.9713    4.8028   19.3726 C   0  0  2  0  0  0  0  0  0  0  0  0
   49.7330    5.2880   18.1145 C   0  0  2  0  0  0  0  0  0  0  0  0
   47.4913    4.5518   19.0330 C   0  0  2  0  0  0  0  0  0  0  0  0
   47.3260    3.5573   18.0357 O   0  0  0  0  0  0  0  0  0  0  0  0
   49.0547    4.8856   16.7877 C   0  0  1  0  0  0  0  0  0  0  0  0
   49.1100    5.7997   20.4678 N   0  0  0  0  0  0  0  0  0  0  0  0
   48.1977    3.6141   16.8941 C   0  0  1  0  0  0  0  0  0  0  0  0
   51.0802    4.7856   18.1786 O   0  0  0  0  0  0  0  0  0  0  0  0
   48.2056    5.9612   16.3375 O   0  0  0  0  0  0  0  0  0  0  0  0
   46.8704    5.7746   18.6347 O   0  0  0  0  0  0  0  0  0  0  0  0
   49.0310    2.3215   16.8441 C   0  0  0  0  0  0  0  0  0  0  0  0
   50.0784    2.3122   17.8171 O   0  0  0  0  0  0  0  0  0  0  0  0
   49.1161    2.9860   17.3801 C   0  0  2  0  0  0  0  0  0  0  0  0
   47.7875    3.7509   17.4430 C   0  0  2  0  0  0  0  0  0  0  0  0
   50.2991    3.9802   17.4410 C   0  0  1  0  0  0  0  0  0  0  0  0
   50.2153    4.8194   18.5846 O   0  0  0  0  0  0  0  0  0  0  0  0
   47.7662    4.7315   18.6234 C   0  0  1  0  0  0  0  0  0  0  0  0
   49.1617    2.1394   16.1645 N   0  0  0  0  0  0  0  0  0  0  0  0
   49.0217    5.6178   18.6071 C   0  0  1  0  0  0  0  0  0  0  0  0
   46.6913    2.8289   17.5700 O   0  0  0  0  0  0  0  0  0  0  0  0
   46.5623    5.5097   18.5447 O   0  0  0  0  0  0  0  0  0  0  0  0
   51.5105    3.2452   17.5444 O   0  0  0  0  0  0  0  0  0  0  0  0
   49.1075    6.5094   19.8530 C   0  0  0  0  0  0  0  0  0  0  0  0
   49.2884    5.7157   21.0267 O   0  0  0  0  0  0  0  0  0  0  0  0
   48.4615    4.5009   18.0734 S   0  0  0  0  0  0  0  0  0  0  0  0
   47.7493    5.0494   19.1998 O   0  0  0  0  0  0  0  0  0  0  0  0
   48.7837    2.9543   18.3618 O   0  0  0  0  0  0  0  0  0  0  0  0
   49.9315    5.1449   18.1226 O   0  0  0  0  0  0  0  0  0  0  0  0
   47.9897    4.5826   16.7130 O   0  0  0  0  0  0  0  0  0  0  0  0
   49.4163    3.8682   19.7308 H   0  0  0  0  0  0  0  0  0  0  0  0
   49.8233    6.3823   18.1312 H   0  0  0  0  0  0  0  0  0  0  0  0
   46.9584    4.2004   19.9247 H   0  0  0  0  0  0  0  0  0  0  0  0
   49.8085    4.7582   16.0025 H   0  0  0  0  0  0  0  0  0  0  0  0
   50.1069    6.0205   20.5581 H   0  0  0  0  0  0  0  0  0  0  0  0
   48.8501    5.3568   21.3502 H   0  0  0  0  0  0  0  0  0  0  0  0
   47.5202    3.5818   16.0311 H   0  0  0  0  0  0  0  0  0  0  0  0
   51.0073    3.8092   18.0806 H   0  0  0  0  0  0  0  0  0  0  0  0
   47.4643    6.0281   16.9808 H   0  0  0  0  0  0  0  0  0  0  0  0
   47.2498    6.4428   19.2474 H   0  0  0  0  0  0  0  0  0  0  0  0
   49.4974    2.2051   15.8613 H   0  0  0  0  0  0  0  0  0  0  0  0
   48.3897    1.4544   17.0374 H   0  0  0  0  0  0  0  0  0  0  0  0
   50.4014    1.3887   17.8486 H   0  0  0  0  0  0  0  0  0  0  0  0
   49.1741    2.3079   18.2421 H   0  0  0  0  0  0  0  0  0  0  0  0
   47.6185    4.3008   16.5080 H   0  0  0  0  0  0  0  0  0  0  0  0
   50.3422    4.5949   16.5336 H   0  0  0  0  0  0  0  0  0  0  0  0
   47.7112    4.1573   19.5567 H   0  0  0  0  0  0  0  0  0  0  0  0
   48.3587    1.5070   16.2090 H   0  0  0  0  0  0  0  0  0  0  0  0
   49.9948    1.5521   16.2331 H   0  0  0  0  0  0  0  0  0  0  0  0
   49.0096    6.2740   17.7269 H   0  0  0  0  0  0  0  0  0  0  0  0
   45.9320    3.3512   17.8987 H   0  0  0  0  0  0  0  0  0  0  0  0
   46.5522    5.9904   17.6977 H   0  0  0  0  0  0  0  0  0  0  0  0
   52.2131    3.8778   17.3312 H   0  0  0  0  0  0  0  0  0  0  0  0
   48.2102    7.1230   19.9777 H   0  0  0  0  0  0  0  0  0  0  0  0
   49.9755    7.1751   19.7807 H   0  0  0  0  0  0  0  0  0  0  0  0
   50.0239    5.1050   20.8245 H   0  0  0  0  0  0  0  0  0  0  0  0
   49.1921    2.5892   17.5513 H   0  0  0  0  0  0  0  0  0  0  0  0
   49.9523    5.7408   18.9027 H   0  0  0  0  0  0  0  0  0  0  0  0
  2  1  1  0
  3  1  1  0
  4  3  1  0
  5  2  1  0
  1  6  1  0
  7  4  1  0
  2  8  1  0
  5  9  1  0
  3 10  1  0
  7 11  1  0
 12 11  1  0
  5  7  1  0
 14 13  1  0
 15 13  1  0
 16 15  1  0
 17 14  1  0
 13 18  1  0
 19 16  1  0
 14 20  1  0
 17 21  1  0
 15 22  1  0
 19 23  1  0
 24 23  1  0
 17 19  1  0
 25 26  2  0
 25 27  1  0
 25 28  1  0
 25 29  2  0
  1 30  1  6
  2 31  1  1
  3 32  1  6
  5 33  1  1
  6 34  1  0
  6 35  1  0
  7 36  1  1
  8 37  1  0
  9 38  1  0
 10 39  1  0
 11 40  1  0
 11 41  1  0
 12 42  1  0
 13 43  1  6
 14 44  1  1
 15 45  1  1
 17 46  1  6
 18 47  1  0
 18 48  1  0
 19 49  1  1
 20 50  1  0
 21 51  1  0
 22 52  1  0
 23 53  1  0
 23 54  1  0
 24 55  1  0
 27 56  1  0
 28 57  1  0
M  END
> <Uni-Dock RESULT> 
ENERGY=   -4.203  LOWER_BOUND=    6.757  UPPER_BOUND=    8.049
INTER + INTRA:          -4.203
INTER:                  -4.203
INTRA:                   0.000
UNBOUND:                 0.000

$$$$

     RDKit          3D

 57 56  0  0  0  0  0  0  0  0999 V2000
   49.5104    4.5831   19.7770 C   0  0  2  0  0  0  0  0  0  0  0  0
   50.1262    4.6943   18.3604 C   0  0  2  0  0  0  0  0  0  0  0  0
   48.3463    5.5783   19.9293 C   0  0  2  0  0  0  0  0  0  0  0  0
   47.3025    5.3365   19.0003 O   0  0  0  0  0  0  0  0  0  0  0  0
   49.1623    5.2902   17.3125 C   0  0  1  0  0  0  0  0  0  0  0  0
   50.5572    4.8185   20.8072 N   0  0  0  0  0  0  0  0  0  0  0  0
   47.6780    5.0627   17.6400 C   0  0  1  0  0  0  0  0  0  0  0  0
   50.5808    3.3887   17.9601 O   0  0  0  0  0  0  0  0  0  0  0  0
   49.3851    6.7115   17.2092 O   0  0  0  0  0  0  0  0  0  0  0  0
   48.8317    6.9157   19.8066 O   0  0  0  0  0  0  0  0  0  0  0  0
   47.1893    3.6520   17.2671 C   0  0  0  0  0  0  0  0  0  0  0  0
   48.0008    2.6258   17.8435 O   0  0  0  0  0  0  0  0  0  0  0  0
   47.8478    3.8678   17.7730 C   0  0  2  0  0  0  0  0  0  0  0  0
   47.6289    5.2929   18.2979 C   0  0  2  0  0  0  0  0  0  0  0  0
   49.3498    3.6379   17.4854 C   0  0  1  0  0  0  0  0  0  0  0  0
   50.1473    3.9188   18.6274 O   0  0  0  0  0  0  0  0  0  0  0  0
   48.5800    5.6091   19.4602 C   0  0  1  0  0  0  0  0  0  0  0  0
   47.0082    3.6295   16.5752 N   0  0  0  0  0  0  0  0  0  0  0  0
   50.0300    5.2796   19.0715 C   0  0  1  0  0  0  0  0  0  0  0  0
   46.2694    5.4547   18.7377 O   0  0  0  0  0  0  0  0  0  0  0  0
   48.4226    6.9923   19.8112 O   0  0  0  0  0  0  0  0  0  0  0  0
   49.5494    2.2701   17.1570 O   0  0  0  0  0  0  0  0  0  0  0  0
   50.9903    5.4440   20.2569 C   0  0  0  0  0  0  0  0  0  0  0  0
   50.7026    4.4825   21.2732 O   0  0  0  0  0  0  0  0  0  0  0  0
   48.7322    5.1147   18.7043 S   0  0  0  0  0  0  0  0  0  0  0  0
   48.9169    5.6653   20.0232 O   0  0  0  0  0  0  0  0  0  0  0  0
   47.7948    3.8149   18.8073 O   0  0  0  0  0  0  0  0  0  0  0  0
   50.1399    4.4581   18.2973 O   0  0  0  0  0  0  0  0  0  0  0  0
   48.2611    5.8813   17.5771 O   0  0  0  0  0  0  0  0  0  0  0  0
   49.1308    3.5673   19.9312 H   0  0  0  0  0  0  0  0  0  0  0  0
   51.0248    5.3246   18.3920 H   0  0  0  0  0  0  0  0  0  0  0  0
   47.9083    5.4897   20.9308 H   0  0  0  0  0  0  0  0  0  0  0  0
   49.3877    4.8847   16.3195 H   0  0  0  0  0  0  0  0  0  0  0  0
   51.3562    4.2195   20.5760 H   0  0  0  0  0  0  0  0  0  0  0  0
   50.2153    4.4781   21.7070 H   0  0  0  0  0  0  0  0  0  0  0  0
   47.0818    5.7665   17.0451 H   0  0  0  0  0  0  0  0  0  0  0  0
   49.7688    2.8438   17.8510 H   0  0  0  0  0  0  0  0  0  0  0  0
   49.0956    7.1085   18.0614 H   0  0  0  0  0  0  0  0  0  0  0  0
   49.6878    6.9016   20.2889 H   0  0  0  0  0  0  0  0  0  0  0  0
   47.2109    3.5143   16.1820 H   0  0  0  0  0  0  0  0  0  0  0  0
   46.1637    3.5043   17.6232 H   0  0  0  0  0  0  0  0  0  0  0  0
   47.4962    1.7948   17.7296 H   0  0  0  0  0  0  0  0  0  0  0  0
   47.5173    3.1545   18.5400 H   0  0  0  0  0  0  0  0  0  0  0  0
   47.7796    6.0239   17.4930 H   0  0  0  0  0  0  0  0  0  0  0  0
   49.6858    4.2507   16.6399 H   0  0  0  0  0  0  0  0  0  0  0  0
   48.2724    5.0236   20.3356 H   0  0  0  0  0  0  0  0  0  0  0  0
   46.0366    3.7889   16.8533 H   0  0  0  0  0  0  0  0  0  0  0  0
   47.0822    2.6373   16.3436 H   0  0  0  0  0  0  0  0  0  0  0  0
   50.3687    5.9510   18.2715 H   0  0  0  0  0  0  0  0  0  0  0  0
   46.2620    6.2427   19.3177 H   0  0  0  0  0  0  0  0  0  0  0  0
   48.6338    7.5409   19.0347 H   0  0  0  0  0  0  0  0  0  0  0  0
   50.4291    2.2294   16.7525 H   0  0  0  0  0  0  0  0  0  0  0  0
   50.9317    6.4457   20.6930 H   0  0  0  0  0  0  0  0  0  0  0  0
   52.0225    5.2668   19.9327 H   0  0  0  0  0  0  0  0  0  0  0  0
   50.6500    3.6201   20.8168 H   0  0  0  0  0  0  0  0  0  0  0  0
   47.6206    3.5122   17.8934 H   0  0  0  0  0  0  0  0  0  0  0  0
   50.7499    4.6088   19.0518 H   0  0  0  0  0  0  0  0  0  0  0  0
  2  1  1  0
  3  1  1  0
  4  3  1  0
  5  2  1  0
  1  6  1  0
  7  4  1  0
  2  8  1  0
  5  9  1  0
  3 10  1  0
  7 11  1  0
 12 11  1  0
  5  7  1  0
 14 13  1  0
 15 13  1  0
 16 15  1  0
 17 14  1  0
 13 18  1  0
 19 16  1  0
 14 20  1  0
 17 21  1  0
 15 22  1  0
 19 23  1  0
 24 23  1  0
 17 19  1  0
 25 26  2  0
 25 27  1  0
 25 28  1  0
 25 29  2  0
  1 30  1  6
  2 31  1  1
  3 32  1  6
  5 33  1  1
  6 34  1  0
  6 35  1  0
  7 36  1  1
  8 37  1  0
  9 38  1  0
 10 39  1  0
 11 40  1  0
 11 41  1  0
 12 42  1  0
 13 43  1  6
 14 44  1  1
 15 45  1  1
 17 46  1  6
 18 47  1  0
 18 48  1  0
 19 49  1  1
 20 50  1  0
 21 51  1  0
 22 52  1  0
 23 53  1  0
 23 54  1  0
 24 55  1  0
 27 56  1  0
 28 57  1  0
M  END
> <Uni-Dock RESULT> 
ENERGY=   -4.112  LOWER_BOUND=    7.086  UPPER_BOUND=    8.633
INTER + INTRA:          -4.112
INTER:                  -4.112
INTRA:                   0.000
UNBOUND:                 0.000

$$$$
