
     RDKit          3D

 57 56  0  0  0  0  0  0  0  0999 V2000
   44.0278    3.0368   10.1579 C   0  0  2  0  0  0  0  0  0  0  0  0
   45.0506    3.9872    9.5167 C   0  0  2  0  0  0  0  0  0  0  0  0
   43.9445    3.2771   11.6942 C   0  0  2  0  0  0  0  0  0  0  0  0
   45.1029    3.9272   12.1911 O   0  0  0  0  0  0  0  0  0  0  0  0
   44.9398    5.3654   10.1587 C   0  0  1  0  0  0  0  0  0  0  0  0
   44.3556    1.6433    9.7523 N   0  0  0  0  0  0  0  0  0  0  0  0
   45.3126    5.2496   11.6496 C   0  0  1  0  0  0  0  0  0  0  0  0
   44.8171    4.0851    8.1032 O   0  0  0  0  0  0  0  0  0  0  0  0
   45.8128    6.2865    9.4980 O   0  0  0  0  0  0  0  0  0  0  0  0
   43.8426    2.0218   12.3623 O   0  0  0  0  0  0  0  0  0  0  0  0
   44.6158    6.3095   12.5135 C   0  0  0  0  0  0  0  0  0  0  0  0
   43.1959    6.2086   12.4211 O   0  0  0  0  0  0  0  0  0  0  0  0
   44.6617    2.9704    9.8121 C   0  0  2  0  0  0  0  0  0  0  0  0
   43.6327    3.2843   10.9061 C   0  0  2  0  0  0  0  0  0  0  0  0
   45.1360    4.3073    9.1909 C   0  0  1  0  0  0  0  0  0  0  0  0
   45.7433    5.1076   10.2003 O   0  0  0  0  0  0  0  0  0  0  0  0
   44.2340    4.2509   11.9350 C   0  0  1  0  0  0  0  0  0  0  0  0
   44.1577    2.0001    8.8116 N   0  0  0  0  0  0  0  0  0  0  0  0
   44.8193    5.4854   11.2262 C   0  0  1  0  0  0  0  0  0  0  0  0
   43.2211    2.0728   11.5577 O   0  0  0  0  0  0  0  0  0  0  0  0
   43.2000    4.5928   12.8647 O   0  0  0  0  0  0  0  0  0  0  0  0
   46.0816    4.0665    8.1588 O   0  0  0  0  0  0  0  0  0  0  0  0
   45.5576    6.3929   12.2206 C   0  0  0  0  0  0  0  0  0  0  0  0
   44.6738    6.8675   13.2365 O   0  0  0  0  0  0  0  0  0  0  0  0
   44.3895    4.1712   11.2739 S   0  0  0  0  0  0  0  0  0  0  0  0
   45.2032    3.2360   12.0085 O   0  0  0  0  0  0  0  0  0  0  0  0
   44.1699    3.5299    9.8204 O   0  0  0  0  0  0  0  0  0  0  0  0
   45.2841    5.4544   10.9200 O   0  0  0  0  0  0  0  0  0  0  0  0
   43.1222    4.6739   11.7421 O   0  0  0  0  0  0  0  0  0  0  0  0
   43.0336    3.2304    9.7338 H   0  0  0  0  0  0  0  0  0  0  0  0
   46.0770    3.6131    9.6313 H   0  0  0  0  0  0  0  0  0  0  0  0
   43.0422    3.8419   11.9427 H   0  0  0  0  0  0  0  0  0  0  0  0
   43.9258    5.7529   10.0184 H   0  0  0  0  0  0  0  0  0  0  0  0
   45.1908    1.3787   10.2831 H   0  0  0  0  0  0  0  0  0  0  0  0
   43.6428    1.0417   10.1932 H   0  0  0  0  0  0  0  0  0  0  0  0
   46.3907    5.4302   11.7568 H   0  0  0  0  0  0  0  0  0  0  0  0
   44.6829    3.1561    7.8195 H   0  0  0  0  0  0  0  0  0  0  0  0
   45.7507    6.0528    8.5478 H   0  0  0  0  0  0  0  0  0  0  0  0
   43.9129    2.2594   13.3078 H   0  0  0  0  0  0  0  0  0  0  0  0
   44.8824    6.1702   13.5656 H   0  0  0  0  0  0  0  0  0  0  0  0
   44.9106    7.3160   12.1977 H   0  0  0  0  0  0  0  0  0  0  0  0
   42.8303    6.9317   12.9609 H   0  0  0  0  0  0  0  0  0  0  0  0
   45.5246    2.4798   10.2831 H   0  0  0  0  0  0  0  0  0  0  0  0
   42.7250    3.7207   10.4695 H   0  0  0  0  0  0  0  0  0  0  0  0
   44.2997    4.8533    8.7396 H   0  0  0  0  0  0  0  0  0  0  0  0
   45.0146    3.7269   12.5007 H   0  0  0  0  0  0  0  0  0  0  0  0
   43.3426    2.3943    8.3385 H   0  0  0  0  0  0  0  0  0  0  0  0
   43.7810    1.2118    9.3528 H   0  0  0  0  0  0  0  0  0  0  0  0
   44.0031    6.0729   10.7840 H   0  0  0  0  0  0  0  0  0  0  0  0
   42.7882    2.3628   12.3875 H   0  0  0  0  0  0  0  0  0  0  0  0
   43.5593    5.3195   13.4227 H   0  0  0  0  0  0  0  0  0  0  0  0
   46.1661    3.0995    8.0874 H   0  0  0  0  0  0  0  0  0  0  0  0
   46.0060    7.2495   11.6969 H   0  0  0  0  0  0  0  0  0  0  0  0
   46.3757    5.8499   12.7034 H   0  0  0  0  0  0  0  0  0  0  0  0
   44.5858    7.8336   13.0908 H   0  0  0  0  0  0  0  0  0  0  0  0
   44.8828    2.8693    9.6902 H   0  0  0  0  0  0  0  0  0  0  0  0
   44.6695    6.1857   10.6986 H   0  0  0  0  0  0  0  0  0  0  0  0
  2  1  1  0
  3  1  1  0
  4  3  1  0
  5  2  1  0
  1  6  1  0
  7  4  1  0
  2  8  1  0
  5  9  1  0
  3 10  1  0
  7 11  1  0
 12 11  1  0
  5  7  1  0
 14 13  1  0
 15 13  1  0
 16 15  1  0
 17 14  1  0
 13 18  1  0
 19 16  1  0
 14 20  1  0
 17 21  1  0
 15 22  1  0
 19 23  1  0
 24 23  1  0
 17 19  1  0
 25 26  2  0
 25 27  1  0
 25 28  1  0
 25 29  2  0
  1 30  1  6
  2 31  1  1
  3 32  1  6
  5 33  1  6
  6 34  1  0
  6 35  1  0
  7 36  1  1
  8 37  1  0
  9 38  1  0
 10 39  1  0
 11 40  1  0
 11 41  1  0
 12 42  1  0
 13 43  1  1
 14 44  1  6
 15 45  1  6
 17 46  1  1
 18 47  1  0
 18 48  1  0
 19 49  1  6
 20 50  1  0
 21 51  1  0
 22 52  1  0
 23 53  1  0
 23 54  1  0
 24 55  1  0
 27 56  1  0
 28 57  1  0
M  END
> <Uni-Dock RESULT> 
ENERGY=   -6.183  LOWER_BOUND=    0.000  UPPER_BOUND=    0.000
INTER + INTRA:          -6.183
INTER:                  -6.183
INTRA:                   0.000
UNBOUND:                 0.000

$$$$

     RDKit          3D

 57 56  0  0  0  0  0  0  0  0999 V2000
   45.7672    7.2057   12.8281 C   0  0  2  0  0  0  0  0  0  0  0  0
   46.7244    6.0467   13.1461 C   0  0  2  0  0  0  0  0  0  0  0  0
   44.5741    6.7085   11.9596 C   0  0  2  0  0  0  0  0  0  0  0  0
   44.8763    5.4943   11.2919 O   0  0  0  0  0  0  0  0  0  0  0  0
   45.9196    4.7871   13.4452 C   0  0  1  0  0  0  0  0  0  0  0  0
   46.5543    8.3237   12.2412 N   0  0  0  0  0  0  0  0  0  0  0  0
   45.1383    4.3852   12.1790 C   0  0  1  0  0  0  0  0  0  0  0  0
   47.5486    6.3806   14.2736 O   0  0  0  0  0  0  0  0  0  0  0  0
   46.7950    3.7287   13.8462 O   0  0  0  0  0  0  0  0  0  0  0  0
   44.2820    7.6817   10.9596 O   0  0  0  0  0  0  0  0  0  0  0  0
   43.8432    3.6284   12.5032 C   0  0  0  0  0  0  0  0  0  0  0  0
   42.9679    4.4122   13.3121 O   0  0  0  0  0  0  0  0  0  0  0  0
   46.4545    7.0344   12.6728 C   0  0  2  0  0  0  0  0  0  0  0  0
   44.9203    7.0218   12.6670 C   0  0  2  0  0  0  0  0  0  0  0  0
   46.9492    5.8038   13.4722 C   0  0  1  0  0  0  0  0  0  0  0  0
   46.4853    4.6140   12.8420 O   0  0  0  0  0  0  0  0  0  0  0  0
   44.4052    5.6889   12.1077 C   0  0  1  0  0  0  0  0  0  0  0  0
   47.0160    8.3178   13.1567 N   0  0  0  0  0  0  0  0  0  0  0  0
   45.0576    4.5115   12.8541 C   0  0  1  0  0  0  0  0  0  0  0  0
   44.4215    8.1090   11.8729 O   0  0  0  0  0  0  0  0  0  0  0  0
   42.9785    5.6903   12.2287 O   0  0  0  0  0  0  0  0  0  0  0  0
   48.3687    5.7807   13.5186 O   0  0  0  0  0  0  0  0  0  0  0  0
   44.6716    3.1710   12.2125 C   0  0  0  0  0  0  0  0  0  0  0  0
   43.2588    2.9690   12.2557 O   0  0  0  0  0  0  0  0  0  0  0  0
   44.9949    5.8255   12.4258 S   0  0  0  0  0  0  0  0  0  0  0  0
   45.2114    6.0746   11.0232 O   0  0  0  0  0  0  0  0  0  0  0  0
   46.0043    6.7909   13.2141 O   0  0  0  0  0  0  0  0  0  0  0  0
   45.5954    4.3822   12.7842 O   0  0  0  0  0  0  0  0  0  0  0  0
   43.7052    5.9011   13.0654 O   0  0  0  0  0  0  0  0  0  0  0  0
   45.3564    7.6073   13.7638 H   0  0  0  0  0  0  0  0  0  0  0  0
   47.4123    5.8505   12.3126 H   0  0  0  0  0  0  0  0  0  0  0  0
   43.6748    6.6046   12.5722 H   0  0  0  0  0  0  0  0  0  0  0  0
   45.2556    4.9715   14.2955 H   0  0  0  0  0  0  0  0  0  0  0  0
   46.7961    8.0355   11.2884 H   0  0  0  0  0  0  0  0  0  0  0  0
   45.8794    9.0810   12.0530 H   0  0  0  0  0  0  0  0  0  0  0  0
   45.7559    3.6935   11.5904 H   0  0  0  0  0  0  0  0  0  0  0  0
   47.8441    7.2972   14.0889 H   0  0  0  0  0  0  0  0  0  0  0  0
   47.4730    4.1629   14.4057 H   0  0  0  0  0  0  0  0  0  0  0  0
   43.6121    7.2413   10.4005 H   0  0  0  0  0  0  0  0  0  0  0  0
   43.3058    3.3921   11.5798 H   0  0  0  0  0  0  0  0  0  0  0  0
   44.0659    2.6987   13.0379 H   0  0  0  0  0  0  0  0  0  0  0  0
   42.1938    3.8541   13.5051 H   0  0  0  0  0  0  0  0  0  0  0  0
   46.8025    6.9384   11.6351 H   0  0  0  0  0  0  0  0  0  0  0  0
   44.5284    7.1779   13.6805 H   0  0  0  0  0  0  0  0  0  0  0  0
   46.5943    5.8358   14.5086 H   0  0  0  0  0  0  0  0  0  0  0  0
   44.6371    5.6401   11.0363 H   0  0  0  0  0  0  0  0  0  0  0  0
   46.7211    8.4736   14.1223 H   0  0  0  0  0  0  0  0  0  0  0  0
   46.5347    9.0519   12.6224 H   0  0  0  0  0  0  0  0  0  0  0  0
   44.7016    4.4965   13.8932 H   0  0  0  0  0  0  0  0  0  0  0  0
   43.4826    7.8892   11.6989 H   0  0  0  0  0  0  0  0  0  0  0  0
   42.6813    4.7791   12.0049 H   0  0  0  0  0  0  0  0  0  0  0  0
   48.6692    6.5793   13.0504 H   0  0  0  0  0  0  0  0  0  0  0  0
   45.1754    2.3407   12.7281 H   0  0  0  0  0  0  0  0  0  0  0  0
   44.9913    3.1384   11.1666 H   0  0  0  0  0  0  0  0  0  0  0  0
   43.1099    2.2198   12.8712 H   0  0  0  0  0  0  0  0  0  0  0  0
   46.7107    7.0413   12.5818 H   0  0  0  0  0  0  0  0  0  0  0  0
   45.1905    4.1007   13.6318 H   0  0  0  0  0  0  0  0  0  0  0  0
  2  1  1  0
  3  1  1  0
  4  3  1  0
  5  2  1  0
  1  6  1  0
  7  4  1  0
  2  8  1  0
  5  9  1  0
  3 10  1  0
  7 11  1  0
 12 11  1  0
  5  7  1  0
 14 13  1  0
 15 13  1  0
 16 15  1  0
 17 14  1  0
 13 18  1  0
 19 16  1  0
 14 20  1  0
 17 21  1  0
 15 22  1  0
 19 23  1  0
 24 23  1  0
 17 19  1  0
 25 26  2  0
 25 27  1  0
 25 28  1  0
 25 29  2  0
  1 30  1  6
  2 31  1  1
  3 32  1  6
  5 33  1  6
  6 34  1  0
  6 35  1  0
  7 36  1  1
  8 37  1  0
  9 38  1  0
 10 39  1  0
 11 40  1  0
 11 41  1  0
 12 42  1  0
 13 43  1  1
 14 44  1  6
 15 45  1  6
 17 46  1  1
 18 47  1  0
 18 48  1  0
 19 49  1  6
 20 50  1  0
 21 51  1  0
 22 52  1  0
 23 53  1  0
 23 54  1  0
 24 55  1  0
 27 56  1  0
 28 57  1  0
M  END
> <Uni-Dock RESULT> 
ENERGY=   -6.068  LOWER_BOUND=    2.639  UPPER_BOUND=    4.393
INTER + INTRA:          -6.068
INTER:                  -6.068
INTRA:                   0.000
UNBOUND:                 0.000

$$$$

     RDKit          3D

 57 56  0  0  0  0  0  0  0  0999 V2000
   46.9774    5.7462   13.0993 C   0  0  2  0  0  0  0  0  0  0  0  0
   46.0945    6.9912   12.9227 C   0  0  2  0  0  0  0  0  0  0  0  0
   46.0995    4.4695   13.2546 C   0  0  2  0  0  0  0  0  0  0  0  0
   44.7785    4.7830   13.6647 O   0  0  0  0  0  0  0  0  0  0  0  0
   44.9122    6.6552   12.0210 C   0  0  1  0  0  0  0  0  0  0  0  0
   47.9330    5.9962   14.2120 N   0  0  0  0  0  0  0  0  0  0  0  0
   44.0446    5.5886   12.7172 C   0  0  1  0  0  0  0  0  0  0  0  0
   46.8590    8.0629   12.3492 O   0  0  0  0  0  0  0  0  0  0  0  0
   44.1412    7.8326   11.7630 O   0  0  0  0  0  0  0  0  0  0  0  0
   46.6663    3.6273   14.2557 O   0  0  0  0  0  0  0  0  0  0  0  0
   43.2886    4.7025   11.7180 C   0  0  0  0  0  0  0  0  0  0  0  0
   44.1844    4.0178   10.8441 O   0  0  0  0  0  0  0  0  0  0  0  0
   46.8443    6.3531   13.4733 C   0  0  2  0  0  0  0  0  0  0  0  0
   46.6577    4.9633   12.8508 C   0  0  2  0  0  0  0  0  0  0  0  0
   45.9944    7.3663   12.6675 C   0  0  1  0  0  0  0  0  0  0  0  0
   44.6219    6.9931   12.7388 O   0  0  0  0  0  0  0  0  0  0  0  0
   45.1672    4.6015   12.8037 C   0  0  1  0  0  0  0  0  0  0  0  0
   48.2695    6.7414   13.5934 N   0  0  0  0  0  0  0  0  0  0  0  0
   44.3683    5.7266   12.1219 C   0  0  1  0  0  0  0  0  0  0  0  0
   47.3738    3.9809   13.6149 O   0  0  0  0  0  0  0  0  0  0  0  0
   45.0461    3.3508   12.1170 O   0  0  0  0  0  0  0  0  0  0  0  0
   46.1473    8.6747   13.1986 O   0  0  0  0  0  0  0  0  0  0  0  0
   42.8591    5.4543   12.1977 C   0  0  0  0  0  0  0  0  0  0  0  0
   42.5233    4.2351   11.5349 O   0  0  0  0  0  0  0  0  0  0  0  0
   45.4631    5.2179   12.7977 S   0  0  0  0  0  0  0  0  0  0  0  0
   45.2776    4.8589   14.1808 O   0  0  0  0  0  0  0  0  0  0  0  0
   46.7357    6.1929   12.7539 O   0  0  0  0  0  0  0  0  0  0  0  0
   44.2850    6.2187   12.3702 O   0  0  0  0  0  0  0  0  0  0  0  0
   45.5916    4.2589   11.7291 O   0  0  0  0  0  0  0  0  0  0  0  0
   47.6057    5.6149   12.2085 H   0  0  0  0  0  0  0  0  0  0  0  0
   45.7231    7.3633   13.8872 H   0  0  0  0  0  0  0  0  0  0  0  0
   46.0943    3.8957   12.3243 H   0  0  0  0  0  0  0  0  0  0  0  0
   45.2805    6.3134   11.0485 H   0  0  0  0  0  0  0  0  0  0  0  0
   47.3870    5.9424   15.0771 H   0  0  0  0  0  0  0  0  0  0  0  0
   48.5106    5.1449   14.2900 H   0  0  0  0  0  0  0  0  0  0  0  0
   43.2762    6.0970   13.3152 H   0  0  0  0  0  0  0  0  0  0  0  0
   47.6971    8.0561   12.8584 H   0  0  0  0  0  0  0  0  0  0  0  0
   44.8038    8.5470   11.6542 H   0  0  0  0  0  0  0  0  0  0  0  0
   45.9989    2.9218   14.3659 H   0  0  0  0  0  0  0  0  0  0  0  0
   42.7130    3.9410   12.2529 H   0  0  0  0  0  0  0  0  0  0  0  0
   42.6076    5.3063   11.1086 H   0  0  0  0  0  0  0  0  0  0  0  0
   43.6327    3.5119   10.2215 H   0  0  0  0  0  0  0  0  0  0  0  0
   46.4643    6.3217   14.5036 H   0  0  0  0  0  0  0  0  0  0  0  0
   47.0816    4.9326   11.8387 H   0  0  0  0  0  0  0  0  0  0  0  0
   46.3128    7.4056   11.6195 H   0  0  0  0  0  0  0  0  0  0  0  0
   44.8079    4.4420   13.8281 H   0  0  0  0  0  0  0  0  0  0  0  0
   48.6890    6.7818   12.6627 H   0  0  0  0  0  0  0  0  0  0  0  0
   48.7374    5.9478   14.0488 H   0  0  0  0  0  0  0  0  0  0  0  0
   44.6433    5.7766   11.0595 H   0  0  0  0  0  0  0  0  0  0  0  0
   47.0059    3.1181   13.3315 H   0  0  0  0  0  0  0  0  0  0  0  0
   44.0835    3.2097   11.9677 H   0  0  0  0  0  0  0  0  0  0  0  0
   46.7849    8.5986   13.9300 H   0  0  0  0  0  0  0  0  0  0  0  0
   42.2972    6.2836   11.7441 H   0  0  0  0  0  0  0  0  0  0  0  0
   42.5331    5.3798   13.2395 H   0  0  0  0  0  0  0  0  0  0  0  0
   41.9960    4.4897   10.7478 H   0  0  0  0  0  0  0  0  0  0  0  0
   46.8509    6.5514   13.6593 H   0  0  0  0  0  0  0  0  0  0  0  0
   44.2428    6.2171   11.3905 H   0  0  0  0  0  0  0  0  0  0  0  0
  2  1  1  0
  3  1  1  0
  4  3  1  0
  5  2  1  0
  1  6  1  0
  7  4  1  0
  2  8  1  0
  5  9  1  0
  3 10  1  0
  7 11  1  0
 12 11  1  0
  5  7  1  0
 14 13  1  0
 15 13  1  0
 16 15  1  0
 17 14  1  0
 13 18  1  0
 19 16  1  0
 14 20  1  0
 17 21  1  0
 15 22  1  0
 19 23  1  0
 24 23  1  0
 17 19  1  0
 25 26  2  0
 25 27  1  0
 25 28  1  0
 25 29  2  0
  1 30  1  6
  2 31  1  1
  3 32  1  6
  5 33  1  6
  6 34  1  0
  6 35  1  0
  7 36  1  1
  8 37  1  0
  9 38  1  0
 10 39  1  0
 11 40  1  0
 11 41  1  0
 12 42  1  0
 13 43  1  1
 14 44  1  6
 15 45  1  6
 17 46  1  1
 18 47  1  0
 18 48  1  0
 19 49  1  6
 20 50  1  0
 21 51  1  0
 22 52  1  0
 23 53  1  0
 23 54  1  0
 24 55  1  0
 27 56  1  0
 28 57  1  0
M  END
> <Uni-Dock RESULT> 
ENERGY=   -5.594  LOWER_BOUND=    2.691  UPPER_BOUND=    4.073
INTER + INTRA:          -5.594
INTER:                  -5.594
INTRA:                   0.000
UNBOUND:                 0.000

$$$$

     RDKit          3D

 57 56  0  0  0  0  0  0  0  0999 V2000
   44.8434    3.0069    9.8825 C   0  0  2  0  0  0  0  0  0  0  0  0
   43.7902    2.9391   10.9991 C   0  0  2  0  0  0  0  0  0  0  0  0
   44.9160    4.4427    9.2842 C   0  0  2  0  0  0  0  0  0  0  0  0
   43.7356    5.1843    9.5450 O   0  0  0  0  0  0  0  0  0  0  0  0
   43.8536    4.2099   11.8388 C   0  0  1  0  0  0  0  0  0  0  0  0
   44.5633    1.9253    8.8998 N   0  0  0  0  0  0  0  0  0  0  0  0
   43.4825    5.4118   10.9485 C   0  0  1  0  0  0  0  0  0  0  0  0
   44.0226    1.7910   11.8298 O   0  0  0  0  0  0  0  0  0  0  0  0
   42.9513    4.1130   12.9449 O   0  0  0  0  0  0  0  0  0  0  0  0
   45.0590    4.3560    7.8683 O   0  0  0  0  0  0  0  0  0  0  0  0
   44.1419    6.7159   11.4172 C   0  0  0  0  0  0  0  0  0  0  0  0
   45.5646    6.6114   11.4192 O   0  0  0  0  0  0  0  0  0  0  0  0
   44.2126    2.6655    9.9896 C   0  0  2  0  0  0  0  0  0  0  0  0
   45.2287    3.7811    9.7120 C   0  0  2  0  0  0  0  0  0  0  0  0
   43.6947    2.8277   11.4400 C   0  0  1  0  0  0  0  0  0  0  0  0
   43.0591    4.0950   11.5753 O   0  0  0  0  0  0  0  0  0  0  0  0
   44.5936    5.1523    9.9788 C   0  0  1  0  0  0  0  0  0  0  0  0
   44.7506    1.3148    9.7021 N   0  0  0  0  0  0  0  0  0  0  0  0
   43.9683    5.1841   11.3848 C   0  0  1  0  0  0  0  0  0  0  0  0
   45.6797    3.7094    8.3507 O   0  0  0  0  0  0  0  0  0  0  0  0
   45.6141    6.1427    9.8113 O   0  0  0  0  0  0  0  0  0  0  0  0
   42.7594    1.8046   11.7497 O   0  0  0  0  0  0  0  0  0  0  0  0
   43.1983    6.4923   11.6156 C   0  0  0  0  0  0  0  0  0  0  0  0
   44.0640    7.6229   11.5117 O   0  0  0  0  0  0  0  0  0  0  0  0
   44.4419    4.5446   10.2531 S   0  0  0  0  0  0  0  0  0  0  0  0
   43.6589    4.6649    9.0495 O   0  0  0  0  0  0  0  0  0  0  0  0
   44.6853    2.9750   10.4752 O   0  0  0  0  0  0  0  0  0  0  0  0
   43.5052    4.8982   11.5060 O   0  0  0  0  0  0  0  0  0  0  0  0
   45.6908    5.2307   10.4709 O   0  0  0  0  0  0  0  0  0  0  0  0
   45.8312    2.7659   10.2971 H   0  0  0  0  0  0  0  0  0  0  0  0
   42.7768    2.8213   10.5921 H   0  0  0  0  0  0  0  0  0  0  0  0
   45.7984    4.9673    9.6597 H   0  0  0  0  0  0  0  0  0  0  0  0
   44.8542    4.3126   12.2703 H   0  0  0  0  0  0  0  0  0  0  0  0
   43.7366    2.2229    8.3732 H   0  0  0  0  0  0  0  0  0  0  0  0
   45.2952    1.9992    8.1765 H   0  0  0  0  0  0  0  0  0  0  0  0
   42.3988    5.5772   11.0161 H   0  0  0  0  0  0  0  0  0  0  0  0
   44.1884    1.0654   11.1914 H   0  0  0  0  0  0  0  0  0  0  0  0
   43.0227    3.1826   13.2457 H   0  0  0  0  0  0  0  0  0  0  0  0
   44.9793    5.2844    7.5731 H   0  0  0  0  0  0  0  0  0  0  0  0
   43.8784    7.5339   10.7399 H   0  0  0  0  0  0  0  0  0  0  0  0
   43.8139    6.9686   12.4313 H   0  0  0  0  0  0  0  0  0  0  0  0
   45.9047    7.4568   11.7620 H   0  0  0  0  0  0  0  0  0  0  0  0
   43.3660    2.7932    9.3012 H   0  0  0  0  0  0  0  0  0  0  0  0
   46.1220    3.6552   10.3376 H   0  0  0  0  0  0  0  0  0  0  0  0
   44.5129    2.7452   12.1645 H   0  0  0  0  0  0  0  0  0  0  0  0
   43.8301    5.3448    9.2146 H   0  0  0  0  0  0  0  0  0  0  0  0
   45.5527    1.1338   10.3082 H   0  0  0  0  0  0  0  0  0  0  0  0
   45.1527    1.3700    8.7579 H   0  0  0  0  0  0  0  0  0  0  0  0
   44.7649    5.1307   12.1393 H   0  0  0  0  0  0  0  0  0  0  0  0
   46.1013    4.5762    8.1747 H   0  0  0  0  0  0  0  0  0  0  0  0
   45.2296    6.9918   10.1274 H   0  0  0  0  0  0  0  0  0  0  0  0
   42.7076    1.2357   10.9616 H   0  0  0  0  0  0  0  0  0  0  0  0
   42.7222    6.4865   12.6068 H   0  0  0  0  0  0  0  0  0  0  0  0
   42.3981    6.6035   10.8776 H   0  0  0  0  0  0  0  0  0  0  0  0
   44.1197    8.0065   12.4129 H   0  0  0  0  0  0  0  0  0  0  0  0
   43.9953    2.5045    9.9613 H   0  0  0  0  0  0  0  0  0  0  0  0
   44.0953    5.1045   12.2616 H   0  0  0  0  0  0  0  0  0  0  0  0
  2  1  1  0
  3  1  1  0
  4  3  1  0
  5  2  1  0
  1  6  1  0
  7  4  1  0
  2  8  1  0
  5  9  1  0
  3 10  1  0
  7 11  1  0
 12 11  1  0
  5  7  1  0
 14 13  1  0
 15 13  1  0
 16 15  1  0
 17 14  1  0
 13 18  1  0
 19 16  1  0
 14 20  1  0
 17 21  1  0
 15 22  1  0
 19 23  1  0
 24 23  1  0
 17 19  1  0
 25 26  2  0
 25 27  1  0
 25 28  1  0
 25 29  2  0
  1 30  1  6
  2 31  1  1
  3 32  1  6
  5 33  1  6
  6 34  1  0
  6 35  1  0
  7 36  1  1
  8 37  1  0
  9 38  1  0
 10 39  1  0
 11 40  1  0
 11 41  1  0
 12 42  1  0
 13 43  1  1
 14 44  1  6
 15 45  1  6
 17 46  1  1
 18 47  1  0
 18 48  1  0
 19 49  1  6
 20 50  1  0
 21 51  1  0
 22 52  1  0
 23 53  1  0
 23 54  1  0
 24 55  1  0
 27 56  1  0
 28 57  1  0
M  END
> <Uni-Dock RESULT> 
ENERGY=   -5.573  LOWER_BOUND=    0.958  UPPER_BOUND=    2.928
INTER + INTRA:          -5.573
INTER:                  -5.573
INTRA:                   0.000
UNBOUND:                 0.000

$$$$

     RDKit          3D

 57 56  0  0  0  0  0  0  0  0999 V2000
   44.7328    4.1258   12.1424 C   0  0  2  0  0  0  0  0  0  0  0  0
   45.1403    5.3479   11.3052 C   0  0  2  0  0  0  0  0  0  0  0  0
   44.0196    3.0652   11.2527 C   0  0  2  0  0  0  0  0  0  0  0  0
   43.5030    3.6358   10.0615 O   0  0  0  0  0  0  0  0  0  0  0  0
   45.6586    4.8871    9.9476 C   0  0  1  0  0  0  0  0  0  0  0  0
   43.9502    4.5953   13.3175 N   0  0  0  0  0  0  0  0  0  0  0  0
   44.5122    4.1898    9.1895 C   0  0  1  0  0  0  0  0  0  0  0  0
   46.1559    6.0993   11.9879 O   0  0  0  0  0  0  0  0  0  0  0  0
   46.1399    6.0079    9.1996 O   0  0  0  0  0  0  0  0  0  0  0  0
   42.9191    2.5119   11.9705 O   0  0  0  0  0  0  0  0  0  0  0  0
   45.0199    3.1312    8.2012 C   0  0  0  0  0  0  0  0  0  0  0  0
   45.7718    2.1156    8.8631 O   0  0  0  0  0  0  0  0  0  0  0  0
   44.5571    4.8289   12.1194 C   0  0  2  0  0  0  0  0  0  0  0  0
   44.6541    3.3455   11.7399 C   0  0  2  0  0  0  0  0  0  0  0  0
   45.4807    5.6356   11.1735 C   0  0  1  0  0  0  0  0  0  0  0  0
   45.0483    5.4591    9.8281 O   0  0  0  0  0  0  0  0  0  0  0  0
   44.3145    3.1568   10.2554 C   0  0  1  0  0  0  0  0  0  0  0  0
   44.8258    5.0724   13.5564 N   0  0  0  0  0  0  0  0  0  0  0  0
   45.1680    4.1015    9.3905 C   0  0  1  0  0  0  0  0  0  0  0  0
   43.7553    2.5703   12.5480 O   0  0  0  0  0  0  0  0  0  0  0  0
   44.5278    1.7779    9.9337 O   0  0  0  0  0  0  0  0  0  0  0  0
   45.4362    7.0178   11.4972 O   0  0  0  0  0  0  0  0  0  0  0  0
   44.7396    4.0371    7.9174 C   0  0  0  0  0  0  0  0  0  0  0  0
   44.9024    2.7194    7.3924 O   0  0  0  0  0  0  0  0  0  0  0  0
   44.5718    3.7044   10.5741 S   0  0  0  0  0  0  0  0  0  0  0  0
   43.1372    3.8094   10.6592 O   0  0  0  0  0  0  0  0  0  0  0  0
   45.1547    4.4694   11.8575 O   0  0  0  0  0  0  0  0  0  0  0  0
   45.0809    4.6521    9.3846 O   0  0  0  0  0  0  0  0  0  0  0  0
   45.2788    2.4562   10.4323 O   0  0  0  0  0  0  0  0  0  0  0  0
   45.6310    3.6581   12.5669 H   0  0  0  0  0  0  0  0  0  0  0  0
   44.2973    6.0368   11.1589 H   0  0  0  0  0  0  0  0  0  0  0  0
   44.6984    2.2385   11.0280 H   0  0  0  0  0  0  0  0  0  0  0  0
   46.5182    4.2248   10.0907 H   0  0  0  0  0  0  0  0  0  0  0  0
   43.0311    4.8708   12.9590 H   0  0  0  0  0  0  0  0  0  0  0  0
   43.7066    3.7494   13.8557 H   0  0  0  0  0  0  0  0  0  0  0  0
   43.9828    4.9399    8.5868 H   0  0  0  0  0  0  0  0  0  0  0  0
   45.8304    6.1545   12.9113 H   0  0  0  0  0  0  0  0  0  0  0  0
   46.5901    6.5753    9.8604 H   0  0  0  0  0  0  0  0  0  0  0  0
   42.4697    1.9538   11.3057 H   0  0  0  0  0  0  0  0  0  0  0  0
   44.1741    2.6400    7.7106 H   0  0  0  0  0  0  0  0  0  0  0  0
   45.6591    3.5920    7.4404 H   0  0  0  0  0  0  0  0  0  0  0  0
   46.0886    1.5087    8.1707 H   0  0  0  0  0  0  0  0  0  0  0  0
   43.5212    5.1575   11.9582 H   0  0  0  0  0  0  0  0  0  0  0  0
   45.6609    2.9589   11.9448 H   0  0  0  0  0  0  0  0  0  0  0  0
   46.5244    5.3159   11.2714 H   0  0  0  0  0  0  0  0  0  0  0  0
   43.2465    3.3602   10.1068 H   0  0  0  0  0  0  0  0  0  0  0  0
   45.7789    4.7784   13.7771 H   0  0  0  0  0  0  0  0  0  0  0  0
   44.2303    4.4090   14.0678 H   0  0  0  0  0  0  0  0  0  0  0  0
   46.2209    3.7924    9.4434 H   0  0  0  0  0  0  0  0  0  0  0  0
   43.6747    1.7093   12.0872 H   0  0  0  0  0  0  0  0  0  0  0  0
   44.4487    1.7071    8.9552 H   0  0  0  0  0  0  0  0  0  0  0  0
   44.8460    7.0981   12.2670 H   0  0  0  0  0  0  0  0  0  0  0  0
   45.3280    4.7453    7.3163 H   0  0  0  0  0  0  0  0  0  0  0  0
   43.6888    4.3224    7.8092 H   0  0  0  0  0  0  0  0  0  0  0  0
   45.6217    2.7784    6.7279 H   0  0  0  0  0  0  0  0  0  0  0  0
   44.4493    5.0726   12.1739 H   0  0  0  0  0  0  0  0  0  0  0  0
   45.9835    4.3553    9.1420 H   0  0  0  0  0  0  0  0  0  0  0  0
  2  1  1  0
  3  1  1  0
  4  3  1  0
  5  2  1  0
  1  6  1  0
  7  4  1  0
  2  8  1  0
  5  9  1  0
  3 10  1  0
  7 11  1  0
 12 11  1  0
  5  7  1  0
 14 13  1  0
 15 13  1  0
 16 15  1  0
 17 14  1  0
 13 18  1  0
 19 16  1  0
 14 20  1  0
 17 21  1  0
 15 22  1  0
 19 23  1  0
 24 23  1  0
 17 19  1  0
 25 26  2  0
 25 27  1  0
 25 28  1  0
 25 29  2  0
  1 30  1  6
  2 31  1  1
  3 32  1  6
  5 33  1  6
  6 34  1  0
  6 35  1  0
  7 36  1  1
  8 37  1  0
  9 38  1  0
 10 39  1  0
 11 40  1  0
 11 41  1  0
 12 42  1  0
 13 43  1  1
 14 44  1  6
 15 45  1  6
 17 46  1  1
 18 47  1  0
 18 48  1  0
 19 49  1  6
 20 50  1  0
 21 51  1  0
 22 52  1  0
 23 53  1  0
 23 54  1  0
 24 55  1  0
 27 56  1  0
 28 57  1  0
M  END
> <Uni-Dock RESULT> 
ENERGY=   -5.506  LOWER_BOUND=    1.691  UPPER_BOUND=    3.415
INTER + INTRA:          -5.506
INTER:                  -5.506
INTRA:                   0.000
UNBOUND:                 0.000

$$$$

     RDKit          3D

 57 56  0  0  0  0  0  0  0  0999 V2000
   46.5829    6.6897   12.6960 C   0  0  2  0  0  0  0  0  0  0  0  0
   45.4031    7.6394   12.4377 C   0  0  2  0  0  0  0  0  0  0  0  0
   46.0738    5.2403   12.9515 C   0  0  2  0  0  0  0  0  0  0  0  0
   44.7128    5.2207   13.3499 O   0  0  0  0  0  0  0  0  0  0  0  0
   44.3619    6.9373   11.5736 C   0  0  1  0  0  0  0  0  0  0  0  0
   47.4263    7.2641   13.7788 N   0  0  0  0  0  0  0  0  0  0  0  0
   43.8012    5.7319   12.3532 C   0  0  1  0  0  0  0  0  0  0  0  0
   45.8617    8.8312   11.7810 O   0  0  0  0  0  0  0  0  0  0  0  0
   43.3088    7.8459   11.2381 O   0  0  0  0  0  0  0  0  0  0  0  0
   46.8334    4.6536   14.0057 O   0  0  0  0  0  0  0  0  0  0  0  0
   43.3180    4.6070   11.4278 C   0  0  0  0  0  0  0  0  0  0  0  0
   44.3725    4.1234   10.5977 O   0  0  0  0  0  0  0  0  0  0  0  0
   46.2896    7.2648   13.0261 C   0  0  2  0  0  0  0  0  0  0  0  0
   46.4851    5.8341   12.5078 C   0  0  2  0  0  0  0  0  0  0  0  0
   45.2097    7.9550   12.1569 C   0  0  1  0  0  0  0  0  0  0  0  0
   43.9848    7.2370   12.2677 O   0  0  0  0  0  0  0  0  0  0  0  0
   45.1446    5.0871   12.5007 C   0  0  1  0  0  0  0  0  0  0  0  0
   47.5593    8.0252   13.1047 N   0  0  0  0  0  0  0  0  0  0  0  0
   44.0829    5.9075   11.7465 C   0  0  1  0  0  0  0  0  0  0  0  0
   47.4283    5.1350   13.3345 O   0  0  0  0  0  0  0  0  0  0  0  0
   45.3670    3.8030   11.9076 O   0  0  0  0  0  0  0  0  0  0  0  0
   45.0043    9.2919   12.5904 O   0  0  0  0  0  0  0  0  0  0  0  0
   42.6994    5.2505   11.8557 C   0  0  0  0  0  0  0  0  0  0  0  0
   42.7062    3.9413   11.2861 O   0  0  0  0  0  0  0  0  0  0  0  0
   45.2664    5.7579   12.4474 S   0  0  0  0  0  0  0  0  0  0  0  0
   45.1685    5.4635   13.8545 O   0  0  0  0  0  0  0  0  0  0  0  0
   46.2350    7.0300   12.3213 O   0  0  0  0  0  0  0  0  0  0  0  0
   43.8694    6.3764   11.9593 O   0  0  0  0  0  0  0  0  0  0  0  0
   45.6559    4.7928   11.4500 O   0  0  0  0  0  0  0  0  0  0  0  0
   47.2328    6.6657   11.8113 H   0  0  0  0  0  0  0  0  0  0  0  0
   44.9363    7.9683   13.3761 H   0  0  0  0  0  0  0  0  0  0  0  0
   46.2308    4.6201   12.0653 H   0  0  0  0  0  0  0  0  0  0  0  0
   44.8178    6.6362   10.6251 H   0  0  0  0  0  0  0  0  0  0  0  0
   46.9051    7.1300   14.6505 H   0  0  0  0  0  0  0  0  0  0  0  0
   48.2082    6.6046   13.9130 H   0  0  0  0  0  0  0  0  0  0  0  0
   42.9194    6.0600   12.9198 H   0  0  0  0  0  0  0  0  0  0  0  0
   46.6661    9.0840   12.2816 H   0  0  0  0  0  0  0  0  0  0  0  0
   43.7591    8.7008   11.0716 H   0  0  0  0  0  0  0  0  0  0  0  0
   46.3760    3.8060   14.1729 H   0  0  0  0  0  0  0  0  0  0  0  0
   42.9596    3.7608   12.0219 H   0  0  0  0  0  0  0  0  0  0  0  0
   42.5076    4.9627   10.7826 H   0  0  0  0  0  0  0  0  0  0  0  0
   43.9814    3.4455   10.0185 H   0  0  0  0  0  0  0  0  0  0  0  0
   45.9209    7.2082   14.0595 H   0  0  0  0  0  0  0  0  0  0  0  0
   46.9125    5.8439   11.4967 H   0  0  0  0  0  0  0  0  0  0  0  0
   45.5172    8.0015   11.1059 H   0  0  0  0  0  0  0  0  0  0  0  0
   44.8299    4.9125   13.5373 H   0  0  0  0  0  0  0  0  0  0  0  0
   47.9627    8.1080   12.1698 H   0  0  0  0  0  0  0  0  0  0  0  0
   48.2163    7.4193   13.6121 H   0  0  0  0  0  0  0  0  0  0  0  0
   44.3458    5.9517   10.6808 H   0  0  0  0  0  0  0  0  0  0  0  0
   47.3055    4.1873   13.1178 H   0  0  0  0  0  0  0  0  0  0  0  0
   44.4780    3.4009   11.7778 H   0  0  0  0  0  0  0  0  0  0  0  0
   45.6316    9.4410   13.3194 H   0  0  0  0  0  0  0  0  0  0  0  0
   41.9424    5.8658   11.3484 H   0  0  0  0  0  0  0  0  0  0  0  0
   42.3940    5.1677   12.9032 H   0  0  0  0  0  0  0  0  0  0  0  0
   42.1384    3.9892   10.4876 H   0  0  0  0  0  0  0  0  0  0  0  0
   46.2414    7.4707   13.1972 H   0  0  0  0  0  0  0  0  0  0  0  0
   43.8394    6.2928   10.9827 H   0  0  0  0  0  0  0  0  0  0  0  0
  2  1  1  0
  3  1  1  0
  4  3  1  0
  5  2  1  0
  1  6  1  0
  7  4  1  0
  2  8  1  0
  5  9  1  0
  3 10  1  0
  7 11  1  0
 12 11  1  0
  5  7  1  0
 14 13  1  0
 15 13  1  0
 16 15  1  0
 17 14  1  0
 13 18  1  0
 19 16  1  0
 14 20  1  0
 17 21  1  0
 15 22  1  0
 19 23  1  0
 24 23  1  0
 17 19  1  0
 25 26  2  0
 25 27  1  0
 25 28  1  0
 25 29  2  0
  1 30  1  6
  2 31  1  1
  3 32  1  6
  5 33  1  6
  6 34  1  0
  6 35  1  0
  7 36  1  1
  8 37  1  0
  9 38  1  0
 10 39  1  0
 11 40  1  0
 11 41  1  0
 12 42  1  0
 13 43  1  1
 14 44  1  6
 15 45  1  6
 17 46  1  1
 18 47  1  0
 18 48  1  0
 19 49  1  6
 20 50  1  0
 21 51  1  0
 22 52  1  0
 23 53  1  0
 23 54  1  0
 24 55  1  0
 27 56  1  0
 28 57  1  0
M  END
> <Uni-Dock RESULT> 
ENERGY=   -5.461  LOWER_BOUND=    2.667  UPPER_BOUND=    4.223
INTER + INTRA:          -5.461
INTER:                  -5.461
INTRA:                   0.000
UNBOUND:                 0.000

$$$$

     RDKit          3D

 57 56  0  0  0  0  0  0  0  0999 V2000
   43.4387    3.3788   11.6843 C   0  0  2  0  0  0  0  0  0  0  0  0
   44.4859    3.4446   10.5620 C   0  0  2  0  0  0  0  0  0  0  0  0
   43.6335    4.5557   12.6853 C   0  0  2  0  0  0  0  0  0  0  0  0
   44.9424    5.0974   12.6159 O   0  0  0  0  0  0  0  0  0  0  0  0
   44.6935    4.8952   10.1416 C   0  0  1  0  0  0  0  0  0  0  0  0
   43.4771    2.0203   12.2900 N   0  0  0  0  0  0  0  0  0  0  0  0
   45.2702    5.6802   11.3359 C   0  0  1  0  0  0  0  0  0  0  0  0
   44.0543    2.6652    9.4359 O   0  0  0  0  0  0  0  0  0  0  0  0
   45.5869    4.9600    9.0259 O   0  0  0  0  0  0  0  0  0  0  0  0
   43.4409    4.0795   14.0152 O   0  0  0  0  0  0  0  0  0  0  0  0
   44.8907    7.1668   11.3001 C   0  0  0  0  0  0  0  0  0  0  0  0
   43.4756    7.3458   11.3169 O   0  0  0  0  0  0  0  0  0  0  0  0
   43.9930    2.9694   11.4585 C   0  0  2  0  0  0  0  0  0  0  0  0
   43.2083    4.1261   12.0911 C   0  0  2  0  0  0  0  0  0  0  0  0
   44.5689    3.4537   10.1049 C   0  0  1  0  0  0  0  0  0  0  0  0
   45.4433    4.5548   10.3309 O   0  0  0  0  0  0  0  0  0  0  0  0
   44.1058    5.3637   12.2226 C   0  0  1  0  0  0  0  0  0  0  0  0
   43.1941    1.7259   11.3494 N   0  0  0  0  0  0  0  0  0  0  0  0
   44.7604    5.6921   10.8688 C   0  0  1  0  0  0  0  0  0  0  0  0
   42.7179    3.7399   13.3842 O   0  0  0  0  0  0  0  0  0  0  0  0
   43.2951    6.4372   12.7131 O   0  0  0  0  0  0  0  0  0  0  0  0
   45.2934    2.4087    9.4721 O   0  0  0  0  0  0  0  0  0  0  0  0
   45.7770    6.8339   11.0112 C   0  0  0  0  0  0  0  0  0  0  0  0
   45.1469    8.0273   11.4773 O   0  0  0  0  0  0  0  0  0  0  0  0
   44.1425    4.8483   11.7746 S   0  0  0  0  0  0  0  0  0  0  0  0
   44.9035    4.4492   12.9313 O   0  0  0  0  0  0  0  0  0  0  0  0
   43.6023    3.4954   11.1039 O   0  0  0  0  0  0  0  0  0  0  0  0
   45.1614    5.3713   10.6518 O   0  0  0  0  0  0  0  0  0  0  0  0
   43.0579    5.7970   11.8150 O   0  0  0  0  0  0  0  0  0  0  0  0
   42.4336    3.4693   11.2517 H   0  0  0  0  0  0  0  0  0  0  0  0
   45.4462    3.0162   10.8797 H   0  0  0  0  0  0  0  0  0  0  0  0
   42.8805    5.3294   12.5142 H   0  0  0  0  0  0  0  0  0  0  0  0
   43.7435    5.3144    9.7956 H   0  0  0  0  0  0  0  0  0  0  0  0
   44.3326    1.9804   12.8521 H   0  0  0  0  0  0  0  0  0  0  0  0
   42.7559    2.0152   13.0277 H   0  0  0  0  0  0  0  0  0  0  0  0
   46.3667    5.6446   11.2826 H   0  0  0  0  0  0  0  0  0  0  0  0
   43.7337    1.8286    9.8346 H   0  0  0  0  0  0  0  0  0  0  0  0
   45.3423    4.1944    8.4644 H   0  0  0  0  0  0  0  0  0  0  0  0
   43.6933    4.8432   14.5705 H   0  0  0  0  0  0  0  0  0  0  0  0
   45.2921    7.6775   12.1806 H   0  0  0  0  0  0  0  0  0  0  0  0
   45.2871    7.6421   10.3964 H   0  0  0  0  0  0  0  0  0  0  0  0
   43.3161    8.3043   11.2536 H   0  0  0  0  0  0  0  0  0  0  0  0
   44.8308    2.7187   12.1235 H   0  0  0  0  0  0  0  0  0  0  0  0
   42.3235    4.3687   11.4881 H   0  0  0  0  0  0  0  0  0  0  0  0
   43.7687    3.7519    9.4179 H   0  0  0  0  0  0  0  0  0  0  0  0
   44.8729    5.1670   12.9822 H   0  0  0  0  0  0  0  0  0  0  0  0
   42.3875    1.8935   10.7454 H   0  0  0  0  0  0  0  0  0  0  0  0
   42.7870    1.5734   12.2807 H   0  0  0  0  0  0  0  0  0  0  0  0
   43.9878    6.0223   10.1610 H   0  0  0  0  0  0  0  0  0  0  0  0
   42.4698    4.5791   13.8250 H   0  0  0  0  0  0  0  0  0  0  0  0
   43.8461    7.2504   12.6508 H   0  0  0  0  0  0  0  0  0  0  0  0
   45.2131    1.6316   10.0526 H   0  0  0  0  0  0  0  0  0  0  0  0
   46.2674    7.0321   10.0472 H   0  0  0  0  0  0  0  0  0  0  0  0
   46.5647    6.5619   11.7203 H   0  0  0  0  0  0  0  0  0  0  0  0
   45.1899    8.6658   10.7338 H   0  0  0  0  0  0  0  0  0  0  0  0
   44.1739    2.7683   11.4299 H   0  0  0  0  0  0  0  0  0  0  0  0
   44.6422    5.9043   10.0131 H   0  0  0  0  0  0  0  0  0  0  0  0
  2  1  1  0
  3  1  1  0
  4  3  1  0
  5  2  1  0
  1  6  1  0
  7  4  1  0
  2  8  1  0
  5  9  1  0
  3 10  1  0
  7 11  1  0
 12 11  1  0
  5  7  1  0
 14 13  1  0
 15 13  1  0
 16 15  1  0
 17 14  1  0
 13 18  1  0
 19 16  1  0
 14 20  1  0
 17 21  1  0
 15 22  1  0
 19 23  1  0
 24 23  1  0
 17 19  1  0
 25 26  2  0
 25 27  1  0
 25 28  1  0
 25 29  2  0
  1 30  1  6
  2 31  1  1
  3 32  1  6
  5 33  1  6
  6 34  1  0
  6 35  1  0
  7 36  1  1
  8 37  1  0
  9 38  1  0
 10 39  1  0
 11 40  1  0
 11 41  1  0
 12 42  1  0
 13 43  1  1
 14 44  1  6
 15 45  1  6
 17 46  1  1
 18 47  1  0
 18 48  1  0
 19 49  1  6
 20 50  1  0
 21 51  1  0
 22 52  1  0
 23 53  1  0
 23 54  1  0
 24 55  1  0
 27 56  1  0
 28 57  1  0
M  END
> <Uni-Dock RESULT> 
ENERGY=   -5.327  LOWER_BOUND=    1.206  UPPER_BOUND=    1.657
INTER + INTRA:          -5.327
INTER:                  -5.327
INTRA:                   0.000
UNBOUND:                 0.000

$$$$

     RDKit          3D

 57 56  0  0  0  0  0  0  0  0999 V2000
   43.9536    6.0306   11.6495 C   0  0  2  0  0  0  0  0  0  0  0  0
   44.2660    4.8938   12.6347 C   0  0  2  0  0  0  0  0  0  0  0  0
   44.9096    7.2372   11.8840 C   0  0  2  0  0  0  0  0  0  0  0  0
   45.4825    7.2134   13.1812 O   0  0  0  0  0  0  0  0  0  0  0  0
   45.7756    4.7646   12.8033 C   0  0  1  0  0  0  0  0  0  0  0  0
   42.5023    6.3474   11.7352 N   0  0  0  0  0  0  0  0  0  0  0  0
   46.3173    6.0623   13.4339 C   0  0  1  0  0  0  0  0  0  0  0  0
   43.7193    3.6567   12.1525 O   0  0  0  0  0  0  0  0  0  0  0  0
   46.0823    3.6417   13.6353 O   0  0  0  0  0  0  0  0  0  0  0  0
   44.1721    8.4518   11.7677 O   0  0  0  0  0  0  0  0  0  0  0  0
   47.7722    6.3458   13.0364 C   0  0  0  0  0  0  0  0  0  0  0  0
   47.9135    6.4689   11.6222 O   0  0  0  0  0  0  0  0  0  0  0  0
   43.6100    5.6995   12.1955 C   0  0  2  0  0  0  0  0  0  0  0  0
   44.5988    6.5906   11.4326 C   0  0  2  0  0  0  0  0  0  0  0  0
   44.3684    4.4444   12.6931 C   0  0  1  0  0  0  0  0  0  0  0  0
   45.4205    4.8438   13.5659 O   0  0  0  0  0  0  0  0  0  0  0  0
   45.8041    6.9240   12.3219 C   0  0  1  0  0  0  0  0  0  0  0  0
   42.3966    5.3821   11.4060 N   0  0  0  0  0  0  0  0  0  0  0  0
   46.4116    5.6332   12.8998 C   0  0  1  0  0  0  0  0  0  0  0  0
   43.9505    7.8021   11.0161 O   0  0  0  0  0  0  0  0  0  0  0  0
   46.7395    7.6605   11.5264 O   0  0  0  0  0  0  0  0  0  0  0  0
   43.4877    3.5786   13.3946 O   0  0  0  0  0  0  0  0  0  0  0  0
   47.5234    5.9520   13.9097 C   0  0  0  0  0  0  0  0  0  0  0  0
   48.5850    6.6799   13.2920 O   0  0  0  0  0  0  0  0  0  0  0  0
   45.3900    6.3801   12.3405 S   0  0  0  0  0  0  0  0  0  0  0  0
   44.7835    7.3931   13.1664 O   0  0  0  0  0  0  0  0  0  0  0  0
   44.1878    5.4782   11.7807 O   0  0  0  0  0  0  0  0  0  0  0  0
   46.1497    5.3363   13.2923 O   0  0  0  0  0  0  0  0  0  0  0  0
   46.2875    6.6648   11.2490 O   0  0  0  0  0  0  0  0  0  0  0  0
   44.1073    5.6758   10.6218 H   0  0  0  0  0  0  0  0  0  0  0  0
   43.8034    5.0704   13.6152 H   0  0  0  0  0  0  0  0  0  0  0  0
   45.6854    7.2633   11.1143 H   0  0  0  0  0  0  0  0  0  0  0  0
   46.2350    4.5580   11.8316 H   0  0  0  0  0  0  0  0  0  0  0  0
   42.3691    6.8465   12.6198 H   0  0  0  0  0  0  0  0  0  0  0  0
   42.3337    7.1039   11.0544 H   0  0  0  0  0  0  0  0  0  0  0  0
   46.3168    5.9484   14.5263 H   0  0  0  0  0  0  0  0  0  0  0  0
   42.8129    3.8941   11.8631 H   0  0  0  0  0  0  0  0  0  0  0  0
   45.4399    2.9503   13.3698 H   0  0  0  0  0  0  0  0  0  0  0  0
   44.8142    9.1364   12.0408 H   0  0  0  0  0  0  0  0  0  0  0  0
   48.1044    7.2901   13.4783 H   0  0  0  0  0  0  0  0  0  0  0  0
   48.4277    5.5379   13.3788 H   0  0  0  0  0  0  0  0  0  0  0  0
   48.8615    6.6081   11.4489 H   0  0  0  0  0  0  0  0  0  0  0  0
   43.2491    6.2578   13.0702 H   0  0  0  0  0  0  0  0  0  0  0  0
   44.9383    6.0938   10.5144 H   0  0  0  0  0  0  0  0  0  0  0  0
   44.7810    3.8723   11.8542 H   0  0  0  0  0  0  0  0  0  0  0  0
   45.4756    7.5892   13.1305 H   0  0  0  0  0  0  0  0  0  0  0  0
   42.6646    4.8652   10.5665 H   0  0  0  0  0  0  0  0  0  0  0  0
   42.0515    6.2825   11.0507 H   0  0  0  0  0  0  0  0  0  0  0  0
   46.8603    5.0459   12.0871 H   0  0  0  0  0  0  0  0  0  0  0  0
   44.6785    8.4149   10.7824 H   0  0  0  0  0  0  0  0  0  0  0  0
   47.5603    7.7361   12.0642 H   0  0  0  0  0  0  0  0  0  0  0  0
   42.6084    3.9939   13.3540 H   0  0  0  0  0  0  0  0  0  0  0  0
   47.9216    5.0245   14.3460 H   0  0  0  0  0  0  0  0  0  0  0  0
   47.1318    6.5516   14.7371 H   0  0  0  0  0  0  0  0  0  0  0  0
   49.3605    6.0791   13.2882 H   0  0  0  0  0  0  0  0  0  0  0  0
   43.4227    5.6220   12.3768 H   0  0  0  0  0  0  0  0  0  0  0  0
   46.7886    4.8448   12.7339 H   0  0  0  0  0  0  0  0  0  0  0  0
  2  1  1  0
  3  1  1  0
  4  3  1  0
  5  2  1  0
  1  6  1  0
  7  4  1  0
  2  8  1  0
  5  9  1  0
  3 10  1  0
  7 11  1  0
 12 11  1  0
  5  7  1  0
 14 13  1  0
 15 13  1  0
 16 15  1  0
 17 14  1  0
 13 18  1  0
 19 16  1  0
 14 20  1  0
 17 21  1  0
 15 22  1  0
 19 23  1  0
 24 23  1  0
 17 19  1  0
 25 26  2  0
 25 27  1  0
 25 28  1  0
 25 29  2  0
  1 30  1  6
  2 31  1  1
  3 32  1  6
  5 33  1  6
  6 34  1  0
  6 35  1  0
  7 36  1  1
  8 37  1  0
  9 38  1  0
 10 39  1  0
 11 40  1  0
 11 41  1  0
 12 42  1  0
 13 43  1  1
 14 44  1  6
 15 45  1  6
 17 46  1  1
 18 47  1  0
 18 48  1  0
 19 49  1  6
 20 50  1  0
 21 51  1  0
 22 52  1  0
 23 53  1  0
 23 54  1  0
 24 55  1  0
 27 56  1  0
 28 57  1  0
M  END
> <Uni-Dock RESULT> 
ENERGY=   -5.252  LOWER_BOUND=    2.398  UPPER_BOUND=    4.007
INTER + INTRA:          -5.252
INTER:                  -5.252
INTRA:                   0.000
UNBOUND:                 0.000

$$$$

     RDKit          3D

 57 56  0  0  0  0  0  0  0  0999 V2000
   46.4283    5.2430   13.4724 C   0  0  2  0  0  0  0  0  0  0  0  0
   45.0658    4.9577   12.8222 C   0  0  2  0  0  0  0  0  0  0  0  0
   47.0611    6.5342   12.8747 C   0  0  2  0  0  0  0  0  0  0  0  0
   46.5083    6.8567   11.6091 O   0  0  0  0  0  0  0  0  0  0  0  0
   44.3086    6.2665   12.6279 C   0  0  1  0  0  0  0  0  0  0  0  0
   47.2690    4.0198   13.3684 N   0  0  0  0  0  0  0  0  0  0  0  0
   45.0954    7.1534   11.6432 C   0  0  1  0  0  0  0  0  0  0  0  0
   44.3001    4.0667   13.6479 O   0  0  0  0  0  0  0  0  0  0  0  0
   42.9965    6.0040   12.1213 O   0  0  0  0  0  0  0  0  0  0  0  0
   48.4597    6.3300   12.6877 O   0  0  0  0  0  0  0  0  0  0  0  0
   44.8581    8.6506   11.8827 C   0  0  0  0  0  0  0  0  0  0  0  0
   45.2407    9.0364   13.2016 O   0  0  0  0  0  0  0  0  0  0  0  0
   46.1447    4.7234   13.0535 C   0  0  2  0  0  0  0  0  0  0  0  0
   46.7174    6.0752   13.4990 C   0  0  2  0  0  0  0  0  0  0  0  0
   44.6128    4.8749   12.8842 C   0  0  1  0  0  0  0  0  0  0  0  0
   44.3428    5.8575   11.8893 O   0  0  0  0  0  0  0  0  0  0  0  0
   46.3238    7.1709   12.4994 C   0  0  1  0  0  0  0  0  0  0  0  0
   46.5324    3.6114   13.9532 N   0  0  0  0  0  0  0  0  0  0  0  0
   44.8019    7.1589   12.2694 C   0  0  1  0  0  0  0  0  0  0  0  0
   48.1477    5.9962   13.5973 O   0  0  0  0  0  0  0  0  0  0  0  0
   46.7885    8.4209   13.0208 O   0  0  0  0  0  0  0  0  0  0  0  0
   44.0336    3.6407   12.4860 O   0  0  0  0  0  0  0  0  0  0  0  0
   44.4045    8.1456   11.1622 C   0  0  0  0  0  0  0  0  0  0  0  0
   44.7697    9.4815   11.5094 O   0  0  0  0  0  0  0  0  0  0  0  0
   46.0027    6.5858   12.6486 S   0  0  0  0  0  0  0  0  0  0  0  0
   46.9505    6.2860   11.6055 O   0  0  0  0  0  0  0  0  0  0  0  0
   45.8144    5.2315   13.4867 O   0  0  0  0  0  0  0  0  0  0  0  0
   44.5518    6.7498   11.9851 O   0  0  0  0  0  0  0  0  0  0  0  0
   46.1512    7.6764   13.5796 O   0  0  0  0  0  0  0  0  0  0  0  0
   46.2921    5.4040   14.5499 H   0  0  0  0  0  0  0  0  0  0  0  0
   45.1784    4.4542   11.8524 H   0  0  0  0  0  0  0  0  0  0  0  0
   46.9538    7.3687   13.5725 H   0  0  0  0  0  0  0  0  0  0  0  0
   44.1686    6.7545   13.5975 H   0  0  0  0  0  0  0  0  0  0  0  0
   47.5584    3.9526   12.3881 H   0  0  0  0  0  0  0  0  0  0  0  0
   48.1660    4.2493   13.8236 H   0  0  0  0  0  0  0  0  0  0  0  0
   44.7396    6.9479   10.6247 H   0  0  0  0  0  0  0  0  0  0  0  0
   44.9403    3.3687   13.9017 H   0  0  0  0  0  0  0  0  0  0  0  0
   42.7022    5.1970   12.5940 H   0  0  0  0  0  0  0  0  0  0  0  0
   48.7462    7.1329   12.2096 H   0  0  0  0  0  0  0  0  0  0  0  0
   45.4593    9.2418   11.1852 H   0  0  0  0  0  0  0  0  0  0  0  0
   43.8000    8.8980   11.7450 H   0  0  0  0  0  0  0  0  0  0  0  0
   45.0257    9.9821   13.2878 H   0  0  0  0  0  0  0  0  0  0  0  0
   46.5797    4.4714   12.0766 H   0  0  0  0  0  0  0  0  0  0  0  0
   46.3556    6.3371   14.5018 H   0  0  0  0  0  0  0  0  0  0  0  0
   44.1365    5.1638   13.8281 H   0  0  0  0  0  0  0  0  0  0  0  0
   46.8560    6.9984   11.5555 H   0  0  0  0  0  0  0  0  0  0  0  0
   46.1630    3.7885   14.8890 H   0  0  0  0  0  0  0  0  0  0  0  0
   47.5514    3.6847   14.0641 H   0  0  0  0  0  0  0  0  0  0  0  0
   44.2917    7.4713   13.1908 H   0  0  0  0  0  0  0  0  0  0  0  0
   48.4545    6.9264   13.6220 H   0  0  0  0  0  0  0  0  0  0  0  0
   46.4020    9.1206   12.4467 H   0  0  0  0  0  0  0  0  0  0  0  0
   44.7626    2.9968   12.4509 H   0  0  0  0  0  0  0  0  0  0  0  0
   43.3214    8.0989   10.9785 H   0  0  0  0  0  0  0  0  0  0  0  0
   44.8995    7.8880   10.2209 H   0  0  0  0  0  0  0  0  0  0  0  0
   43.9281    9.9677   11.6425 H   0  0  0  0  0  0  0  0  0  0  0  0
   46.1085    4.4960   12.9088 H   0  0  0  0  0  0  0  0  0  0  0  0
   43.9911    7.2343   12.6273 H   0  0  0  0  0  0  0  0  0  0  0  0
  2  1  1  0
  3  1  1  0
  4  3  1  0
  5  2  1  0
  1  6  1  0
  7  4  1  0
  2  8  1  0
  5  9  1  0
  3 10  1  0
  7 11  1  0
 12 11  1  0
  5  7  1  0
 14 13  1  0
 15 13  1  0
 16 15  1  0
 17 14  1  0
 13 18  1  0
 19 16  1  0
 14 20  1  0
 17 21  1  0
 15 22  1  0
 19 23  1  0
 24 23  1  0
 17 19  1  0
 25 26  2  0
 25 27  1  0
 25 28  1  0
 25 29  2  0
  1 30  1  6
  2 31  1  1
  3 32  1  6
  5 33  1  6
  6 34  1  0
  6 35  1  0
  7 36  1  1
  8 37  1  0
  9 38  1  0
 10 39  1  0
 11 40  1  0
 11 41  1  0
 12 42  1  0
 13 43  1  1
 14 44  1  6
 15 45  1  6
 17 46  1  1
 18 47  1  0
 18 48  1  0
 19 49  1  6
 20 50  1  0
 21 51  1  0
 22 52  1  0
 23 53  1  0
 23 54  1  0
 24 55  1  0
 27 56  1  0
 28 57  1  0
M  END
> <Uni-Dock RESULT> 
ENERGY=   -5.023  LOWER_BOUND=    2.721  UPPER_BOUND=    4.139
INTER + INTRA:          -5.023
INTER:                  -5.023
INTRA:                   0.000
UNBOUND:                 0.000

$$$$
