
     RDKit          3D

 57 56  0  0  0  0  0  0  0  0999 V2000
   43.8431    4.6231   11.7360 C   0  0  2  0  0  0  0  0  0  0  0  0
   44.9733    5.4757   11.1350 C   0  0  2  0  0  0  0  0  0  0  0  0
   44.1008    3.1256   11.4246 C   0  0  2  0  0  0  0  0  0  0  0  0
   44.1933    2.8215   10.0357 O   0  0  0  0  0  0  0  0  0  0  0  0
   45.7101    4.7705    9.9829 C   0  0  1  0  0  0  0  0  0  0  0  0
   42.5207    5.0480   11.2038 N   0  0  0  0  0  0  0  0  0  0  0  0
   44.7275    3.8710    9.2132 C   0  0  1  0  0  0  0  0  0  0  0  0
   45.9291    5.8149   12.1515 O   0  0  0  0  0  0  0  0  0  0  0  0
   46.3423    5.7813    9.1895 O   0  0  0  0  0  0  0  0  0  0  0  0
   43.0318    2.3512   11.9594 O   0  0  0  0  0  0  0  0  0  0  0  0
   45.3723    3.1967    7.9931 C   0  0  0  0  0  0  0  0  0  0  0  0
   46.0020    4.1465    7.1343 O   0  0  0  0  0  0  0  0  0  0  0  0
   43.9539    4.9076   11.4784 C   0  0  2  0  0  0  0  0  0  0  0  0
   44.1410    3.4025   11.2547 C   0  0  2  0  0  0  0  0  0  0  0  0
   45.1111    5.6595   10.7828 C   0  0  1  0  0  0  0  0  0  0  0  0
   45.1430    5.3502    9.3973 O   0  0  0  0  0  0  0  0  0  0  0  0
   44.2789    3.0954    9.7587 C   0  0  1  0  0  0  0  0  0  0  0  0
   43.8037    5.1922   12.9259 N   0  0  0  0  0  0  0  0  0  0  0  0
   45.4068    3.9530    9.1571 C   0  0  1  0  0  0  0  0  0  0  0  0
   43.0215    2.6747   11.7849 O   0  0  0  0  0  0  0  0  0  0  0  0
   44.5406    1.6991    9.5966 O   0  0  0  0  0  0  0  0  0  0  0  0
   44.8927    7.0528   10.9122 O   0  0  0  0  0  0  0  0  0  0  0  0
   45.5316    3.7287    7.6411 C   0  0  0  0  0  0  0  0  0  0  0  0
   46.7187    4.3645    7.1491 O   0  0  0  0  0  0  0  0  0  0  0  0
   44.3649    3.9935   10.3380 S   0  0  0  0  0  0  0  0  0  0  0  0
   44.6045    2.6596   10.8243 O   0  0  0  0  0  0  0  0  0  0  0  0
   45.3275    4.9988   11.1328 O   0  0  0  0  0  0  0  0  0  0  0  0
   44.9958    4.0588    8.8657 O   0  0  0  0  0  0  0  0  0  0  0  0
   43.0651    4.6152   10.3057 O   0  0  0  0  0  0  0  0  0  0  0  0
   43.7969    4.7461   12.8247 H   0  0  0  0  0  0  0  0  0  0  0  0
   44.5737    6.4376   10.7923 H   0  0  0  0  0  0  0  0  0  0  0  0
   45.0266    2.7998   11.9137 H   0  0  0  0  0  0  0  0  0  0  0  0
   46.5207    4.1551   10.3930 H   0  0  0  0  0  0  0  0  0  0  0  0
   42.2139    5.8785   11.7078 H   0  0  0  0  0  0  0  0  0  0  0  0
   41.8574    4.3047   11.4475 H   0  0  0  0  0  0  0  0  0  0  0  0
   43.8990    4.4866    8.8405 H   0  0  0  0  0  0  0  0  0  0  0  0
   46.6016    6.3610   11.6962 H   0  0  0  0  0  0  0  0  0  0  0  0
   46.4123    5.4236    8.2759 H   0  0  0  0  0  0  0  0  0  0  0  0
   43.2936    1.4305   11.7940 H   0  0  0  0  0  0  0  0  0  0  0  0
   44.6097    2.6539    7.4217 H   0  0  0  0  0  0  0  0  0  0  0  0
   46.1230    2.4642    8.3130 H   0  0  0  0  0  0  0  0  0  0  0  0
   46.2515    3.6644    6.3232 H   0  0  0  0  0  0  0  0  0  0  0  0
   43.0060    5.2106   11.0168 H   0  0  0  0  0  0  0  0  0  0  0  0
   45.0266    3.0349   11.7910 H   0  0  0  0  0  0  0  0  0  0  0  0
   46.0771    5.4234   11.2424 H   0  0  0  0  0  0  0  0  0  0  0  0
   43.3253    3.3079    9.2548 H   0  0  0  0  0  0  0  0  0  0  0  0
   44.7028    5.0691   13.3877 H   0  0  0  0  0  0  0  0  0  0  0  0
   43.6238    6.2001   13.0027 H   0  0  0  0  0  0  0  0  0  0  0  0
   46.3749    3.6979    9.6163 H   0  0  0  0  0  0  0  0  0  0  0  0
   42.7910    3.1511   12.6102 H   0  0  0  0  0  0  0  0  0  0  0  0
   43.8879    1.2489   10.1781 H   0  0  0  0  0  0  0  0  0  0  0  0
   45.4939    7.4492   10.2466 H   0  0  0  0  0  0  0  0  0  0  0  0
   45.6064    2.6642    7.4014 H   0  0  0  0  0  0  0  0  0  0  0  0
   44.6763    4.1646    7.1089 H   0  0  0  0  0  0  0  0  0  0  0  0
   46.7901    4.1301    6.2067 H   0  0  0  0  0  0  0  0  0  0  0  0
   44.9260    5.8905   11.0673 H   0  0  0  0  0  0  0  0  0  0  0  0
   45.7353    3.4166    8.8389 H   0  0  0  0  0  0  0  0  0  0  0  0
  2  1  1  0
  3  1  1  0
  4  3  1  0
  5  2  1  0
  1  6  1  0
  7  4  1  0
  2  8  1  0
  5  9  1  0
  3 10  1  0
  7 11  1  0
 12 11  1  0
  5  7  1  0
 14 13  1  0
 15 13  1  0
 16 15  1  0
 17 14  1  0
 13 18  1  0
 19 16  1  0
 14 20  1  0
 17 21  1  0
 15 22  1  0
 19 23  1  0
 24 23  1  0
 17 19  1  0
 25 26  2  0
 25 27  1  0
 25 28  1  0
 25 29  2  0
  1 30  1  6
  2 31  1  1
  3 32  1  6
  5 33  1  6
  6 34  1  0
  6 35  1  0
  7 36  1  1
  8 37  1  0
  9 38  1  0
 10 39  1  0
 11 40  1  0
 11 41  1  0
 12 42  1  0
 13 43  1  1
 14 44  1  6
 15 45  1  6
 17 46  1  1
 18 47  1  0
 18 48  1  0
 19 49  1  6
 20 50  1  0
 21 51  1  0
 22 52  1  0
 23 53  1  0
 23 54  1  0
 24 55  1  0
 27 56  1  0
 28 57  1  0
M  END
> <Uni-Dock RESULT> 
ENERGY=   -7.231  LOWER_BOUND=    0.000  UPPER_BOUND=    0.000
INTER + INTRA:          -7.231
INTER:                  -7.231
INTRA:                   0.000
UNBOUND:                 0.000

$$$$

     RDKit          3D

 57 56  0  0  0  0  0  0  0  0999 V2000
   43.6648    5.4278   11.5361 C   0  0  2  0  0  0  0  0  0  0  0  0
   44.2107    3.9949   11.6560 C   0  0  2  0  0  0  0  0  0  0  0  0
   44.8349    6.4400   11.6481 C   0  0  2  0  0  0  0  0  0  0  0  0
   45.5764    6.3494   12.8614 O   0  0  0  0  0  0  0  0  0  0  0  0
   45.5714    3.9283   12.3713 C   0  0  1  0  0  0  0  0  0  0  0  0
   42.6420    5.6928   12.5830 N   0  0  0  0  0  0  0  0  0  0  0  0
   45.6514    5.0354   13.4366 C   0  0  1  0  0  0  0  0  0  0  0  0
   44.3482    3.4088   10.3524 O   0  0  0  0  0  0  0  0  0  0  0  0
   45.7301    2.5983   12.8780 O   0  0  0  0  0  0  0  0  0  0  0  0
   44.3121    7.7623   11.5667 O   0  0  0  0  0  0  0  0  0  0  0  0
   46.9514    4.9797   14.2529 C   0  0  0  0  0  0  0  0  0  0  0  0
   47.1671    3.6871   14.8176 O   0  0  0  0  0  0  0  0  0  0  0  0
   43.6728    5.0829   11.7376 C   0  0  2  0  0  0  0  0  0  0  0  0
   44.7642    6.1579   11.7984 C   0  0  2  0  0  0  0  0  0  0  0  0
   44.3307    3.6976   11.9281 C   0  0  1  0  0  0  0  0  0  0  0  0
   45.0297    3.6450   13.1630 O   0  0  0  0  0  0  0  0  0  0  0  0
   45.5790    6.0229   13.0904 C   0  0  1  0  0  0  0  0  0  0  0  0
   42.8794    5.2329   10.4939 N   0  0  0  0  0  0  0  0  0  0  0  0
   46.1204    4.5871   13.2120 C   0  0  1  0  0  0  0  0  0  0  0  0
   44.1791    7.4689   11.7440 O   0  0  0  0  0  0  0  0  0  0  0  0
   46.6397    6.9815   13.0692 O   0  0  0  0  0  0  0  0  0  0  0  0
   43.3152    2.7111   11.9612 O   0  0  0  0  0  0  0  0  0  0  0  0
   46.8847    4.3877   14.5312 C   0  0  0  0  0  0  0  0  0  0  0  0
   47.5590    3.1226   14.5190 O   0  0  0  0  0  0  0  0  0  0  0  0
   44.9126    5.3661   12.5669 S   0  0  0  0  0  0  0  0  0  0  0  0
   45.6887    6.4201   11.9671 O   0  0  0  0  0  0  0  0  0  0  0  0
   44.7475    4.1891   11.4916 O   0  0  0  0  0  0  0  0  0  0  0  0
   45.8629    4.6647   13.6509 O   0  0  0  0  0  0  0  0  0  0  0  0
   43.6129    5.5622   13.1580 O   0  0  0  0  0  0  0  0  0  0  0  0
   43.1699    5.5782   10.5692 H   0  0  0  0  0  0  0  0  0  0  0  0
   43.4824    3.3600   12.1746 H   0  0  0  0  0  0  0  0  0  0  0  0
   45.5258    6.3015   10.8078 H   0  0  0  0  0  0  0  0  0  0  0  0
   46.3747    4.0717   11.6376 H   0  0  0  0  0  0  0  0  0  0  0  0
   41.7548    5.2893   12.2867 H   0  0  0  0  0  0  0  0  0  0  0  0
   42.5019    6.7087   12.6013 H   0  0  0  0  0  0  0  0  0  0  0  0
   44.8217    4.9093   14.1436 H   0  0  0  0  0  0  0  0  0  0  0  0
   44.6855    2.5045   10.5144 H   0  0  0  0  0  0  0  0  0  0  0  0
   46.3163    2.6619   13.6654 H   0  0  0  0  0  0  0  0  0  0  0  0
   45.0977    8.3337   11.5693 H   0  0  0  0  0  0  0  0  0  0  0  0
   46.9140    5.7180   15.0629 H   0  0  0  0  0  0  0  0  0  0  0  0
   47.8111    5.2322   13.6209 H   0  0  0  0  0  0  0  0  0  0  0  0
   47.9201    3.7752   15.4324 H   0  0  0  0  0  0  0  0  0  0  0  0
   42.9692    5.2576   12.5609 H   0  0  0  0  0  0  0  0  0  0  0  0
   45.4331    6.0851   10.9298 H   0  0  0  0  0  0  0  0  0  0  0  0
   45.0094    3.4583   11.1022 H   0  0  0  0  0  0  0  0  0  0  0  0
   44.9390    6.2654   13.9506 H   0  0  0  0  0  0  0  0  0  0  0  0
   43.4428    4.9388    9.6984 H   0  0  0  0  0  0  0  0  0  0  0  0
   42.1348    4.5277   10.5421 H   0  0  0  0  0  0  0  0  0  0  0  0
   46.8119    4.3620   12.3847 H   0  0  0  0  0  0  0  0  0  0  0  0
   43.4383    7.3780   11.1082 H   0  0  0  0  0  0  0  0  0  0  0  0
   46.2160    7.8232   12.7883 H   0  0  0  0  0  0  0  0  0  0  0  0
   43.7626    1.9237   12.3374 H   0  0  0  0  0  0  0  0  0  0  0  0
   47.6438    5.1625   14.6720 H   0  0  0  0  0  0  0  0  0  0  0  0
   46.1968    4.3893   15.3866 H   0  0  0  0  0  0  0  0  0  0  0  0
   48.0848    3.0792   15.3374 H   0  0  0  0  0  0  0  0  0  0  0  0
   43.9593    3.6696   11.7553 H   0  0  0  0  0  0  0  0  0  0  0  0
   46.7861    4.7782   13.3431 H   0  0  0  0  0  0  0  0  0  0  0  0
  2  1  1  0
  3  1  1  0
  4  3  1  0
  5  2  1  0
  1  6  1  0
  7  4  1  0
  2  8  1  0
  5  9  1  0
  3 10  1  0
  7 11  1  0
 12 11  1  0
  5  7  1  0
 14 13  1  0
 15 13  1  0
 16 15  1  0
 17 14  1  0
 13 18  1  0
 19 16  1  0
 14 20  1  0
 17 21  1  0
 15 22  1  0
 19 23  1  0
 24 23  1  0
 17 19  1  0
 25 26  2  0
 25 27  1  0
 25 28  1  0
 25 29  2  0
  1 30  1  6
  2 31  1  1
  3 32  1  6
  5 33  1  6
  6 34  1  0
  6 35  1  0
  7 36  1  1
  8 37  1  0
  9 38  1  0
 10 39  1  0
 11 40  1  0
 11 41  1  0
 12 42  1  0
 13 43  1  1
 14 44  1  6
 15 45  1  6
 17 46  1  1
 18 47  1  0
 18 48  1  0
 19 49  1  6
 20 50  1  0
 21 51  1  0
 22 52  1  0
 23 53  1  0
 23 54  1  0
 24 55  1  0
 27 56  1  0
 28 57  1  0
M  END
> <Uni-Dock RESULT> 
ENERGY=   -6.250  LOWER_BOUND=    2.111  UPPER_BOUND=    4.438
INTER + INTRA:          -6.250
INTER:                  -6.250
INTRA:                   0.000
UNBOUND:                 0.000

$$$$

     RDKit          3D

 57 56  0  0  0  0  0  0  0  0999 V2000
   43.5725    4.2584   12.3300 C   0  0  2  0  0  0  0  0  0  0  0  0
   45.1088    4.2049   12.3793 C   0  0  2  0  0  0  0  0  0  0  0  0
   43.1227    5.4450   11.4379 C   0  0  2  0  0  0  0  0  0  0  0  0
   43.5958    6.7176   11.8700 O   0  0  0  0  0  0  0  0  0  0  0  0
   45.7679    5.5539   12.0423 C   0  0  1  0  0  0  0  0  0  0  0  0
   43.0042    4.3881   13.6984 N   0  0  0  0  0  0  0  0  0  0  0  0
   44.8713    6.7049   12.5304 C   0  0  1  0  0  0  0  0  0  0  0  0
   45.5975    3.2137   11.4627 O   0  0  0  0  0  0  0  0  0  0  0  0
   47.0860    5.5441   12.6021 O   0  0  0  0  0  0  0  0  0  0  0  0
   41.6997    5.5015   11.4260 O   0  0  0  0  0  0  0  0  0  0  0  0
   45.5040    8.0861   12.3043 C   0  0  0  0  0  0  0  0  0  0  0  0
   46.8152    8.1655   12.8617 O   0  0  0  0  0  0  0  0  0  0  0  0
   43.9065    4.2815   12.5479 C   0  0  2  0  0  0  0  0  0  0  0  0
   43.3640    5.4036   11.6552 C   0  0  2  0  0  0  0  0  0  0  0  0
   45.4495    4.3653   12.5665 C   0  0  1  0  0  0  0  0  0  0  0  0
   45.8726    5.6377   13.0336 O   0  0  0  0  0  0  0  0  0  0  0  0
   43.9130    6.7620   12.1076 C   0  0  1  0  0  0  0  0  0  0  0  0
   43.3562    2.9748   12.1138 N   0  0  0  0  0  0  0  0  0  0  0  0
   45.4503    6.7060   12.1617 C   0  0  1  0  0  0  0  0  0  0  0  0
   41.9285    5.4339   11.7058 O   0  0  0  0  0  0  0  0  0  0  0  0
   43.4582    7.7689   11.1999 O   0  0  0  0  0  0  0  0  0  0  0  0
   45.9487    3.3864   13.4599 O   0  0  0  0  0  0  0  0  0  0  0  0
   46.0401    8.0277   12.6806 C   0  0  0  0  0  0  0  0  0  0  0  0
   47.4640    8.0264   12.5136 O   0  0  0  0  0  0  0  0  0  0  0  0
   44.2067    5.7483   12.2961 S   0  0  0  0  0  0  0  0  0  0  0  0
   43.5062    6.2113   11.1265 O   0  0  0  0  0  0  0  0  0  0  0  0
   45.1325    4.5110   11.8707 O   0  0  0  0  0  0  0  0  0  0  0  0
   45.3110    6.8607   12.6324 O   0  0  0  0  0  0  0  0  0  0  0  0
   43.5555    5.3658   13.5235 O   0  0  0  0  0  0  0  0  0  0  0  0
   43.1623    3.3337   11.9067 H   0  0  0  0  0  0  0  0  0  0  0  0
   45.4390    3.8620   13.3671 H   0  0  0  0  0  0  0  0  0  0  0  0
   43.4592    5.2813   10.4070 H   0  0  0  0  0  0  0  0  0  0  0  0
   45.8999    5.6322   10.9558 H   0  0  0  0  0  0  0  0  0  0  0  0
   42.9961    3.4703   14.1404 H   0  0  0  0  0  0  0  0  0  0  0  0
   42.0215    4.6570   13.5803 H   0  0  0  0  0  0  0  0  0  0  0  0
   44.7108    6.5972   13.6107 H   0  0  0  0  0  0  0  0  0  0  0  0
   46.5709    3.2336   11.5618 H   0  0  0  0  0  0  0  0  0  0  0  0
   47.3230    6.4805   12.7883 H   0  0  0  0  0  0  0  0  0  0  0  0
   41.4909    6.2121   10.7975 H   0  0  0  0  0  0  0  0  0  0  0  0
   44.8776    8.8616   12.7612 H   0  0  0  0  0  0  0  0  0  0  0  0
   45.5668    8.3073   11.2321 H   0  0  0  0  0  0  0  0  0  0  0  0
   47.0828    9.1027   12.8086 H   0  0  0  0  0  0  0  0  0  0  0  0
   43.5306    4.4378   13.5665 H   0  0  0  0  0  0  0  0  0  0  0  0
   43.6295    5.2290   10.6034 H   0  0  0  0  0  0  0  0  0  0  0  0
   45.8743    4.1688   11.5760 H   0  0  0  0  0  0  0  0  0  0  0  0
   43.5033    7.0080   13.0975 H   0  0  0  0  0  0  0  0  0  0  0  0
   43.7875    2.7047   11.2319 H   0  0  0  0  0  0  0  0  0  0  0  0
   43.7075    2.2794   12.7825 H   0  0  0  0  0  0  0  0  0  0  0  0
   45.8672    6.5217   11.1589 H   0  0  0  0  0  0  0  0  0  0  0  0
   41.6667    4.4895   11.7363 H   0  0  0  0  0  0  0  0  0  0  0  0
   42.4983    7.5909   11.0829 H   0  0  0  0  0  0  0  0  0  0  0  0
   46.8759    3.6629   13.6197 H   0  0  0  0  0  0  0  0  0  0  0  0
   45.6457    8.8840   12.1260 H   0  0  0  0  0  0  0  0  0  0  0  0
   45.8311    8.1566   13.7504 H   0  0  0  0  0  0  0  0  0  0  0  0
   47.7771    8.9077   12.7849 H   0  0  0  0  0  0  0  0  0  0  0  0
   45.3136    3.9964   12.6850 H   0  0  0  0  0  0  0  0  0  0  0  0
   45.5514    7.2947   11.7875 H   0  0  0  0  0  0  0  0  0  0  0  0
  2  1  1  0
  3  1  1  0
  4  3  1  0
  5  2  1  0
  1  6  1  0
  7  4  1  0
  2  8  1  0
  5  9  1  0
  3 10  1  0
  7 11  1  0
 12 11  1  0
  5  7  1  0
 14 13  1  0
 15 13  1  0
 16 15  1  0
 17 14  1  0
 13 18  1  0
 19 16  1  0
 14 20  1  0
 17 21  1  0
 15 22  1  0
 19 23  1  0
 24 23  1  0
 17 19  1  0
 25 26  2  0
 25 27  1  0
 25 28  1  0
 25 29  2  0
  1 30  1  6
  2 31  1  1
  3 32  1  6
  5 33  1  6
  6 34  1  0
  6 35  1  0
  7 36  1  1
  8 37  1  0
  9 38  1  0
 10 39  1  0
 11 40  1  0
 11 41  1  0
 12 42  1  0
 13 43  1  1
 14 44  1  6
 15 45  1  6
 17 46  1  1
 18 47  1  0
 18 48  1  0
 19 49  1  6
 20 50  1  0
 21 51  1  0
 22 52  1  0
 23 53  1  0
 23 54  1  0
 24 55  1  0
 27 56  1  0
 28 57  1  0
M  END
> <Uni-Dock RESULT> 
ENERGY=   -5.958  LOWER_BOUND=    2.635  UPPER_BOUND=    3.993
INTER + INTRA:          -5.958
INTER:                  -5.958
INTRA:                   0.000
UNBOUND:                 0.000

$$$$

     RDKit          3D

 57 56  0  0  0  0  0  0  0  0999 V2000
   44.6432    3.9771   12.5344 C   0  0  2  0  0  0  0  0  0  0  0  0
   43.7630    5.2337   12.4268 C   0  0  2  0  0  0  0  0  0  0  0  0
   45.8327    4.2568   13.4899 C   0  0  2  0  0  0  0  0  0  0  0  0
   46.6623    5.3450   13.0929 O   0  0  0  0  0  0  0  0  0  0  0  0
   44.5134    6.5259   12.7940 C   0  0  1  0  0  0  0  0  0  0  0  0
   45.1358    3.5607   11.1941 N   0  0  0  0  0  0  0  0  0  0  0  0
   45.9915    6.4004   12.3863 C   0  0  1  0  0  0  0  0  0  0  0  0
   42.6178    5.1087   13.2838 O   0  0  0  0  0  0  0  0  0  0  0  0
   43.8163    7.6195   12.1864 O   0  0  0  0  0  0  0  0  0  0  0  0
   46.6557    3.0963   13.5561 O   0  0  0  0  0  0  0  0  0  0  0  0
   46.7892    7.6872   12.6451 C   0  0  0  0  0  0  0  0  0  0  0  0
   46.1704    8.8238   12.0438 O   0  0  0  0  0  0  0  0  0  0  0  0
   44.4921    4.2676   12.3056 C   0  0  2  0  0  0  0  0  0  0  0  0
   45.6782    4.4344   13.2625 C   0  0  2  0  0  0  0  0  0  0  0  0
   43.7213    5.6051   12.2339 C   0  0  1  0  0  0  0  0  0  0  0  0
   44.5800    6.6511   11.8038 O   0  0  0  0  0  0  0  0  0  0  0  0
   46.5392    5.6329   12.8459 C   0  0  1  0  0  0  0  0  0  0  0  0
   43.6761    3.0960   12.7060 N   0  0  0  0  0  0  0  0  0  0  0  0
   45.6565    6.8889   12.7334 C   0  0  1  0  0  0  0  0  0  0  0  0
   46.4895    3.2486   13.2657 O   0  0  0  0  0  0  0  0  0  0  0  0
   47.5803    5.8103   13.8098 O   0  0  0  0  0  0  0  0  0  0  0  0
   42.6786    5.4803   11.2838 O   0  0  0  0  0  0  0  0  0  0  0  0
   46.4683    8.1010   12.2474 C   0  0  0  0  0  0  0  0  0  0  0  0
   45.6813    9.2939   12.3619 O   0  0  0  0  0  0  0  0  0  0  0  0
   45.5414    5.3230   12.6057 S   0  0  0  0  0  0  0  0  0  0  0  0
   46.2475    4.9994   13.8180 O   0  0  0  0  0  0  0  0  0  0  0  0
   43.9785    5.4253   12.9462 O   0  0  0  0  0  0  0  0  0  0  0  0
   45.8875    6.8530   12.2747 O   0  0  0  0  0  0  0  0  0  0  0  0
   45.6432    4.5583   11.3884 O   0  0  0  0  0  0  0  0  0  0  0  0
   44.0708    3.1316   12.9345 H   0  0  0  0  0  0  0  0  0  0  0  0
   43.3494    5.3144   11.4144 H   0  0  0  0  0  0  0  0  0  0  0  0
   45.4565    4.4577   14.5003 H   0  0  0  0  0  0  0  0  0  0  0  0
   44.4481    6.6884   13.8772 H   0  0  0  0  0  0  0  0  0  0  0  0
   44.3965    3.0484   10.7158 H   0  0  0  0  0  0  0  0  0  0  0  0
   45.8904    2.8859   11.3590 H   0  0  0  0  0  0  0  0  0  0  0  0
   46.0474    6.1981   11.3092 H   0  0  0  0  0  0  0  0  0  0  0  0
   42.1087    5.9337   13.1501 H   0  0  0  0  0  0  0  0  0  0  0  0
   44.4802    8.3283   12.0300 H   0  0  0  0  0  0  0  0  0  0  0  0
   47.3299    3.3153   14.2203 H   0  0  0  0  0  0  0  0  0  0  0  0
   47.8042    7.5829   12.2433 H   0  0  0  0  0  0  0  0  0  0  0  0
   46.8820    7.8698   13.7223 H   0  0  0  0  0  0  0  0  0  0  0  0
   46.8053    9.5607   12.1252 H   0  0  0  0  0  0  0  0  0  0  0  0
   44.8830    4.0297   11.3086 H   0  0  0  0  0  0  0  0  0  0  0  0
   45.3305    4.5700   14.2958 H   0  0  0  0  0  0  0  0  0  0  0  0
   43.2717    5.8616   13.1994 H   0  0  0  0  0  0  0  0  0  0  0  0
   47.0220    5.4161   11.8824 H   0  0  0  0  0  0  0  0  0  0  0  0
   43.1672    3.3169   13.5598 H   0  0  0  0  0  0  0  0  0  0  0  0
   42.9390    3.0043   11.9972 H   0  0  0  0  0  0  0  0  0  0  0  0
   45.2208    7.1457   13.7118 H   0  0  0  0  0  0  0  0  0  0  0  0
   45.8442    2.5128   13.2064 H   0  0  0  0  0  0  0  0  0  0  0  0
   47.9488    4.9102   13.9546 H   0  0  0  0  0  0  0  0  0  0  0  0
   42.4127    6.4065   11.1015 H   0  0  0  0  0  0  0  0  0  0  0  0
   47.3695    8.2436   12.8504 H   0  0  0  0  0  0  0  0  0  0  0  0
   46.7479    7.9874   11.1921 H   0  0  0  0  0  0  0  0  0  0  0  0
   46.2622   10.0356   12.1155 H   0  0  0  0  0  0  0  0  0  0  0  0
   43.4934    5.2886   12.1056 H   0  0  0  0  0  0  0  0  0  0  0  0
   46.0736    7.2986   13.1272 H   0  0  0  0  0  0  0  0  0  0  0  0
  2  1  1  0
  3  1  1  0
  4  3  1  0
  5  2  1  0
  1  6  1  0
  7  4  1  0
  2  8  1  0
  5  9  1  0
  3 10  1  0
  7 11  1  0
 12 11  1  0
  5  7  1  0
 14 13  1  0
 15 13  1  0
 16 15  1  0
 17 14  1  0
 13 18  1  0
 19 16  1  0
 14 20  1  0
 17 21  1  0
 15 22  1  0
 19 23  1  0
 24 23  1  0
 17 19  1  0
 25 26  2  0
 25 27  1  0
 25 28  1  0
 25 29  2  0
  1 30  1  6
  2 31  1  1
  3 32  1  6
  5 33  1  6
  6 34  1  0
  6 35  1  0
  7 36  1  1
  8 37  1  0
  9 38  1  0
 10 39  1  0
 11 40  1  0
 11 41  1  0
 12 42  1  0
 13 43  1  1
 14 44  1  6
 15 45  1  6
 17 46  1  1
 18 47  1  0
 18 48  1  0
 19 49  1  6
 20 50  1  0
 21 51  1  0
 22 52  1  0
 23 53  1  0
 23 54  1  0
 24 55  1  0
 27 56  1  0
 28 57  1  0
M  END
> <Uni-Dock RESULT> 
ENERGY=   -5.774  LOWER_BOUND=    2.724  UPPER_BOUND=    4.146
INTER + INTRA:          -5.774
INTER:                  -5.774
INTRA:                   0.000
UNBOUND:                 0.000

$$$$

     RDKit          3D

 57 56  0  0  0  0  0  0  0  0999 V2000
   46.3901    6.4089   12.9611 C   0  0  2  0  0  0  0  0  0  0  0  0
   46.3623    4.9409   13.4193 C   0  0  2  0  0  0  0  0  0  0  0  0
   44.9381    6.9251   12.7842 C   0  0  2  0  0  0  0  0  0  0  0  0
   44.1609    6.1843   11.8477 O   0  0  0  0  0  0  0  0  0  0  0  0
   45.0460    4.2264   13.0664 C   0  0  1  0  0  0  0  0  0  0  0  0
   47.1542    6.5521   11.6931 N   0  0  0  0  0  0  0  0  0  0  0  0
   44.4883    4.7893   11.7477 C   0  0  1  0  0  0  0  0  0  0  0  0
   46.5601    4.8636   14.8393 O   0  0  0  0  0  0  0  0  0  0  0  0
   45.3073    2.8185   13.0525 O   0  0  0  0  0  0  0  0  0  0  0  0
   44.9789    8.2745   12.3305 O   0  0  0  0  0  0  0  0  0  0  0  0
   43.2155    4.0648   11.2851 C   0  0  0  0  0  0  0  0  0  0  0  0
   43.4051    2.6521   11.2178 O   0  0  0  0  0  0  0  0  0  0  0  0
   46.4822    6.0275   12.8857 C   0  0  2  0  0  0  0  0  0  0  0  0
   45.0870    6.6408   12.7197 C   0  0  2  0  0  0  0  0  0  0  0  0
   46.3265    4.5433   13.2871 C   0  0  1  0  0  0  0  0  0  0  0  0
   45.5739    3.8404   12.3095 O   0  0  0  0  0  0  0  0  0  0  0  0
   44.2491    5.8106   11.7399 C   0  0  1  0  0  0  0  0  0  0  0  0
   47.2903    6.8470   13.8207 N   0  0  0  0  0  0  0  0  0  0  0  0
   44.2261    4.3407   12.1963 C   0  0  1  0  0  0  0  0  0  0  0  0
   45.1872    7.9882   12.2312 O   0  0  0  0  0  0  0  0  0  0  0  0
   42.9303    6.3601   11.6800 O   0  0  0  0  0  0  0  0  0  0  0  0
   47.6115    3.9518   13.3544 O   0  0  0  0  0  0  0  0  0  0  0  0
   43.4550    3.4582   11.2010 C   0  0  0  0  0  0  0  0  0  0  0  0
   43.2619    2.1502   11.7554 O   0  0  0  0  0  0  0  0  0  0  0  0
   45.1475    5.6149   12.2911 S   0  0  0  0  0  0  0  0  0  0  0  0
   44.1170    6.5439   12.6759 O   0  0  0  0  0  0  0  0  0  0  0  0
   45.8097    5.0185   13.6233 O   0  0  0  0  0  0  0  0  0  0  0  0
   44.3980    4.3217   11.7115 O   0  0  0  0  0  0  0  0  0  0  0  0
   46.2375    5.9450   11.4078 O   0  0  0  0  0  0  0  0  0  0  0  0
   46.8929    7.0407   13.7031 H   0  0  0  0  0  0  0  0  0  0  0  0
   47.2116    4.3986   12.9869 H   0  0  0  0  0  0  0  0  0  0  0  0
   44.4207    6.9132   13.7511 H   0  0  0  0  0  0  0  0  0  0  0  0
   44.3164    4.3920   13.8691 H   0  0  0  0  0  0  0  0  0  0  0  0
   48.1501    6.5603   11.9074 H   0  0  0  0  0  0  0  0  0  0  0  0
   46.9336    7.4836   11.3249 H   0  0  0  0  0  0  0  0  0  0  0  0
   45.2392    4.6564   10.9585 H   0  0  0  0  0  0  0  0  0  0  0  0
   46.5409    3.9075   15.0471 H   0  0  0  0  0  0  0  0  0  0  0  0
   44.6627    2.4156   12.4281 H   0  0  0  0  0  0  0  0  0  0  0  0
   44.0482    8.5522   12.3131 H   0  0  0  0  0  0  0  0  0  0  0  0
   42.9188    4.4297   10.2944 H   0  0  0  0  0  0  0  0  0  0  0  0
   42.3858    4.2730   11.9712 H   0  0  0  0  0  0  0  0  0  0  0  0
   42.6128    2.2864   10.7804 H   0  0  0  0  0  0  0  0  0  0  0  0
   47.0006    6.0813   11.9204 H   0  0  0  0  0  0  0  0  0  0  0  0
   44.5702    6.7037   13.6872 H   0  0  0  0  0  0  0  0  0  0  0  0
   45.8539    4.4406   14.2701 H   0  0  0  0  0  0  0  0  0  0  0  0
   44.6812    5.8924   10.7324 H   0  0  0  0  0  0  0  0  0  0  0  0
   46.9414    6.7178   14.7685 H   0  0  0  0  0  0  0  0  0  0  0  0
   48.2240    6.4205   13.8421 H   0  0  0  0  0  0  0  0  0  0  0  0
   43.7368    4.2473   13.1787 H   0  0  0  0  0  0  0  0  0  0  0  0
   45.9711    8.3556   12.6915 H   0  0  0  0  0  0  0  0  0  0  0  0
   43.0630    7.3296   11.5838 H   0  0  0  0  0  0  0  0  0  0  0  0
   47.4288    2.9884   13.3503 H   0  0  0  0  0  0  0  0  0  0  0  0
   42.4658    3.8724   10.9859 H   0  0  0  0  0  0  0  0  0  0  0  0
   44.0152    3.3427   10.2643 H   0  0  0  0  0  0  0  0  0  0  0  0
   42.7076    1.6587   11.1234 H   0  0  0  0  0  0  0  0  0  0  0  0
   46.6996    4.6893   13.3773 H   0  0  0  0  0  0  0  0  0  0  0  0
   43.5260    4.2695   12.1553 H   0  0  0  0  0  0  0  0  0  0  0  0
  2  1  1  0
  3  1  1  0
  4  3  1  0
  5  2  1  0
  1  6  1  0
  7  4  1  0
  2  8  1  0
  5  9  1  0
  3 10  1  0
  7 11  1  0
 12 11  1  0
  5  7  1  0
 14 13  1  0
 15 13  1  0
 16 15  1  0
 17 14  1  0
 13 18  1  0
 19 16  1  0
 14 20  1  0
 17 21  1  0
 15 22  1  0
 19 23  1  0
 24 23  1  0
 17 19  1  0
 25 26  2  0
 25 27  1  0
 25 28  1  0
 25 29  2  0
  1 30  1  6
  2 31  1  1
  3 32  1  6
  5 33  1  6
  6 34  1  0
  6 35  1  0
  7 36  1  1
  8 37  1  0
  9 38  1  0
 10 39  1  0
 11 40  1  0
 11 41  1  0
 12 42  1  0
 13 43  1  1
 14 44  1  6
 15 45  1  6
 17 46  1  1
 18 47  1  0
 18 48  1  0
 19 49  1  6
 20 50  1  0
 21 51  1  0
 22 52  1  0
 23 53  1  0
 23 54  1  0
 24 55  1  0
 27 56  1  0
 28 57  1  0
M  END
> <Uni-Dock RESULT> 
ENERGY=   -5.713  LOWER_BOUND=    2.502  UPPER_BOUND=    4.071
INTER + INTRA:          -5.713
INTER:                  -5.713
INTRA:                   0.000
UNBOUND:                 0.000

$$$$

     RDKit          3D

 57 56  0  0  0  0  0  0  0  0999 V2000
   44.6250    5.5630   12.3416 C   0  0  2  0  0  0  0  0  0  0  0  0
   43.6466    4.3763   12.3335 C   0  0  2  0  0  0  0  0  0  0  0  0
   44.8908    6.0264   10.8853 C   0  0  2  0  0  0  0  0  0  0  0  0
   45.4277    5.0164   10.0358 O   0  0  0  0  0  0  0  0  0  0  0  0
   43.6198    3.6289   10.9888 C   0  0  1  0  0  0  0  0  0  0  0  0
   45.8993    5.1925   13.0133 N   0  0  0  0  0  0  0  0  0  0  0  0
   45.0152    3.6752   10.3425 C   0  0  1  0  0  0  0  0  0  0  0  0
   42.3178    4.8306   12.6327 O   0  0  0  0  0  0  0  0  0  0  0  0
   43.1186    2.3103   11.2356 O   0  0  0  0  0  0  0  0  0  0  0  0
   45.8213    7.1045   10.9054 O   0  0  0  0  0  0  0  0  0  0  0  0
   45.0888    2.8758    9.0330 C   0  0  0  0  0  0  0  0  0  0  0  0
   44.6306    1.5353    9.2045 O   0  0  0  0  0  0  0  0  0  0  0  0
   44.5568    5.1782   12.4245 C   0  0  2  0  0  0  0  0  0  0  0  0
   44.8528    5.7336   11.0265 C   0  0  2  0  0  0  0  0  0  0  0  0
   43.6166    3.9597   12.2848 C   0  0  1  0  0  0  0  0  0  0  0  0
   44.2073    2.9685   11.4571 O   0  0  0  0  0  0  0  0  0  0  0  0
   45.3921    4.6267   10.1125 C   0  0  1  0  0  0  0  0  0  0  0  0
   44.0529    6.2593   13.3054 N   0  0  0  0  0  0  0  0  0  0  0  0
   44.4149    3.4374   10.1093 C   0  0  1  0  0  0  0  0  0  0  0  0
   45.8183    6.7947   11.1034 O   0  0  0  0  0  0  0  0  0  0  0  0
   45.5708    5.1601    8.7980 O   0  0  0  0  0  0  0  0  0  0  0  0
   43.4131    3.3914   13.5658 O   0  0  0  0  0  0  0  0  0  0  0  0
   44.9530    2.2739    9.2603 C   0  0  0  0  0  0  0  0  0  0  0  0
   43.9355    1.2774    9.0959 O   0  0  0  0  0  0  0  0  0  0  0  0
   44.8661    4.6204   11.0467 S   0  0  0  0  0  0  0  0  0  0  0  0
   44.7951    5.6619   10.0551 O   0  0  0  0  0  0  0  0  0  0  0  0
   43.4522    4.5444   11.7979 O   0  0  0  0  0  0  0  0  0  0  0  0
   44.8667    3.2318   10.2455 O   0  0  0  0  0  0  0  0  0  0  0  0
   45.8759    4.5558   12.0729 O   0  0  0  0  0  0  0  0  0  0  0  0
   44.2094    6.4088   12.9023 H   0  0  0  0  0  0  0  0  0  0  0  0
   43.8956    3.6815   13.1445 H   0  0  0  0  0  0  0  0  0  0  0  0
   43.9601    6.3967   10.4390 H   0  0  0  0  0  0  0  0  0  0  0  0
   42.8941    4.1096   10.3206 H   0  0  0  0  0  0  0  0  0  0  0  0
   45.7675    5.2452   14.0222 H   0  0  0  0  0  0  0  0  0  0  0  0
   46.5765    5.9250   12.7751 H   0  0  0  0  0  0  0  0  0  0  0  0
   45.7420    3.2292   11.0332 H   0  0  0  0  0  0  0  0  0  0  0  0
   41.7642    4.0237   12.6199 H   0  0  0  0  0  0  0  0  0  0  0  0
   43.5029    1.7258   10.5440 H   0  0  0  0  0  0  0  0  0  0  0  0
   45.8830    7.3883    9.9784 H   0  0  0  0  0  0  0  0  0  0  0  0
   46.1230    2.8525    8.6689 H   0  0  0  0  0  0  0  0  0  0  0  0
   44.4806    3.3558    8.2570 H   0  0  0  0  0  0  0  0  0  0  0  0
   44.8466    1.0607    8.3794 H   0  0  0  0  0  0  0  0  0  0  0  0
   45.5020    4.8473   12.8723 H   0  0  0  0  0  0  0  0  0  0  0  0
   43.9496    6.1734   10.5815 H   0  0  0  0  0  0  0  0  0  0  0  0
   42.6396    4.2503   11.8834 H   0  0  0  0  0  0  0  0  0  0  0  0
   46.3814    4.3090   10.4715 H   0  0  0  0  0  0  0  0  0  0  0  0
   43.1063    6.5078   13.0247 H   0  0  0  0  0  0  0  0  0  0  0  0
   43.9317    5.8392   14.2342 H   0  0  0  0  0  0  0  0  0  0  0  0
   43.4408    3.7370    9.6914 H   0  0  0  0  0  0  0  0  0  0  0  0
   45.5812    7.2798   11.9218 H   0  0  0  0  0  0  0  0  0  0  0  0
   46.0336    6.0172    8.9321 H   0  0  0  0  0  0  0  0  0  0  0  0
   43.0422    2.5040   13.3746 H   0  0  0  0  0  0  0  0  0  0  0  0
   45.2452    2.6120    8.2620 H   0  0  0  0  0  0  0  0  0  0  0  0
   45.8107    1.7954    9.7504 H   0  0  0  0  0  0  0  0  0  0  0  0
   44.2992    0.6047    8.4931 H   0  0  0  0  0  0  0  0  0  0  0  0
   43.6119    4.1155   12.6646 H   0  0  0  0  0  0  0  0  0  0  0  0
   44.3815    3.3809    9.4074 H   0  0  0  0  0  0  0  0  0  0  0  0
  2  1  1  0
  3  1  1  0
  4  3  1  0
  5  2  1  0
  1  6  1  0
  7  4  1  0
  2  8  1  0
  5  9  1  0
  3 10  1  0
  7 11  1  0
 12 11  1  0
  5  7  1  0
 14 13  1  0
 15 13  1  0
 16 15  1  0
 17 14  1  0
 13 18  1  0
 19 16  1  0
 14 20  1  0
 17 21  1  0
 15 22  1  0
 19 23  1  0
 24 23  1  0
 17 19  1  0
 25 26  2  0
 25 27  1  0
 25 28  1  0
 25 29  2  0
  1 30  1  6
  2 31  1  1
  3 32  1  6
  5 33  1  6
  6 34  1  0
  6 35  1  0
  7 36  1  1
  8 37  1  0
  9 38  1  0
 10 39  1  0
 11 40  1  0
 11 41  1  0
 12 42  1  0
 13 43  1  1
 14 44  1  6
 15 45  1  6
 17 46  1  1
 18 47  1  0
 18 48  1  0
 19 49  1  6
 20 50  1  0
 21 51  1  0
 22 52  1  0
 23 53  1  0
 23 54  1  0
 24 55  1  0
 27 56  1  0
 28 57  1  0
M  END
> <Uni-Dock RESULT> 
ENERGY=   -5.658  LOWER_BOUND=    1.188  UPPER_BOUND=    3.109
INTER + INTRA:          -5.658
INTER:                  -5.658
INTRA:                   0.000
UNBOUND:                 0.000

$$$$

     RDKit          3D

 57 56  0  0  0  0  0  0  0  0999 V2000
   47.2207    6.7982   13.1055 C   0  0  2  0  0  0  0  0  0  0  0  0
   46.5042    5.4823   13.4527 C   0  0  2  0  0  0  0  0  0  0  0  0
   46.1838    7.9492   13.0285 C   0  0  2  0  0  0  0  0  0  0  0  0
   45.1478    7.7442   12.0721 O   0  0  0  0  0  0  0  0  0  0  0  0
   45.0061    5.5035   13.1022 C   0  0  1  0  0  0  0  0  0  0  0  0
   47.9605    6.6740   11.8211 N   0  0  0  0  0  0  0  0  0  0  0  0
   44.7783    6.3734   11.8539 C   0  0  1  0  0  0  0  0  0  0  0  0
   46.6439    5.1994   14.8535 O   0  0  0  0  0  0  0  0  0  0  0  0
   44.5723    4.1449   12.9716 O   0  0  0  0  0  0  0  0  0  0  0  0
   46.8557    9.1545   12.6762 O   0  0  0  0  0  0  0  0  0  0  0  0
   43.3136    6.3747   11.3915 C   0  0  0  0  0  0  0  0  0  0  0  0
   42.8143    5.0503   11.2103 O   0  0  0  0  0  0  0  0  0  0  0  0
   47.1219    6.4264   12.9979 C   0  0  2  0  0  0  0  0  0  0  0  0
   46.1808    7.6351   12.9367 C   0  0  2  0  0  0  0  0  0  0  0  0
   46.2850    5.1612   13.2926 C   0  0  1  0  0  0  0  0  0  0  0  0
   45.2885    4.9813   12.2971 O   0  0  0  0  0  0  0  0  0  0  0  0
   45.0491    7.3837   11.9329 C   0  0  1  0  0  0  0  0  0  0  0  0
   48.2222    6.6862   13.9574 N   0  0  0  0  0  0  0  0  0  0  0  0
   44.3360    6.0639   12.2781 C   0  0  1  0  0  0  0  0  0  0  0  0
   46.9042    8.8137   12.5472 O   0  0  0  0  0  0  0  0  0  0  0  0
   44.1455    8.4912   11.9695 O   0  0  0  0  0  0  0  0  0  0  0  0
   47.1391    4.0319   13.2617 O   0  0  0  0  0  0  0  0  0  0  0  0
   43.2386    5.7365   11.2522 C   0  0  0  0  0  0  0  0  0  0  0  0
   42.4520    4.6305   11.7142 O   0  0  0  0  0  0  0  0  0  0  0  0
   45.7497    6.7422   12.4299 S   0  0  0  0  0  0  0  0  0  0  0  0
   45.2798    8.0095   12.9262 O   0  0  0  0  0  0  0  0  0  0  0  0
   46.0538    5.7925   13.6848 O   0  0  0  0  0  0  0  0  0  0  0  0
   44.4781    6.0082   11.7865 O   0  0  0  0  0  0  0  0  0  0  0  0
   46.8654    6.5959   11.5294 O   0  0  0  0  0  0  0  0  0  0  0  0
   47.9630    7.0533   13.8713 H   0  0  0  0  0  0  0  0  0  0  0  0
   46.9967    4.6439   12.9458 H   0  0  0  0  0  0  0  0  0  0  0  0
   45.7232    8.0988   14.0125 H   0  0  0  0  0  0  0  0  0  0  0  0
   44.4420    5.9228   13.9448 H   0  0  0  0  0  0  0  0  0  0  0  0
   48.8428    6.1948   11.9938 H   0  0  0  0  0  0  0  0  0  0  0  0
   48.2049    7.6277   11.5335 H   0  0  0  0  0  0  0  0  0  0  0  0
   45.3768    5.9716   11.0264 H   0  0  0  0  0  0  0  0  0  0  0  0
   46.1762    4.3505   14.9894 H   0  0  0  0  0  0  0  0  0  0  0  0
   43.8131    4.1476   12.3460 H   0  0  0  0  0  0  0  0  0  0  0  0
   46.1661    9.8374   12.7185 H   0  0  0  0  0  0  0  0  0  0  0  0
   43.2230    6.9198   10.4443 H   0  0  0  0  0  0  0  0  0  0  0  0
   42.6812    6.8886   12.1253 H   0  0  0  0  0  0  0  0  0  0  0  0
   41.9427    5.1390   10.7801 H   0  0  0  0  0  0  0  0  0  0  0  0
   47.6032    6.3130   12.0186 H   0  0  0  0  0  0  0  0  0  0  0  0
   45.7560    7.8501   13.9268 H   0  0  0  0  0  0  0  0  0  0  0  0
   45.8210    5.2086   14.2839 H   0  0  0  0  0  0  0  0  0  0  0  0
   45.4675    7.3391   10.9173 H   0  0  0  0  0  0  0  0  0  0  0  0
   47.8548    6.6552   14.9065 H   0  0  0  0  0  0  0  0  0  0  0  0
   48.8442    5.8710   13.9078 H   0  0  0  0  0  0  0  0  0  0  0  0
   43.8618    6.1273   13.2702 H   0  0  0  0  0  0  0  0  0  0  0  0
   47.7693    8.7285   13.0007 H   0  0  0  0  0  0  0  0  0  0  0  0
   44.7197    9.2889   11.9410 H   0  0  0  0  0  0  0  0  0  0  0  0
   46.5235    3.2717   13.1927 H   0  0  0  0  0  0  0  0  0  0  0  0
   42.5615    6.5837   11.1102 H   0  0  0  0  0  0  0  0  0  0  0  0
   43.6769    5.4523   10.2869 H   0  0  0  0  0  0  0  0  0  0  0  0
   41.7307    4.5135   11.0706 H   0  0  0  0  0  0  0  0  0  0  0  0
   46.6829    5.1063   13.3780 H   0  0  0  0  0  0  0  0  0  0  0  0
   43.6851    6.3338   12.2609 H   0  0  0  0  0  0  0  0  0  0  0  0
  2  1  1  0
  3  1  1  0
  4  3  1  0
  5  2  1  0
  1  6  1  0
  7  4  1  0
  2  8  1  0
  5  9  1  0
  3 10  1  0
  7 11  1  0
 12 11  1  0
  5  7  1  0
 14 13  1  0
 15 13  1  0
 16 15  1  0
 17 14  1  0
 13 18  1  0
 19 16  1  0
 14 20  1  0
 17 21  1  0
 15 22  1  0
 19 23  1  0
 24 23  1  0
 17 19  1  0
 25 26  2  0
 25 27  1  0
 25 28  1  0
 25 29  2  0
  1 30  1  6
  2 31  1  1
  3 32  1  6
  5 33  1  6
  6 34  1  0
  6 35  1  0
  7 36  1  1
  8 37  1  0
  9 38  1  0
 10 39  1  0
 11 40  1  0
 11 41  1  0
 12 42  1  0
 13 43  1  1
 14 44  1  6
 15 45  1  6
 17 46  1  1
 18 47  1  0
 18 48  1  0
 19 49  1  6
 20 50  1  0
 21 51  1  0
 22 52  1  0
 23 53  1  0
 23 54  1  0
 24 55  1  0
 27 56  1  0
 28 57  1  0
M  END
> <Uni-Dock RESULT> 
ENERGY=   -5.607  LOWER_BOUND=    3.174  UPPER_BOUND=    4.831
INTER + INTRA:          -5.607
INTER:                  -5.607
INTRA:                   0.000
UNBOUND:                 0.000

$$$$

     RDKit          3D

 57 56  0  0  0  0  0  0  0  0999 V2000
   43.5857    4.0007   11.1378 C   0  0  2  0  0  0  0  0  0  0  0  0
   44.2276    3.9570   12.5348 C   0  0  2  0  0  0  0  0  0  0  0  0
   44.6606    4.3759   10.0842 C   0  0  2  0  0  0  0  0  0  0  0  0
   45.2997    5.6279   10.3166 O   0  0  0  0  0  0  0  0  0  0  0  0
   45.5228    4.7827   12.6269 C   0  0  1  0  0  0  0  0  0  0  0  0
   42.4592    4.9714   11.1041 N   0  0  0  0  0  0  0  0  0  0  0  0
   45.4255    6.0044   11.6970 C   0  0  1  0  0  0  0  0  0  0  0  0
   44.5215    2.5999   12.9003 O   0  0  0  0  0  0  0  0  0  0  0  0
   45.7389    5.0975   14.0072 O   0  0  0  0  0  0  0  0  0  0  0  0
   44.0468    4.4431    8.8008 O   0  0  0  0  0  0  0  0  0  0  0  0
   46.6507    6.9252   11.7979 C   0  0  0  0  0  0  0  0  0  0  0  0
   46.9156    7.3082   13.1468 O   0  0  0  0  0  0  0  0  0  0  0  0
   43.6028    4.1481   11.5087 C   0  0  2  0  0  0  0  0  0  0  0  0
   44.5991    4.4746   10.3902 C   0  0  2  0  0  0  0  0  0  0  0  0
   44.3462    4.1919   12.8628 C   0  0  1  0  0  0  0  0  0  0  0  0
   44.9382    5.4668   13.0638 O   0  0  0  0  0  0  0  0  0  0  0  0
   45.3076    5.8046   10.6741 C   0  0  1  0  0  0  0  0  0  0  0  0
   42.9103    2.8699   11.2163 N   0  0  0  0  0  0  0  0  0  0  0  0
   45.9451    5.7618   12.0744 C   0  0  1  0  0  0  0  0  0  0  0  0
   43.9219    4.5608    9.1260 O   0  0  0  0  0  0  0  0  0  0  0  0
   46.2894    6.0301    9.6593 O   0  0  0  0  0  0  0  0  0  0  0  0
   43.4104    3.9783   13.9041 O   0  0  0  0  0  0  0  0  0  0  0  0
   46.6060    7.1040   12.4291 C   0  0  0  0  0  0  0  0  0  0  0  0
   47.3740    6.9679   13.6320 O   0  0  0  0  0  0  0  0  0  0  0  0
   44.7412    5.1267   11.2815 S   0  0  0  0  0  0  0  0  0  0  0  0
   45.4828    4.7695   10.1002 O   0  0  0  0  0  0  0  0  0  0  0  0
   44.7601    3.8763   12.2841 O   0  0  0  0  0  0  0  0  0  0  0  0
   45.6456    6.1803   12.0827 O   0  0  0  0  0  0  0  0  0  0  0  0
   43.3842    5.6117   11.2619 O   0  0  0  0  0  0  0  0  0  0  0  0
   43.1658    3.0239   10.8695 H   0  0  0  0  0  0  0  0  0  0  0  0
   43.5082    4.3016   13.2873 H   0  0  0  0  0  0  0  0  0  0  0  0
   45.4299    3.5953   10.0462 H   0  0  0  0  0  0  0  0  0  0  0  0
   46.3728    4.1601   12.3207 H   0  0  0  0  0  0  0  0  0  0  0  0
   41.6344    4.5335   11.5112 H   0  0  0  0  0  0  0  0  0  0  0  0
   42.2405    5.1280   10.1144 H   0  0  0  0  0  0  0  0  0  0  0  0
   44.5501    6.6008   11.9837 H   0  0  0  0  0  0  0  0  0  0  0  0
   44.9120    2.6566   13.7959 H   0  0  0  0  0  0  0  0  0  0  0  0
   46.2485    5.9386   14.0307 H   0  0  0  0  0  0  0  0  0  0  0  0
   44.7830    4.6074    8.1888 H   0  0  0  0  0  0  0  0  0  0  0  0
   46.4871    7.8292   11.1990 H   0  0  0  0  0  0  0  0  0  0  0  0
   47.5398    6.4245   11.3965 H   0  0  0  0  0  0  0  0  0  0  0  0
   47.6038    7.9993   13.1088 H   0  0  0  0  0  0  0  0  0  0  0  0
   42.8196    4.9162   11.5092 H   0  0  0  0  0  0  0  0  0  0  0  0
   45.3439    3.6739   10.2844 H   0  0  0  0  0  0  0  0  0  0  0  0
   45.1099    3.4091   12.9272 H   0  0  0  0  0  0  0  0  0  0  0  0
   44.5791    6.6253   10.6094 H   0  0  0  0  0  0  0  0  0  0  0  0
   43.5610    2.0977   11.3468 H   0  0  0  0  0  0  0  0  0  0  0  0
   42.2207    2.7396   11.9656 H   0  0  0  0  0  0  0  0  0  0  0  0
   46.7205    4.9810   12.1238 H   0  0  0  0  0  0  0  0  0  0  0  0
   43.2478    3.8497    9.1627 H   0  0  0  0  0  0  0  0  0  0  0  0
   45.8282    5.8387    8.8123 H   0  0  0  0  0  0  0  0  0  0  0  0
   43.8828    4.2740   14.7109 H   0  0  0  0  0  0  0  0  0  0  0  0
   47.2884    7.4321   11.6398 H   0  0  0  0  0  0  0  0  0  0  0  0
   45.8489    7.8792   12.6042 H   0  0  0  0  0  0  0  0  0  0  0  0
   47.8291    7.8176   13.7697 H   0  0  0  0  0  0  0  0  0  0  0  0
   43.9943    3.9817   12.8867 H   0  0  0  0  0  0  0  0  0  0  0  0
   46.5804    5.9839   11.8649 H   0  0  0  0  0  0  0  0  0  0  0  0
  2  1  1  0
  3  1  1  0
  4  3  1  0
  5  2  1  0
  1  6  1  0
  7  4  1  0
  2  8  1  0
  5  9  1  0
  3 10  1  0
  7 11  1  0
 12 11  1  0
  5  7  1  0
 14 13  1  0
 15 13  1  0
 16 15  1  0
 17 14  1  0
 13 18  1  0
 19 16  1  0
 14 20  1  0
 17 21  1  0
 15 22  1  0
 19 23  1  0
 24 23  1  0
 17 19  1  0
 25 26  2  0
 25 27  1  0
 25 28  1  0
 25 29  2  0
  1 30  1  6
  2 31  1  1
  3 32  1  6
  5 33  1  6
  6 34  1  0
  6 35  1  0
  7 36  1  1
  8 37  1  0
  9 38  1  0
 10 39  1  0
 11 40  1  0
 11 41  1  0
 12 42  1  0
 13 43  1  1
 14 44  1  6
 15 45  1  6
 17 46  1  1
 18 47  1  0
 18 48  1  0
 19 49  1  6
 20 50  1  0
 21 51  1  0
 22 52  1  0
 23 53  1  0
 23 54  1  0
 24 55  1  0
 27 56  1  0
 28 57  1  0
M  END
> <Uni-Dock RESULT> 
ENERGY=   -5.352  LOWER_BOUND=    1.627  UPPER_BOUND=    3.651
INTER + INTRA:          -5.352
INTER:                  -5.352
INTRA:                   0.000
UNBOUND:                 0.000

$$$$

     RDKit          3D

 57 56  0  0  0  0  0  0  0  0999 V2000
   47.2510    8.3374   12.8437 C   0  0  2  0  0  0  0  0  0  0  0  0
   48.0395    7.6749   13.9860 C   0  0  2  0  0  0  0  0  0  0  0  0
   45.8067    7.7725   12.8142 C   0  0  2  0  0  0  0  0  0  0  0  0
   45.7312    6.3601   12.6425 O   0  0  0  0  0  0  0  0  0  0  0  0
   47.4491    6.3209   14.4171 C   0  0  1  0  0  0  0  0  0  0  0  0
   47.9263    8.1148   11.5372 N   0  0  0  0  0  0  0  0  0  0  0  0
   46.8263    5.6161   13.1996 C   0  0  1  0  0  0  0  0  0  0  0  0
   48.0767    8.5439   15.1284 O   0  0  0  0  0  0  0  0  0  0  0  0
   48.4889    5.5823   15.0684 O   0  0  0  0  0  0  0  0  0  0  0  0
   45.0978    8.3710   11.7336 O   0  0  0  0  0  0  0  0  0  0  0  0
   46.2894    4.2167   13.5353 C   0  0  0  0  0  0  0  0  0  0  0  0
   47.2808    3.4060   14.1646 O   0  0  0  0  0  0  0  0  0  0  0  0
   47.5581    8.1079   12.9562 C   0  0  2  0  0  0  0  0  0  0  0  0
   46.1007    7.6400   12.8702 C   0  0  2  0  0  0  0  0  0  0  0  0
   48.2606    7.3340   14.0945 C   0  0  1  0  0  0  0  0  0  0  0  0
   48.1873    5.9349   13.8634 O   0  0  0  0  0  0  0  0  0  0  0  0
   46.0344    6.1148   12.7258 C   0  0  1  0  0  0  0  0  0  0  0  0
   47.6121    9.5847   13.0777 N   0  0  0  0  0  0  0  0  0  0  0  0
   46.8282    5.4528   13.8665 C   0  0  1  0  0  0  0  0  0  0  0  0
   45.4446    8.2496   11.7468 O   0  0  0  0  0  0  0  0  0  0  0  0
   44.6633    5.7093   12.7391 O   0  0  0  0  0  0  0  0  0  0  0  0
   49.6286    7.6996   14.1180 O   0  0  0  0  0  0  0  0  0  0  0  0
   46.8480    3.9225   13.7190 C   0  0  0  0  0  0  0  0  0  0  0  0
   47.3989    3.3248   14.9000 O   0  0  0  0  0  0  0  0  0  0  0  0
   46.8035    6.7930   13.0388 S   0  0  0  0  0  0  0  0  0  0  0  0
   45.3873    7.0317   13.1405 O   0  0  0  0  0  0  0  0  0  0  0  0
   47.5281    7.5411   14.2571 O   0  0  0  0  0  0  0  0  0  0  0  0
   47.0336    5.2572   13.4369 O   0  0  0  0  0  0  0  0  0  0  0  0
   47.5842    7.0815   11.8623 O   0  0  0  0  0  0  0  0  0  0  0  0
   47.1940    9.4232   12.9861 H   0  0  0  0  0  0  0  0  0  0  0  0
   49.0888    7.5507   13.6926 H   0  0  0  0  0  0  0  0  0  0  0  0
   45.2866    8.0376   13.7426 H   0  0  0  0  0  0  0  0  0  0  0  0
   46.6741    6.4878   15.1758 H   0  0  0  0  0  0  0  0  0  0  0  0
   48.6927    8.7796   11.4448 H   0  0  0  0  0  0  0  0  0  0  0  0
   47.2445    8.3624   10.8122 H   0  0  0  0  0  0  0  0  0  0  0  0
   47.5975    5.4888   12.4294 H   0  0  0  0  0  0  0  0  0  0  0  0
   48.6002    8.0602   15.7990 H   0  0  0  0  0  0  0  0  0  0  0  0
   48.2839    4.6288   14.9399 H   0  0  0  0  0  0  0  0  0  0  0  0
   44.1921    8.0308   11.8204 H   0  0  0  0  0  0  0  0  0  0  0  0
   45.9534    3.7174   12.6186 H   0  0  0  0  0  0  0  0  0  0  0  0
   45.4229    4.2895   14.2034 H   0  0  0  0  0  0  0  0  0  0  0  0
   46.9139    2.5026   14.2077 H   0  0  0  0  0  0  0  0  0  0  0  0
   48.0541    7.8702   12.0071 H   0  0  0  0  0  0  0  0  0  0  0  0
   45.5369    7.9521   13.7601 H   0  0  0  0  0  0  0  0  0  0  0  0
   47.8279    7.5762   15.0714 H   0  0  0  0  0  0  0  0  0  0  0  0
   46.4499    5.8239   11.7505 H   0  0  0  0  0  0  0  0  0  0  0  0
   47.2981    9.8572   14.0071 H   0  0  0  0  0  0  0  0  0  0  0  0
   48.6073    9.8367   13.0707 H   0  0  0  0  0  0  0  0  0  0  0  0
   46.3768    5.6915   14.8424 H   0  0  0  0  0  0  0  0  0  0  0  0
   45.8011    9.1626   11.7236 H   0  0  0  0  0  0  0  0  0  0  0  0
   44.2097    6.3262   12.1222 H   0  0  0  0  0  0  0  0  0  0  0  0
   50.0504    7.0022   14.6633 H   0  0  0  0  0  0  0  0  0  0  0  0
   45.8383    3.5224   13.5896 H   0  0  0  0  0  0  0  0  0  0  0  0
   47.4738    3.6188   12.8700 H   0  0  0  0  0  0  0  0  0  0  0  0
   47.3192    2.3609   14.7876 H   0  0  0  0  0  0  0  0  0  0  0  0
   48.4624    7.6772   13.9938 H   0  0  0  0  0  0  0  0  0  0  0  0
   46.3151    5.0075   14.0545 H   0  0  0  0  0  0  0  0  0  0  0  0
  2  1  1  0
  3  1  1  0
  4  3  1  0
  5  2  1  0
  1  6  1  0
  7  4  1  0
  2  8  1  0
  5  9  1  0
  3 10  1  0
  7 11  1  0
 12 11  1  0
  5  7  1  0
 14 13  1  0
 15 13  1  0
 16 15  1  0
 17 14  1  0
 13 18  1  0
 19 16  1  0
 14 20  1  0
 17 21  1  0
 15 22  1  0
 19 23  1  0
 24 23  1  0
 17 19  1  0
 25 26  2  0
 25 27  1  0
 25 28  1  0
 25 29  2  0
  1 30  1  6
  2 31  1  1
  3 32  1  6
  5 33  1  6
  6 34  1  0
  6 35  1  0
  7 36  1  1
  8 37  1  0
  9 38  1  0
 10 39  1  0
 11 40  1  0
 11 41  1  0
 12 42  1  0
 13 43  1  1
 14 44  1  6
 15 45  1  6
 17 46  1  1
 18 47  1  0
 18 48  1  0
 19 49  1  6
 20 50  1  0
 21 51  1  0
 22 52  1  0
 23 53  1  0
 23 54  1  0
 24 55  1  0
 27 56  1  0
 28 57  1  0
M  END
> <Uni-Dock RESULT> 
ENERGY=   -4.775  LOWER_BOUND=    3.997  UPPER_BOUND=    5.485
INTER + INTRA:          -4.775
INTER:                  -4.775
INTRA:                   0.000
UNBOUND:                 0.000

$$$$
