
     RDKit          3D

 57 56  0  0  0  0  0  0  0  0999 V2000
   44.6919    5.0562   12.3300 C   0  0  2  0  0  0  0  0  0  0  0  0
   45.0061    5.7494   10.9927 C   0  0  2  0  0  0  0  0  0  0  0  0
   44.3394    3.5559   12.1059 C   0  0  2  0  0  0  0  0  0  0  0  0
   43.7188    3.3579   10.8456 O   0  0  0  0  0  0  0  0  0  0  0  0
   45.6231    4.7501   10.0161 C   0  0  1  0  0  0  0  0  0  0  0  0
   43.6500    5.8359   13.0497 N   0  0  0  0  0  0  0  0  0  0  0  0
   44.5898    3.6469    9.7255 C   0  0  1  0  0  0  0  0  0  0  0  0
   45.9127    6.8407   11.2013 O   0  0  0  0  0  0  0  0  0  0  0  0
   46.0091    5.4092    8.8104 O   0  0  0  0  0  0  0  0  0  0  0  0
   43.4485    3.1212   13.1239 O   0  0  0  0  0  0  0  0  0  0  0  0
   45.2623    2.3467    9.2677 C   0  0  0  0  0  0  0  0  0  0  0  0
   44.2725    1.3544    8.9917 O   0  0  0  0  0  0  0  0  0  0  0  0
   44.7583    3.5653    9.5238 C   0  0  2  0  0  0  0  0  0  0  0  0
   43.8728    3.1729   10.7114 C   0  0  2  0  0  0  0  0  0  0  0  0
   45.0865    5.0737    9.6374 C   0  0  1  0  0  0  0  0  0  0  0  0
   45.7356    5.3550   10.8677 O   0  0  0  0  0  0  0  0  0  0  0  0
   44.5485    3.5610   12.0318 C   0  0  1  0  0  0  0  0  0  0  0  0
   44.1126    3.1947    8.2396 N   0  0  0  0  0  0  0  0  0  0  0  0
   44.9161    5.0518   12.0106 C   0  0  1  0  0  0  0  0  0  0  0  0
   43.6170    1.7604   10.7153 O   0  0  0  0  0  0  0  0  0  0  0  0
   43.6558    3.2703   13.1106 O   0  0  0  0  0  0  0  0  0  0  0  0
   45.9811    5.4198    8.5901 O   0  0  0  0  0  0  0  0  0  0  0  0
   45.6852    5.4456   13.2817 C   0  0  0  0  0  0  0  0  0  0  0  0
   45.8768    6.8617   13.3485 O   0  0  0  0  0  0  0  0  0  0  0  0
   44.4483    3.9662   11.1481 S   0  0  0  0  0  0  0  0  0  0  0  0
   44.8711    3.2265   12.3097 O   0  0  0  0  0  0  0  0  0  0  0  0
   45.4930    3.6894    9.9626 O   0  0  0  0  0  0  0  0  0  0  0  0
   44.7423    5.5112   11.4640 O   0  0  0  0  0  0  0  0  0  0  0  0
   43.1340    3.8649   10.5668 O   0  0  0  0  0  0  0  0  0  0  0  0
   45.5711    5.0933   12.9857 H   0  0  0  0  0  0  0  0  0  0  0  0
   44.1048    6.1806   10.5373 H   0  0  0  0  0  0  0  0  0  0  0  0
   45.2461    2.9427   12.1767 H   0  0  0  0  0  0  0  0  0  0  0  0
   46.5401    4.3333   10.4507 H   0  0  0  0  0  0  0  0  0  0  0  0
   43.4110    5.2816   13.8813 H   0  0  0  0  0  0  0  0  0  0  0  0
   42.7863    5.7750   12.5022 H   0  0  0  0  0  0  0  0  0  0  0  0
   43.9198    3.9706    8.9190 H   0  0  0  0  0  0  0  0  0  0  0  0
   45.5004    7.3776   11.9091 H   0  0  0  0  0  0  0  0  0  0  0  0
   46.4010    6.2606    9.0966 H   0  0  0  0  0  0  0  0  0  0  0  0
   43.3486    2.1644   12.9864 H   0  0  0  0  0  0  0  0  0  0  0  0
   45.8587    2.5005    8.3637 H   0  0  0  0  0  0  0  0  0  0  0  0
   45.9105    1.9417   10.0510 H   0  0  0  0  0  0  0  0  0  0  0  0
   43.5406    1.5096    9.6186 H   0  0  0  0  0  0  0  0  0  0  0  0
   45.6985    2.9992    9.5719 H   0  0  0  0  0  0  0  0  0  0  0  0
   42.8921    3.6628   10.6466 H   0  0  0  0  0  0  0  0  0  0  0  0
   44.1856    5.6916    9.5368 H   0  0  0  0  0  0  0  0  0  0  0  0
   45.4459    2.9461   12.1761 H   0  0  0  0  0  0  0  0  0  0  0  0
   44.3720    2.2319    8.0184 H   0  0  0  0  0  0  0  0  0  0  0  0
   44.5817    3.7492    7.5129 H   0  0  0  0  0  0  0  0  0  0  0  0
   44.0106    5.6711   11.9573 H   0  0  0  0  0  0  0  0  0  0  0  0
   43.2057    1.5808    9.8474 H   0  0  0  0  0  0  0  0  0  0  0  0
   43.3487    2.3548   12.9463 H   0  0  0  0  0  0  0  0  0  0  0  0
   46.2435    6.3331    8.7975 H   0  0  0  0  0  0  0  0  0  0  0  0
   46.6801    4.9889   13.2865 H   0  0  0  0  0  0  0  0  0  0  0  0
   45.1552    5.1405   14.1892 H   0  0  0  0  0  0  0  0  0  0  0  0
   44.9973    7.2735   13.3837 H   0  0  0  0  0  0  0  0  0  0  0  0
   45.0698    3.9828    9.1293 H   0  0  0  0  0  0  0  0  0  0  0  0
   45.4672    5.5384   12.1225 H   0  0  0  0  0  0  0  0  0  0  0  0
  2  1  1  0
  3  1  1  0
  4  3  1  0
  5  2  1  0
  1  6  1  0
  7  4  1  0
  2  8  1  0
  5  9  1  0
  3 10  1  0
  7 11  1  0
 12 11  1  0
  5  7  1  0
 14 13  1  0
 15 13  1  0
 16 15  1  0
 17 14  1  0
 13 18  1  0
 19 16  1  0
 14 20  1  0
 17 21  1  0
 15 22  1  0
 19 23  1  0
 24 23  1  0
 17 19  1  0
 25 26  2  0
 25 27  1  0
 25 28  1  0
 25 29  2  0
  1 30  1  6
  2 31  1  1
  3 32  1  6
  5 33  1  6
  6 34  1  0
  6 35  1  0
  7 36  1  1
  8 37  1  0
  9 38  1  0
 10 39  1  0
 11 40  1  0
 11 41  1  0
 12 42  1  0
 13 43  1  6
 14 44  1  1
 15 45  1  1
 17 46  1  6
 18 47  1  0
 18 48  1  0
 19 49  1  1
 20 50  1  0
 21 51  1  0
 22 52  1  0
 23 53  1  0
 23 54  1  0
 24 55  1  0
 27 56  1  0
 28 57  1  0
M  END
> <Uni-Dock RESULT> 
ENERGY=   -5.782  LOWER_BOUND=    0.000  UPPER_BOUND=    0.000
INTER + INTRA:          -5.782
INTER:                  -5.782
INTRA:                   0.000
UNBOUND:                 0.000

$$$$

     RDKit          3D

 57 56  0  0  0  0  0  0  0  0999 V2000
   46.6999    7.6207   12.7296 C   0  0  2  0  0  0  0  0  0  0  0  0
   46.9404    6.1060   12.8546 C   0  0  2  0  0  0  0  0  0  0  0  0
   45.2316    7.9142   12.3014 C   0  0  2  0  0  0  0  0  0  0  0  0
   44.7170    6.8720   11.4879 O   0  0  0  0  0  0  0  0  0  0  0  0
   45.6531    5.4041   13.2827 C   0  0  1  0  0  0  0  0  0  0  0  0
   47.7341    8.2059   11.8356 N   0  0  0  0  0  0  0  0  0  0  0  0
   44.5948    5.6080   12.1839 C   0  0  1  0  0  0  0  0  0  0  0  0
   47.9727    5.8459   13.8153 O   0  0  0  0  0  0  0  0  0  0  0  0
   45.8946    4.0139   13.4978 O   0  0  0  0  0  0  0  0  0  0  0  0
   45.1864    9.1288   11.5655 O   0  0  0  0  0  0  0  0  0  0  0  0
   43.1704    5.4789   12.7378 C   0  0  0  0  0  0  0  0  0  0  0  0
   42.2186    5.6570   11.6875 O   0  0  0  0  0  0  0  0  0  0  0  0
   44.4447    5.4195   12.3167 C   0  0  2  0  0  0  0  0  0  0  0  0
   44.4894    6.7804   11.6136 C   0  0  2  0  0  0  0  0  0  0  0  0
   45.8897    5.0229   12.7041 C   0  0  1  0  0  0  0  0  0  0  0  0
   46.4727    6.0075   13.5437 O   0  0  0  0  0  0  0  0  0  0  0  0
   45.1987    7.8139   12.4966 C   0  0  1  0  0  0  0  0  0  0  0  0
   43.7605    4.4107   11.4695 N   0  0  0  0  0  0  0  0  0  0  0  0
   46.5842    7.2900   12.9016 C   0  0  1  0  0  0  0  0  0  0  0  0
   43.1650    7.2488   11.3187 O   0  0  0  0  0  0  0  0  0  0  0  0
   45.3087    9.0424   11.7726 O   0  0  0  0  0  0  0  0  0  0  0  0
   45.8417    3.8069   13.4365 O   0  0  0  0  0  0  0  0  0  0  0  0
   47.2773    8.2624   13.8694 C   0  0  0  0  0  0  0  0  0  0  0  0
   48.6309    7.8685   14.1119 O   0  0  0  0  0  0  0  0  0  0  0  0
   45.3306    6.8716   12.2735 S   0  0  0  0  0  0  0  0  0  0  0  0
   44.9381    8.1330   12.8479 O   0  0  0  0  0  0  0  0  0  0  0  0
   44.6372    5.6941   13.1138 O   0  0  0  0  0  0  0  0  0  0  0  0
   46.8730    6.6591   12.6596 O   0  0  0  0  0  0  0  0  0  0  0  0
   45.1614    6.5358   10.8827 O   0  0  0  0  0  0  0  0  0  0  0  0
   46.8628    8.1062   13.7002 H   0  0  0  0  0  0  0  0  0  0  0  0
   47.2843    5.6701   11.9073 H   0  0  0  0  0  0  0  0  0  0  0  0
   44.6001    8.0421   13.1890 H   0  0  0  0  0  0  0  0  0  0  0  0
   45.3156    5.8139   14.2428 H   0  0  0  0  0  0  0  0  0  0  0  0
   47.4705    9.1913   11.7110 H   0  0  0  0  0  0  0  0  0  0  0  0
   47.5793    7.8275   10.8962 H   0  0  0  0  0  0  0  0  0  0  0  0
   44.7149    4.8419   11.4075 H   0  0  0  0  0  0  0  0  0  0  0  0
   48.7246    6.4067   13.5337 H   0  0  0  0  0  0  0  0  0  0  0  0
   46.7605    3.9708   13.9549 H   0  0  0  0  0  0  0  0  0  0  0  0
   44.2422    9.3039   11.4165 H   0  0  0  0  0  0  0  0  0  0  0  0
   43.0042    4.4977   13.1918 H   0  0  0  0  0  0  0  0  0  0  0  0
   42.9676    6.2509   13.4866 H   0  0  0  0  0  0  0  0  0  0  0  0
   42.6073    6.3017   11.0662 H   0  0  0  0  0  0  0  0  0  0  0  0
   43.8488    5.5071   13.2353 H   0  0  0  0  0  0  0  0  0  0  0  0
   45.0108    6.7059   10.6500 H   0  0  0  0  0  0  0  0  0  0  0  0
   46.5164    4.8645   11.8178 H   0  0  0  0  0  0  0  0  0  0  0  0
   44.5881    8.0130   13.3863 H   0  0  0  0  0  0  0  0  0  0  0  0
   42.7586    4.4591   11.6622 H   0  0  0  0  0  0  0  0  0  0  0  0
   44.0379    3.4925   11.8374 H   0  0  0  0  0  0  0  0  0  0  0  0
   47.2265    7.1765   12.0180 H   0  0  0  0  0  0  0  0  0  0  0  0
   42.7681    6.5420   10.7731 H   0  0  0  0  0  0  0  0  0  0  0  0
   44.4116    9.2081   11.4161 H   0  0  0  0  0  0  0  0  0  0  0  0
   46.7529    3.6886   13.7554 H   0  0  0  0  0  0  0  0  0  0  0  0
   46.7686    8.2685   14.8387 H   0  0  0  0  0  0  0  0  0  0  0  0
   47.2954    9.2837   13.4768 H   0  0  0  0  0  0  0  0  0  0  0  0
   49.1000    7.8978   13.2614 H   0  0  0  0  0  0  0  0  0  0  0  0
   44.7019    4.8777   12.5761 H   0  0  0  0  0  0  0  0  0  0  0  0
   47.0390    7.1715   13.4779 H   0  0  0  0  0  0  0  0  0  0  0  0
  2  1  1  0
  3  1  1  0
  4  3  1  0
  5  2  1  0
  1  6  1  0
  7  4  1  0
  2  8  1  0
  5  9  1  0
  3 10  1  0
  7 11  1  0
 12 11  1  0
  5  7  1  0
 14 13  1  0
 15 13  1  0
 16 15  1  0
 17 14  1  0
 13 18  1  0
 19 16  1  0
 14 20  1  0
 17 21  1  0
 15 22  1  0
 19 23  1  0
 24 23  1  0
 17 19  1  0
 25 26  2  0
 25 27  1  0
 25 28  1  0
 25 29  2  0
  1 30  1  6
  2 31  1  1
  3 32  1  6
  5 33  1  6
  6 34  1  0
  6 35  1  0
  7 36  1  1
  8 37  1  0
  9 38  1  0
 10 39  1  0
 11 40  1  0
 11 41  1  0
 12 42  1  0
 13 43  1  6
 14 44  1  1
 15 45  1  1
 17 46  1  6
 18 47  1  0
 18 48  1  0
 19 49  1  1
 20 50  1  0
 21 51  1  0
 22 52  1  0
 23 53  1  0
 23 54  1  0
 24 55  1  0
 27 56  1  0
 28 57  1  0
M  END
> <Uni-Dock RESULT> 
ENERGY=   -5.657  LOWER_BOUND=    2.615  UPPER_BOUND=    4.136
INTER + INTRA:          -5.657
INTER:                  -5.657
INTRA:                   0.000
UNBOUND:                 0.000

$$$$

     RDKit          3D

 57 56  0  0  0  0  0  0  0  0999 V2000
   43.8693    5.3677   11.9410 C   0  0  2  0  0  0  0  0  0  0  0  0
   44.7689    4.6654   12.9732 C   0  0  2  0  0  0  0  0  0  0  0  0
   44.4785    6.7369   11.5170 C   0  0  2  0  0  0  0  0  0  0  0  0
   45.2199    7.3184   12.5777 O   0  0  0  0  0  0  0  0  0  0  0  0
   46.2310    5.0368   12.7336 C   0  0  1  0  0  0  0  0  0  0  0  0
   42.4838    5.4458   12.4755 N   0  0  0  0  0  0  0  0  0  0  0  0
   46.3927    6.5527   12.9452 C   0  0  1  0  0  0  0  0  0  0  0  0
   44.6122    3.2431   12.8804 O   0  0  0  0  0  0  0  0  0  0  0  0
   47.0789    4.3106   13.6229 O   0  0  0  0  0  0  0  0  0  0  0  0
   43.4336    7.6277   11.1517 O   0  0  0  0  0  0  0  0  0  0  0  0
   47.6066    7.1045   12.1873 C   0  0  0  0  0  0  0  0  0  0  0  0
   47.7335    8.5080   12.4215 O   0  0  0  0  0  0  0  0  0  0  0  0
   46.6641    6.5082   12.9362 C   0  0  2  0  0  0  0  0  0  0  0  0
   45.4745    7.3602   12.4807 C   0  0  2  0  0  0  0  0  0  0  0  0
   46.1244    5.1512   13.4488 C   0  0  1  0  0  0  0  0  0  0  0  0
   45.3862    4.4886   12.4338 O   0  0  0  0  0  0  0  0  0  0  0  0
   44.6368    6.5976   11.4476 C   0  0  1  0  0  0  0  0  0  0  0  0
   47.4818    7.2371   13.9380 N   0  0  0  0  0  0  0  0  0  0  0  0
   44.2272    5.2308   12.0152 C   0  0  1  0  0  0  0  0  0  0  0  0
   45.9207    8.5949   11.9005 O   0  0  0  0  0  0  0  0  0  0  0  0
   43.4856    7.3797   11.1182 O   0  0  0  0  0  0  0  0  0  0  0  0
   47.2298    4.3254   13.7855 O   0  0  0  0  0  0  0  0  0  0  0  0
   43.4712    4.4038   10.9630 C   0  0  0  0  0  0  0  0  0  0  0  0
   42.9375    3.2069   11.5366 O   0  0  0  0  0  0  0  0  0  0  0  0
   45.1004    6.3750   12.2786 S   0  0  0  0  0  0  0  0  0  0  0  0
   44.7192    6.6336   10.9136 O   0  0  0  0  0  0  0  0  0  0  0  0
   46.6400    5.9245   12.2985 O   0  0  0  0  0  0  0  0  0  0  0  0
   44.3737    5.0085   12.7001 O   0  0  0  0  0  0  0  0  0  0  0  0
   44.9381    7.3237   13.3506 O   0  0  0  0  0  0  0  0  0  0  0  0
   43.7856    4.7508   11.0373 H   0  0  0  0  0  0  0  0  0  0  0  0
   44.4970    4.9388   14.0013 H   0  0  0  0  0  0  0  0  0  0  0  0
   45.1225    6.6053   10.6389 H   0  0  0  0  0  0  0  0  0  0  0  0
   46.5206    4.7426   11.7172 H   0  0  0  0  0  0  0  0  0  0  0  0
   41.9531    6.0042   11.7955 H   0  0  0  0  0  0  0  0  0  0  0  0
   42.5019    6.0683   13.2890 H   0  0  0  0  0  0  0  0  0  0  0  0
   46.5487    6.7631   14.0108 H   0  0  0  0  0  0  0  0  0  0  0  0
   43.6462    3.0927   12.9381 H   0  0  0  0  0  0  0  0  0  0  0  0
   46.7059    3.4048   13.6520 H   0  0  0  0  0  0  0  0  0  0  0  0
   43.8797    8.4190   10.8065 H   0  0  0  0  0  0  0  0  0  0  0  0
   48.5329    6.6164   12.5041 H   0  0  0  0  0  0  0  0  0  0  0  0
   47.4909    6.9703   11.1073 H   0  0  0  0  0  0  0  0  0  0  0  0
   46.8271    8.8569   12.5181 H   0  0  0  0  0  0  0  0  0  0  0  0
   47.3228    6.3196   12.0775 H   0  0  0  0  0  0  0  0  0  0  0  0
   44.8396    7.6332   13.3342 H   0  0  0  0  0  0  0  0  0  0  0  0
   45.5043    5.2759   14.3452 H   0  0  0  0  0  0  0  0  0  0  0  0
   45.2203    6.4720   10.5268 H   0  0  0  0  0  0  0  0  0  0  0  0
   48.1723    7.7995   13.4378 H   0  0  0  0  0  0  0  0  0  0  0  0
   48.0456    6.5259   14.4193 H   0  0  0  0  0  0  0  0  0  0  0  0
   43.5680    5.3566   12.8845 H   0  0  0  0  0  0  0  0  0  0  0  0
   46.4568    9.0176   12.5995 H   0  0  0  0  0  0  0  0  0  0  0  0
   43.8330    8.2759   10.9298 H   0  0  0  0  0  0  0  0  0  0  0  0
   46.8281    3.4592   13.9707 H   0  0  0  0  0  0  0  0  0  0  0  0
   44.1456    4.0977   10.1569 H   0  0  0  0  0  0  0  0  0  0  0  0
   42.6368    4.9628   10.5285 H   0  0  0  0  0  0  0  0  0  0  0  0
   42.3077    3.4706   12.2280 H   0  0  0  0  0  0  0  0  0  0  0  0
   46.9509    5.9968   13.2247 H   0  0  0  0  0  0  0  0  0  0  0  0
   44.2155    4.5000   11.8778 H   0  0  0  0  0  0  0  0  0  0  0  0
  2  1  1  0
  3  1  1  0
  4  3  1  0
  5  2  1  0
  1  6  1  0
  7  4  1  0
  2  8  1  0
  5  9  1  0
  3 10  1  0
  7 11  1  0
 12 11  1  0
  5  7  1  0
 14 13  1  0
 15 13  1  0
 16 15  1  0
 17 14  1  0
 13 18  1  0
 19 16  1  0
 14 20  1  0
 17 21  1  0
 15 22  1  0
 19 23  1  0
 24 23  1  0
 17 19  1  0
 25 26  2  0
 25 27  1  0
 25 28  1  0
 25 29  2  0
  1 30  1  6
  2 31  1  1
  3 32  1  6
  5 33  1  6
  6 34  1  0
  6 35  1  0
  7 36  1  1
  8 37  1  0
  9 38  1  0
 10 39  1  0
 11 40  1  0
 11 41  1  0
 12 42  1  0
 13 43  1  6
 14 44  1  1
 15 45  1  1
 17 46  1  6
 18 47  1  0
 18 48  1  0
 19 49  1  1
 20 50  1  0
 21 51  1  0
 22 52  1  0
 23 53  1  0
 23 54  1  0
 24 55  1  0
 27 56  1  0
 28 57  1  0
M  END
> <Uni-Dock RESULT> 
ENERGY=   -5.424  LOWER_BOUND=    2.049  UPPER_BOUND=    4.483
INTER + INTRA:          -5.424
INTER:                  -5.424
INTRA:                   0.000
UNBOUND:                 0.000

$$$$

     RDKit          3D

 57 56  0  0  0  0  0  0  0  0999 V2000
   44.9741    3.4820    9.0916 C   0  0  2  0  0  0  0  0  0  0  0  0
   43.9993    2.6529    9.9460 C   0  0  2  0  0  0  0  0  0  0  0  0
   45.2748    4.8522    9.7682 C   0  0  2  0  0  0  0  0  0  0  0  0
   44.1628    5.3057   10.5235 O   0  0  0  0  0  0  0  0  0  0  0  0
   44.1954    2.9742   11.4263 C   0  0  1  0  0  0  0  0  0  0  0  0
   44.4451    3.5792    7.7053 N   0  0  0  0  0  0  0  0  0  0  0  0
   43.8536    4.4573   11.6555 C   0  0  1  0  0  0  0  0  0  0  0  0
   44.2147    1.2525    9.7249 O   0  0  0  0  0  0  0  0  0  0  0  0
   43.3654    2.1358   12.2296 O   0  0  0  0  0  0  0  0  0  0  0  0
   45.5701    5.8191    8.7698 O   0  0  0  0  0  0  0  0  0  0  0  0
   44.5525    5.0139   12.9021 C   0  0  0  0  0  0  0  0  0  0  0  0
   44.1980    6.3849   13.0910 O   0  0  0  0  0  0  0  0  0  0  0  0
   43.8644    4.4010   11.9247 C   0  0  2  0  0  0  0  0  0  0  0  0
   44.2539    5.3436   10.7809 C   0  0  2  0  0  0  0  0  0  0  0  0
   43.4738    3.0321   11.3171 C   0  0  1  0  0  0  0  0  0  0  0  0
   44.5472    2.4938   10.5607 O   0  0  0  0  0  0  0  0  0  0  0  0
   45.3547    4.7121    9.9206 C   0  0  1  0  0  0  0  0  0  0  0  0
   42.7978    5.0027   12.7637 N   0  0  0  0  0  0  0  0  0  0  0  0
   44.9094    3.3226    9.4420 C   0  0  1  0  0  0  0  0  0  0  0  0
   44.7230    6.6010   11.2902 O   0  0  0  0  0  0  0  0  0  0  0  0
   45.6244    5.5726    8.8106 O   0  0  0  0  0  0  0  0  0  0  0  0
   43.2010    2.1296   12.3792 O   0  0  0  0  0  0  0  0  0  0  0  0
   46.0340    2.6248    8.6605 C   0  0  0  0  0  0  0  0  0  0  0  0
   45.5690    1.4097    8.0657 O   0  0  0  0  0  0  0  0  0  0  0  0
   44.5425    4.3979   10.3640 S   0  0  0  0  0  0  0  0  0  0  0  0
   45.8830    4.7895   10.0107 O   0  0  0  0  0  0  0  0  0  0  0  0
   44.5498    3.8756   11.8808 O   0  0  0  0  0  0  0  0  0  0  0  0
   44.2449    3.0361    9.5702 O   0  0  0  0  0  0  0  0  0  0  0  0
   43.3944    5.2584   10.2336 O   0  0  0  0  0  0  0  0  0  0  0  0
   45.9280    2.9490    8.9898 H   0  0  0  0  0  0  0  0  0  0  0  0
   42.9536    2.8501    9.6754 H   0  0  0  0  0  0  0  0  0  0  0  0
   46.1562    4.7658   10.4153 H   0  0  0  0  0  0  0  0  0  0  0  0
   45.2312    2.7544   11.7136 H   0  0  0  0  0  0  0  0  0  0  0  0
   45.0787    4.2179    7.2087 H   0  0  0  0  0  0  0  0  0  0  0  0
   43.5812    4.1287    7.7428 H   0  0  0  0  0  0  0  0  0  0  0  0
   42.7728    4.5686   11.8089 H   0  0  0  0  0  0  0  0  0  0  0  0
   44.1772    1.1434    8.7524 H   0  0  0  0  0  0  0  0  0  0  0  0
   43.4167    1.2493   11.8149 H   0  0  0  0  0  0  0  0  0  0  0  0
   45.8430    6.6150    9.2558 H   0  0  0  0  0  0  0  0  0  0  0  0
   44.2718    4.4577   13.8012 H   0  0  0  0  0  0  0  0  0  0  0  0
   45.6408    4.9779   12.7926 H   0  0  0  0  0  0  0  0  0  0  0  0
   44.0785    6.7666   12.2006 H   0  0  0  0  0  0  0  0  0  0  0  0
   44.7311    4.2556   12.5837 H   0  0  0  0  0  0  0  0  0  0  0  0
   43.3850    5.5725   10.1496 H   0  0  0  0  0  0  0  0  0  0  0  0
   42.5747    3.1090   10.6933 H   0  0  0  0  0  0  0  0  0  0  0  0
   46.2786    4.6381   10.5082 H   0  0  0  0  0  0  0  0  0  0  0  0
   43.2430    5.5725   13.4850 H   0  0  0  0  0  0  0  0  0  0  0  0
   42.3751    4.2273   13.2886 H   0  0  0  0  0  0  0  0  0  0  0  0
   44.0373    3.4047    8.7794 H   0  0  0  0  0  0  0  0  0  0  0  0
   43.9864    6.9369   11.8373 H   0  0  0  0  0  0  0  0  0  0  0  0
   45.7328    6.4643    9.2012 H   0  0  0  0  0  0  0  0  0  0  0  0
   43.0936    1.2706   11.9359 H   0  0  0  0  0  0  0  0  0  0  0  0
   46.8584    2.3571    9.3292 H   0  0  0  0  0  0  0  0  0  0  0  0
   46.4252    3.2573    7.8579 H   0  0  0  0  0  0  0  0  0  0  0  0
   44.8622    1.6428    7.4409 H   0  0  0  0  0  0  0  0  0  0  0  0
   43.6186    3.8540   12.1842 H   0  0  0  0  0  0  0  0  0  0  0  0
   45.1089    2.6076    9.3981 H   0  0  0  0  0  0  0  0  0  0  0  0
  2  1  1  0
  3  1  1  0
  4  3  1  0
  5  2  1  0
  1  6  1  0
  7  4  1  0
  2  8  1  0
  5  9  1  0
  3 10  1  0
  7 11  1  0
 12 11  1  0
  5  7  1  0
 14 13  1  0
 15 13  1  0
 16 15  1  0
 17 14  1  0
 13 18  1  0
 19 16  1  0
 14 20  1  0
 17 21  1  0
 15 22  1  0
 19 23  1  0
 24 23  1  0
 17 19  1  0
 25 26  2  0
 25 27  1  0
 25 28  1  0
 25 29  2  0
  1 30  1  6
  2 31  1  1
  3 32  1  6
  5 33  1  6
  6 34  1  0
  6 35  1  0
  7 36  1  1
  8 37  1  0
  9 38  1  0
 10 39  1  0
 11 40  1  0
 11 41  1  0
 12 42  1  0
 13 43  1  6
 14 44  1  1
 15 45  1  1
 17 46  1  6
 18 47  1  0
 18 48  1  0
 19 49  1  1
 20 50  1  0
 21 51  1  0
 22 52  1  0
 23 53  1  0
 23 54  1  0
 24 55  1  0
 27 56  1  0
 28 57  1  0
M  END
> <Uni-Dock RESULT> 
ENERGY=   -5.419  LOWER_BOUND=    1.013  UPPER_BOUND=    4.212
INTER + INTRA:          -5.419
INTER:                  -5.419
INTRA:                   0.000
UNBOUND:                 0.000

$$$$

     RDKit          3D

 57 56  0  0  0  0  0  0  0  0999 V2000
   44.5057    5.5018   12.2337 C   0  0  2  0  0  0  0  0  0  0  0  0
   44.4156    6.8869   11.5696 C   0  0  2  0  0  0  0  0  0  0  0  0
   45.7965    5.3852   13.0972 C   0  0  2  0  0  0  0  0  0  0  0  0
   46.8467    6.1718   12.5577 O   0  0  0  0  0  0  0  0  0  0  0  0
   45.0797    7.9381   12.4568 C   0  0  1  0  0  0  0  0  0  0  0  0
   44.3617    4.4515   11.1909 N   0  0  0  0  0  0  0  0  0  0  0  0
   46.5738    7.5936   12.5906 C   0  0  1  0  0  0  0  0  0  0  0  0
   43.0440    7.2416   11.3476 O   0  0  0  0  0  0  0  0  0  0  0  0
   44.9110    9.2392   11.8947 O   0  0  0  0  0  0  0  0  0  0  0  0
   46.2192    4.0292   13.1369 O   0  0  0  0  0  0  0  0  0  0  0  0
   47.1806    8.1889   13.8672 C   0  0  0  0  0  0  0  0  0  0  0  0
   48.5692    7.8629   13.9474 O   0  0  0  0  0  0  0  0  0  0  0  0
   46.6039    7.8422   12.7046 C   0  0  2  0  0  0  0  0  0  0  0  0
   46.9249    6.3447   12.7577 C   0  0  2  0  0  0  0  0  0  0  0  0
   45.3695    8.0445   11.7929 C   0  0  1  0  0  0  0  0  0  0  0  0
   44.2596    7.3057   12.2793 O   0  0  0  0  0  0  0  0  0  0  0  0
   45.6912    5.5502   13.2019 C   0  0  1  0  0  0  0  0  0  0  0  0
   47.7920    8.6212   12.2743 N   0  0  0  0  0  0  0  0  0  0  0  0
   44.4995    5.8874   12.2940 C   0  0  1  0  0  0  0  0  0  0  0  0
   48.0018    6.0834   13.6700 O   0  0  0  0  0  0  0  0  0  0  0  0
   45.9963    4.1540   13.1468 O   0  0  0  0  0  0  0  0  0  0  0  0
   45.0141    9.4194   11.8151 O   0  0  0  0  0  0  0  0  0  0  0  0
   43.2233    5.1809   12.7783 C   0  0  0  0  0  0  0  0  0  0  0  0
   42.1553    5.3501   11.8418 O   0  0  0  0  0  0  0  0  0  0  0  0
   45.8617    6.3136   12.6161 S   0  0  0  0  0  0  0  0  0  0  0  0
   45.5866    5.4288   13.7191 O   0  0  0  0  0  0  0  0  0  0  0  0
   45.8725    7.8208   13.1655 O   0  0  0  0  0  0  0  0  0  0  0  0
   44.5407    6.3264   11.7062 O   0  0  0  0  0  0  0  0  0  0  0  0
   47.0065    6.1856   11.7509 O   0  0  0  0  0  0  0  0  0  0  0  0
   43.6482    5.3513   12.9018 H   0  0  0  0  0  0  0  0  0  0  0  0
   44.8997    6.8969   10.5841 H   0  0  0  0  0  0  0  0  0  0  0  0
   45.5878    5.6964   14.1281 H   0  0  0  0  0  0  0  0  0  0  0  0
   44.5848    7.9552   13.4358 H   0  0  0  0  0  0  0  0  0  0  0  0
   44.5255    3.5575   11.6704 H   0  0  0  0  0  0  0  0  0  0  0  0
   45.1796    4.5125   10.5769 H   0  0  0  0  0  0  0  0  0  0  0  0
   47.1274    8.0102   11.7398 H   0  0  0  0  0  0  0  0  0  0  0  0
   42.6621    6.4784   10.8672 H   0  0  0  0  0  0  0  0  0  0  0  0
   43.9899    9.2578   11.5605 H   0  0  0  0  0  0  0  0  0  0  0  0
   46.9608    4.0097   13.7647 H   0  0  0  0  0  0  0  0  0  0  0  0
   47.0797    9.2779   13.8891 H   0  0  0  0  0  0  0  0  0  0  0  0
   46.7034    7.7743   14.7606 H   0  0  0  0  0  0  0  0  0  0  0  0
   48.6719    6.9813   13.5413 H   0  0  0  0  0  0  0  0  0  0  0  0
   46.3529    8.1937   13.7146 H   0  0  0  0  0  0  0  0  0  0  0  0
   47.2581    5.9811   11.7765 H   0  0  0  0  0  0  0  0  0  0  0  0
   45.5839    7.7626   10.7546 H   0  0  0  0  0  0  0  0  0  0  0  0
   45.4587    5.7924   14.2466 H   0  0  0  0  0  0  0  0  0  0  0  0
   48.3439    8.8454   13.1040 H   0  0  0  0  0  0  0  0  0  0  0  0
   47.4380    9.5331   11.9604 H   0  0  0  0  0  0  0  0  0  0  0  0
   44.6961    5.5621   11.2636 H   0  0  0  0  0  0  0  0  0  0  0  0
   48.7429    6.6286   13.3410 H   0  0  0  0  0  0  0  0  0  0  0  0
   46.8540    4.0631   13.6110 H   0  0  0  0  0  0  0  0  0  0  0  0
   44.1682    9.4511   11.3361 H   0  0  0  0  0  0  0  0  0  0  0  0
   42.8847    5.6068   13.7283 H   0  0  0  0  0  0  0  0  0  0  0  0
   43.3787    4.1060   12.9119 H   0  0  0  0  0  0  0  0  0  0  0  0
   42.4328    4.9399   11.0058 H   0  0  0  0  0  0  0  0  0  0  0  0
   46.3000    8.3756   12.4807 H   0  0  0  0  0  0  0  0  0  0  0  0
   43.7866    6.0990   12.2887 H   0  0  0  0  0  0  0  0  0  0  0  0
  2  1  1  0
  3  1  1  0
  4  3  1  0
  5  2  1  0
  1  6  1  0
  7  4  1  0
  2  8  1  0
  5  9  1  0
  3 10  1  0
  7 11  1  0
 12 11  1  0
  5  7  1  0
 14 13  1  0
 15 13  1  0
 16 15  1  0
 17 14  1  0
 13 18  1  0
 19 16  1  0
 14 20  1  0
 17 21  1  0
 15 22  1  0
 19 23  1  0
 24 23  1  0
 17 19  1  0
 25 26  2  0
 25 27  1  0
 25 28  1  0
 25 29  2  0
  1 30  1  6
  2 31  1  1
  3 32  1  6
  5 33  1  6
  6 34  1  0
  6 35  1  0
  7 36  1  1
  8 37  1  0
  9 38  1  0
 10 39  1  0
 11 40  1  0
 11 41  1  0
 12 42  1  0
 13 43  1  6
 14 44  1  1
 15 45  1  1
 17 46  1  6
 18 47  1  0
 18 48  1  0
 19 49  1  1
 20 50  1  0
 21 51  1  0
 22 52  1  0
 23 53  1  0
 23 54  1  0
 24 55  1  0
 27 56  1  0
 28 57  1  0
M  END
> <Uni-Dock RESULT> 
ENERGY=   -5.405  LOWER_BOUND=    2.696  UPPER_BOUND=    4.479
INTER + INTRA:          -5.405
INTER:                  -5.405
INTRA:                   0.000
UNBOUND:                 0.000

$$$$

     RDKit          3D

 57 56  0  0  0  0  0  0  0  0999 V2000
   46.5302    7.0175   12.7474 C   0  0  2  0  0  0  0  0  0  0  0  0
   45.3818    7.9765   12.3878 C   0  0  2  0  0  0  0  0  0  0  0  0
   46.0762    5.5343   12.6083 C   0  0  2  0  0  0  0  0  0  0  0  0
   44.6925    5.3934   12.8882 O   0  0  0  0  0  0  0  0  0  0  0  0
   44.4776    7.3403   11.3339 C   0  0  1  0  0  0  0  0  0  0  0  0
   47.0643    7.3782   14.0875 N   0  0  0  0  0  0  0  0  0  0  0  0
   43.8420    6.0734   11.9336 C   0  0  1  0  0  0  0  0  0  0  0  0
   45.9076    9.2133   11.8875 O   0  0  0  0  0  0  0  0  0  0  0  0
   43.4698    8.2636   10.9229 O   0  0  0  0  0  0  0  0  0  0  0  0
   46.8083    4.7271   13.5202 O   0  0  0  0  0  0  0  0  0  0  0  0
   43.4213    5.0798   10.8436 C   0  0  0  0  0  0  0  0  0  0  0  0
   42.8214    3.9271   11.4369 O   0  0  0  0  0  0  0  0  0  0  0  0
   43.6777    6.0714   11.7129 C   0  0  2  0  0  0  0  0  0  0  0  0
   44.5794    5.2781   12.6648 C   0  0  2  0  0  0  0  0  0  0  0  0
   44.0201    7.5740   11.8554 C   0  0  1  0  0  0  0  0  0  0  0  0
   45.3900    7.8065   11.5666 O   0  0  0  0  0  0  0  0  0  0  0  0
   46.0537    5.6045   12.3990 C   0  0  1  0  0  0  0  0  0  0  0  0
   42.2472    5.7634   11.9626 N   0  0  0  0  0  0  0  0  0  0  0  0
   46.2730    7.1225   12.4732 C   0  0  1  0  0  0  0  0  0  0  0  0
   44.3776    3.8660   12.5045 O   0  0  0  0  0  0  0  0  0  0  0  0
   46.8591    4.9241   13.3654 O   0  0  0  0  0  0  0  0  0  0  0  0
   43.2514    8.3026   10.9092 O   0  0  0  0  0  0  0  0  0  0  0  0
   47.7220    7.4861   12.1117 C   0  0  0  0  0  0  0  0  0  0  0  0
   47.9776    8.8737   12.3472 O   0  0  0  0  0  0  0  0  0  0  0  0
   45.2178    6.1095   12.4354 S   0  0  0  0  0  0  0  0  0  0  0  0
   46.3630    5.3223   12.0555 O   0  0  0  0  0  0  0  0  0  0  0  0
   44.2860    6.3049   11.1443 O   0  0  0  0  0  0  0  0  0  0  0  0
   45.7516    7.6055   12.6599 O   0  0  0  0  0  0  0  0  0  0  0  0
   44.3392    5.7734   13.5266 O   0  0  0  0  0  0  0  0  0  0  0  0
   47.3727    7.1695   12.0609 H   0  0  0  0  0  0  0  0  0  0  0  0
   44.7763    8.2326   13.2673 H   0  0  0  0  0  0  0  0  0  0  0  0
   46.2922    5.1689   11.5969 H   0  0  0  0  0  0  0  0  0  0  0  0
   45.0683    7.1054   10.4397 H   0  0  0  0  0  0  0  0  0  0  0  0
   47.7554    6.6533   14.3171 H   0  0  0  0  0  0  0  0  0  0  0  0
   46.3275    7.1898   14.7740 H   0  0  0  0  0  0  0  0  0  0  0  0
   42.9396    6.3430   12.4967 H   0  0  0  0  0  0  0  0  0  0  0  0
   46.5515    9.5047   12.5654 H   0  0  0  0  0  0  0  0  0  0  0  0
   43.9258    9.1282   10.8529 H   0  0  0  0  0  0  0  0  0  0  0  0
   46.5531    3.8121   13.3154 H   0  0  0  0  0  0  0  0  0  0  0  0
   42.7018    5.5256   10.1507 H   0  0  0  0  0  0  0  0  0  0  0  0
   44.2877    4.7308   10.2732 H   0  0  0  0  0  0  0  0  0  0  0  0
   43.2732    3.7865   12.2906 H   0  0  0  0  0  0  0  0  0  0  0  0
   43.8845    5.7631   10.6790 H   0  0  0  0  0  0  0  0  0  0  0  0
   44.3392    5.5061   13.7118 H   0  0  0  0  0  0  0  0  0  0  0  0
   43.7770    7.9503   12.8569 H   0  0  0  0  0  0  0  0  0  0  0  0
   46.3385    5.2231   11.4102 H   0  0  0  0  0  0  0  0  0  0  0  0
   41.9941    4.9478   11.4023 H   0  0  0  0  0  0  0  0  0  0  0  0
   41.7111    6.5299   11.5376 H   0  0  0  0  0  0  0  0  0  0  0  0
   46.0748    7.4912   13.4886 H   0  0  0  0  0  0  0  0  0  0  0  0
   43.4239    3.7318   12.6698 H   0  0  0  0  0  0  0  0  0  0  0  0
   46.5339    4.0002   13.3615 H   0  0  0  0  0  0  0  0  0  0  0  0
   43.6075    9.2060   10.9628 H   0  0  0  0  0  0  0  0  0  0  0  0
   47.9110    7.3030   11.0490 H   0  0  0  0  0  0  0  0  0  0  0  0
   48.4446    6.9123   12.7000 H   0  0  0  0  0  0  0  0  0  0  0  0
   47.8497    9.0368   13.2965 H   0  0  0  0  0  0  0  0  0  0  0  0
   43.4119    6.6129   11.4619 H   0  0  0  0  0  0  0  0  0  0  0  0
   46.5598    7.7083   12.1160 H   0  0  0  0  0  0  0  0  0  0  0  0
  2  1  1  0
  3  1  1  0
  4  3  1  0
  5  2  1  0
  1  6  1  0
  7  4  1  0
  2  8  1  0
  5  9  1  0
  3 10  1  0
  7 11  1  0
 12 11  1  0
  5  7  1  0
 14 13  1  0
 15 13  1  0
 16 15  1  0
 17 14  1  0
 13 18  1  0
 19 16  1  0
 14 20  1  0
 17 21  1  0
 15 22  1  0
 19 23  1  0
 24 23  1  0
 17 19  1  0
 25 26  2  0
 25 27  1  0
 25 28  1  0
 25 29  2  0
  1 30  1  6
  2 31  1  1
  3 32  1  6
  5 33  1  6
  6 34  1  0
  6 35  1  0
  7 36  1  1
  8 37  1  0
  9 38  1  0
 10 39  1  0
 11 40  1  0
 11 41  1  0
 12 42  1  0
 13 43  1  6
 14 44  1  1
 15 45  1  1
 17 46  1  6
 18 47  1  0
 18 48  1  0
 19 49  1  1
 20 50  1  0
 21 51  1  0
 22 52  1  0
 23 53  1  0
 23 54  1  0
 24 55  1  0
 27 56  1  0
 28 57  1  0
M  END
> <Uni-Dock RESULT> 
ENERGY=   -4.973  LOWER_BOUND=    2.203  UPPER_BOUND=    3.304
INTER + INTRA:          -4.973
INTER:                  -4.973
INTRA:                   0.000
UNBOUND:                 0.000

$$$$

     RDKit          3D

 57 56  0  0  0  0  0  0  0  0999 V2000
   46.7065    6.2959   13.1393 C   0  0  2  0  0  0  0  0  0  0  0  0
   45.7735    7.4476   12.7259 C   0  0  2  0  0  0  0  0  0  0  0  0
   46.0222    4.9172   12.9016 C   0  0  2  0  0  0  0  0  0  0  0  0
   44.6153    5.0093   13.0597 O   0  0  0  0  0  0  0  0  0  0  0  0
   44.8720    7.0049   11.5751 C   0  0  1  0  0  0  0  0  0  0  0  0
   47.1727    6.5232   14.5330 N   0  0  0  0  0  0  0  0  0  0  0  0
   43.9803    5.8508   12.0669 C   0  0  1  0  0  0  0  0  0  0  0  0
   46.5433    8.5883   12.3227 O   0  0  0  0  0  0  0  0  0  0  0  0
   44.0755    8.0986   11.1206 O   0  0  0  0  0  0  0  0  0  0  0  0
   46.5231    3.9720   13.8368 O   0  0  0  0  0  0  0  0  0  0  0  0
   43.4961    4.9740   10.9054 C   0  0  0  0  0  0  0  0  0  0  0  0
   42.6594    3.9264   11.3985 O   0  0  0  0  0  0  0  0  0  0  0  0
   43.8384    5.8830   11.8334 C   0  0  2  0  0  0  0  0  0  0  0  0
   44.5046    4.9212   12.8231 C   0  0  2  0  0  0  0  0  0  0  0  0
   44.4161    7.3000   12.0661 C   0  0  1  0  0  0  0  0  0  0  0  0
   45.8257    7.3007   11.9018 O   0  0  0  0  0  0  0  0  0  0  0  0
   46.0306    4.9958   12.6942 C   0  0  1  0  0  0  0  0  0  0  0  0
   42.3599    5.8195   11.9506 N   0  0  0  0  0  0  0  0  0  0  0  0
   46.4961    6.4509   12.8494 C   0  0  1  0  0  0  0  0  0  0  0  0
   44.0817    3.5698   12.5881 O   0  0  0  0  0  0  0  0  0  0  0  0
   46.6201    4.1614   13.6951 O   0  0  0  0  0  0  0  0  0  0  0  0
   43.8689    8.1750   11.0904 O   0  0  0  0  0  0  0  0  0  0  0  0
   48.0121    6.5690   12.6247 C   0  0  0  0  0  0  0  0  0  0  0  0
   48.4770    7.8851   12.9380 O   0  0  0  0  0  0  0  0  0  0  0  0
   45.2923    5.6361   12.6821 S   0  0  0  0  0  0  0  0  0  0  0  0
   46.3169    4.6739   12.3662 O   0  0  0  0  0  0  0  0  0  0  0  0
   44.5254    6.0235   11.3274 O   0  0  0  0  0  0  0  0  0  0  0  0
   46.0495    7.0112   13.0121 O   0  0  0  0  0  0  0  0  0  0  0  0
   44.2761    5.4273   13.6818 O   0  0  0  0  0  0  0  0  0  0  0  0
   47.6202    6.3188   12.5320 H   0  0  0  0  0  0  0  0  0  0  0  0
   45.1444    7.7805   13.5620 H   0  0  0  0  0  0  0  0  0  0  0  0
   46.2622    4.5473   11.8973 H   0  0  0  0  0  0  0  0  0  0  0  0
   45.4914    6.6959   10.7240 H   0  0  0  0  0  0  0  0  0  0  0  0
   47.7080    5.6842   14.7888 H   0  0  0  0  0  0  0  0  0  0  0  0
   46.3566    6.4462   15.1475 H   0  0  0  0  0  0  0  0  0  0  0  0
   43.0902    6.2567   12.5640 H   0  0  0  0  0  0  0  0  0  0  0  0
   47.1645    8.7462   13.0632 H   0  0  0  0  0  0  0  0  0  0  0  0
   44.6756    8.8734   11.1247 H   0  0  0  0  0  0  0  0  0  0  0  0
   46.1359    3.1204   13.5737 H   0  0  0  0  0  0  0  0  0  0  0  0
   42.9269    5.5555   10.1743 H   0  0  0  0  0  0  0  0  0  0  0  0
   44.3381    4.4964   10.3949 H   0  0  0  0  0  0  0  0  0  0  0  0
   43.0033    3.6874   12.2802 H   0  0  0  0  0  0  0  0  0  0  0  0
   44.0810    5.5715   10.8083 H   0  0  0  0  0  0  0  0  0  0  0  0
   44.2144    5.1591   13.8551 H   0  0  0  0  0  0  0  0  0  0  0  0
   44.1522    7.6855   13.0587 H   0  0  0  0  0  0  0  0  0  0  0  0
   46.3334    4.5976   11.7175 H   0  0  0  0  0  0  0  0  0  0  0  0
   42.0232    5.0749   11.3379 H   0  0  0  0  0  0  0  0  0  0  0  0
   42.0012    6.6779   11.5148 H   0  0  0  0  0  0  0  0  0  0  0  0
   46.2738    6.8209   13.8593 H   0  0  0  0  0  0  0  0  0  0  0  0
   43.1083    3.5975   12.6680 H   0  0  0  0  0  0  0  0  0  0  0  0
   46.1449    3.3076   13.6258 H   0  0  0  0  0  0  0  0  0  0  0  0
   44.3666    9.0019   11.2109 H   0  0  0  0  0  0  0  0  0  0  0  0
   48.2610    6.3846   11.5747 H   0  0  0  0  0  0  0  0  0  0  0  0
   48.5720    5.8638   13.2466 H   0  0  0  0  0  0  0  0  0  0  0  0
   48.2946    8.0424   13.8794 H   0  0  0  0  0  0  0  0  0  0  0  0
   43.6914    6.4688   11.5839 H   0  0  0  0  0  0  0  0  0  0  0  0
   46.9086    6.9879   12.5418 H   0  0  0  0  0  0  0  0  0  0  0  0
  2  1  1  0
  3  1  1  0
  4  3  1  0
  5  2  1  0
  1  6  1  0
  7  4  1  0
  2  8  1  0
  5  9  1  0
  3 10  1  0
  7 11  1  0
 12 11  1  0
  5  7  1  0
 14 13  1  0
 15 13  1  0
 16 15  1  0
 17 14  1  0
 13 18  1  0
 19 16  1  0
 14 20  1  0
 17 21  1  0
 15 22  1  0
 19 23  1  0
 24 23  1  0
 17 19  1  0
 25 26  2  0
 25 27  1  0
 25 28  1  0
 25 29  2  0
  1 30  1  6
  2 31  1  1
  3 32  1  6
  5 33  1  6
  6 34  1  0
  6 35  1  0
  7 36  1  1
  8 37  1  0
  9 38  1  0
 10 39  1  0
 11 40  1  0
 11 41  1  0
 12 42  1  0
 13 43  1  6
 14 44  1  1
 15 45  1  1
 17 46  1  6
 18 47  1  0
 18 48  1  0
 19 49  1  1
 20 50  1  0
 21 51  1  0
 22 52  1  0
 23 53  1  0
 23 54  1  0
 24 55  1  0
 27 56  1  0
 28 57  1  0
M  END
> <Uni-Dock RESULT> 
ENERGY=   -4.877  LOWER_BOUND=    2.134  UPPER_BOUND=    3.093
INTER + INTRA:          -4.877
INTER:                  -4.877
INTRA:                   0.000
UNBOUND:                 0.000

$$$$

     RDKit          3D

 57 56  0  0  0  0  0  0  0  0999 V2000
   43.9179    4.3727   11.5112 C   0  0  2  0  0  0  0  0  0  0  0  0
   44.4807    5.3590   10.4729 C   0  0  2  0  0  0  0  0  0  0  0  0
   44.0722    2.9032   11.0188 C   0  0  2  0  0  0  0  0  0  0  0  0
   44.0005    2.8267    9.6039 O   0  0  0  0  0  0  0  0  0  0  0  0
   45.6366    4.7147    9.7101 C   0  0  1  0  0  0  0  0  0  0  0  0
   42.5257    4.7677   11.8535 N   0  0  0  0  0  0  0  0  0  0  0  0
   45.0962    3.4986    8.9368 C   0  0  1  0  0  0  0  0  0  0  0  0
   44.9385    6.5532   11.1214 O   0  0  0  0  0  0  0  0  0  0  0  0
   46.2277    5.6579    8.8167 O   0  0  0  0  0  0  0  0  0  0  0  0
   43.0322    2.1071   11.5697 O   0  0  0  0  0  0  0  0  0  0  0  0
   46.2020    2.4776    8.6414 C   0  0  0  0  0  0  0  0  0  0  0  0
   45.6665    1.3740    7.9093 O   0  0  0  0  0  0  0  0  0  0  0  0
   45.3391    3.4937    8.8076 C   0  0  2  0  0  0  0  0  0  0  0  0
   44.2343    2.7067    9.5207 C   0  0  2  0  0  0  0  0  0  0  0  0
   45.1990    4.9869    9.1902 C   0  0  1  0  0  0  0  0  0  0  0  0
   45.2847    5.1551   10.5968 O   0  0  0  0  0  0  0  0  0  0  0  0
   44.2848    2.9656   11.0310 C   0  0  1  0  0  0  0  0  0  0  0  0
   45.2985    3.2509    7.3438 N   0  0  0  0  0  0  0  0  0  0  0  0
   44.2314    4.4760   11.3029 C   0  0  1  0  0  0  0  0  0  0  0  0
   44.3738    1.2979    9.2836 O   0  0  0  0  0  0  0  0  0  0  0  0
   43.1843    2.2955   11.6517 O   0  0  0  0  0  0  0  0  0  0  0  0
   46.2757    5.7045    8.6047 O   0  0  0  0  0  0  0  0  0  0  0  0
   44.3815    4.7690   12.8043 C   0  0  0  0  0  0  0  0  0  0  0  0
   44.1587    6.1545   13.0822 O   0  0  0  0  0  0  0  0  0  0  0  0
   44.3933    3.5031   10.2221 S   0  0  0  0  0  0  0  0  0  0  0  0
   44.5673    2.6580   11.3757 O   0  0  0  0  0  0  0  0  0  0  0  0
   45.8167    3.6804    9.5039 O   0  0  0  0  0  0  0  0  0  0  0  0
   44.1429    4.9857   10.7810 O   0  0  0  0  0  0  0  0  0  0  0  0
   43.4368    3.2458    9.1759 O   0  0  0  0  0  0  0  0  0  0  0  0
   44.4736    4.4641   12.4531 H   0  0  0  0  0  0  0  0  0  0  0  0
   43.7127    5.6739    9.7541 H   0  0  0  0  0  0  0  0  0  0  0  0
   45.0257    2.4886   11.3679 H   0  0  0  0  0  0  0  0  0  0  0  0
   46.4222    4.4209   10.4174 H   0  0  0  0  0  0  0  0  0  0  0  0
   42.1687    4.0271   12.4700 H   0  0  0  0  0  0  0  0  0  0  0  0
   41.9527    4.6358   11.0145 H   0  0  0  0  0  0  0  0  0  0  0  0
   44.6862    3.8253    7.9729 H   0  0  0  0  0  0  0  0  0  0  0  0
   44.1814    6.8476   11.6685 H   0  0  0  0  0  0  0  0  0  0  0  0
   46.2579    6.5009    9.3155 H   0  0  0  0  0  0  0  0  0  0  0  0
   43.2412    1.1948   11.3083 H   0  0  0  0  0  0  0  0  0  0  0  0
   47.0111    2.9216    8.0542 H   0  0  0  0  0  0  0  0  0  0  0  0
   46.6218    2.0727    9.5674 H   0  0  0  0  0  0  0  0  0  0  0  0
   44.7498    1.2516    8.2214 H   0  0  0  0  0  0  0  0  0  0  0  0
   46.3183    3.1355    9.1535 H   0  0  0  0  0  0  0  0  0  0  0  0
   43.2444    2.9866    9.1364 H   0  0  0  0  0  0  0  0  0  0  0  0
   44.2597    5.4131    8.8163 H   0  0  0  0  0  0  0  0  0  0  0  0
   45.2050    2.5333   11.4440 H   0  0  0  0  0  0  0  0  0  0  0  0
   45.8617    2.4231    7.1421 H   0  0  0  0  0  0  0  0  0  0  0  0
   45.8264    4.0190    6.9116 H   0  0  0  0  0  0  0  0  0  0  0  0
   43.2713    4.8934   10.9710 H   0  0  0  0  0  0  0  0  0  0  0  0
   44.3504    1.2070    8.3110 H   0  0  0  0  0  0  0  0  0  0  0  0
   43.2051    1.3852   11.2907 H   0  0  0  0  0  0  0  0  0  0  0  0
   46.2004    6.5952    8.9880 H   0  0  0  0  0  0  0  0  0  0  0  0
   45.3962    4.5353   13.1424 H   0  0  0  0  0  0  0  0  0  0  0  0
   43.6708    4.1929   13.4046 H   0  0  0  0  0  0  0  0  0  0  0  0
   43.2461    6.3613   12.8205 H   0  0  0  0  0  0  0  0  0  0  0  0
   45.6463    4.0342    8.6065 H   0  0  0  0  0  0  0  0  0  0  0  0
   44.5612    5.0352   11.6655 H   0  0  0  0  0  0  0  0  0  0  0  0
  2  1  1  0
  3  1  1  0
  4  3  1  0
  5  2  1  0
  1  6  1  0
  7  4  1  0
  2  8  1  0
  5  9  1  0
  3 10  1  0
  7 11  1  0
 12 11  1  0
  5  7  1  0
 14 13  1  0
 15 13  1  0
 16 15  1  0
 17 14  1  0
 13 18  1  0
 19 16  1  0
 14 20  1  0
 17 21  1  0
 15 22  1  0
 19 23  1  0
 24 23  1  0
 17 19  1  0
 25 26  2  0
 25 27  1  0
 25 28  1  0
 25 29  2  0
  1 30  1  6
  2 31  1  1
  3 32  1  6
  5 33  1  6
  6 34  1  0
  6 35  1  0
  7 36  1  1
  8 37  1  0
  9 38  1  0
 10 39  1  0
 11 40  1  0
 11 41  1  0
 12 42  1  0
 13 43  1  6
 14 44  1  1
 15 45  1  1
 17 46  1  6
 18 47  1  0
 18 48  1  0
 19 49  1  1
 20 50  1  0
 21 51  1  0
 22 52  1  0
 23 53  1  0
 23 54  1  0
 24 55  1  0
 27 56  1  0
 28 57  1  0
M  END
> <Uni-Dock RESULT> 
ENERGY=   -4.571  LOWER_BOUND=    1.121  UPPER_BOUND=    1.267
INTER + INTRA:          -4.571
INTER:                  -4.571
INTRA:                   0.000
UNBOUND:                 0.000

$$$$

     RDKit          3D

 57 56  0  0  0  0  0  0  0  0999 V2000
   47.7741    3.9259   17.3660 C   0  0  2  0  0  0  0  0  0  0  0  0
   49.1008    3.1526   17.4641 C   0  0  2  0  0  0  0  0  0  0  0  0
   47.7530    5.1176   18.3685 C   0  0  2  0  0  0  0  0  0  0  0  0
   48.5173    4.8257   19.5276 O   0  0  0  0  0  0  0  0  0  0  0  0
   50.2321    4.0999   17.8589 C   0  0  1  0  0  0  0  0  0  0  0  0
   46.6426    2.9724   17.5141 N   0  0  0  0  0  0  0  0  0  0  0  0
   49.9311    4.6669   19.2577 C   0  0  1  0  0  0  0  0  0  0  0  0
   49.4077    2.5340   16.2074 O   0  0  0  0  0  0  0  0  0  0  0  0
   51.4813    3.4095   17.8532 O   0  0  0  0  0  0  0  0  0  0  0  0
   46.4137    5.3818   18.7625 O   0  0  0  0  0  0  0  0  0  0  0  0
   50.6372    6.0085   19.4896 C   0  0  0  0  0  0  0  0  0  0  0  0
   50.3482    6.4936   20.8018 O   0  0  0  0  0  0  0  0  0  0  0  0
   50.1885    4.7642   19.2555 C   0  0  2  0  0  0  0  0  0  0  0  0
   48.7069    5.0248   19.5478 C   0  0  2  0  0  0  0  0  0  0  0  0
   50.2924    3.5350   18.3207 C   0  0  1  0  0  0  0  0  0  0  0  0
   49.5704    3.7557   17.1189 O   0  0  0  0  0  0  0  0  0  0  0  0
   47.9234    5.1755   18.2386 C   0  0  1  0  0  0  0  0  0  0  0  0
   50.9565    4.6156   20.5171 N   0  0  0  0  0  0  0  0  0  0  0  0
   48.1630    3.9507   17.3439 C   0  0  1  0  0  0  0  0  0  0  0  0
   48.5408    6.2161   20.3311 O   0  0  0  0  0  0  0  0  0  0  0  0
   46.5340    5.3198   18.5456 O   0  0  0  0  0  0  0  0  0  0  0  0
   51.6569    3.3470   17.9744 O   0  0  0  0  0  0  0  0  0  0  0  0
   47.4696    4.1211   15.9828 C   0  0  0  0  0  0  0  0  0  0  0  0
   47.5422    2.9165   15.2147 O   0  0  0  0  0  0  0  0  0  0  0  0
   48.6421    4.5993   18.5649 S   0  0  0  0  0  0  0  0  0  0  0  0
   47.8406    5.6521   17.9953 O   0  0  0  0  0  0  0  0  0  0  0  0
   50.1875    5.0064   18.4254 O   0  0  0  0  0  0  0  0  0  0  0  0
   48.5555    3.3633   17.5461 O   0  0  0  0  0  0  0  0  0  0  0  0
   48.4713    4.0956   19.9038 O   0  0  0  0  0  0  0  0  0  0  0  0
   47.6581    4.3424   16.3574 H   0  0  0  0  0  0  0  0  0  0  0  0
   49.0440    2.3408   18.2012 H   0  0  0  0  0  0  0  0  0  0  0  0
   48.1394    6.0225   17.8839 H   0  0  0  0  0  0  0  0  0  0  0  0
   50.3152    4.9004   17.1132 H   0  0  0  0  0  0  0  0  0  0  0  0
   45.7926    3.5493   17.5383 H   0  0  0  0  0  0  0  0  0  0  0  0
   46.6729    2.6042   18.4697 H   0  0  0  0  0  0  0  0  0  0  0  0
   50.2916    3.9702   20.0250 H   0  0  0  0  0  0  0  0  0  0  0  0
   48.6013    2.0307   15.9719 H   0  0  0  0  0  0  0  0  0  0  0  0
   51.4541    2.8345   17.0600 H   0  0  0  0  0  0  0  0  0  0  0  0
   46.4591    6.1887   19.3020 H   0  0  0  0  0  0  0  0  0  0  0  0
   51.7222    5.9134   19.3878 H   0  0  0  0  0  0  0  0  0  0  0  0
   50.2837    6.7668   18.7840 H   0  0  0  0  0  0  0  0  0  0  0  0
   49.4399    6.2042   21.0116 H   0  0  0  0  0  0  0  0  0  0  0  0
   50.6124    5.6343   18.7361 H   0  0  0  0  0  0  0  0  0  0  0  0
   48.2748    4.2059   20.1383 H   0  0  0  0  0  0  0  0  0  0  0  0
   49.9348    2.6221   18.8128 H   0  0  0  0  0  0  0  0  0  0  0  0
   48.2416    6.0928   17.7273 H   0  0  0  0  0  0  0  0  0  0  0  0
   51.2567    5.5440   20.8189 H   0  0  0  0  0  0  0  0  0  0  0  0
   51.8333    4.1435   20.2644 H   0  0  0  0  0  0  0  0  0  0  0  0
   47.7624    3.0440   17.8167 H   0  0  0  0  0  0  0  0  0  0  0  0
   49.0743    6.0605   21.1348 H   0  0  0  0  0  0  0  0  0  0  0  0
   46.4981    6.0078   19.2419 H   0  0  0  0  0  0  0  0  0  0  0  0
   51.6330    2.6529   17.2934 H   0  0  0  0  0  0  0  0  0  0  0  0
   47.9611    4.9035   15.3958 H   0  0  0  0  0  0  0  0  0  0  0  0
   46.4119    4.3789   16.0942 H   0  0  0  0  0  0  0  0  0  0  0  0
   47.0739    2.2251   15.7116 H   0  0  0  0  0  0  0  0  0  0  0  0
   50.6961    4.4229   19.0258 H   0  0  0  0  0  0  0  0  0  0  0  0
   48.3584    3.7325   16.6603 H   0  0  0  0  0  0  0  0  0  0  0  0
  2  1  1  0
  3  1  1  0
  4  3  1  0
  5  2  1  0
  1  6  1  0
  7  4  1  0
  2  8  1  0
  5  9  1  0
  3 10  1  0
  7 11  1  0
 12 11  1  0
  5  7  1  0
 14 13  1  0
 15 13  1  0
 16 15  1  0
 17 14  1  0
 13 18  1  0
 19 16  1  0
 14 20  1  0
 17 21  1  0
 15 22  1  0
 19 23  1  0
 24 23  1  0
 17 19  1  0
 25 26  2  0
 25 27  1  0
 25 28  1  0
 25 29  2  0
  1 30  1  6
  2 31  1  1
  3 32  1  6
  5 33  1  6
  6 34  1  0
  6 35  1  0
  7 36  1  1
  8 37  1  0
  9 38  1  0
 10 39  1  0
 11 40  1  0
 11 41  1  0
 12 42  1  0
 13 43  1  6
 14 44  1  1
 15 45  1  1
 17 46  1  6
 18 47  1  0
 18 48  1  0
 19 49  1  1
 20 50  1  0
 21 51  1  0
 22 52  1  0
 23 53  1  0
 23 54  1  0
 24 55  1  0
 27 56  1  0
 28 57  1  0
M  END
> <Uni-Dock RESULT> 
ENERGY=   -4.483  LOWER_BOUND=    6.757  UPPER_BOUND=    9.232
INTER + INTRA:          -4.483
INTER:                  -4.483
INTRA:                   0.000
UNBOUND:                 0.000

$$$$
