
     RDKit          3D

 57 56  0  0  0  0  0  0  0  0999 V2000
   44.8406    5.1192   12.1777 C   0  0  2  0  0  0  0  0  0  0  0  0
   44.6856    5.6914   10.7475 C   0  0  2  0  0  0  0  0  0  0  0  0
   44.0452    3.7891   12.2590 C   0  0  2  0  0  0  0  0  0  0  0  0
   44.5046    2.8496   11.2899 O   0  0  0  0  0  0  0  0  0  0  0  0
   45.1422    4.6393    9.7345 C   0  0  1  0  0  0  0  0  0  0  0  0
   44.4358    6.0785   13.2293 N   0  0  0  0  0  0  0  0  0  0  0  0
   44.3739    3.3198    9.9367 C   0  0  1  0  0  0  0  0  0  0  0  0
   45.4838    6.8694   10.5622 O   0  0  0  0  0  0  0  0  0  0  0  0
   44.9900    5.1332    8.4163 O   0  0  0  0  0  0  0  0  0  0  0  0
   42.6501    4.0138   12.0907 O   0  0  0  0  0  0  0  0  0  0  0  0
   44.8801    2.2096    8.9959 C   0  0  0  0  0  0  0  0  0  0  0  0
   44.1559    1.0081    9.2481 O   0  0  0  0  0  0  0  0  0  0  0  0
   44.8078    3.0539   10.0648 C   0  0  2  0  0  0  0  0  0  0  0  0
   43.6592    3.1854   11.0743 C   0  0  2  0  0  0  0  0  0  0  0  0
   45.0261    4.4094    9.3435 C   0  0  1  0  0  0  0  0  0  0  0  0
   45.2612    5.4602   10.2570 O   0  0  0  0  0  0  0  0  0  0  0  0
   43.9219    4.3609   12.0231 C   0  0  1  0  0  0  0  0  0  0  0  0
   44.5649    1.9588    9.1075 N   0  0  0  0  0  0  0  0  0  0  0  0
   44.2327    5.6481   11.2446 C   0  0  1  0  0  0  0  0  0  0  0  0
   43.5034    2.0080   11.8863 O   0  0  0  0  0  0  0  0  0  0  0  0
   42.7817    4.5380   12.8692 O   0  0  0  0  0  0  0  0  0  0  0  0
   46.1947    4.3015    8.5507 O   0  0  0  0  0  0  0  0  0  0  0  0
   44.7649    6.7359   12.2048 C   0  0  0  0  0  0  0  0  0  0  0  0
   44.9627    7.9582   11.4987 O   0  0  0  0  0  0  0  0  0  0  0  0
   44.4838    4.7635   10.5427 S   0  0  0  0  0  0  0  0  0  0  0  0
   43.3359    5.6118   10.7168 O   0  0  0  0  0  0  0  0  0  0  0  0
   44.7666    4.1111   11.9794 O   0  0  0  0  0  0  0  0  0  0  0  0
   44.0353    3.4669    9.7129 O   0  0  0  0  0  0  0  0  0  0  0  0
   45.7475    5.2321   10.0207 O   0  0  0  0  0  0  0  0  0  0  0  0
   45.9104    4.9017   12.3381 H   0  0  0  0  0  0  0  0  0  0  0  0
   43.6480    5.9903   10.5491 H   0  0  0  0  0  0  0  0  0  0  0  0
   44.2066    3.3334   13.2512 H   0  0  0  0  0  0  0  0  0  0  0  0
   46.2124    4.4690    9.8707 H   0  0  0  0  0  0  0  0  0  0  0  0
   44.9878    6.9386   13.1914 H   0  0  0  0  0  0  0  0  0  0  0  0
   43.4681    6.3410   13.0693 H   0  0  0  0  0  0  0  0  0  0  0  0
   43.3027    3.4616    9.7321 H   0  0  0  0  0  0  0  0  0  0  0  0
   45.1227    7.5520   11.1487 H   0  0  0  0  0  0  0  0  0  0  0  0
   45.3858    6.0328    8.4279 H   0  0  0  0  0  0  0  0  0  0  0  0
   42.2251    3.3118   12.6121 H   0  0  0  0  0  0  0  0  0  0  0  0
   44.7516    2.4824    7.9332 H   0  0  0  0  0  0  0  0  0  0  0  0
   45.9414    1.9896    9.1848 H   0  0  0  0  0  0  0  0  0  0  0  0
   43.9916    1.0113   10.2120 H   0  0  0  0  0  0  0  0  0  0  0  0
   45.7228    2.8169   10.6066 H   0  0  0  0  0  0  0  0  0  0  0  0
   42.6992    3.3355   10.5652 H   0  0  0  0  0  0  0  0  0  0  0  0
   44.1877    4.6586    8.6913 H   0  0  0  0  0  0  0  0  0  0  0  0
   44.7623    4.1131   12.6839 H   0  0  0  0  0  0  0  0  0  0  0  0
   45.2582    2.0295    8.3502 H   0  0  0  0  0  0  0  0  0  0  0  0
   44.7336    1.0538    9.5326 H   0  0  0  0  0  0  0  0  0  0  0  0
   43.3360    6.0385   10.7414 H   0  0  0  0  0  0  0  0  0  0  0  0
   43.9003    1.2658   11.4030 H   0  0  0  0  0  0  0  0  0  0  0  0
   42.6957    3.7043   13.3503 H   0  0  0  0  0  0  0  0  0  0  0  0
   46.3203    5.1975    8.1894 H   0  0  0  0  0  0  0  0  0  0  0  0
   45.7353    6.4377   12.6130 H   0  0  0  0  0  0  0  0  0  0  0  0
   44.0760    6.9401   13.0313 H   0  0  0  0  0  0  0  0  0  0  0  0
   45.3738    7.7039   10.6523 H   0  0  0  0  0  0  0  0  0  0  0  0
   44.6941    4.8168   12.6485 H   0  0  0  0  0  0  0  0  0  0  0  0
   43.8685    2.7407   10.3424 H   0  0  0  0  0  0  0  0  0  0  0  0
  2  1  1  0
  3  1  1  0
  4  3  1  0
  5  2  1  0
  1  6  1  0
  7  4  1  0
  2  8  1  0
  5  9  1  0
  3 10  1  0
  7 11  1  0
 12 11  1  0
  5  7  1  0
 14 13  1  0
 15 13  1  0
 16 15  1  0
 17 14  1  0
 13 18  1  0
 19 16  1  0
 14 20  1  0
 17 21  1  0
 15 22  1  0
 19 23  1  0
 24 23  1  0
 17 19  1  0
 25 26  2  0
 25 27  1  0
 25 28  1  0
 25 29  2  0
  1 30  1  6
  2 31  1  1
  3 32  1  1
  5 33  1  6
  6 34  1  0
  6 35  1  0
  7 36  1  1
  8 37  1  0
  9 38  1  0
 10 39  1  0
 11 40  1  0
 11 41  1  0
 12 42  1  0
 13 43  1  6
 14 44  1  1
 15 45  1  1
 17 46  1  6
 18 47  1  0
 18 48  1  0
 19 49  1  1
 20 50  1  0
 21 51  1  0
 22 52  1  0
 23 53  1  0
 23 54  1  0
 24 55  1  0
 27 56  1  0
 28 57  1  0
M  END
> <Uni-Dock RESULT> 
ENERGY=   -6.543  LOWER_BOUND=    0.000  UPPER_BOUND=    0.000
INTER + INTRA:          -6.543
INTER:                  -6.543
INTRA:                   0.000
UNBOUND:                 0.000

$$$$

     RDKit          3D

 57 56  0  0  0  0  0  0  0  0999 V2000
   43.4212    5.3939   10.7792 C   0  0  2  0  0  0  0  0  0  0  0  0
   43.7002    4.3058   11.8447 C   0  0  2  0  0  0  0  0  0  0  0  0
   44.5034    5.2810    9.6727 C   0  0  2  0  0  0  0  0  0  0  0  0
   44.5046    3.9850    9.0783 O   0  0  0  0  0  0  0  0  0  0  0  0
   43.7421    2.9363   11.1634 C   0  0  1  0  0  0  0  0  0  0  0  0
   43.3469    6.7562   11.3524 N   0  0  0  0  0  0  0  0  0  0  0  0
   44.7721    2.9295   10.0183 C   0  0  1  0  0  0  0  0  0  0  0  0
   42.6755    4.2768   12.8487 O   0  0  0  0  0  0  0  0  0  0  0  0
   44.0169    1.9258   12.1163 O   0  0  0  0  0  0  0  0  0  0  0  0
   45.7967    5.5780   10.1868 O   0  0  0  0  0  0  0  0  0  0  0  0
   44.7681    1.5945    9.2490 C   0  0  0  0  0  0  0  0  0  0  0  0
   45.7159    1.6572    8.1863 O   0  0  0  0  0  0  0  0  0  0  0  0
   44.4061    2.8465    9.6516 C   0  0  2  0  0  0  0  0  0  0  0  0
   45.2587    4.1221    9.6136 C   0  0  2  0  0  0  0  0  0  0  0  0
   43.9887    2.5414   11.1138 C   0  0  1  0  0  0  0  0  0  0  0  0
   43.3130    3.6303   11.7067 O   0  0  0  0  0  0  0  0  0  0  0  0
   44.5175    5.2737   10.3033 C   0  0  1  0  0  0  0  0  0  0  0  0
   45.1094    1.7063    9.0352 N   0  0  0  0  0  0  0  0  0  0  0  0
   44.0418    4.8702   11.7070 C   0  0  1  0  0  0  0  0  0  0  0  0
   45.5528    4.5471    8.2709 O   0  0  0  0  0  0  0  0  0  0  0  0
   45.3824    6.4118   10.3641 O   0  0  0  0  0  0  0  0  0  0  0  0
   43.0683    1.4652   11.0920 O   0  0  0  0  0  0  0  0  0  0  0  0
   43.0664    5.9316   12.2642 C   0  0  0  0  0  0  0  0  0  0  0  0
   42.7001    5.6054   13.6026 O   0  0  0  0  0  0  0  0  0  0  0  0
   44.1730    3.8918   11.1039 S   0  0  0  0  0  0  0  0  0  0  0  0
   45.0027    4.6233   12.0226 O   0  0  0  0  0  0  0  0  0  0  0  0
   43.7927    4.9264    9.9399 O   0  0  0  0  0  0  0  0  0  0  0  0
   45.0980    2.8629   10.2936 O   0  0  0  0  0  0  0  0  0  0  0  0
   42.9593    3.2120   11.4962 O   0  0  0  0  0  0  0  0  0  0  0  0
   42.4351    5.1810   10.3323 H   0  0  0  0  0  0  0  0  0  0  0  0
   44.6422    4.5001   12.3742 H   0  0  0  0  0  0  0  0  0  0  0  0
   44.2742    6.0032    8.8702 H   0  0  0  0  0  0  0  0  0  0  0  0
   42.7481    2.7155   10.7683 H   0  0  0  0  0  0  0  0  0  0  0  0
   42.6087    6.8323   12.0560 H   0  0  0  0  0  0  0  0  0  0  0  0
   44.2247    6.9552   11.8223 H   0  0  0  0  0  0  0  0  0  0  0  0
   45.7880    3.0794   10.4120 H   0  0  0  0  0  0  0  0  0  0  0  0
   42.7235    5.1185   13.3277 H   0  0  0  0  0  0  0  0  0  0  0  0
   43.4062    2.1018   12.8661 H   0  0  0  0  0  0  0  0  0  0  0  0
   46.2785    5.9563    9.4319 H   0  0  0  0  0  0  0  0  0  0  0  0
   45.0277    0.7433    9.9034 H   0  0  0  0  0  0  0  0  0  0  0  0
   43.7850    1.4092    8.7911 H   0  0  0  0  0  0  0  0  0  0  0  0
   45.6806    2.5825    7.8722 H   0  0  0  0  0  0  0  0  0  0  0  0
   43.4962    3.0180    9.0773 H   0  0  0  0  0  0  0  0  0  0  0  0
   46.2273    3.9664   10.1045 H   0  0  0  0  0  0  0  0  0  0  0  0
   44.8447    2.2519   11.7253 H   0  0  0  0  0  0  0  0  0  0  0  0
   43.6576    5.5708    9.6895 H   0  0  0  0  0  0  0  0  0  0  0  0
   44.5847    0.8470    9.2488 H   0  0  0  0  0  0  0  0  0  0  0  0
   45.1019    1.7724    8.0233 H   0  0  0  0  0  0  0  0  0  0  0  0
   44.8867    4.7756   12.4047 H   0  0  0  0  0  0  0  0  0  0  0  0
   45.4660    3.7715    7.6939 H   0  0  0  0  0  0  0  0  0  0  0  0
   45.5862    6.6204    9.4428 H   0  0  0  0  0  0  0  0  0  0  0  0
   42.7874    1.3739   12.0204 H   0  0  0  0  0  0  0  0  0  0  0  0
   42.1464    5.9474   11.6720 H   0  0  0  0  0  0  0  0  0  0  0  0
   43.5016    6.9364   12.2769 H   0  0  0  0  0  0  0  0  0  0  0  0
   42.5443    4.6432   13.6005 H   0  0  0  0  0  0  0  0  0  0  0  0
   43.5457    5.7715   10.3591 H   0  0  0  0  0  0  0  0  0  0  0  0
   45.3208    3.2617    9.4318 H   0  0  0  0  0  0  0  0  0  0  0  0
  2  1  1  0
  3  1  1  0
  4  3  1  0
  5  2  1  0
  1  6  1  0
  7  4  1  0
  2  8  1  0
  5  9  1  0
  3 10  1  0
  7 11  1  0
 12 11  1  0
  5  7  1  0
 14 13  1  0
 15 13  1  0
 16 15  1  0
 17 14  1  0
 13 18  1  0
 19 16  1  0
 14 20  1  0
 17 21  1  0
 15 22  1  0
 19 23  1  0
 24 23  1  0
 17 19  1  0
 25 26  2  0
 25 27  1  0
 25 28  1  0
 25 29  2  0
  1 30  1  6
  2 31  1  1
  3 32  1  1
  5 33  1  6
  6 34  1  0
  6 35  1  0
  7 36  1  1
  8 37  1  0
  9 38  1  0
 10 39  1  0
 11 40  1  0
 11 41  1  0
 12 42  1  0
 13 43  1  6
 14 44  1  1
 15 45  1  1
 17 46  1  6
 18 47  1  0
 18 48  1  0
 19 49  1  1
 20 50  1  0
 21 51  1  0
 22 52  1  0
 23 53  1  0
 23 54  1  0
 24 55  1  0
 27 56  1  0
 28 57  1  0
M  END
> <Uni-Dock RESULT> 
ENERGY=   -6.088  LOWER_BOUND=    1.002  UPPER_BOUND=    2.881
INTER + INTRA:          -6.088
INTER:                  -6.088
INTRA:                   0.000
UNBOUND:                 0.000

$$$$

     RDKit          3D

 57 56  0  0  0  0  0  0  0  0999 V2000
   43.8998    4.4990   11.2171 C   0  0  2  0  0  0  0  0  0  0  0  0
   44.5105    4.2606   12.6196 C   0  0  2  0  0  0  0  0  0  0  0  0
   43.3972    5.9655   11.1475 C   0  0  2  0  0  0  0  0  0  0  0  0
   44.4543    6.8889   11.3982 O   0  0  0  0  0  0  0  0  0  0  0  0
   45.6062    5.2984   12.8722 C   0  0  1  0  0  0  0  0  0  0  0  0
   42.8370    3.5264   10.8784 N   0  0  0  0  0  0  0  0  0  0  0  0
   45.0550    6.7257   12.6951 C   0  0  1  0  0  0  0  0  0  0  0  0
   45.0961    2.9548   12.7240 O   0  0  0  0  0  0  0  0  0  0  0  0
   46.1663    5.1130   14.1592 O   0  0  0  0  0  0  0  0  0  0  0  0
   42.3332    6.1880   12.0660 O   0  0  0  0  0  0  0  0  0  0  0  0
   46.1578    7.7910   12.8463 C   0  0  0  0  0  0  0  0  0  0  0  0
   45.5971    9.0856   12.6432 O   0  0  0  0  0  0  0  0  0  0  0  0
   45.3703    6.8274   12.2880 C   0  0  2  0  0  0  0  0  0  0  0  0
   43.8463    6.8562   12.1077 C   0  0  2  0  0  0  0  0  0  0  0  0
   45.7679    5.6180   13.1738 C   0  0  1  0  0  0  0  0  0  0  0  0
   45.2886    4.3989   12.6466 O   0  0  0  0  0  0  0  0  0  0  0  0
   43.3516    5.5055   11.5766 C   0  0  1  0  0  0  0  0  0  0  0  0
   45.8744    8.0982   12.8407 N   0  0  0  0  0  0  0  0  0  0  0  0
   43.8664    4.3438   12.4397 C   0  0  1  0  0  0  0  0  0  0  0  0
   43.4223    7.8639   11.1724 O   0  0  0  0  0  0  0  0  0  0  0  0
   41.9214    5.5182   11.5370 O   0  0  0  0  0  0  0  0  0  0  0  0
   47.1809    5.5225   13.1775 O   0  0  0  0  0  0  0  0  0  0  0  0
   43.5956    2.9956   11.7344 C   0  0  0  0  0  0  0  0  0  0  0  0
   43.9867    1.9146   12.5773 O   0  0  0  0  0  0  0  0  0  0  0  0
   44.5947    5.2281   12.5999 S   0  0  0  0  0  0  0  0  0  0  0  0
   43.4476    4.7315   13.3105 O   0  0  0  0  0  0  0  0  0  0  0  0
   44.0950    5.5037   11.1019 O   0  0  0  0  0  0  0  0  0  0  0  0
   44.8882    6.7253   13.0933 O   0  0  0  0  0  0  0  0  0  0  0  0
   45.8490    4.5148   12.5164 O   0  0  0  0  0  0  0  0  0  0  0  0
   44.7040    4.3652   10.4736 H   0  0  0  0  0  0  0  0  0  0  0  0
   43.7424    4.3151   13.4023 H   0  0  0  0  0  0  0  0  0  0  0  0
   43.0253    6.1705   10.1287 H   0  0  0  0  0  0  0  0  0  0  0  0
   46.4180    5.1246   12.1625 H   0  0  0  0  0  0  0  0  0  0  0  0
   43.1840    2.5646   10.8924 H   0  0  0  0  0  0  0  0  0  0  0  0
   42.1087    3.5882   11.5832 H   0  0  0  0  0  0  0  0  0  0  0  0
   44.2854    6.9389   13.4512 H   0  0  0  0  0  0  0  0  0  0  0  0
   44.3732    2.3128   12.6501 H   0  0  0  0  0  0  0  0  0  0  0  0
   46.3532    4.1504   14.2258 H   0  0  0  0  0  0  0  0  0  0  0  0
   41.7906    6.8783   11.6485 H   0  0  0  0  0  0  0  0  0  0  0  0
   46.6222    7.7611   13.8482 H   0  0  0  0  0  0  0  0  0  0  0  0
   46.9393    7.6570   12.0836 H   0  0  0  0  0  0  0  0  0  0  0  0
   44.9134    8.9583   11.9558 H   0  0  0  0  0  0  0  0  0  0  0  0
   45.8343    6.6888   11.3121 H   0  0  0  0  0  0  0  0  0  0  0  0
   43.3394    7.0837   13.0535 H   0  0  0  0  0  0  0  0  0  0  0  0
   45.4271    5.7425   14.2027 H   0  0  0  0  0  0  0  0  0  0  0  0
   43.6889    5.3776   10.5402 H   0  0  0  0  0  0  0  0  0  0  0  0
   46.8577    7.9660   13.1145 H   0  0  0  0  0  0  0  0  0  0  0  0
   45.8955    8.8247   12.1336 H   0  0  0  0  0  0  0  0  0  0  0  0
   43.3735    4.3259   13.4228 H   0  0  0  0  0  0  0  0  0  0  0  0
   44.1237    8.5331   11.1268 H   0  0  0  0  0  0  0  0  0  0  0  0
   41.6945    6.2414   10.9375 H   0  0  0  0  0  0  0  0  0  0  0  0
   47.3628    4.7079   13.6801 H   0  0  0  0  0  0  0  0  0  0  0  0
   44.1894    2.9223   10.8183 H   0  0  0  0  0  0  0  0  0  0  0  0
   42.5378    2.8556   11.4879 H   0  0  0  0  0  0  0  0  0  0  0  0
   44.8383    2.1857   12.9664 H   0  0  0  0  0  0  0  0  0  0  0  0
   43.5550    4.7418   10.8212 H   0  0  0  0  0  0  0  0  0  0  0  0
   44.4961    7.3443   12.4494 H   0  0  0  0  0  0  0  0  0  0  0  0
  2  1  1  0
  3  1  1  0
  4  3  1  0
  5  2  1  0
  1  6  1  0
  7  4  1  0
  2  8  1  0
  5  9  1  0
  3 10  1  0
  7 11  1  0
 12 11  1  0
  5  7  1  0
 14 13  1  0
 15 13  1  0
 16 15  1  0
 17 14  1  0
 13 18  1  0
 19 16  1  0
 14 20  1  0
 17 21  1  0
 15 22  1  0
 19 23  1  0
 24 23  1  0
 17 19  1  0
 25 26  2  0
 25 27  1  0
 25 28  1  0
 25 29  2  0
  1 30  1  6
  2 31  1  1
  3 32  1  1
  5 33  1  6
  6 34  1  0
  6 35  1  0
  7 36  1  1
  8 37  1  0
  9 38  1  0
 10 39  1  0
 11 40  1  0
 11 41  1  0
 12 42  1  0
 13 43  1  6
 14 44  1  1
 15 45  1  1
 17 46  1  6
 18 47  1  0
 18 48  1  0
 19 49  1  1
 20 50  1  0
 21 51  1  0
 22 52  1  0
 23 53  1  0
 23 54  1  0
 24 55  1  0
 27 56  1  0
 28 57  1  0
M  END
> <Uni-Dock RESULT> 
ENERGY=   -6.076  LOWER_BOUND=    1.912  UPPER_BOUND=    4.308
INTER + INTRA:          -6.076
INTER:                  -6.076
INTRA:                   0.000
UNBOUND:                 0.000

$$$$

     RDKit          3D

 57 56  0  0  0  0  0  0  0  0999 V2000
   44.7305    4.6725   11.1711 C   0  0  2  0  0  0  0  0  0  0  0  0
   44.7580    4.0387   12.5834 C   0  0  2  0  0  0  0  0  0  0  0  0
   45.0064    6.1929   11.3141 C   0  0  2  0  0  0  0  0  0  0  0  0
   46.2600    6.4354   11.9488 O   0  0  0  0  0  0  0  0  0  0  0  0
   46.0967    4.3602   13.2510 C   0  0  1  0  0  0  0  0  0  0  0  0
   43.4730    4.3982   10.4407 N   0  0  0  0  0  0  0  0  0  0  0  0
   46.3424    5.8805   13.2734 C   0  0  1  0  0  0  0  0  0  0  0  0
   44.6173    2.6119   12.5231 O   0  0  0  0  0  0  0  0  0  0  0  0
   46.1371    3.8074   14.5539 O   0  0  0  0  0  0  0  0  0  0  0  0
   43.9652    6.8381   12.0385 O   0  0  0  0  0  0  0  0  0  0  0  0
   47.7271    6.2309   13.8511 C   0  0  0  0  0  0  0  0  0  0  0  0
   47.9101    7.6441   13.8190 O   0  0  0  0  0  0  0  0  0  0  0  0
   46.7650    5.8454   12.9644 C   0  0  2  0  0  0  0  0  0  0  0  0
   45.5410    6.6504   12.5066 C   0  0  2  0  0  0  0  0  0  0  0  0
   46.3006    4.5278   13.6378 C   0  0  1  0  0  0  0  0  0  0  0  0
   45.4715    3.7650   12.7865 O   0  0  0  0  0  0  0  0  0  0  0  0
   44.6389    5.7824   11.6212 C   0  0  1  0  0  0  0  0  0  0  0  0
   47.6322    6.6380   13.8556 N   0  0  0  0  0  0  0  0  0  0  0  0
   44.3016    4.4491   12.3052 C   0  0  1  0  0  0  0  0  0  0  0  0
   45.9029    7.8119   11.7384 O   0  0  0  0  0  0  0  0  0  0  0  0
   43.4488    6.5143   11.3128 O   0  0  0  0  0  0  0  0  0  0  0  0
   47.4474    3.7364   13.8912 O   0  0  0  0  0  0  0  0  0  0  0  0
   43.6363    3.4861   11.2960 C   0  0  0  0  0  0  0  0  0  0  0  0
   43.2375    2.2861   11.9538 O   0  0  0  0  0  0  0  0  0  0  0  0
   45.2838    4.8308   12.7822 S   0  0  0  0  0  0  0  0  0  0  0  0
   43.8942    4.9170   13.1414 O   0  0  0  0  0  0  0  0  0  0  0  0
   45.3929    5.4494   11.3073 O   0  0  0  0  0  0  0  0  0  0  0  0
   46.0944    5.9291   13.6235 O   0  0  0  0  0  0  0  0  0  0  0  0
   46.0331    3.5950   12.7928 O   0  0  0  0  0  0  0  0  0  0  0  0
   45.5467    4.2187   10.5836 H   0  0  0  0  0  0  0  0  0  0  0  0
   43.9249    4.4027   13.1989 H   0  0  0  0  0  0  0  0  0  0  0  0
   45.0617    6.6447   10.3086 H   0  0  0  0  0  0  0  0  0  0  0  0
   46.8917    3.8651   12.6890 H   0  0  0  0  0  0  0  0  0  0  0  0
   43.3151    3.3951   10.3199 H   0  0  0  0  0  0  0  0  0  0  0  0
   42.6977    4.7553   10.9907 H   0  0  0  0  0  0  0  0  0  0  0  0
   45.5888    6.3841   13.8963 H   0  0  0  0  0  0  0  0  0  0  0  0
   43.7290    2.4285   12.1804 H   0  0  0  0  0  0  0  0  0  0  0  0
   45.8297    2.8793   14.4528 H   0  0  0  0  0  0  0  0  0  0  0  0
   43.9403    7.7408   11.6784 H   0  0  0  0  0  0  0  0  0  0  0  0
   47.8357    5.8848   14.8945 H   0  0  0  0  0  0  0  0  0  0  0  0
   48.5293    5.7901   13.2407 H   0  0  0  0  0  0  0  0  0  0  0  0
   47.4589    7.9375   13.0027 H   0  0  0  0  0  0  0  0  0  0  0  0
   47.3545    5.5784   12.0879 H   0  0  0  0  0  0  0  0  0  0  0  0
   44.9648    7.0180   13.3644 H   0  0  0  0  0  0  0  0  0  0  0  0
   45.7942    4.7162   14.5858 H   0  0  0  0  0  0  0  0  0  0  0  0
   45.1427    5.5934   10.6647 H   0  0  0  0  0  0  0  0  0  0  0  0
   48.3268    6.0071   14.2784 H   0  0  0  0  0  0  0  0  0  0  0  0
   48.1776    7.3144   13.3328 H   0  0  0  0  0  0  0  0  0  0  0  0
   43.6131    4.5952   13.1504 H   0  0  0  0  0  0  0  0  0  0  0  0
   46.8179    8.0400   11.9681 H   0  0  0  0  0  0  0  0  0  0  0  0
   43.7544    7.3028   10.8452 H   0  0  0  0  0  0  0  0  0  0  0  0
   47.0873    2.9002   14.2382 H   0  0  0  0  0  0  0  0  0  0  0  0
   44.3496    3.2051   10.5152 H   0  0  0  0  0  0  0  0  0  0  0  0
   42.7450    3.9178   10.8284 H   0  0  0  0  0  0  0  0  0  0  0  0
   43.9773    2.0582   12.5461 H   0  0  0  0  0  0  0  0  0  0  0  0
   44.6588    5.0890   10.7762 H   0  0  0  0  0  0  0  0  0  0  0  0
   46.2242    6.7147   13.0601 H   0  0  0  0  0  0  0  0  0  0  0  0
  2  1  1  0
  3  1  1  0
  4  3  1  0
  5  2  1  0
  1  6  1  0
  7  4  1  0
  2  8  1  0
  5  9  1  0
  3 10  1  0
  7 11  1  0
 12 11  1  0
  5  7  1  0
 14 13  1  0
 15 13  1  0
 16 15  1  0
 17 14  1  0
 13 18  1  0
 19 16  1  0
 14 20  1  0
 17 21  1  0
 15 22  1  0
 19 23  1  0
 24 23  1  0
 17 19  1  0
 25 26  2  0
 25 27  1  0
 25 28  1  0
 25 29  2  0
  1 30  1  6
  2 31  1  1
  3 32  1  1
  5 33  1  6
  6 34  1  0
  6 35  1  0
  7 36  1  1
  8 37  1  0
  9 38  1  0
 10 39  1  0
 11 40  1  0
 11 41  1  0
 12 42  1  0
 13 43  1  6
 14 44  1  1
 15 45  1  1
 17 46  1  6
 18 47  1  0
 18 48  1  0
 19 49  1  1
 20 50  1  0
 21 51  1  0
 22 52  1  0
 23 53  1  0
 23 54  1  0
 24 55  1  0
 27 56  1  0
 28 57  1  0
M  END
> <Uni-Dock RESULT> 
ENERGY=   -5.950  LOWER_BOUND=    1.992  UPPER_BOUND=    4.471
INTER + INTRA:          -5.950
INTER:                  -5.950
INTRA:                   0.000
UNBOUND:                 0.000

$$$$

     RDKit          3D

 57 56  0  0  0  0  0  0  0  0999 V2000
   46.2236    6.3419   12.1027 C   0  0  2  0  0  0  0  0  0  0  0  0
   44.7428    6.7798   12.2137 C   0  0  2  0  0  0  0  0  0  0  0  0
   46.3771    4.9626   12.7971 C   0  0  2  0  0  0  0  0  0  0  0  0
   45.5198    3.9870   12.2087 O   0  0  0  0  0  0  0  0  0  0  0  0
   43.8514    5.6886   11.6168 C   0  0  1  0  0  0  0  0  0  0  0  0
   47.1643    7.3483   12.6433 N   0  0  0  0  0  0  0  0  0  0  0  0
   44.1257    4.3319   12.2924 C   0  0  1  0  0  0  0  0  0  0  0  0
   44.4993    7.9997   11.4986 O   0  0  0  0  0  0  0  0  0  0  0  0
   42.4890    6.0581   11.7258 O   0  0  0  0  0  0  0  0  0  0  0  0
   46.1145    5.0579   14.1925 O   0  0  0  0  0  0  0  0  0  0  0  0
   43.3139    3.1930   11.6460 C   0  0  0  0  0  0  0  0  0  0  0  0
   43.6300    1.9612   12.2898 O   0  0  0  0  0  0  0  0  0  0  0  0
   44.2998    4.1137   11.8479 C   0  0  2  0  0  0  0  0  0  0  0  0
   45.2302    4.2338   13.0627 C   0  0  2  0  0  0  0  0  0  0  0  0
   43.4762    5.4185   11.6908 C   0  0  1  0  0  0  0  0  0  0  0  0
   44.3062    6.5567   11.5933 O   0  0  0  0  0  0  0  0  0  0  0  0
   46.0860    5.5010   12.9494 C   0  0  1  0  0  0  0  0  0  0  0  0
   43.4296    2.9274   11.9473 N   0  0  0  0  0  0  0  0  0  0  0  0
   45.2165    6.7407   12.6915 C   0  0  1  0  0  0  0  0  0  0  0  0
   46.1320    3.1185   13.1769 O   0  0  0  0  0  0  0  0  0  0  0  0
   46.8504    5.6535   14.1492 O   0  0  0  0  0  0  0  0  0  0  0  0
   42.7604    5.3415   10.4712 O   0  0  0  0  0  0  0  0  0  0  0  0
   46.1058    7.9437   12.3039 C   0  0  0  0  0  0  0  0  0  0  0  0
   45.3079    9.1158   12.1579 O   0  0  0  0  0  0  0  0  0  0  0  0
   44.6089    5.8248   12.3308 S   0  0  0  0  0  0  0  0  0  0  0  0
   44.6460    6.5880   13.5489 O   0  0  0  0  0  0  0  0  0  0  0  0
   46.1101    5.3183   12.0869 O   0  0  0  0  0  0  0  0  0  0  0  0
   43.8719    4.4319   12.6271 O   0  0  0  0  0  0  0  0  0  0  0  0
   44.1174    6.3504   11.0774 O   0  0  0  0  0  0  0  0  0  0  0  0
   46.4602    6.2266   11.0312 H   0  0  0  0  0  0  0  0  0  0  0  0
   44.4631    6.9756   13.2572 H   0  0  0  0  0  0  0  0  0  0  0  0
   47.4125    4.6049   12.6620 H   0  0  0  0  0  0  0  0  0  0  0  0
   44.0598    5.6181   10.5470 H   0  0  0  0  0  0  0  0  0  0  0  0
   47.0817    8.2446   12.1578 H   0  0  0  0  0  0  0  0  0  0  0  0
   46.9298    7.5168   13.6168 H   0  0  0  0  0  0  0  0  0  0  0  0
   43.8518    4.3684   13.3568 H   0  0  0  0  0  0  0  0  0  0  0  0
   45.0037    8.6966   11.9460 H   0  0  0  0  0  0  0  0  0  0  0  0
   42.4437    6.9849   11.4017 H   0  0  0  0  0  0  0  0  0  0  0  0
   46.6711    4.3689   14.5933 H   0  0  0  0  0  0  0  0  0  0  0  0
   42.2261    3.3659   11.7301 H   0  0  0  0  0  0  0  0  0  0  0  0
   43.5785    3.0768   10.5844 H   0  0  0  0  0  0  0  0  0  0  0  0
   44.5796    2.0305   12.5124 H   0  0  0  0  0  0  0  0  0  0  0  0
   44.9090    3.9978   10.9522 H   0  0  0  0  0  0  0  0  0  0  0  0
   44.6587    4.2625   13.9985 H   0  0  0  0  0  0  0  0  0  0  0  0
   42.7603    5.5438   12.5046 H   0  0  0  0  0  0  0  0  0  0  0  0
   46.8105    5.3779   12.1343 H   0  0  0  0  0  0  0  0  0  0  0  0
   42.7078    2.9918   11.2165 H   0  0  0  0  0  0  0  0  0  0  0  0
   43.9404    2.0772   11.7358 H   0  0  0  0  0  0  0  0  0  0  0  0
   44.6333    7.0138   13.5831 H   0  0  0  0  0  0  0  0  0  0  0  0
   45.7373    2.3739   12.6954 H   0  0  0  0  0  0  0  0  0  0  0  0
   47.3968    4.8580   14.2002 H   0  0  0  0  0  0  0  0  0  0  0  0
   42.3298    6.2119   10.3930 H   0  0  0  0  0  0  0  0  0  0  0  0
   46.5905    7.7605   11.3401 H   0  0  0  0  0  0  0  0  0  0  0  0
   46.8728    8.1584   13.0555 H   0  0  0  0  0  0  0  0  0  0  0  0
   44.5104    8.8271   11.6776 H   0  0  0  0  0  0  0  0  0  0  0  0
   46.7104    6.0684   12.2540 H   0  0  0  0  0  0  0  0  0  0  0  0
   44.5522    3.7488   12.7756 H   0  0  0  0  0  0  0  0  0  0  0  0
  2  1  1  0
  3  1  1  0
  4  3  1  0
  5  2  1  0
  1  6  1  0
  7  4  1  0
  2  8  1  0
  5  9  1  0
  3 10  1  0
  7 11  1  0
 12 11  1  0
  5  7  1  0
 14 13  1  0
 15 13  1  0
 16 15  1  0
 17 14  1  0
 13 18  1  0
 19 16  1  0
 14 20  1  0
 17 21  1  0
 15 22  1  0
 19 23  1  0
 24 23  1  0
 17 19  1  0
 25 26  2  0
 25 27  1  0
 25 28  1  0
 25 29  2  0
  1 30  1  6
  2 31  1  1
  3 32  1  1
  5 33  1  6
  6 34  1  0
  6 35  1  0
  7 36  1  1
  8 37  1  0
  9 38  1  0
 10 39  1  0
 11 40  1  0
 11 41  1  0
 12 42  1  0
 13 43  1  6
 14 44  1  1
 15 45  1  1
 17 46  1  6
 18 47  1  0
 18 48  1  0
 19 49  1  1
 20 50  1  0
 21 51  1  0
 22 52  1  0
 23 53  1  0
 23 54  1  0
 24 55  1  0
 27 56  1  0
 28 57  1  0
M  END
> <Uni-Dock RESULT> 
ENERGY=   -5.859  LOWER_BOUND=    1.991  UPPER_BOUND=    2.810
INTER + INTRA:          -5.859
INTER:                  -5.859
INTRA:                   0.000
UNBOUND:                 0.000

$$$$

     RDKit          3D

 57 56  0  0  0  0  0  0  0  0999 V2000
   44.2801    4.9138   13.2361 C   0  0  2  0  0  0  0  0  0  0  0  0
   44.5255    5.9964   12.1569 C   0  0  2  0  0  0  0  0  0  0  0  0
   45.6417    4.2563   13.5850 C   0  0  2  0  0  0  0  0  0  0  0  0
   46.5814    5.2232   14.0487 O   0  0  0  0  0  0  0  0  0  0  0  0
   45.5730    6.9870   12.6698 C   0  0  1  0  0  0  0  0  0  0  0  0
   43.2643    3.9166   12.8316 N   0  0  0  0  0  0  0  0  0  0  0  0
   46.8617    6.2513   13.0823 C   0  0  1  0  0  0  0  0  0  0  0  0
   43.3258    6.7251   11.8595 O   0  0  0  0  0  0  0  0  0  0  0  0
   45.8296    7.9763   11.6900 O   0  0  0  0  0  0  0  0  0  0  0  0
   46.1776    3.5597   12.4658 O   0  0  0  0  0  0  0  0  0  0  0  0
   47.9004    7.2102   13.6951 C   0  0  0  0  0  0  0  0  0  0  0  0
   49.0556    6.4716   14.0842 O   0  0  0  0  0  0  0  0  0  0  0  0
   46.8146    6.3919   13.5857 C   0  0  2  0  0  0  0  0  0  0  0  0
   46.8001    4.9073   13.1963 C   0  0  2  0  0  0  0  0  0  0  0  0
   45.9740    7.2062   12.5680 C   0  0  1  0  0  0  0  0  0  0  0  0
   44.6546    6.7145   12.4618 O   0  0  0  0  0  0  0  0  0  0  0  0
   45.3559    4.4148   13.0456 C   0  0  1  0  0  0  0  0  0  0  0  0
   48.1909    6.9098   13.6954 N   0  0  0  0  0  0  0  0  0  0  0  0
   44.5509    5.3249   12.1058 C   0  0  1  0  0  0  0  0  0  0  0  0
   47.4346    4.0740   14.1829 O   0  0  0  0  0  0  0  0  0  0  0  0
   45.3730    3.0682   12.5624 O   0  0  0  0  0  0  0  0  0  0  0  0
   45.8670    8.5337   13.0497 O   0  0  0  0  0  0  0  0  0  0  0  0
   43.0468    4.9799   12.1898 C   0  0  0  0  0  0  0  0  0  0  0  0
   42.3124    5.7588   11.2485 O   0  0  0  0  0  0  0  0  0  0  0  0
   45.4274    5.9587   12.5159 S   0  0  0  0  0  0  0  0  0  0  0  0
   45.2174    5.1936   11.3168 O   0  0  0  0  0  0  0  0  0  0  0  0
   45.1829    4.9421   13.7311 O   0  0  0  0  0  0  0  0  0  0  0  0
   46.9991    6.2343   12.6733 O   0  0  0  0  0  0  0  0  0  0  0  0
   44.7119    7.1779   12.8173 O   0  0  0  0  0  0  0  0  0  0  0  0
   43.8906    5.4194   14.1362 H   0  0  0  0  0  0  0  0  0  0  0  0
   44.8534    5.5470   11.2103 H   0  0  0  0  0  0  0  0  0  0  0  0
   45.4924    3.5331   14.4054 H   0  0  0  0  0  0  0  0  0  0  0  0
   45.1573    7.5159   13.5302 H   0  0  0  0  0  0  0  0  0  0  0  0
   42.3602    4.3530   12.6367 H   0  0  0  0  0  0  0  0  0  0  0  0
   43.5719    3.4763   11.9698 H   0  0  0  0  0  0  0  0  0  0  0  0
   47.3296    5.7734   12.2093 H   0  0  0  0  0  0  0  0  0  0  0  0
   42.7065    6.0990   11.4539 H   0  0  0  0  0  0  0  0  0  0  0  0
   44.9448    8.2820   11.3905 H   0  0  0  0  0  0  0  0  0  0  0  0
   46.6914    2.8316   12.8545 H   0  0  0  0  0  0  0  0  0  0  0  0
   48.2073    7.9939   12.9796 H   0  0  0  0  0  0  0  0  0  0  0  0
   47.5045    7.6880   14.6036 H   0  0  0  0  0  0  0  0  0  0  0  0
   48.7108    5.6108   14.3944 H   0  0  0  0  0  0  0  0  0  0  0  0
   46.3459    6.5006   14.5632 H   0  0  0  0  0  0  0  0  0  0  0  0
   47.3427    4.7382   12.2581 H   0  0  0  0  0  0  0  0  0  0  0  0
   46.4459    7.2322   11.5846 H   0  0  0  0  0  0  0  0  0  0  0  0
   44.8783    4.3833   14.0331 H   0  0  0  0  0  0  0  0  0  0  0  0
   48.1471    7.9351   13.7724 H   0  0  0  0  0  0  0  0  0  0  0  0
   48.6330    6.6018   14.5545 H   0  0  0  0  0  0  0  0  0  0  0  0
   44.8753    5.2095   11.0612 H   0  0  0  0  0  0  0  0  0  0  0  0
   48.0391    4.6357   14.6938 H   0  0  0  0  0  0  0  0  0  0  0  0
   45.8518    2.5671   13.2359 H   0  0  0  0  0  0  0  0  0  0  0  0
   45.2699    8.9695   12.4151 H   0  0  0  0  0  0  0  0  0  0  0  0
   42.6582    5.2229   13.1834 H   0  0  0  0  0  0  0  0  0  0  0  0
   42.8450    3.9254   11.9741 H   0  0  0  0  0  0  0  0  0  0  0  0
   42.6886    6.6561   11.3064 H   0  0  0  0  0  0  0  0  0  0  0  0
   44.3781    4.4280   13.5343 H   0  0  0  0  0  0  0  0  0  0  0  0
   47.3669    5.5758   13.2918 H   0  0  0  0  0  0  0  0  0  0  0  0
  2  1  1  0
  3  1  1  0
  4  3  1  0
  5  2  1  0
  1  6  1  0
  7  4  1  0
  2  8  1  0
  5  9  1  0
  3 10  1  0
  7 11  1  0
 12 11  1  0
  5  7  1  0
 14 13  1  0
 15 13  1  0
 16 15  1  0
 17 14  1  0
 13 18  1  0
 19 16  1  0
 14 20  1  0
 17 21  1  0
 15 22  1  0
 19 23  1  0
 24 23  1  0
 17 19  1  0
 25 26  2  0
 25 27  1  0
 25 28  1  0
 25 29  2  0
  1 30  1  6
  2 31  1  1
  3 32  1  1
  5 33  1  6
  6 34  1  0
  6 35  1  0
  7 36  1  1
  8 37  1  0
  9 38  1  0
 10 39  1  0
 11 40  1  0
 11 41  1  0
 12 42  1  0
 13 43  1  6
 14 44  1  1
 15 45  1  1
 17 46  1  6
 18 47  1  0
 18 48  1  0
 19 49  1  1
 20 50  1  0
 21 51  1  0
 22 52  1  0
 23 53  1  0
 23 54  1  0
 24 55  1  0
 27 56  1  0
 28 57  1  0
M  END
> <Uni-Dock RESULT> 
ENERGY=   -5.470  LOWER_BOUND=    2.374  UPPER_BOUND=    4.230
INTER + INTRA:          -5.470
INTER:                  -5.470
INTRA:                   0.000
UNBOUND:                 0.000

$$$$

     RDKit          3D

 57 56  0  0  0  0  0  0  0  0999 V2000
   45.4739    8.0195   12.9142 C   0  0  2  0  0  0  0  0  0  0  0  0
   47.0176    7.9063   12.8804 C   0  0  2  0  0  0  0  0  0  0  0  0
   44.8762    6.6931   12.3741 C   0  0  2  0  0  0  0  0  0  0  0  0
   45.3145    5.5753   13.1430 O   0  0  0  0  0  0  0  0  0  0  0  0
   47.4470    6.6706   13.6740 C   0  0  1  0  0  0  0  0  0  0  0  0
   44.9665    9.2012   12.1818 N   0  0  0  0  0  0  0  0  0  0  0  0
   46.7434    5.4090   13.1396 C   0  0  1  0  0  0  0  0  0  0  0  0
   47.6430    9.0567   13.4672 O   0  0  0  0  0  0  0  0  0  0  0  0
   48.8559    6.5344   13.6400 O   0  0  0  0  0  0  0  0  0  0  0  0
   45.2112    6.4988   11.0047 O   0  0  0  0  0  0  0  0  0  0  0  0
   47.0797    4.1628   13.9809 C   0  0  0  0  0  0  0  0  0  0  0  0
   46.3793    3.0361   13.4597 O   0  0  0  0  0  0  0  0  0  0  0  0
   46.4865    5.3271   13.5898 C   0  0  2  0  0  0  0  0  0  0  0  0
   45.7060    5.5876   12.2941 C   0  0  2  0  0  0  0  0  0  0  0  0
   47.7069    6.2812   13.6643 C   0  0  1  0  0  0  0  0  0  0  0  0
   47.3235    7.6360   13.5576 O   0  0  0  0  0  0  0  0  0  0  0  0
   45.3429    7.0734   12.1858 C   0  0  1  0  0  0  0  0  0  0  0  0
   46.8906    3.9136   13.7037 N   0  0  0  0  0  0  0  0  0  0  0  0
   46.5796    7.9653   12.3716 C   0  0  1  0  0  0  0  0  0  0  0  0
   44.4768    4.8423   12.2334 O   0  0  0  0  0  0  0  0  0  0  0  0
   44.7285    7.3095   10.9154 O   0  0  0  0  0  0  0  0  0  0  0  0
   48.3013    6.1345   14.9414 O   0  0  0  0  0  0  0  0  0  0  0  0
   46.1517    9.4409   12.5392 C   0  0  0  0  0  0  0  0  0  0  0  0
   47.3023   10.2788   12.6160 O   0  0  0  0  0  0  0  0  0  0  0  0
   46.8140    6.9565   12.8868 S   0  0  0  0  0  0  0  0  0  0  0  0
   47.0947    7.5099   11.5897 O   0  0  0  0  0  0  0  0  0  0  0  0
   45.2220    7.0313   13.0585 O   0  0  0  0  0  0  0  0  0  0  0  0
   47.0293    5.3690   12.8185 O   0  0  0  0  0  0  0  0  0  0  0  0
   47.4076    7.4513   14.1082 O   0  0  0  0  0  0  0  0  0  0  0  0
   45.1692    8.1415   13.9676 H   0  0  0  0  0  0  0  0  0  0  0  0
   47.3895    7.8484   11.8490 H   0  0  0  0  0  0  0  0  0  0  0  0
   43.7766    6.7324   12.4606 H   0  0  0  0  0  0  0  0  0  0  0  0
   47.1845    6.8243   14.7230 H   0  0  0  0  0  0  0  0  0  0  0  0
   45.3374   10.0736   12.5653 H   0  0  0  0  0  0  0  0  0  0  0  0
   45.2838    9.1429   11.2191 H   0  0  0  0  0  0  0  0  0  0  0  0
   47.0552    5.2020   12.1054 H   0  0  0  0  0  0  0  0  0  0  0  0
   47.4321    9.8146   12.9003 H   0  0  0  0  0  0  0  0  0  0  0  0
   49.2090    7.4256   13.8569 H   0  0  0  0  0  0  0  0  0  0  0  0
   44.4655    5.9924   10.6404 H   0  0  0  0  0  0  0  0  0  0  0  0
   48.1618    3.9410   13.9708 H   0  0  0  0  0  0  0  0  0  0  0  0
   46.7489    4.2921   15.0222 H   0  0  0  0  0  0  0  0  0  0  0  0
   45.5234    3.3934   13.1502 H   0  0  0  0  0  0  0  0  0  0  0  0
   45.8398    5.5512   14.4374 H   0  0  0  0  0  0  0  0  0  0  0  0
   46.2884    5.2897   11.4136 H   0  0  0  0  0  0  0  0  0  0  0  0
   48.4535    6.0408   12.9058 H   0  0  0  0  0  0  0  0  0  0  0  0
   44.5891    7.3190   12.9446 H   0  0  0  0  0  0  0  0  0  0  0  0
   47.5597    3.8286   14.4812 H   0  0  0  0  0  0  0  0  0  0  0  0
   46.1071    3.3266   13.9679 H   0  0  0  0  0  0  0  0  0  0  0  0
   47.2566    7.8968   11.5074 H   0  0  0  0  0  0  0  0  0  0  0  0
   44.5669    4.0822   12.8301 H   0  0  0  0  0  0  0  0  0  0  0  0
   43.9413    6.7492   10.9105 H   0  0  0  0  0  0  0  0  0  0  0  0
   49.0053    6.8079   14.9546 H   0  0  0  0  0  0  0  0  0  0  0  0
   45.5955    9.5693   13.4727 H   0  0  0  0  0  0  0  0  0  0  0  0
   45.5388    9.7979   11.7049 H   0  0  0  0  0  0  0  0  0  0  0  0
   47.9288    9.8049   13.1931 H   0  0  0  0  0  0  0  0  0  0  0  0
   44.9288    7.9102   12.7546 H   0  0  0  0  0  0  0  0  0  0  0  0
   46.1598    4.9453   12.6925 H   0  0  0  0  0  0  0  0  0  0  0  0
  2  1  1  0
  3  1  1  0
  4  3  1  0
  5  2  1  0
  1  6  1  0
  7  4  1  0
  2  8  1  0
  5  9  1  0
  3 10  1  0
  7 11  1  0
 12 11  1  0
  5  7  1  0
 14 13  1  0
 15 13  1  0
 16 15  1  0
 17 14  1  0
 13 18  1  0
 19 16  1  0
 14 20  1  0
 17 21  1  0
 15 22  1  0
 19 23  1  0
 24 23  1  0
 17 19  1  0
 25 26  2  0
 25 27  1  0
 25 28  1  0
 25 29  2  0
  1 30  1  6
  2 31  1  1
  3 32  1  1
  5 33  1  6
  6 34  1  0
  6 35  1  0
  7 36  1  1
  8 37  1  0
  9 38  1  0
 10 39  1  0
 11 40  1  0
 11 41  1  0
 12 42  1  0
 13 43  1  6
 14 44  1  1
 15 45  1  1
 17 46  1  6
 18 47  1  0
 18 48  1  0
 19 49  1  1
 20 50  1  0
 21 51  1  0
 22 52  1  0
 23 53  1  0
 23 54  1  0
 24 55  1  0
 27 56  1  0
 28 57  1  0
M  END
> <Uni-Dock RESULT> 
ENERGY=   -5.342  LOWER_BOUND=    2.859  UPPER_BOUND=    4.378
INTER + INTRA:          -5.342
INTER:                  -5.342
INTRA:                   0.000
UNBOUND:                 0.000

$$$$

     RDKit          3D

 57 56  0  0  0  0  0  0  0  0999 V2000
   47.7194    6.6387   12.3506 C   0  0  2  0  0  0  0  0  0  0  0  0
   46.8404    7.8856   12.6145 C   0  0  2  0  0  0  0  0  0  0  0  0
   47.0499    5.4172   13.0346 C   0  0  2  0  0  0  0  0  0  0  0  0
   45.7260    5.2104   12.5471 O   0  0  0  0  0  0  0  0  0  0  0  0
   45.4180    7.6092   12.1230 C   0  0  1  0  0  0  0  0  0  0  0  0
   49.1233    6.8215   12.7815 N   0  0  0  0  0  0  0  0  0  0  0  0
   44.8553    6.3325   12.7754 C   0  0  1  0  0  0  0  0  0  0  0  0
   47.3394    9.0381   11.9204 O   0  0  0  0  0  0  0  0  0  0  0  0
   44.5893    8.7298   12.3728 O   0  0  0  0  0  0  0  0  0  0  0  0
   47.0255    5.5701   14.4492 O   0  0  0  0  0  0  0  0  0  0  0  0
   43.4612    5.9726   12.2266 C   0  0  0  0  0  0  0  0  0  0  0  0
   43.0056    4.7705   12.8422 O   0  0  0  0  0  0  0  0  0  0  0  0
   44.8180    6.0805   12.3166 C   0  0  2  0  0  0  0  0  0  0  0  0
   45.7265    5.5315   13.4252 C   0  0  2  0  0  0  0  0  0  0  0  0
   44.9643    7.6225   12.2382 C   0  0  1  0  0  0  0  0  0  0  0  0
   46.3069    8.0150   12.0453 O   0  0  0  0  0  0  0  0  0  0  0  0
   47.1675    6.0107   13.2130 C   0  0  1  0  0  0  0  0  0  0  0  0
   43.4144    5.6746   12.5158 N   0  0  0  0  0  0  0  0  0  0  0  0
   47.2288    7.5357   13.0397 C   0  0  1  0  0  0  0  0  0  0  0  0
   45.7544    4.0932   13.4513 O   0  0  0  0  0  0  0  0  0  0  0  0
   47.9647    5.5900   14.3241 O   0  0  0  0  0  0  0  0  0  0  0  0
   44.2499    8.0739   11.1017 O   0  0  0  0  0  0  0  0  0  0  0  0
   48.6325    7.9601   12.5517 C   0  0  0  0  0  0  0  0  0  0  0  0
   48.7180    9.3813   12.4826 O   0  0  0  0  0  0  0  0  0  0  0  0
   46.1572    7.2090   12.7519 S   0  0  0  0  0  0  0  0  0  0  0  0
   46.7635    7.7144   13.9538 O   0  0  0  0  0  0  0  0  0  0  0  0
   46.9981    5.9035   12.3541 O   0  0  0  0  0  0  0  0  0  0  0  0
   44.7477    6.5470   13.1343 O   0  0  0  0  0  0  0  0  0  0  0  0
   45.9868    7.9992   11.5538 O   0  0  0  0  0  0  0  0  0  0  0  0
   47.7394    6.4667   11.2609 H   0  0  0  0  0  0  0  0  0  0  0  0
   46.8338    8.1491   13.6803 H   0  0  0  0  0  0  0  0  0  0  0  0
   47.6276    4.5083   12.7933 H   0  0  0  0  0  0  0  0  0  0  0  0
   45.4437    7.4897   11.0376 H   0  0  0  0  0  0  0  0  0  0  0  0
   49.5687    7.6067   12.3010 H   0  0  0  0  0  0  0  0  0  0  0  0
   49.1290    7.0400   13.7731 H   0  0  0  0  0  0  0  0  0  0  0  0
   44.7567    6.4658   13.8626 H   0  0  0  0  0  0  0  0  0  0  0  0
   48.2029    9.2505   12.3071 H   0  0  0  0  0  0  0  0  0  0  0  0
   45.0969    9.5065   12.0488 H   0  0  0  0  0  0  0  0  0  0  0  0
   47.0713    4.6622   14.7938 H   0  0  0  0  0  0  0  0  0  0  0  0
   42.7241    6.7713   12.4241 H   0  0  0  0  0  0  0  0  0  0  0  0
   43.5036    5.7821   11.1439 H   0  0  0  0  0  0  0  0  0  0  0  0
   43.8107    4.2289   12.9625 H   0  0  0  0  0  0  0  0  0  0  0  0
   45.1447    5.6688   11.3623 H   0  0  0  0  0  0  0  0  0  0  0  0
   45.3790    5.8489   14.4160 H   0  0  0  0  0  0  0  0  0  0  0  0
   44.5528    8.1120   13.1222 H   0  0  0  0  0  0  0  0  0  0  0  0
   47.5869    5.5178   12.3267 H   0  0  0  0  0  0  0  0  0  0  0  0
   42.8253    6.2119   11.8651 H   0  0  0  0  0  0  0  0  0  0  0  0
   43.2713    4.7044   12.2576 H   0  0  0  0  0  0  0  0  0  0  0  0
   47.0191    8.0554   13.9861 H   0  0  0  0  0  0  0  0  0  0  0  0
   44.9443    3.7779   13.0195 H   0  0  0  0  0  0  0  0  0  0  0  0
   47.9062    4.6254   14.3226 H   0  0  0  0  0  0  0  0  0  0  0  0
   44.4428    9.0281   11.0633 H   0  0  0  0  0  0  0  0  0  0  0  0
   48.8142    7.5759   11.5433 H   0  0  0  0  0  0  0  0  0  0  0  0
   49.4308    7.6136   13.2164 H   0  0  0  0  0  0  0  0  0  0  0  0
   47.8739    9.6720   12.0914 H   0  0  0  0  0  0  0  0  0  0  0  0
   47.9448    6.1157   12.4515 H   0  0  0  0  0  0  0  0  0  0  0  0
   44.8718    5.5829   13.2149 H   0  0  0  0  0  0  0  0  0  0  0  0
  2  1  1  0
  3  1  1  0
  4  3  1  0
  5  2  1  0
  1  6  1  0
  7  4  1  0
  2  8  1  0
  5  9  1  0
  3 10  1  0
  7 11  1  0
 12 11  1  0
  5  7  1  0
 14 13  1  0
 15 13  1  0
 16 15  1  0
 17 14  1  0
 13 18  1  0
 19 16  1  0
 14 20  1  0
 17 21  1  0
 15 22  1  0
 19 23  1  0
 24 23  1  0
 17 19  1  0
 25 26  2  0
 25 27  1  0
 25 28  1  0
 25 29  2  0
  1 30  1  6
  2 31  1  1
  3 32  1  1
  5 33  1  6
  6 34  1  0
  6 35  1  0
  7 36  1  1
  8 37  1  0
  9 38  1  0
 10 39  1  0
 11 40  1  0
 11 41  1  0
 12 42  1  0
 13 43  1  6
 14 44  1  1
 15 45  1  1
 17 46  1  6
 18 47  1  0
 18 48  1  0
 19 49  1  1
 20 50  1  0
 21 51  1  0
 22 52  1  0
 23 53  1  0
 23 54  1  0
 24 55  1  0
 27 56  1  0
 28 57  1  0
M  END
> <Uni-Dock RESULT> 
ENERGY=   -4.911  LOWER_BOUND=    2.959  UPPER_BOUND=    4.222
INTER + INTRA:          -4.911
INTER:                  -4.911
INTRA:                   0.000
UNBOUND:                 0.000

$$$$

     RDKit          3D

 57 56  0  0  0  0  0  0  0  0999 V2000
   48.2121    7.8235   12.3584 C   0  0  2  0  0  0  0  0  0  0  0  0
   47.1505    8.8423   12.8401 C   0  0  2  0  0  0  0  0  0  0  0  0
   47.7951    6.4138   12.8556 C   0  0  2  0  0  0  0  0  0  0  0  0
   46.5013    6.0557   12.3753 O   0  0  0  0  0  0  0  0  0  0  0  0
   45.7712    8.3998   12.3471 C   0  0  1  0  0  0  0  0  0  0  0  0
   49.5857    8.1810   12.7770 N   0  0  0  0  0  0  0  0  0  0  0  0
   45.4670    6.9599   12.8016 C   0  0  1  0  0  0  0  0  0  0  0  0
   47.4107   10.1566   12.3263 O   0  0  0  0  0  0  0  0  0  0  0  0
   44.7797    9.3067   12.7936 O   0  0  0  0  0  0  0  0  0  0  0  0
   47.8198    6.3423   14.2767 O   0  0  0  0  0  0  0  0  0  0  0  0
   44.1268    6.4499   12.2382 C   0  0  0  0  0  0  0  0  0  0  0  0
   43.9134    5.1070   12.6655 O   0  0  0  0  0  0  0  0  0  0  0  0
   45.4487    6.7783   12.3096 C   0  0  2  0  0  0  0  0  0  0  0  0
   46.4939    6.2339   13.2930 C   0  0  2  0  0  0  0  0  0  0  0  0
   45.3285    8.3158   12.4745 C   0  0  1  0  0  0  0  0  0  0  0  0
   46.5736    8.9618   12.3126 O   0  0  0  0  0  0  0  0  0  0  0  0
   47.8202    6.9844   13.1234 C   0  0  1  0  0  0  0  0  0  0  0  0
   44.1462    6.1076   12.4772 N   0  0  0  0  0  0  0  0  0  0  0  0
   47.6142    8.5049   13.1940 C   0  0  1  0  0  0  0  0  0  0  0  0
   46.7653    4.8358   13.0886 O   0  0  0  0  0  0  0  0  0  0  0  0
   48.7343    6.5449   14.1325 O   0  0  0  0  0  0  0  0  0  0  0  0
   44.4893    8.8035   11.4432 O   0  0  0  0  0  0  0  0  0  0  0  0
   48.8985    9.2377   12.7444 C   0  0  0  0  0  0  0  0  0  0  0  0
   48.7393   10.6456   12.9007 O   0  0  0  0  0  0  0  0  0  0  0  0
   46.5994    8.0437   12.8851 S   0  0  0  0  0  0  0  0  0  0  0  0
   47.1742    8.4578   14.1364 O   0  0  0  0  0  0  0  0  0  0  0  0
   47.6263    6.9816   12.2629 O   0  0  0  0  0  0  0  0  0  0  0  0
   45.3439    7.0950   13.1928 O   0  0  0  0  0  0  0  0  0  0  0  0
   46.2353    8.9655   11.8331 O   0  0  0  0  0  0  0  0  0  0  0  0
   48.2034    7.8260   11.2550 H   0  0  0  0  0  0  0  0  0  0  0  0
   47.1557    8.9347   13.9341 H   0  0  0  0  0  0  0  0  0  0  0  0
   48.5044    5.6676   12.4578 H   0  0  0  0  0  0  0  0  0  0  0  0
   45.7595    8.4538   11.2563 H   0  0  0  0  0  0  0  0  0  0  0  0
   49.8664    9.0960   12.4168 H   0  0  0  0  0  0  0  0  0  0  0  0
   49.6067    8.2431   13.7903 H   0  0  0  0  0  0  0  0  0  0  0  0
   45.4048    6.9064   13.8983 H   0  0  0  0  0  0  0  0  0  0  0  0
   48.2452   10.4551   12.7197 H   0  0  0  0  0  0  0  0  0  0  0  0
   45.1312   10.2005   12.5848 H   0  0  0  0  0  0  0  0  0  0  0  0
   48.0362    5.4145   14.4707 H   0  0  0  0  0  0  0  0  0  0  0  0
   43.2769    7.0678   12.5792 H   0  0  0  0  0  0  0  0  0  0  0  0
   44.1435    6.4374   11.1382 H   0  0  0  0  0  0  0  0  0  0  0  0
   44.8036    4.7026   12.6773 H   0  0  0  0  0  0  0  0  0  0  0  0
   45.7895    6.5807   11.2938 H   0  0  0  0  0  0  0  0  0  0  0  0
   46.1505    6.3306   14.3303 H   0  0  0  0  0  0  0  0  0  0  0  0
   44.8874    8.5849   13.4354 H   0  0  0  0  0  0  0  0  0  0  0  0
   48.2695    6.7137   12.1594 H   0  0  0  0  0  0  0  0  0  0  0  0
   43.4414    6.6267   11.9358 H   0  0  0  0  0  0  0  0  0  0  0  0
   44.1554    5.1784   12.0713 H   0  0  0  0  0  0  0  0  0  0  0  0
   47.3699    8.8292   14.2162 H   0  0  0  0  0  0  0  0  0  0  0  0
   45.9984    4.4535   12.6328 H   0  0  0  0  0  0  0  0  0  0  0  0
   48.8394    5.5967   13.9786 H   0  0  0  0  0  0  0  0  0  0  0  0
   44.5162    9.7712   11.5525 H   0  0  0  0  0  0  0  0  0  0  0  0
   49.0891    9.0498   11.6834 H   0  0  0  0  0  0  0  0  0  0  0  0
   49.7777    8.9388   13.3247 H   0  0  0  0  0  0  0  0  0  0  0  0
   47.8388   10.8405   12.5825 H   0  0  0  0  0  0  0  0  0  0  0  0
   48.5275    7.3387   12.3688 H   0  0  0  0  0  0  0  0  0  0  0  0
   45.6329    6.1666   13.1154 H   0  0  0  0  0  0  0  0  0  0  0  0
  2  1  1  0
  3  1  1  0
  4  3  1  0
  5  2  1  0
  1  6  1  0
  7  4  1  0
  2  8  1  0
  5  9  1  0
  3 10  1  0
  7 11  1  0
 12 11  1  0
  5  7  1  0
 14 13  1  0
 15 13  1  0
 16 15  1  0
 17 14  1  0
 13 18  1  0
 19 16  1  0
 14 20  1  0
 17 21  1  0
 15 22  1  0
 19 23  1  0
 24 23  1  0
 17 19  1  0
 25 26  2  0
 25 27  1  0
 25 28  1  0
 25 29  2  0
  1 30  1  6
  2 31  1  1
  3 32  1  1
  5 33  1  6
  6 34  1  0
  6 35  1  0
  7 36  1  1
  8 37  1  0
  9 38  1  0
 10 39  1  0
 11 40  1  0
 11 41  1  0
 12 42  1  0
 13 43  1  6
 14 44  1  1
 15 45  1  1
 17 46  1  6
 18 47  1  0
 18 48  1  0
 19 49  1  1
 20 50  1  0
 21 51  1  0
 22 52  1  0
 23 53  1  0
 23 54  1  0
 24 55  1  0
 27 56  1  0
 28 57  1  0
M  END
> <Uni-Dock RESULT> 
ENERGY=   -4.821  LOWER_BOUND=    3.168  UPPER_BOUND=    4.969
INTER + INTRA:          -4.821
INTER:                  -4.821
INTRA:                   0.000
UNBOUND:                 0.000

$$$$
