
     RDKit          3D

 57 56  0  0  0  0  0  0  0  0999 V2000
   44.6873    3.2691   10.6460 C   0  0  2  0  0  0  0  0  0  0  0  0
   44.6460    3.6010   12.1466 C   0  0  2  0  0  0  0  0  0  0  0  0
   44.5098    4.5645    9.7999 C   0  0  2  0  0  0  0  0  0  0  0  0
   43.7448    5.5312   10.4978 O   0  0  0  0  0  0  0  0  0  0  0  0
   45.2659    4.9759   12.3886 C   0  0  1  0  0  0  0  0  0  0  0  0
   43.6986    2.1908   10.3774 N   0  0  0  0  0  0  0  0  0  0  0  0
   44.3884    6.0356   11.6892 C   0  0  1  0  0  0  0  0  0  0  0  0
   45.3550    2.6065   12.8941 O   0  0  0  0  0  0  0  0  0  0  0  0
   45.3666    5.2373   13.7899 O   0  0  0  0  0  0  0  0  0  0  0  0
   43.8244    4.2721    8.5920 O   0  0  0  0  0  0  0  0  0  0  0  0
   45.2009    7.3047   11.3796 C   0  0  0  0  0  0  0  0  0  0  0  0
   44.3428    8.3321   10.8883 O   0  0  0  0  0  0  0  0  0  0  0  0
   45.0840    3.6420   10.3129 C   0  0  2  0  0  0  0  0  0  0  0  0
   44.0294    3.6213   11.4303 C   0  0  2  0  0  0  0  0  0  0  0  0
   45.0976    5.0501    9.6665 C   0  0  1  0  0  0  0  0  0  0  0  0
   45.4332    6.0115   10.6635 O   0  0  0  0  0  0  0  0  0  0  0  0
   44.2647    4.7704   12.4246 C   0  0  1  0  0  0  0  0  0  0  0  0
   44.8926    2.5570    9.3271 N   0  0  0  0  0  0  0  0  0  0  0  0
   44.4151    6.1043   11.6792 C   0  0  1  0  0  0  0  0  0  0  0  0
   44.0537    2.3650   12.1347 O   0  0  0  0  0  0  0  0  0  0  0  0
   43.1718    4.8234   13.3444 O   0  0  0  0  0  0  0  0  0  0  0  0
   46.0649    5.0946    8.6266 O   0  0  0  0  0  0  0  0  0  0  0  0
   44.8206    7.2371   12.6290 C   0  0  0  0  0  0  0  0  0  0  0  0
   44.9422    8.4581   11.8939 O   0  0  0  0  0  0  0  0  0  0  0  0
   44.2343    4.7726   11.3135 S   0  0  0  0  0  0  0  0  0  0  0  0
   43.9151    4.4868   12.6890 O   0  0  0  0  0  0  0  0  0  0  0  0
   45.2760    3.6655   10.7935 O   0  0  0  0  0  0  0  0  0  0  0  0
   45.1535    6.0850   11.3266 O   0  0  0  0  0  0  0  0  0  0  0  0
   43.2476    4.9210   10.2744 O   0  0  0  0  0  0  0  0  0  0  0  0
   45.6605    2.8367   10.3884 H   0  0  0  0  0  0  0  0  0  0  0  0
   43.6168    3.6050   12.5295 H   0  0  0  0  0  0  0  0  0  0  0  0
   45.4862    4.9865    9.5280 H   0  0  0  0  0  0  0  0  0  0  0  0
   46.2901    4.9881   11.9964 H   0  0  0  0  0  0  0  0  0  0  0  0
   43.8968    1.8306    9.4372 H   0  0  0  0  0  0  0  0  0  0  0  0
   42.7933    2.6461   10.2504 H   0  0  0  0  0  0  0  0  0  0  0  0
   43.5686    6.3225   12.3558 H   0  0  0  0  0  0  0  0  0  0  0  0
   44.9392    1.7598   12.6220 H   0  0  0  0  0  0  0  0  0  0  0  0
   45.6471    4.3845   14.1861 H   0  0  0  0  0  0  0  0  0  0  0  0
   43.3637    5.1050    8.3965 H   0  0  0  0  0  0  0  0  0  0  0  0
   45.6986    7.6769   12.2824 H   0  0  0  0  0  0  0  0  0  0  0  0
   45.9543    7.1097   10.6059 H   0  0  0  0  0  0  0  0  0  0  0  0
   44.8793    9.1380   10.8067 H   0  0  0  0  0  0  0  0  0  0  0  0
   46.0709    3.4579   10.7630 H   0  0  0  0  0  0  0  0  0  0  0  0
   43.0201    3.7081   11.0049 H   0  0  0  0  0  0  0  0  0  0  0  0
   44.1287    5.2975    9.2196 H   0  0  0  0  0  0  0  0  0  0  0  0
   45.1686    4.5565   13.0095 H   0  0  0  0  0  0  0  0  0  0  0  0
   44.0158    2.7002    8.8293 H   0  0  0  0  0  0  0  0  0  0  0  0
   44.7529    1.6801    9.8393 H   0  0  0  0  0  0  0  0  0  0  0  0
   43.4738    6.3927   11.1943 H   0  0  0  0  0  0  0  0  0  0  0  0
   44.9726    2.1873   12.4114 H   0  0  0  0  0  0  0  0  0  0  0  0
   42.9756    3.9039   13.6053 H   0  0  0  0  0  0  0  0  0  0  0  0
   46.3457    4.1687    8.4849 H   0  0  0  0  0  0  0  0  0  0  0  0
   44.0787    7.3886   13.4162 H   0  0  0  0  0  0  0  0  0  0  0  0
   45.7941    7.0384   13.0891 H   0  0  0  0  0  0  0  0  0  0  0  0
   45.4435    8.2311   11.0844 H   0  0  0  0  0  0  0  0  0  0  0  0
   45.2213    3.6608    9.8152 H   0  0  0  0  0  0  0  0  0  0  0  0
   45.5753    6.1332   12.2112 H   0  0  0  0  0  0  0  0  0  0  0  0
  2  1  1  0
  3  1  1  0
  4  3  1  0
  5  2  1  0
  1  6  1  0
  7  4  1  0
  2  8  1  0
  5  9  1  0
  3 10  1  0
  7 11  1  0
 12 11  1  0
  5  7  1  0
 14 13  1  0
 15 13  1  0
 16 15  1  0
 17 14  1  0
 13 18  1  0
 19 16  1  0
 14 20  1  0
 17 21  1  0
 15 22  1  0
 19 23  1  0
 24 23  1  0
 17 19  1  0
 25 26  2  0
 25 27  1  0
 25 28  1  0
 25 29  2  0
  1 30  1  1
  2 31  1  6
  3 32  1  1
  5 33  1  1
  6 34  1  0
  6 35  1  0
  7 36  1  1
  8 37  1  0
  9 38  1  0
 10 39  1  0
 11 40  1  0
 11 41  1  0
 12 42  1  0
 13 43  1  1
 14 44  1  6
 15 45  1  6
 17 46  1  1
 18 47  1  0
 18 48  1  0
 19 49  1  6
 20 50  1  0
 21 51  1  0
 22 52  1  0
 23 53  1  0
 23 54  1  0
 24 55  1  0
 27 56  1  0
 28 57  1  0
M  END
> <Uni-Dock RESULT> 
ENERGY=   -5.665  LOWER_BOUND=    0.000  UPPER_BOUND=    0.000
INTER + INTRA:          -5.665
INTER:                  -5.665
INTRA:                   0.000
UNBOUND:                 0.000

$$$$

     RDKit          3D

 57 56  0  0  0  0  0  0  0  0999 V2000
   44.2656    6.6232   11.2482 C   0  0  2  0  0  0  0  0  0  0  0  0
   43.9870    5.1116   11.2182 C   0  0  2  0  0  0  0  0  0  0  0  0
   45.2236    6.9739   12.4250 C   0  0  2  0  0  0  0  0  0  0  0  0
   45.0827    6.0528   13.4919 O   0  0  0  0  0  0  0  0  0  0  0  0
   45.2261    4.3488   11.6829 C   0  0  1  0  0  0  0  0  0  0  0  0
   42.9622    7.3398   11.2510 N   0  0  0  0  0  0  0  0  0  0  0  0
   45.4935    4.7078   13.1599 C   0  0  1  0  0  0  0  0  0  0  0  0
   43.6269    4.6998    9.8949 O   0  0  0  0  0  0  0  0  0  0  0  0
   45.0336    2.9416   11.5239 O   0  0  0  0  0  0  0  0  0  0  0  0
   44.9231    8.2637   12.9352 O   0  0  0  0  0  0  0  0  0  0  0  0
   46.9710    4.4791   13.5224 C   0  0  0  0  0  0  0  0  0  0  0  0
   47.1678    4.6537   14.9239 O   0  0  0  0  0  0  0  0  0  0  0  0
   44.8859    6.7676   11.2904 C   0  0  2  0  0  0  0  0  0  0  0  0
   43.7832    5.8273   11.8013 C   0  0  2  0  0  0  0  0  0  0  0  0
   45.9896    6.8756   12.3725 C   0  0  1  0  0  0  0  0  0  0  0  0
   46.5327    5.5793   12.6076 O   0  0  0  0  0  0  0  0  0  0  0  0
   44.3755    4.4766   12.2362 C   0  0  1  0  0  0  0  0  0  0  0  0
   44.3628    8.0840   10.8672 N   0  0  0  0  0  0  0  0  0  0  0  0
   45.5592    4.6907   13.1904 C   0  0  1  0  0  0  0  0  0  0  0  0
   42.7851    5.6087   10.7858 O   0  0  0  0  0  0  0  0  0  0  0  0
   43.3532    3.6981   12.8622 O   0  0  0  0  0  0  0  0  0  0  0  0
   47.0218    7.7431   11.9244 O   0  0  0  0  0  0  0  0  0  0  0  0
   46.2753    3.3719   13.5034 C   0  0  0  0  0  0  0  0  0  0  0  0
   47.3636    3.6185   14.3982 O   0  0  0  0  0  0  0  0  0  0  0  0
   44.6964    5.5145   12.4714 S   0  0  0  0  0  0  0  0  0  0  0  0
   43.8665    4.3607   12.2355 O   0  0  0  0  0  0  0  0  0  0  0  0
   44.8893    6.2942   11.0801 O   0  0  0  0  0  0  0  0  0  0  0  0
   46.1779    4.9602   12.7273 O   0  0  0  0  0  0  0  0  0  0  0  0
   44.4112    6.5194   13.4636 O   0  0  0  0  0  0  0  0  0  0  0  0
   44.7586    6.9280   10.3184 H   0  0  0  0  0  0  0  0  0  0  0  0
   43.1434    4.8451   11.8688 H   0  0  0  0  0  0  0  0  0  0  0  0
   46.2667    6.9924   12.0831 H   0  0  0  0  0  0  0  0  0  0  0  0
   46.0793    4.6186   11.0488 H   0  0  0  0  0  0  0  0  0  0  0  0
   43.1620    8.3249   11.0444 H   0  0  0  0  0  0  0  0  0  0  0  0
   42.6499    7.3795   12.2226 H   0  0  0  0  0  0  0  0  0  0  0  0
   44.8910    4.0589   13.8040 H   0  0  0  0  0  0  0  0  0  0  0  0
   42.8775    5.2873    9.6562 H   0  0  0  0  0  0  0  0  0  0  0  0
   44.5681    2.8461   10.6654 H   0  0  0  0  0  0  0  0  0  0  0  0
   45.1867    8.1953   13.8679 H   0  0  0  0  0  0  0  0  0  0  0  0
   47.2831    3.4626   13.2569 H   0  0  0  0  0  0  0  0  0  0  0  0
   47.6179    5.2015   13.0086 H   0  0  0  0  0  0  0  0  0  0  0  0
   48.0852    4.3995   15.1176 H   0  0  0  0  0  0  0  0  0  0  0  0
   45.3294    6.3244   10.3863 H   0  0  0  0  0  0  0  0  0  0  0  0
   43.2544    6.2837   12.6493 H   0  0  0  0  0  0  0  0  0  0  0  0
   45.5981    7.2921   13.3069 H   0  0  0  0  0  0  0  0  0  0  0  0
   44.6998    3.9256   11.3440 H   0  0  0  0  0  0  0  0  0  0  0  0
   43.9859    8.5763   11.6751 H   0  0  0  0  0  0  0  0  0  0  0  0
   43.5489    7.9263   10.2643 H   0  0  0  0  0  0  0  0  0  0  0  0
   45.2251    5.1258   14.1408 H   0  0  0  0  0  0  0  0  0  0  0  0
   43.2377    5.3309    9.9670 H   0  0  0  0  0  0  0  0  0  0  0  0
   42.5493    3.7946   12.3177 H   0  0  0  0  0  0  0  0  0  0  0  0
   46.6751    8.1746   11.1182 H   0  0  0  0  0  0  0  0  0  0  0  0
   45.6049    2.6512   13.9767 H   0  0  0  0  0  0  0  0  0  0  0  0
   46.6969    2.9257   12.5967 H   0  0  0  0  0  0  0  0  0  0  0  0
   47.8226    4.4080   14.0458 H   0  0  0  0  0  0  0  0  0  0  0  0
   45.1478    7.2128   11.3023 H   0  0  0  0  0  0  0  0  0  0  0  0
   46.2357    4.0809   12.2957 H   0  0  0  0  0  0  0  0  0  0  0  0
  2  1  1  0
  3  1  1  0
  4  3  1  0
  5  2  1  0
  1  6  1  0
  7  4  1  0
  2  8  1  0
  5  9  1  0
  3 10  1  0
  7 11  1  0
 12 11  1  0
  5  7  1  0
 14 13  1  0
 15 13  1  0
 16 15  1  0
 17 14  1  0
 13 18  1  0
 19 16  1  0
 14 20  1  0
 17 21  1  0
 15 22  1  0
 19 23  1  0
 24 23  1  0
 17 19  1  0
 25 26  2  0
 25 27  1  0
 25 28  1  0
 25 29  2  0
  1 30  1  1
  2 31  1  6
  3 32  1  1
  5 33  1  1
  6 34  1  0
  6 35  1  0
  7 36  1  1
  8 37  1  0
  9 38  1  0
 10 39  1  0
 11 40  1  0
 11 41  1  0
 12 42  1  0
 13 43  1  1
 14 44  1  6
 15 45  1  6
 17 46  1  1
 18 47  1  0
 18 48  1  0
 19 49  1  6
 20 50  1  0
 21 51  1  0
 22 52  1  0
 23 53  1  0
 23 54  1  0
 24 55  1  0
 27 56  1  0
 28 57  1  0
M  END
> <Uni-Dock RESULT> 
ENERGY=   -5.091  LOWER_BOUND=    1.937  UPPER_BOUND=    3.604
INTER + INTRA:          -5.091
INTER:                  -5.091
INTRA:                   0.000
UNBOUND:                 0.000

$$$$

     RDKit          3D

 57 56  0  0  0  0  0  0  0  0999 V2000
   43.6001    5.9811   11.8744 C   0  0  2  0  0  0  0  0  0  0  0  0
   44.8291    6.8984   11.9830 C   0  0  2  0  0  0  0  0  0  0  0  0
   43.9504    4.5460   12.3675 C   0  0  2  0  0  0  0  0  0  0  0  0
   45.3227    4.2568   12.1682 O   0  0  0  0  0  0  0  0  0  0  0  0
   45.6669    6.4979   13.1958 C   0  0  1  0  0  0  0  0  0  0  0  0
   43.0719    6.0680   10.4867 N   0  0  0  0  0  0  0  0  0  0  0  0
   46.2125    5.0733   12.9617 C   0  0  1  0  0  0  0  0  0  0  0  0
   44.4189    8.2652   12.1017 O   0  0  0  0  0  0  0  0  0  0  0  0
   46.7326    7.4290   13.3945 O   0  0  0  0  0  0  0  0  0  0  0  0
   43.2036    3.5815   11.6421 O   0  0  0  0  0  0  0  0  0  0  0  0
   46.5452    4.3858   14.2971 C   0  0  0  0  0  0  0  0  0  0  0  0
   47.2009    3.1417   14.0614 O   0  0  0  0  0  0  0  0  0  0  0  0
   43.4801    5.6511   12.4074 C   0  0  2  0  0  0  0  0  0  0  0  0
   44.5889    6.1448   11.4650 C   0  0  2  0  0  0  0  0  0  0  0  0
   43.9679    4.3645   13.1198 C   0  0  1  0  0  0  0  0  0  0  0  0
   45.1388    4.6704   13.8723 O   0  0  0  0  0  0  0  0  0  0  0  0
   45.9170    6.3074   12.2226 C   0  0  1  0  0  0  0  0  0  0  0  0
   42.1837    5.4728   11.7194 N   0  0  0  0  0  0  0  0  0  0  0  0
   46.2413    5.0353   13.0189 C   0  0  1  0  0  0  0  0  0  0  0  0
   44.2252    7.4004   10.8596 O   0  0  0  0  0  0  0  0  0  0  0  0
   46.9566    6.5985   11.2857 O   0  0  0  0  0  0  0  0  0  0  0  0
   42.9577    3.8857   13.9968 O   0  0  0  0  0  0  0  0  0  0  0  0
   47.4679    5.2310   13.9172 C   0  0  0  0  0  0  0  0  0  0  0  0
   47.7354    4.0217   14.6327 O   0  0  0  0  0  0  0  0  0  0  0  0
   45.1913    5.4656   12.2111 S   0  0  0  0  0  0  0  0  0  0  0  0
   46.0330    6.5507   11.7754 O   0  0  0  0  0  0  0  0  0  0  0  0
   43.7455    6.0610   12.5800 O   0  0  0  0  0  0  0  0  0  0  0  0
   45.7283    5.0302   13.6566 O   0  0  0  0  0  0  0  0  0  0  0  0
   44.9539    4.2733   11.4381 O   0  0  0  0  0  0  0  0  0  0  0  0
   42.7951    6.3626   12.5123 H   0  0  0  0  0  0  0  0  0  0  0  0
   45.4571    6.8376   11.0841 H   0  0  0  0  0  0  0  0  0  0  0  0
   43.6942    4.4276   13.4286 H   0  0  0  0  0  0  0  0  0  0  0  0
   45.0453    6.5408   14.0983 H   0  0  0  0  0  0  0  0  0  0  0  0
   42.1400    5.6384   10.4939 H   0  0  0  0  0  0  0  0  0  0  0  0
   43.6120    5.4087    9.9240 H   0  0  0  0  0  0  0  0  0  0  0  0
   47.1387    5.1324   12.3808 H   0  0  0  0  0  0  0  0  0  0  0  0
   43.8335    8.4084   11.3268 H   0  0  0  0  0  0  0  0  0  0  0  0
   46.3362    8.3084   13.2143 H   0  0  0  0  0  0  0  0  0  0  0  0
   43.7851    2.8032   11.6531 H   0  0  0  0  0  0  0  0  0  0  0  0
   47.2093    5.0136   14.9022 H   0  0  0  0  0  0  0  0  0  0  0  0
   45.6321    4.1717   14.8669 H   0  0  0  0  0  0  0  0  0  0  0  0
   47.4811    2.7979   14.9259 H   0  0  0  0  0  0  0  0  0  0  0  0
   43.3028    6.4236   13.1704 H   0  0  0  0  0  0  0  0  0  0  0  0
   44.7268    5.4392   10.6344 H   0  0  0  0  0  0  0  0  0  0  0  0
   44.1823    3.5641   12.4035 H   0  0  0  0  0  0  0  0  0  0  0  0
   45.8397    7.1700   12.8970 H   0  0  0  0  0  0  0  0  0  0  0  0
   42.2628    4.7249   11.0328 H   0  0  0  0  0  0  0  0  0  0  0  0
   42.0000    6.3119   11.1601 H   0  0  0  0  0  0  0  0  0  0  0  0
   46.4472    4.1922   12.3473 H   0  0  0  0  0  0  0  0  0  0  0  0
   43.9615    8.0169   11.5687 H   0  0  0  0  0  0  0  0  0  0  0  0
   46.5985    7.2555   10.6593 H   0  0  0  0  0  0  0  0  0  0  0  0
   42.1560    4.4051   13.7877 H   0  0  0  0  0  0  0  0  0  0  0  0
   48.3574    5.4840   13.3359 H   0  0  0  0  0  0  0  0  0  0  0  0
   47.2925    6.0150   14.6612 H   0  0  0  0  0  0  0  0  0  0  0  0
   46.8684    3.7148   14.9676 H   0  0  0  0  0  0  0  0  0  0  0  0
   43.1123    5.3143   12.5424 H   0  0  0  0  0  0  0  0  0  0  0  0
   46.1955    5.8049   14.0365 H   0  0  0  0  0  0  0  0  0  0  0  0
  2  1  1  0
  3  1  1  0
  4  3  1  0
  5  2  1  0
  1  6  1  0
  7  4  1  0
  2  8  1  0
  5  9  1  0
  3 10  1  0
  7 11  1  0
 12 11  1  0
  5  7  1  0
 14 13  1  0
 15 13  1  0
 16 15  1  0
 17 14  1  0
 13 18  1  0
 19 16  1  0
 14 20  1  0
 17 21  1  0
 15 22  1  0
 19 23  1  0
 24 23  1  0
 17 19  1  0
 25 26  2  0
 25 27  1  0
 25 28  1  0
 25 29  2  0
  1 30  1  1
  2 31  1  6
  3 32  1  1
  5 33  1  1
  6 34  1  0
  6 35  1  0
  7 36  1  1
  8 37  1  0
  9 38  1  0
 10 39  1  0
 11 40  1  0
 11 41  1  0
 12 42  1  0
 13 43  1  1
 14 44  1  6
 15 45  1  6
 17 46  1  1
 18 47  1  0
 18 48  1  0
 19 49  1  6
 20 50  1  0
 21 51  1  0
 22 52  1  0
 23 53  1  0
 23 54  1  0
 24 55  1  0
 27 56  1  0
 28 57  1  0
M  END
> <Uni-Dock RESULT> 
ENERGY=   -5.036  LOWER_BOUND=    1.883  UPPER_BOUND=    3.811
INTER + INTRA:          -5.036
INTER:                  -5.036
INTRA:                   0.000
UNBOUND:                 0.000

$$$$

     RDKit          3D

 57 56  0  0  0  0  0  0  0  0999 V2000
   47.0210    6.0197   13.4174 C   0  0  2  0  0  0  0  0  0  0  0  0
   46.3173    4.6626   13.5812 C   0  0  2  0  0  0  0  0  0  0  0  0
   46.2184    6.9316   12.4428 C   0  0  2  0  0  0  0  0  0  0  0  0
   45.4951    6.1612   11.4993 O   0  0  0  0  0  0  0  0  0  0  0  0
   44.8038    4.8528   13.5011 C   0  0  1  0  0  0  0  0  0  0  0  0
   48.4372    5.7701   13.0374 N   0  0  0  0  0  0  0  0  0  0  0  0
   44.4502    5.3525   12.0842 C   0  0  1  0  0  0  0  0  0  0  0  0
   46.6698    4.0695   14.8360 O   0  0  0  0  0  0  0  0  0  0  0  0
   44.1314    3.6265   13.7949 O   0  0  0  0  0  0  0  0  0  0  0  0
   47.1019    7.7720   11.7167 O   0  0  0  0  0  0  0  0  0  0  0  0
   43.1085    6.1051   12.0857 C   0  0  0  0  0  0  0  0  0  0  0  0
   42.7147    6.4139   10.7505 O   0  0  0  0  0  0  0  0  0  0  0  0
   46.6318    6.5198   13.4932 C   0  0  2  0  0  0  0  0  0  0  0  0
   46.7601    5.1167   12.8801 C   0  0  2  0  0  0  0  0  0  0  0  0
   45.5955    7.3290   12.6735 C   0  0  1  0  0  0  0  0  0  0  0  0
   44.3382    6.6608   12.7324 O   0  0  0  0  0  0  0  0  0  0  0  0
   45.3825    4.4436   12.7637 C   0  0  1  0  0  0  0  0  0  0  0  0
   47.9335    7.2095   13.6180 N   0  0  0  0  0  0  0  0  0  0  0  0
   44.3827    5.3810   12.0714 C   0  0  1  0  0  0  0  0  0  0  0  0
   47.6328    4.2889   13.6729 O   0  0  0  0  0  0  0  0  0  0  0  0
   45.5199    3.2212   12.0357 O   0  0  0  0  0  0  0  0  0  0  0  0
   45.4601    8.6336   13.2199 O   0  0  0  0  0  0  0  0  0  0  0  0
   42.9621    4.8056   12.0956 C   0  0  0  0  0  0  0  0  0  0  0  0
   42.0688    5.7070   11.4358 O   0  0  0  0  0  0  0  0  0  0  0  0
   45.7142    5.4635   12.4718 S   0  0  0  0  0  0  0  0  0  0  0  0
   45.6949    4.0364   12.6682 O   0  0  0  0  0  0  0  0  0  0  0  0
   46.3937    6.1440   13.7587 O   0  0  0  0  0  0  0  0  0  0  0  0
   44.1979    5.9601   12.6194 O   0  0  0  0  0  0  0  0  0  0  0  0
   46.2916    6.1077   11.3197 O   0  0  0  0  0  0  0  0  0  0  0  0
   47.0694    6.5316   14.3849 H   0  0  0  0  0  0  0  0  0  0  0  0
   46.6260    3.9527   12.8023 H   0  0  0  0  0  0  0  0  0  0  0  0
   45.5309    7.5824   12.9988 H   0  0  0  0  0  0  0  0  0  0  0  0
   44.4858    5.5718   14.2657 H   0  0  0  0  0  0  0  0  0  0  0  0
   48.9390    6.6576   13.1533 H   0  0  0  0  0  0  0  0  0  0  0  0
   48.4522    5.6414   12.0243 H   0  0  0  0  0  0  0  0  0  0  0  0
   44.3463    4.4931   11.4138 H   0  0  0  0  0  0  0  0  0  0  0  0
   47.6514    4.0548   14.8273 H   0  0  0  0  0  0  0  0  0  0  0  0
   44.6390    3.2317   14.5362 H   0  0  0  0  0  0  0  0  0  0  0  0
   46.6276    7.9156   10.8809 H   0  0  0  0  0  0  0  0  0  0  0  0
   42.3212    5.4943   12.5423 H   0  0  0  0  0  0  0  0  0  0  0  0
   43.1911    7.0542   12.6304 H   0  0  0  0  0  0  0  0  0  0  0  0
   41.8211    6.7923   10.7962 H   0  0  0  0  0  0  0  0  0  0  0  0
   46.2554    6.4166   14.5219 H   0  0  0  0  0  0  0  0  0  0  0  0
   47.2227    5.1751   11.8853 H   0  0  0  0  0  0  0  0  0  0  0  0
   45.9089    7.4447   11.6303 H   0  0  0  0  0  0  0  0  0  0  0  0
   45.0270    4.1824   13.7688 H   0  0  0  0  0  0  0  0  0  0  0  0
   48.3138    7.3891   12.6906 H   0  0  0  0  0  0  0  0  0  0  0  0
   48.6011    6.5586   14.0439 H   0  0  0  0  0  0  0  0  0  0  0  0
   44.6603    5.5475   11.0228 H   0  0  0  0  0  0  0  0  0  0  0  0
   47.3289    4.3239   14.5996 H   0  0  0  0  0  0  0  0  0  0  0  0
   46.3201    2.7774   12.3745 H   0  0  0  0  0  0  0  0  0  0  0  0
   46.1863    8.7270   13.8681 H   0  0  0  0  0  0  0  0  0  0  0  0
   42.9084    3.8417   11.5848 H   0  0  0  0  0  0  0  0  0  0  0  0
   42.6010    4.6863   13.1224 H   0  0  0  0  0  0  0  0  0  0  0  0
   42.2931    6.5976   11.7746 H   0  0  0  0  0  0  0  0  0  0  0  0
   46.7030    7.0314   13.4813 H   0  0  0  0  0  0  0  0  0  0  0  0
   43.7273    5.2927   13.1634 H   0  0  0  0  0  0  0  0  0  0  0  0
  2  1  1  0
  3  1  1  0
  4  3  1  0
  5  2  1  0
  1  6  1  0
  7  4  1  0
  2  8  1  0
  5  9  1  0
  3 10  1  0
  7 11  1  0
 12 11  1  0
  5  7  1  0
 14 13  1  0
 15 13  1  0
 16 15  1  0
 17 14  1  0
 13 18  1  0
 19 16  1  0
 14 20  1  0
 17 21  1  0
 15 22  1  0
 19 23  1  0
 24 23  1  0
 17 19  1  0
 25 26  2  0
 25 27  1  0
 25 28  1  0
 25 29  2  0
  1 30  1  1
  2 31  1  6
  3 32  1  1
  5 33  1  1
  6 34  1  0
  6 35  1  0
  7 36  1  1
  8 37  1  0
  9 38  1  0
 10 39  1  0
 11 40  1  0
 11 41  1  0
 12 42  1  0
 13 43  1  1
 14 44  1  6
 15 45  1  6
 17 46  1  1
 18 47  1  0
 18 48  1  0
 19 49  1  6
 20 50  1  0
 21 51  1  0
 22 52  1  0
 23 53  1  0
 23 54  1  0
 24 55  1  0
 27 56  1  0
 28 57  1  0
M  END
> <Uni-Dock RESULT> 
ENERGY=   -4.568  LOWER_BOUND=    2.364  UPPER_BOUND=    3.615
INTER + INTRA:          -4.568
INTER:                  -4.568
INTRA:                   0.000
UNBOUND:                 0.000

$$$$

     RDKit          3D

 57 56  0  0  0  0  0  0  0  0999 V2000
   44.2003    4.0685   12.0471 C   0  0  2  0  0  0  0  0  0  0  0  0
   45.5990    4.2012   12.6716 C   0  0  2  0  0  0  0  0  0  0  0  0
   43.4981    5.4575   11.9919 C   0  0  2  0  0  0  0  0  0  0  0  0
   43.9539    6.3035   13.0327 O   0  0  0  0  0  0  0  0  0  0  0  0
   46.2080    5.5497   12.2924 C   0  0  1  0  0  0  0  0  0  0  0  0
   43.4591    3.0072   12.7796 N   0  0  0  0  0  0  0  0  0  0  0  0
   45.3481    6.6664   12.9214 C   0  0  1  0  0  0  0  0  0  0  0  0
   46.4460    3.1381   12.2213 O   0  0  0  0  0  0  0  0  0  0  0  0
   47.5617    5.6293   12.7433 O   0  0  0  0  0  0  0  0  0  0  0  0
   42.0961    5.3056   12.1516 O   0  0  0  0  0  0  0  0  0  0  0  0
   45.5124    7.9872   12.1499 C   0  0  0  0  0  0  0  0  0  0  0  0
   44.8475    9.0454   12.8364 O   0  0  0  0  0  0  0  0  0  0  0  0
   44.0865    4.4925   11.5838 C   0  0  2  0  0  0  0  0  0  0  0  0
   44.7088    4.2973   12.9751 C   0  0  2  0  0  0  0  0  0  0  0  0
   43.6526    5.9725   11.4351 C   0  0  1  0  0  0  0  0  0  0  0  0
   44.8013    6.8050   11.5701 O   0  0  0  0  0  0  0  0  0  0  0  0
   45.8374    5.3134   13.2159 C   0  0  1  0  0  0  0  0  0  0  0  0
   42.9893    3.5399   11.3105 N   0  0  0  0  0  0  0  0  0  0  0  0
   45.3567    6.7366   12.8982 C   0  0  1  0  0  0  0  0  0  0  0  0
   45.2270    2.9612   13.1218 O   0  0  0  0  0  0  0  0  0  0  0  0
   46.2719    5.2158   14.5742 O   0  0  0  0  0  0  0  0  0  0  0  0
   43.0708    6.1787   10.1553 O   0  0  0  0  0  0  0  0  0  0  0  0
   46.5075    7.7472   12.9638 C   0  0  0  0  0  0  0  0  0  0  0  0
   46.0128    9.0562   12.6680 O   0  0  0  0  0  0  0  0  0  0  0  0
   44.8059    5.4592   12.8284 S   0  0  0  0  0  0  0  0  0  0  0  0
   45.9161    4.9882   13.6167 O   0  0  0  0  0  0  0  0  0  0  0  0
   44.6033    4.4586   11.5879 O   0  0  0  0  0  0  0  0  0  0  0  0
   45.3118    6.7839   12.0823 O   0  0  0  0  0  0  0  0  0  0  0  0
   43.4925    5.7140   13.3629 O   0  0  0  0  0  0  0  0  0  0  0  0
   44.2867    3.7005   11.0187 H   0  0  0  0  0  0  0  0  0  0  0  0
   45.5593    4.1267   13.7665 H   0  0  0  0  0  0  0  0  0  0  0  0
   43.6663    5.9383   11.0193 H   0  0  0  0  0  0  0  0  0  0  0  0
   46.2390    5.6413   11.2000 H   0  0  0  0  0  0  0  0  0  0  0  0
   42.6317    2.7779   12.2176 H   0  0  0  0  0  0  0  0  0  0  0  0
   43.0480    3.4497   13.6031 H   0  0  0  0  0  0  0  0  0  0  0  0
   45.6798    6.8413   13.9502 H   0  0  0  0  0  0  0  0  0  0  0  0
   45.9450    2.3227   12.4403 H   0  0  0  0  0  0  0  0  0  0  0  0
   47.9387    4.7404   12.5682 H   0  0  0  0  0  0  0  0  0  0  0  0
   41.8326    6.1436   12.5668 H   0  0  0  0  0  0  0  0  0  0  0  0
   46.5716    8.2526   12.0555 H   0  0  0  0  0  0  0  0  0  0  0  0
   45.0673    7.9156   11.1494 H   0  0  0  0  0  0  0  0  0  0  0  0
   45.0651    9.8697   12.3705 H   0  0  0  0  0  0  0  0  0  0  0  0
   44.8551    4.2790   10.8262 H   0  0  0  0  0  0  0  0  0  0  0  0
   43.9436    4.4104   13.7554 H   0  0  0  0  0  0  0  0  0  0  0  0
   42.9007    6.2488   12.1821 H   0  0  0  0  0  0  0  0  0  0  0  0
   46.6950    5.0505   12.5832 H   0  0  0  0  0  0  0  0  0  0  0  0
   42.2143    3.7221   11.9454 H   0  0  0  0  0  0  0  0  0  0  0  0
   43.3102    2.6003   11.5654 H   0  0  0  0  0  0  0  0  0  0  0  0
   44.5848    7.0592   13.6084 H   0  0  0  0  0  0  0  0  0  0  0  0
   45.8112    2.7747   12.3627 H   0  0  0  0  0  0  0  0  0  0  0  0
   46.3359    4.2651   14.7842 H   0  0  0  0  0  0  0  0  0  0  0  0
   42.9459    5.2873    9.7732 H   0  0  0  0  0  0  0  0  0  0  0  0
   46.9646    7.7743   13.9554 H   0  0  0  0  0  0  0  0  0  0  0  0
   47.2786    7.5175   12.2211 H   0  0  0  0  0  0  0  0  0  0  0  0
   45.4353    8.9505   11.8847 H   0  0  0  0  0  0  0  0  0  0  0  0
   43.6838    4.5796   11.2721 H   0  0  0  0  0  0  0  0  0  0  0  0
   46.2899    6.7284   12.0270 H   0  0  0  0  0  0  0  0  0  0  0  0
  2  1  1  0
  3  1  1  0
  4  3  1  0
  5  2  1  0
  1  6  1  0
  7  4  1  0
  2  8  1  0
  5  9  1  0
  3 10  1  0
  7 11  1  0
 12 11  1  0
  5  7  1  0
 14 13  1  0
 15 13  1  0
 16 15  1  0
 17 14  1  0
 13 18  1  0
 19 16  1  0
 14 20  1  0
 17 21  1  0
 15 22  1  0
 19 23  1  0
 24 23  1  0
 17 19  1  0
 25 26  2  0
 25 27  1  0
 25 28  1  0
 25 29  2  0
  1 30  1  1
  2 31  1  6
  3 32  1  1
  5 33  1  1
  6 34  1  0
  6 35  1  0
  7 36  1  1
  8 37  1  0
  9 38  1  0
 10 39  1  0
 11 40  1  0
 11 41  1  0
 12 42  1  0
 13 43  1  1
 14 44  1  6
 15 45  1  6
 17 46  1  1
 18 47  1  0
 18 48  1  0
 19 49  1  6
 20 50  1  0
 21 51  1  0
 22 52  1  0
 23 53  1  0
 23 54  1  0
 24 55  1  0
 27 56  1  0
 28 57  1  0
M  END
> <Uni-Dock RESULT> 
ENERGY=   -4.547  LOWER_BOUND=    1.551  UPPER_BOUND=    2.208
INTER + INTRA:          -4.547
INTER:                  -4.547
INTRA:                   0.000
UNBOUND:                 0.000

$$$$

     RDKit          3D

 57 56  0  0  0  0  0  0  0  0999 V2000
   45.5806    4.5693   13.1981 C   0  0  2  0  0  0  0  0  0  0  0  0
   44.1499    4.4666   12.6447 C   0  0  2  0  0  0  0  0  0  0  0  0
   46.2635    5.8753   12.6946 C   0  0  2  0  0  0  0  0  0  0  0  0
   45.7420    6.2748   11.4397 O   0  0  0  0  0  0  0  0  0  0  0  0
   43.5406    5.8623   12.5264 C   0  0  1  0  0  0  0  0  0  0  0  0
   46.2995    3.3078   12.8751 N   0  0  0  0  0  0  0  0  0  0  0  0
   44.3499    6.6600   11.4819 C   0  0  1  0  0  0  0  0  0  0  0  0
   43.3435    3.6520   13.5029 O   0  0  0  0  0  0  0  0  0  0  0  0
   42.1645    5.7749   12.1512 O   0  0  0  0  0  0  0  0  0  0  0  0
   47.6576    5.6680   12.5285 O   0  0  0  0  0  0  0  0  0  0  0  0
   44.2052    8.1739   11.7139 C   0  0  0  0  0  0  0  0  0  0  0  0
   44.8178    8.8968   10.6483 O   0  0  0  0  0  0  0  0  0  0  0  0
   45.7117    5.1348   13.4634 C   0  0  2  0  0  0  0  0  0  0  0  0
   45.0218    4.4383   12.2802 C   0  0  2  0  0  0  0  0  0  0  0  0
   46.1299    6.5615   13.0271 C   0  0  1  0  0  0  0  0  0  0  0  0
   44.9632    7.2894   12.6532 O   0  0  0  0  0  0  0  0  0  0  0  0
   43.8669    5.2971   11.7389 C   0  0  1  0  0  0  0  0  0  0  0  0
   46.8358    4.3473   14.0129 N   0  0  0  0  0  0  0  0  0  0  0  0
   44.3415    6.7338   11.4778 C   0  0  1  0  0  0  0  0  0  0  0  0
   44.5173    3.1463   12.6693 O   0  0  0  0  0  0  0  0  0  0  0  0
   43.3648    4.7026   10.5399 O   0  0  0  0  0  0  0  0  0  0  0  0
   46.7734    7.2268   14.1051 O   0  0  0  0  0  0  0  0  0  0  0  0
   43.1735    7.6528   11.1022 C   0  0  0  0  0  0  0  0  0  0  0  0
   43.6626    8.9754   10.8624 O   0  0  0  0  0  0  0  0  0  0  0  0
   44.9146    5.5717   11.9887 S   0  0  0  0  0  0  0  0  0  0  0  0
   43.7728    4.8464   11.4928 O   0  0  0  0  0  0  0  0  0  0  0  0
   45.1958    5.1043   13.4998 O   0  0  0  0  0  0  0  0  0  0  0  0
   44.4274    7.0815   12.2138 O   0  0  0  0  0  0  0  0  0  0  0  0
   46.1947    5.6025   11.3286 O   0  0  0  0  0  0  0  0  0  0  0  0
   45.5528    4.6114   14.2926 H   0  0  0  0  0  0  0  0  0  0  0  0
   44.1345    3.9893   11.6557 H   0  0  0  0  0  0  0  0  0  0  0  0
   46.1380    6.6847   13.4258 H   0  0  0  0  0  0  0  0  0  0  0  0
   43.5643    6.3545   13.5062 H   0  0  0  0  0  0  0  0  0  0  0  0
   47.1580    3.3004   13.4370 H   0  0  0  0  0  0  0  0  0  0  0  0
   46.6610    3.4096   11.9253 H   0  0  0  0  0  0  0  0  0  0  0  0
   43.9632    6.4406   10.4813 H   0  0  0  0  0  0  0  0  0  0  0  0
   43.8450    2.8113   13.5769 H   0  0  0  0  0  0  0  0  0  0  0  0
   41.8106    5.0171   12.6645 H   0  0  0  0  0  0  0  0  0  0  0  0
   47.8866    6.2897   11.8177 H   0  0  0  0  0  0  0  0  0  0  0  0
   43.1483    8.4606   11.7590 H   0  0  0  0  0  0  0  0  0  0  0  0
   44.7021    8.4780   12.6438 H   0  0  0  0  0  0  0  0  0  0  0  0
   44.6117    9.8364   10.7847 H   0  0  0  0  0  0  0  0  0  0  0  0
   44.9863    5.2227   14.2860 H   0  0  0  0  0  0  0  0  0  0  0  0
   45.7441    4.2488   11.4743 H   0  0  0  0  0  0  0  0  0  0  0  0
   46.8382    6.5358   12.1919 H   0  0  0  0  0  0  0  0  0  0  0  0
   43.0470    5.2931   12.4688 H   0  0  0  0  0  0  0  0  0  0  0  0
   47.5744    4.2760   13.3154 H   0  0  0  0  0  0  0  0  0  0  0  0
   46.5167    3.3820   14.1436 H   0  0  0  0  0  0  0  0  0  0  0  0
   45.0708    6.7647   10.6585 H   0  0  0  0  0  0  0  0  0  0  0  0
   43.9757    3.2590   13.4733 H   0  0  0  0  0  0  0  0  0  0  0  0
   43.3046    3.7424   10.7027 H   0  0  0  0  0  0  0  0  0  0  0  0
   46.9313    6.5413   14.7843 H   0  0  0  0  0  0  0  0  0  0  0  0
   42.6657    7.3108   10.1976 H   0  0  0  0  0  0  0  0  0  0  0  0
   42.4451    7.7202   11.9169 H   0  0  0  0  0  0  0  0  0  0  0  0
   44.2810    9.1663   11.5967 H   0  0  0  0  0  0  0  0  0  0  0  0
   46.1284    5.3298   13.6984 H   0  0  0  0  0  0  0  0  0  0  0  0
   43.4544    7.0554   12.3379 H   0  0  0  0  0  0  0  0  0  0  0  0
  2  1  1  0
  3  1  1  0
  4  3  1  0
  5  2  1  0
  1  6  1  0
  7  4  1  0
  2  8  1  0
  5  9  1  0
  3 10  1  0
  7 11  1  0
 12 11  1  0
  5  7  1  0
 14 13  1  0
 15 13  1  0
 16 15  1  0
 17 14  1  0
 13 18  1  0
 19 16  1  0
 14 20  1  0
 17 21  1  0
 15 22  1  0
 19 23  1  0
 24 23  1  0
 17 19  1  0
 25 26  2  0
 25 27  1  0
 25 28  1  0
 25 29  2  0
  1 30  1  1
  2 31  1  6
  3 32  1  1
  5 33  1  1
  6 34  1  0
  6 35  1  0
  7 36  1  1
  8 37  1  0
  9 38  1  0
 10 39  1  0
 11 40  1  0
 11 41  1  0
 12 42  1  0
 13 43  1  1
 14 44  1  6
 15 45  1  6
 17 46  1  1
 18 47  1  0
 18 48  1  0
 19 49  1  6
 20 50  1  0
 21 51  1  0
 22 52  1  0
 23 53  1  0
 23 54  1  0
 24 55  1  0
 27 56  1  0
 28 57  1  0
M  END
> <Uni-Dock RESULT> 
ENERGY=   -4.452  LOWER_BOUND=    1.738  UPPER_BOUND=    2.899
INTER + INTRA:          -4.452
INTER:                  -4.452
INTRA:                   0.000
UNBOUND:                 0.000

$$$$

     RDKit          3D

 57 56  0  0  0  0  0  0  0  0999 V2000
   47.0259    6.0263   13.1529 C   0  0  2  0  0  0  0  0  0  0  0  0
   46.3304    6.4741   11.8569 C   0  0  2  0  0  0  0  0  0  0  0  0
   46.2927    4.7954   13.7634 C   0  0  2  0  0  0  0  0  0  0  0  0
   44.9180    4.7969   13.4216 O   0  0  0  0  0  0  0  0  0  0  0  0
   45.7660    5.2569   11.1268 C   0  0  1  0  0  0  0  0  0  0  0  0
   47.1484    7.2061   14.0504 N   0  0  0  0  0  0  0  0  0  0  0  0
   44.6676    4.6261   12.0087 C   0  0  1  0  0  0  0  0  0  0  0  0
   47.2557    7.1661   11.0111 O   0  0  0  0  0  0  0  0  0  0  0  0
   45.2440    5.6384    9.8522 O   0  0  0  0  0  0  0  0  0  0  0  0
   46.3780    4.8258   15.1797 O   0  0  0  0  0  0  0  0  0  0  0  0
   44.4693    3.1406   11.6613 C   0  0  0  0  0  0  0  0  0  0  0  0
   43.3439    2.6161   12.3624 O   0  0  0  0  0  0  0  0  0  0  0  0
   47.1476    5.4002   13.1740 C   0  0  2  0  0  0  0  0  0  0  0  0
   46.1082    6.4594   12.7757 C   0  0  2  0  0  0  0  0  0  0  0  0
   46.4106    4.0769   13.5007 C   0  0  1  0  0  0  0  0  0  0  0  0
   45.7029    3.6454   12.3415 O   0  0  0  0  0  0  0  0  0  0  0  0
   45.2077    5.9416   11.6420 C   0  0  1  0  0  0  0  0  0  0  0  0
   48.0329    5.8523   14.2684 N   0  0  0  0  0  0  0  0  0  0  0  0
   44.6431    4.5576   11.9931 C   0  0  1  0  0  0  0  0  0  0  0  0
   46.7527    7.6780   12.3576 O   0  0  0  0  0  0  0  0  0  0  0  0
   44.1518    6.8789   11.4190 O   0  0  0  0  0  0  0  0  0  0  0  0
   47.3514    3.0801   13.8749 O   0  0  0  0  0  0  0  0  0  0  0  0
   43.8830    3.9437   10.8119 C   0  0  0  0  0  0  0  0  0  0  0  0
   43.3709    2.6617   11.1861 O   0  0  0  0  0  0  0  0  0  0  0  0
   45.5158    5.4607   12.5955 S   0  0  0  0  0  0  0  0  0  0  0  0
   45.0790    6.4476   11.6411 O   0  0  0  0  0  0  0  0  0  0  0  0
   47.1203    5.4977   12.6660 O   0  0  0  0  0  0  0  0  0  0  0  0
   45.2655    4.0322   11.9142 O   0  0  0  0  0  0  0  0  0  0  0  0
   45.0510    5.4004   13.9578 O   0  0  0  0  0  0  0  0  0  0  0  0
   48.0560    5.7232   12.9353 H   0  0  0  0  0  0  0  0  0  0  0  0
   45.5102    7.1749   12.0620 H   0  0  0  0  0  0  0  0  0  0  0  0
   46.7598    3.8604   13.4275 H   0  0  0  0  0  0  0  0  0  0  0  0
   46.5746    4.5428   10.9297 H   0  0  0  0  0  0  0  0  0  0  0  0
   47.8034    6.9475   14.7967 H   0  0  0  0  0  0  0  0  0  0  0  0
   46.2637    7.2861   14.5543 H   0  0  0  0  0  0  0  0  0  0  0  0
   43.7177    5.1383   11.8239 H   0  0  0  0  0  0  0  0  0  0  0  0
   47.6166    7.8784   11.5822 H   0  0  0  0  0  0  0  0  0  0  0  0
   45.8864    6.2923    9.5020 H   0  0  0  0  0  0  0  0  0  0  0  0
   45.5661    4.3691   15.4562 H   0  0  0  0  0  0  0  0  0  0  0  0
   44.2932    3.0133   10.5870 H   0  0  0  0  0  0  0  0  0  0  0  0
   45.3444    2.5480   11.9567 H   0  0  0  0  0  0  0  0  0  0  0  0
   43.1979    1.7134   12.0341 H   0  0  0  0  0  0  0  0  0  0  0  0
   47.8113    5.2239   12.3144 H   0  0  0  0  0  0  0  0  0  0  0  0
   45.4868    6.7293   13.6406 H   0  0  0  0  0  0  0  0  0  0  0  0
   45.7161    4.1991   14.3389 H   0  0  0  0  0  0  0  0  0  0  0  0
   45.7944    5.8903   10.7157 H   0  0  0  0  0  0  0  0  0  0  0  0
   47.4860    5.9800   15.1179 H   0  0  0  0  0  0  0  0  0  0  0  0
   48.3695    6.7931   14.0399 H   0  0  0  0  0  0  0  0  0  0  0  0
   43.9515    4.6186   12.8430 H   0  0  0  0  0  0  0  0  0  0  0  0
   47.4171    7.4551   11.6785 H   0  0  0  0  0  0  0  0  0  0  0  0
   44.5528    7.7682   11.4381 H   0  0  0  0  0  0  0  0  0  0  0  0
   48.2026    3.5475   13.9898 H   0  0  0  0  0  0  0  0  0  0  0  0
   43.0408    4.5681   10.5056 H   0  0  0  0  0  0  0  0  0  0  0  0
   44.5443    3.7896    9.9529 H   0  0  0  0  0  0  0  0  0  0  0  0
   44.1055    2.2070   11.6463 H   0  0  0  0  0  0  0  0  0  0  0  0
   47.3769    5.0936   13.5209 H   0  0  0  0  0  0  0  0  0  0  0  0
   45.2589    4.1726   10.9431 H   0  0  0  0  0  0  0  0  0  0  0  0
  2  1  1  0
  3  1  1  0
  4  3  1  0
  5  2  1  0
  1  6  1  0
  7  4  1  0
  2  8  1  0
  5  9  1  0
  3 10  1  0
  7 11  1  0
 12 11  1  0
  5  7  1  0
 14 13  1  0
 15 13  1  0
 16 15  1  0
 17 14  1  0
 13 18  1  0
 19 16  1  0
 14 20  1  0
 17 21  1  0
 15 22  1  0
 19 23  1  0
 24 23  1  0
 17 19  1  0
 25 26  2  0
 25 27  1  0
 25 28  1  0
 25 29  2  0
  1 30  1  1
  2 31  1  6
  3 32  1  1
  5 33  1  1
  6 34  1  0
  6 35  1  0
  7 36  1  1
  8 37  1  0
  9 38  1  0
 10 39  1  0
 11 40  1  0
 11 41  1  0
 12 42  1  0
 13 43  1  1
 14 44  1  6
 15 45  1  6
 17 46  1  1
 18 47  1  0
 18 48  1  0
 19 49  1  6
 20 50  1  0
 21 51  1  0
 22 52  1  0
 23 53  1  0
 23 54  1  0
 24 55  1  0
 27 56  1  0
 28 57  1  0
M  END
> <Uni-Dock RESULT> 
ENERGY=   -4.354  LOWER_BOUND=    2.290  UPPER_BOUND=    4.314
INTER + INTRA:          -4.354
INTER:                  -4.354
INTRA:                   0.000
UNBOUND:                 0.000

$$$$

     RDKit          3D

 57 56  0  0  0  0  0  0  0  0999 V2000
   46.1757    5.4842   12.5812 C   0  0  2  0  0  0  0  0  0  0  0  0
   47.1623    6.6209   12.8946 C   0  0  2  0  0  0  0  0  0  0  0  0
   44.7639    6.0633   12.2695 C   0  0  2  0  0  0  0  0  0  0  0  0
   44.5538    7.2912   12.9438 O   0  0  0  0  0  0  0  0  0  0  0  0
   46.8128    7.8524   12.0613 C   0  0  1  0  0  0  0  0  0  0  0  0
   46.2296    4.4974   13.6928 N   0  0  0  0  0  0  0  0  0  0  0  0
   45.4215    8.3575   12.4988 C   0  0  1  0  0  0  0  0  0  0  0  0
   48.5035    6.2049   12.6138 O   0  0  0  0  0  0  0  0  0  0  0  0
   47.8041    8.8675   12.2326 O   0  0  0  0  0  0  0  0  0  0  0  0
   43.7568    5.1626   12.7039 O   0  0  0  0  0  0  0  0  0  0  0  0
   44.7566    9.1758   11.3785 C   0  0  0  0  0  0  0  0  0  0  0  0
   43.5519    9.7734   11.8528 O   0  0  0  0  0  0  0  0  0  0  0  0
   45.8402    5.5777   12.0464 C   0  0  2  0  0  0  0  0  0  0  0  0
   46.3953    6.2551   13.3089 C   0  0  2  0  0  0  0  0  0  0  0  0
   44.5851    6.3543   11.5749 C   0  0  1  0  0  0  0  0  0  0  0  0
   44.9591    7.6967   11.2765 O   0  0  0  0  0  0  0  0  0  0  0  0
   46.6353    7.7540   13.0637 C   0  0  1  0  0  0  0  0  0  0  0  0
   45.5864    4.1338   12.2379 N   0  0  0  0  0  0  0  0  0  0  0  0
   45.3854    8.4065   12.4560 C   0  0  1  0  0  0  0  0  0  0  0  0
   47.6268    5.6338   13.7244 O   0  0  0  0  0  0  0  0  0  0  0  0
   46.9841    8.3797   14.3006 O   0  0  0  0  0  0  0  0  0  0  0  0
   44.0505    5.7452   10.4079 O   0  0  0  0  0  0  0  0  0  0  0  0
   45.6529    9.8583   12.0428 C   0  0  0  0  0  0  0  0  0  0  0  0
   44.4622   10.4259   11.4896 O   0  0  0  0  0  0  0  0  0  0  0  0
   45.7532    7.1177   12.8350 S   0  0  0  0  0  0  0  0  0  0  0  0
   46.8841    7.6917   13.5185 O   0  0  0  0  0  0  0  0  0  0  0  0
   46.2651    5.8641   11.9704 O   0  0  0  0  0  0  0  0  0  0  0  0
   45.3518    8.1520   11.6789 O   0  0  0  0  0  0  0  0  0  0  0  0
   44.5478    6.6887   13.4973 O   0  0  0  0  0  0  0  0  0  0  0  0
   46.5114    4.9357   11.6941 H   0  0  0  0  0  0  0  0  0  0  0  0
   47.1362    6.8945   13.9578 H   0  0  0  0  0  0  0  0  0  0  0  0
   44.6329    6.2038   11.1886 H   0  0  0  0  0  0  0  0  0  0  0  0
   46.8215    7.5869   10.9972 H   0  0  0  0  0  0  0  0  0  0  0  0
   45.7471    3.6526   13.3666 H   0  0  0  0  0  0  0  0  0  0  0  0
   45.6015    4.8400   14.4216 H   0  0  0  0  0  0  0  0  0  0  0  0
   45.5328    9.0152   13.3670 H   0  0  0  0  0  0  0  0  0  0  0  0
   48.6114    5.3774   13.1307 H   0  0  0  0  0  0  0  0  0  0  0  0
   48.6589    8.3858   12.2456 H   0  0  0  0  0  0  0  0  0  0  0  0
   43.0133    5.7523   12.9126 H   0  0  0  0  0  0  0  0  0  0  0  0
   45.4226    9.9751   11.0339 H   0  0  0  0  0  0  0  0  0  0  0  0
   44.4914    8.5348   10.5283 H   0  0  0  0  0  0  0  0  0  0  0  0
   43.2264   10.3582   11.1486 H   0  0  0  0  0  0  0  0  0  0  0  0
   46.6026    5.6385   11.2555 H   0  0  0  0  0  0  0  0  0  0  0  0
   45.6973    6.1301   14.1481 H   0  0  0  0  0  0  0  0  0  0  0  0
   43.7970    6.3461   12.3357 H   0  0  0  0  0  0  0  0  0  0  0  0
   47.4932    7.8722   12.3892 H   0  0  0  0  0  0  0  0  0  0  0  0
   44.8432    4.0067   12.9223 H   0  0  0  0  0  0  0  0  0  0  0  0
   46.4126    3.7196   12.6812 H   0  0  0  0  0  0  0  0  0  0  0  0
   44.5543    8.4085   13.1727 H   0  0  0  0  0  0  0  0  0  0  0  0
   48.2283    5.6035   12.9565 H   0  0  0  0  0  0  0  0  0  0  0  0
   47.6183    7.7889   14.7488 H   0  0  0  0  0  0  0  0  0  0  0  0
   44.5226    4.8942   10.3121 H   0  0  0  0  0  0  0  0  0  0  0  0
   45.9556   10.4710   12.8948 H   0  0  0  0  0  0  0  0  0  0  0  0
   46.4267    9.9136   11.2701 H   0  0  0  0  0  0  0  0  0  0  0  0
   44.1065    9.7504   10.8770 H   0  0  0  0  0  0  0  0  0  0  0  0
   45.4831    5.2998   11.7970 H   0  0  0  0  0  0  0  0  0  0  0  0
   46.1528    8.6800   11.4731 H   0  0  0  0  0  0  0  0  0  0  0  0
  2  1  1  0
  3  1  1  0
  4  3  1  0
  5  2  1  0
  1  6  1  0
  7  4  1  0
  2  8  1  0
  5  9  1  0
  3 10  1  0
  7 11  1  0
 12 11  1  0
  5  7  1  0
 14 13  1  0
 15 13  1  0
 16 15  1  0
 17 14  1  0
 13 18  1  0
 19 16  1  0
 14 20  1  0
 17 21  1  0
 15 22  1  0
 19 23  1  0
 24 23  1  0
 17 19  1  0
 25 26  2  0
 25 27  1  0
 25 28  1  0
 25 29  2  0
  1 30  1  1
  2 31  1  6
  3 32  1  1
  5 33  1  1
  6 34  1  0
  6 35  1  0
  7 36  1  1
  8 37  1  0
  9 38  1  0
 10 39  1  0
 11 40  1  0
 11 41  1  0
 12 42  1  0
 13 43  1  1
 14 44  1  6
 15 45  1  6
 17 46  1  1
 18 47  1  0
 18 48  1  0
 19 49  1  6
 20 50  1  0
 21 51  1  0
 22 52  1  0
 23 53  1  0
 23 54  1  0
 24 55  1  0
 27 56  1  0
 28 57  1  0
M  END
> <Uni-Dock RESULT> 
ENERGY=   -4.168  LOWER_BOUND=    2.173  UPPER_BOUND=    3.481
INTER + INTRA:          -4.168
INTER:                  -4.168
INTRA:                   0.000
UNBOUND:                 0.000

$$$$

     RDKit          3D

 57 56  0  0  0  0  0  0  0  0999 V2000
   43.8298    4.4601   12.4736 C   0  0  2  0  0  0  0  0  0  0  0  0
   43.6043    5.8603   11.8800 C   0  0  2  0  0  0  0  0  0  0  0  0
   45.3427    4.2331   12.7657 C   0  0  2  0  0  0  0  0  0  0  0  0
   46.1535    4.9898   11.8844 O   0  0  0  0  0  0  0  0  0  0  0  0
   44.6046    6.8442   12.4836 C   0  0  1  0  0  0  0  0  0  0  0  0
   43.1972    3.4612   11.5712 N   0  0  0  0  0  0  0  0  0  0  0  0
   46.0251    6.4189   12.0550 C   0  0  1  0  0  0  0  0  0  0  0  0
   42.2670    6.3002   12.1416 O   0  0  0  0  0  0  0  0  0  0  0  0
   44.3159    8.1757   12.0520 O   0  0  0  0  0  0  0  0  0  0  0  0
   45.6784    2.8663   12.5833 O   0  0  0  0  0  0  0  0  0  0  0  0
   47.0792    6.9517   13.0407 C   0  0  0  0  0  0  0  0  0  0  0  0
   48.3916    6.6954   12.5455 O   0  0  0  0  0  0  0  0  0  0  0  0
   44.1870    4.4616   13.0026 C   0  0  2  0  0  0  0  0  0  0  0  0
   44.0298    5.0645   11.5980 C   0  0  2  0  0  0  0  0  0  0  0  0
   45.6832    4.5126   13.4022 C   0  0  1  0  0  0  0  0  0  0  0  0
   46.1117    5.8717   13.4105 O   0  0  0  0  0  0  0  0  0  0  0  0
   44.6531    6.4687   11.5335 C   0  0  1  0  0  0  0  0  0  0  0  0
   43.6076    3.1057   13.1099 N   0  0  0  0  0  0  0  0  0  0  0  0
   46.0840    6.4480   12.0900 C   0  0  1  0  0  0  0  0  0  0  0  0
   42.6404    5.1390   11.2249 O   0  0  0  0  0  0  0  0  0  0  0  0
   44.6421    6.9229   10.1783 O   0  0  0  0  0  0  0  0  0  0  0  0
   45.8557    3.9577   14.6987 O   0  0  0  0  0  0  0  0  0  0  0  0
   46.6666    7.8618   12.1971 C   0  0  0  0  0  0  0  0  0  0  0  0
   47.9992    7.7929   12.7124 O   0  0  0  0  0  0  0  0  0  0  0  0
   45.0585    5.5173   11.9409 S   0  0  0  0  0  0  0  0  0  0  0  0
   44.3893    6.4617   11.0830 O   0  0  0  0  0  0  0  0  0  0  0  0
   43.9896    4.9404   12.9924 O   0  0  0  0  0  0  0  0  0  0  0  0
   46.0105    6.3762   12.9019 O   0  0  0  0  0  0  0  0  0  0  0  0
   45.8057    4.3838   11.4587 O   0  0  0  0  0  0  0  0  0  0  0  0
   43.2923    4.3691   13.4240 H   0  0  0  0  0  0  0  0  0  0  0  0
   43.7249    5.8586   10.7885 H   0  0  0  0  0  0  0  0  0  0  0  0
   45.5795    4.4921   13.8060 H   0  0  0  0  0  0  0  0  0  0  0  0
   44.5033    6.8433   13.5756 H   0  0  0  0  0  0  0  0  0  0  0  0
   43.1588    2.5746   12.0863 H   0  0  0  0  0  0  0  0  0  0  0  0
   43.8757    3.2573   10.8356 H   0  0  0  0  0  0  0  0  0  0  0  0
   46.2479    6.8443   11.0711 H   0  0  0  0  0  0  0  0  0  0  0  0
   41.7032    5.5790   11.7869 H   0  0  0  0  0  0  0  0  0  0  0  0
   43.3371    8.2409   12.0725 H   0  0  0  0  0  0  0  0  0  0  0  0
   46.6122    2.9054   12.3175 H   0  0  0  0  0  0  0  0  0  0  0  0
   46.9704    8.0336   13.1783 H   0  0  0  0  0  0  0  0  0  0  0  0
   46.9938    6.4532   14.0146 H   0  0  0  0  0  0  0  0  0  0  0  0
   49.0149    7.1378   13.1452 H   0  0  0  0  0  0  0  0  0  0  0  0
   43.6177    5.0803   13.7121 H   0  0  0  0  0  0  0  0  0  0  0  0
   44.5081    4.4184   10.8490 H   0  0  0  0  0  0  0  0  0  0  0  0
   46.3040    3.9290   12.7138 H   0  0  0  0  0  0  0  0  0  0  0  0
   44.0293    7.1627   12.1115 H   0  0  0  0  0  0  0  0  0  0  0  0
   44.1299    2.4643   12.5160 H   0  0  0  0  0  0  0  0  0  0  0  0
   42.6691    3.1251   12.6981 H   0  0  0  0  0  0  0  0  0  0  0  0
   46.7485    5.8583   11.4457 H   0  0  0  0  0  0  0  0  0  0  0  0
   42.1554    5.5916   11.9407 H   0  0  0  0  0  0  0  0  0  0  0  0
   43.7686    6.6931    9.8089 H   0  0  0  0  0  0  0  0  0  0  0  0
   45.0026    3.5357   14.9230 H   0  0  0  0  0  0  0  0  0  0  0  0
   46.7053    8.3571   11.2244 H   0  0  0  0  0  0  0  0  0  0  0  0
   46.0838    8.4786   12.8891 H   0  0  0  0  0  0  0  0  0  0  0  0
   47.9597    7.1701   13.4665 H   0  0  0  0  0  0  0  0  0  0  0  0
   44.3475    4.0911   13.3249 H   0  0  0  0  0  0  0  0  0  0  0  0
   45.6348    7.2815   12.9463 H   0  0  0  0  0  0  0  0  0  0  0  0
  2  1  1  0
  3  1  1  0
  4  3  1  0
  5  2  1  0
  1  6  1  0
  7  4  1  0
  2  8  1  0
  5  9  1  0
  3 10  1  0
  7 11  1  0
 12 11  1  0
  5  7  1  0
 14 13  1  0
 15 13  1  0
 16 15  1  0
 17 14  1  0
 13 18  1  0
 19 16  1  0
 14 20  1  0
 17 21  1  0
 15 22  1  0
 19 23  1  0
 24 23  1  0
 17 19  1  0
 25 26  2  0
 25 27  1  0
 25 28  1  0
 25 29  2  0
  1 30  1  1
  2 31  1  6
  3 32  1  1
  5 33  1  1
  6 34  1  0
  6 35  1  0
  7 36  1  1
  8 37  1  0
  9 38  1  0
 10 39  1  0
 11 40  1  0
 11 41  1  0
 12 42  1  0
 13 43  1  1
 14 44  1  6
 15 45  1  6
 17 46  1  1
 18 47  1  0
 18 48  1  0
 19 49  1  6
 20 50  1  0
 21 51  1  0
 22 52  1  0
 23 53  1  0
 23 54  1  0
 24 55  1  0
 27 56  1  0
 28 57  1  0
M  END
> <Uni-Dock RESULT> 
ENERGY=   -4.140  LOWER_BOUND=    1.582  UPPER_BOUND=    3.162
INTER + INTRA:          -4.140
INTER:                  -4.140
INTRA:                   0.000
UNBOUND:                 0.000

$$$$
