
     RDKit          3D

 57 56  0  0  0  0  0  0  0  0999 V2000
   43.3230    4.7414   10.7252 C   0  0  2  0  0  0  0  0  0  0  0  0
   43.8341    6.1353   11.1379 C   0  0  2  0  0  0  0  0  0  0  0  0
   43.5345    3.7351   11.8852 C   0  0  2  0  0  0  0  0  0  0  0  0
   44.9041    3.6356   12.2634 O   0  0  0  0  0  0  0  0  0  0  0  0
   44.6539    6.1143   12.4359 C   0  0  1  0  0  0  0  0  0  0  0  0
   44.0140    4.2579    9.4927 N   0  0  0  0  0  0  0  0  0  0  0  0
   45.5799    4.8866   12.4570 C   0  0  1  0  0  0  0  0  0  0  0  0
   42.7246    7.0305   11.3300 O   0  0  0  0  0  0  0  0  0  0  0  0
   45.3587    7.3582   12.5324 O   0  0  0  0  0  0  0  0  0  0  0  0
   43.1220    2.4411   11.4612 O   0  0  0  0  0  0  0  0  0  0  0  0
   46.3697    4.7831   13.7713 C   0  0  0  0  0  0  0  0  0  0  0  0
   47.0709    5.9909   14.0529 O   0  0  0  0  0  0  0  0  0  0  0  0
   45.3791    4.5912   13.2110 C   0  0  2  0  0  0  0  0  0  0  0  0
   45.3104    6.0528   12.7535 C   0  0  2  0  0  0  0  0  0  0  0  0
   43.9642    3.9548   13.0955 C   0  0  1  0  0  0  0  0  0  0  0  0
   43.0724    4.6809   12.2554 O   0  0  0  0  0  0  0  0  0  0  0  0
   44.8169    6.1435   11.3036 C   0  0  1  0  0  0  0  0  0  0  0  0
   45.9588    4.5008   14.5752 N   0  0  0  0  0  0  0  0  0  0  0  0
   43.6378    5.1847   11.0367 C   0  0  1  0  0  0  0  0  0  0  0  0
   46.5977    6.6903   12.8560 O   0  0  0  0  0  0  0  0  0  0  0  0
   44.4112    7.5037   11.0653 O   0  0  0  0  0  0  0  0  0  0  0  0
   44.0597    2.6142   12.6425 O   0  0  0  0  0  0  0  0  0  0  0  0
   44.0167    4.0548   10.0618 C   0  0  0  0  0  0  0  0  0  0  0  0
   44.3536    4.5672    8.7756 O   0  0  0  0  0  0  0  0  0  0  0  0
   44.6533    4.6113   11.9235 S   0  0  0  0  0  0  0  0  0  0  0  0
   45.9336    3.9534   11.9818 O   0  0  0  0  0  0  0  0  0  0  0  0
   44.8050    5.9343   11.0289 O   0  0  0  0  0  0  0  0  0  0  0  0
   44.4033    5.2473   13.3750 O   0  0  0  0  0  0  0  0  0  0  0  0
   43.4383    3.9669   11.4947 O   0  0  0  0  0  0  0  0  0  0  0  0
   42.2552    4.7822   10.4790 H   0  0  0  0  0  0  0  0  0  0  0  0
   44.4253    6.5802   10.3270 H   0  0  0  0  0  0  0  0  0  0  0  0
   42.9297    4.0130   12.7565 H   0  0  0  0  0  0  0  0  0  0  0  0
   43.9721    6.0826   13.2954 H   0  0  0  0  0  0  0  0  0  0  0  0
   44.9686    3.9976    9.7483 H   0  0  0  0  0  0  0  0  0  0  0  0
   43.5838    3.3529    9.2725 H   0  0  0  0  0  0  0  0  0  0  0  0
   46.3125    4.9980   11.6469 H   0  0  0  0  0  0  0  0  0  0  0  0
   43.1314    7.8907   11.5547 H   0  0  0  0  0  0  0  0  0  0  0  0
   46.0965    7.2155   13.1664 H   0  0  0  0  0  0  0  0  0  0  0  0
   43.1911    1.8832   12.2530 H   0  0  0  0  0  0  0  0  0  0  0  0
   45.6953    4.5669   14.6073 H   0  0  0  0  0  0  0  0  0  0  0  0
   47.0898    3.9594   13.7111 H   0  0  0  0  0  0  0  0  0  0  0  0
   47.6421    5.8089   14.8229 H   0  0  0  0  0  0  0  0  0  0  0  0
   46.0787    4.0463   12.5646 H   0  0  0  0  0  0  0  0  0  0  0  0
   44.6440    6.6261   13.4112 H   0  0  0  0  0  0  0  0  0  0  0  0
   43.4961    3.9332   14.0870 H   0  0  0  0  0  0  0  0  0  0  0  0
   45.6396    5.9631   10.6025 H   0  0  0  0  0  0  0  0  0  0  0  0
   45.3354    4.9660   15.2370 H   0  0  0  0  0  0  0  0  0  0  0  0
   46.8087    5.0714   14.5921 H   0  0  0  0  0  0  0  0  0  0  0  0
   42.8358    5.7598   10.5570 H   0  0  0  0  0  0  0  0  0  0  0  0
   47.2416    6.1387   12.3749 H   0  0  0  0  0  0  0  0  0  0  0  0
   45.1376    8.0664   11.3975 H   0  0  0  0  0  0  0  0  0  0  0  0
   43.3075    2.1476   13.0438 H   0  0  0  0  0  0  0  0  0  0  0  0
   43.1900    3.3448    9.9514 H   0  0  0  0  0  0  0  0  0  0  0  0
   44.8822    3.4902   10.4200 H   0  0  0  0  0  0  0  0  0  0  0  0
   43.5606    5.0065    8.4193 H   0  0  0  0  0  0  0  0  0  0  0  0
   43.9029    6.2070   10.7613 H   0  0  0  0  0  0  0  0  0  0  0  0
   45.2829    5.4275   13.7669 H   0  0  0  0  0  0  0  0  0  0  0  0
  2  1  1  0
  3  1  1  0
  4  3  1  0
  5  2  1  0
  1  6  1  0
  7  4  1  0
  2  8  1  0
  5  9  1  0
  3 10  1  0
  7 11  1  0
 12 11  1  0
  5  7  1  0
 14 13  1  0
 15 13  1  0
 16 15  1  0
 17 14  1  0
 13 18  1  0
 19 16  1  0
 14 20  1  0
 17 21  1  0
 15 22  1  0
 19 23  1  0
 24 23  1  0
 17 19  1  0
 25 26  2  0
 25 27  1  0
 25 28  1  0
 25 29  2  0
  1 30  1  6
  2 31  1  1
  3 32  1  6
  5 33  1  6
  6 34  1  0
  6 35  1  0
  7 36  1  1
  8 37  1  0
  9 38  1  0
 10 39  1  0
 11 40  1  0
 11 41  1  0
 12 42  1  0
 13 43  1  1
 14 44  1  6
 15 45  1  6
 17 46  1  1
 18 47  1  0
 18 48  1  0
 19 49  1  6
 20 50  1  0
 21 51  1  0
 22 52  1  0
 23 53  1  0
 23 54  1  0
 24 55  1  0
 27 56  1  0
 28 57  1  0
M  END
> <Uni-Dock RESULT> 
ENERGY=   -6.248  LOWER_BOUND=    0.000  UPPER_BOUND=    0.000
INTER + INTRA:          -6.248
INTER:                  -6.248
INTRA:                   0.000
UNBOUND:                 0.000

$$$$

     RDKit          3D

 57 56  0  0  0  0  0  0  0  0999 V2000
   43.3235    4.7412   10.7253 C   0  0  2  0  0  0  0  0  0  0  0  0
   43.8359    6.1347   11.1376 C   0  0  2  0  0  0  0  0  0  0  0  0
   43.5341    3.7350   11.8857 C   0  0  2  0  0  0  0  0  0  0  0  0
   44.9036    3.6344   12.2639 O   0  0  0  0  0  0  0  0  0  0  0  0
   44.6557    6.1134   12.4356 C   0  0  1  0  0  0  0  0  0  0  0  0
   44.0141    4.2567    9.4930 N   0  0  0  0  0  0  0  0  0  0  0  0
   45.5806    4.8848   12.4571 C   0  0  1  0  0  0  0  0  0  0  0  0
   42.7271    7.0310   11.3294 O   0  0  0  0  0  0  0  0  0  0  0  0
   45.3616    7.3567   12.5317 O   0  0  0  0  0  0  0  0  0  0  0  0
   43.1205    2.4413   11.4621 O   0  0  0  0  0  0  0  0  0  0  0  0
   46.3703    4.7811   13.7714 C   0  0  0  0  0  0  0  0  0  0  0  0
   47.0725    5.9883   14.0527 O   0  0  0  0  0  0  0  0  0  0  0  0
   45.3794    4.5899   13.2112 C   0  0  2  0  0  0  0  0  0  0  0  0
   45.3121    6.0514   12.7532 C   0  0  2  0  0  0  0  0  0  0  0  0
   43.9640    3.9547   13.0959 C   0  0  1  0  0  0  0  0  0  0  0  0
   43.0729    4.6814   12.2556 O   0  0  0  0  0  0  0  0  0  0  0  0
   44.8187    6.1421   11.3033 C   0  0  1  0  0  0  0  0  0  0  0  0
   45.9591    4.4994   14.5754 N   0  0  0  0  0  0  0  0  0  0  0  0
   43.6387    5.1842   11.0367 C   0  0  1  0  0  0  0  0  0  0  0  0
   46.6000    6.6877   12.8555 O   0  0  0  0  0  0  0  0  0  0  0  0
   44.4142    7.5026   11.0645 O   0  0  0  0  0  0  0  0  0  0  0  0
   44.0583    2.6139   12.6432 O   0  0  0  0  0  0  0  0  0  0  0  0
   44.0166    4.0537   10.0621 C   0  0  0  0  0  0  0  0  0  0  0  0
   44.3539    4.5654    8.7758 O   0  0  0  0  0  0  0  0  0  0  0  0
   44.6537    4.6103   11.9237 S   0  0  0  0  0  0  0  0  0  0  0  0
   45.9334    3.9512   11.9822 O   0  0  0  0  0  0  0  0  0  0  0  0
   44.8066    5.9328   11.0287 O   0  0  0  0  0  0  0  0  0  0  0  0
   44.4042    5.2469   13.3750 O   0  0  0  0  0  0  0  0  0  0  0  0
   43.4381    3.9668   11.4950 O   0  0  0  0  0  0  0  0  0  0  0  0
   42.2557    4.7829   10.4791 H   0  0  0  0  0  0  0  0  0  0  0  0
   44.4275    6.5788   10.3266 H   0  0  0  0  0  0  0  0  0  0  0  0
   42.9296    4.0137   12.7568 H   0  0  0  0  0  0  0  0  0  0  0  0
   43.9738    6.0826   13.2951 H   0  0  0  0  0  0  0  0  0  0  0  0
   44.9685    3.9955    9.7486 H   0  0  0  0  0  0  0  0  0  0  0  0
   43.5831    3.3519    9.2730 H   0  0  0  0  0  0  0  0  0  0  0  0
   46.3133    4.9954   11.6470 H   0  0  0  0  0  0  0  0  0  0  0  0
   43.1348    7.8909   11.5539 H   0  0  0  0  0  0  0  0  0  0  0  0
   46.0992    7.2135   13.1657 H   0  0  0  0  0  0  0  0  0  0  0  0
   43.1890    1.8836   12.2540 H   0  0  0  0  0  0  0  0  0  0  0  0
   45.6957    4.5658   14.6075 H   0  0  0  0  0  0  0  0  0  0  0  0
   47.0896    3.9567   13.7115 H   0  0  0  0  0  0  0  0  0  0  0  0
   47.6436    5.8061   14.8227 H   0  0  0  0  0  0  0  0  0  0  0  0
   46.0786    4.0441   12.5649 H   0  0  0  0  0  0  0  0  0  0  0  0
   44.6462    6.6255   13.4107 H   0  0  0  0  0  0  0  0  0  0  0  0
   43.4959    3.9338   14.0874 H   0  0  0  0  0  0  0  0  0  0  0  0
   45.6412    5.9607   10.6023 H   0  0  0  0  0  0  0  0  0  0  0  0
   45.3361    4.9653   15.2371 H   0  0  0  0  0  0  0  0  0  0  0  0
   46.8095    5.0692   14.5921 H   0  0  0  0  0  0  0  0  0  0  0  0
   42.8372    5.7600   10.5568 H   0  0  0  0  0  0  0  0  0  0  0  0
   47.2434    6.1355   12.3745 H   0  0  0  0  0  0  0  0  0  0  0  0
   45.1411    8.0648   11.3966 H   0  0  0  0  0  0  0  0  0  0  0  0
   43.3057    2.1481   13.0447 H   0  0  0  0  0  0  0  0  0  0  0  0
   43.1892    3.3445    9.9519 H   0  0  0  0  0  0  0  0  0  0  0  0
   44.8816    3.4885   10.4205 H   0  0  0  0  0  0  0  0  0  0  0  0
   43.5614    5.0054    8.4193 H   0  0  0  0  0  0  0  0  0  0  0  0
   43.9047    6.2062   10.7610 H   0  0  0  0  0  0  0  0  0  0  0  0
   45.2840    5.4264   13.7668 H   0  0  0  0  0  0  0  0  0  0  0  0
  2  1  1  0
  3  1  1  0
  4  3  1  0
  5  2  1  0
  1  6  1  0
  7  4  1  0
  2  8  1  0
  5  9  1  0
  3 10  1  0
  7 11  1  0
 12 11  1  0
  5  7  1  0
 14 13  1  0
 15 13  1  0
 16 15  1  0
 17 14  1  0
 13 18  1  0
 19 16  1  0
 14 20  1  0
 17 21  1  0
 15 22  1  0
 19 23  1  0
 24 23  1  0
 17 19  1  0
 25 26  2  0
 25 27  1  0
 25 28  1  0
 25 29  2  0
  1 30  1  6
  2 31  1  1
  3 32  1  6
  5 33  1  6
  6 34  1  0
  6 35  1  0
  7 36  1  1
  8 37  1  0
  9 38  1  0
 10 39  1  0
 11 40  1  0
 11 41  1  0
 12 42  1  0
 13 43  1  1
 14 44  1  6
 15 45  1  6
 17 46  1  1
 18 47  1  0
 18 48  1  0
 19 49  1  6
 20 50  1  0
 21 51  1  0
 22 52  1  0
 23 53  1  0
 23 54  1  0
 24 55  1  0
 27 56  1  0
 28 57  1  0
M  END
> <Uni-Dock RESULT> 
ENERGY=   -6.245  LOWER_BOUND=    0.002  UPPER_BOUND=    0.002
INTER + INTRA:          -6.245
INTER:                  -6.245
INTRA:                   0.000
UNBOUND:                 0.000

$$$$

     RDKit          3D

 57 56  0  0  0  0  0  0  0  0999 V2000
   43.4203    6.0048   10.8696 C   0  0  2  0  0  0  0  0  0  0  0  0
   43.8562    4.5401   10.6722 C   0  0  2  0  0  0  0  0  0  0  0  0
   44.5574    6.8084   11.5511 C   0  0  2  0  0  0  0  0  0  0  0  0
   44.9199    6.2563   12.8130 O   0  0  0  0  0  0  0  0  0  0  0  0
   45.1453    4.1899   11.4291 C   0  0  1  0  0  0  0  0  0  0  0  0
   42.1714    6.0896   11.6840 N   0  0  0  0  0  0  0  0  0  0  0  0
   45.1321    4.8372   12.8242 C   0  0  1  0  0  0  0  0  0  0  0  0
   44.0776    4.2753    9.2757 O   0  0  0  0  0  0  0  0  0  0  0  0
   45.2601    2.7620   11.4673 O   0  0  0  0  0  0  0  0  0  0  0  0
   44.1113    8.1384   11.7882 O   0  0  0  0  0  0  0  0  0  0  0  0
   46.4361    4.5740   13.5937 C   0  0  0  0  0  0  0  0  0  0  0  0
   46.7353    3.1823   13.6491 O   0  0  0  0  0  0  0  0  0  0  0  0
   45.8820    5.2023   12.7998 C   0  0  2  0  0  0  0  0  0  0  0  0
   45.4550    3.9392   12.0430 C   0  0  2  0  0  0  0  0  0  0  0  0
   45.7676    6.4283   11.8490 C   0  0  1  0  0  0  0  0  0  0  0  0
   44.9514    6.1965   10.7052 O   0  0  0  0  0  0  0  0  0  0  0  0
   44.0123    4.0723   11.5384 C   0  0  1  0  0  0  0  0  0  0  0  0
   47.2381    5.0272   13.3788 N   0  0  0  0  0  0  0  0  0  0  0  0
   43.7376    5.4697   10.9445 C   0  0  1  0  0  0  0  0  0  0  0  0
   45.5577    2.7722   12.8806 O   0  0  0  0  0  0  0  0  0  0  0  0
   43.8058    3.0602   10.5360 O   0  0  0  0  0  0  0  0  0  0  0  0
   45.2864    7.5599   12.5557 O   0  0  0  0  0  0  0  0  0  0  0  0
   42.7362    6.2751   11.7925 C   0  0  0  0  0  0  0  0  0  0  0  0
   41.4575    5.6474   11.8249 O   0  0  0  0  0  0  0  0  0  0  0  0
   44.6024    5.5092   12.1264 S   0  0  0  0  0  0  0  0  0  0  0  0
   44.6346    5.4875   13.5665 O   0  0  0  0  0  0  0  0  0  0  0  0
   43.7335    4.2588   11.6213 O   0  0  0  0  0  0  0  0  0  0  0  0
   46.0690    5.0851   11.6332 O   0  0  0  0  0  0  0  0  0  0  0  0
   44.1727    6.6440   11.3499 O   0  0  0  0  0  0  0  0  0  0  0  0
   43.1856    6.4683    9.9038 H   0  0  0  0  0  0  0  0  0  0  0  0
   43.0487    3.8585   10.9695 H   0  0  0  0  0  0  0  0  0  0  0  0
   45.4402    6.8595   10.9028 H   0  0  0  0  0  0  0  0  0  0  0  0
   46.0107    4.5502   10.8584 H   0  0  0  0  0  0  0  0  0  0  0  0
   42.4121    5.8732   12.6534 H   0  0  0  0  0  0  0  0  0  0  0  0
   41.9371    7.0876   11.7264 H   0  0  0  0  0  0  0  0  0  0  0  0
   44.3173    4.3832   13.4031 H   0  0  0  0  0  0  0  0  0  0  0  0
   44.3157    3.3279    9.2339 H   0  0  0  0  0  0  0  0  0  0  0  0
   45.8836    2.5490   12.1970 H   0  0  0  0  0  0  0  0  0  0  0  0
   44.8908    8.6085   12.1263 H   0  0  0  0  0  0  0  0  0  0  0  0
   47.2743    5.0934   13.1159 H   0  0  0  0  0  0  0  0  0  0  0  0
   46.3520    4.9608   14.6155 H   0  0  0  0  0  0  0  0  0  0  0  0
   47.4957    3.0841   14.2528 H   0  0  0  0  0  0  0  0  0  0  0  0
   45.2176    5.3450   13.6615 H   0  0  0  0  0  0  0  0  0  0  0  0
   46.1308    3.7560   11.1975 H   0  0  0  0  0  0  0  0  0  0  0  0
   46.7631    6.6810   11.4644 H   0  0  0  0  0  0  0  0  0  0  0  0
   43.2995    3.8348   12.3362 H   0  0  0  0  0  0  0  0  0  0  0  0
   47.9155    4.9192   12.6222 H   0  0  0  0  0  0  0  0  0  0  0  0
   47.2582    4.1240   13.8605 H   0  0  0  0  0  0  0  0  0  0  0  0
   43.2778    5.3336    9.9575 H   0  0  0  0  0  0  0  0  0  0  0  0
   45.0590    2.9492   13.6993 H   0  0  0  0  0  0  0  0  0  0  0  0
   44.1421    2.2263   10.9181 H   0  0  0  0  0  0  0  0  0  0  0  0
   45.6856    8.3310   12.1191 H   0  0  0  0  0  0  0  0  0  0  0  0
   42.6196    7.2891   11.3952 H   0  0  0  0  0  0  0  0  0  0  0  0
   43.0742    6.3704   12.8282 H   0  0  0  0  0  0  0  0  0  0  0  0
   41.1180    5.6284   10.9121 H   0  0  0  0  0  0  0  0  0  0  0  0
   43.4805    4.4394   10.6922 H   0  0  0  0  0  0  0  0  0  0  0  0
   46.4557    4.5173   12.3317 H   0  0  0  0  0  0  0  0  0  0  0  0
  2  1  1  0
  3  1  1  0
  4  3  1  0
  5  2  1  0
  1  6  1  0
  7  4  1  0
  2  8  1  0
  5  9  1  0
  3 10  1  0
  7 11  1  0
 12 11  1  0
  5  7  1  0
 14 13  1  0
 15 13  1  0
 16 15  1  0
 17 14  1  0
 13 18  1  0
 19 16  1  0
 14 20  1  0
 17 21  1  0
 15 22  1  0
 19 23  1  0
 24 23  1  0
 17 19  1  0
 25 26  2  0
 25 27  1  0
 25 28  1  0
 25 29  2  0
  1 30  1  6
  2 31  1  1
  3 32  1  6
  5 33  1  6
  6 34  1  0
  6 35  1  0
  7 36  1  1
  8 37  1  0
  9 38  1  0
 10 39  1  0
 11 40  1  0
 11 41  1  0
 12 42  1  0
 13 43  1  1
 14 44  1  6
 15 45  1  6
 17 46  1  1
 18 47  1  0
 18 48  1  0
 19 49  1  6
 20 50  1  0
 21 51  1  0
 22 52  1  0
 23 53  1  0
 23 54  1  0
 24 55  1  0
 27 56  1  0
 28 57  1  0
M  END
> <Uni-Dock RESULT> 
ENERGY=   -5.687  LOWER_BOUND=    1.235  UPPER_BOUND=    3.032
INTER + INTRA:          -5.687
INTER:                  -5.687
INTRA:                   0.000
UNBOUND:                 0.000

$$$$

     RDKit          3D

 57 56  0  0  0  0  0  0  0  0999 V2000
   44.6145    5.3617   13.1095 C   0  0  2  0  0  0  0  0  0  0  0  0
   43.9648    3.9821   12.8882 C   0  0  2  0  0  0  0  0  0  0  0  0
   44.5499    6.1932   11.8027 C   0  0  2  0  0  0  0  0  0  0  0  0
   45.2042    5.5387   10.7200 O   0  0  0  0  0  0  0  0  0  0  0  0
   43.6849    3.6804   11.4090 C   0  0  1  0  0  0  0  0  0  0  0  0
   46.0311    5.2233   13.5613 N   0  0  0  0  0  0  0  0  0  0  0  0
   44.8609    4.1570   10.5401 C   0  0  1  0  0  0  0  0  0  0  0  0
   42.7167    3.9050   13.5992 O   0  0  0  0  0  0  0  0  0  0  0  0
   43.4218    2.2771   11.2874 O   0  0  0  0  0  0  0  0  0  0  0  0
   45.2156    7.4340   12.0059 O   0  0  0  0  0  0  0  0  0  0  0  0
   44.5947    3.9414    9.0419 C   0  0  0  0  0  0  0  0  0  0  0  0
   44.2352    2.5906    8.7668 O   0  0  0  0  0  0  0  0  0  0  0  0
   44.4303    4.5974    9.9772 C   0  0  2  0  0  0  0  0  0  0  0  0
   43.9226    3.3934   10.7792 C   0  0  2  0  0  0  0  0  0  0  0  0
   43.9632    5.9070   10.6749 C   0  0  1  0  0  0  0  0  0  0  0  0
   43.5618    5.7269   12.0294 O   0  0  0  0  0  0  0  0  0  0  0  0
   44.4581    3.4356   12.2163 C   0  0  1  0  0  0  0  0  0  0  0  0
   43.9992    4.4962    8.5598 N   0  0  0  0  0  0  0  0  0  0  0  0
   44.3909    4.8569   12.8132 C   0  0  1  0  0  0  0  0  0  0  0  0
   44.3193    2.1539   10.1625 O   0  0  0  0  0  0  0  0  0  0  0  0
   43.6635    2.5307   13.0045 O   0  0  0  0  0  0  0  0  0  0  0  0
   44.9796    6.8940   10.6070 O   0  0  0  0  0  0  0  0  0  0  0  0
   45.7900    5.4518   13.0565 C   0  0  0  0  0  0  0  0  0  0  0  0
   46.5167    4.6970   14.0222 O   0  0  0  0  0  0  0  0  0  0  0  0
   44.7615    4.8475   11.3958 S   0  0  0  0  0  0  0  0  0  0  0  0
   45.8404    4.6626   10.4592 O   0  0  0  0  0  0  0  0  0  0  0  0
   44.7245    3.5818   12.3807 O   0  0  0  0  0  0  0  0  0  0  0  0
   43.4024    4.6359   10.5701 O   0  0  0  0  0  0  0  0  0  0  0  0
   44.6109    6.0146   12.2269 O   0  0  0  0  0  0  0  0  0  0  0  0
   44.0935    5.9075   13.9053 H   0  0  0  0  0  0  0  0  0  0  0  0
   44.5915    3.1916   13.3210 H   0  0  0  0  0  0  0  0  0  0  0  0
   43.5102    6.4091   11.5300 H   0  0  0  0  0  0  0  0  0  0  0  0
   42.7630    4.1911   11.1025 H   0  0  0  0  0  0  0  0  0  0  0  0
   46.5894    4.9219   12.7601 H   0  0  0  0  0  0  0  0  0  0  0  0
   46.3641    6.1804   13.7219 H   0  0  0  0  0  0  0  0  0  0  0  0
   45.7430    3.5580   10.8017 H   0  0  0  0  0  0  0  0  0  0  0  0
   42.3896    2.9982   13.4356 H   0  0  0  0  0  0  0  0  0  0  0  0
   43.5579    2.0459   10.3416 H   0  0  0  0  0  0  0  0  0  0  0  0
   45.0600    7.9392   11.1914 H   0  0  0  0  0  0  0  0  0  0  0  0
   43.7856    4.5957    8.6986 H   0  0  0  0  0  0  0  0  0  0  0  0
   45.4891    4.1966    8.4626 H   0  0  0  0  0  0  0  0  0  0  0  0
   44.2072    2.5015    7.7955 H   0  0  0  0  0  0  0  0  0  0  0  0
   45.5269    4.5705    9.9469 H   0  0  0  0  0  0  0  0  0  0  0  0
   42.8249    3.3796   10.7901 H   0  0  0  0  0  0  0  0  0  0  0  0
   43.0861    6.3031   10.1493 H   0  0  0  0  0  0  0  0  0  0  0  0
   45.4773    3.0356   12.2617 H   0  0  0  0  0  0  0  0  0  0  0  0
   42.9802    4.5464    8.5137 H   0  0  0  0  0  0  0  0  0  0  0  0
   44.2158    3.5501    8.2339 H   0  0  0  0  0  0  0  0  0  0  0  0
   43.9017    4.7896   13.7932 H   0  0  0  0  0  0  0  0  0  0  0  0
   45.2848    2.1829   10.0314 H   0  0  0  0  0  0  0  0  0  0  0  0
   43.6171    1.6970   12.4973 H   0  0  0  0  0  0  0  0  0  0  0  0
   44.5152    7.7472   10.5789 H   0  0  0  0  0  0  0  0  0  0  0  0
   45.7154    6.4878   13.4044 H   0  0  0  0  0  0  0  0  0  0  0  0
   46.3864    5.4606   12.1399 H   0  0  0  0  0  0  0  0  0  0  0  0
   46.0271    4.7493   14.8626 H   0  0  0  0  0  0  0  0  0  0  0  0
   44.1993    3.8419   13.1658 H   0  0  0  0  0  0  0  0  0  0  0  0
   43.6077    4.0335    9.8253 H   0  0  0  0  0  0  0  0  0  0  0  0
  2  1  1  0
  3  1  1  0
  4  3  1  0
  5  2  1  0
  1  6  1  0
  7  4  1  0
  2  8  1  0
  5  9  1  0
  3 10  1  0
  7 11  1  0
 12 11  1  0
  5  7  1  0
 14 13  1  0
 15 13  1  0
 16 15  1  0
 17 14  1  0
 13 18  1  0
 19 16  1  0
 14 20  1  0
 17 21  1  0
 15 22  1  0
 19 23  1  0
 24 23  1  0
 17 19  1  0
 25 26  2  0
 25 27  1  0
 25 28  1  0
 25 29  2  0
  1 30  1  6
  2 31  1  1
  3 32  1  6
  5 33  1  6
  6 34  1  0
  6 35  1  0
  7 36  1  1
  8 37  1  0
  9 38  1  0
 10 39  1  0
 11 40  1  0
 11 41  1  0
 12 42  1  0
 13 43  1  1
 14 44  1  6
 15 45  1  6
 17 46  1  1
 18 47  1  0
 18 48  1  0
 19 49  1  6
 20 50  1  0
 21 51  1  0
 22 52  1  0
 23 53  1  0
 23 54  1  0
 24 55  1  0
 27 56  1  0
 28 57  1  0
M  END
> <Uni-Dock RESULT> 
ENERGY=   -5.639  LOWER_BOUND=    1.052  UPPER_BOUND=    3.971
INTER + INTRA:          -5.639
INTER:                  -5.639
INTRA:                   0.000
UNBOUND:                 0.000

$$$$

     RDKit          3D

 57 56  0  0  0  0  0  0  0  0999 V2000
   46.5777    6.3735   13.3720 C   0  0  2  0  0  0  0  0  0  0  0  0
   46.4631    4.8463   13.5420 C   0  0  2  0  0  0  0  0  0  0  0  0
   45.2888    6.9315   12.7160 C   0  0  2  0  0  0  0  0  0  0  0  0
   45.0362    6.3392   11.4455 O   0  0  0  0  0  0  0  0  0  0  0  0
   45.2682    4.2461   12.7876 C   0  0  1  0  0  0  0  0  0  0  0  0
   47.7710    6.7355   12.5502 N   0  0  0  0  0  0  0  0  0  0  0  0
   45.1281    4.9077   11.4063 C   0  0  1  0  0  0  0  0  0  0  0  0
   46.3189    4.5145   14.9343 O   0  0  0  0  0  0  0  0  0  0  0  0
   45.4567    2.8271   12.7205 O   0  0  0  0  0  0  0  0  0  0  0  0
   45.4414    8.3299   12.5033 O   0  0  0  0  0  0  0  0  0  0  0  0
   43.9001    4.3896   10.6412 C   0  0  0  0  0  0  0  0  0  0  0  0
   43.9006    2.9673   10.5590 O   0  0  0  0  0  0  0  0  0  0  0  0
   44.3184    5.1057   11.4439 C   0  0  2  0  0  0  0  0  0  0  0  0
   45.0111    3.9473   12.1709 C   0  0  2  0  0  0  0  0  0  0  0  0
   44.1826    6.3101   12.4192 C   0  0  1  0  0  0  0  0  0  0  0  0
   45.0427    6.2344   13.5518 O   0  0  0  0  0  0  0  0  0  0  0  0
   46.3991    4.3725   12.6675 C   0  0  1  0  0  0  0  0  0  0  0  0
   43.0230    4.6591   10.8715 N   0  0  0  0  0  0  0  0  0  0  0  0
   46.3796    5.7850   13.2884 C   0  0  1  0  0  0  0  0  0  0  0  0
   45.1472    2.8008   11.3100 O   0  0  0  0  0  0  0  0  0  0  0  0
   46.8262    3.4082   13.6469 O   0  0  0  0  0  0  0  0  0  0  0  0
   44.4059    7.5309   11.7327 O   0  0  0  0  0  0  0  0  0  0  0  0
   47.1786    6.7995   12.4499 C   0  0  0  0  0  0  0  0  0  0  0  0
   48.5605    6.4567   12.3948 O   0  0  0  0  0  0  0  0  0  0  0  0
   45.5122    5.6631   12.1140 S   0  0  0  0  0  0  0  0  0  0  0  0
   45.4685    5.6623   10.6740 O   0  0  0  0  0  0  0  0  0  0  0  0
   46.6312    4.6152   12.5864 O   0  0  0  0  0  0  0  0  0  0  0  0
   44.1740    4.9297   12.6091 O   0  0  0  0  0  0  0  0  0  0  0  0
   45.7019    6.8483   12.9107 O   0  0  0  0  0  0  0  0  0  0  0  0
   46.7207    6.8578   14.3454 H   0  0  0  0  0  0  0  0  0  0  0  0
   47.3926    4.3563   13.2246 H   0  0  0  0  0  0  0  0  0  0  0  0
   44.4228    6.7828   13.3717 H   0  0  0  0  0  0  0  0  0  0  0  0
   44.3529    4.4047   13.3722 H   0  0  0  0  0  0  0  0  0  0  0  0
   47.5701    6.4914   11.5783 H   0  0  0  0  0  0  0  0  0  0  0  0
   47.7890    7.7610   12.5269 H   0  0  0  0  0  0  0  0  0  0  0  0
   46.0135    4.6470   10.8120 H   0  0  0  0  0  0  0  0  0  0  0  0
   46.2865    3.5376   14.9581 H   0  0  0  0  0  0  0  0  0  0  0  0
   44.8837    2.5010   11.9912 H   0  0  0  0  0  0  0  0  0  0  0  0
   44.5764    8.6311   12.1810 H   0  0  0  0  0  0  0  0  0  0  0  0
   42.9768    4.7111   11.1360 H   0  0  0  0  0  0  0  0  0  0  0  0
   43.8887    4.8046    9.6272 H   0  0  0  0  0  0  0  0  0  0  0  0
   43.1711    2.7222    9.9591 H   0  0  0  0  0  0  0  0  0  0  0  0
   44.9276    5.4017   10.5804 H   0  0  0  0  0  0  0  0  0  0  0  0
   44.3991    3.6096   13.0175 H   0  0  0  0  0  0  0  0  0  0  0  0
   43.1609    6.3395   12.8164 H   0  0  0  0  0  0  0  0  0  0  0  0
   47.1365    4.3060   11.8596 H   0  0  0  0  0  0  0  0  0  0  0  0
   42.3926    4.3962   11.6308 H   0  0  0  0  0  0  0  0  0  0  0  0
   43.1883    3.7812   10.3713 H   0  0  0  0  0  0  0  0  0  0  0  0
   46.8694    5.7305   14.2688 H   0  0  0  0  0  0  0  0  0  0  0  0
   45.5877    3.0945   10.4914 H   0  0  0  0  0  0  0  0  0  0  0  0
   46.6690    2.5294   13.2500 H   0  0  0  0  0  0  0  0  0  0  0  0
   43.8582    8.1919   12.1883 H   0  0  0  0  0  0  0  0  0  0  0  0
   47.0833    7.8076   12.8673 H   0  0  0  0  0  0  0  0  0  0  0  0
   46.8160    6.8407   11.4189 H   0  0  0  0  0  0  0  0  0  0  0  0
   48.9070    6.4927   13.3044 H   0  0  0  0  0  0  0  0  0  0  0  0
   46.8513    4.8277   13.5171 H   0  0  0  0  0  0  0  0  0  0  0  0
   43.9077    4.3063   11.9019 H   0  0  0  0  0  0  0  0  0  0  0  0
  2  1  1  0
  3  1  1  0
  4  3  1  0
  5  2  1  0
  1  6  1  0
  7  4  1  0
  2  8  1  0
  5  9  1  0
  3 10  1  0
  7 11  1  0
 12 11  1  0
  5  7  1  0
 14 13  1  0
 15 13  1  0
 16 15  1  0
 17 14  1  0
 13 18  1  0
 19 16  1  0
 14 20  1  0
 17 21  1  0
 15 22  1  0
 19 23  1  0
 24 23  1  0
 17 19  1  0
 25 26  2  0
 25 27  1  0
 25 28  1  0
 25 29  2  0
  1 30  1  6
  2 31  1  1
  3 32  1  6
  5 33  1  6
  6 34  1  0
  6 35  1  0
  7 36  1  1
  8 37  1  0
  9 38  1  0
 10 39  1  0
 11 40  1  0
 11 41  1  0
 12 42  1  0
 13 43  1  1
 14 44  1  6
 15 45  1  6
 17 46  1  1
 18 47  1  0
 18 48  1  0
 19 49  1  6
 20 50  1  0
 21 51  1  0
 22 52  1  0
 23 53  1  0
 23 54  1  0
 24 55  1  0
 27 56  1  0
 28 57  1  0
M  END
> <Uni-Dock RESULT> 
ENERGY=   -4.961  LOWER_BOUND=    1.356  UPPER_BOUND=    3.988
INTER + INTRA:          -4.961
INTER:                  -4.961
INTRA:                   0.000
UNBOUND:                 0.000

$$$$

     RDKit          3D

 57 56  0  0  0  0  0  0  0  0999 V2000
   43.3845    3.9644   11.2526 C   0  0  2  0  0  0  0  0  0  0  0  0
   44.4033    4.4299   10.1944 C   0  0  2  0  0  0  0  0  0  0  0  0
   43.0669    5.1260   12.2289 C   0  0  2  0  0  0  0  0  0  0  0  0
   44.2355    5.6056   12.8870 O   0  0  0  0  0  0  0  0  0  0  0  0
   45.0404    5.7860   10.5299 C   0  0  1  0  0  0  0  0  0  0  0  0
   43.8960    2.7825   12.0088 N   0  0  0  0  0  0  0  0  0  0  0  0
   45.3591    5.8636   12.0325 C   0  0  1  0  0  0  0  0  0  0  0  0
   43.7631    4.5474    8.9116 O   0  0  0  0  0  0  0  0  0  0  0  0
   46.1943    5.9493    9.6961 O   0  0  0  0  0  0  0  0  0  0  0  0
   42.1802    4.6577   13.2382 O   0  0  0  0  0  0  0  0  0  0  0  0
   45.9332    7.2327   12.4297 C   0  0  0  0  0  0  0  0  0  0  0  0
   47.0550    7.5799   11.6231 O   0  0  0  0  0  0  0  0  0  0  0  0
   44.9978    6.5969   12.1994 C   0  0  2  0  0  0  0  0  0  0  0  0
   45.5848    6.1517   10.8549 C   0  0  2  0  0  0  0  0  0  0  0  0
   43.4592    6.3677   12.1839 C   0  0  1  0  0  0  0  0  0  0  0  0
   43.0204    5.4705   11.1686 O   0  0  0  0  0  0  0  0  0  0  0  0
   45.2831    4.6697   10.5968 C   0  0  1  0  0  0  0  0  0  0  0  0
   45.3839    8.0000   12.4953 N   0  0  0  0  0  0  0  0  0  0  0  0
   43.8329    4.3037   10.9763 C   0  0  1  0  0  0  0  0  0  0  0  0
   47.0095    6.3584   10.8160 O   0  0  0  0  0  0  0  0  0  0  0  0
   45.5066    4.4163    9.1977 O   0  0  0  0  0  0  0  0  0  0  0  0
   43.0142    5.9084   13.4498 O   0  0  0  0  0  0  0  0  0  0  0  0
   43.7712    3.3479   12.1817 C   0  0  0  0  0  0  0  0  0  0  0  0
   44.3857    2.0967   11.8869 O   0  0  0  0  0  0  0  0  0  0  0  0
   44.4446    5.2585   11.9040 S   0  0  0  0  0  0  0  0  0  0  0  0
   45.3208    5.4063   13.0380 O   0  0  0  0  0  0  0  0  0  0  0  0
   45.2044    4.3926   10.7876 O   0  0  0  0  0  0  0  0  0  0  0  0
   44.3799    6.6938   11.1902 O   0  0  0  0  0  0  0  0  0  0  0  0
   43.1062    4.7318   11.9868 O   0  0  0  0  0  0  0  0  0  0  0  0
   42.4544    3.6385   10.7718 H   0  0  0  0  0  0  0  0  0  0  0  0
   45.1845    3.6711   10.0574 H   0  0  0  0  0  0  0  0  0  0  0  0
   42.5734    5.9520   11.7034 H   0  0  0  0  0  0  0  0  0  0  0  0
   44.3477    6.5910   10.2530 H   0  0  0  0  0  0  0  0  0  0  0  0
   44.6306    3.1067   12.6410 H   0  0  0  0  0  0  0  0  0  0  0  0
   43.1421    2.5204   12.6536 H   0  0  0  0  0  0  0  0  0  0  0  0
   46.1277    5.1126   12.2573 H   0  0  0  0  0  0  0  0  0  0  0  0
   44.4766    4.8117    8.2976 H   0  0  0  0  0  0  0  0  0  0  0  0
   46.7548    6.6357   10.1220 H   0  0  0  0  0  0  0  0  0  0  0  0
   41.9497    5.4462   13.7559 H   0  0  0  0  0  0  0  0  0  0  0  0
   45.1712    8.0129   12.3238 H   0  0  0  0  0  0  0  0  0  0  0  0
   46.2418    7.2181   13.4810 H   0  0  0  0  0  0  0  0  0  0  0  0
   47.4384    8.3888   12.0116 H   0  0  0  0  0  0  0  0  0  0  0  0
   45.4483    5.9994   13.0020 H   0  0  0  0  0  0  0  0  0  0  0  0
   45.1755    6.7633   10.0402 H   0  0  0  0  0  0  0  0  0  0  0  0
   42.9542    7.3205   11.9848 H   0  0  0  0  0  0  0  0  0  0  0  0
   46.0023    4.0309   11.1219 H   0  0  0  0  0  0  0  0  0  0  0  0
   44.9677    8.6179   11.7967 H   0  0  0  0  0  0  0  0  0  0  0  0
   46.3913    8.0875   12.3350 H   0  0  0  0  0  0  0  0  0  0  0  0
   43.3852    3.7710   10.1277 H   0  0  0  0  0  0  0  0  0  0  0  0
   47.3946    5.9213   11.5976 H   0  0  0  0  0  0  0  0  0  0  0  0
   46.3758    4.8088    8.9856 H   0  0  0  0  0  0  0  0  0  0  0  0
   42.1084    6.2464   13.5478 H   0  0  0  0  0  0  0  0  0  0  0  0
   42.7329    3.1674   12.4803 H   0  0  0  0  0  0  0  0  0  0  0  0
   44.2896    3.7643   13.0500 H   0  0  0  0  0  0  0  0  0  0  0  0
   43.8800    1.6862   11.1627 H   0  0  0  0  0  0  0  0  0  0  0  0
   44.5233    4.0605   10.1666 H   0  0  0  0  0  0  0  0  0  0  0  0
   45.2223    7.1531   11.3882 H   0  0  0  0  0  0  0  0  0  0  0  0
  2  1  1  0
  3  1  1  0
  4  3  1  0
  5  2  1  0
  1  6  1  0
  7  4  1  0
  2  8  1  0
  5  9  1  0
  3 10  1  0
  7 11  1  0
 12 11  1  0
  5  7  1  0
 14 13  1  0
 15 13  1  0
 16 15  1  0
 17 14  1  0
 13 18  1  0
 19 16  1  0
 14 20  1  0
 17 21  1  0
 15 22  1  0
 19 23  1  0
 24 23  1  0
 17 19  1  0
 25 26  2  0
 25 27  1  0
 25 28  1  0
 25 29  2  0
  1 30  1  6
  2 31  1  1
  3 32  1  6
  5 33  1  6
  6 34  1  0
  6 35  1  0
  7 36  1  1
  8 37  1  0
  9 38  1  0
 10 39  1  0
 11 40  1  0
 11 41  1  0
 12 42  1  0
 13 43  1  1
 14 44  1  6
 15 45  1  6
 17 46  1  1
 18 47  1  0
 18 48  1  0
 19 49  1  6
 20 50  1  0
 21 51  1  0
 22 52  1  0
 23 53  1  0
 23 54  1  0
 24 55  1  0
 27 56  1  0
 28 57  1  0
M  END
> <Uni-Dock RESULT> 
ENERGY=   -4.756  LOWER_BOUND=    1.463  UPPER_BOUND=    2.488
INTER + INTRA:          -4.756
INTER:                  -4.756
INTRA:                   0.000
UNBOUND:                 0.000

$$$$

     RDKit          3D

 57 56  0  0  0  0  0  0  0  0999 V2000
   45.2553    2.9186   10.2139 C   0  0  2  0  0  0  0  0  0  0  0  0
   44.5670    2.9218   11.5925 C   0  0  2  0  0  0  0  0  0  0  0  0
   45.4976    4.3744    9.7396 C   0  0  2  0  0  0  0  0  0  0  0  0
   44.2853    5.1170    9.6530 O   0  0  0  0  0  0  0  0  0  0  0  0
   44.0546    4.3092   12.0047 C   0  0  1  0  0  0  0  0  0  0  0  0
   44.4384    2.1788    9.2061 N   0  0  0  0  0  0  0  0  0  0  0  0
   43.4232    5.0205   10.7961 C   0  0  1  0  0  0  0  0  0  0  0  0
   45.4859    2.4713   12.6035 O   0  0  0  0  0  0  0  0  0  0  0  0
   43.1463    4.1364   13.0995 O   0  0  0  0  0  0  0  0  0  0  0  0
   46.0688    4.3516    8.4368 O   0  0  0  0  0  0  0  0  0  0  0  0
   42.9597    6.4441   11.1431 C   0  0  0  0  0  0  0  0  0  0  0  0
   42.1005    6.4487   12.2795 O   0  0  0  0  0  0  0  0  0  0  0  0
   43.8313    5.7463   10.8508 C   0  0  2  0  0  0  0  0  0  0  0  0
   43.5044    4.7918   12.0052 C   0  0  2  0  0  0  0  0  0  0  0  0
   45.2913    5.4916   10.3778 C   0  0  1  0  0  0  0  0  0  0  0  0
   45.8232    4.2392   10.7983 O   0  0  0  0  0  0  0  0  0  0  0  0
   43.6590    3.3316   11.5605 C   0  0  1  0  0  0  0  0  0  0  0  0
   43.5765    7.1530   11.2522 N   0  0  0  0  0  0  0  0  0  0  0  0
   44.9279    3.1216   10.7080 C   0  0  1  0  0  0  0  0  0  0  0  0
   42.1636    5.0002   12.4877 O   0  0  0  0  0  0  0  0  0  0  0  0
   43.7206    2.5186   12.7466 O   0  0  0  0  0  0  0  0  0  0  0  0
   45.3799    5.5965    8.9661 O   0  0  0  0  0  0  0  0  0  0  0  0
   44.5946    2.7609    9.2487 C   0  0  0  0  0  0  0  0  0  0  0  0
   43.9023    1.5185    9.1639 O   0  0  0  0  0  0  0  0  0  0  0  0
   44.2561    4.3939   10.4319 S   0  0  0  0  0  0  0  0  0  0  0  0
   43.1770    5.0283    9.7187 O   0  0  0  0  0  0  0  0  0  0  0  0
   43.6564    3.1586   11.2614 O   0  0  0  0  0  0  0  0  0  0  0  0
   44.6651    5.3930   11.6186 O   0  0  0  0  0  0  0  0  0  0  0  0
   45.4617    3.9162    9.8046 O   0  0  0  0  0  0  0  0  0  0  0  0
   46.2181    2.3963   10.2674 H   0  0  0  0  0  0  0  0  0  0  0  0
   43.7432    2.1966   11.6091 H   0  0  0  0  0  0  0  0  0  0  0  0
   46.1994    4.8891   10.4064 H   0  0  0  0  0  0  0  0  0  0  0  0
   44.8909    4.9043   12.3933 H   0  0  0  0  0  0  0  0  0  0  0  0
   43.6306    2.7582    8.9687 H   0  0  0  0  0  0  0  0  0  0  0  0
   44.9892    2.1928    8.3406 H   0  0  0  0  0  0  0  0  0  0  0  0
   42.5322    4.4545   10.4945 H   0  0  0  0  0  0  0  0  0  0  0  0
   44.9674    2.4712   13.4325 H   0  0  0  0  0  0  0  0  0  0  0  0
   42.6002    4.9527   13.1439 H   0  0  0  0  0  0  0  0  0  0  0  0
   46.2799    5.2785    8.2385 H   0  0  0  0  0  0  0  0  0  0  0  0
   43.8217    7.0869   11.3536 H   0  0  0  0  0  0  0  0  0  0  0  0
   42.4262    6.8817   10.2919 H   0  0  0  0  0  0  0  0  0  0  0  0
   41.7498    7.3557   12.3605 H   0  0  0  0  0  0  0  0  0  0  0  0
   43.1395    5.5542   10.0208 H   0  0  0  0  0  0  0  0  0  0  0  0
   44.1610    4.9926   12.8619 H   0  0  0  0  0  0  0  0  0  0  0  0
   45.9483    6.2584   10.8054 H   0  0  0  0  0  0  0  0  0  0  0  0
   42.7639    2.9924   11.0270 H   0  0  0  0  0  0  0  0  0  0  0  0
   44.2147    7.4082   12.0076 H   0  0  0  0  0  0  0  0  0  0  0  0
   42.6502    7.1913   11.6867 H   0  0  0  0  0  0  0  0  0  0  0  0
   45.4791    2.2696   11.1258 H   0  0  0  0  0  0  0  0  0  0  0  0
   41.5607    4.9431   11.7239 H   0  0  0  0  0  0  0  0  0  0  0  0
   42.9793    2.8079   13.3135 H   0  0  0  0  0  0  0  0  0  0  0  0
   46.2777    5.9205    8.7831 H   0  0  0  0  0  0  0  0  0  0  0  0
   45.5078    2.6958    8.6474 H   0  0  0  0  0  0  0  0  0  0  0  0
   43.9555    3.5177    8.7852 H   0  0  0  0  0  0  0  0  0  0  0  0
   44.4980    0.8281    9.5065 H   0  0  0  0  0  0  0  0  0  0  0  0
   44.4089    2.5782   11.4996 H   0  0  0  0  0  0  0  0  0  0  0  0
   43.8675    5.9149   11.8447 H   0  0  0  0  0  0  0  0  0  0  0  0
  2  1  1  0
  3  1  1  0
  4  3  1  0
  5  2  1  0
  1  6  1  0
  7  4  1  0
  2  8  1  0
  5  9  1  0
  3 10  1  0
  7 11  1  0
 12 11  1  0
  5  7  1  0
 14 13  1  0
 15 13  1  0
 16 15  1  0
 17 14  1  0
 13 18  1  0
 19 16  1  0
 14 20  1  0
 17 21  1  0
 15 22  1  0
 19 23  1  0
 24 23  1  0
 17 19  1  0
 25 26  2  0
 25 27  1  0
 25 28  1  0
 25 29  2  0
  1 30  1  6
  2 31  1  1
  3 32  1  6
  5 33  1  6
  6 34  1  0
  6 35  1  0
  7 36  1  1
  8 37  1  0
  9 38  1  0
 10 39  1  0
 11 40  1  0
 11 41  1  0
 12 42  1  0
 13 43  1  1
 14 44  1  6
 15 45  1  6
 17 46  1  1
 18 47  1  0
 18 48  1  0
 19 49  1  6
 20 50  1  0
 21 51  1  0
 22 52  1  0
 23 53  1  0
 23 54  1  0
 24 55  1  0
 27 56  1  0
 28 57  1  0
M  END
> <Uni-Dock RESULT> 
ENERGY=   -4.685  LOWER_BOUND=    1.862  UPPER_BOUND=    3.557
INTER + INTRA:          -4.685
INTER:                  -4.685
INTRA:                   0.000
UNBOUND:                 0.000

$$$$

     RDKit          3D

 57 56  0  0  0  0  0  0  0  0999 V2000
   49.3595    3.9194   16.8986 C   0  0  2  0  0  0  0  0  0  0  0  0
   50.5364    4.4564   17.7359 C   0  0  2  0  0  0  0  0  0  0  0  0
   48.0154    4.3861   17.5140 C   0  0  2  0  0  0  0  0  0  0  0  0
   47.8649    3.9505   18.8617 O   0  0  0  0  0  0  0  0  0  0  0  0
   50.0941    5.0549   19.0789 C   0  0  1  0  0  0  0  0  0  0  0  0
   49.3958    2.4289   16.8130 N   0  0  0  0  0  0  0  0  0  0  0  0
   48.9976    4.1818   19.7118 C   0  0  1  0  0  0  0  0  0  0  0  0
   51.2357    5.4790   17.0048 O   0  0  0  0  0  0  0  0  0  0  0  0
   51.2571    5.1924   19.9047 O   0  0  0  0  0  0  0  0  0  0  0  0
   46.9414    3.8236   16.7696 O   0  0  0  0  0  0  0  0  0  0  0  0
   48.4710    4.7806   21.0256 C   0  0  0  0  0  0  0  0  0  0  0  0
   49.5331    5.0538   21.9349 O   0  0  0  0  0  0  0  0  0  0  0  0
   48.4382    4.7798   19.8718 C   0  0  2  0  0  0  0  0  0  0  0  0
   49.9597    4.9491   19.7905 C   0  0  2  0  0  0  0  0  0  0  0  0
   47.8064    5.1965   18.5127 C   0  0  1  0  0  0  0  0  0  0  0  0
   48.7347    5.2354   17.4333 O   0  0  0  0  0  0  0  0  0  0  0  0
   50.5406    4.0874   18.6618 C   0  0  1  0  0  0  0  0  0  0  0  0
   47.8936    5.5298   21.0320 N   0  0  0  0  0  0  0  0  0  0  0  0
   49.6773    4.1546   17.3847 C   0  0  1  0  0  0  0  0  0  0  0  0
   50.5899    4.5878   21.0340 O   0  0  0  0  0  0  0  0  0  0  0  0
   51.8691    4.5678   18.3859 O   0  0  0  0  0  0  0  0  0  0  0  0
   46.7287    4.3354   18.1828 O   0  0  0  0  0  0  0  0  0  0  0  0
   49.0009    2.8080   17.0688 C   0  0  0  0  0  0  0  0  0  0  0  0
   49.9627    1.7938   16.7921 O   0  0  0  0  0  0  0  0  0  0  0  0
   48.8813    4.1412   18.6146 S   0  0  0  0  0  0  0  0  0  0  0  0
   48.3219    3.3094   19.6493 O   0  0  0  0  0  0  0  0  0  0  0  0
   50.4447    3.8056   18.4863 O   0  0  0  0  0  0  0  0  0  0  0  0
   48.9330    5.6308   19.2081 O   0  0  0  0  0  0  0  0  0  0  0  0
   48.3670    4.2055   17.2704 O   0  0  0  0  0  0  0  0  0  0  0  0
   49.4251    4.2849   15.8668 H   0  0  0  0  0  0  0  0  0  0  0  0
   51.2780    3.6646   17.9033 H   0  0  0  0  0  0  0  0  0  0  0  0
   47.9237    5.4776   17.4659 H   0  0  0  0  0  0  0  0  0  0  0  0
   49.7142    6.0716   18.9157 H   0  0  0  0  0  0  0  0  0  0  0  0
   49.1160    2.0542   17.7217 H   0  0  0  0  0  0  0  0  0  0  0  0
   48.6087    2.1682   16.2086 H   0  0  0  0  0  0  0  0  0  0  0  0
   49.4368    3.2052   19.9542 H   0  0  0  0  0  0  0  0  0  0  0  0
   51.9781    5.7400   17.5851 H   0  0  0  0  0  0  0  0  0  0  0  0
   50.9373    5.2672   20.8314 H   0  0  0  0  0  0  0  0  0  0  0  0
   46.1396    4.2243   17.1430 H   0  0  0  0  0  0  0  0  0  0  0  0
   47.9283    5.7124   20.8313 H   0  0  0  0  0  0  0  0  0  0  0  0
   47.7679    4.0855   21.4981 H   0  0  0  0  0  0  0  0  0  0  0  0
   49.1179    5.3079   22.7807 H   0  0  0  0  0  0  0  0  0  0  0  0
   48.2056    3.7268   20.0754 H   0  0  0  0  0  0  0  0  0  0  0  0
   50.2165    6.0036   19.6250 H   0  0  0  0  0  0  0  0  0  0  0  0
   47.4003    6.2115   18.5994 H   0  0  0  0  0  0  0  0  0  0  0  0
   50.6740    3.0518   18.9947 H   0  0  0  0  0  0  0  0  0  0  0  0
   48.0508    6.5289   20.8904 H   0  0  0  0  0  0  0  0  0  0  0  0
   48.4672    5.3019   21.8488 H   0  0  0  0  0  0  0  0  0  0  0  0
   50.3399    4.3810   16.5398 H   0  0  0  0  0  0  0  0  0  0  0  0
   50.2881    3.6915   21.2707 H   0  0  0  0  0  0  0  0  0  0  0  0
   52.3141    4.6494   19.2518 H   0  0  0  0  0  0  0  0  0  0  0  0
   46.1059    4.8788   17.6716 H   0  0  0  0  0  0  0  0  0  0  0  0
   48.3327    2.9030   16.2061 H   0  0  0  0  0  0  0  0  0  0  0  0
   48.3959    2.4568   17.9094 H   0  0  0  0  0  0  0  0  0  0  0  0
   50.4548    2.0669   15.9971 H   0  0  0  0  0  0  0  0  0  0  0  0
   50.7434    4.1482   17.6184 H   0  0  0  0  0  0  0  0  0  0  0  0
   49.0094    5.5514   20.1815 H   0  0  0  0  0  0  0  0  0  0  0  0
  2  1  1  0
  3  1  1  0
  4  3  1  0
  5  2  1  0
  1  6  1  0
  7  4  1  0
  2  8  1  0
  5  9  1  0
  3 10  1  0
  7 11  1  0
 12 11  1  0
  5  7  1  0
 14 13  1  0
 15 13  1  0
 16 15  1  0
 17 14  1  0
 13 18  1  0
 19 16  1  0
 14 20  1  0
 17 21  1  0
 15 22  1  0
 19 23  1  0
 24 23  1  0
 17 19  1  0
 25 26  2  0
 25 27  1  0
 25 28  1  0
 25 29  2  0
  1 30  1  6
  2 31  1  1
  3 32  1  6
  5 33  1  6
  6 34  1  0
  6 35  1  0
  7 36  1  1
  8 37  1  0
  9 38  1  0
 10 39  1  0
 11 40  1  0
 11 41  1  0
 12 42  1  0
 13 43  1  1
 14 44  1  6
 15 45  1  6
 17 46  1  1
 18 47  1  0
 18 48  1  0
 19 49  1  6
 20 50  1  0
 21 51  1  0
 22 52  1  0
 23 53  1  0
 23 54  1  0
 24 55  1  0
 27 56  1  0
 28 57  1  0
M  END
> <Uni-Dock RESULT> 
ENERGY=   -4.120  LOWER_BOUND=    6.507  UPPER_BOUND=    8.452
INTER + INTRA:          -4.120
INTER:                  -4.120
INTRA:                   0.000
UNBOUND:                 0.000

$$$$

     RDKit          3D

 57 56  0  0  0  0  0  0  0  0999 V2000
   48.9613    6.7762   13.2655 C   0  0  2  0  0  0  0  0  0  0  0  0
   49.2275    8.0388   12.4232 C   0  0  2  0  0  0  0  0  0  0  0  0
   47.4639    6.3852   13.1751 C   0  0  2  0  0  0  0  0  0  0  0  0
   46.6100    7.4330   13.6240 O   0  0  0  0  0  0  0  0  0  0  0  0
   47.9394    8.7313   11.9558 C   0  0  1  0  0  0  0  0  0  0  0  0
   49.3521    6.9881   14.6912 N   0  0  0  0  0  0  0  0  0  0  0  0
   46.8984    8.7324   13.0879 C   0  0  1  0  0  0  0  0  0  0  0  0
   49.9961    7.6996   11.2555 O   0  0  0  0  0  0  0  0  0  0  0  0
   48.2853   10.0458   11.5019 O   0  0  0  0  0  0  0  0  0  0  0  0
   47.2239    5.2611   14.0134 O   0  0  0  0  0  0  0  0  0  0  0  0
   45.5643    9.3522   12.6432 C   0  0  0  0  0  0  0  0  0  0  0  0
   45.7538   10.6492   12.0852 O   0  0  0  0  0  0  0  0  0  0  0  0
   46.2503    8.4242   12.6623 C   0  0  2  0  0  0  0  0  0  0  0  0
   47.4210    9.2307   12.0881 C   0  0  2  0  0  0  0  0  0  0  0  0
   46.5210    6.9080   12.4433 C   0  0  1  0  0  0  0  0  0  0  0  0
   47.8831    6.6002   12.1635 O   0  0  0  0  0  0  0  0  0  0  0  0
   48.7371    8.8343   12.7697 C   0  0  1  0  0  0  0  0  0  0  0  0
   44.9656    8.8861   12.0782 N   0  0  0  0  0  0  0  0  0  0  0  0
   48.8541    7.3063   12.9491 C   0  0  1  0  0  0  0  0  0  0  0  0
   47.2087   10.6453   12.2552 O   0  0  0  0  0  0  0  0  0  0  0  0
   49.8161    9.3196   11.9499 O   0  0  0  0  0  0  0  0  0  0  0  0
   46.0850    6.1598   13.5666 O   0  0  0  0  0  0  0  0  0  0  0  0
   48.8156    6.8904   14.4311 C   0  0  0  0  0  0  0  0  0  0  0  0
   49.9279    7.4168   15.1493 O   0  0  0  0  0  0  0  0  0  0  0  0
   47.4945    7.8065   13.1674 S   0  0  0  0  0  0  0  0  0  0  0  0
   46.6054    8.4346   14.1111 O   0  0  0  0  0  0  0  0  0  0  0  0
   48.8311    8.6882   13.0683 O   0  0  0  0  0  0  0  0  0  0  0  0
   46.8579    8.0468   11.7146 O   0  0  0  0  0  0  0  0  0  0  0  0
   47.9187    6.4326   13.2558 O   0  0  0  0  0  0  0  0  0  0  0  0
   49.5707    5.9391   12.9044 H   0  0  0  0  0  0  0  0  0  0  0  0
   49.8526    8.7461   12.9833 H   0  0  0  0  0  0  0  0  0  0  0  0
   47.1965    6.1043   12.1496 H   0  0  0  0  0  0  0  0  0  0  0  0
   47.5396    8.2022   11.0813 H   0  0  0  0  0  0  0  0  0  0  0  0
   48.6578    7.6032   15.1202 H   0  0  0  0  0  0  0  0  0  0  0  0
   49.1809    6.0917   15.1602 H   0  0  0  0  0  0  0  0  0  0  0  0
   47.2862    9.3521   13.9070 H   0  0  0  0  0  0  0  0  0  0  0  0
   50.1481    8.5505   10.7986 H   0  0  0  0  0  0  0  0  0  0  0  0
   47.4559   10.5735   11.5088 H   0  0  0  0  0  0  0  0  0  0  0  0
   46.3013    5.0117   13.8416 H   0  0  0  0  0  0  0  0  0  0  0  0
   45.0776    8.7170   11.8947 H   0  0  0  0  0  0  0  0  0  0  0  0
   44.8839    9.4288   13.4987 H   0  0  0  0  0  0  0  0  0  0  0  0
   44.8644   11.0258   11.9460 H   0  0  0  0  0  0  0  0  0  0  0  0
   46.1676    8.6291   13.7372 H   0  0  0  0  0  0  0  0  0  0  0  0
   47.4983    9.0697   11.0049 H   0  0  0  0  0  0  0  0  0  0  0  0
   45.9477    6.5605   11.5755 H   0  0  0  0  0  0  0  0  0  0  0  0
   48.8491    9.3545   13.7277 H   0  0  0  0  0  0  0  0  0  0  0  0
   44.9641    8.6947   11.0750 H   0  0  0  0  0  0  0  0  0  0  0  0
   44.9456    9.9081   12.1356 H   0  0  0  0  0  0  0  0  0  0  0  0
   49.8309    6.9935   12.5588 H   0  0  0  0  0  0  0  0  0  0  0  0
   47.0203   10.8082   13.1977 H   0  0  0  0  0  0  0  0  0  0  0  0
   49.6037   10.2507   11.7438 H   0  0  0  0  0  0  0  0  0  0  0  0
   45.8138    5.2948   13.2163 H   0  0  0  0  0  0  0  0  0  0  0  0
   48.8197    5.7994   14.5276 H   0  0  0  0  0  0  0  0  0  0  0  0
   47.9112    7.2555   14.9260 H   0  0  0  0  0  0  0  0  0  0  0  0
   50.7347    7.0344   14.7597 H   0  0  0  0  0  0  0  0  0  0  0  0
   49.5213    8.1219   12.6649 H   0  0  0  0  0  0  0  0  0  0  0  0
   46.3327    8.8725   11.7624 H   0  0  0  0  0  0  0  0  0  0  0  0
  2  1  1  0
  3  1  1  0
  4  3  1  0
  5  2  1  0
  1  6  1  0
  7  4  1  0
  2  8  1  0
  5  9  1  0
  3 10  1  0
  7 11  1  0
 12 11  1  0
  5  7  1  0
 14 13  1  0
 15 13  1  0
 16 15  1  0
 17 14  1  0
 13 18  1  0
 19 16  1  0
 14 20  1  0
 17 21  1  0
 15 22  1  0
 19 23  1  0
 24 23  1  0
 17 19  1  0
 25 26  2  0
 25 27  1  0
 25 28  1  0
 25 29  2  0
  1 30  1  6
  2 31  1  1
  3 32  1  6
  5 33  1  6
  6 34  1  0
  6 35  1  0
  7 36  1  1
  8 37  1  0
  9 38  1  0
 10 39  1  0
 11 40  1  0
 11 41  1  0
 12 42  1  0
 13 43  1  1
 14 44  1  6
 15 45  1  6
 17 46  1  1
 18 47  1  0
 18 48  1  0
 19 49  1  6
 20 50  1  0
 21 51  1  0
 22 52  1  0
 23 53  1  0
 23 54  1  0
 24 55  1  0
 27 56  1  0
 28 57  1  0
M  END
> <Uni-Dock RESULT> 
ENERGY=   -4.062  LOWER_BOUND=    3.461  UPPER_BOUND=    5.398
INTER + INTRA:          -4.062
INTER:                  -4.062
INTRA:                   0.000
UNBOUND:                 0.000

$$$$
