
     RDKit          3D

 57 56  0  0  0  0  0  0  0  0999 V2000
   44.1186    5.5270   11.9958 C   0  0  2  0  0  0  0  0  0  0  0  0
   45.5065    6.1169   11.6596 C   0  0  2  0  0  0  0  0  0  0  0  0
   44.1952    4.6376   13.2727 C   0  0  2  0  0  0  0  0  0  0  0  0
   45.4368    3.9503   13.3207 O   0  0  0  0  0  0  0  0  0  0  0  0
   46.3526    6.2320   12.9283 C   0  0  1  0  0  0  0  0  0  0  0  0
   43.5645    4.7800   10.8339 N   0  0  0  0  0  0  0  0  0  0  0  0
   46.5653    4.8181   13.5116 C   0  0  1  0  0  0  0  0  0  0  0  0
   45.3960    7.3995   11.0269 O   0  0  0  0  0  0  0  0  0  0  0  0
   47.6131    6.8509   12.6585 O   0  0  0  0  0  0  0  0  0  0  0  0
   43.1266    3.7035   13.2775 O   0  0  0  0  0  0  0  0  0  0  0  0
   46.9654    4.8853   14.9930 C   0  0  0  0  0  0  0  0  0  0  0  0
   48.1854    5.5902   15.2017 O   0  0  0  0  0  0  0  0  0  0  0  0
   46.9306    5.9891   13.4839 C   0  0  2  0  0  0  0  0  0  0  0  0
   46.5949    4.6108   12.8868 C   0  0  2  0  0  0  0  0  0  0  0  0
   45.9854    7.0540   12.8570 C   0  0  1  0  0  0  0  0  0  0  0  0
   44.6199    6.6900   13.0014 O   0  0  0  0  0  0  0  0  0  0  0  0
   45.0965    4.3080   12.9970 C   0  0  1  0  0  0  0  0  0  0  0  0
   48.3693    6.2994   13.3133 N   0  0  0  0  0  0  0  0  0  0  0  0
   44.2906    5.4472   12.3667 C   0  0  1  0  0  0  0  0  0  0  0  0
   47.3132    3.5583   13.5508 O   0  0  0  0  0  0  0  0  0  0  0  0
   44.8321    3.0675   12.3349 O   0  0  0  0  0  0  0  0  0  0  0  0
   46.1459    8.2909   13.5317 O   0  0  0  0  0  0  0  0  0  0  0  0
   42.7805    5.2049   12.5206 C   0  0  0  0  0  0  0  0  0  0  0  0
   42.0272    6.1698   11.7805 O   0  0  0  0  0  0  0  0  0  0  0  0
   45.6656    5.6898   12.4436 S   0  0  0  0  0  0  0  0  0  0  0  0
   45.8370    7.1178   12.5270 O   0  0  0  0  0  0  0  0  0  0  0  0
   46.5449    5.0578   13.6273 O   0  0  0  0  0  0  0  0  0  0  0  0
   44.1816    5.3291   12.9348 O   0  0  0  0  0  0  0  0  0  0  0  0
   45.8964    4.9220   11.2467 O   0  0  0  0  0  0  0  0  0  0  0  0
   43.3951    6.3277   12.1907 H   0  0  0  0  0  0  0  0  0  0  0  0
   46.0410    5.4809   10.9422 H   0  0  0  0  0  0  0  0  0  0  0  0
   44.0830    5.2502   14.1749 H   0  0  0  0  0  0  0  0  0  0  0  0
   45.8389    6.8853   13.6445 H   0  0  0  0  0  0  0  0  0  0  0  0
   43.5809    5.3981   10.0177 H   0  0  0  0  0  0  0  0  0  0  0  0
   44.2095    4.0196   10.5967 H   0  0  0  0  0  0  0  0  0  0  0  0
   47.4034    4.3517   12.9776 H   0  0  0  0  0  0  0  0  0  0  0  0
   44.7713    7.9494   11.5333 H   0  0  0  0  0  0  0  0  0  0  0  0
   47.4577    7.4787   11.9223 H   0  0  0  0  0  0  0  0  0  0  0  0
   42.8642    3.6261   12.3377 H   0  0  0  0  0  0  0  0  0  0  0  0
   46.1817    5.3719   15.5836 H   0  0  0  0  0  0  0  0  0  0  0  0
   47.0806    3.8750   15.3996 H   0  0  0  0  0  0  0  0  0  0  0  0
   48.3325    6.1949   14.4456 H   0  0  0  0  0  0  0  0  0  0  0  0
   46.7490    5.9607   14.5665 H   0  0  0  0  0  0  0  0  0  0  0  0
   46.8945    4.5655   11.8312 H   0  0  0  0  0  0  0  0  0  0  0  0
   46.2166    7.2077   11.7956 H   0  0  0  0  0  0  0  0  0  0  0  0
   44.8253    4.1811   14.0526 H   0  0  0  0  0  0  0  0  0  0  0  0
   48.6933    6.0832   12.3740 H   0  0  0  0  0  0  0  0  0  0  0  0
   48.9305    5.7813   13.9843 H   0  0  0  0  0  0  0  0  0  0  0  0
   44.5132    5.5346   11.2949 H   0  0  0  0  0  0  0  0  0  0  0  0
   48.2549    3.8023   13.5275 H   0  0  0  0  0  0  0  0  0  0  0  0
   45.4815    2.4372   12.7093 H   0  0  0  0  0  0  0  0  0  0  0  0
   45.5010    8.8838   13.1133 H   0  0  0  0  0  0  0  0  0  0  0  0
   42.4882    4.2133   12.1618 H   0  0  0  0  0  0  0  0  0  0  0  0
   42.4796    5.3010   13.5688 H   0  0  0  0  0  0  0  0  0  0  0  0
   42.2519    6.0588   10.8420 H   0  0  0  0  0  0  0  0  0  0  0  0
   46.6070    5.7338   14.3336 H   0  0  0  0  0  0  0  0  0  0  0  0
   43.9821    4.4258   12.6120 H   0  0  0  0  0  0  0  0  0  0  0  0
  2  1  1  0
  3  1  1  0
  4  3  1  0
  5  2  1  0
  1  6  1  0
  7  4  1  0
  2  8  1  0
  5  9  1  0
  3 10  1  0
  7 11  1  0
 12 11  1  0
  5  7  1  0
 14 13  1  0
 15 13  1  0
 16 15  1  0
 17 14  1  0
 13 18  1  0
 19 16  1  0
 14 20  1  0
 17 21  1  0
 15 22  1  0
 19 23  1  0
 24 23  1  0
 17 19  1  0
 25 26  2  0
 25 27  1  0
 25 28  1  0
 25 29  2  0
  1 30  1  6
  2 31  1  1
  3 32  1  6
  5 33  1  6
  6 34  1  0
  6 35  1  0
  7 36  1  1
  8 37  1  0
  9 38  1  0
 10 39  1  0
 11 40  1  0
 11 41  1  0
 12 42  1  0
 13 43  1  6
 14 44  1  1
 15 45  1  1
 17 46  1  6
 18 47  1  0
 18 48  1  0
 19 49  1  1
 20 50  1  0
 21 51  1  0
 22 52  1  0
 23 53  1  0
 23 54  1  0
 24 55  1  0
 27 56  1  0
 28 57  1  0
M  END
> <Uni-Dock RESULT> 
ENERGY=   -5.394  LOWER_BOUND=    0.000  UPPER_BOUND=    0.000
INTER + INTRA:          -5.394
INTER:                  -5.394
INTRA:                   0.000
UNBOUND:                 0.000

$$$$

     RDKit          3D

 57 56  0  0  0  0  0  0  0  0999 V2000
   46.7320    7.5807   12.7497 C   0  0  2  0  0  0  0  0  0  0  0  0
   47.0014    6.0889   12.4509 C   0  0  2  0  0  0  0  0  0  0  0  0
   45.2011    7.8535   12.8448 C   0  0  2  0  0  0  0  0  0  0  0  0
   44.4970    7.0393   11.9187 O   0  0  0  0  0  0  0  0  0  0  0  0
   45.8469    5.2300   12.9689 C   0  0  1  0  0  0  0  0  0  0  0  0
   47.3870    8.4510   11.7355 N   0  0  0  0  0  0  0  0  0  0  0  0
   44.5550    5.6379   12.2278 C   0  0  1  0  0  0  0  0  0  0  0  0
   48.2373    5.6489   13.0309 O   0  0  0  0  0  0  0  0  0  0  0  0
   46.1083    3.8372   12.7779 O   0  0  0  0  0  0  0  0  0  0  0  0
   44.9356    9.2228   12.5822 O   0  0  0  0  0  0  0  0  0  0  0  0
   43.3073    5.1921   13.0048 C   0  0  0  0  0  0  0  0  0  0  0  0
   43.2405    3.7794   13.1742 O   0  0  0  0  0  0  0  0  0  0  0  0
   45.1325    4.7966   12.9091 C   0  0  2  0  0  0  0  0  0  0  0  0
   44.9371    5.7265   11.6983 C   0  0  2  0  0  0  0  0  0  0  0  0
   46.4394    5.2011   13.6498 C   0  0  1  0  0  0  0  0  0  0  0  0
   46.4427    6.5809   13.9874 O   0  0  0  0  0  0  0  0  0  0  0  0
   45.0323    7.2001   12.1090 C   0  0  1  0  0  0  0  0  0  0  0  0
   45.1039    3.3756   12.4902 N   0  0  0  0  0  0  0  0  0  0  0  0
   46.3501    7.4471   12.8485 C   0  0  1  0  0  0  0  0  0  0  0  0
   43.6600    5.5188   11.0734 O   0  0  0  0  0  0  0  0  0  0  0  0
   44.9479    8.0080   10.9311 O   0  0  0  0  0  0  0  0  0  0  0  0
   46.5360    4.4875   14.8715 O   0  0  0  0  0  0  0  0  0  0  0  0
   46.4460    8.9029   13.3325 C   0  0  0  0  0  0  0  0  0  0  0  0
   47.7445    9.1835   13.8631 O   0  0  0  0  0  0  0  0  0  0  0  0
   46.1002    6.1035   12.5522 S   0  0  0  0  0  0  0  0  0  0  0  0
   46.7743    5.3190   13.5551 O   0  0  0  0  0  0  0  0  0  0  0  0
   44.5978    5.5464   12.4749 O   0  0  0  0  0  0  0  0  0  0  0  0
   45.8542    7.5749   13.1422 O   0  0  0  0  0  0  0  0  0  0  0  0
   46.5889    6.2800   11.2085 O   0  0  0  0  0  0  0  0  0  0  0  0
   47.1821    7.8707   13.7069 H   0  0  0  0  0  0  0  0  0  0  0  0
   47.1057    5.9163   11.3720 H   0  0  0  0  0  0  0  0  0  0  0  0
   44.8369    7.6502   13.8586 H   0  0  0  0  0  0  0  0  0  0  0  0
   45.7482    5.3763   14.0517 H   0  0  0  0  0  0  0  0  0  0  0  0
   48.3775    8.1962   11.6856 H   0  0  0  0  0  0  0  0  0  0  0  0
   47.0114    8.2155   10.8114 H   0  0  0  0  0  0  0  0  0  0  0  0
   44.5338    5.1113   11.2648 H   0  0  0  0  0  0  0  0  0  0  0  0
   48.2766    5.9484   13.9571 H   0  0  0  0  0  0  0  0  0  0  0  0
   47.0799    3.7292   12.8466 H   0  0  0  0  0  0  0  0  0  0  0  0
   45.7101    9.5285   12.0677 H   0  0  0  0  0  0  0  0  0  0  0  0
   43.2814    5.6589   13.9954 H   0  0  0  0  0  0  0  0  0  0  0  0
   42.4010    5.5170   12.4830 H   0  0  0  0  0  0  0  0  0  0  0  0
   44.1449    3.4109   13.1013 H   0  0  0  0  0  0  0  0  0  0  0  0
   44.2889    4.9303   13.5991 H   0  0  0  0  0  0  0  0  0  0  0  0
   45.6912    5.5183   10.9275 H   0  0  0  0  0  0  0  0  0  0  0  0
   47.3230    4.9670   13.0431 H   0  0  0  0  0  0  0  0  0  0  0  0
   44.1774    7.4585   12.7464 H   0  0  0  0  0  0  0  0  0  0  0  0
   45.6653    3.2161   11.6576 H   0  0  0  0  0  0  0  0  0  0  0  0
   44.1501    3.0737   12.3091 H   0  0  0  0  0  0  0  0  0  0  0  0
   47.2078    7.2503   12.1915 H   0  0  0  0  0  0  0  0  0  0  0  0
   43.5926    4.5673   10.8808 H   0  0  0  0  0  0  0  0  0  0  0  0
   44.1506    7.6878   10.4610 H   0  0  0  0  0  0  0  0  0  0  0  0
   47.3470    4.8219   15.2872 H   0  0  0  0  0  0  0  0  0  0  0  0
   46.2604    9.6148   12.5225 H   0  0  0  0  0  0  0  0  0  0  0  0
   45.7260    9.0902   14.1356 H   0  0  0  0  0  0  0  0  0  0  0  0
   48.3860    9.0667   13.1430 H   0  0  0  0  0  0  0  0  0  0  0  0
   44.3851    5.1664   13.3524 H   0  0  0  0  0  0  0  0  0  0  0  0
   45.6662    8.1633   12.3818 H   0  0  0  0  0  0  0  0  0  0  0  0
  2  1  1  0
  3  1  1  0
  4  3  1  0
  5  2  1  0
  1  6  1  0
  7  4  1  0
  2  8  1  0
  5  9  1  0
  3 10  1  0
  7 11  1  0
 12 11  1  0
  5  7  1  0
 14 13  1  0
 15 13  1  0
 16 15  1  0
 17 14  1  0
 13 18  1  0
 19 16  1  0
 14 20  1  0
 17 21  1  0
 15 22  1  0
 19 23  1  0
 24 23  1  0
 17 19  1  0
 25 26  2  0
 25 27  1  0
 25 28  1  0
 25 29  2  0
  1 30  1  6
  2 31  1  1
  3 32  1  6
  5 33  1  6
  6 34  1  0
  6 35  1  0
  7 36  1  1
  8 37  1  0
  9 38  1  0
 10 39  1  0
 11 40  1  0
 11 41  1  0
 12 42  1  0
 13 43  1  6
 14 44  1  1
 15 45  1  1
 17 46  1  6
 18 47  1  0
 18 48  1  0
 19 49  1  1
 20 50  1  0
 21 51  1  0
 22 52  1  0
 23 53  1  0
 23 54  1  0
 24 55  1  0
 27 56  1  0
 28 57  1  0
M  END
> <Uni-Dock RESULT> 
ENERGY=   -4.891  LOWER_BOUND=    1.302  UPPER_BOUND=    3.726
INTER + INTRA:          -4.891
INTER:                  -4.891
INTRA:                   0.000
UNBOUND:                 0.000

$$$$

     RDKit          3D

 57 56  0  0  0  0  0  0  0  0999 V2000
   44.5499    4.7562   11.3939 C   0  0  2  0  0  0  0  0  0  0  0  0
   44.7085    4.7529   12.9308 C   0  0  2  0  0  0  0  0  0  0  0  0
   45.6596    5.6249   10.7296 C   0  0  2  0  0  0  0  0  0  0  0  0
   45.9641    6.7450   11.5476 O   0  0  0  0  0  0  0  0  0  0  0  0
   46.1690    4.9998   13.3113 C   0  0  1  0  0  0  0  0  0  0  0  0
   43.1865    5.2067   11.0026 N   0  0  0  0  0  0  0  0  0  0  0  0
   46.5871    6.3930   12.7929 C   0  0  1  0  0  0  0  0  0  0  0  0
   44.2546    3.5197   13.5059 O   0  0  0  0  0  0  0  0  0  0  0  0
   46.3583    4.9209   14.7265 O   0  0  0  0  0  0  0  0  0  0  0  0
   45.2301    6.0646    9.4504 O   0  0  0  0  0  0  0  0  0  0  0  0
   48.1155    6.5123   12.6984 C   0  0  0  0  0  0  0  0  0  0  0  0
   48.7590    6.3463   13.9583 O   0  0  0  0  0  0  0  0  0  0  0  0
   46.8271    5.4590   13.5515 C   0  0  2  0  0  0  0  0  0  0  0  0
   45.9743    6.5851   12.9404 C   0  0  2  0  0  0  0  0  0  0  0  0
   46.1105    4.0985   13.3150 C   0  0  1  0  0  0  0  0  0  0  0  0
   45.8077    3.8998   11.9414 O   0  0  0  0  0  0  0  0  0  0  0  0
   45.6095    6.2772   11.4839 C   0  0  1  0  0  0  0  0  0  0  0  0
   47.1186    5.7355   14.9777 N   0  0  0  0  0  0  0  0  0  0  0  0
   44.9397    4.9030   11.3975 C   0  0  1  0  0  0  0  0  0  0  0  0
   46.6631    7.8457   12.9713 O   0  0  0  0  0  0  0  0  0  0  0  0
   44.7344    7.3035   11.0064 O   0  0  0  0  0  0  0  0  0  0  0  0
   46.9675    3.0351   13.6964 O   0  0  0  0  0  0  0  0  0  0  0  0
   44.6214    4.5358    9.9392 C   0  0  0  0  0  0  0  0  0  0  0  0
   43.8383    3.3407    9.8695 O   0  0  0  0  0  0  0  0  0  0  0  0
   45.4384    5.2209   12.6647 S   0  0  0  0  0  0  0  0  0  0  0  0
   45.7641    3.9762   13.3131 O   0  0  0  0  0  0  0  0  0  0  0  0
   46.7242    6.1664   12.8265 O   0  0  0  0  0  0  0  0  0  0  0  0
   45.4310    4.9782   11.0789 O   0  0  0  0  0  0  0  0  0  0  0  0
   44.2627    5.9981   12.9632 O   0  0  0  0  0  0  0  0  0  0  0  0
   44.6393    3.7390   10.9938 H   0  0  0  0  0  0  0  0  0  0  0  0
   44.0925    5.5359   13.3915 H   0  0  0  0  0  0  0  0  0  0  0  0
   46.5681    5.0322   10.5710 H   0  0  0  0  0  0  0  0  0  0  0  0
   46.7922    4.2090   12.8755 H   0  0  0  0  0  0  0  0  0  0  0  0
   42.5026    4.6314   11.5026 H   0  0  0  0  0  0  0  0  0  0  0  0
   43.0401    6.1553   11.3622 H   0  0  0  0  0  0  0  0  0  0  0  0
   46.2550    7.1422   13.5234 H   0  0  0  0  0  0  0  0  0  0  0  0
   44.6328    2.7771   13.0015 H   0  0  0  0  0  0  0  0  0  0  0  0
   45.7027    4.2706   15.0544 H   0  0  0  0  0  0  0  0  0  0  0  0
   44.2532    6.0175    9.4900 H   0  0  0  0  0  0  0  0  0  0  0  0
   48.5195    5.7669   12.0050 H   0  0  0  0  0  0  0  0  0  0  0  0
   48.3940    7.4932   12.2991 H   0  0  0  0  0  0  0  0  0  0  0  0
   48.1675    5.8356   14.5486 H   0  0  0  0  0  0  0  0  0  0  0  0
   47.7981    5.4315   13.0395 H   0  0  0  0  0  0  0  0  0  0  0  0
   45.0523    6.7272   13.5199 H   0  0  0  0  0  0  0  0  0  0  0  0
   45.1911    4.0307   13.9096 H   0  0  0  0  0  0  0  0  0  0  0  0
   46.5158    6.3047   10.8659 H   0  0  0  0  0  0  0  0  0  0  0  0
   46.2902    6.0463   15.4789 H   0  0  0  0  0  0  0  0  0  0  0  0
   47.8433    6.4432   15.0655 H   0  0  0  0  0  0  0  0  0  0  0  0
   43.9988    4.8926   11.9636 H   0  0  0  0  0  0  0  0  0  0  0  0
   46.9434    7.9905   13.8919 H   0  0  0  0  0  0  0  0  0  0  0  0
   45.1874    8.1441   11.2239 H   0  0  0  0  0  0  0  0  0  0  0  0
   46.4689    2.2299   13.4828 H   0  0  0  0  0  0  0  0  0  0  0  0
   44.0604    5.3271    9.4327 H   0  0  0  0  0  0  0  0  0  0  0  0
   45.5430    4.3463    9.3796 H   0  0  0  0  0  0  0  0  0  0  0  0
   42.9969    3.5157   10.3224 H   0  0  0  0  0  0  0  0  0  0  0  0
   47.5054    5.5806   12.9056 H   0  0  0  0  0  0  0  0  0  0  0  0
   44.9429    5.7253   10.6746 H   0  0  0  0  0  0  0  0  0  0  0  0
  2  1  1  0
  3  1  1  0
  4  3  1  0
  5  2  1  0
  1  6  1  0
  7  4  1  0
  2  8  1  0
  5  9  1  0
  3 10  1  0
  7 11  1  0
 12 11  1  0
  5  7  1  0
 14 13  1  0
 15 13  1  0
 16 15  1  0
 17 14  1  0
 13 18  1  0
 19 16  1  0
 14 20  1  0
 17 21  1  0
 15 22  1  0
 19 23  1  0
 24 23  1  0
 17 19  1  0
 25 26  2  0
 25 27  1  0
 25 28  1  0
 25 29  2  0
  1 30  1  6
  2 31  1  1
  3 32  1  6
  5 33  1  6
  6 34  1  0
  6 35  1  0
  7 36  1  1
  8 37  1  0
  9 38  1  0
 10 39  1  0
 11 40  1  0
 11 41  1  0
 12 42  1  0
 13 43  1  6
 14 44  1  1
 15 45  1  1
 17 46  1  6
 18 47  1  0
 18 48  1  0
 19 49  1  1
 20 50  1  0
 21 51  1  0
 22 52  1  0
 23 53  1  0
 23 54  1  0
 24 55  1  0
 27 56  1  0
 28 57  1  0
M  END
> <Uni-Dock RESULT> 
ENERGY=   -4.292  LOWER_BOUND=    1.197  UPPER_BOUND=    2.956
INTER + INTRA:          -4.292
INTER:                  -4.292
INTRA:                   0.000
UNBOUND:                 0.000

$$$$

     RDKit          3D

 57 56  0  0  0  0  0  0  0  0999 V2000
   44.7616    4.7922   12.1069 C   0  0  2  0  0  0  0  0  0  0  0  0
   44.0973    5.0972   10.7456 C   0  0  2  0  0  0  0  0  0  0  0  0
   45.4274    3.3838   12.0892 C   0  0  2  0  0  0  0  0  0  0  0  0
   44.6555    2.4836   11.3080 O   0  0  0  0  0  0  0  0  0  0  0  0
   44.7965    4.3181    9.6308 C   0  0  1  0  0  0  0  0  0  0  0  0
   43.7800    4.9261   13.2175 N   0  0  0  0  0  0  0  0  0  0  0  0
   44.6397    2.8073    9.9088 C   0  0  1  0  0  0  0  0  0  0  0  0
   44.1190    6.5006   10.4500 O   0  0  0  0  0  0  0  0  0  0  0  0
   44.2537    4.6445    8.3487 O   0  0  0  0  0  0  0  0  0  0  0  0
   45.5504    2.8893   13.4139 O   0  0  0  0  0  0  0  0  0  0  0  0
   45.6912    1.9916    9.1418 C   0  0  0  0  0  0  0  0  0  0  0  0
   45.5875    2.1499    7.7300 O   0  0  0  0  0  0  0  0  0  0  0  0
   44.8996    3.6851    9.0919 C   0  0  2  0  0  0  0  0  0  0  0  0
   44.0405    2.9551   10.1396 C   0  0  2  0  0  0  0  0  0  0  0  0
   45.2132    5.1191    9.6073 C   0  0  1  0  0  0  0  0  0  0  0  0
   45.7975    5.0925   10.9019 O   0  0  0  0  0  0  0  0  0  0  0  0
   44.6791    3.0298   11.5309 C   0  0  1  0  0  0  0  0  0  0  0  0
   44.2412    3.6629    7.7646 N   0  0  0  0  0  0  0  0  0  0  0  0
   44.9564    4.4910   11.8952 C   0  0  1  0  0  0  0  0  0  0  0  0
   43.8623    1.5694    9.8040 O   0  0  0  0  0  0  0  0  0  0  0  0
   43.7878    2.4280   12.4746 O   0  0  0  0  0  0  0  0  0  0  0  0
   46.1594    5.7377    8.7512 O   0  0  0  0  0  0  0  0  0  0  0  0
   45.6586    4.5954   13.2586 C   0  0  0  0  0  0  0  0  0  0  0  0
   45.7573    5.9579   13.6827 O   0  0  0  0  0  0  0  0  0  0  0  0
   44.5016    4.3011   10.5865 S   0  0  0  0  0  0  0  0  0  0  0  0
   45.0352    5.3801    9.7949 O   0  0  0  0  0  0  0  0  0  0  0  0
   44.8336    2.9481    9.7912 O   0  0  0  0  0  0  0  0  0  0  0  0
   45.4213    4.1271   11.8894 O   0  0  0  0  0  0  0  0  0  0  0  0
   43.1359    4.2375   11.0405 O   0  0  0  0  0  0  0  0  0  0  0  0
   45.5443    5.5277   12.3285 H   0  0  0  0  0  0  0  0  0  0  0  0
   43.0365    4.8153   10.7536 H   0  0  0  0  0  0  0  0  0  0  0  0
   46.4423    3.4437   11.6792 H   0  0  0  0  0  0  0  0  0  0  0  0
   45.8538    4.6095    9.5976 H   0  0  0  0  0  0  0  0  0  0  0  0
   43.3443    5.8503   13.1510 H   0  0  0  0  0  0  0  0  0  0  0  0
   43.0130    4.2654   13.0571 H   0  0  0  0  0  0  0  0  0  0  0  0
   43.6576    2.4918    9.5331 H   0  0  0  0  0  0  0  0  0  0  0  0
   45.0157    6.8446   10.6132 H   0  0  0  0  0  0  0  0  0  0  0  0
   43.9627    5.5786    8.4045 H   0  0  0  0  0  0  0  0  0  0  0  0
   44.8740    3.3805   13.9229 H   0  0  0  0  0  0  0  0  0  0  0  0
   46.7027    2.2804    9.4469 H   0  0  0  0  0  0  0  0  0  0  0  0
   45.5871    0.9267    9.3749 H   0  0  0  0  0  0  0  0  0  0  0  0
   45.1376    2.9989    7.5410 H   0  0  0  0  0  0  0  0  0  0  0  0
   45.8486    3.1457    8.9728 H   0  0  0  0  0  0  0  0  0  0  0  0
   43.0331    3.3904   10.1822 H   0  0  0  0  0  0  0  0  0  0  0  0
   44.3070    5.7372    9.6236 H   0  0  0  0  0  0  0  0  0  0  0  0
   45.6085    2.4467   11.5390 H   0  0  0  0  0  0  0  0  0  0  0  0
   43.2527    3.8922    7.8298 H   0  0  0  0  0  0  0  0  0  0  0  0
   44.3411    2.7495    7.3294 H   0  0  0  0  0  0  0  0  0  0  0  0
   44.0204    5.0626   11.9504 H   0  0  0  0  0  0  0  0  0  0  0  0
   43.5186    1.5423    8.8939 H   0  0  0  0  0  0  0  0  0  0  0  0
   43.5651    1.5547   12.0913 H   0  0  0  0  0  0  0  0  0  0  0  0
   46.3302    6.6021    9.1587 H   0  0  0  0  0  0  0  0  0  0  0  0
   45.1205    4.0463   14.0373 H   0  0  0  0  0  0  0  0  0  0  0  0
   46.6797    4.2057   13.1970 H   0  0  0  0  0  0  0  0  0  0  0  0
   44.8533    6.2979   13.7871 H   0  0  0  0  0  0  0  0  0  0  0  0
   45.6363    3.1173    9.2556 H   0  0  0  0  0  0  0  0  0  0  0  0
   44.9049    3.6079   12.5403 H   0  0  0  0  0  0  0  0  0  0  0  0
  2  1  1  0
  3  1  1  0
  4  3  1  0
  5  2  1  0
  1  6  1  0
  7  4  1  0
  2  8  1  0
  5  9  1  0
  3 10  1  0
  7 11  1  0
 12 11  1  0
  5  7  1  0
 14 13  1  0
 15 13  1  0
 16 15  1  0
 17 14  1  0
 13 18  1  0
 19 16  1  0
 14 20  1  0
 17 21  1  0
 15 22  1  0
 19 23  1  0
 24 23  1  0
 17 19  1  0
 25 26  2  0
 25 27  1  0
 25 28  1  0
 25 29  2  0
  1 30  1  6
  2 31  1  1
  3 32  1  6
  5 33  1  6
  6 34  1  0
  6 35  1  0
  7 36  1  1
  8 37  1  0
  9 38  1  0
 10 39  1  0
 11 40  1  0
 11 41  1  0
 12 42  1  0
 13 43  1  6
 14 44  1  1
 15 45  1  1
 17 46  1  6
 18 47  1  0
 18 48  1  0
 19 49  1  1
 20 50  1  0
 21 51  1  0
 22 52  1  0
 23 53  1  0
 23 54  1  0
 24 55  1  0
 27 56  1  0
 28 57  1  0
M  END
> <Uni-Dock RESULT> 
ENERGY=   -4.241  LOWER_BOUND=    2.449  UPPER_BOUND=    4.115
INTER + INTRA:          -4.241
INTER:                  -4.241
INTRA:                   0.000
UNBOUND:                 0.000

$$$$

     RDKit          3D

 57 56  0  0  0  0  0  0  0  0999 V2000
   44.6785    2.7814    9.8722 C   0  0  2  0  0  0  0  0  0  0  0  0
   43.9414    2.9282   11.2221 C   0  0  2  0  0  0  0  0  0  0  0  0
   45.1885    4.1660    9.3720 C   0  0  2  0  0  0  0  0  0  0  0  0
   44.2649    5.1866    9.7209 O   0  0  0  0  0  0  0  0  0  0  0  0
   44.4614    4.1523   11.9770 C   0  0  1  0  0  0  0  0  0  0  0  0
   43.8104    2.1146    8.8639 N   0  0  0  0  0  0  0  0  0  0  0  0
   44.1693    5.4139   11.1358 C   0  0  1  0  0  0  0  0  0  0  0  0
   44.0868    1.7544   12.0336 O   0  0  0  0  0  0  0  0  0  0  0  0
   43.8533    4.2653   13.2664 O   0  0  0  0  0  0  0  0  0  0  0  0
   45.3662    4.1373    7.9642 O   0  0  0  0  0  0  0  0  0  0  0  0
   45.0629    6.5861   11.5680 C   0  0  0  0  0  0  0  0  0  0  0  0
   44.8618    6.9585   12.9281 O   0  0  0  0  0  0  0  0  0  0  0  0
   44.4529    4.9491   12.2354 C   0  0  2  0  0  0  0  0  0  0  0  0
   43.6098    5.1144   10.9584 C   0  0  2  0  0  0  0  0  0  0  0  0
   44.9569    3.4797   12.3203 C   0  0  1  0  0  0  0  0  0  0  0  0
   45.6386    3.0923   11.1358 O   0  0  0  0  0  0  0  0  0  0  0  0
   44.3640    4.6046    9.7253 C   0  0  1  0  0  0  0  0  0  0  0  0
   43.6898    5.3841   13.4287 N   0  0  0  0  0  0  0  0  0  0  0  0
   44.8226    3.1624    9.9589 C   0  0  1  0  0  0  0  0  0  0  0  0
   43.2598    6.4893   10.7308 O   0  0  0  0  0  0  0  0  0  0  0  0
   43.4941    4.6872    8.5924 O   0  0  0  0  0  0  0  0  0  0  0  0
   45.8900    3.3558   13.3808 O   0  0  0  0  0  0  0  0  0  0  0  0
   45.6406    2.6440    8.7653 C   0  0  0  0  0  0  0  0  0  0  0  0
   45.9167    1.2469    8.8995 O   0  0  0  0  0  0  0  0  0  0  0  0
   44.2452    3.7705   11.0780 S   0  0  0  0  0  0  0  0  0  0  0  0
   44.8232    3.1468   12.2410 O   0  0  0  0  0  0  0  0  0  0  0  0
   44.3668    5.3539   11.3052 O   0  0  0  0  0  0  0  0  0  0  0  0
   45.2445    3.5582    9.8411 O   0  0  0  0  0  0  0  0  0  0  0  0
   42.9219    3.4825   10.5866 O   0  0  0  0  0  0  0  0  0  0  0  0
   45.5499    2.1237    9.9770 H   0  0  0  0  0  0  0  0  0  0  0  0
   42.8610    3.0475   11.0694 H   0  0  0  0  0  0  0  0  0  0  0  0
   46.1672    4.3957    9.8091 H   0  0  0  0  0  0  0  0  0  0  0  0
   45.5372    4.0333   12.1564 H   0  0  0  0  0  0  0  0  0  0  0  0
   43.4705    1.2355    9.2642 H   0  0  0  0  0  0  0  0  0  0  0  0
   42.9674    2.6826    8.7318 H   0  0  0  0  0  0  0  0  0  0  0  0
   43.1321    5.7185   11.3272 H   0  0  0  0  0  0  0  0  0  0  0  0
   45.0250    1.4927   12.0464 H   0  0  0  0  0  0  0  0  0  0  0  0
   43.6679    3.3499   13.5627 H   0  0  0  0  0  0  0  0  0  0  0  0
   44.7892    3.4081    7.6589 H   0  0  0  0  0  0  0  0  0  0  0  0
   46.1207    6.3363   11.4326 H   0  0  0  0  0  0  0  0  0  0  0  0
   44.8664    7.4622   10.9411 H   0  0  0  0  0  0  0  0  0  0  0  0
   44.4899    6.1927   13.4121 H   0  0  0  0  0  0  0  0  0  0  0  0
   45.3268    5.6109   12.1719 H   0  0  0  0  0  0  0  0  0  0  0  0
   42.6608    4.5695   11.0506 H   0  0  0  0  0  0  0  0  0  0  0  0
   44.1252    2.7899   12.5104 H   0  0  0  0  0  0  0  0  0  0  0  0
   45.2243    5.2561    9.5271 H   0  0  0  0  0  0  0  0  0  0  0  0
   42.7396    5.0221   13.4218 H   0  0  0  0  0  0  0  0  0  0  0  0
   43.6570    6.3988   13.4838 H   0  0  0  0  0  0  0  0  0  0  0  0
   43.9597    2.4969   10.0941 H   0  0  0  0  0  0  0  0  0  0  0  0
   42.8422    6.8123   11.5482 H   0  0  0  0  0  0  0  0  0  0  0  0
   43.1501    5.6041    8.6036 H   0  0  0  0  0  0  0  0  0  0  0  0
   46.1837    2.4313   13.3420 H   0  0  0  0  0  0  0  0  0  0  0  0
   45.1129    2.7858    7.8172 H   0  0  0  0  0  0  0  0  0  0  0  0
   46.6065    3.1561    8.7086 H   0  0  0  0  0  0  0  0  0  0  0  0
   45.0651    0.7795    8.9017 H   0  0  0  0  0  0  0  0  0  0  0  0
   45.1365    5.5032   11.8925 H   0  0  0  0  0  0  0  0  0  0  0  0
   44.7310    3.7234    9.0232 H   0  0  0  0  0  0  0  0  0  0  0  0
  2  1  1  0
  3  1  1  0
  4  3  1  0
  5  2  1  0
  1  6  1  0
  7  4  1  0
  2  8  1  0
  5  9  1  0
  3 10  1  0
  7 11  1  0
 12 11  1  0
  5  7  1  0
 14 13  1  0
 15 13  1  0
 16 15  1  0
 17 14  1  0
 13 18  1  0
 19 16  1  0
 14 20  1  0
 17 21  1  0
 15 22  1  0
 19 23  1  0
 24 23  1  0
 17 19  1  0
 25 26  2  0
 25 27  1  0
 25 28  1  0
 25 29  2  0
  1 30  1  6
  2 31  1  1
  3 32  1  6
  5 33  1  6
  6 34  1  0
  6 35  1  0
  7 36  1  1
  8 37  1  0
  9 38  1  0
 10 39  1  0
 11 40  1  0
 11 41  1  0
 12 42  1  0
 13 43  1  6
 14 44  1  1
 15 45  1  1
 17 46  1  6
 18 47  1  0
 18 48  1  0
 19 49  1  1
 20 50  1  0
 21 51  1  0
 22 52  1  0
 23 53  1  0
 23 54  1  0
 24 55  1  0
 27 56  1  0
 28 57  1  0
M  END
> <Uni-Dock RESULT> 
ENERGY=   -4.039  LOWER_BOUND=    2.379  UPPER_BOUND=    4.257
INTER + INTRA:          -4.039
INTER:                  -4.039
INTRA:                   0.000
UNBOUND:                 0.000

$$$$

     RDKit          3D

 57 56  0  0  0  0  0  0  0  0999 V2000
   46.2168    4.4555   13.5977 C   0  0  2  0  0  0  0  0  0  0  0  0
   45.1627    4.0607   12.5394 C   0  0  2  0  0  0  0  0  0  0  0  0
   46.4903    5.9887   13.5545 C   0  0  2  0  0  0  0  0  0  0  0  0
   46.4187    6.4644   12.2184 O   0  0  0  0  0  0  0  0  0  0  0  0
   44.2466    5.2477   12.2384 C   0  0  1  0  0  0  0  0  0  0  0  0
   47.4660    3.6658   13.4221 N   0  0  0  0  0  0  0  0  0  0  0  0
   45.0991    6.3958   11.6556 C   0  0  1  0  0  0  0  0  0  0  0  0
   44.3818    2.9356   12.9659 O   0  0  0  0  0  0  0  0  0  0  0  0
   43.2105    4.8859   11.3217 O   0  0  0  0  0  0  0  0  0  0  0  0
   47.7714    6.2680   14.0977 O   0  0  0  0  0  0  0  0  0  0  0  0
   44.3736    7.7436   11.7838 C   0  0  0  0  0  0  0  0  0  0  0  0
   43.1349    7.7705   11.0811 O   0  0  0  0  0  0  0  0  0  0  0  0
   43.9804    5.9156   11.8085 C   0  0  2  0  0  0  0  0  0  0  0  0
   45.4519    5.9258   11.3576 C   0  0  2  0  0  0  0  0  0  0  0  0
   43.7854    4.7932   12.8680 C   0  0  1  0  0  0  0  0  0  0  0  0
   44.7071    4.9224   13.9412 O   0  0  0  0  0  0  0  0  0  0  0  0
   46.4006    5.9832   12.5600 C   0  0  1  0  0  0  0  0  0  0  0  0
   43.0744    5.7939   10.6423 N   0  0  0  0  0  0  0  0  0  0  0  0
   46.0779    4.8421   13.5287 C   0  0  1  0  0  0  0  0  0  0  0  0
   45.7369    7.0505   10.5100 O   0  0  0  0  0  0  0  0  0  0  0  0
   47.7463    5.8847   12.0842 O   0  0  0  0  0  0  0  0  0  0  0  0
   42.4898    4.8927   13.4358 O   0  0  0  0  0  0  0  0  0  0  0  0
   46.9695    4.9117   14.7789 C   0  0  0  0  0  0  0  0  0  0  0  0
   46.7970    3.7519   15.5982 O   0  0  0  0  0  0  0  0  0  0  0  0
   45.1790    4.9644   12.4645 S   0  0  0  0  0  0  0  0  0  0  0  0
   43.9125    4.4528   12.9226 O   0  0  0  0  0  0  0  0  0  0  0  0
   44.8782    6.3957   11.8055 O   0  0  0  0  0  0  0  0  0  0  0  0
   46.0456    5.3902   13.7457 O   0  0  0  0  0  0  0  0  0  0  0  0
   46.0691    4.2411   11.5928 O   0  0  0  0  0  0  0  0  0  0  0  0
   45.8635    4.2087   14.6062 H   0  0  0  0  0  0  0  0  0  0  0  0
   45.6430    3.7468   11.6037 H   0  0  0  0  0  0  0  0  0  0  0  0
   45.7615    6.5265   14.1720 H   0  0  0  0  0  0  0  0  0  0  0  0
   43.7423    5.5556   13.1629 H   0  0  0  0  0  0  0  0  0  0  0  0
   47.2189    2.6721   13.4136 H   0  0  0  0  0  0  0  0  0  0  0  0
   47.8390    3.8485   12.4850 H   0  0  0  0  0  0  0  0  0  0  0  0
   45.2339    6.2091   10.5822 H   0  0  0  0  0  0  0  0  0  0  0  0
   44.0831    3.0862   13.8808 H   0  0  0  0  0  0  0  0  0  0  0  0
   43.0147    3.9404   11.4894 H   0  0  0  0  0  0  0  0  0  0  0  0
   48.2640    5.4268   14.0096 H   0  0  0  0  0  0  0  0  0  0  0  0
   44.1776    7.9787   12.8355 H   0  0  0  0  0  0  0  0  0  0  0  0
   45.0042    8.5506   11.3960 H   0  0  0  0  0  0  0  0  0  0  0  0
   42.8150    6.8513   10.9725 H   0  0  0  0  0  0  0  0  0  0  0  0
   43.7467    6.8795   12.2794 H   0  0  0  0  0  0  0  0  0  0  0  0
   45.6785    5.0308   10.7629 H   0  0  0  0  0  0  0  0  0  0  0  0
   43.8865    3.8007   12.4116 H   0  0  0  0  0  0  0  0  0  0  0  0
   46.2995    6.9546   13.0602 H   0  0  0  0  0  0  0  0  0  0  0  0
   43.3899    5.0786    9.9921 H   0  0  0  0  0  0  0  0  0  0  0  0
   43.0022    6.6803   10.1496 H   0  0  0  0  0  0  0  0  0  0  0  0
   46.2402    3.8674   13.0495 H   0  0  0  0  0  0  0  0  0  0  0  0
   45.0825    7.0330    9.7899 H   0  0  0  0  0  0  0  0  0  0  0  0
   47.8164    6.5623   11.3805 H   0  0  0  0  0  0  0  0  0  0  0  0
   42.4619    4.1921   14.1072 H   0  0  0  0  0  0  0  0  0  0  0  0
   48.0306    4.9769   14.5197 H   0  0  0  0  0  0  0  0  0  0  0  0
   46.7049    5.7784   15.3931 H   0  0  0  0  0  0  0  0  0  0  0  0
   47.0761    2.9813   15.0767 H   0  0  0  0  0  0  0  0  0  0  0  0
   44.0748    6.7505   12.2396 H   0  0  0  0  0  0  0  0  0  0  0  0
   46.9780    5.4609   13.4532 H   0  0  0  0  0  0  0  0  0  0  0  0
  2  1  1  0
  3  1  1  0
  4  3  1  0
  5  2  1  0
  1  6  1  0
  7  4  1  0
  2  8  1  0
  5  9  1  0
  3 10  1  0
  7 11  1  0
 12 11  1  0
  5  7  1  0
 14 13  1  0
 15 13  1  0
 16 15  1  0
 17 14  1  0
 13 18  1  0
 19 16  1  0
 14 20  1  0
 17 21  1  0
 15 22  1  0
 19 23  1  0
 24 23  1  0
 17 19  1  0
 25 26  2  0
 25 27  1  0
 25 28  1  0
 25 29  2  0
  1 30  1  6
  2 31  1  1
  3 32  1  6
  5 33  1  6
  6 34  1  0
  6 35  1  0
  7 36  1  1
  8 37  1  0
  9 38  1  0
 10 39  1  0
 11 40  1  0
 11 41  1  0
 12 42  1  0
 13 43  1  6
 14 44  1  1
 15 45  1  1
 17 46  1  6
 18 47  1  0
 18 48  1  0
 19 49  1  1
 20 50  1  0
 21 51  1  0
 22 52  1  0
 23 53  1  0
 23 54  1  0
 24 55  1  0
 27 56  1  0
 28 57  1  0
M  END
> <Uni-Dock RESULT> 
ENERGY=   -3.427  LOWER_BOUND=    1.172  UPPER_BOUND=    3.933
INTER + INTRA:          -3.427
INTER:                  -3.427
INTRA:                   0.000
UNBOUND:                 0.000

$$$$

     RDKit          3D

 57 56  0  0  0  0  0  0  0  0999 V2000
   43.6713   12.0910   10.0364 C   0  0  2  0  0  0  0  0  0  0  0  0
   43.1594   12.3060   11.4783 C   0  0  2  0  0  0  0  0  0  0  0  0
   42.6709   11.2158    9.2237 C   0  0  2  0  0  0  0  0  0  0  0  0
   42.0802   10.2345   10.0631 O   0  0  0  0  0  0  0  0  0  0  0  0
   41.6340   12.2054   11.5174 C   0  0  1  0  0  0  0  0  0  0  0  0
   45.0399   11.5064   10.0414 N   0  0  0  0  0  0  0  0  0  0  0  0
   41.2196   10.7861   11.0721 C   0  0  1  0  0  0  0  0  0  0  0  0
   43.5802   13.5722   12.0048 O   0  0  0  0  0  0  0  0  0  0  0  0
   41.1278   12.4812   12.8260 O   0  0  0  0  0  0  0  0  0  0  0  0
   43.3439   10.5855    8.1448 O   0  0  0  0  0  0  0  0  0  0  0  0
   39.7512   10.7538   10.6227 C   0  0  0  0  0  0  0  0  0  0  0  0
   38.8499   11.1246   11.6615 O   0  0  0  0  0  0  0  0  0  0  0  0
   40.8978   11.8249   11.6401 C   0  0  2  0  0  0  0  0  0  0  0  0
   41.7603   10.5760   11.3847 C   0  0  2  0  0  0  0  0  0  0  0  0
   41.7742   13.0938   11.4343 C   0  0  1  0  0  0  0  0  0  0  0  0
   42.4066   13.0909   10.1622 O   0  0  0  0  0  0  0  0  0  0  0  0
   42.4821   10.6661   10.0356 C   0  0  1  0  0  0  0  0  0  0  0  0
   40.2569   11.7571   12.9743 N   0  0  0  0  0  0  0  0  0  0  0  0
   43.2795   11.9712    9.9616 C   0  0  1  0  0  0  0  0  0  0  0  0
   40.9681    9.3773   11.3881 O   0  0  0  0  0  0  0  0  0  0  0  0
   43.3443    9.5321    9.9032 O   0  0  0  0  0  0  0  0  0  0  0  0
   40.9555   14.2509   11.4743 O   0  0  0  0  0  0  0  0  0  0  0  0
   43.9623   12.1229    8.5928 C   0  0  0  0  0  0  0  0  0  0  0  0
   44.8486   13.2457    8.5823 O   0  0  0  0  0  0  0  0  0  0  0  0
   42.4713   11.8550   11.0968 S   0  0  0  0  0  0  0  0  0  0  0  0
   42.1215   13.1922   11.5030 O   0  0  0  0  0  0  0  0  0  0  0  0
   41.1003   11.0234   11.0458 O   0  0  0  0  0  0  0  0  0  0  0  0
   42.8712   11.8867    9.5435 O   0  0  0  0  0  0  0  0  0  0  0  0
   43.4666   11.0497   11.7573 O   0  0  0  0  0  0  0  0  0  0  0  0
   43.7736   13.0506    9.5154 H   0  0  0  0  0  0  0  0  0  0  0  0
   43.5747   11.5522   12.1596 H   0  0  0  0  0  0  0  0  0  0  0  0
   41.8842   11.8397    8.7837 H   0  0  0  0  0  0  0  0  0  0  0  0
   41.2067   12.9707   10.8574 H   0  0  0  0  0  0  0  0  0  0  0  0
   45.6391   12.0971   10.6251 H   0  0  0  0  0  0  0  0  0  0  0  0
   45.0087   10.6057   10.5297 H   0  0  0  0  0  0  0  0  0  0  0  0
   41.3002   10.1194   11.9405 H   0  0  0  0  0  0  0  0  0  0  0  0
   43.4015   14.2650   11.3437 H   0  0  0  0  0  0  0  0  0  0  0  0
   41.7468   13.1253   13.2287 H   0  0  0  0  0  0  0  0  0  0  0  0
   44.2845   10.5746    8.4153 H   0  0  0  0  0  0  0  0  0  0  0  0
   39.5920   11.4264    9.7730 H   0  0  0  0  0  0  0  0  0  0  0  0
   39.4828    9.7490   10.2800 H   0  0  0  0  0  0  0  0  0  0  0  0
   39.3325   11.6692   12.3170 H   0  0  0  0  0  0  0  0  0  0  0  0
   40.0801   11.8474   10.9076 H   0  0  0  0  0  0  0  0  0  0  0  0
   42.5040   10.4522   12.1832 H   0  0  0  0  0  0  0  0  0  0  0  0
   42.5317   13.1798   12.2232 H   0  0  0  0  0  0  0  0  0  0  0  0
   41.7466   10.6162    9.2229 H   0  0  0  0  0  0  0  0  0  0  0  0
   40.9126   11.4622   13.6935 H   0  0  0  0  0  0  0  0  0  0  0  0
   39.4686   11.1151   12.9619 H   0  0  0  0  0  0  0  0  0  0  0  0
   44.0590   11.9953   10.7347 H   0  0  0  0  0  0  0  0  0  0  0  0
   40.4684    9.3727   12.2231 H   0  0  0  0  0  0  0  0  0  0  0  0
   42.7762    8.7581   10.0967 H   0  0  0  0  0  0  0  0  0  0  0  0
   41.5634   14.9874   11.2997 H   0  0  0  0  0  0  0  0  0  0  0  0
   44.5493   11.2376    8.3298 H   0  0  0  0  0  0  0  0  0  0  0  0
   43.2187   12.2962    7.8083 H   0  0  0  0  0  0  0  0  0  0  0  0
   45.5408   13.0779    9.2429 H   0  0  0  0  0  0  0  0  0  0  0  0
   40.3807   11.6635   10.8665 H   0  0  0  0  0  0  0  0  0  0  0  0
   43.3679   11.0633    9.3562 H   0  0  0  0  0  0  0  0  0  0  0  0
  2  1  1  0
  3  1  1  0
  4  3  1  0
  5  2  1  0
  1  6  1  0
  7  4  1  0
  2  8  1  0
  5  9  1  0
  3 10  1  0
  7 11  1  0
 12 11  1  0
  5  7  1  0
 14 13  1  0
 15 13  1  0
 16 15  1  0
 17 14  1  0
 13 18  1  0
 19 16  1  0
 14 20  1  0
 17 21  1  0
 15 22  1  0
 19 23  1  0
 24 23  1  0
 17 19  1  0
 25 26  2  0
 25 27  1  0
 25 28  1  0
 25 29  2  0
  1 30  1  6
  2 31  1  1
  3 32  1  6
  5 33  1  6
  6 34  1  0
  6 35  1  0
  7 36  1  1
  8 37  1  0
  9 38  1  0
 10 39  1  0
 11 40  1  0
 11 41  1  0
 12 42  1  0
 13 43  1  6
 14 44  1  1
 15 45  1  1
 17 46  1  6
 18 47  1  0
 18 48  1  0
 19 49  1  1
 20 50  1  0
 21 51  1  0
 22 52  1  0
 23 53  1  0
 23 54  1  0
 24 55  1  0
 27 56  1  0
 28 57  1  0
M  END
> <Uni-Dock RESULT> 
ENERGY=   -3.339  LOWER_BOUND=    6.360  UPPER_BOUND=    8.023
INTER + INTRA:          -3.339
INTER:                  -3.339
INTRA:                   0.000
UNBOUND:                 0.000

$$$$

     RDKit          3D

 57 56  0  0  0  0  0  0  0  0999 V2000
   47.7319   12.7262   18.6416 C   0  0  2  0  0  0  0  0  0  0  0  0
   47.5000   12.2426   20.0907 C   0  0  2  0  0  0  0  0  0  0  0  0
   48.1147   11.5307   17.7188 C   0  0  2  0  0  0  0  0  0  0  0  0
   48.9081   10.5929   18.4311 O   0  0  0  0  0  0  0  0  0  0  0  0
   47.0649   10.7765   20.0946 C   0  0  1  0  0  0  0  0  0  0  0  0
   48.7550   13.8063   18.6005 N   0  0  0  0  0  0  0  0  0  0  0  0
   48.1967    9.9223   19.4833 C   0  0  1  0  0  0  0  0  0  0  0  0
   46.5214   13.0455   20.7652 O   0  0  0  0  0  0  0  0  0  0  0  0
   46.7648   10.3265   21.4183 O   0  0  0  0  0  0  0  0  0  0  0  0
   48.8267   12.0022   16.5852 O   0  0  0  0  0  0  0  0  0  0  0  0
   47.6680    8.5598   19.0108 C   0  0  0  0  0  0  0  0  0  0  0  0
   47.1139    7.7871   20.0713 O   0  0  0  0  0  0  0  0  0  0  0  0
   47.1747    9.9488   20.1616 C   0  0  2  0  0  0  0  0  0  0  0  0
   48.6132   10.3393   19.7781 C   0  0  2  0  0  0  0  0  0  0  0  0
   46.2779   11.2193   20.1160 C   0  0  1  0  0  0  0  0  0  0  0  0
   46.3717   11.8798   18.8618 O   0  0  0  0  0  0  0  0  0  0  0  0
   48.6436   11.1199   18.4594 C   0  0  1  0  0  0  0  0  0  0  0  0
   47.1502    9.2525   21.4693 N   0  0  0  0  0  0  0  0  0  0  0  0
   47.6989   12.3218   18.5476 C   0  0  1  0  0  0  0  0  0  0  0  0
   49.4534    9.1830   19.6319 O   0  0  0  0  0  0  0  0  0  0  0  0
   49.9876   11.5433   18.2111 O   0  0  0  0  0  0  0  0  0  0  0  0
   44.9183   10.8497   20.2759 O   0  0  0  0  0  0  0  0  0  0  0  0
   47.6564   13.0882   17.2158 C   0  0  0  0  0  0  0  0  0  0  0  0
   46.9191   14.3069   17.3476 O   0  0  0  0  0  0  0  0  0  0  0  0
   47.6408   11.4628   19.6495 S   0  0  0  0  0  0  0  0  0  0  0  0
   46.3145   11.5749   20.2009 O   0  0  0  0  0  0  0  0  0  0  0  0
   47.9313    9.8939   19.4826 O   0  0  0  0  0  0  0  0  0  0  0  0
   47.5924   11.9328   18.1164 O   0  0  0  0  0  0  0  0  0  0  0  0
   48.8059   12.0813   20.2285 O   0  0  0  0  0  0  0  0  0  0  0  0
   46.8206   13.1817   18.2356 H   0  0  0  0  0  0  0  0  0  0  0  0
   48.4167   12.3343   20.6874 H   0  0  0  0  0  0  0  0  0  0  0  0
   47.2139   11.0331   17.3412 H   0  0  0  0  0  0  0  0  0  0  0  0
   46.1355   10.6763   19.5202 H   0  0  0  0  0  0  0  0  0  0  0  0
   48.4736   14.5400   19.2572 H   0  0  0  0  0  0  0  0  0  0  0  0
   49.6328   13.4394   18.9818 H   0  0  0  0  0  0  0  0  0  0  0  0
   48.9345    9.7204   20.2707 H   0  0  0  0  0  0  0  0  0  0  0  0
   45.7461   13.1533   20.1851 H   0  0  0  0  0  0  0  0  0  0  0  0
   46.4221   11.1071   21.9016 H   0  0  0  0  0  0  0  0  0  0  0  0
   49.1931   12.8649   16.8670 H   0  0  0  0  0  0  0  0  0  0  0  0
   46.8992    8.6890   18.2414 H   0  0  0  0  0  0  0  0  0  0  0  0
   48.4753    7.9799   18.5511 H   0  0  0  0  0  0  0  0  0  0  0  0
   46.8421    8.3917   20.7922 H   0  0  0  0  0  0  0  0  0  0  0  0
   46.7934    9.2302   19.4241 H   0  0  0  0  0  0  0  0  0  0  0  0
   49.0698   10.9500   20.5684 H   0  0  0  0  0  0  0  0  0  0  0  0
   46.5429   11.9158   20.9211 H   0  0  0  0  0  0  0  0  0  0  0  0
   48.3503   10.4578   17.6351 H   0  0  0  0  0  0  0  0  0  0  0  0
   47.7273    9.7259   22.1599 H   0  0  0  0  0  0  0  0  0  0  0  0
   47.4716    8.2929   21.3713 H   0  0  0  0  0  0  0  0  0  0  0  0
   48.0277   13.0185   19.3302 H   0  0  0  0  0  0  0  0  0  0  0  0
   49.3684    8.6679   20.4532 H   0  0  0  0  0  0  0  0  0  0  0  0
   50.5298   10.7332   18.3059 H   0  0  0  0  0  0  0  0  0  0  0  0
   44.4268   11.6831   20.1961 H   0  0  0  0  0  0  0  0  0  0  0  0
   48.6592   13.3466   16.8621 H   0  0  0  0  0  0  0  0  0  0  0  0
   47.1553   12.4939   16.4450 H   0  0  0  0  0  0  0  0  0  0  0  0
   47.3846   14.8617   17.9952 H   0  0  0  0  0  0  0  0  0  0  0  0
   47.0654    9.4505   19.3668 H   0  0  0  0  0  0  0  0  0  0  0  0
   48.5138   12.1239   17.8436 H   0  0  0  0  0  0  0  0  0  0  0  0
  2  1  1  0
  3  1  1  0
  4  3  1  0
  5  2  1  0
  1  6  1  0
  7  4  1  0
  2  8  1  0
  5  9  1  0
  3 10  1  0
  7 11  1  0
 12 11  1  0
  5  7  1  0
 14 13  1  0
 15 13  1  0
 16 15  1  0
 17 14  1  0
 13 18  1  0
 19 16  1  0
 14 20  1  0
 17 21  1  0
 15 22  1  0
 19 23  1  0
 24 23  1  0
 17 19  1  0
 25 26  2  0
 25 27  1  0
 25 28  1  0
 25 29  2  0
  1 30  1  6
  2 31  1  1
  3 32  1  6
  5 33  1  6
  6 34  1  0
  6 35  1  0
  7 36  1  1
  8 37  1  0
  9 38  1  0
 10 39  1  0
 11 40  1  0
 11 41  1  0
 12 42  1  0
 13 43  1  6
 14 44  1  1
 15 45  1  1
 17 46  1  6
 18 47  1  0
 18 48  1  0
 19 49  1  1
 20 50  1  0
 21 51  1  0
 22 52  1  0
 23 53  1  0
 23 54  1  0
 24 55  1  0
 27 56  1  0
 28 57  1  0
M  END
> <Uni-Dock RESULT> 
ENERGY=   -3.317  LOWER_BOUND=    7.941  UPPER_BOUND=    9.400
INTER + INTRA:          -3.317
INTER:                  -3.317
INTRA:                   0.000
UNBOUND:                 0.000

$$$$

     RDKit          3D

 57 56  0  0  0  0  0  0  0  0999 V2000
   43.6086   10.2047   11.1308 C   0  0  2  0  0  0  0  0  0  0  0  0
   42.1916    9.9686   10.5620 C   0  0  2  0  0  0  0  0  0  0  0  0
   44.0476   11.6837   10.9136 C   0  0  2  0  0  0  0  0  0  0  0  0
   43.5435   12.1710    9.6788 O   0  0  0  0  0  0  0  0  0  0  0  0
   41.3967   11.2750   10.5660 C   0  0  1  0  0  0  0  0  0  0  0  0
   44.5829    9.2464   10.5415 N   0  0  0  0  0  0  0  0  0  0  0  0
   42.1127   12.2932    9.6520 C   0  0  1  0  0  0  0  0  0  0  0  0
   41.4856    8.9638   11.3033 O   0  0  0  0  0  0  0  0  0  0  0  0
   40.0538   11.0683   10.1201 O   0  0  0  0  0  0  0  0  0  0  0  0
   45.4638   11.7757   10.9263 O   0  0  0  0  0  0  0  0  0  0  0  0
   41.6753   13.7297    9.9750 C   0  0  0  0  0  0  0  0  0  0  0  0
   40.2789   13.9356    9.7837 O   0  0  0  0  0  0  0  0  0  0  0  0
   41.0801   11.9759   10.2339 C   0  0  2  0  0  0  0  0  0  0  0  0
   42.2617   11.7792    9.2675 C   0  0  2  0  0  0  0  0  0  0  0  0
   41.1495   10.8877   11.3435 C   0  0  1  0  0  0  0  0  0  0  0  0
   42.4152   10.8796   11.9885 O   0  0  0  0  0  0  0  0  0  0  0  0
   43.5911   11.6957   10.0257 C   0  0  1  0  0  0  0  0  0  0  0  0
   39.7949   11.9897    9.4966 N   0  0  0  0  0  0  0  0  0  0  0  0
   43.5068   10.6074   11.0996 C   0  0  1  0  0  0  0  0  0  0  0  0
   42.3546   12.8560    8.3207 O   0  0  0  0  0  0  0  0  0  0  0  0
   44.6334   11.4092    9.0884 O   0  0  0  0  0  0  0  0  0  0  0  0
   40.1878   11.1676   12.3474 O   0  0  0  0  0  0  0  0  0  0  0  0
   44.8034   10.5438   11.9228 C   0  0  0  0  0  0  0  0  0  0  0  0
   44.7982    9.4165   12.8032 O   0  0  0  0  0  0  0  0  0  0  0  0
   42.2990   10.8611   10.4422 S   0  0  0  0  0  0  0  0  0  0  0  0
   41.2412   10.5324   11.3635 O   0  0  0  0  0  0  0  0  0  0  0  0
   41.9664   12.3237    9.8732 O   0  0  0  0  0  0  0  0  0  0  0  0
   43.6317   11.1535   11.2858 O   0  0  0  0  0  0  0  0  0  0  0  0
   42.6914   10.0228    9.3382 O   0  0  0  0  0  0  0  0  0  0  0  0
   43.6304   10.0058   12.2091 H   0  0  0  0  0  0  0  0  0  0  0  0
   42.2388    9.5940    9.5313 H   0  0  0  0  0  0  0  0  0  0  0  0
   43.6829   12.3167   11.7310 H   0  0  0  0  0  0  0  0  0  0  0  0
   41.3225   11.6471   11.5955 H   0  0  0  0  0  0  0  0  0  0  0  0
   44.2205    8.2979   10.6744 H   0  0  0  0  0  0  0  0  0  0  0  0
   44.5973    9.3787    9.5252 H   0  0  0  0  0  0  0  0  0  0  0  0
   41.8082   12.0942    8.6162 H   0  0  0  0  0  0  0  0  0  0  0  0
   41.5753    9.1510   12.2550 H   0  0  0  0  0  0  0  0  0  0  0  0
   39.8111   10.1595   10.3948 H   0  0  0  0  0  0  0  0  0  0  0  0
   45.7703   10.8735   10.7024 H   0  0  0  0  0  0  0  0  0  0  0  0
   41.9219   13.9853   11.0111 H   0  0  0  0  0  0  0  0  0  0  0  0
   42.2155   14.4408    9.3411 H   0  0  0  0  0  0  0  0  0  0  0  0
   39.8221   13.0716    9.8473 H   0  0  0  0  0  0  0  0  0  0  0  0
   41.1712   12.9611   10.7101 H   0  0  0  0  0  0  0  0  0  0  0  0
   42.1267   10.8639    8.6759 H   0  0  0  0  0  0  0  0  0  0  0  0
   40.9384    9.8930   10.9315 H   0  0  0  0  0  0  0  0  0  0  0  0
   43.8157   12.6692   10.4793 H   0  0  0  0  0  0  0  0  0  0  0  0
   39.7447   11.2399    8.8116 H   0  0  0  0  0  0  0  0  0  0  0  0
   39.6619   12.8797    9.0234 H   0  0  0  0  0  0  0  0  0  0  0  0
   43.3456    9.6218   10.6429 H   0  0  0  0  0  0  0  0  0  0  0  0
   41.4817   12.9350    7.8979 H   0  0  0  0  0  0  0  0  0  0  0  0
   44.5236   12.0733    8.3769 H   0  0  0  0  0  0  0  0  0  0  0  0
   40.3211   10.4749   13.0143 H   0  0  0  0  0  0  0  0  0  0  0  0
   45.6879   10.4589   11.2842 H   0  0  0  0  0  0  0  0  0  0  0  0
   44.9070   11.4365   12.5480 H   0  0  0  0  0  0  0  0  0  0  0  0
   44.7555    8.6165   12.2537 H   0  0  0  0  0  0  0  0  0  0  0  0
   41.4399   12.7870   10.5573 H   0  0  0  0  0  0  0  0  0  0  0  0
   44.3864   11.0924   10.6641 H   0  0  0  0  0  0  0  0  0  0  0  0
  2  1  1  0
  3  1  1  0
  4  3  1  0
  5  2  1  0
  1  6  1  0
  7  4  1  0
  2  8  1  0
  5  9  1  0
  3 10  1  0
  7 11  1  0
 12 11  1  0
  5  7  1  0
 14 13  1  0
 15 13  1  0
 16 15  1  0
 17 14  1  0
 13 18  1  0
 19 16  1  0
 14 20  1  0
 17 21  1  0
 15 22  1  0
 19 23  1  0
 24 23  1  0
 17 19  1  0
 25 26  2  0
 25 27  1  0
 25 28  1  0
 25 29  2  0
  1 30  1  6
  2 31  1  1
  3 32  1  6
  5 33  1  6
  6 34  1  0
  6 35  1  0
  7 36  1  1
  8 37  1  0
  9 38  1  0
 10 39  1  0
 11 40  1  0
 11 41  1  0
 12 42  1  0
 13 43  1  6
 14 44  1  1
 15 45  1  1
 17 46  1  6
 18 47  1  0
 18 48  1  0
 19 49  1  1
 20 50  1  0
 21 51  1  0
 22 52  1  0
 23 53  1  0
 23 54  1  0
 24 55  1  0
 27 56  1  0
 28 57  1  0
M  END
> <Uni-Dock RESULT> 
ENERGY=   -3.273  LOWER_BOUND=    5.714  UPPER_BOUND=    7.932
INTER + INTRA:          -3.273
INTER:                  -3.273
INTRA:                   0.000
UNBOUND:                 0.000

$$$$
