
     RDKit          3D

 57 56  0  0  0  0  0  0  0  0999 V2000
   46.5768    6.7740   13.2831 C   0  0  2  0  0  0  0  0  0  0  0  0
   46.4101    5.3262   12.7929 C   0  0  2  0  0  0  0  0  0  0  0  0
   45.4653    7.6898   12.6868 C   0  0  2  0  0  0  0  0  0  0  0  0
   45.0135    7.2052   11.4314 O   0  0  0  0  0  0  0  0  0  0  0  0
   44.9283    5.0097   12.6139 C   0  0  1  0  0  0  0  0  0  0  0  0
   47.9689    7.2231   13.0082 N   0  0  0  0  0  0  0  0  0  0  0  0
   44.3530    5.9294   11.5199 C   0  0  1  0  0  0  0  0  0  0  0  0
   46.9883    4.4110   13.7326 O   0  0  0  0  0  0  0  0  0  0  0  0
   44.7500    3.6385   12.2415 O   0  0  0  0  0  0  0  0  0  0  0  0
   45.9808    9.0007   12.4989 O   0  0  0  0  0  0  0  0  0  0  0  0
   42.8328    6.1137   11.6549 C   0  0  0  0  0  0  0  0  0  0  0  0
   42.1383    4.9073   11.9393 O   0  0  0  0  0  0  0  0  0  0  0  0
   43.7466    5.9596   12.2181 C   0  0  2  0  0  0  0  0  0  0  0  0
   44.8341    6.7863   11.5138 C   0  0  2  0  0  0  0  0  0  0  0  0
   44.3939    4.6640   12.7779 C   0  0  1  0  0  0  0  0  0  0  0  0
   45.4219    5.0173   13.6999 O   0  0  0  0  0  0  0  0  0  0  0  0
   46.0154    7.0350   12.4640 C   0  0  1  0  0  0  0  0  0  0  0  0
   42.5761    5.7007   11.3539 N   0  0  0  0  0  0  0  0  0  0  0  0
   46.5061    5.7005   13.0566 C   0  0  1  0  0  0  0  0  0  0  0  0
   44.3160    8.0469   11.0598 O   0  0  0  0  0  0  0  0  0  0  0  0
   47.0673    7.7059   11.7598 O   0  0  0  0  0  0  0  0  0  0  0  0
   43.4137    3.8784   13.4428 O   0  0  0  0  0  0  0  0  0  0  0  0
   47.6328    5.9287   14.0740 C   0  0  0  0  0  0  0  0  0  0  0  0
   48.8140    6.4379   13.4624 O   0  0  0  0  0  0  0  0  0  0  0  0
   45.3785    6.5689   12.3242 S   0  0  0  0  0  0  0  0  0  0  0  0
   45.2062    6.8019   10.9127 O   0  0  0  0  0  0  0  0  0  0  0  0
   46.3276    5.2892   12.5083 O   0  0  0  0  0  0  0  0  0  0  0  0
   43.9799    6.0020   12.8699 O   0  0  0  0  0  0  0  0  0  0  0  0
   45.8613    7.5635   13.2475 O   0  0  0  0  0  0  0  0  0  0  0  0
   46.4804    6.8101   14.3756 H   0  0  0  0  0  0  0  0  0  0  0  0
   46.9307    5.1599   11.8405 H   0  0  0  0  0  0  0  0  0  0  0  0
   44.6217    7.7638   13.3844 H   0  0  0  0  0  0  0  0  0  0  0  0
   44.4049    5.1463   13.5682 H   0  0  0  0  0  0  0  0  0  0  0  0
   48.0726    7.2785   11.9908 H   0  0  0  0  0  0  0  0  0  0  0  0
   47.9908    8.2195   13.2638 H   0  0  0  0  0  0  0  0  0  0  0  0
   44.5189    5.4408   10.5511 H   0  0  0  0  0  0  0  0  0  0  0  0
   47.8788    4.7751   13.9208 H   0  0  0  0  0  0  0  0  0  0  0  0
   45.3680    3.1411   12.8186 H   0  0  0  0  0  0  0  0  0  0  0  0
   45.2512    9.4981   12.0953 H   0  0  0  0  0  0  0  0  0  0  0  0
   42.4313    6.5307   10.7258 H   0  0  0  0  0  0  0  0  0  0  0  0
   42.5962    6.8339   12.4440 H   0  0  0  0  0  0  0  0  0  0  0  0
   42.6832    4.1555   11.6338 H   0  0  0  0  0  0  0  0  0  0  0  0
   43.3618    6.5468   13.0630 H   0  0  0  0  0  0  0  0  0  0  0  0
   45.1907    6.2674   10.6156 H   0  0  0  0  0  0  0  0  0  0  0  0
   44.8116    4.0476   11.9710 H   0  0  0  0  0  0  0  0  0  0  0  0
   45.6904    7.7085   13.2674 H   0  0  0  0  0  0  0  0  0  0  0  0
   42.3421    6.5677   10.8598 H   0  0  0  0  0  0  0  0  0  0  0  0
   42.8351    5.0461   10.6114 H   0  0  0  0  0  0  0  0  0  0  0  0
   46.9123    5.0725   12.2519 H   0  0  0  0  0  0  0  0  0  0  0  0
   43.8311    8.4620   11.7962 H   0  0  0  0  0  0  0  0  0  0  0  0
   46.6298    8.3693   11.1868 H   0  0  0  0  0  0  0  0  0  0  0  0
   42.5561    4.3118   13.2742 H   0  0  0  0  0  0  0  0  0  0  0  0
   47.8877    4.9876   14.5719 H   0  0  0  0  0  0  0  0  0  0  0  0
   47.3152    6.6235   14.8586 H   0  0  0  0  0  0  0  0  0  0  0  0
   48.5330    7.1098   12.8054 H   0  0  0  0  0  0  0  0  0  0  0  0
   46.8088    5.4103   13.3545 H   0  0  0  0  0  0  0  0  0  0  0  0
   43.5754    5.4792   12.1473 H   0  0  0  0  0  0  0  0  0  0  0  0
  2  1  1  0
  3  1  1  0
  4  3  1  0
  5  2  1  0
  1  6  1  0
  7  4  1  0
  2  8  1  0
  5  9  1  0
  3 10  1  0
  7 11  1  0
 12 11  1  0
  5  7  1  0
 14 13  1  0
 15 13  1  0
 16 15  1  0
 17 14  1  0
 13 18  1  0
 19 16  1  0
 14 20  1  0
 17 21  1  0
 15 22  1  0
 19 23  1  0
 24 23  1  0
 17 19  1  0
 25 26  2  0
 25 27  1  0
 25 28  1  0
 25 29  2  0
  1 30  1  6
  2 31  1  1
  3 32  1  6
  5 33  1  6
  6 34  1  0
  6 35  1  0
  7 36  1  1
  8 37  1  0
  9 38  1  0
 10 39  1  0
 11 40  1  0
 11 41  1  0
 12 42  1  0
 13 43  1  6
 14 44  1  1
 15 45  1  1
 17 46  1  6
 18 47  1  0
 18 48  1  0
 19 49  1  1
 20 50  1  0
 21 51  1  0
 22 52  1  0
 23 53  1  0
 23 54  1  0
 24 55  1  0
 27 56  1  0
 28 57  1  0
M  END
> <Uni-Dock RESULT> 
ENERGY=   -5.957  LOWER_BOUND=    0.000  UPPER_BOUND=    0.000
INTER + INTRA:          -5.957
INTER:                  -5.957
INTRA:                   0.000
UNBOUND:                 0.000

$$$$

     RDKit          3D

 57 56  0  0  0  0  0  0  0  0999 V2000
   46.3125    6.9077   12.5367 C   0  0  2  0  0  0  0  0  0  0  0  0
   44.7829    6.9647   12.6831 C   0  0  2  0  0  0  0  0  0  0  0  0
   46.8256    5.4423   12.6738 C   0  0  2  0  0  0  0  0  0  0  0  0
   45.9651    4.6670   13.4943 O   0  0  0  0  0  0  0  0  0  0  0  0
   44.1623    5.6946   12.1087 C   0  0  1  0  0  0  0  0  0  0  0  0
   46.9278    7.8754   13.4854 N   0  0  0  0  0  0  0  0  0  0  0  0
   44.6532    4.4871   12.9300 C   0  0  1  0  0  0  0  0  0  0  0  0
   44.2579    8.1097   11.9987 O   0  0  0  0  0  0  0  0  0  0  0  0
   42.7330    5.7687   12.1575 O   0  0  0  0  0  0  0  0  0  0  0  0
   48.1190    5.4456   13.2628 O   0  0  0  0  0  0  0  0  0  0  0  0
   44.5803    3.1738   12.1342 C   0  0  0  0  0  0  0  0  0  0  0  0
   43.3774    3.0260   11.3927 O   0  0  0  0  0  0  0  0  0  0  0  0
   44.7455    4.2417   12.0427 C   0  0  2  0  0  0  0  0  0  0  0  0
   45.5547    4.6624   13.2796 C   0  0  2  0  0  0  0  0  0  0  0  0
   43.7762    5.3957   11.6687 C   0  0  1  0  0  0  0  0  0  0  0  0
   44.5349    6.5693   11.3881 O   0  0  0  0  0  0  0  0  0  0  0  0
   46.2497    6.0097   13.0306 C   0  0  1  0  0  0  0  0  0  0  0  0
   44.0646    2.9422   12.2202 N   0  0  0  0  0  0  0  0  0  0  0  0
   45.2226    7.0524   12.5498 C   0  0  1  0  0  0  0  0  0  0  0  0
   46.5414    3.6739   13.6159 O   0  0  0  0  0  0  0  0  0  0  0  0
   46.9044    6.4431   14.2288 O   0  0  0  0  0  0  0  0  0  0  0  0
   43.0159    5.0402   10.5218 O   0  0  0  0  0  0  0  0  0  0  0  0
   45.9049    8.3858   12.2136 C   0  0  0  0  0  0  0  0  0  0  0  0
   46.4534    9.0147   13.3679 O   0  0  0  0  0  0  0  0  0  0  0  0
   45.6536    5.5300   12.7918 S   0  0  0  0  0  0  0  0  0  0  0  0
   45.4870    4.7321   13.9800 O   0  0  0  0  0  0  0  0  0  0  0  0
   44.6607    6.7858   12.8886 O   0  0  0  0  0  0  0  0  0  0  0  0
   44.9933    4.7015   11.5864 O   0  0  0  0  0  0  0  0  0  0  0  0
   46.9206    6.0526   12.3486 O   0  0  0  0  0  0  0  0  0  0  0  0
   46.6044    7.2658   11.5413 H   0  0  0  0  0  0  0  0  0  0  0  0
   44.4813    7.0686   13.7338 H   0  0  0  0  0  0  0  0  0  0  0  0
   46.9154    4.9789   11.6833 H   0  0  0  0  0  0  0  0  0  0  0  0
   44.4356    5.5973   11.0508 H   0  0  0  0  0  0  0  0  0  0  0  0
   46.7431    7.5293   14.4314 H   0  0  0  0  0  0  0  0  0  0  0  0
   47.9427    7.7220   13.4133 H   0  0  0  0  0  0  0  0  0  0  0  0
   43.9756    4.3667   13.7851 H   0  0  0  0  0  0  0  0  0  0  0  0
   44.8164    8.8576   12.2979 H   0  0  0  0  0  0  0  0  0  0  0  0
   42.5208    6.6817   11.8681 H   0  0  0  0  0  0  0  0  0  0  0  0
   48.3542    4.5077   13.3487 H   0  0  0  0  0  0  0  0  0  0  0  0
   44.6675    2.3254   12.8205 H   0  0  0  0  0  0  0  0  0  0  0  0
   45.4194    3.0940   11.4365 H   0  0  0  0  0  0  0  0  0  0  0  0
   42.6874    3.5818   11.8056 H   0  0  0  0  0  0  0  0  0  0  0  0
   45.4448    4.0936   11.2086 H   0  0  0  0  0  0  0  0  0  0  0  0
   44.9015    4.7450   14.1570 H   0  0  0  0  0  0  0  0  0  0  0  0
   43.0648    5.5961   12.4807 H   0  0  0  0  0  0  0  0  0  0  0  0
   47.0316    5.8722   12.2727 H   0  0  0  0  0  0  0  0  0  0  0  0
   44.7200    2.2931   12.6672 H   0  0  0  0  0  0  0  0  0  0  0  0
   43.3036    3.0423   12.8968 H   0  0  0  0  0  0  0  0  0  0  0  0
   44.4987    7.2470   13.3529 H   0  0  0  0  0  0  0  0  0  0  0  0
   47.0314    3.4423   12.8060 H   0  0  0  0  0  0  0  0  0  0  0  0
   47.3088    5.6420   14.6217 H   0  0  0  0  0  0  0  0  0  0  0  0
   43.2259    4.1062   10.3337 H   0  0  0  0  0  0  0  0  0  0  0  0
   45.1840    9.0752   11.7625 H   0  0  0  0  0  0  0  0  0  0  0  0
   46.7038    8.2410   11.4788 H   0  0  0  0  0  0  0  0  0  0  0  0
   46.8738    8.3121   13.9080 H   0  0  0  0  0  0  0  0  0  0  0  0
   45.0783    7.5189   12.3881 H   0  0  0  0  0  0  0  0  0  0  0  0
   44.2396    4.1980   11.9572 H   0  0  0  0  0  0  0  0  0  0  0  0
  2  1  1  0
  3  1  1  0
  4  3  1  0
  5  2  1  0
  1  6  1  0
  7  4  1  0
  2  8  1  0
  5  9  1  0
  3 10  1  0
  7 11  1  0
 12 11  1  0
  5  7  1  0
 14 13  1  0
 15 13  1  0
 16 15  1  0
 17 14  1  0
 13 18  1  0
 19 16  1  0
 14 20  1  0
 17 21  1  0
 15 22  1  0
 19 23  1  0
 24 23  1  0
 17 19  1  0
 25 26  2  0
 25 27  1  0
 25 28  1  0
 25 29  2  0
  1 30  1  6
  2 31  1  1
  3 32  1  6
  5 33  1  6
  6 34  1  0
  6 35  1  0
  7 36  1  1
  8 37  1  0
  9 38  1  0
 10 39  1  0
 11 40  1  0
 11 41  1  0
 12 42  1  0
 13 43  1  6
 14 44  1  1
 15 45  1  1
 17 46  1  6
 18 47  1  0
 18 48  1  0
 19 49  1  1
 20 50  1  0
 21 51  1  0
 22 52  1  0
 23 53  1  0
 23 54  1  0
 24 55  1  0
 27 56  1  0
 28 57  1  0
M  END
> <Uni-Dock RESULT> 
ENERGY=   -5.526  LOWER_BOUND=    1.214  UPPER_BOUND=    2.877
INTER + INTRA:          -5.526
INTER:                  -5.526
INTRA:                   0.000
UNBOUND:                 0.000

$$$$

     RDKit          3D

 57 56  0  0  0  0  0  0  0  0999 V2000
   44.7418    3.4595    9.1338 C   0  0  2  0  0  0  0  0  0  0  0  0
   45.4293    4.6699    9.7870 C   0  0  2  0  0  0  0  0  0  0  0  0
   43.8518    2.7060   10.1680 C   0  0  2  0  0  0  0  0  0  0  0  0
   44.3481    2.8615   11.4887 O   0  0  0  0  0  0  0  0  0  0  0  0
   44.5162    5.2684   10.8528 C   0  0  1  0  0  0  0  0  0  0  0  0
   45.7715    2.6173    8.4664 N   0  0  0  0  0  0  0  0  0  0  0  0
   44.2918    4.2205   11.9597 C   0  0  1  0  0  0  0  0  0  0  0  0
   45.7343    5.6639    8.8001 O   0  0  0  0  0  0  0  0  0  0  0  0
   45.1039    6.4490   11.4109 O   0  0  0  0  0  0  0  0  0  0  0  0
   43.8356    1.3190    9.8587 O   0  0  0  0  0  0  0  0  0  0  0  0
   42.9926    4.4702   12.7426 C   0  0  0  0  0  0  0  0  0  0  0  0
   42.7818    5.8363   13.0708 O   0  0  0  0  0  0  0  0  0  0  0  0
   43.4551    4.5648   11.7663 C   0  0  2  0  0  0  0  0  0  0  0  0
   44.3304    3.3155   11.5787 C   0  0  2  0  0  0  0  0  0  0  0  0
   44.1574    5.7690   11.0824 C   0  0  1  0  0  0  0  0  0  0  0  0
   44.3241    5.4852    9.6956 O   0  0  0  0  0  0  0  0  0  0  0  0
   44.6397    3.0985   10.0895 C   0  0  1  0  0  0  0  0  0  0  0  0
   43.1133    4.8157   13.1819 N   0  0  0  0  0  0  0  0  0  0  0  0
   45.2206    4.3875    9.4779 C   0  0  1  0  0  0  0  0  0  0  0  0
   43.6850    2.1451   12.1053 O   0  0  0  0  0  0  0  0  0  0  0  0
   45.5479    2.0007    9.9409 O   0  0  0  0  0  0  0  0  0  0  0  0
   43.3684    6.9416   11.2323 O   0  0  0  0  0  0  0  0  0  0  0  0
   45.4611    4.2242    7.9706 C   0  0  0  0  0  0  0  0  0  0  0  0
   46.4823    3.2719    7.6895 O   0  0  0  0  0  0  0  0  0  0  0  0
   44.4074    3.6380   10.6351 S   0  0  0  0  0  0  0  0  0  0  0  0
   44.9205    3.0181   11.8303 O   0  0  0  0  0  0  0  0  0  0  0  0
   45.5288    4.6335   10.0662 O   0  0  0  0  0  0  0  0  0  0  0  0
   43.2773    4.6759   11.1051 O   0  0  0  0  0  0  0  0  0  0  0  0
   43.9104    2.9022    9.5007 O   0  0  0  0  0  0  0  0  0  0  0  0
   44.0860    3.7979    8.3216 H   0  0  0  0  0  0  0  0  0  0  0  0
   46.3856    4.3905   10.2488 H   0  0  0  0  0  0  0  0  0  0  0  0
   42.8177    3.0685   10.1121 H   0  0  0  0  0  0  0  0  0  0  0  0
   43.5682    5.5763   10.3946 H   0  0  0  0  0  0  0  0  0  0  0  0
   46.3585    2.2173    9.2041 H   0  0  0  0  0  0  0  0  0  0  0  0
   45.2703    1.7812    8.1372 H   0  0  0  0  0  0  0  0  0  0  0  0
   45.1111    4.3185   12.6837 H   0  0  0  0  0  0  0  0  0  0  0  0
   46.1739    5.1706    8.0760 H   0  0  0  0  0  0  0  0  0  0  0  0
   45.4665    6.9353   10.6400 H   0  0  0  0  0  0  0  0  0  0  0  0
   43.2978    0.9155   10.5590 H   0  0  0  0  0  0  0  0  0  0  0  0
   43.0092    3.8919   13.6720 H   0  0  0  0  0  0  0  0  0  0  0  0
   42.1236    4.1205   12.1770 H   0  0  0  0  0  0  0  0  0  0  0  0
   43.6462    6.2927   13.0720 H   0  0  0  0  0  0  0  0  0  0  0  0
   42.4956    4.3912   11.2604 H   0  0  0  0  0  0  0  0  0  0  0  0
   45.2698    3.4166   12.1359 H   0  0  0  0  0  0  0  0  0  0  0  0
   45.1334    5.9732   11.5418 H   0  0  0  0  0  0  0  0  0  0  0  0
   43.7138    2.8180    9.5709 H   0  0  0  0  0  0  0  0  0  0  0  0
   42.8572    3.9227   13.6150 H   0  0  0  0  0  0  0  0  0  0  0  0
   43.9498    5.1147   13.6898 H   0  0  0  0  0  0  0  0  0  0  0  0
   46.1912    4.6059    9.9438 H   0  0  0  0  0  0  0  0  0  0  0  0
   42.7722    2.1192   11.7649 H   0  0  0  0  0  0  0  0  0  0  0  0
   45.2566    1.3192   10.5816 H   0  0  0  0  0  0  0  0  0  0  0  0
   42.6356    6.7031   11.8304 H   0  0  0  0  0  0  0  0  0  0  0  0
   45.7598    5.1811    7.5304 H   0  0  0  0  0  0  0  0  0  0  0  0
   44.5426    3.9163    7.4599 H   0  0  0  0  0  0  0  0  0  0  0  0
   46.3505    2.5171    8.3020 H   0  0  0  0  0  0  0  0  0  0  0  0
   45.4082    4.6732    9.0935 H   0  0  0  0  0  0  0  0  0  0  0  0
   43.5471    5.0243   11.9797 H   0  0  0  0  0  0  0  0  0  0  0  0
  2  1  1  0
  3  1  1  0
  4  3  1  0
  5  2  1  0
  1  6  1  0
  7  4  1  0
  2  8  1  0
  5  9  1  0
  3 10  1  0
  7 11  1  0
 12 11  1  0
  5  7  1  0
 14 13  1  0
 15 13  1  0
 16 15  1  0
 17 14  1  0
 13 18  1  0
 19 16  1  0
 14 20  1  0
 17 21  1  0
 15 22  1  0
 19 23  1  0
 24 23  1  0
 17 19  1  0
 25 26  2  0
 25 27  1  0
 25 28  1  0
 25 29  2  0
  1 30  1  6
  2 31  1  1
  3 32  1  6
  5 33  1  6
  6 34  1  0
  6 35  1  0
  7 36  1  1
  8 37  1  0
  9 38  1  0
 10 39  1  0
 11 40  1  0
 11 41  1  0
 12 42  1  0
 13 43  1  6
 14 44  1  1
 15 45  1  1
 17 46  1  6
 18 47  1  0
 18 48  1  0
 19 49  1  1
 20 50  1  0
 21 51  1  0
 22 52  1  0
 23 53  1  0
 23 54  1  0
 24 55  1  0
 27 56  1  0
 28 57  1  0
M  END
> <Uni-Dock RESULT> 
ENERGY=   -5.488  LOWER_BOUND=    2.603  UPPER_BOUND=    4.561
INTER + INTRA:          -5.488
INTER:                  -5.488
INTRA:                   0.000
UNBOUND:                 0.000

$$$$

     RDKit          3D

 57 56  0  0  0  0  0  0  0  0999 V2000
   44.2399    5.3408   12.6123 C   0  0  2  0  0  0  0  0  0  0  0  0
   44.1631    6.4382   11.5381 C   0  0  2  0  0  0  0  0  0  0  0  0
   45.6234    5.3670   13.3298 C   0  0  2  0  0  0  0  0  0  0  0  0
   46.6395    5.8717   12.4767 O   0  0  0  0  0  0  0  0  0  0  0  0
   44.9656    7.6559   11.9865 C   0  0  1  0  0  0  0  0  0  0  0  0
   43.8803    4.0336   11.9984 N   0  0  0  0  0  0  0  0  0  0  0  0
   46.4466    7.2527   12.1198 C   0  0  1  0  0  0  0  0  0  0  0  0
   42.7999    6.8175   11.3081 O   0  0  0  0  0  0  0  0  0  0  0  0
   44.8337    8.7204   11.0378 O   0  0  0  0  0  0  0  0  0  0  0  0
   45.9820    4.0475   13.7174 O   0  0  0  0  0  0  0  0  0  0  0  0
   47.2164    8.1740   13.0800 C   0  0  0  0  0  0  0  0  0  0  0  0
   46.9179    9.5519   12.9051 O   0  0  0  0  0  0  0  0  0  0  0  0
   46.2461    7.7298   12.8867 C   0  0  2  0  0  0  0  0  0  0  0  0
   46.5157    6.3061   12.3745 C   0  0  2  0  0  0  0  0  0  0  0  0
   44.9945    8.2898   12.1580 C   0  0  1  0  0  0  0  0  0  0  0  0
   43.8791    7.4458   12.4318 O   0  0  0  0  0  0  0  0  0  0  0  0
   45.2587    5.4362   12.5278 C   0  0  1  0  0  0  0  0  0  0  0  0
   47.4280    8.6101   12.7766 N   0  0  0  0  0  0  0  0  0  0  0  0
   44.0505    6.1351   11.8762 C   0  0  1  0  0  0  0  0  0  0  0  0
   47.6052    5.6960   13.0848 O   0  0  0  0  0  0  0  0  0  0  0  0
   45.4891    4.1491   11.9425 O   0  0  0  0  0  0  0  0  0  0  0  0
   44.7136    9.6059   12.6151 O   0  0  0  0  0  0  0  0  0  0  0  0
   42.7635    5.3255   12.0877 C   0  0  0  0  0  0  0  0  0  0  0  0
   42.7947    4.0778   11.4014 O   0  0  0  0  0  0  0  0  0  0  0  0
   45.5288    6.1898   12.4875 S   0  0  0  0  0  0  0  0  0  0  0  0
   46.7831    5.9677   11.8142 O   0  0  0  0  0  0  0  0  0  0  0  0
   44.4100    6.4865   11.3773 O   0  0  0  0  0  0  0  0  0  0  0  0
   45.6413    7.6194   13.2079 O   0  0  0  0  0  0  0  0  0  0  0  0
   44.9393    5.2559   13.4124 O   0  0  0  0  0  0  0  0  0  0  0  0
   43.4711    5.5136   13.3761 H   0  0  0  0  0  0  0  0  0  0  0  0
   44.5522    6.0868   10.5732 H   0  0  0  0  0  0  0  0  0  0  0  0
   45.5651    5.9743   14.2417 H   0  0  0  0  0  0  0  0  0  0  0  0
   44.5655    8.0309   12.9366 H   0  0  0  0  0  0  0  0  0  0  0  0
   44.6220    3.7990   11.3322 H   0  0  0  0  0  0  0  0  0  0  0  0
   44.0447    3.3317   12.7326 H   0  0  0  0  0  0  0  0  0  0  0  0
   46.9159    7.3736   11.1349 H   0  0  0  0  0  0  0  0  0  0  0  0
   42.3209    5.9702   11.1915 H   0  0  0  0  0  0  0  0  0  0  0  0
   43.8815    8.7273   10.8017 H   0  0  0  0  0  0  0  0  0  0  0  0
   46.8608    4.1380   14.1199 H   0  0  0  0  0  0  0  0  0  0  0  0
   48.2926    8.0344   12.9362 H   0  0  0  0  0  0  0  0  0  0  0  0
   47.0077    7.9125   14.1218 H   0  0  0  0  0  0  0  0  0  0  0  0
   46.5828    9.6846   11.9965 H   0  0  0  0  0  0  0  0  0  0  0  0
   46.0238    7.6722   13.9609 H   0  0  0  0  0  0  0  0  0  0  0  0
   46.8190    6.3273   11.3206 H   0  0  0  0  0  0  0  0  0  0  0  0
   45.1596    8.3506   11.0742 H   0  0  0  0  0  0  0  0  0  0  0  0
   45.0686    5.2705   13.5961 H   0  0  0  0  0  0  0  0  0  0  0  0
   48.2513    8.0849   13.0879 H   0  0  0  0  0  0  0  0  0  0  0  0
   47.6137    8.8147   11.7915 H   0  0  0  0  0  0  0  0  0  0  0  0
   44.2157    6.2125   10.7928 H   0  0  0  0  0  0  0  0  0  0  0  0
   47.4545    5.8174   14.0400 H   0  0  0  0  0  0  0  0  0  0  0  0
   46.4044    3.8999   12.1872 H   0  0  0  0  0  0  0  0  0  0  0  0
   45.4571    9.8584   13.1940 H   0  0  0  0  0  0  0  0  0  0  0  0
   41.8986    5.8903   11.7249 H   0  0  0  0  0  0  0  0  0  0  0  0
   42.5917    5.1370   13.1527 H   0  0  0  0  0  0  0  0  0  0  0  0
   43.6945    3.7055   11.5188 H   0  0  0  0  0  0  0  0  0  0  0  0
   43.5552    6.1739   11.7430 H   0  0  0  0  0  0  0  0  0  0  0  0
   46.2119    8.1843   12.6471 H   0  0  0  0  0  0  0  0  0  0  0  0
  2  1  1  0
  3  1  1  0
  4  3  1  0
  5  2  1  0
  1  6  1  0
  7  4  1  0
  2  8  1  0
  5  9  1  0
  3 10  1  0
  7 11  1  0
 12 11  1  0
  5  7  1  0
 14 13  1  0
 15 13  1  0
 16 15  1  0
 17 14  1  0
 13 18  1  0
 19 16  1  0
 14 20  1  0
 17 21  1  0
 15 22  1  0
 19 23  1  0
 24 23  1  0
 17 19  1  0
 25 26  2  0
 25 27  1  0
 25 28  1  0
 25 29  2  0
  1 30  1  6
  2 31  1  1
  3 32  1  6
  5 33  1  6
  6 34  1  0
  6 35  1  0
  7 36  1  1
  8 37  1  0
  9 38  1  0
 10 39  1  0
 11 40  1  0
 11 41  1  0
 12 42  1  0
 13 43  1  6
 14 44  1  1
 15 45  1  1
 17 46  1  6
 18 47  1  0
 18 48  1  0
 19 49  1  1
 20 50  1  0
 21 51  1  0
 22 52  1  0
 23 53  1  0
 23 54  1  0
 24 55  1  0
 27 56  1  0
 28 57  1  0
M  END
> <Uni-Dock RESULT> 
ENERGY=   -5.384  LOWER_BOUND=    1.139  UPPER_BOUND=    4.033
INTER + INTRA:          -5.384
INTER:                  -5.384
INTRA:                   0.000
UNBOUND:                 0.000

$$$$

     RDKit          3D

 57 56  0  0  0  0  0  0  0  0999 V2000
   44.8167    5.1518   12.1688 C   0  0  2  0  0  0  0  0  0  0  0  0
   44.5594    5.5835   10.7156 C   0  0  2  0  0  0  0  0  0  0  0  0
   44.4990    3.6377   12.3590 C   0  0  2  0  0  0  0  0  0  0  0  0
   43.5038    3.1990   11.4468 O   0  0  0  0  0  0  0  0  0  0  0  0
   44.8819    4.4302    9.7702 C   0  0  1  0  0  0  0  0  0  0  0  0
   44.0789    6.0638   13.0847 N   0  0  0  0  0  0  0  0  0  0  0  0
   43.9277    3.2589   10.0726 C   0  0  1  0  0  0  0  0  0  0  0  0
   45.3666    6.7203   10.3819 O   0  0  0  0  0  0  0  0  0  0  0  0
   44.7314    4.8423    8.4071 O   0  0  0  0  0  0  0  0  0  0  0  0
   44.0222    3.4152   13.6792 O   0  0  0  0  0  0  0  0  0  0  0  0
   44.5054    1.9070    9.6235 C   0  0  0  0  0  0  0  0  0  0  0  0
   45.1174    1.9493    8.3420 O   0  0  0  0  0  0  0  0  0  0  0  0
   44.7717    2.8853   10.0082 C   0  0  2  0  0  0  0  0  0  0  0  0
   43.6819    3.2626   11.0241 C   0  0  2  0  0  0  0  0  0  0  0  0
   45.2390    4.1751    9.2809 C   0  0  1  0  0  0  0  0  0  0  0  0
   45.7549    5.0918   10.2427 O   0  0  0  0  0  0  0  0  0  0  0  0
   44.1882    4.3657   11.9659 C   0  0  1  0  0  0  0  0  0  0  0  0
   44.3443    1.8157    9.0824 N   0  0  0  0  0  0  0  0  0  0  0  0
   44.7391    5.5478   11.1461 C   0  0  1  0  0  0  0  0  0  0  0  0
   43.2784    2.1233   11.8004 O   0  0  0  0  0  0  0  0  0  0  0  0
   43.1262    4.7863   12.8304 O   0  0  0  0  0  0  0  0  0  0  0  0
   46.2540    3.8609    8.3370 O   0  0  0  0  0  0  0  0  0  0  0  0
   45.3281    6.6291   12.0628 C   0  0  0  0  0  0  0  0  0  0  0  0
   44.3307    7.2572   12.8625 O   0  0  0  0  0  0  0  0  0  0  0  0
   44.3027    4.0117   11.2559 S   0  0  0  0  0  0  0  0  0  0  0  0
   42.9972    3.4369   11.0525 O   0  0  0  0  0  0  0  0  0  0  0  0
   44.3200    5.4666   10.5810 O   0  0  0  0  0  0  0  0  0  0  0  0
   45.3111    3.2109   10.2983 O   0  0  0  0  0  0  0  0  0  0  0  0
   44.9200    4.1611   12.5488 O   0  0  0  0  0  0  0  0  0  0  0  0
   45.8752    5.2987   12.4185 H   0  0  0  0  0  0  0  0  0  0  0  0
   43.5162    5.8912   10.5644 H   0  0  0  0  0  0  0  0  0  0  0  0
   45.4110    3.0411   12.2327 H   0  0  0  0  0  0  0  0  0  0  0  0
   45.9310    4.1345    9.8947 H   0  0  0  0  0  0  0  0  0  0  0  0
   43.0795    5.8969   12.9360 H   0  0  0  0  0  0  0  0  0  0  0  0
   44.2074    5.6692   14.0263 H   0  0  0  0  0  0  0  0  0  0  0  0
   43.0130    3.4130    9.4857 H   0  0  0  0  0  0  0  0  0  0  0  0
   45.2304    7.3493   11.1213 H   0  0  0  0  0  0  0  0  0  0  0  0
   45.1389    5.7339    8.3698 H   0  0  0  0  0  0  0  0  0  0  0  0
   43.8132    2.4677   13.7104 H   0  0  0  0  0  0  0  0  0  0  0  0
   43.7068    1.1586    9.5985 H   0  0  0  0  0  0  0  0  0  0  0  0
   45.2474    1.5428   10.3405 H   0  0  0  0  0  0  0  0  0  0  0  0
   44.7406    2.7001    7.8421 H   0  0  0  0  0  0  0  0  0  0  0  0
   45.6264    2.4703   10.5595 H   0  0  0  0  0  0  0  0  0  0  0  0
   42.7782    3.6093   10.5079 H   0  0  0  0  0  0  0  0  0  0  0  0
   44.4131    4.6405    8.7270 H   0  0  0  0  0  0  0  0  0  0  0  0
   44.9761    3.9514   12.6081 H   0  0  0  0  0  0  0  0  0  0  0  0
   43.8571    1.0953    9.6250 H   0  0  0  0  0  0  0  0  0  0  0  0
   43.6324    2.1784    8.4432 H   0  0  0  0  0  0  0  0  0  0  0  0
   43.9201    6.0094   10.5777 H   0  0  0  0  0  0  0  0  0  0  0  0
   44.0799    1.6798   12.1332 H   0  0  0  0  0  0  0  0  0  0  0  0
   42.6490    3.9710   13.0901 H   0  0  0  0  0  0  0  0  0  0  0  0
   46.3134    2.8874    8.3138 H   0  0  0  0  0  0  0  0  0  0  0  0
   45.8203    7.4032   11.4652 H   0  0  0  0  0  0  0  0  0  0  0  0
   46.0936    6.2070   12.7224 H   0  0  0  0  0  0  0  0  0  0  0  0
   43.7250    6.5523   13.1760 H   0  0  0  0  0  0  0  0  0  0  0  0
   44.9581    6.0099   11.0907 H   0  0  0  0  0  0  0  0  0  0  0  0
   44.8089    2.9504    9.4988 H   0  0  0  0  0  0  0  0  0  0  0  0
  2  1  1  0
  3  1  1  0
  4  3  1  0
  5  2  1  0
  1  6  1  0
  7  4  1  0
  2  8  1  0
  5  9  1  0
  3 10  1  0
  7 11  1  0
 12 11  1  0
  5  7  1  0
 14 13  1  0
 15 13  1  0
 16 15  1  0
 17 14  1  0
 13 18  1  0
 19 16  1  0
 14 20  1  0
 17 21  1  0
 15 22  1  0
 19 23  1  0
 24 23  1  0
 17 19  1  0
 25 26  2  0
 25 27  1  0
 25 28  1  0
 25 29  2  0
  1 30  1  6
  2 31  1  1
  3 32  1  6
  5 33  1  6
  6 34  1  0
  6 35  1  0
  7 36  1  1
  8 37  1  0
  9 38  1  0
 10 39  1  0
 11 40  1  0
 11 41  1  0
 12 42  1  0
 13 43  1  6
 14 44  1  1
 15 45  1  1
 17 46  1  6
 18 47  1  0
 18 48  1  0
 19 49  1  1
 20 50  1  0
 21 51  1  0
 22 52  1  0
 23 53  1  0
 23 54  1  0
 24 55  1  0
 27 56  1  0
 28 57  1  0
M  END
> <Uni-Dock RESULT> 
ENERGY=   -5.210  LOWER_BOUND=    2.423  UPPER_BOUND=    4.137
INTER + INTRA:          -5.210
INTER:                  -5.210
INTRA:                   0.000
UNBOUND:                 0.000

$$$$

     RDKit          3D

 57 56  0  0  0  0  0  0  0  0999 V2000
   44.8202    5.1048   12.1640 C   0  0  2  0  0  0  0  0  0  0  0  0
   45.7477    5.1512   13.3895 C   0  0  2  0  0  0  0  0  0  0  0  0
   44.7068    6.5125   11.5043 C   0  0  2  0  0  0  0  0  0  0  0  0
   44.8975    7.5475   12.4568 O   0  0  0  0  0  0  0  0  0  0  0  0
   46.8577    6.1720   13.1577 C   0  0  1  0  0  0  0  0  0  0  0  0
   43.5215    4.4952   12.5601 N   0  0  0  0  0  0  0  0  0  0  0  0
   46.2249    7.5692   13.0130 C   0  0  1  0  0  0  0  0  0  0  0  0
   46.3226    3.8602   13.6300 O   0  0  0  0  0  0  0  0  0  0  0  0
   47.7809    6.1659   14.2524 O   0  0  0  0  0  0  0  0  0  0  0  0
   43.4147    6.6658   10.9326 O   0  0  0  0  0  0  0  0  0  0  0  0
   47.1257    8.5377   12.2296 C   0  0  0  0  0  0  0  0  0  0  0  0
   48.4948    8.4657   12.6020 O   0  0  0  0  0  0  0  0  0  0  0  0
   46.8352    7.4969   12.3214 C   0  0  2  0  0  0  0  0  0  0  0  0
   45.3275    7.4928   12.6197 C   0  0  2  0  0  0  0  0  0  0  0  0
   47.4947    6.3171   13.0856 C   0  0  1  0  0  0  0  0  0  0  0  0
   46.9075    5.0934   12.6505 O   0  0  0  0  0  0  0  0  0  0  0  0
   44.7224    6.1184   12.2952 C   0  0  1  0  0  0  0  0  0  0  0  0
   47.4697    8.8016   12.6024 N   0  0  0  0  0  0  0  0  0  0  0  0
   45.5209    5.0091   13.0058 C   0  0  1  0  0  0  0  0  0  0  0  0
   44.6449    8.5036   11.8609 O   0  0  0  0  0  0  0  0  0  0  0  0
   43.3442    6.0944   12.6852 O   0  0  0  0  0  0  0  0  0  0  0  0
   48.8916    6.2888   12.8249 O   0  0  0  0  0  0  0  0  0  0  0  0
   44.9882    3.6188   12.6318 C   0  0  0  0  0  0  0  0  0  0  0  0
   43.6687    3.3995   13.1212 O   0  0  0  0  0  0  0  0  0  0  0  0
   45.4034    6.5086   12.4583 S   0  0  0  0  0  0  0  0  0  0  0  0
   44.8704    7.6663   13.1306 O   0  0  0  0  0  0  0  0  0  0  0  0
   45.7283    5.3929   13.5637 O   0  0  0  0  0  0  0  0  0  0  0  0
   46.8798    6.9020   11.9676 O   0  0  0  0  0  0  0  0  0  0  0  0
   44.7303    5.8254   11.3835 O   0  0  0  0  0  0  0  0  0  0  0  0
   45.2331    4.4219   11.4108 H   0  0  0  0  0  0  0  0  0  0  0  0
   45.1983    5.4187   14.3018 H   0  0  0  0  0  0  0  0  0  0  0  0
   45.4399    6.6105   10.6939 H   0  0  0  0  0  0  0  0  0  0  0  0
   47.4299    5.8968   12.2631 H   0  0  0  0  0  0  0  0  0  0  0  0
   43.0672    5.1466   13.2066 H   0  0  0  0  0  0  0  0  0  0  0  0
   42.9149    4.5816   11.7335 H   0  0  0  0  0  0  0  0  0  0  0  0
   46.1186    7.9939   14.0196 H   0  0  0  0  0  0  0  0  0  0  0  0
   45.5645    3.2395   13.6007 H   0  0  0  0  0  0  0  0  0  0  0  0
   47.9203    5.2164   14.4556 H   0  0  0  0  0  0  0  0  0  0  0  0
   43.4069    7.5693   10.5773 H   0  0  0  0  0  0  0  0  0  0  0  0
   46.7806    9.5649   12.3855 H   0  0  0  0  0  0  0  0  0  0  0  0
   47.0577    8.3492   11.1539 H   0  0  0  0  0  0  0  0  0  0  0  0
   48.5518    8.1053   13.5089 H   0  0  0  0  0  0  0  0  0  0  0  0
   46.9727    7.3312   11.2443 H   0  0  0  0  0  0  0  0  0  0  0  0
   45.1432    7.7333   13.6740 H   0  0  0  0  0  0  0  0  0  0  0  0
   47.3689    6.4266   14.1708 H   0  0  0  0  0  0  0  0  0  0  0  0
   44.7483    5.9658   11.2085 H   0  0  0  0  0  0  0  0  0  0  0  0
   46.8589    9.5416   12.2419 H   0  0  0  0  0  0  0  0  0  0  0  0
   47.4945    8.9613   13.6128 H   0  0  0  0  0  0  0  0  0  0  0  0
   45.4112    5.1215   14.0931 H   0  0  0  0  0  0  0  0  0  0  0  0
   44.9272    8.4315   10.9309 H   0  0  0  0  0  0  0  0  0  0  0  0
   42.9765    6.9674   12.4354 H   0  0  0  0  0  0  0  0  0  0  0  0
   49.0908    7.0967   12.3157 H   0  0  0  0  0  0  0  0  0  0  0  0
   45.6374    2.8417   13.0479 H   0  0  0  0  0  0  0  0  0  0  0  0
   44.9882    3.4802   11.5455 H   0  0  0  0  0  0  0  0  0  0  0  0
   43.1653    4.2291   12.9779 H   0  0  0  0  0  0  0  0  0  0  0  0
   45.6262    4.5205   13.1271 H   0  0  0  0  0  0  0  0  0  0  0  0
   47.2493    7.5258   12.6261 H   0  0  0  0  0  0  0  0  0  0  0  0
  2  1  1  0
  3  1  1  0
  4  3  1  0
  5  2  1  0
  1  6  1  0
  7  4  1  0
  2  8  1  0
  5  9  1  0
  3 10  1  0
  7 11  1  0
 12 11  1  0
  5  7  1  0
 14 13  1  0
 15 13  1  0
 16 15  1  0
 17 14  1  0
 13 18  1  0
 19 16  1  0
 14 20  1  0
 17 21  1  0
 15 22  1  0
 19 23  1  0
 24 23  1  0
 17 19  1  0
 25 26  2  0
 25 27  1  0
 25 28  1  0
 25 29  2  0
  1 30  1  6
  2 31  1  1
  3 32  1  6
  5 33  1  6
  6 34  1  0
  6 35  1  0
  7 36  1  1
  8 37  1  0
  9 38  1  0
 10 39  1  0
 11 40  1  0
 11 41  1  0
 12 42  1  0
 13 43  1  6
 14 44  1  1
 15 45  1  1
 17 46  1  6
 18 47  1  0
 18 48  1  0
 19 49  1  1
 20 50  1  0
 21 51  1  0
 22 52  1  0
 23 53  1  0
 23 54  1  0
 24 55  1  0
 27 56  1  0
 28 57  1  0
M  END
> <Uni-Dock RESULT> 
ENERGY=   -5.078  LOWER_BOUND=    1.067  UPPER_BOUND=    3.549
INTER + INTRA:          -5.078
INTER:                  -5.078
INTRA:                   0.000
UNBOUND:                 0.000

$$$$

     RDKit          3D

 57 56  0  0  0  0  0  0  0  0999 V2000
   43.4472    4.6472   11.6861 C   0  0  2  0  0  0  0  0  0  0  0  0
   44.3071    3.3771   11.5777 C   0  0  2  0  0  0  0  0  0  0  0  0
   43.8611    5.6878   10.6018 C   0  0  2  0  0  0  0  0  0  0  0  0
   45.2276    5.5472   10.2443 O   0  0  0  0  0  0  0  0  0  0  0  0
   44.6650    3.1197   10.1170 C   0  0  1  0  0  0  0  0  0  0  0  0
   43.4983    5.1509   13.0856 N   0  0  0  0  0  0  0  0  0  0  0  0
   45.5198    4.2931    9.6012 C   0  0  1  0  0  0  0  0  0  0  0  0
   43.5994    2.2482   12.1067 O   0  0  0  0  0  0  0  0  0  0  0  0
   45.3923    1.8929    9.9879 O   0  0  0  0  0  0  0  0  0  0  0  0
   43.6656    7.0019   11.1063 O   0  0  0  0  0  0  0  0  0  0  0  0
   45.4478    4.4374    8.0724 C   0  0  0  0  0  0  0  0  0  0  0  0
   45.5357    3.1993    7.3811 O   0  0  0  0  0  0  0  0  0  0  0  0
   44.8817    4.1411    8.9486 C   0  0  2  0  0  0  0  0  0  0  0  0
   45.2695    5.1215   10.0669 C   0  0  2  0  0  0  0  0  0  0  0  0
   44.6340    2.7438    9.5788 C   0  0  1  0  0  0  0  0  0  0  0  0
   43.5826    2.8437   10.5360 O   0  0  0  0  0  0  0  0  0  0  0  0
   44.2074    5.1131   11.1769 C   0  0  1  0  0  0  0  0  0  0  0  0
   45.8629    4.1173    7.8438 N   0  0  0  0  0  0  0  0  0  0  0  0
   43.9491    3.6697   11.6492 C   0  0  1  0  0  0  0  0  0  0  0  0
   45.4155    6.4573    9.5591 O   0  0  0  0  0  0  0  0  0  0  0  0
   44.6381    5.9430   12.2623 O   0  0  0  0  0  0  0  0  0  0  0  0
   44.2660    1.8132    8.5695 O   0  0  0  0  0  0  0  0  0  0  0  0
   42.8314    3.6240   12.7005 C   0  0  0  0  0  0  0  0  0  0  0  0
   43.2059    4.2737   13.9115 O   0  0  0  0  0  0  0  0  0  0  0  0
   44.5076    4.7000   10.5590 S   0  0  0  0  0  0  0  0  0  0  0  0
   45.8185    5.2926   10.4784 O   0  0  0  0  0  0  0  0  0  0  0  0
   44.5965    3.4156   11.5153 O   0  0  0  0  0  0  0  0  0  0  0  0
   44.2266    4.0120    9.1366 O   0  0  0  0  0  0  0  0  0  0  0  0
   43.3262    5.4195   10.9611 O   0  0  0  0  0  0  0  0  0  0  0  0
   42.3922    4.3978   11.5155 H   0  0  0  0  0  0  0  0  0  0  0  0
   45.2313    3.4639   12.1643 H   0  0  0  0  0  0  0  0  0  0  0  0
   43.2287    5.5785    9.7119 H   0  0  0  0  0  0  0  0  0  0  0  0
   43.7468    3.0037    9.5280 H   0  0  0  0  0  0  0  0  0  0  0  0
   44.4565    5.4691   13.2569 H   0  0  0  0  0  0  0  0  0  0  0  0
   42.9917    6.0464   13.0731 H   0  0  0  0  0  0  0  0  0  0  0  0
   46.5682    4.0733    9.8406 H   0  0  0  0  0  0  0  0  0  0  0  0
   43.2615    2.5499   12.9761 H   0  0  0  0  0  0  0  0  0  0  0  0
   44.9226    1.2618   10.5739 H   0  0  0  0  0  0  0  0  0  0  0  0
   43.9759    7.5879   10.3972 H   0  0  0  0  0  0  0  0  0  0  0  0
   46.2624    5.0823    7.7275 H   0  0  0  0  0  0  0  0  0  0  0  0
   44.5172    4.9276    7.7708 H   0  0  0  0  0  0  0  0  0  0  0  0
   45.9873    2.5524    7.9582 H   0  0  0  0  0  0  0  0  0  0  0  0
   43.9423    4.4884    8.4977 H   0  0  0  0  0  0  0  0  0  0  0  0
   46.2446    4.8539   10.4922 H   0  0  0  0  0  0  0  0  0  0  0  0
   45.5422    2.3583   10.0605 H   0  0  0  0  0  0  0  0  0  0  0  0
   43.2813    5.5545   10.7868 H   0  0  0  0  0  0  0  0  0  0  0  0
   46.1299    5.0833    7.6289 H   0  0  0  0  0  0  0  0  0  0  0  0
   46.7300    3.6783    8.1635 H   0  0  0  0  0  0  0  0  0  0  0  0
   44.8591    3.2725   12.1195 H   0  0  0  0  0  0  0  0  0  0  0  0
   44.6321    6.6670    9.0186 H   0  0  0  0  0  0  0  0  0  0  0  0
   45.0481    6.7331   11.8532 H   0  0  0  0  0  0  0  0  0  0  0  0
   44.3756    2.2764    7.7180 H   0  0  0  0  0  0  0  0  0  0  0  0
   42.5786    2.5855   12.9373 H   0  0  0  0  0  0  0  0  0  0  0  0
   41.9174    4.0910   12.3188 H   0  0  0  0  0  0  0  0  0  0  0  0
   43.6838    5.0938   13.6640 H   0  0  0  0  0  0  0  0  0  0  0  0
   43.7165    3.3117   11.9360 H   0  0  0  0  0  0  0  0  0  0  0  0
   45.0867    3.6958    8.7908 H   0  0  0  0  0  0  0  0  0  0  0  0
  2  1  1  0
  3  1  1  0
  4  3  1  0
  5  2  1  0
  1  6  1  0
  7  4  1  0
  2  8  1  0
  5  9  1  0
  3 10  1  0
  7 11  1  0
 12 11  1  0
  5  7  1  0
 14 13  1  0
 15 13  1  0
 16 15  1  0
 17 14  1  0
 13 18  1  0
 19 16  1  0
 14 20  1  0
 17 21  1  0
 15 22  1  0
 19 23  1  0
 24 23  1  0
 17 19  1  0
 25 26  2  0
 25 27  1  0
 25 28  1  0
 25 29  2  0
  1 30  1  6
  2 31  1  1
  3 32  1  6
  5 33  1  6
  6 34  1  0
  6 35  1  0
  7 36  1  1
  8 37  1  0
  9 38  1  0
 10 39  1  0
 11 40  1  0
 11 41  1  0
 12 42  1  0
 13 43  1  6
 14 44  1  1
 15 45  1  1
 17 46  1  6
 18 47  1  0
 18 48  1  0
 19 49  1  1
 20 50  1  0
 21 51  1  0
 22 52  1  0
 23 53  1  0
 23 54  1  0
 24 55  1  0
 27 56  1  0
 28 57  1  0
M  END
> <Uni-Dock RESULT> 
ENERGY=   -4.386  LOWER_BOUND=    2.570  UPPER_BOUND=    3.903
INTER + INTRA:          -4.386
INTER:                  -4.386
INTRA:                   0.000
UNBOUND:                 0.000

$$$$

     RDKit          3D

 57 56  0  0  0  0  0  0  0  0999 V2000
   44.9601    8.3533   12.3246 C   0  0  2  0  0  0  0  0  0  0  0  0
   46.2511    9.1634   12.1213 C   0  0  2  0  0  0  0  0  0  0  0  0
   45.2878    6.8931   12.7602 C   0  0  2  0  0  0  0  0  0  0  0  0
   46.5500    6.4754   12.2628 O   0  0  0  0  0  0  0  0  0  0  0  0
   47.3151    8.6944   13.1092 C   0  0  1  0  0  0  0  0  0  0  0  0
   44.1183    8.4655   11.1024 N   0  0  0  0  0  0  0  0  0  0  0  0
   47.6517    7.2203   12.8134 C   0  0  1  0  0  0  0  0  0  0  0  0
   45.9988   10.5616   12.3125 O   0  0  0  0  0  0  0  0  0  0  0  0
   48.4955    9.4968   12.9930 O   0  0  0  0  0  0  0  0  0  0  0  0
   44.2952    6.0122   12.2520 O   0  0  0  0  0  0  0  0  0  0  0  0
   48.2353    6.4995   14.0394 C   0  0  0  0  0  0  0  0  0  0  0  0
   49.1975    7.2701   14.7456 O   0  0  0  0  0  0  0  0  0  0  0  0
   47.5418    7.2739   13.7306 C   0  0  2  0  0  0  0  0  0  0  0  0
   46.8619    6.7613   12.4511 C   0  0  2  0  0  0  0  0  0  0  0  0
   47.7152    8.8127   13.6171 C   0  0  1  0  0  0  0  0  0  0  0  0
   46.4332    9.4161   13.4621 O   0  0  0  0  0  0  0  0  0  0  0  0
   45.5519    7.5236   12.2001 C   0  0  1  0  0  0  0  0  0  0  0  0
   48.8033    6.5651   14.0305 N   0  0  0  0  0  0  0  0  0  0  0  0
   45.8115    9.0418   12.2254 C   0  0  1  0  0  0  0  0  0  0  0  0
   46.5839    5.3547   12.5383 O   0  0  0  0  0  0  0  0  0  0  0  0
   44.9896    7.1160   10.9471 O   0  0  0  0  0  0  0  0  0  0  0  0
   48.3366    9.3202   14.7902 O   0  0  0  0  0  0  0  0  0  0  0  0
   44.5039    9.8288   12.0600 C   0  0  0  0  0  0  0  0  0  0  0  0
   43.9253    9.6447   10.7715 O   0  0  0  0  0  0  0  0  0  0  0  0
   46.2560    7.5461   12.5825 S   0  0  0  0  0  0  0  0  0  0  0  0
   47.0068    6.6198   11.7736 O   0  0  0  0  0  0  0  0  0  0  0  0
   46.4805    9.0211   11.9938 O   0  0  0  0  0  0  0  0  0  0  0  0
   47.0206    7.6513   13.9895 O   0  0  0  0  0  0  0  0  0  0  0  0
   44.8433    7.4256   12.8367 O   0  0  0  0  0  0  0  0  0  0  0  0
   44.3585    8.8065   13.1227 H   0  0  0  0  0  0  0  0  0  0  0  0
   46.6379    9.0570   11.0992 H   0  0  0  0  0  0  0  0  0  0  0  0
   45.2718    6.8122   13.8542 H   0  0  0  0  0  0  0  0  0  0  0  0
   46.9476    8.8234   14.1348 H   0  0  0  0  0  0  0  0  0  0  0  0
   44.6145    7.9810   10.3488 H   0  0  0  0  0  0  0  0  0  0  0  0
   43.3243    7.8297   11.2572 H   0  0  0  0  0  0  0  0  0  0  0  0
   48.4353    7.2041   12.0450 H   0  0  0  0  0  0  0  0  0  0  0  0
   45.2020   10.7480   11.7727 H   0  0  0  0  0  0  0  0  0  0  0  0
   48.1646   10.4169   12.9140 H   0  0  0  0  0  0  0  0  0  0  0  0
   44.5835    5.1277   12.5297 H   0  0  0  0  0  0  0  0  0  0  0  0
   48.7090    5.5648   13.7225 H   0  0  0  0  0  0  0  0  0  0  0  0
   47.4434    6.2217   14.7416 H   0  0  0  0  0  0  0  0  0  0  0  0
   49.5737    7.9338   14.1343 H   0  0  0  0  0  0  0  0  0  0  0  0
   46.8787    7.0624   14.5804 H   0  0  0  0  0  0  0  0  0  0  0  0
   47.5266    6.8828   11.5870 H   0  0  0  0  0  0  0  0  0  0  0  0
   48.3583    9.0787   12.7679 H   0  0  0  0  0  0  0  0  0  0  0  0
   44.8269    7.2511   12.9779 H   0  0  0  0  0  0  0  0  0  0  0  0
   48.6540    5.5625   13.8783 H   0  0  0  0  0  0  0  0  0  0  0  0
   49.5151    6.8241   13.3427 H   0  0  0  0  0  0  0  0  0  0  0  0
   46.4666    9.3129   11.3862 H   0  0  0  0  0  0  0  0  0  0  0  0
   46.1441    5.1815   13.3906 H   0  0  0  0  0  0  0  0  0  0  0  0
   45.1197    6.1465   10.8942 H   0  0  0  0  0  0  0  0  0  0  0  0
   48.5963    8.5430   15.3197 H   0  0  0  0  0  0  0  0  0  0  0  0
   44.6877   10.8991   12.1990 H   0  0  0  0  0  0  0  0  0  0  0  0
   43.7723    9.5341   12.8196 H   0  0  0  0  0  0  0  0  0  0  0  0
   44.0181    8.6946   10.5459 H   0  0  0  0  0  0  0  0  0  0  0  0
   45.6704    9.5356   12.1968 H   0  0  0  0  0  0  0  0  0  0  0  0
   47.9768    7.5374   13.8108 H   0  0  0  0  0  0  0  0  0  0  0  0
  2  1  1  0
  3  1  1  0
  4  3  1  0
  5  2  1  0
  1  6  1  0
  7  4  1  0
  2  8  1  0
  5  9  1  0
  3 10  1  0
  7 11  1  0
 12 11  1  0
  5  7  1  0
 14 13  1  0
 15 13  1  0
 16 15  1  0
 17 14  1  0
 13 18  1  0
 19 16  1  0
 14 20  1  0
 17 21  1  0
 15 22  1  0
 19 23  1  0
 24 23  1  0
 17 19  1  0
 25 26  2  0
 25 27  1  0
 25 28  1  0
 25 29  2  0
  1 30  1  6
  2 31  1  1
  3 32  1  6
  5 33  1  6
  6 34  1  0
  6 35  1  0
  7 36  1  1
  8 37  1  0
  9 38  1  0
 10 39  1  0
 11 40  1  0
 11 41  1  0
 12 42  1  0
 13 43  1  6
 14 44  1  1
 15 45  1  1
 17 46  1  6
 18 47  1  0
 18 48  1  0
 19 49  1  1
 20 50  1  0
 21 51  1  0
 22 52  1  0
 23 53  1  0
 23 54  1  0
 24 55  1  0
 27 56  1  0
 28 57  1  0
M  END
> <Uni-Dock RESULT> 
ENERGY=   -4.313  LOWER_BOUND=    1.635  UPPER_BOUND=    4.518
INTER + INTRA:          -4.313
INTER:                  -4.313
INTRA:                   0.000
UNBOUND:                 0.000

$$$$

     RDKit          3D

 57 56  0  0  0  0  0  0  0  0999 V2000
   46.8582    6.1405   13.6396 C   0  0  2  0  0  0  0  0  0  0  0  0
   45.9761    6.5161   12.4375 C   0  0  2  0  0  0  0  0  0  0  0  0
   47.9528    7.2237   13.8807 C   0  0  2  0  0  0  0  0  0  0  0  0
   48.3007    7.8855   12.6741 O   0  0  0  0  0  0  0  0  0  0  0  0
   45.8299    8.0329   12.3592 C   0  0  1  0  0  0  0  0  0  0  0  0
   47.3789    4.7595   13.4478 N   0  0  0  0  0  0  0  0  0  0  0  0
   47.2189    8.6535   12.1159 C   0  0  1  0  0  0  0  0  0  0  0  0
   44.6815    5.9128   12.5600 O   0  0  0  0  0  0  0  0  0  0  0  0
   44.9406    8.3965   11.2973 O   0  0  0  0  0  0  0  0  0  0  0  0
   49.1219    6.6084   14.4043 O   0  0  0  0  0  0  0  0  0  0  0  0
   47.2930   10.1157   12.5847 C   0  0  0  0  0  0  0  0  0  0  0  0
   46.1522   10.8840   12.2285 O   0  0  0  0  0  0  0  0  0  0  0  0
   46.8344    9.1551   12.7917 C   0  0  2  0  0  0  0  0  0  0  0  0
   47.9140    8.0937   12.5271 C   0  0  2  0  0  0  0  0  0  0  0  0
   45.4554    8.5727   12.3791 C   0  0  1  0  0  0  0  0  0  0  0  0
   45.1957    7.4004   13.1472 O   0  0  0  0  0  0  0  0  0  0  0  0
   47.5527    6.7770   13.2315 C   0  0  1  0  0  0  0  0  0  0  0  0
   47.1368   10.4505   12.1482 N   0  0  0  0  0  0  0  0  0  0  0  0
   46.1234    6.3486   12.8487 C   0  0  1  0  0  0  0  0  0  0  0  0
   49.2020    8.5381   12.9822 O   0  0  0  0  0  0  0  0  0  0  0  0
   48.5063    5.7664   12.8827 O   0  0  0  0  0  0  0  0  0  0  0  0
   44.4319    9.5294   12.6181 O   0  0  0  0  0  0  0  0  0  0  0  0
   45.7062    5.0789   13.6040 C   0  0  0  0  0  0  0  0  0  0  0  0
   46.4742    3.9447   13.2136 O   0  0  0  0  0  0  0  0  0  0  0  0
   47.2599    7.4706   12.9564 S   0  0  0  0  0  0  0  0  0  0  0  0
   48.2790    7.8055   11.9945 O   0  0  0  0  0  0  0  0  0  0  0  0
   46.1138    6.6392   12.2029 O   0  0  0  0  0  0  0  0  0  0  0  0
   46.4845    8.8337   13.2971 O   0  0  0  0  0  0  0  0  0  0  0  0
   47.5197    6.7711   14.1885 O   0  0  0  0  0  0  0  0  0  0  0  0
   46.2450    6.0859   14.5481 H   0  0  0  0  0  0  0  0  0  0  0  0
   46.4003    6.1468   11.4944 H   0  0  0  0  0  0  0  0  0  0  0  0
   47.6048    7.9547   14.6211 H   0  0  0  0  0  0  0  0  0  0  0  0
   45.3806    8.4077   13.2871 H   0  0  0  0  0  0  0  0  0  0  0  0
   48.0217    4.7875   12.6511 H   0  0  0  0  0  0  0  0  0  0  0  0
   48.0343    4.6033   14.2254 H   0  0  0  0  0  0  0  0  0  0  0  0
   47.3930    8.6686   11.0322 H   0  0  0  0  0  0  0  0  0  0  0  0
   44.8627    4.9731   12.7721 H   0  0  0  0  0  0  0  0  0  0  0  0
   44.1971    7.7603   11.3660 H   0  0  0  0  0  0  0  0  0  0  0  0
   49.7637    7.3315   14.4927 H   0  0  0  0  0  0  0  0  0  0  0  0
   48.1779   10.5936   12.1523 H   0  0  0  0  0  0  0  0  0  0  0  0
   47.4120   10.1710   13.6710 H   0  0  0  0  0  0  0  0  0  0  0  0
   45.7222   10.4633   11.4580 H   0  0  0  0  0  0  0  0  0  0  0  0
   46.8134    9.3624   13.8702 H   0  0  0  0  0  0  0  0  0  0  0  0
   48.0216    7.9143   11.4503 H   0  0  0  0  0  0  0  0  0  0  0  0
   45.4304    8.3308   11.3084 H   0  0  0  0  0  0  0  0  0  0  0  0
   47.6258    6.9223   14.3170 H   0  0  0  0  0  0  0  0  0  0  0  0
   48.1293   10.6599   12.2956 H   0  0  0  0  0  0  0  0  0  0  0  0
   47.0434   10.3604   11.1333 H   0  0  0  0  0  0  0  0  0  0  0  0
   46.0877    6.1189   11.7750 H   0  0  0  0  0  0  0  0  0  0  0  0
   49.1060    8.8759   13.8913 H   0  0  0  0  0  0  0  0  0  0  0  0
   49.3811    6.2074   12.8833 H   0  0  0  0  0  0  0  0  0  0  0  0
   44.8841   10.3538   12.8782 H   0  0  0  0  0  0  0  0  0  0  0  0
   44.6514    4.8559   13.4131 H   0  0  0  0  0  0  0  0  0  0  0  0
   45.8075    5.2172   14.6856 H   0  0  0  0  0  0  0  0  0  0  0  0
   47.4049    4.2418   13.1260 H   0  0  0  0  0  0  0  0  0  0  0  0
   45.7126    6.0396   12.8675 H   0  0  0  0  0  0  0  0  0  0  0  0
   46.4880    9.3818   12.4854 H   0  0  0  0  0  0  0  0  0  0  0  0
  2  1  1  0
  3  1  1  0
  4  3  1  0
  5  2  1  0
  1  6  1  0
  7  4  1  0
  2  8  1  0
  5  9  1  0
  3 10  1  0
  7 11  1  0
 12 11  1  0
  5  7  1  0
 14 13  1  0
 15 13  1  0
 16 15  1  0
 17 14  1  0
 13 18  1  0
 19 16  1  0
 14 20  1  0
 17 21  1  0
 15 22  1  0
 19 23  1  0
 24 23  1  0
 17 19  1  0
 25 26  2  0
 25 27  1  0
 25 28  1  0
 25 29  2  0
  1 30  1  6
  2 31  1  1
  3 32  1  6
  5 33  1  6
  6 34  1  0
  6 35  1  0
  7 36  1  1
  8 37  1  0
  9 38  1  0
 10 39  1  0
 11 40  1  0
 11 41  1  0
 12 42  1  0
 13 43  1  6
 14 44  1  1
 15 45  1  1
 17 46  1  6
 18 47  1  0
 18 48  1  0
 19 49  1  1
 20 50  1  0
 21 51  1  0
 22 52  1  0
 23 53  1  0
 23 54  1  0
 24 55  1  0
 27 56  1  0
 28 57  1  0
M  END
> <Uni-Dock RESULT> 
ENERGY=   -4.218  LOWER_BOUND=    1.877  UPPER_BOUND=    3.808
INTER + INTRA:          -4.218
INTER:                  -4.218
INTRA:                   0.000
UNBOUND:                 0.000

$$$$
