
     RDKit          3D

 57 56  0  0  0  0  0  0  0  0999 V2000
   44.8016    3.0809   10.5187 C   0  0  2  0  0  0  0  0  0  0  0  0
   43.5785    3.3932   11.3955 C   0  0  2  0  0  0  0  0  0  0  0  0
   45.3752    4.4033    9.9519 C   0  0  2  0  0  0  0  0  0  0  0  0
   45.6507    5.3398   10.9821 O   0  0  0  0  0  0  0  0  0  0  0  0
   43.9324    4.4335   12.4607 C   0  0  1  0  0  0  0  0  0  0  0  0
   44.4026    2.0906    9.4850 N   0  0  0  0  0  0  0  0  0  0  0  0
   44.4998    5.6848   11.7793 C   0  0  1  0  0  0  0  0  0  0  0  0
   43.1214    2.1944   12.0453 O   0  0  0  0  0  0  0  0  0  0  0  0
   42.7659    4.7335   13.2314 O   0  0  0  0  0  0  0  0  0  0  0  0
   44.4769    4.9640    9.0066 O   0  0  0  0  0  0  0  0  0  0  0  0
   44.9263    6.7319   12.8172 C   0  0  0  0  0  0  0  0  0  0  0  0
   45.2866    7.9519   12.1621 O   0  0  0  0  0  0  0  0  0  0  0  0
   44.6252    3.3608   10.6431 C   0  0  2  0  0  0  0  0  0  0  0  0
   44.5022    3.2861   12.1763 C   0  0  2  0  0  0  0  0  0  0  0  0
   43.7357    4.5032   10.1084 C   0  0  1  0  0  0  0  0  0  0  0  0
   44.1850    5.7745   10.5612 O   0  0  0  0  0  0  0  0  0  0  0  0
   44.1399    4.6425   12.8019 C   0  0  1  0  0  0  0  0  0  0  0  0
   44.3879    2.0318   10.0271 N   0  0  0  0  0  0  0  0  0  0  0  0
   44.6013    5.8333   11.9449 C   0  0  1  0  0  0  0  0  0  0  0  0
   45.7406    2.8071   12.7158 O   0  0  0  0  0  0  0  0  0  0  0  0
   42.7045    4.7001   12.9197 O   0  0  0  0  0  0  0  0  0  0  0  0
   43.8217    4.5138    8.6878 O   0  0  0  0  0  0  0  0  0  0  0  0
   46.1223    6.0383   11.9861 C   0  0  0  0  0  0  0  0  0  0  0  0
   46.4550    7.2403   11.2885 O   0  0  0  0  0  0  0  0  0  0  0  0
   44.5139    4.6500   10.9237 S   0  0  0  0  0  0  0  0  0  0  0  0
   45.5059    4.3776    9.9153 O   0  0  0  0  0  0  0  0  0  0  0  0
   45.2483    5.2971   12.1947 O   0  0  0  0  0  0  0  0  0  0  0  0
   44.0672    3.2277   11.5155 O   0  0  0  0  0  0  0  0  0  0  0  0
   43.3301    5.4380   10.6927 O   0  0  0  0  0  0  0  0  0  0  0  0
   45.5616    2.6042   11.1509 H   0  0  0  0  0  0  0  0  0  0  0  0
   42.7356    3.7539   10.7916 H   0  0  0  0  0  0  0  0  0  0  0  0
   46.3151    4.1913    9.4306 H   0  0  0  0  0  0  0  0  0  0  0  0
   44.6710    4.0065   13.1508 H   0  0  0  0  0  0  0  0  0  0  0  0
   45.2261    1.8510    8.9302 H   0  0  0  0  0  0  0  0  0  0  0  0
   43.7934    2.5857    8.8229 H   0  0  0  0  0  0  0  0  0  0  0  0
   43.7469    6.1497   11.1295 H   0  0  0  0  0  0  0  0  0  0  0  0
   43.1729    1.5104   11.3440 H   0  0  0  0  0  0  0  0  0  0  0  0
   42.3520    3.8636   13.4102 H   0  0  0  0  0  0  0  0  0  0  0  0
   44.9390    5.7539    8.6729 H   0  0  0  0  0  0  0  0  0  0  0  0
   44.1143    6.9578   13.5148 H   0  0  0  0  0  0  0  0  0  0  0  0
   45.8019    6.3867   13.3770 H   0  0  0  0  0  0  0  0  0  0  0  0
   45.5828    8.5642   12.8570 H   0  0  0  0  0  0  0  0  0  0  0  0
   45.6647    3.5959   10.3826 H   0  0  0  0  0  0  0  0  0  0  0  0
   43.7340    2.5544   12.4591 H   0  0  0  0  0  0  0  0  0  0  0  0
   42.6839    4.3561   10.3773 H   0  0  0  0  0  0  0  0  0  0  0  0
   44.5473    4.7187   13.8165 H   0  0  0  0  0  0  0  0  0  0  0  0
   44.4755    2.1709    9.0134 H   0  0  0  0  0  0  0  0  0  0  0  0
   43.4071    1.7770   10.1564 H   0  0  0  0  0  0  0  0  0  0  0  0
   44.1302    6.7477   12.3274 H   0  0  0  0  0  0  0  0  0  0  0  0
   45.9311    1.9811   12.2262 H   0  0  0  0  0  0  0  0  0  0  0  0
   42.4866    5.4890   13.4488 H   0  0  0  0  0  0  0  0  0  0  0  0
   43.2217    5.2280    8.4142 H   0  0  0  0  0  0  0  0  0  0  0  0
   46.4803    6.1339   13.0154 H   0  0  0  0  0  0  0  0  0  0  0  0
   46.6667    5.2264   11.4994 H   0  0  0  0  0  0  0  0  0  0  0  0
   45.9789    7.1922   10.4363 H   0  0  0  0  0  0  0  0  0  0  0  0
   44.5578    5.7312   12.7375 H   0  0  0  0  0  0  0  0  0  0  0  0
   44.8170    2.6113   11.3821 H   0  0  0  0  0  0  0  0  0  0  0  0
  2  1  1  0
  3  1  1  0
  4  3  1  0
  5  2  1  0
  1  6  1  0
  7  4  1  0
  2  8  1  0
  5  9  1  0
  3 10  1  0
  7 11  1  0
 12 11  1  0
  5  7  1  0
 14 13  1  0
 15 13  1  0
 16 15  1  0
 17 14  1  0
 13 18  1  0
 19 16  1  0
 14 20  1  0
 17 21  1  0
 15 22  1  0
 19 23  1  0
 24 23  1  0
 17 19  1  0
 25 26  2  0
 25 27  1  0
 25 28  1  0
 25 29  2  0
  1 30  1  6
  2 31  1  1
  3 32  1  6
  5 33  1  6
  6 34  1  0
  6 35  1  0
  7 36  1  1
  8 37  1  0
  9 38  1  0
 10 39  1  0
 11 40  1  0
 11 41  1  0
 12 42  1  0
 13 43  1  6
 14 44  1  1
 15 45  1  1
 17 46  1  6
 18 47  1  0
 18 48  1  0
 19 49  1  1
 20 50  1  0
 21 51  1  0
 22 52  1  0
 23 53  1  0
 23 54  1  0
 24 55  1  0
 27 56  1  0
 28 57  1  0
M  END
> <Uni-Dock RESULT> 
ENERGY=   -6.267  LOWER_BOUND=    0.000  UPPER_BOUND=    0.000
INTER + INTRA:          -6.267
INTER:                  -6.267
INTRA:                   0.000
UNBOUND:                 0.000

$$$$

     RDKit          3D

 57 56  0  0  0  0  0  0  0  0999 V2000
   44.2212    5.9313   12.1083 C   0  0  2  0  0  0  0  0  0  0  0  0
   43.9091    4.5911   12.7927 C   0  0  2  0  0  0  0  0  0  0  0  0
   45.3182    5.7145   11.0365 C   0  0  2  0  0  0  0  0  0  0  0  0
   44.9626    4.6894   10.1217 O   0  0  0  0  0  0  0  0  0  0  0  0
   43.5693    3.5222   11.7516 C   0  0  1  0  0  0  0  0  0  0  0  0
   44.5718    6.9269   13.1544 N   0  0  0  0  0  0  0  0  0  0  0  0
   44.7200    3.4114   10.7438 C   0  0  1  0  0  0  0  0  0  0  0  0
   42.7934    4.7449   13.6873 O   0  0  0  0  0  0  0  0  0  0  0  0
   43.3257    2.2793   12.4154 O   0  0  0  0  0  0  0  0  0  0  0  0
   46.5584    5.4103   11.6564 O   0  0  0  0  0  0  0  0  0  0  0  0
   44.3931    2.3921    9.6440 C   0  0  0  0  0  0  0  0  0  0  0  0
   45.5423    2.1763    8.8193 O   0  0  0  0  0  0  0  0  0  0  0  0
   44.3098    5.5900   12.0828 C   0  0  2  0  0  0  0  0  0  0  0  0
   43.0519    4.7132   11.9415 C   0  0  2  0  0  0  0  0  0  0  0  0
   45.5435    4.6911   12.3110 C   0  0  1  0  0  0  0  0  0  0  0  0
   45.8108    3.8694   11.1812 O   0  0  0  0  0  0  0  0  0  0  0  0
   43.3737    3.3087   11.4061 C   0  0  1  0  0  0  0  0  0  0  0  0
   44.1037    6.6527   13.0978 N   0  0  0  0  0  0  0  0  0  0  0  0
   44.6514    3.2784   10.5505 C   0  0  1  0  0  0  0  0  0  0  0  0
   42.1240    5.3738   11.0717 O   0  0  0  0  0  0  0  0  0  0  0  0
   43.5697    2.4424   12.5413 O   0  0  0  0  0  0  0  0  0  0  0  0
   46.6811    5.5261   12.4961 O   0  0  0  0  0  0  0  0  0  0  0  0
   44.4590    3.9344    9.1758 C   0  0  0  0  0  0  0  0  0  0  0  0
   45.6375    3.7392    8.3913 O   0  0  0  0  0  0  0  0  0  0  0  0
   44.8272    4.5552   11.4390 S   0  0  0  0  0  0  0  0  0  0  0  0
   45.3098    5.8209   10.9487 O   0  0  0  0  0  0  0  0  0  0  0  0
   44.0319    3.8231   10.2537 O   0  0  0  0  0  0  0  0  0  0  0  0
   43.6311    4.8889   12.4542 O   0  0  0  0  0  0  0  0  0  0  0  0
   45.6697    3.5545   12.0428 O   0  0  0  0  0  0  0  0  0  0  0  0
   43.3060    6.2841   11.6159 H   0  0  0  0  0  0  0  0  0  0  0  0
   44.7512    4.2520   13.4101 H   0  0  0  0  0  0  0  0  0  0  0  0
   45.4507    6.6413   10.4675 H   0  0  0  0  0  0  0  0  0  0  0  0
   42.6391    3.7995   11.2399 H   0  0  0  0  0  0  0  0  0  0  0  0
   44.7368    7.8279   12.7026 H   0  0  0  0  0  0  0  0  0  0  0  0
   45.4943    6.6594   13.5178 H   0  0  0  0  0  0  0  0  0  0  0  0
   45.6416    3.0798   11.2398 H   0  0  0  0  0  0  0  0  0  0  0  0
   42.9664    5.5994   14.1369 H   0  0  0  0  0  0  0  0  0  0  0  0
   42.7674    2.5111   13.1864 H   0  0  0  0  0  0  0  0  0  0  0  0
   47.1881    5.3417   10.9164 H   0  0  0  0  0  0  0  0  0  0  0  0
   44.1029    1.4259   10.0673 H   0  0  0  0  0  0  0  0  0  0  0  0
   43.5892    2.7635    8.9996 H   0  0  0  0  0  0  0  0  0  0  0  0
   45.2716    1.5559    8.1212 H   0  0  0  0  0  0  0  0  0  0  0  0
   44.4648    6.1399   11.1460 H   0  0  0  0  0  0  0  0  0  0  0  0
   42.5510    4.6104   12.9131 H   0  0  0  0  0  0  0  0  0  0  0  0
   45.4333    4.0743   13.2096 H   0  0  0  0  0  0  0  0  0  0  0  0
   42.5237    2.9086   10.8416 H   0  0  0  0  0  0  0  0  0  0  0  0
   44.9845    7.1789   13.1385 H   0  0  0  0  0  0  0  0  0  0  0  0
   44.0330    6.2202   14.0206 H   0  0  0  0  0  0  0  0  0  0  0  0
   44.9410    2.2330   10.3845 H   0  0  0  0  0  0  0  0  0  0  0  0
   42.0211    6.2738   11.4426 H   0  0  0  0  0  0  0  0  0  0  0  0
   43.6248    1.5293   12.2055 H   0  0  0  0  0  0  0  0  0  0  0  0
   47.4113    4.9068   12.6639 H   0  0  0  0  0  0  0  0  0  0  0  0
   43.6170    3.4874    8.6391 H   0  0  0  0  0  0  0  0  0  0  0  0
   44.2980    5.0121    9.2460 H   0  0  0  0  0  0  0  0  0  0  0  0
   46.3844    3.9939    8.9678 H   0  0  0  0  0  0  0  0  0  0  0  0
   43.9618    2.8760   10.4945 H   0  0  0  0  0  0  0  0  0  0  0  0
   43.2575    5.7540   12.1855 H   0  0  0  0  0  0  0  0  0  0  0  0
  2  1  1  0
  3  1  1  0
  4  3  1  0
  5  2  1  0
  1  6  1  0
  7  4  1  0
  2  8  1  0
  5  9  1  0
  3 10  1  0
  7 11  1  0
 12 11  1  0
  5  7  1  0
 14 13  1  0
 15 13  1  0
 16 15  1  0
 17 14  1  0
 13 18  1  0
 19 16  1  0
 14 20  1  0
 17 21  1  0
 15 22  1  0
 19 23  1  0
 24 23  1  0
 17 19  1  0
 25 26  2  0
 25 27  1  0
 25 28  1  0
 25 29  2  0
  1 30  1  6
  2 31  1  1
  3 32  1  6
  5 33  1  6
  6 34  1  0
  6 35  1  0
  7 36  1  1
  8 37  1  0
  9 38  1  0
 10 39  1  0
 11 40  1  0
 11 41  1  0
 12 42  1  0
 13 43  1  6
 14 44  1  1
 15 45  1  1
 17 46  1  6
 18 47  1  0
 18 48  1  0
 19 49  1  1
 20 50  1  0
 21 51  1  0
 22 52  1  0
 23 53  1  0
 23 54  1  0
 24 55  1  0
 27 56  1  0
 28 57  1  0
M  END
> <Uni-Dock RESULT> 
ENERGY=   -5.781  LOWER_BOUND=    1.830  UPPER_BOUND=    3.470
INTER + INTRA:          -5.781
INTER:                  -5.781
INTRA:                   0.000
UNBOUND:                 0.000

$$$$

     RDKit          3D

 57 56  0  0  0  0  0  0  0  0999 V2000
   43.6743    4.5400   11.1494 C   0  0  2  0  0  0  0  0  0  0  0  0
   45.0070    4.4352   11.9077 C   0  0  2  0  0  0  0  0  0  0  0  0
   42.9153    5.8047   11.6223 C   0  0  2  0  0  0  0  0  0  0  0  0
   43.7164    6.9707   11.5080 O   0  0  0  0  0  0  0  0  0  0  0  0
   45.8046    5.7345   11.7747 C   0  0  1  0  0  0  0  0  0  0  0  0
   42.9251    3.2695   11.3309 N   0  0  0  0  0  0  0  0  0  0  0  0
   44.9458    6.9091   12.2590 C   0  0  1  0  0  0  0  0  0  0  0  0
   45.7884    3.3497   11.3790 O   0  0  0  0  0  0  0  0  0  0  0  0
   47.0172    5.6211   12.5241 O   0  0  0  0  0  0  0  0  0  0  0  0
   42.4743    5.6418   12.9617 O   0  0  0  0  0  0  0  0  0  0  0  0
   45.6865    8.2420   12.0847 C   0  0  0  0  0  0  0  0  0  0  0  0
   44.9438    9.2988   12.7001 O   0  0  0  0  0  0  0  0  0  0  0  0
   43.8655    4.7246   11.3826 C   0  0  2  0  0  0  0  0  0  0  0  0
   45.2911    4.9583   10.8494 C   0  0  2  0  0  0  0  0  0  0  0  0
   43.7898    5.1566   12.8623 C   0  0  1  0  0  0  0  0  0  0  0  0
   43.9980    6.5556   13.0123 O   0  0  0  0  0  0  0  0  0  0  0  0
   46.0176    6.0890   11.5954 C   0  0  1  0  0  0  0  0  0  0  0  0
   43.4162    3.3381   11.1036 N   0  0  0  0  0  0  0  0  0  0  0  0
   45.0489    7.1217   12.1960 C   0  0  1  0  0  0  0  0  0  0  0  0
   45.2173    5.2565    9.4496 O   0  0  0  0  0  0  0  0  0  0  0  0
   46.7659    5.4917   12.6728 O   0  0  0  0  0  0  0  0  0  0  0  0
   42.4811    4.8769   13.3468 O   0  0  0  0  0  0  0  0  0  0  0  0
   44.4054    8.0198   11.1299 C   0  0  0  0  0  0  0  0  0  0  0  0
   43.6370    9.0386   11.7733 O   0  0  0  0  0  0  0  0  0  0  0  0
   44.1708    5.8358   12.0344 S   0  0  0  0  0  0  0  0  0  0  0  0
   42.8239    5.8357   11.5234 O   0  0  0  0  0  0  0  0  0  0  0  0
   44.9806    7.0263   11.3272 O   0  0  0  0  0  0  0  0  0  0  0  0
   44.8949    4.5514   11.4032 O   0  0  0  0  0  0  0  0  0  0  0  0
   44.4972    5.8981   13.4364 O   0  0  0  0  0  0  0  0  0  0  0  0
   43.8975    4.6371   10.0792 H   0  0  0  0  0  0  0  0  0  0  0  0
   44.8458    4.2069   12.9694 H   0  0  0  0  0  0  0  0  0  0  0  0
   42.0275    5.9445   10.9958 H   0  0  0  0  0  0  0  0  0  0  0  0
   46.0895    5.8772   10.7246 H   0  0  0  0  0  0  0  0  0  0  0  0
   42.0595    3.3233   10.7914 H   0  0  0  0  0  0  0  0  0  0  0  0
   42.6077    3.2520   12.3074 H   0  0  0  0  0  0  0  0  0  0  0  0
   44.7036    6.8013   13.3243 H   0  0  0  0  0  0  0  0  0  0  0  0
   45.1359    2.6286   11.2506 H   0  0  0  0  0  0  0  0  0  0  0  0
   47.3593    4.7271   12.3152 H   0  0  0  0  0  0  0  0  0  0  0  0
   41.9719    6.4545   13.1513 H   0  0  0  0  0  0  0  0  0  0  0  0
   46.6746    8.2149   12.5536 H   0  0  0  0  0  0  0  0  0  0  0  0
   45.7938    8.4885   11.0232 H   0  0  0  0  0  0  0  0  0  0  0  0
   45.4347   10.1206   12.5289 H   0  0  0  0  0  0  0  0  0  0  0  0
   43.1679    5.3524   10.8143 H   0  0  0  0  0  0  0  0  0  0  0  0
   45.8854    4.0399   10.9427 H   0  0  0  0  0  0  0  0  0  0  0  0
   44.5006    4.5998   13.4827 H   0  0  0  0  0  0  0  0  0  0  0  0
   46.7426    6.5802   10.9364 H   0  0  0  0  0  0  0  0  0  0  0  0
   42.4711    3.2628   11.4981 H   0  0  0  0  0  0  0  0  0  0  0  0
   43.9701    2.6906   11.6670 H   0  0  0  0  0  0  0  0  0  0  0  0
   45.6051    7.7683   12.8865 H   0  0  0  0  0  0  0  0  0  0  0  0
   44.6912    4.5287    9.0598 H   0  0  0  0  0  0  0  0  0  0  0  0
   47.3393    6.1841   13.0488 H   0  0  0  0  0  0  0  0  0  0  0  0
   42.5077    5.1404   14.2821 H   0  0  0  0  0  0  0  0  0  0  0  0
   45.1658    8.5078   10.5132 H   0  0  0  0  0  0  0  0  0  0  0  0
   43.7236    7.4708   10.4772 H   0  0  0  0  0  0  0  0  0  0  0  0
   43.0880    8.5766   12.4370 H   0  0  0  0  0  0  0  0  0  0  0  0
   45.7767    7.1979   11.8719 H   0  0  0  0  0  0  0  0  0  0  0  0
   44.4376    4.3472   10.5610 H   0  0  0  0  0  0  0  0  0  0  0  0
  2  1  1  0
  3  1  1  0
  4  3  1  0
  5  2  1  0
  1  6  1  0
  7  4  1  0
  2  8  1  0
  5  9  1  0
  3 10  1  0
  7 11  1  0
 12 11  1  0
  5  7  1  0
 14 13  1  0
 15 13  1  0
 16 15  1  0
 17 14  1  0
 13 18  1  0
 19 16  1  0
 14 20  1  0
 17 21  1  0
 15 22  1  0
 19 23  1  0
 24 23  1  0
 17 19  1  0
 25 26  2  0
 25 27  1  0
 25 28  1  0
 25 29  2  0
  1 30  1  6
  2 31  1  1
  3 32  1  6
  5 33  1  6
  6 34  1  0
  6 35  1  0
  7 36  1  1
  8 37  1  0
  9 38  1  0
 10 39  1  0
 11 40  1  0
 11 41  1  0
 12 42  1  0
 13 43  1  6
 14 44  1  1
 15 45  1  1
 17 46  1  6
 18 47  1  0
 18 48  1  0
 19 49  1  1
 20 50  1  0
 21 51  1  0
 22 52  1  0
 23 53  1  0
 23 54  1  0
 24 55  1  0
 27 56  1  0
 28 57  1  0
M  END
> <Uni-Dock RESULT> 
ENERGY=   -5.529  LOWER_BOUND=    1.418  UPPER_BOUND=    2.851
INTER + INTRA:          -5.529
INTER:                  -5.529
INTRA:                   0.000
UNBOUND:                 0.000

$$$$

     RDKit          3D

 57 56  0  0  0  0  0  0  0  0999 V2000
   48.4936    5.9390   19.3225 C   0  0  2  0  0  0  0  0  0  0  0  0
   47.3781    4.9626   18.9168 C   0  0  2  0  0  0  0  0  0  0  0  0
   49.7850    5.1406   19.6289 C   0  0  2  0  0  0  0  0  0  0  0  0
   50.1481    4.2953   18.5482 O   0  0  0  0  0  0  0  0  0  0  0  0
   47.8449    4.0581   17.7741 C   0  0  1  0  0  0  0  0  0  0  0  0
   48.0047    6.7741   20.4503 N   0  0  0  0  0  0  0  0  0  0  0  0
   49.1321    3.3363   18.1915 C   0  0  1  0  0  0  0  0  0  0  0  0
   46.2162    5.6949   18.4897 O   0  0  0  0  0  0  0  0  0  0  0  0
   46.8024    3.1350   17.4485 O   0  0  0  0  0  0  0  0  0  0  0  0
   49.6222    4.3781   20.8150 O   0  0  0  0  0  0  0  0  0  0  0  0
   49.6699    2.4639   17.0491 C   0  0  0  0  0  0  0  0  0  0  0  0
   50.7649    1.6689   17.5142 O   0  0  0  0  0  0  0  0  0  0  0  0
   48.4484    5.5938   19.2612 C   0  0  2  0  0  0  0  0  0  0  0  0
   47.8350    5.3671   17.8670 C   0  0  2  0  0  0  0  0  0  0  0  0
   48.4503    4.2655   20.0472 C   0  0  1  0  0  0  0  0  0  0  0  0
   49.2984    3.2978   19.4412 O   0  0  0  0  0  0  0  0  0  0  0  0
   48.0102    3.9204   17.3779 C   0  0  1  0  0  0  0  0  0  0  0  0
   47.7954    6.7356   19.9481 N   0  0  0  0  0  0  0  0  0  0  0  0
   49.2361    3.2289   17.9981 C   0  0  1  0  0  0  0  0  0  0  0  0
   48.4409    6.2790   16.9423 O   0  0  0  0  0  0  0  0  0  0  0  0
   46.8330    3.1832   17.7628 O   0  0  0  0  0  0  0  0  0  0  0  0
   48.9672    4.5137   21.3498 O   0  0  0  0  0  0  0  0  0  0  0  0
   50.5623    3.7529   17.4290 C   0  0  0  0  0  0  0  0  0  0  0  0
   51.6393    2.9672   17.9439 O   0  0  0  0  0  0  0  0  0  0  0  0
   48.9024    4.3756   19.0102 S   0  0  0  0  0  0  0  0  0  0  0  0
   49.8903    5.2296   19.6185 O   0  0  0  0  0  0  0  0  0  0  0  0
   49.4224    3.9595   17.5508 O   0  0  0  0  0  0  0  0  0  0  0  0
   47.6576    5.3162   18.6386 O   0  0  0  0  0  0  0  0  0  0  0  0
   48.3965    3.1725   19.6204 O   0  0  0  0  0  0  0  0  0  0  0  0
   48.6823    6.6119   18.4762 H   0  0  0  0  0  0  0  0  0  0  0  0
   47.0562    4.3479   19.7676 H   0  0  0  0  0  0  0  0  0  0  0  0
   50.6086    5.8432   19.7970 H   0  0  0  0  0  0  0  0  0  0  0  0
   48.0225    4.6688   16.8798 H   0  0  0  0  0  0  0  0  0  0  0  0
   48.7304    7.4516   20.6907 H   0  0  0  0  0  0  0  0  0  0  0  0
   47.9571    6.1600   21.2721 H   0  0  0  0  0  0  0  0  0  0  0  0
   48.9489    2.6797   19.0521 H   0  0  0  0  0  0  0  0  0  0  0  0
   46.1409    6.4222   19.1437 H   0  0  0  0  0  0  0  0  0  0  0  0
   45.9834    3.6729   17.4416 H   0  0  0  0  0  0  0  0  0  0  0  0
   50.4895    3.9562   20.9520 H   0  0  0  0  0  0  0  0  0  0  0  0
   48.9025    1.7819   16.6711 H   0  0  0  0  0  0  0  0  0  0  0  0
   50.0396    3.0871   16.2281 H   0  0  0  0  0  0  0  0  0  0  0  0
   51.0902    1.1670   16.7474 H   0  0  0  0  0  0  0  0  0  0  0  0
   49.4911    5.9133   19.1412 H   0  0  0  0  0  0  0  0  0  0  0  0
   46.7629    5.6033   17.8823 H   0  0  0  0  0  0  0  0  0  0  0  0
   47.4381    3.8624   20.1618 H   0  0  0  0  0  0  0  0  0  0  0  0
   48.0638    3.8887   16.2837 H   0  0  0  0  0  0  0  0  0  0  0  0
   48.2500    6.8103   20.8658 H   0  0  0  0  0  0  0  0  0  0  0  0
   46.8317    6.4807   20.1713 H   0  0  0  0  0  0  0  0  0  0  0  0
   49.1817    2.1541   17.7836 H   0  0  0  0  0  0  0  0  0  0  0  0
   48.3435    7.1625   17.3524 H   0  0  0  0  0  0  0  0  0  0  0  0
   46.8776    2.3133   17.3259 H   0  0  0  0  0  0  0  0  0  0  0  0
   48.9137    3.6536   21.7995 H   0  0  0  0  0  0  0  0  0  0  0  0
   50.5806    3.6789   16.3377 H   0  0  0  0  0  0  0  0  0  0  0  0
   50.7590    4.7885   17.7138 H   0  0  0  0  0  0  0  0  0  0  0  0
   51.4929    2.9176   18.9090 H   0  0  0  0  0  0  0  0  0  0  0  0
   48.9041    3.1763   17.2717 H   0  0  0  0  0  0  0  0  0  0  0  0
   48.0075    6.2233   18.5168 H   0  0  0  0  0  0  0  0  0  0  0  0
  2  1  1  0
  3  1  1  0
  4  3  1  0
  5  2  1  0
  1  6  1  0
  7  4  1  0
  2  8  1  0
  5  9  1  0
  3 10  1  0
  7 11  1  0
 12 11  1  0
  5  7  1  0
 14 13  1  0
 15 13  1  0
 16 15  1  0
 17 14  1  0
 13 18  1  0
 19 16  1  0
 14 20  1  0
 17 21  1  0
 15 22  1  0
 19 23  1  0
 24 23  1  0
 17 19  1  0
 25 26  2  0
 25 27  1  0
 25 28  1  0
 25 29  2  0
  1 30  1  6
  2 31  1  1
  3 32  1  6
  5 33  1  6
  6 34  1  0
  6 35  1  0
  7 36  1  1
  8 37  1  0
  9 38  1  0
 10 39  1  0
 11 40  1  0
 11 41  1  0
 12 42  1  0
 13 43  1  6
 14 44  1  1
 15 45  1  1
 17 46  1  6
 18 47  1  0
 18 48  1  0
 19 49  1  1
 20 50  1  0
 21 51  1  0
 22 52  1  0
 23 53  1  0
 23 54  1  0
 24 55  1  0
 27 56  1  0
 28 57  1  0
M  END
> <Uni-Dock RESULT> 
ENERGY=   -4.429  LOWER_BOUND=    7.694  UPPER_BOUND=    9.282
INTER + INTRA:          -4.429
INTER:                  -4.429
INTRA:                   0.000
UNBOUND:                 0.000

$$$$

     RDKit          3D

 57 56  0  0  0  0  0  0  0  0999 V2000
   43.8273    3.8072   12.1940 C   0  0  2  0  0  0  0  0  0  0  0  0
   44.5703    3.8691   10.8500 C   0  0  2  0  0  0  0  0  0  0  0  0
   44.6270    4.6005   13.2570 C   0  0  2  0  0  0  0  0  0  0  0  0
   44.8975    5.9263   12.8287 O   0  0  0  0  0  0  0  0  0  0  0  0
   44.8626    5.3208   10.4639 C   0  0  1  0  0  0  0  0  0  0  0  0
   43.5917    2.3812   12.5394 N   0  0  0  0  0  0  0  0  0  0  0  0
   45.6424    6.0001   11.5964 C   0  0  1  0  0  0  0  0  0  0  0  0
   43.7718    3.2620    9.8193 O   0  0  0  0  0  0  0  0  0  0  0  0
   45.5900    5.3431    9.2329 O   0  0  0  0  0  0  0  0  0  0  0  0
   45.8384    3.9276   13.5647 O   0  0  0  0  0  0  0  0  0  0  0  0
   45.9033    7.4783   11.2763 C   0  0  0  0  0  0  0  0  0  0  0  0
   46.7774    8.0446   12.2574 O   0  0  0  0  0  0  0  0  0  0  0  0
   44.1121    3.9609   12.0518 C   0  0  2  0  0  0  0  0  0  0  0  0
   43.7286    4.7415   10.7810 C   0  0  2  0  0  0  0  0  0  0  0  0
   45.6493    3.8929   12.1723 C   0  0  1  0  0  0  0  0  0  0  0  0
   46.2186    5.1822   12.3644 O   0  0  0  0  0  0  0  0  0  0  0  0
   44.8059    5.7581   10.3702 C   0  0  1  0  0  0  0  0  0  0  0  0
   43.4144    2.6521   12.1005 N   0  0  0  0  0  0  0  0  0  0  0  0
   45.6499    6.2419   11.5615 C   0  0  1  0  0  0  0  0  0  0  0  0
   42.4801    5.4077   11.0077 O   0  0  0  0  0  0  0  0  0  0  0  0
   45.6834    5.1089    9.4290 O   0  0  0  0  0  0  0  0  0  0  0  0
   45.9773    3.1186   13.3205 O   0  0  0  0  0  0  0  0  0  0  0  0
   44.8771    7.1918   12.4876 C   0  0  0  0  0  0  0  0  0  0  0  0
   45.7655    7.7078   13.4810 O   0  0  0  0  0  0  0  0  0  0  0  0
   45.0776    4.8668   12.0434 S   0  0  0  0  0  0  0  0  0  0  0  0
   44.5385    4.6319   13.3584 O   0  0  0  0  0  0  0  0  0  0  0  0
   44.7904    6.3936   11.6437 O   0  0  0  0  0  0  0  0  0  0  0  0
   44.1197    4.0926   11.0160 O   0  0  0  0  0  0  0  0  0  0  0  0
   46.4456    4.6007   11.6776 O   0  0  0  0  0  0  0  0  0  0  0  0
   42.8445    4.2776   12.0623 H   0  0  0  0  0  0  0  0  0  0  0  0
   45.5082    3.2995   10.8853 H   0  0  0  0  0  0  0  0  0  0  0  0
   44.0373    4.6591   14.1785 H   0  0  0  0  0  0  0  0  0  0  0  0
   43.9150    5.8446   10.2852 H   0  0  0  0  0  0  0  0  0  0  0  0
   43.0600    2.3419   13.4107 H   0  0  0  0  0  0  0  0  0  0  0  0
   44.5053    1.9840   12.7887 H   0  0  0  0  0  0  0  0  0  0  0  0
   46.6167    5.5158   11.7433 H   0  0  0  0  0  0  0  0  0  0  0  0
   43.4087    2.4561   10.2447 H   0  0  0  0  0  0  0  0  0  0  0  0
   45.1367    4.6892    8.6611 H   0  0  0  0  0  0  0  0  0  0  0  0
   46.2428    4.4671   14.2678 H   0  0  0  0  0  0  0  0  0  0  0  0
   46.3802    7.5980   10.2990 H   0  0  0  0  0  0  0  0  0  0  0  0
   44.9689    8.0489   11.2978 H   0  0  0  0  0  0  0  0  0  0  0  0
   46.8787    8.9848   12.0306 H   0  0  0  0  0  0  0  0  0  0  0  0
   43.7311    4.5012   12.9274 H   0  0  0  0  0  0  0  0  0  0  0  0
   43.5658    4.0480    9.9455 H   0  0  0  0  0  0  0  0  0  0  0  0
   46.1018    3.4057   11.3017 H   0  0  0  0  0  0  0  0  0  0  0  0
   44.3523    6.6094    9.8498 H   0  0  0  0  0  0  0  0  0  0  0  0
   43.7317    2.1951   12.9635 H   0  0  0  0  0  0  0  0  0  0  0  0
   43.7794    2.0541   11.3571 H   0  0  0  0  0  0  0  0  0  0  0  0
   46.5230    6.7853   11.1785 H   0  0  0  0  0  0  0  0  0  0  0  0
   41.8707    4.7097   11.3234 H   0  0  0  0  0  0  0  0  0  0  0  0
   46.2710    5.7924    9.0586 H   0  0  0  0  0  0  0  0  0  0  0  0
   46.9488    3.0883   13.3228 H   0  0  0  0  0  0  0  0  0  0  0  0
   44.4642    8.0377   11.9303 H   0  0  0  0  0  0  0  0  0  0  0  0
   44.0644    6.6900   13.0167 H   0  0  0  0  0  0  0  0  0  0  0  0
   46.2391    6.9323   13.8410 H   0  0  0  0  0  0  0  0  0  0  0  0
   45.3917    6.6166   10.9030 H   0  0  0  0  0  0  0  0  0  0  0  0
   43.2380    4.0255   11.4382 H   0  0  0  0  0  0  0  0  0  0  0  0
  2  1  1  0
  3  1  1  0
  4  3  1  0
  5  2  1  0
  1  6  1  0
  7  4  1  0
  2  8  1  0
  5  9  1  0
  3 10  1  0
  7 11  1  0
 12 11  1  0
  5  7  1  0
 14 13  1  0
 15 13  1  0
 16 15  1  0
 17 14  1  0
 13 18  1  0
 19 16  1  0
 14 20  1  0
 17 21  1  0
 15 22  1  0
 19 23  1  0
 24 23  1  0
 17 19  1  0
 25 26  2  0
 25 27  1  0
 25 28  1  0
 25 29  2  0
  1 30  1  6
  2 31  1  1
  3 32  1  6
  5 33  1  6
  6 34  1  0
  6 35  1  0
  7 36  1  1
  8 37  1  0
  9 38  1  0
 10 39  1  0
 11 40  1  0
 11 41  1  0
 12 42  1  0
 13 43  1  6
 14 44  1  1
 15 45  1  1
 17 46  1  6
 18 47  1  0
 18 48  1  0
 19 49  1  1
 20 50  1  0
 21 51  1  0
 22 52  1  0
 23 53  1  0
 23 54  1  0
 24 55  1  0
 27 56  1  0
 28 57  1  0
M  END
> <Uni-Dock RESULT> 
ENERGY=   -4.184  LOWER_BOUND=    1.341  UPPER_BOUND=    2.902
INTER + INTRA:          -4.184
INTER:                  -4.184
INTRA:                   0.000
UNBOUND:                 0.000

$$$$

     RDKit          3D

 57 56  0  0  0  0  0  0  0  0999 V2000
   45.3941    4.4353   12.8990 C   0  0  2  0  0  0  0  0  0  0  0  0
   44.3002    5.4028   12.4199 C   0  0  2  0  0  0  0  0  0  0  0  0
   45.2560    3.0919   12.1406 C   0  0  2  0  0  0  0  0  0  0  0  0
   45.2544    3.2811   10.7340 O   0  0  0  0  0  0  0  0  0  0  0  0
   44.3293    5.5346   10.8955 C   0  0  1  0  0  0  0  0  0  0  0  0
   45.3082    4.3183   14.3779 N   0  0  0  0  0  0  0  0  0  0  0  0
   44.1990    4.1435   10.2632 C   0  0  1  0  0  0  0  0  0  0  0  0
   44.5018    6.7006   13.0061 O   0  0  0  0  0  0  0  0  0  0  0  0
   43.2753    6.4064   10.4784 O   0  0  0  0  0  0  0  0  0  0  0  0
   44.0749    2.4171   12.5463 O   0  0  0  0  0  0  0  0  0  0  0  0
   44.2859    4.2234    8.7330 C   0  0  0  0  0  0  0  0  0  0  0  0
   43.9883    2.9472    8.1585 O   0  0  0  0  0  0  0  0  0  0  0  0
   45.1356    4.4500   12.6583 C   0  0  2  0  0  0  0  0  0  0  0  0
   45.2858    5.7044   11.7779 C   0  0  2  0  0  0  0  0  0  0  0  0
   43.7746    3.7796   12.3749 C   0  0  1  0  0  0  0  0  0  0  0  0
   43.6990    3.2872   11.0426 O   0  0  0  0  0  0  0  0  0  0  0  0
   44.4757    5.6065   10.4753 C   0  0  1  0  0  0  0  0  0  0  0  0
   45.4007    4.7679   14.0833 N   0  0  0  0  0  0  0  0  0  0  0  0
   44.2507    4.1533   10.0244 C   0  0  1  0  0  0  0  0  0  0  0  0
   46.6749    5.8981   11.4835 O   0  0  0  0  0  0  0  0  0  0  0  0
   43.1886    6.2096   10.7145 O   0  0  0  0  0  0  0  0  0  0  0  0
   43.6357    2.6586   13.2408 O   0  0  0  0  0  0  0  0  0  0  0  0
   45.5255    3.5012    9.4706 C   0  0  0  0  0  0  0  0  0  0  0  0
   45.2046    2.2124    8.9429 O   0  0  0  0  0  0  0  0  0  0  0  0
   44.5270    4.0293   11.5603 S   0  0  0  0  0  0  0  0  0  0  0  0
   45.3782    3.0279   12.1502 O   0  0  0  0  0  0  0  0  0  0  0  0
   45.0940    4.3802   10.1013 O   0  0  0  0  0  0  0  0  0  0  0  0
   44.8246    5.3961   12.3450 O   0  0  0  0  0  0  0  0  0  0  0  0
   43.1001    3.8878   11.4194 O   0  0  0  0  0  0  0  0  0  0  0  0
   46.3696    4.8796   12.6631 H   0  0  0  0  0  0  0  0  0  0  0  0
   43.3047    5.0724   12.7439 H   0  0  0  0  0  0  0  0  0  0  0  0
   46.1074    2.4498   12.3921 H   0  0  0  0  0  0  0  0  0  0  0  0
   45.2730    6.0052   10.5918 H   0  0  0  0  0  0  0  0  0  0  0  0
   46.0625    3.7094   14.6996 H   0  0  0  0  0  0  0  0  0  0  0  0
   44.4549    3.7844   14.5817 H   0  0  0  0  0  0  0  0  0  0  0  0
   43.2324    3.6893   10.5171 H   0  0  0  0  0  0  0  0  0  0  0  0
   44.7359    6.5056   13.9386 H   0  0  0  0  0  0  0  0  0  0  0  0
   43.3048    7.1561   11.1085 H   0  0  0  0  0  0  0  0  0  0  0  0
   44.0997    1.5731   12.0606 H   0  0  0  0  0  0  0  0  0  0  0  0
   43.5689    4.9441    8.3286 H   0  0  0  0  0  0  0  0  0  0  0  0
   45.2974    4.4998    8.4173 H   0  0  0  0  0  0  0  0  0  0  0  0
   44.0938    3.0433    7.1967 H   0  0  0  0  0  0  0  0  0  0  0  0
   45.9234    3.7343   12.3918 H   0  0  0  0  0  0  0  0  0  0  0  0
   44.9556    6.5950   12.3286 H   0  0  0  0  0  0  0  0  0  0  0  0
   42.9396    4.4600   12.5746 H   0  0  0  0  0  0  0  0  0  0  0  0
   44.9571    6.1856    9.6790 H   0  0  0  0  0  0  0  0  0  0  0  0
   45.2688    3.8892   14.5979 H   0  0  0  0  0  0  0  0  0  0  0  0
   44.6543    5.3717   14.4325 H   0  0  0  0  0  0  0  0  0  0  0  0
   43.4965    4.1433    9.2273 H   0  0  0  0  0  0  0  0  0  0  0  0
   47.1252    5.8864   12.3526 H   0  0  0  0  0  0  0  0  0  0  0  0
   42.7356    6.2812    9.8546 H   0  0  0  0  0  0  0  0  0  0  0  0
   42.7548    2.3023   13.0363 H   0  0  0  0  0  0  0  0  0  0  0  0
   45.9566    4.1000    8.6630 H   0  0  0  0  0  0  0  0  0  0  0  0
   46.2857    3.3502   10.2397 H   0  0  0  0  0  0  0  0  0  0  0  0
   44.6740    1.7684    9.6333 H   0  0  0  0  0  0  0  0  0  0  0  0
   44.3733    4.8276    9.6110 H   0  0  0  0  0  0  0  0  0  0  0  0
   45.7370    5.3341   12.6968 H   0  0  0  0  0  0  0  0  0  0  0  0
  2  1  1  0
  3  1  1  0
  4  3  1  0
  5  2  1  0
  1  6  1  0
  7  4  1  0
  2  8  1  0
  5  9  1  0
  3 10  1  0
  7 11  1  0
 12 11  1  0
  5  7  1  0
 14 13  1  0
 15 13  1  0
 16 15  1  0
 17 14  1  0
 13 18  1  0
 19 16  1  0
 14 20  1  0
 17 21  1  0
 15 22  1  0
 19 23  1  0
 24 23  1  0
 17 19  1  0
 25 26  2  0
 25 27  1  0
 25 28  1  0
 25 29  2  0
  1 30  1  6
  2 31  1  1
  3 32  1  6
  5 33  1  6
  6 34  1  0
  6 35  1  0
  7 36  1  1
  8 37  1  0
  9 38  1  0
 10 39  1  0
 11 40  1  0
 11 41  1  0
 12 42  1  0
 13 43  1  6
 14 44  1  1
 15 45  1  1
 17 46  1  6
 18 47  1  0
 18 48  1  0
 19 49  1  1
 20 50  1  0
 21 51  1  0
 22 52  1  0
 23 53  1  0
 23 54  1  0
 24 55  1  0
 27 56  1  0
 28 57  1  0
M  END
> <Uni-Dock RESULT> 
ENERGY=   -4.091  LOWER_BOUND=    1.749  UPPER_BOUND=    3.500
INTER + INTRA:          -4.091
INTER:                  -4.091
INTRA:                   0.000
UNBOUND:                 0.000

$$$$

     RDKit          3D

 57 56  0  0  0  0  0  0  0  0999 V2000
   54.6422    5.8716    9.6485 C   0  0  2  0  0  0  0  0  0  0  0  0
   53.3163    6.0240    8.8862 C   0  0  2  0  0  0  0  0  0  0  0  0
   55.7888    5.6289    8.6359 C   0  0  2  0  0  0  0  0  0  0  0  0
   55.8305    6.6378    7.6386 O   0  0  0  0  0  0  0  0  0  0  0  0
   53.4389    7.0995    7.8044 C   0  0  1  0  0  0  0  0  0  0  0  0
   54.4830    4.8001   10.6657 N   0  0  0  0  0  0  0  0  0  0  0  0
   54.6115    6.7557    6.8776 C   0  0  1  0  0  0  0  0  0  0  0  0
   52.2663    6.3934    9.7969 O   0  0  0  0  0  0  0  0  0  0  0  0
   52.2052    7.1878    7.0866 O   0  0  0  0  0  0  0  0  0  0  0  0
   55.6519    4.3503    8.0348 O   0  0  0  0  0  0  0  0  0  0  0  0
   54.8091    7.8431    5.8126 C   0  0  0  0  0  0  0  0  0  0  0  0
   55.7877    7.4210    4.8579 O   0  0  0  0  0  0  0  0  0  0  0  0
   54.5243    5.8861    9.3155 C   0  0  2  0  0  0  0  0  0  0  0  0
   53.6903    7.1609    9.0909 C   0  0  2  0  0  0  0  0  0  0  0  0
   54.3842    4.9548    8.0927 C   0  0  1  0  0  0  0  0  0  0  0  0
   54.9405    5.5389    6.9212 O   0  0  0  0  0  0  0  0  0  0  0  0
   53.5181    7.4934    7.6002 C   0  0  1  0  0  0  0  0  0  0  0  0
   54.2021    5.2658   10.6245 N   0  0  0  0  0  0  0  0  0  0  0  0
   54.6651    6.9462    6.7339 C   0  0  1  0  0  0  0  0  0  0  0  0
   54.3228    8.2521    9.7716 O   0  0  0  0  0  0  0  0  0  0  0  0
   52.2881    6.8872    7.1563 O   0  0  0  0  0  0  0  0  0  0  0  0
   55.1158    3.7612    8.3495 O   0  0  0  0  0  0  0  0  0  0  0  0
   55.9738    7.7265    6.9227 C   0  0  0  0  0  0  0  0  0  0  0  0
   56.9435    7.2542    5.9852 O   0  0  0  0  0  0  0  0  0  0  0  0
   54.6996    6.0438    8.0127 S   0  0  0  0  0  0  0  0  0  0  0  0
   55.9066    5.6621    8.7002 O   0  0  0  0  0  0  0  0  0  0  0  0
   54.9222    7.4954    7.3670 O   0  0  0  0  0  0  0  0  0  0  0  0
   53.6161    6.3732    9.1485 O   0  0  0  0  0  0  0  0  0  0  0  0
   54.0652    5.2403    6.9989 O   0  0  0  0  0  0  0  0  0  0  0  0
   54.8349    6.8077   10.1881 H   0  0  0  0  0  0  0  0  0  0  0  0
   53.0059    5.0746    8.4307 H   0  0  0  0  0  0  0  0  0  0  0  0
   56.7460    5.6438    9.1688 H   0  0  0  0  0  0  0  0  0  0  0  0
   53.6023    8.0742    8.2813 H   0  0  0  0  0  0  0  0  0  0  0  0
   55.3503    4.7291   11.2007 H   0  0  0  0  0  0  0  0  0  0  0  0
   54.4352    3.9119   10.1525 H   0  0  0  0  0  0  0  0  0  0  0  0
   54.4292    5.8082    6.3540 H   0  0  0  0  0  0  0  0  0  0  0  0
   52.4223    5.8254   10.5814 H   0  0  0  0  0  0  0  0  0  0  0  0
   51.5103    7.1607    7.7768 H   0  0  0  0  0  0  0  0  0  0  0  0
   56.4339    4.2685    7.4599 H   0  0  0  0  0  0  0  0  0  0  0  0
   53.8812    8.0443    5.2691 H   0  0  0  0  0  0  0  0  0  0  0  0
   55.1718    8.7699    6.2694 H   0  0  0  0  0  0  0  0  0  0  0  0
   55.9015    8.1564    4.2319 H   0  0  0  0  0  0  0  0  0  0  0  0
   55.5815    6.1659    9.4039 H   0  0  0  0  0  0  0  0  0  0  0  0
   52.6953    7.0464    9.5406 H   0  0  0  0  0  0  0  0  0  0  0  0
   53.3402    4.6740    7.9162 H   0  0  0  0  0  0  0  0  0  0  0  0
   53.4113    8.5749    7.4576 H   0  0  0  0  0  0  0  0  0  0  0  0
   54.7863    4.4239   10.6894 H   0  0  0  0  0  0  0  0  0  0  0  0
   53.2483    4.9013   10.5926 H   0  0  0  0  0  0  0  0  0  0  0  0
   54.3786    7.0244    5.6775 H   0  0  0  0  0  0  0  0  0  0  0  0
   54.4529    7.9403   10.6903 H   0  0  0  0  0  0  0  0  0  0  0  0
   52.1055    7.2208    6.2590 H   0  0  0  0  0  0  0  0  0  0  0  0
   54.9636    3.2101    7.5633 H   0  0  0  0  0  0  0  0  0  0  0  0
   55.8251    8.7958    6.7463 H   0  0  0  0  0  0  0  0  0  0  0  0
   56.4010    7.5912    7.9184 H   0  0  0  0  0  0  0  0  0  0  0  0
   56.9268    6.2795    6.0555 H   0  0  0  0  0  0  0  0  0  0  0  0
   54.2310    7.6167    6.6833 H   0  0  0  0  0  0  0  0  0  0  0  0
   54.1111    6.6417    9.9503 H   0  0  0  0  0  0  0  0  0  0  0  0
  2  1  1  0
  3  1  1  0
  4  3  1  0
  5  2  1  0
  1  6  1  0
  7  4  1  0
  2  8  1  0
  5  9  1  0
  3 10  1  0
  7 11  1  0
 12 11  1  0
  5  7  1  0
 14 13  1  0
 15 13  1  0
 16 15  1  0
 17 14  1  0
 13 18  1  0
 19 16  1  0
 14 20  1  0
 17 21  1  0
 15 22  1  0
 19 23  1  0
 24 23  1  0
 17 19  1  0
 25 26  2  0
 25 27  1  0
 25 28  1  0
 25 29  2  0
  1 30  1  6
  2 31  1  1
  3 32  1  6
  5 33  1  6
  6 34  1  0
  6 35  1  0
  7 36  1  1
  8 37  1  0
  9 38  1  0
 10 39  1  0
 11 40  1  0
 11 41  1  0
 12 42  1  0
 13 43  1  6
 14 44  1  1
 15 45  1  1
 17 46  1  6
 18 47  1  0
 18 48  1  0
 19 49  1  1
 20 50  1  0
 21 51  1  0
 22 52  1  0
 23 53  1  0
 23 54  1  0
 24 55  1  0
 27 56  1  0
 28 57  1  0
M  END
> <Uni-Dock RESULT> 
ENERGY=   -4.085  LOWER_BOUND=    9.437  UPPER_BOUND=   11.008
INTER + INTRA:          -4.085
INTER:                  -4.085
INTRA:                   0.000
UNBOUND:                 0.000

$$$$

     RDKit          3D

 57 56  0  0  0  0  0  0  0  0999 V2000
   48.2846    5.4138   17.2036 C   0  0  2  0  0  0  0  0  0  0  0  0
   49.5979    4.7523   17.6505 C   0  0  2  0  0  0  0  0  0  0  0  0
   47.1673    5.0693   18.2195 C   0  0  2  0  0  0  0  0  0  0  0  0
   47.5411    5.4093   19.5458 O   0  0  0  0  0  0  0  0  0  0  0  0
   49.9245    5.1295   19.0973 C   0  0  1  0  0  0  0  0  0  0  0  0
   47.9957    4.9966   15.8069 N   0  0  0  0  0  0  0  0  0  0  0  0
   48.7424    4.7533   19.9991 C   0  0  1  0  0  0  0  0  0  0  0  0
   50.6766    5.1790   16.8003 O   0  0  0  0  0  0  0  0  0  0  0  0
   51.1269    4.4663   19.4965 O   0  0  0  0  0  0  0  0  0  0  0  0
   46.8385    3.6907   18.1406 O   0  0  0  0  0  0  0  0  0  0  0  0
   49.0033    5.1717   21.4525 C   0  0  0  0  0  0  0  0  0  0  0  0
   47.9728    4.6582   22.3021 O   0  0  0  0  0  0  0  0  0  0  0  0
   48.4112    5.2246   17.4741 C   0  0  2  0  0  0  0  0  0  0  0  0
   49.6682    5.8928   18.0610 C   0  0  2  0  0  0  0  0  0  0  0  0
   48.2373    3.8200   18.0898 C   0  0  1  0  0  0  0  0  0  0  0  0
   47.9817    3.8872   19.4873 O   0  0  0  0  0  0  0  0  0  0  0  0
   50.0055    5.3731   19.4677 C   0  0  1  0  0  0  0  0  0  0  0  0
   48.4314    5.2681   15.9909 N   0  0  0  0  0  0  0  0  0  0  0  0
   48.7690    4.8536   20.2205 C   0  0  1  0  0  0  0  0  0  0  0  0
   49.4648    7.3111   18.0929 O   0  0  0  0  0  0  0  0  0  0  0  0
   50.9354    4.2819   19.3193 O   0  0  0  0  0  0  0  0  0  0  0  0
   47.1044    3.2022   17.4894 O   0  0  0  0  0  0  0  0  0  0  0  0
   47.8403    5.9845   20.6851 C   0  0  0  0  0  0  0  0  0  0  0  0
   46.7986    5.4361   21.4953 O   0  0  0  0  0  0  0  0  0  0  0  0
   48.3543    4.7629   18.7137 S   0  0  0  0  0  0  0  0  0  0  0  0
   47.0682    5.1644   18.2036 O   0  0  0  0  0  0  0  0  0  0  0  0
   48.7130    5.6922   19.9710 O   0  0  0  0  0  0  0  0  0  0  0  0
   49.4409    5.2581   17.6429 O   0  0  0  0  0  0  0  0  0  0  0  0
   48.6789    3.4131   19.0993 O   0  0  0  0  0  0  0  0  0  0  0  0
   48.4360    6.5008   17.1946 H   0  0  0  0  0  0  0  0  0  0  0  0
   49.5476    3.6597   17.5553 H   0  0  0  0  0  0  0  0  0  0  0  0
   46.2665    5.6398   17.9678 H   0  0  0  0  0  0  0  0  0  0  0  0
   50.1198    6.2078   19.1538 H   0  0  0  0  0  0  0  0  0  0  0  0
   47.1461    5.4706   15.4958 H   0  0  0  0  0  0  0  0  0  0  0  0
   47.7268    4.0062   15.8453 H   0  0  0  0  0  0  0  0  0  0  0  0
   48.5765    3.6681   19.9912 H   0  0  0  0  0  0  0  0  0  0  0  0
   50.2917    5.1532   15.8984 H   0  0  0  0  0  0  0  0  0  0  0  0
   51.7362    4.5712   18.7366 H   0  0  0  0  0  0  0  0  0  0  0  0
   46.1036    3.5810   18.7705 H   0  0  0  0  0  0  0  0  0  0  0  0
   49.9581    4.7806   21.8163 H   0  0  0  0  0  0  0  0  0  0  0  0
   48.9967    6.2626   21.5477 H   0  0  0  0  0  0  0  0  0  0  0  0
   48.1643    4.9817   23.1989 H   0  0  0  0  0  0  0  0  0  0  0  0
   47.5324    5.8216   17.7483 H   0  0  0  0  0  0  0  0  0  0  0  0
   50.5318    5.7153   17.4066 H   0  0  0  0  0  0  0  0  0  0  0  0
   49.1067    3.1828   17.8945 H   0  0  0  0  0  0  0  0  0  0  0  0
   50.5133    6.1488   20.0523 H   0  0  0  0  0  0  0  0  0  0  0  0
   47.5732    4.7959   15.6829 H   0  0  0  0  0  0  0  0  0  0  0  0
   49.1806    4.6621   15.6519 H   0  0  0  0  0  0  0  0  0  0  0  0
   49.1017    4.3067   21.1118 H   0  0  0  0  0  0  0  0  0  0  0  0
   49.1949    7.5519   17.1833 H   0  0  0  0  0  0  0  0  0  0  0  0
   51.2613    4.0533   20.2089 H   0  0  0  0  0  0  0  0  0  0  0  0
   47.0679    2.3188   17.8932 H   0  0  0  0  0  0  0  0  0  0  0  0
   48.3836    6.7207   21.2846 H   0  0  0  0  0  0  0  0  0  0  0  0
   47.3580    6.4984   19.8510 H   0  0  0  0  0  0  0  0  0  0  0  0
   46.4478    4.6734   20.9948 H   0  0  0  0  0  0  0  0  0  0  0  0
   49.4235    5.2398   20.4715 H   0  0  0  0  0  0  0  0  0  0  0  0
   49.0535    6.0253   17.1723 H   0  0  0  0  0  0  0  0  0  0  0  0
  2  1  1  0
  3  1  1  0
  4  3  1  0
  5  2  1  0
  1  6  1  0
  7  4  1  0
  2  8  1  0
  5  9  1  0
  3 10  1  0
  7 11  1  0
 12 11  1  0
  5  7  1  0
 14 13  1  0
 15 13  1  0
 16 15  1  0
 17 14  1  0
 13 18  1  0
 19 16  1  0
 14 20  1  0
 17 21  1  0
 15 22  1  0
 19 23  1  0
 24 23  1  0
 17 19  1  0
 25 26  2  0
 25 27  1  0
 25 28  1  0
 25 29  2  0
  1 30  1  6
  2 31  1  1
  3 32  1  6
  5 33  1  6
  6 34  1  0
  6 35  1  0
  7 36  1  1
  8 37  1  0
  9 38  1  0
 10 39  1  0
 11 40  1  0
 11 41  1  0
 12 42  1  0
 13 43  1  6
 14 44  1  1
 15 45  1  1
 17 46  1  6
 18 47  1  0
 18 48  1  0
 19 49  1  1
 20 50  1  0
 21 51  1  0
 22 52  1  0
 23 53  1  0
 23 54  1  0
 24 55  1  0
 27 56  1  0
 28 57  1  0
M  END
> <Uni-Dock RESULT> 
ENERGY=   -3.938  LOWER_BOUND=    7.624  UPPER_BOUND=    9.106
INTER + INTRA:          -3.938
INTER:                  -3.938
INTRA:                   0.000
UNBOUND:                 0.000

$$$$

     RDKit          3D

 57 56  0  0  0  0  0  0  0  0999 V2000
   44.2514   12.4484    9.2041 C   0  0  2  0  0  0  0  0  0  0  0  0
   44.6577   11.4218   10.2732 C   0  0  2  0  0  0  0  0  0  0  0  0
   42.9200   12.0043    8.5490 C   0  0  2  0  0  0  0  0  0  0  0  0
   41.9085   11.7769    9.5182 O   0  0  0  0  0  0  0  0  0  0  0  0
   43.5133   11.1959   11.2638 C   0  0  1  0  0  0  0  0  0  0  0  0
   45.3805   12.6127    8.2520 N   0  0  0  0  0  0  0  0  0  0  0  0
   42.2535   10.7757   10.4968 C   0  0  1  0  0  0  0  0  0  0  0  0
   45.8124   11.8912   10.9907 O   0  0  0  0  0  0  0  0  0  0  0  0
   43.9060   10.2067   12.2189 O   0  0  0  0  0  0  0  0  0  0  0  0
   43.1218   10.8368    7.7672 O   0  0  0  0  0  0  0  0  0  0  0  0
   41.0624   10.5984   11.4484 C   0  0  0  0  0  0  0  0  0  0  0  0
   39.9504   10.0402   10.7419 O   0  0  0  0  0  0  0  0  0  0  0  0
   44.1252   12.1553    9.3562 C   0  0  2  0  0  0  0  0  0  0  0  0
   44.1003   12.3079   10.8883 C   0  0  2  0  0  0  0  0  0  0  0  0
   43.8210   10.6903    8.9778 C   0  0  1  0  0  0  0  0  0  0  0  0
   42.5000   10.3155    9.3486 O   0  0  0  0  0  0  0  0  0  0  0  0
   43.1874   11.2732   11.5655 C   0  0  1  0  0  0  0  0  0  0  0  0
   45.3797   12.7089    8.7889 N   0  0  0  0  0  0  0  0  0  0  0  0
   42.0578   10.7848   10.6430 C   0  0  1  0  0  0  0  0  0  0  0  0
   43.6695   13.6357   11.2130 O   0  0  0  0  0  0  0  0  0  0  0  0
   44.0017   10.1386   11.9219 O   0  0  0  0  0  0  0  0  0  0  0  0
   43.9072   10.5634    7.5628 O   0  0  0  0  0  0  0  0  0  0  0  0
   40.9681   11.8451   10.4289 C   0  0  0  0  0  0  0  0  0  0  0  0
   39.8914   11.2708    9.6852 O   0  0  0  0  0  0  0  0  0  0  0  0
   43.1484   11.3116    9.6512 S   0  0  0  0  0  0  0  0  0  0  0  0
   42.8645   12.1169    8.4909 O   0  0  0  0  0  0  0  0  0  0  0  0
   42.0613   11.6505   10.7811 O   0  0  0  0  0  0  0  0  0  0  0  0
   44.4788   11.9190   10.3097 O   0  0  0  0  0  0  0  0  0  0  0  0
   43.2707    9.8763    9.6215 O   0  0  0  0  0  0  0  0  0  0  0  0
   44.0997   13.4156    9.7002 H   0  0  0  0  0  0  0  0  0  0  0  0
   44.9481   10.4654    9.8189 H   0  0  0  0  0  0  0  0  0  0  0  0
   42.5698   12.7961    7.8776 H   0  0  0  0  0  0  0  0  0  0  0  0
   43.3296   12.1234   11.8207 H   0  0  0  0  0  0  0  0  0  0  0  0
   45.1263   13.3266    7.5672 H   0  0  0  0  0  0  0  0  0  0  0  0
   45.4291   11.7473    7.7012 H   0  0  0  0  0  0  0  0  0  0  0  0
   42.4119    9.8190    9.9821 H   0  0  0  0  0  0  0  0  0  0  0  0
   46.3923   12.2602   10.2908 H   0  0  0  0  0  0  0  0  0  0  0  0
   44.8240   10.4450   12.4647 H   0  0  0  0  0  0  0  0  0  0  0  0
   42.2534   10.6650    7.3607 H   0  0  0  0  0  0  0  0  0  0  0  0
   41.3057    9.9206   12.2720 H   0  0  0  0  0  0  0  0  0  0  0  0
   40.7446   11.5647   11.8538 H   0  0  0  0  0  0  0  0  0  0  0  0
   39.2164    9.9844   11.3772 H   0  0  0  0  0  0  0  0  0  0  0  0
   43.3355   12.7834    8.9252 H   0  0  0  0  0  0  0  0  0  0  0  0
   45.1139   12.1995   11.2960 H   0  0  0  0  0  0  0  0  0  0  0  0
   44.5480    9.9997    9.4189 H   0  0  0  0  0  0  0  0  0  0  0  0
   42.7750   11.6762   12.4975 H   0  0  0  0  0  0  0  0  0  0  0  0
   45.3218   12.5577    7.7749 H   0  0  0  0  0  0  0  0  0  0  0  0
   46.1628   12.1213    9.0807 H   0  0  0  0  0  0  0  0  0  0  0  0
   41.5842    9.9060   11.0987 H   0  0  0  0  0  0  0  0  0  0  0  0
   44.2549   14.2281   10.6986 H   0  0  0  0  0  0  0  0  0  0  0  0
   43.4581    9.5530   12.4798 H   0  0  0  0  0  0  0  0  0  0  0  0
   43.7375    9.6215    7.3933 H   0  0  0  0  0  0  0  0  0  0  0  0
   40.5690   12.1996   11.3837 H   0  0  0  0  0  0  0  0  0  0  0  0
   41.3272   12.7039    9.8581 H   0  0  0  0  0  0  0  0  0  0  0  0
   40.3066   10.8185    8.9247 H   0  0  0  0  0  0  0  0  0  0  0  0
   42.0827   10.9183   11.4317 H   0  0  0  0  0  0  0  0  0  0  0  0
   44.5226   12.8635   10.0528 H   0  0  0  0  0  0  0  0  0  0  0  0
  2  1  1  0
  3  1  1  0
  4  3  1  0
  5  2  1  0
  1  6  1  0
  7  4  1  0
  2  8  1  0
  5  9  1  0
  3 10  1  0
  7 11  1  0
 12 11  1  0
  5  7  1  0
 14 13  1  0
 15 13  1  0
 16 15  1  0
 17 14  1  0
 13 18  1  0
 19 16  1  0
 14 20  1  0
 17 21  1  0
 15 22  1  0
 19 23  1  0
 24 23  1  0
 17 19  1  0
 25 26  2  0
 25 27  1  0
 25 28  1  0
 25 29  2  0
  1 30  1  6
  2 31  1  1
  3 32  1  6
  5 33  1  6
  6 34  1  0
  6 35  1  0
  7 36  1  1
  8 37  1  0
  9 38  1  0
 10 39  1  0
 11 40  1  0
 11 41  1  0
 12 42  1  0
 13 43  1  6
 14 44  1  1
 15 45  1  1
 17 46  1  6
 18 47  1  0
 18 48  1  0
 19 49  1  1
 20 50  1  0
 21 51  1  0
 22 52  1  0
 23 53  1  0
 23 54  1  0
 24 55  1  0
 27 56  1  0
 28 57  1  0
M  END
> <Uni-Dock RESULT> 
ENERGY=   -3.888  LOWER_BOUND=    6.563  UPPER_BOUND=    7.703
INTER + INTRA:          -3.888
INTER:                  -3.888
INTRA:                   0.000
UNBOUND:                 0.000

$$$$
