
     RDKit          3D

 45 48  0  0  0  0  0  0  0  0999 V2000
   26.4559    5.6655   32.2448 O   0  0  0  0  0  0  0  0  0  0  0  0
   29.1349    6.4111   33.3183 O   0  0  0  0  0  0  0  0  0  0  0  0
   24.2405    6.0137   30.4659 O   0  0  0  0  0  0  0  0  0  0  0  0
   30.2113    9.2270   30.6298 O   0  0  0  0  0  0  0  0  0  0  0  0
   22.4718    4.8149   31.2929 O   0  0  0  0  0  0  0  0  0  0  0  0
   31.0402    8.4840   32.6327 O   0  0  0  0  0  0  0  0  0  0  0  0
   27.0378    3.3153   32.3549 C   0  0  0  0  0  0  0  0  0  0  0  0
   29.0653    4.6771   31.6253 C   0  0  0  0  0  0  0  0  0  0  0  0
   26.5982    1.9567   32.4055 C   0  0  0  0  0  0  0  0  0  0  0  0
   29.2751    4.2639   30.2792 C   0  0  0  0  0  0  0  0  0  0  0  0
   26.0937    4.3292   32.0500 C   0  0  0  0  0  0  0  0  0  0  0  0
   29.3911    6.0037   32.0043 C   0  0  0  0  0  0  0  0  0  0  0  0
   28.4806    3.7242   32.6650 C   0  0  0  0  0  0  0  0  0  0  0  0
   25.2787    1.6395   31.9849 C   0  0  0  0  0  0  0  0  0  0  0  0
   29.7545    5.2009   29.3288 C   0  0  0  0  0  0  0  0  0  0  0  0
   24.7983    3.9908   31.5965 C   0  0  0  0  0  0  0  0  0  0  0  0
   29.9244    6.9072   31.0560 C   0  0  0  0  0  0  0  0  0  0  0  0
   24.4091    2.6498   31.5697 C   0  0  0  0  0  0  0  0  0  0  0  0
   30.0661    6.5041   29.7236 C   0  0  0  0  0  0  0  0  0  0  0  0
   27.4130    0.8984   32.8796 C   0  0  0  0  0  0  0  0  0  0  0  0
   29.0216    2.9417   29.8467 C   0  0  0  0  0  0  0  0  0  0  0  0
   23.8384    5.0044   31.1048 C   0  0  0  0  0  0  0  0  0  0  0  0
   30.3762    8.2657   31.4288 C   0  0  0  0  0  0  0  0  0  0  0  0
   24.8339    0.3068   31.9827 C   0  0  0  0  0  0  0  0  0  0  0  0
   29.9384    4.8182   27.9896 C   0  0  0  0  0  0  0  0  0  0  0  0
   26.9514   -0.4199   32.8765 C   0  0  0  0  0  0  0  0  0  0  0  0
   29.2106    2.5768   28.5121 C   0  0  0  0  0  0  0  0  0  0  0  0
   25.6707   -0.7164   32.4205 C   0  0  0  0  0  0  0  0  0  0  0  0
   29.6625    3.5131   27.5852 C   0  0  0  0  0  0  0  0  0  0  0  0
   25.7983    6.4332   32.2366 H   0  0  0  0  0  0  0  0  0  0  0  0
   29.1520    7.3757   33.6194 H   0  0  0  0  0  0  0  0  0  0  0  0
   21.8005    5.4882   30.9434 H   0  0  0  0  0  0  0  0  0  0  0  0
   31.3693    9.4082   32.8851 H   0  0  0  0  0  0  0  0  0  0  0  0
   28.4956    4.1519   33.6880 H   0  0  0  0  0  0  0  0  0  0  0  0
   29.1831    2.8755   32.7019 H   0  0  0  0  0  0  0  0  0  0  0  0
   23.4150    2.3888   31.2223 H   0  0  0  0  0  0  0  0  0  0  0  0
   30.4620    7.2020   28.9932 H   0  0  0  0  0  0  0  0  0  0  0  0
   28.3953    1.0551   33.2911 H   0  0  0  0  0  0  0  0  0  0  0  0
   28.6881    2.1731   30.5262 H   0  0  0  0  0  0  0  0  0  0  0  0
   23.8332    0.0571   31.6498 H   0  0  0  0  0  0  0  0  0  0  0  0
   30.3012    5.5284   27.2557 H   0  0  0  0  0  0  0  0  0  0  0  0
   27.5893   -1.2157   33.2397 H   0  0  0  0  0  0  0  0  0  0  0  0
   29.0086    1.5611   28.1967 H   0  0  0  0  0  0  0  0  0  0  0  0
   25.3195   -1.7403   32.4212 H   0  0  0  0  0  0  0  0  0  0  0  0
   29.8079    3.2243   26.5522 H   0  0  0  0  0  0  0  0  0  0  0  0
  1 11  1  0
  2 12  1  0
  3 22  2  0
  4 23  2  0
  5 22  1  0
  6 23  1  0
  7  9  1  0
  7 11  2  0
  7 13  1  0
  8 10  1  0
  8 12  2  0
  8 13  1  0
  9 14  2  0
  9 20  1  0
 10 15  2  0
 10 21  1  0
 11 16  1  0
 12 17  1  0
 14 18  1  0
 14 24  1  0
 15 19  1  0
 15 25  1  0
 16 18  2  0
 16 22  1  0
 17 19  2  0
 17 23  1  0
 20 26  2  0
 21 27  2  0
 24 28  2  0
 25 29  2  0
 26 28  1  0
 27 29  1  0
  1 30  1  0
  2 31  1  0
  5 32  1  0
  6 33  1  0
 13 34  1  0
 13 35  1  0
 18 36  1  0
 19 37  1  0
 20 38  1  0
 21 39  1  0
 24 40  1  0
 25 41  1  0
 26 42  1  0
 27 43  1  0
 28 44  1  0
 29 45  1  0
M  END
> <Uni-Dock RESULT> 
ENERGY=   -4.415  LOWER_BOUND=    0.000  UPPER_BOUND=    0.000
INTER + INTRA:          -4.415
INTER:                  -4.415
INTRA:                   0.000
UNBOUND:                 0.000

$$$$

     RDKit          3D

 45 48  0  0  0  0  0  0  0  0999 V2000
   24.6906    8.7608   30.3559 O   0  0  0  0  0  0  0  0  0  0  0  0
   24.5690    7.0004   32.7582 O   0  0  0  0  0  0  0  0  0  0  0  0
   25.2091    9.2506   27.5837 O   0  0  0  0  0  0  0  0  0  0  0  0
   25.2888    3.4159   31.0409 O   0  0  0  0  0  0  0  0  0  0  0  0
   25.3401   11.5172   27.2765 O   0  0  0  0  0  0  0  0  0  0  0  0
   25.1410    4.1928   33.1915 O   0  0  0  0  0  0  0  0  0  0  0  0
   22.5886    9.7955   30.9764 C   0  0  0  0  0  0  0  0  0  0  0  0
   22.5166    7.3026   31.5036 C   0  0  0  0  0  0  0  0  0  0  0  0
   21.7033   10.9109   30.8597 C   0  0  0  0  0  0  0  0  0  0  0  0
   21.5489    6.7983   30.5893 C   0  0  0  0  0  0  0  0  0  0  0  0
   23.6906    9.7006   30.0883 C   0  0  0  0  0  0  0  0  0  0  0  0
   23.5989    6.4757   31.8969 C   0  0  0  0  0  0  0  0  0  0  0  0
   22.4207    8.7226   32.0561 C   0  0  0  0  0  0  0  0  0  0  0  0
   21.8472   11.7972   29.7587 C   0  0  0  0  0  0  0  0  0  0  0  0
   21.7135    5.4988   30.0460 C   0  0  0  0  0  0  0  0  0  0  0  0
   23.7938   10.5684   28.9772 C   0  0  0  0  0  0  0  0  0  0  0  0
   23.7141    5.1605   31.3902 C   0  0  0  0  0  0  0  0  0  0  0  0
   22.8695   11.6047   28.8276 C   0  0  0  0  0  0  0  0  0  0  0  0
   22.7894    4.7023   30.4452 C   0  0  0  0  0  0  0  0  0  0  0  0
   20.6896   11.1950   31.8086 C   0  0  0  0  0  0  0  0  0  0  0  0
   20.4173    7.5498   30.1964 C   0  0  0  0  0  0  0  0  0  0  0  0
   24.8269   10.4004   27.9308 C   0  0  0  0  0  0  0  0  0  0  0  0
   24.7652    4.2273   31.8515 C   0  0  0  0  0  0  0  0  0  0  0  0
   20.9636   12.8772   29.5948 C   0  0  0  0  0  0  0  0  0  0  0  0
   20.7843    4.9971   29.1193 C   0  0  0  0  0  0  0  0  0  0  0  0
   19.8245   12.2775   31.6328 C   0  0  0  0  0  0  0  0  0  0  0  0
   19.5022    7.0364   29.2750 C   0  0  0  0  0  0  0  0  0  0  0  0
   19.9541   13.1096   30.5252 C   0  0  0  0  0  0  0  0  0  0  0  0
   19.6876    5.7664   28.7340 C   0  0  0  0  0  0  0  0  0  0  0  0
   25.5903    8.7504   29.8951 H   0  0  0  0  0  0  0  0  0  0  0  0
   25.4612    6.5588   32.9328 H   0  0  0  0  0  0  0  0  0  0  0  0
   26.0317   11.4181   26.5430 H   0  0  0  0  0  0  0  0  0  0  0  0
   25.8462    3.5426   33.5174 H   0  0  0  0  0  0  0  0  0  0  0  0
   23.1725    8.9216   32.8466 H   0  0  0  0  0  0  0  0  0  0  0  0
   21.4479    8.7631   32.5730 H   0  0  0  0  0  0  0  0  0  0  0  0
   22.9479   12.2717   27.9755 H   0  0  0  0  0  0  0  0  0  0  0  0
   22.8862    3.6982   30.0459 H   0  0  0  0  0  0  0  0  0  0  0  0
   20.5581   10.6259   32.7129 H   0  0  0  0  0  0  0  0  0  0  0  0
   20.2161    8.5305   30.5980 H   0  0  0  0  0  0  0  0  0  0  0  0
   21.0597   13.5485   28.7494 H   0  0  0  0  0  0  0  0  0  0  0  0
   20.9039    4.0065   28.6964 H   0  0  0  0  0  0  0  0  0  0  0  0
   19.0541   12.4771   32.3668 H   0  0  0  0  0  0  0  0  0  0  0  0
   18.6429    7.6261   28.9822 H   0  0  0  0  0  0  0  0  0  0  0  0
   19.2803   13.9469   30.3955 H   0  0  0  0  0  0  0  0  0  0  0  0
   18.9746    5.3733   28.0208 H   0  0  0  0  0  0  0  0  0  0  0  0
  1 11  1  0
  2 12  1  0
  3 22  2  0
  4 23  2  0
  5 22  1  0
  6 23  1  0
  7  9  1  0
  7 11  2  0
  7 13  1  0
  8 10  1  0
  8 12  2  0
  8 13  1  0
  9 14  2  0
  9 20  1  0
 10 15  2  0
 10 21  1  0
 11 16  1  0
 12 17  1  0
 14 18  1  0
 14 24  1  0
 15 19  1  0
 15 25  1  0
 16 18  2  0
 16 22  1  0
 17 19  2  0
 17 23  1  0
 20 26  2  0
 21 27  2  0
 24 28  2  0
 25 29  2  0
 26 28  1  0
 27 29  1  0
  1 30  1  0
  2 31  1  0
  5 32  1  0
  6 33  1  0
 13 34  1  0
 13 35  1  0
 18 36  1  0
 19 37  1  0
 20 38  1  0
 21 39  1  0
 24 40  1  0
 25 41  1  0
 26 42  1  0
 27 43  1  0
 28 44  1  0
 29 45  1  0
M  END
> <Uni-Dock RESULT> 
ENERGY=   -4.280  LOWER_BOUND=    5.076  UPPER_BOUND=    8.993
INTER + INTRA:          -4.280
INTER:                  -4.280
INTRA:                   0.000
UNBOUND:                 0.000

$$$$

     RDKit          3D

 45 48  0  0  0  0  0  0  0  0999 V2000
   26.6919   12.8599   25.8234 O   0  0  0  0  0  0  0  0  0  0  0  0
   26.5619   15.3849   24.2447 O   0  0  0  0  0  0  0  0  0  0  0  0
   25.6873   10.2990   26.6149 O   0  0  0  0  0  0  0  0  0  0  0  0
   23.4510   14.5345   21.8126 O   0  0  0  0  0  0  0  0  0  0  0  0
   26.7627    9.6796   28.5408 O   0  0  0  0  0  0  0  0  0  0  0  0
   24.6861   16.4056   22.2859 O   0  0  0  0  0  0  0  0  0  0  0  0
   29.0757   12.6983   25.4161 C   0  0  0  0  0  0  0  0  0  0  0  0
   27.8982   13.5787   23.3338 C   0  0  0  0  0  0  0  0  0  0  0  0
   30.3409   12.1627   25.8086 C   0  0  0  0  0  0  0  0  0  0  0  0
   28.0620   12.5254   22.3901 C   0  0  0  0  0  0  0  0  0  0  0  0
   27.8979   12.1778   26.0115 C   0  0  0  0  0  0  0  0  0  0  0  0
   26.7329   14.3844   23.2814 C   0  0  0  0  0  0  0  0  0  0  0  0
   28.9454   13.8470   24.4119 C   0  0  0  0  0  0  0  0  0  0  0  0
   30.3779   11.0172   26.6481 C   0  0  0  0  0  0  0  0  0  0  0  0
   27.0330   12.2656   21.4496 C   0  0  0  0  0  0  0  0  0  0  0  0
   27.9524   11.0144   26.8125 C   0  0  0  0  0  0  0  0  0  0  0  0
   25.7446   14.1480   22.2980 C   0  0  0  0  0  0  0  0  0  0  0  0
   29.1924   10.4497   27.1191 C   0  0  0  0  0  0  0  0  0  0  0  0
   25.8916   13.0702   21.4179 C   0  0  0  0  0  0  0  0  0  0  0  0
   31.5769   12.7348   25.4164 C   0  0  0  0  0  0  0  0  0  0  0  0
   29.2227   11.7186   22.3528 C   0  0  0  0  0  0  0  0  0  0  0  0
   26.7357   10.3368   27.3134 C   0  0  0  0  0  0  0  0  0  0  0  0
   24.5650   15.0266   22.1388 C   0  0  0  0  0  0  0  0  0  0  0  0
   31.6069   10.4432   27.0144 C   0  0  0  0  0  0  0  0  0  0  0  0
   27.1650   11.2108   20.5310 C   0  0  0  0  0  0  0  0  0  0  0  0
   32.7893   12.1542   25.7959 C   0  0  0  0  0  0  0  0  0  0  0  0
   29.3390   10.6747   21.4326 C   0  0  0  0  0  0  0  0  0  0  0  0
   32.8047   11.0071   26.5833 C   0  0  0  0  0  0  0  0  0  0  0  0
   28.3114   10.4180   20.5280 C   0  0  0  0  0  0  0  0  0  0  0  0
   25.8524   12.6745   26.3552 H   0  0  0  0  0  0  0  0  0  0  0  0
   25.6884   15.8687   24.4012 H   0  0  0  0  0  0  0  0  0  0  0  0
   25.9452    9.1926   28.8880 H   0  0  0  0  0  0  0  0  0  0  0  0
   23.8865   17.0145   22.1590 H   0  0  0  0  0  0  0  0  0  0  0  0
   28.7354   14.7723   24.9860 H   0  0  0  0  0  0  0  0  0  0  0  0
   29.8755   14.0604   23.8602 H   0  0  0  0  0  0  0  0  0  0  0  0
   29.2356    9.5570   27.7342 H   0  0  0  0  0  0  0  0  0  0  0  0
   25.1263   12.8804   20.6727 H   0  0  0  0  0  0  0  0  0  0  0  0
   31.6459   13.6464   24.8480 H   0  0  0  0  0  0  0  0  0  0  0  0
   30.0554   11.8854   23.0179 H   0  0  0  0  0  0  0  0  0  0  0  0
   31.6410    9.5611   27.6431 H   0  0  0  0  0  0  0  0  0  0  0  0
   26.3822   11.0028   19.8108 H   0  0  0  0  0  0  0  0  0  0  0  0
   33.7236   12.6036   25.4841 H   0  0  0  0  0  0  0  0  0  0  0  0
   30.2328   10.0641   21.4195 H   0  0  0  0  0  0  0  0  0  0  0  0
   33.7480   10.5627   26.8738 H   0  0  0  0  0  0  0  0  0  0  0  0
   28.4074    9.6079   19.8165 H   0  0  0  0  0  0  0  0  0  0  0  0
  1 11  1  0
  2 12  1  0
  3 22  2  0
  4 23  2  0
  5 22  1  0
  6 23  1  0
  7  9  1  0
  7 11  2  0
  7 13  1  0
  8 10  1  0
  8 12  2  0
  8 13  1  0
  9 14  2  0
  9 20  1  0
 10 15  2  0
 10 21  1  0
 11 16  1  0
 12 17  1  0
 14 18  1  0
 14 24  1  0
 15 19  1  0
 15 25  1  0
 16 18  2  0
 16 22  1  0
 17 19  2  0
 17 23  1  0
 20 26  2  0
 21 27  2  0
 24 28  2  0
 25 29  2  0
 26 28  1  0
 27 29  1  0
  1 30  1  0
  2 31  1  0
  5 32  1  0
  6 33  1  0
 13 34  1  0
 13 35  1  0
 18 36  1  0
 19 37  1  0
 20 38  1  0
 21 39  1  0
 24 40  1  0
 25 41  1  0
 26 42  1  0
 27 43  1  0
 28 44  1  0
 29 45  1  0
M  END
> <Uni-Dock RESULT> 
ENERGY=   -3.888  LOWER_BOUND=    8.715  UPPER_BOUND=   11.689
INTER + INTRA:          -3.888
INTER:                  -3.888
INTRA:                   0.000
UNBOUND:                 0.000

$$$$

     RDKit          3D

 45 48  0  0  0  0  0  0  0  0999 V2000
   26.8119   12.8947   25.6314 O   0  0  0  0  0  0  0  0  0  0  0  0
   26.6528   15.3510   23.9501 O   0  0  0  0  0  0  0  0  0  0  0  0
   25.8286   10.3644   26.5393 O   0  0  0  0  0  0  0  0  0  0  0  0
   23.5219   14.3849   21.5878 O   0  0  0  0  0  0  0  0  0  0  0  0
   26.9266    9.8311   28.4781 O   0  0  0  0  0  0  0  0  0  0  0  0
   24.7520   16.2800   21.9698 O   0  0  0  0  0  0  0  0  0  0  0  0
   29.1922   12.7276   25.2066 C   0  0  0  0  0  0  0  0  0  0  0  0
   27.9892   13.5147   23.1016 C   0  0  0  0  0  0  0  0  0  0  0  0
   30.4641   12.2149   25.6080 C   0  0  0  0  0  0  0  0  0  0  0  0
   28.1489   12.4237   22.2011 C   0  0  0  0  0  0  0  0  0  0  0  0
   28.0233   12.2269   25.8353 C   0  0  0  0  0  0  0  0  0  0  0  0
   26.8193   14.3119   23.0276 C   0  0  0  0  0  0  0  0  0  0  0  0
   29.0458   13.8328   24.1567 C   0  0  0  0  0  0  0  0  0  0  0  0
   30.5155   11.1056   26.4941 C   0  0  0  0  0  0  0  0  0  0  0  0
   27.1119   12.1199   21.2829 C   0  0  0  0  0  0  0  0  0  0  0  0
   28.0918   11.0982   26.6835 C   0  0  0  0  0  0  0  0  0  0  0  0
   25.8223   14.0299   22.0652 C   0  0  0  0  0  0  0  0  0  0  0  0
   29.3378   10.5527   27.0006 C   0  0  0  0  0  0  0  0  0  0  0  0
   25.9660   12.9170   21.2294 C   0  0  0  0  0  0  0  0  0  0  0  0
   31.6931   12.7760   25.1795 C   0  0  0  0  0  0  0  0  0  0  0  0
   29.3133   11.6215   22.1854 C   0  0  0  0  0  0  0  0  0  0  0  0
   26.8838   10.4364   27.2248 C   0  0  0  0  0  0  0  0  0  0  0  0
   24.6366   14.8955   21.8817 C   0  0  0  0  0  0  0  0  0  0  0  0
   31.7511   10.5533   26.8713 C   0  0  0  0  0  0  0  0  0  0  0  0
   27.2399   11.0283   20.4077 C   0  0  0  0  0  0  0  0  0  0  0  0
   32.9123   12.2175   25.5704 C   0  0  0  0  0  0  0  0  0  0  0  0
   29.4257   10.5406   21.3085 C   0  0  0  0  0  0  0  0  0  0  0  0
   32.9415   11.1044   26.4047 C   0  0  0  0  0  0  0  0  0  0  0  0
   28.3904   10.2415   20.4260 C   0  0  0  0  0  0  0  0  0  0  0  0
   25.9788   12.7277   26.1790 H   0  0  0  0  0  0  0  0  0  0  0  0
   25.7784   15.8367   24.0952 H   0  0  0  0  0  0  0  0  0  0  0  0
   26.1152    9.3551   28.8538 H   0  0  0  0  0  0  0  0  0  0  0  0
   23.9480   16.8793   21.8259 H   0  0  0  0  0  0  0  0  0  0  0  0
   28.8368   14.7802   24.6938 H   0  0  0  0  0  0  0  0  0  0  0  0
   29.9692   14.0273   23.5870 H   0  0  0  0  0  0  0  0  0  0  0  0
   29.3918    9.6867   27.6519 H   0  0  0  0  0  0  0  0  0  0  0  0
   25.1942   12.6926   20.5007 H   0  0  0  0  0  0  0  0  0  0  0  0
   31.7516   13.6634   24.5730 H   0  0  0  0  0  0  0  0  0  0  0  0
   30.1518   11.8199   22.8344 H   0  0  0  0  0  0  0  0  0  0  0  0
   31.7961    9.6984   27.5359 H   0  0  0  0  0  0  0  0  0  0  0  0
   26.4511   10.7866   19.7050 H   0  0  0  0  0  0  0  0  0  0  0  0
   33.8410   12.6580   25.2305 H   0  0  0  0  0  0  0  0  0  0  0  0
   30.3225    9.9343   21.3116 H   0  0  0  0  0  0  0  0  0  0  0  0
   33.8900   10.6771   26.7038 H   0  0  0  0  0  0  0  0  0  0  0  0
   28.4834    9.4029   19.7480 H   0  0  0  0  0  0  0  0  0  0  0  0
  1 11  1  0
  2 12  1  0
  3 22  2  0
  4 23  2  0
  5 22  1  0
  6 23  1  0
  7  9  1  0
  7 11  2  0
  7 13  1  0
  8 10  1  0
  8 12  2  0
  8 13  1  0
  9 14  2  0
  9 20  1  0
 10 15  2  0
 10 21  1  0
 11 16  1  0
 12 17  1  0
 14 18  1  0
 14 24  1  0
 15 19  1  0
 15 25  1  0
 16 18  2  0
 16 22  1  0
 17 19  2  0
 17 23  1  0
 20 26  2  0
 21 27  2  0
 24 28  2  0
 25 29  2  0
 26 28  1  0
 27 29  1  0
  1 30  1  0
  2 31  1  0
  5 32  1  0
  6 33  1  0
 13 34  1  0
 13 35  1  0
 18 36  1  0
 19 37  1  0
 20 38  1  0
 21 39  1  0
 24 40  1  0
 25 41  1  0
 26 42  1  0
 27 43  1  0
 28 44  1  0
 29 45  1  0
M  END
> <Uni-Dock RESULT> 
ENERGY=   -3.865  LOWER_BOUND=    8.793  UPPER_BOUND=   11.810
INTER + INTRA:          -3.865
INTER:                  -3.865
INTRA:                   0.000
UNBOUND:                 0.000

$$$$

     RDKit          3D

 45 48  0  0  0  0  0  0  0  0999 V2000
   27.2215   12.8823   24.0196 O   0  0  0  0  0  0  0  0  0  0  0  0
   26.5547   14.6031   21.6788 O   0  0  0  0  0  0  0  0  0  0  0  0
   26.7837   10.6262   25.7262 O   0  0  0  0  0  0  0  0  0  0  0  0
   23.6844   12.3511   19.9450 O   0  0  0  0  0  0  0  0  0  0  0  0
   27.9731   10.9557   27.6564 O   0  0  0  0  0  0  0  0  0  0  0  0
   24.4981   14.4716   19.6416 O   0  0  0  0  0  0  0  0  0  0  0  0
   29.5840   13.0574   23.5075 C   0  0  0  0  0  0  0  0  0  0  0  0
   28.2390   12.8908   21.3486 C   0  0  0  0  0  0  0  0  0  0  0  0
   30.9353   12.9557   23.9605 C   0  0  0  0  0  0  0  0  0  0  0  0
   28.6180   11.6249   20.8188 C   0  0  0  0  0  0  0  0  0  0  0  0
   28.5451   12.5624   24.3370 C   0  0  0  0  0  0  0  0  0  0  0  0
   26.9296   13.3799   21.1119 C   0  0  0  0  0  0  0  0  0  0  0  0
   29.2100   13.7247   22.1809 C   0  0  0  0  0  0  0  0  0  0  0  0
   31.2167   12.2144   25.1394 C   0  0  0  0  0  0  0  0  0  0  0  0
   27.6636   10.8513   20.1107 C   0  0  0  0  0  0  0  0  0  0  0  0
   28.8472   11.7946   25.4847 C   0  0  0  0  0  0  0  0  0  0  0  0
   26.0097   12.6204   20.3524 C   0  0  0  0  0  0  0  0  0  0  0  0
   30.1797   11.6308   25.8696 C   0  0  0  0  0  0  0  0  0  0  0  0
   26.3778   11.3514   19.8919 C   0  0  0  0  0  0  0  0  0  0  0  0
   32.0210   13.5815   23.2984 C   0  0  0  0  0  0  0  0  0  0  0  0
   29.9228   11.1020   20.9723 C   0  0  0  0  0  0  0  0  0  0  0  0
   27.8031   11.1148   26.2836 C   0  0  0  0  0  0  0  0  0  0  0  0
   24.6706   13.1354   19.9917 C   0  0  0  0  0  0  0  0  0  0  0  0
   32.5406   12.0611   25.5841 C   0  0  0  0  0  0  0  0  0  0  0  0
   28.0119    9.5867   19.6074 C   0  0  0  0  0  0  0  0  0  0  0  0
   33.3301   13.4236   23.7590 C   0  0  0  0  0  0  0  0  0  0  0  0
   30.2535    9.8437   20.4651 C   0  0  0  0  0  0  0  0  0  0  0  0
   33.5906   12.6582   24.8915 C   0  0  0  0  0  0  0  0  0  0  0  0
   29.3000    9.0859   19.7893 C   0  0  0  0  0  0  0  0  0  0  0  0
   26.4421   12.7372   24.6469 H   0  0  0  0  0  0  0  0  0  0  0  0
   25.5993   14.9295   21.7260 H   0  0  0  0  0  0  0  0  0  0  0  0
   27.2783   10.4737   28.2141 H   0  0  0  0  0  0  0  0  0  0  0  0
   23.5874   14.8261   19.3748 H   0  0  0  0  0  0  0  0  0  0  0  0
   28.8114   14.7331   22.4132 H   0  0  0  0  0  0  0  0  0  0  0  0
   30.0719   13.9059   21.5181 H   0  0  0  0  0  0  0  0  0  0  0  0
   30.4129   11.0421   26.7506 H   0  0  0  0  0  0  0  0  0  0  0  0
   25.6670   10.7629   19.3213 H   0  0  0  0  0  0  0  0  0  0  0  0
   31.8936   14.2261   22.4457 H   0  0  0  0  0  0  0  0  0  0  0  0
   30.7040   11.6542   21.4707 H   0  0  0  0  0  0  0  0  0  0  0  0
   32.7628   11.4852   26.4749 H   0  0  0  0  0  0  0  0  0  0  0  0
   27.2880    8.9870   19.0679 H   0  0  0  0  0  0  0  0  0  0  0  0
   34.1471   13.9068   23.2384 H   0  0  0  0  0  0  0  0  0  0  0  0
   31.2561    9.4564   20.5941 H   0  0  0  0  0  0  0  0  0  0  0  0
   34.6076   12.5405   25.2429 H   0  0  0  0  0  0  0  0  0  0  0  0
   29.5622    8.1116   19.3976 H   0  0  0  0  0  0  0  0  0  0  0  0
  1 11  1  0
  2 12  1  0
  3 22  2  0
  4 23  2  0
  5 22  1  0
  6 23  1  0
  7  9  1  0
  7 11  2  0
  7 13  1  0
  8 10  1  0
  8 12  2  0
  8 13  1  0
  9 14  2  0
  9 20  1  0
 10 15  2  0
 10 21  1  0
 11 16  1  0
 12 17  1  0
 14 18  1  0
 14 24  1  0
 15 19  1  0
 15 25  1  0
 16 18  2  0
 16 22  1  0
 17 19  2  0
 17 23  1  0
 20 26  2  0
 21 27  2  0
 24 28  2  0
 25 29  2  0
 26 28  1  0
 27 29  1  0
  1 30  1  0
  2 31  1  0
  5 32  1  0
  6 33  1  0
 13 34  1  0
 13 35  1  0
 18 36  1  0
 19 37  1  0
 20 38  1  0
 21 39  1  0
 24 40  1  0
 25 41  1  0
 26 42  1  0
 27 43  1  0
 28 44  1  0
 29 45  1  0
M  END
> <Uni-Dock RESULT> 
ENERGY=   -3.819  LOWER_BOUND=    9.508  UPPER_BOUND=   12.895
INTER + INTRA:          -3.819
INTER:                  -3.819
INTRA:                   0.000
UNBOUND:                 0.000

$$$$

     RDKit          3D

 45 48  0  0  0  0  0  0  0  0999 V2000
   27.2186   14.3521   19.2102 O   0  0  0  0  0  0  0  0  0  0  0  0
   24.4868   13.5489   20.0919 O   0  0  0  0  0  0  0  0  0  0  0  0
   29.4229   16.1748   19.0974 O   0  0  0  0  0  0  0  0  0  0  0  0
   23.6619   16.5588   22.6563 O   0  0  0  0  0  0  0  0  0  0  0  0
   30.8052   15.5114   17.3949 O   0  0  0  0  0  0  0  0  0  0  0  0
   22.4689   14.8396   21.7227 O   0  0  0  0  0  0  0  0  0  0  0  0
   28.0450   12.1162   19.6485 C   0  0  0  0  0  0  0  0  0  0  0  0
   26.3530   12.7808   21.4355 C   0  0  0  0  0  0  0  0  0  0  0  0
   29.0418   11.1212   19.4075 C   0  0  0  0  0  0  0  0  0  0  0  0
   27.1409   12.8809   22.6170 C   0  0  0  0  0  0  0  0  0  0  0  0
   28.2806   13.4426   19.2042 C   0  0  0  0  0  0  0  0  0  0  0  0
   25.2241   13.6239   21.2789 C   0  0  0  0  0  0  0  0  0  0  0  0
   26.7098   11.7945   20.3260 C   0  0  0  0  0  0  0  0  0  0  0  0
   30.3037   11.5166   18.8883 C   0  0  0  0  0  0  0  0  0  0  0  0
   26.8155   13.8586   23.5913 C   0  0  0  0  0  0  0  0  0  0  0  0
   29.5553   13.8239   18.7268 C   0  0  0  0  0  0  0  0  0  0  0  0
   24.8802   14.5522   22.2887 C   0  0  0  0  0  0  0  0  0  0  0  0
   30.5497   12.8549   18.5762 C   0  0  0  0  0  0  0  0  0  0  0  0
   25.7004   14.6812   23.4150 C   0  0  0  0  0  0  0  0  0  0  0  0
   28.8271    9.7401   19.6423 C   0  0  0  0  0  0  0  0  0  0  0  0
   28.2477   12.0352   22.8607 C   0  0  0  0  0  0  0  0  0  0  0  0
   29.8990   15.2290   18.4137 C   0  0  0  0  0  0  0  0  0  0  0  0
   23.6542   15.3771   22.2168 C   0  0  0  0  0  0  0  0  0  0  0  0
   31.3176   10.5659   18.6824 C   0  0  0  0  0  0  0  0  0  0  0  0
   27.6005   13.9914   24.7489 C   0  0  0  0  0  0  0  0  0  0  0  0
   29.8447    8.8083   19.4253 C   0  0  0  0  0  0  0  0  0  0  0  0
   29.0172   12.1792   24.0170 C   0  0  0  0  0  0  0  0  0  0  0  0
   31.0884    9.2202   18.9569 C   0  0  0  0  0  0  0  0  0  0  0  0
   28.6981   13.1575   24.9558 C   0  0  0  0  0  0  0  0  0  0  0  0
   27.2429   15.2478   18.7423 H   0  0  0  0  0  0  0  0  0  0  0  0
   23.7977   14.2348   19.8159 H   0  0  0  0  0  0  0  0  0  0  0  0
   31.0677   16.4664   17.1824 H   0  0  0  0  0  0  0  0  0  0  0  0
   21.6211   15.3930   21.6888 H   0  0  0  0  0  0  0  0  0  0  0  0
   25.9345   11.7482   19.5345 H   0  0  0  0  0  0  0  0  0  0  0  0
   26.6847   10.8027   20.8063 H   0  0  0  0  0  0  0  0  0  0  0  0
   31.5284   13.1462   18.2094 H   0  0  0  0  0  0  0  0  0  0  0  0
   25.4442   15.4035   24.1830 H   0  0  0  0  0  0  0  0  0  0  0  0
   27.8790    9.3406   19.9592 H   0  0  0  0  0  0  0  0  0  0  0  0
   28.5275   11.2499   22.1761 H   0  0  0  0  0  0  0  0  0  0  0  0
   32.2869   10.8635   18.2997 H   0  0  0  0  0  0  0  0  0  0  0  0
   27.3613   14.7379   25.4973 H   0  0  0  0  0  0  0  0  0  0  0  0
   29.6631    7.7576   19.6133 H   0  0  0  0  0  0  0  0  0  0  0  0
   29.8634   11.5258   24.1868 H   0  0  0  0  0  0  0  0  0  0  0  0
   31.8723    8.4925   18.7907 H   0  0  0  0  0  0  0  0  0  0  0  0
   29.2977   13.2640   25.8506 H   0  0  0  0  0  0  0  0  0  0  0  0
  1 11  1  0
  2 12  1  0
  3 22  2  0
  4 23  2  0
  5 22  1  0
  6 23  1  0
  7  9  1  0
  7 11  2  0
  7 13  1  0
  8 10  1  0
  8 12  2  0
  8 13  1  0
  9 14  2  0
  9 20  1  0
 10 15  2  0
 10 21  1  0
 11 16  1  0
 12 17  1  0
 14 18  1  0
 14 24  1  0
 15 19  1  0
 15 25  1  0
 16 18  2  0
 16 22  1  0
 17 19  2  0
 17 23  1  0
 20 26  2  0
 21 27  2  0
 24 28  2  0
 25 29  2  0
 26 28  1  0
 27 29  1  0
  1 30  1  0
  2 31  1  0
  5 32  1  0
  6 33  1  0
 13 34  1  0
 13 35  1  0
 18 36  1  0
 19 37  1  0
 20 38  1  0
 21 39  1  0
 24 40  1  0
 25 41  1  0
 26 42  1  0
 27 43  1  0
 28 44  1  0
 29 45  1  0
M  END
> <Uni-Dock RESULT> 
ENERGY=   -3.752  LOWER_BOUND=   12.242  UPPER_BOUND=   14.838
INTER + INTRA:          -3.752
INTER:                  -3.752
INTRA:                   0.000
UNBOUND:                 0.000

$$$$

     RDKit          3D

 45 48  0  0  0  0  0  0  0  0999 V2000
   27.6274    4.8445   30.0198 O   0  0  0  0  0  0  0  0  0  0  0  0
   25.7184    6.0193   31.9847 O   0  0  0  0  0  0  0  0  0  0  0  0
   29.6584    5.0451   28.0127 O   0  0  0  0  0  0  0  0  0  0  0  0
   26.8458    9.8950   31.8298 O   0  0  0  0  0  0  0  0  0  0  0  0
   29.7944    3.0267   26.9372 O   0  0  0  0  0  0  0  0  0  0  0  0
   25.1059    8.7398   32.7727 O   0  0  0  0  0  0  0  0  0  0  0  0
   28.2289    3.1105   31.6027 C   0  0  0  0  0  0  0  0  0  0  0  0
   27.8814    5.3191   32.8270 C   0  0  0  0  0  0  0  0  0  0  0  0
   28.7842    1.8137   31.8302 C   0  0  0  0  0  0  0  0  0  0  0  0
   29.1861    5.6499   33.2905 C   0  0  0  0  0  0  0  0  0  0  0  0
   28.3755    3.7025   30.3220 C   0  0  0  0  0  0  0  0  0  0  0  0
   26.9806    6.3589   32.4848 C   0  0  0  0  0  0  0  0  0  0  0  0
   27.4389    3.8658   32.6753 C   0  0  0  0  0  0  0  0  0  0  0  0
   29.6093    1.2287   30.8325 C   0  0  0  0  0  0  0  0  0  0  0  0
   29.5807    7.0107   33.3502 C   0  0  0  0  0  0  0  0  0  0  0  0
   29.2316    3.1239   29.3574 C   0  0  0  0  0  0  0  0  0  0  0  0
   27.3718    7.7123   32.6074 C   0  0  0  0  0  0  0  0  0  0  0  0
   29.8374    1.8947   29.6268 C   0  0  0  0  0  0  0  0  0  0  0  0
   28.6778    8.0191   33.0050 C   0  0  0  0  0  0  0  0  0  0  0  0
   28.5343    1.0618   33.0054 C   0  0  0  0  0  0  0  0  0  0  0  0
   30.1151    4.6649   33.6984 C   0  0  0  0  0  0  0  0  0  0  0  0
   29.5500    3.7909   28.0752 C   0  0  0  0  0  0  0  0  0  0  0  0
   26.4333    8.8294   32.3628 C   0  0  0  0  0  0  0  0  0  0  0  0
   30.2039   -0.0260   31.0472 C   0  0  0  0  0  0  0  0  0  0  0  0
   30.8749    7.3533   33.7764 C   0  0  0  0  0  0  0  0  0  0  0  0
   29.1288   -0.1872   33.1986 C   0  0  0  0  0  0  0  0  0  0  0  0
   31.3974    5.0220   34.1206 C   0  0  0  0  0  0  0  0  0  0  0  0
   29.9684   -0.7250   32.2281 C   0  0  0  0  0  0  0  0  0  0  0  0
   31.7781    6.3613   34.1547 C   0  0  0  0  0  0  0  0  0  0  0  0
   27.5240    5.2180   29.0862 H   0  0  0  0  0  0  0  0  0  0  0  0
   25.0960    6.6793   31.5392 H   0  0  0  0  0  0  0  0  0  0  0  0
   30.0349    3.4667   26.0570 H   0  0  0  0  0  0  0  0  0  0  0  0
   24.4630    9.5088   32.6257 H   0  0  0  0  0  0  0  0  0  0  0  0
   26.3622    3.7743   32.4257 H   0  0  0  0  0  0  0  0  0  0  0  0
   27.5344    3.4312   33.6838 H   0  0  0  0  0  0  0  0  0  0  0  0
   30.4943    1.4492   28.8872 H   0  0  0  0  0  0  0  0  0  0  0  0
   28.9821    9.0574   33.0854 H   0  0  0  0  0  0  0  0  0  0  0  0
   27.8604    1.3900   33.7781 H   0  0  0  0  0  0  0  0  0  0  0  0
   29.8663    3.6154   33.7090 H   0  0  0  0  0  0  0  0  0  0  0  0
   30.8454   -0.4711   30.2955 H   0  0  0  0  0  0  0  0  0  0  0  0
   31.1863    8.3904   33.8220 H   0  0  0  0  0  0  0  0  0  0  0  0
   28.9286   -0.7457   34.1042 H   0  0  0  0  0  0  0  0  0  0  0  0
   32.0977    4.2552   34.4264 H   0  0  0  0  0  0  0  0  0  0  0  0
   30.4255   -1.6937   32.3844 H   0  0  0  0  0  0  0  0  0  0  0  0
   32.7731    6.6323   34.4837 H   0  0  0  0  0  0  0  0  0  0  0  0
  1 11  1  0
  2 12  1  0
  3 22  2  0
  4 23  2  0
  5 22  1  0
  6 23  1  0
  7  9  1  0
  7 11  2  0
  7 13  1  0
  8 10  1  0
  8 12  2  0
  8 13  1  0
  9 14  2  0
  9 20  1  0
 10 15  2  0
 10 21  1  0
 11 16  1  0
 12 17  1  0
 14 18  1  0
 14 24  1  0
 15 19  1  0
 15 25  1  0
 16 18  2  0
 16 22  1  0
 17 19  2  0
 17 23  1  0
 20 26  2  0
 21 27  2  0
 24 28  2  0
 25 29  2  0
 26 28  1  0
 27 29  1  0
  1 30  1  0
  2 31  1  0
  5 32  1  0
  6 33  1  0
 13 34  1  0
 13 35  1  0
 18 36  1  0
 19 37  1  0
 20 38  1  0
 21 39  1  0
 24 40  1  0
 25 41  1  0
 26 42  1  0
 27 43  1  0
 28 44  1  0
 29 45  1  0
M  END
> <Uni-Dock RESULT> 
ENERGY=   -3.700  LOWER_BOUND=    2.738  UPPER_BOUND=    4.602
INTER + INTRA:          -3.700
INTER:                  -3.700
INTRA:                   0.000
UNBOUND:                 0.000

$$$$

     RDKit          3D

 45 48  0  0  0  0  0  0  0  0999 V2000
   26.6398   12.6169   20.3264 O   0  0  0  0  0  0  0  0  0  0  0  0
   24.7258   13.7973   18.3697 O   0  0  0  0  0  0  0  0  0  0  0  0
   27.3058   11.4920   22.8730 O   0  0  0  0  0  0  0  0  0  0  0  0
   21.2544   13.2424   20.3591 O   0  0  0  0  0  0  0  0  0  0  0  0
   29.5860   11.5333   23.0920 O   0  0  0  0  0  0  0  0  0  0  0  0
   21.8890   14.3794   18.4736 O   0  0  0  0  0  0  0  0  0  0  0  0
   27.6567   11.2914   18.5705 C   0  0  0  0  0  0  0  0  0  0  0  0
   25.1354   11.4126   18.2154 C   0  0  0  0  0  0  0  0  0  0  0  0
   28.7881   10.5508   18.1088 C   0  0  0  0  0  0  0  0  0  0  0  0
   24.7045   10.0742   18.4381 C   0  0  0  0  0  0  0  0  0  0  0  0
   27.6074   11.6880   19.9315 C   0  0  0  0  0  0  0  0  0  0  0  0
   24.2712   12.4859   18.5486 C   0  0  0  0  0  0  0  0  0  0  0  0
   26.5167   11.7154   17.6399 C   0  0  0  0  0  0  0  0  0  0  0  0
   29.7435   10.0861   19.0520 C   0  0  0  0  0  0  0  0  0  0  0  0
   23.4420    9.8390   19.0393 C   0  0  0  0  0  0  0  0  0  0  0  0
   28.5455   11.1832   20.8607 C   0  0  0  0  0  0  0  0  0  0  0  0
   22.9911   12.2301   19.0924 C   0  0  0  0  0  0  0  0  0  0  0  0
   29.6006   10.3882   20.4075 C   0  0  0  0  0  0  0  0  0  0  0  0
   22.6078   10.9118   19.3627 C   0  0  0  0  0  0  0  0  0  0  0  0
   29.0210   10.2703   16.7392 C   0  0  0  0  0  0  0  0  0  0  0  0
   25.4942    8.9571   18.0800 C   0  0  0  0  0  0  0  0  0  0  0  0
   28.4346   11.4299   22.3157 C   0  0  0  0  0  0  0  0  0  0  0  0
   22.0167   13.3113   19.3571 C   0  0  0  0  0  0  0  0  0  0  0  0
   30.8427    9.3185   18.6317 C   0  0  0  0  0  0  0  0  0  0  0  0
   23.0141    8.5252   19.2941 C   0  0  0  0  0  0  0  0  0  0  0  0
   30.1232    9.5112   16.3392 C   0  0  0  0  0  0  0  0  0  0  0  0
   25.0541    7.6574   18.3389 C   0  0  0  0  0  0  0  0  0  0  0  0
   31.0252    9.0284   17.2822 C   0  0  0  0  0  0  0  0  0  0  0  0
   23.8205    7.4419   18.9487 C   0  0  0  0  0  0  0  0  0  0  0  0
   26.6491   13.0940   21.2176 H   0  0  0  0  0  0  0  0  0  0  0  0
   24.2628   14.6085   18.7558 H   0  0  0  0  0  0  0  0  0  0  0  0
   29.5273   11.6803   24.0925 H   0  0  0  0  0  0  0  0  0  0  0  0
   21.2101   15.1130   18.6388 H   0  0  0  0  0  0  0  0  0  0  0  0
   26.6538   12.7916   17.4103 H   0  0  0  0  0  0  0  0  0  0  0  0
   26.5347   11.2115   16.6597 H   0  0  0  0  0  0  0  0  0  0  0  0
   30.3216   10.0006   21.1196 H   0  0  0  0  0  0  0  0  0  0  0  0
   21.6312   10.7166   19.7931 H   0  0  0  0  0  0  0  0  0  0  0  0
   28.3949   10.6487   15.9494 H   0  0  0  0  0  0  0  0  0  0  0  0
   26.4485    9.0666   17.5893 H   0  0  0  0  0  0  0  0  0  0  0  0
   31.5673    8.9494   19.3482 H   0  0  0  0  0  0  0  0  0  0  0  0
   22.0522    8.3361   19.7562 H   0  0  0  0  0  0  0  0  0  0  0  0
   30.2831    9.3045   15.2886 H   0  0  0  0  0  0  0  0  0  0  0  0
   25.6723    6.8131   18.0616 H   0  0  0  0  0  0  0  0  0  0  0  0
   31.8773    8.4411   16.9649 H   0  0  0  0  0  0  0  0  0  0  0  0
   23.4842    6.4322   19.1463 H   0  0  0  0  0  0  0  0  0  0  0  0
  1 11  1  0
  2 12  1  0
  3 22  2  0
  4 23  2  0
  5 22  1  0
  6 23  1  0
  7  9  1  0
  7 11  2  0
  7 13  1  0
  8 10  1  0
  8 12  2  0
  8 13  1  0
  9 14  2  0
  9 20  1  0
 10 15  2  0
 10 21  1  0
 11 16  1  0
 12 17  1  0
 14 18  1  0
 14 24  1  0
 15 19  1  0
 15 25  1  0
 16 18  2  0
 16 22  1  0
 17 19  2  0
 17 23  1  0
 20 26  2  0
 21 27  2  0
 24 28  2  0
 25 29  2  0
 26 28  1  0
 27 29  1  0
  1 30  1  0
  2 31  1  0
  5 32  1  0
  6 33  1  0
 13 34  1  0
 13 35  1  0
 18 36  1  0
 19 37  1  0
 20 38  1  0
 21 39  1  0
 24 40  1  0
 25 41  1  0
 26 42  1  0
 27 43  1  0
 28 44  1  0
 29 45  1  0
M  END
> <Uni-Dock RESULT> 
ENERGY=   -3.673  LOWER_BOUND=   11.912  UPPER_BOUND=   15.046
INTER + INTRA:          -3.673
INTER:                  -3.673
INTRA:                   0.000
UNBOUND:                 0.000

$$$$
