
     RDKit          3D

 45 48  0  0  0  0  0  0  0  0999 V2000
   26.2848    7.1677   31.4645 O   0  0  0  0  0  0  0  0  0  0  0  0
   27.7082    2.9195   30.1044 O   0  0  0  0  0  0  0  0  0  0  0  0
   22.3783    7.6341   30.5682 O   0  0  0  0  0  0  0  0  0  0  0  0
   29.5584    1.9912   28.1178 O   0  0  0  0  0  0  0  0  0  0  0  0
   24.3614    8.1678   29.5518 O   0  0  0  0  0  0  0  0  0  0  0  0
   29.6699    3.5831   26.4738 O   0  0  0  0  0  0  0  0  0  0  0  0
   26.0476    4.7799   31.7828 C   0  0  0  0  0  0  0  0  0  0  0  0
   28.4413    5.0468   30.9967 C   0  0  0  0  0  0  0  0  0  0  0  0
   25.2075    3.6222   31.8289 C   0  0  0  0  0  0  0  0  0  0  0  0
   29.2200    6.2397   30.8636 C   0  0  0  0  0  0  0  0  0  0  0  0
   25.4928    6.0191   31.3757 C   0  0  0  0  0  0  0  0  0  0  0  0
   28.5029    4.0631   29.9770 C   0  0  0  0  0  0  0  0  0  0  0  0
   27.5224    4.7685   32.1868 C   0  0  0  0  0  0  0  0  0  0  0  0
   23.8484    3.7390   31.4275 C   0  0  0  0  0  0  0  0  0  0  0  0
   29.9997    6.4275   29.6897 C   0  0  0  0  0  0  0  0  0  0  0  0
   24.1562    6.0986   30.9279 C   0  0  0  0  0  0  0  0  0  0  0  0
   29.3267    4.2498   28.8439 C   0  0  0  0  0  0  0  0  0  0  0  0
   23.3461    4.9623   30.9797 C   0  0  0  0  0  0  0  0  0  0  0  0
   30.0364    5.4431   28.7003 C   0  0  0  0  0  0  0  0  0  0  0  0
   25.6576    2.3496   32.2649 C   0  0  0  0  0  0  0  0  0  0  0  0
   29.2572    7.2599   31.8482 C   0  0  0  0  0  0  0  0  0  0  0  0
   23.5875    7.3423   30.3629 C   0  0  0  0  0  0  0  0  0  0  0  0
   29.5013    3.2107   27.8048 C   0  0  0  0  0  0  0  0  0  0  0  0
   22.9960    2.6225   31.4628 C   0  0  0  0  0  0  0  0  0  0  0  0
   30.7580    7.5977   29.5171 C   0  0  0  0  0  0  0  0  0  0  0  0
   24.7945    1.2518   32.2936 C   0  0  0  0  0  0  0  0  0  0  0  0
   30.0185    8.4155   31.6591 C   0  0  0  0  0  0  0  0  0  0  0  0
   23.4691    1.3871   31.8947 C   0  0  0  0  0  0  0  0  0  0  0  0
   30.7635    8.5859   30.4971 C   0  0  0  0  0  0  0  0  0  0  0  0
   25.9224    8.1076   31.3803 H   0  0  0  0  0  0  0  0  0  0  0  0
   27.5357    2.2660   29.3530 H   0  0  0  0  0  0  0  0  0  0  0  0
   23.9729    9.0108   29.1461 H   0  0  0  0  0  0  0  0  0  0  0  0
   29.8134    2.8861   25.7529 H   0  0  0  0  0  0  0  0  0  0  0  0
   27.8599    3.8259   32.6433 H   0  0  0  0  0  0  0  0  0  0  0  0
   27.6394    5.4722   33.0249 H   0  0  0  0  0  0  0  0  0  0  0  0
   22.3161    5.0263   30.6448 H   0  0  0  0  0  0  0  0  0  0  0  0
   30.6593    5.5907   27.8242 H   0  0  0  0  0  0  0  0  0  0  0  0
   26.6665    2.1573   32.5826 H   0  0  0  0  0  0  0  0  0  0  0  0
   28.7107    7.2074   32.7727 H   0  0  0  0  0  0  0  0  0  0  0  0
   21.9601    2.7060   31.1548 H   0  0  0  0  0  0  0  0  0  0  0  0
   31.3523    7.7463   28.6230 H   0  0  0  0  0  0  0  0  0  0  0  0
   25.1585    0.2882   32.6268 H   0  0  0  0  0  0  0  0  0  0  0  0
   30.0293    9.1849   32.4207 H   0  0  0  0  0  0  0  0  0  0  0  0
   22.8065    0.5315   31.9191 H   0  0  0  0  0  0  0  0  0  0  0  0
   31.3508    9.4842   30.3575 H   0  0  0  0  0  0  0  0  0  0  0  0
  1 11  1  0
  2 12  1  0
  3 22  2  0
  4 23  2  0
  5 22  1  0
  6 23  1  0
  7  9  1  0
  7 11  2  0
  7 13  1  0
  8 10  1  0
  8 12  2  0
  8 13  1  0
  9 14  2  0
  9 20  1  0
 10 15  2  0
 10 21  1  0
 11 16  1  0
 12 17  1  0
 14 18  1  0
 14 24  1  0
 15 19  1  0
 15 25  1  0
 16 18  2  0
 16 22  1  0
 17 19  2  0
 17 23  1  0
 20 26  2  0
 21 27  2  0
 24 28  2  0
 25 29  2  0
 26 28  1  0
 27 29  1  0
  1 30  1  0
  2 31  1  0
  5 32  1  0
  6 33  1  0
 13 34  1  0
 13 35  1  0
 18 36  1  0
 19 37  1  0
 20 38  1  0
 21 39  1  0
 24 40  1  0
 25 41  1  0
 26 42  1  0
 27 43  1  0
 28 44  1  0
 29 45  1  0
M  END
> <Uni-Dock RESULT> 
ENERGY=   -5.101  LOWER_BOUND=    0.000  UPPER_BOUND=    0.000
INTER + INTRA:          -5.101
INTER:                  -5.101
INTRA:                   0.000
UNBOUND:                 0.000

$$$$

     RDKit          3D

 45 48  0  0  0  0  0  0  0  0999 V2000
   23.2810    3.5383   31.3609 O   0  0  0  0  0  0  0  0  0  0  0  0
   20.4562    5.3654   28.1043 O   0  0  0  0  0  0  0  0  0  0  0  0
   26.3718    6.0450   32.0279 O   0  0  0  0  0  0  0  0  0  0  0  0
   19.7552    4.5954   25.4309 O   0  0  0  0  0  0  0  0  0  0  0  0
   26.0172    4.2056   30.7083 O   0  0  0  0  0  0  0  0  0  0  0  0
   21.5004    3.3810   24.5771 O   0  0  0  0  0  0  0  0  0  0  0  0
   21.7775    5.3518   30.8043 C   0  0  0  0  0  0  0  0  0  0  0  0
   20.8944    3.4014   29.4495 C   0  0  0  0  0  0  0  0  0  0  0  0
   21.5392    6.7571   30.6756 C   0  0  0  0  0  0  0  0  0  0  0  0
   21.2350    2.0144   29.5361 C   0  0  0  0  0  0  0  0  0  0  0  0
   23.0868    4.8985   31.1033 C   0  0  0  0  0  0  0  0  0  0  0  0
   20.7536    4.0007   28.1719 C   0  0  0  0  0  0  0  0  0  0  0  0
   20.6804    4.2947   30.6719 C   0  0  0  0  0  0  0  0  0  0  0  0
   22.6309    7.6578   30.8128 C   0  0  0  0  0  0  0  0  0  0  0  0
   21.4684    1.2851   28.3383 C   0  0  0  0  0  0  0  0  0  0  0  0
   24.1648    5.8071   31.1787 C   0  0  0  0  0  0  0  0  0  0  0  0
   20.9394    3.2409   26.9947 C   0  0  0  0  0  0  0  0  0  0  0  0
   23.9191    7.1760   31.0535 C   0  0  0  0  0  0  0  0  0  0  0  0
   21.3269    1.9037   27.0947 C   0  0  0  0  0  0  0  0  0  0  0  0
   20.2577    7.3103   30.4229 C   0  0  0  0  0  0  0  0  0  0  0  0
   21.3566    1.3172   30.7652 C   0  0  0  0  0  0  0  0  0  0  0  0
   25.5642    5.3566   31.3471 C   0  0  0  0  0  0  0  0  0  0  0  0
   20.7056    3.7951   25.6426 C   0  0  0  0  0  0  0  0  0  0  0  0
   22.4313    9.0436   30.6944 C   0  0  0  0  0  0  0  0  0  0  0  0
   21.8268   -0.0726   28.3887 C   0  0  0  0  0  0  0  0  0  0  0  0
   20.0794    8.6909   30.3093 C   0  0  0  0  0  0  0  0  0  0  0  0
   21.7124   -0.0330   30.7947 C   0  0  0  0  0  0  0  0  0  0  0  0
   21.1610    9.5545   30.4448 C   0  0  0  0  0  0  0  0  0  0  0  0
   21.9499   -0.7249   29.6119 C   0  0  0  0  0  0  0  0  0  0  0  0
   24.1268    3.1581   31.7631 H   0  0  0  0  0  0  0  0  0  0  0  0
   20.5281    5.9172   27.2606 H   0  0  0  0  0  0  0  0  0  0  0  0
   26.9789    3.9018   30.8038 H   0  0  0  0  0  0  0  0  0  0  0  0
   21.3396    3.7327   23.6408 H   0  0  0  0  0  0  0  0  0  0  0  0
   19.6621    4.7052   30.5991 H   0  0  0  0  0  0  0  0  0  0  0  0
   20.6300    3.7515   31.6278 H   0  0  0  0  0  0  0  0  0  0  0  0
   24.7465    7.8746   31.1214 H   0  0  0  0  0  0  0  0  0  0  0  0
   21.4810    1.3244   26.1904 H   0  0  0  0  0  0  0  0  0  0  0  0
   19.3717    6.7143   30.2979 H   0  0  0  0  0  0  0  0  0  0  0  0
   21.1916    1.7772   31.7230 H   0  0  0  0  0  0  0  0  0  0  0  0
   23.2609    9.7338   30.7951 H   0  0  0  0  0  0  0  0  0  0  0  0
   22.0078   -0.6323   27.4784 H   0  0  0  0  0  0  0  0  0  0  0  0
   19.0935    9.0931   30.1131 H   0  0  0  0  0  0  0  0  0  0  0  0
   21.8051   -0.5458   31.7438 H   0  0  0  0  0  0  0  0  0  0  0  0
   21.0150   10.6233   30.3549 H   0  0  0  0  0  0  0  0  0  0  0  0
   22.2255   -1.7712   29.6428 H   0  0  0  0  0  0  0  0  0  0  0  0
  1 11  1  0
  2 12  1  0
  3 22  2  0
  4 23  2  0
  5 22  1  0
  6 23  1  0
  7  9  1  0
  7 11  2  0
  7 13  1  0
  8 10  1  0
  8 12  2  0
  8 13  1  0
  9 14  2  0
  9 20  1  0
 10 15  2  0
 10 21  1  0
 11 16  1  0
 12 17  1  0
 14 18  1  0
 14 24  1  0
 15 19  1  0
 15 25  1  0
 16 18  2  0
 16 22  1  0
 17 19  2  0
 17 23  1  0
 20 26  2  0
 21 27  2  0
 24 28  2  0
 25 29  2  0
 26 28  1  0
 27 29  1  0
  1 30  1  0
  2 31  1  0
  5 32  1  0
  6 33  1  0
 13 34  1  0
 13 35  1  0
 18 36  1  0
 19 37  1  0
 20 38  1  0
 21 39  1  0
 24 40  1  0
 25 41  1  0
 26 42  1  0
 27 43  1  0
 28 44  1  0
 29 45  1  0
M  END
> <Uni-Dock RESULT> 
ENERGY=   -4.701  LOWER_BOUND=    3.706  UPPER_BOUND=    7.869
INTER + INTRA:          -4.701
INTER:                  -4.701
INTRA:                   0.000
UNBOUND:                 0.000

$$$$

     RDKit          3D

 45 48  0  0  0  0  0  0  0  0999 V2000
   25.2749    5.6488   32.0396 O   0  0  0  0  0  0  0  0  0  0  0  0
   27.9329    2.1405   30.4426 O   0  0  0  0  0  0  0  0  0  0  0  0
   21.4240    4.9940   31.0279 O   0  0  0  0  0  0  0  0  0  0  0  0
   30.0080    1.9661   28.4690 O   0  0  0  0  0  0  0  0  0  0  0  0
   23.1702    6.1740   30.1285 O   0  0  0  0  0  0  0  0  0  0  0  0
   29.6610    3.6418   26.9456 O   0  0  0  0  0  0  0  0  0  0  0  0
   25.7627    3.2821   32.1813 C   0  0  0  0  0  0  0  0  0  0  0  0
   27.9771    4.3131   31.5087 C   0  0  0  0  0  0  0  0  0  0  0  0
   25.3096    1.9262   32.1141 C   0  0  0  0  0  0  0  0  0  0  0  0
   28.3625    5.6909   31.4892 C   0  0  0  0  0  0  0  0  0  0  0  0
   24.8671    4.3265   31.8405 C   0  0  0  0  0  0  0  0  0  0  0  0
   28.3482    3.4756   30.4261 C   0  0  0  0  0  0  0  0  0  0  0  0
   27.1660    3.6807   32.6401 C   0  0  0  0  0  0  0  0  0  0  0  0
   23.9850    1.6622   31.6697 C   0  0  0  0  0  0  0  0  0  0  0  0
   29.0679    6.1943   30.3622 C   0  0  0  0  0  0  0  0  0  0  0  0
   23.5759    4.0373   31.3480 C   0  0  0  0  0  0  0  0  0  0  0  0
   29.0954    3.9881   29.3413 C   0  0  0  0  0  0  0  0  0  0  0  0
   23.1448    2.7104   31.2892 C   0  0  0  0  0  0  0  0  0  0  0  0
   29.4151    5.3464   29.3088 C   0  0  0  0  0  0  0  0  0  0  0  0
   26.1150    0.8165   32.4774 C   0  0  0  0  0  0  0  0  0  0  0  0
   28.0751    6.5954   32.5433 C   0  0  0  0  0  0  0  0  0  0  0  0
   22.6681    5.0942   30.8495 C   0  0  0  0  0  0  0  0  0  0  0  0
   29.5913    3.1332   28.2398 C   0  0  0  0  0  0  0  0  0  0  0  0
   23.5078    0.3427   31.5941 C   0  0  0  0  0  0  0  0  0  0  0  0
   29.4413    7.5475   30.3011 C   0  0  0  0  0  0  0  0  0  0  0  0
   25.6223   -0.4878   32.3961 C   0  0  0  0  0  0  0  0  0  0  0  0
   28.4560    7.9368   32.4647 C   0  0  0  0  0  0  0  0  0  0  0  0
   24.3241   -0.7245   31.9568 C   0  0  0  0  0  0  0  0  0  0  0  0
   29.1334    8.4124   31.3471 C   0  0  0  0  0  0  0  0  0  0  0  0
   24.6478    6.4408   32.0072 H   0  0  0  0  0  0  0  0  0  0  0  0
   27.9771    1.5261   29.6414 H   0  0  0  0  0  0  0  0  0  0  0  0
   22.5524    6.8913   29.7678 H   0  0  0  0  0  0  0  0  0  0  0  0
   30.0192    3.0781   26.1839 H   0  0  0  0  0  0  0  0  0  0  0  0
   27.7643    2.8495   33.0425 H   0  0  0  0  0  0  0  0  0  0  0  0
   27.0522    4.3196   33.5291 H   0  0  0  0  0  0  0  0  0  0  0  0
   22.1488    2.4893   30.9200 H   0  0  0  0  0  0  0  0  0  0  0  0
   29.9784    5.7415   28.4699 H   0  0  0  0  0  0  0  0  0  0  0  0
   27.1299    0.9106   32.8196 H   0  0  0  0  0  0  0  0  0  0  0  0
   27.5552    6.3098   33.4401 H   0  0  0  0  0  0  0  0  0  0  0  0
   22.5000    0.1364   31.2529 H   0  0  0  0  0  0  0  0  0  0  0  0
   29.9774    7.9364   29.4431 H   0  0  0  0  0  0  0  0  0  0  0  0
   26.2542   -1.3215   32.6752 H   0  0  0  0  0  0  0  0  0  0  0  0
   28.2225    8.6123   33.2779 H   0  0  0  0  0  0  0  0  0  0  0  0
   23.9496   -1.7382   31.8959 H   0  0  0  0  0  0  0  0  0  0  0  0
   29.4252    9.4533   31.2933 H   0  0  0  0  0  0  0  0  0  0  0  0
  1 11  1  0
  2 12  1  0
  3 22  2  0
  4 23  2  0
  5 22  1  0
  6 23  1  0
  7  9  1  0
  7 11  2  0
  7 13  1  0
  8 10  1  0
  8 12  2  0
  8 13  1  0
  9 14  2  0
  9 20  1  0
 10 15  2  0
 10 21  1  0
 11 16  1  0
 12 17  1  0
 14 18  1  0
 14 24  1  0
 15 19  1  0
 15 25  1  0
 16 18  2  0
 16 22  1  0
 17 19  2  0
 17 23  1  0
 20 26  2  0
 21 27  2  0
 24 28  2  0
 25 29  2  0
 26 28  1  0
 27 29  1  0
  1 30  1  0
  2 31  1  0
  5 32  1  0
  6 33  1  0
 13 34  1  0
 13 35  1  0
 18 36  1  0
 19 37  1  0
 20 38  1  0
 21 39  1  0
 24 40  1  0
 25 41  1  0
 26 42  1  0
 27 43  1  0
 28 44  1  0
 29 45  1  0
M  END
> <Uni-Dock RESULT> 
ENERGY=   -4.494  LOWER_BOUND=    1.225  UPPER_BOUND=    1.701
INTER + INTRA:          -4.494
INTER:                  -4.494
INTRA:                   0.000
UNBOUND:                 0.000

$$$$

     RDKit          3D

 45 48  0  0  0  0  0  0  0  0999 V2000
   26.9576   12.5320   25.3178 O   0  0  0  0  0  0  0  0  0  0  0  0
   30.5446   11.1253   22.6574 O   0  0  0  0  0  0  0  0  0  0  0  0
   26.7372   10.2219   28.6188 O   0  0  0  0  0  0  0  0  0  0  0  0
   30.7335    9.9332   20.0545 O   0  0  0  0  0  0  0  0  0  0  0  0
   25.7441   10.2173   26.5538 O   0  0  0  0  0  0  0  0  0  0  0  0
   28.7827    8.7958   19.6676 O   0  0  0  0  0  0  0  0  0  0  0  0
   29.3609   12.2876   25.1641 C   0  0  0  0  0  0  0  0  0  0  0  0
   28.6341   12.6081   22.7583 C   0  0  0  0  0  0  0  0  0  0  0  0
   30.5829   11.7767   25.7062 C   0  0  0  0  0  0  0  0  0  0  0  0
   27.3638   13.0225   22.2466 C   0  0  0  0  0  0  0  0  0  0  0  0
   28.1319   11.9216   25.7681 C   0  0  0  0  0  0  0  0  0  0  0  0
   29.3214   11.5424   22.1234 C   0  0  0  0  0  0  0  0  0  0  0  0
   29.3019   13.2482   23.9758 C   0  0  0  0  0  0  0  0  0  0  0  0
   30.5278   10.8846   26.8122 C   0  0  0  0  0  0  0  0  0  0  0  0
   26.8032   12.3237   21.1428 C   0  0  0  0  0  0  0  0  0  0  0  0
   28.0987   10.9904   26.8288 C   0  0  0  0  0  0  0  0  0  0  0  0
   28.7667   10.8978   20.9944 C   0  0  0  0  0  0  0  0  0  0  0  0
   29.2980   10.5007   27.3503 C   0  0  0  0  0  0  0  0  0  0  0  0
   27.5014   11.2749   20.5414 C   0  0  0  0  0  0  0  0  0  0  0  0
   31.8632   12.1198   25.2010 C   0  0  0  0  0  0  0  0  0  0  0  0
   26.6214   14.1037   22.7865 C   0  0  0  0  0  0  0  0  0  0  0  0
   26.8279   10.4781   27.3877 C   0  0  0  0  0  0  0  0  0  0  0  0
   29.4894    9.8508   20.2386 C   0  0  0  0  0  0  0  0  0  0  0  0
   31.7088   10.3663   27.3698 C   0  0  0  0  0  0  0  0  0  0  0  0
   25.5473   12.6903   20.6303 C   0  0  0  0  0  0  0  0  0  0  0  0
   33.0258   11.5947   25.7697 C   0  0  0  0  0  0  0  0  0  0  0  0
   25.3752   14.4541   22.2622 C   0  0  0  0  0  0  0  0  0  0  0  0
   32.9497   10.7220   26.8498 C   0  0  0  0  0  0  0  0  0  0  0  0
   24.8382   13.7488   21.1907 C   0  0  0  0  0  0  0  0  0  0  0  0
   26.0743   12.4791   25.8063 H   0  0  0  0  0  0  0  0  0  0  0  0
   31.0074   10.2641   22.4014 H   0  0  0  0  0  0  0  0  0  0  0  0
   24.8775    9.8485   26.9269 H   0  0  0  0  0  0  0  0  0  0  0  0
   29.2585    8.0828   19.1278 H   0  0  0  0  0  0  0  0  0  0  0  0
   30.2827   13.6236   23.6475 H   0  0  0  0  0  0  0  0  0  0  0  0
   28.8185   14.1735   24.3245 H   0  0  0  0  0  0  0  0  0  0  0  0
   29.2723    9.7926   28.1720 H   0  0  0  0  0  0  0  0  0  0  0  0
   27.0711   10.7714   19.6820 H   0  0  0  0  0  0  0  0  0  0  0  0
   32.0105   12.7805   24.3658 H   0  0  0  0  0  0  0  0  0  0  0  0
   26.9634   14.6989   23.6141 H   0  0  0  0  0  0  0  0  0  0  0  0
   31.6716    9.6836   28.2108 H   0  0  0  0  0  0  0  0  0  0  0  0
   25.1148   12.1593   19.7902 H   0  0  0  0  0  0  0  0  0  0  0  0
   33.9934   11.8668   25.3673 H   0  0  0  0  0  0  0  0  0  0  0  0
   24.8220   15.2796   22.6921 H   0  0  0  0  0  0  0  0  0  0  0  0
   33.8552   10.3187   27.2847 H   0  0  0  0  0  0  0  0  0  0  0  0
   23.8717   14.0260   20.7899 H   0  0  0  0  0  0  0  0  0  0  0  0
  1 11  1  0
  2 12  1  0
  3 22  2  0
  4 23  2  0
  5 22  1  0
  6 23  1  0
  7  9  1  0
  7 11  2  0
  7 13  1  0
  8 10  1  0
  8 12  2  0
  8 13  1  0
  9 14  2  0
  9 20  1  0
 10 15  2  0
 10 21  1  0
 11 16  1  0
 12 17  1  0
 14 18  1  0
 14 24  1  0
 15 19  1  0
 15 25  1  0
 16 18  2  0
 16 22  1  0
 17 19  2  0
 17 23  1  0
 20 26  2  0
 21 27  2  0
 24 28  2  0
 25 29  2  0
 26 28  1  0
 27 29  1  0
  1 30  1  0
  2 31  1  0
  5 32  1  0
  6 33  1  0
 13 34  1  0
 13 35  1  0
 18 36  1  0
 19 37  1  0
 20 38  1  0
 21 39  1  0
 24 40  1  0
 25 41  1  0
 26 42  1  0
 27 43  1  0
 28 44  1  0
 29 45  1  0
M  END
> <Uni-Dock RESULT> 
ENERGY=   -4.486  LOWER_BOUND=    7.850  UPPER_BOUND=   10.677
INTER + INTRA:          -4.486
INTER:                  -4.486
INTRA:                   0.000
UNBOUND:                 0.000

$$$$

     RDKit          3D

 45 48  0  0  0  0  0  0  0  0999 V2000
   26.9701   12.5340   25.2647 O   0  0  0  0  0  0  0  0  0  0  0  0
   30.5662   11.0989   22.6318 O   0  0  0  0  0  0  0  0  0  0  0  0
   26.7519   10.2736   28.6001 O   0  0  0  0  0  0  0  0  0  0  0  0
   30.7634    9.8681   20.0476 O   0  0  0  0  0  0  0  0  0  0  0  0
   25.7622   10.2343   26.5338 O   0  0  0  0  0  0  0  0  0  0  0  0
   28.8169    8.7184   19.6749 O   0  0  0  0  0  0  0  0  0  0  0  0
   29.3744   12.2952   25.1186 C   0  0  0  0  0  0  0  0  0  0  0  0
   28.6507   12.5768   22.7070 C   0  0  0  0  0  0  0  0  0  0  0  0
   30.5972   11.7967   25.6704 C   0  0  0  0  0  0  0  0  0  0  0  0
   27.3798   12.9791   22.1871 C   0  0  0  0  0  0  0  0  0  0  0  0
   28.1457   11.9344   25.7262 C   0  0  0  0  0  0  0  0  0  0  0  0
   29.3425   11.5038   22.0895 C   0  0  0  0  0  0  0  0  0  0  0  0
   29.3143   13.2375   23.9157 C   0  0  0  0  0  0  0  0  0  0  0  0
   30.5432   10.9213   26.7897 C   0  0  0  0  0  0  0  0  0  0  0  0
   26.8234   12.2617   21.0931 C   0  0  0  0  0  0  0  0  0  0  0  0
   28.1138   11.0193   26.8008 C   0  0  0  0  0  0  0  0  0  0  0  0
   28.7918   10.8403   20.9696 C   0  0  0  0  0  0  0  0  0  0  0  0
   29.3138   10.5416   27.3316 C   0  0  0  0  0  0  0  0  0  0  0  0
   27.5261   11.2062   20.5089 C   0  0  0  0  0  0  0  0  0  0  0  0
   31.8772   12.1363   25.1621 C   0  0  0  0  0  0  0  0  0  0  0  0
   26.6330   14.0659   22.7092 C   0  0  0  0  0  0  0  0  0  0  0  0
   26.8438   10.5114   27.3653 C   0  0  0  0  0  0  0  0  0  0  0  0
   29.5193    9.7843   20.2310 C   0  0  0  0  0  0  0  0  0  0  0  0
   31.7250   10.4156   27.3571 C   0  0  0  0  0  0  0  0  0  0  0  0
   25.5672   12.6164   20.5731 C   0  0  0  0  0  0  0  0  0  0  0  0
   33.0406   11.6239   25.7406 C   0  0  0  0  0  0  0  0  0  0  0  0
   25.3865   14.4042   22.1777 C   0  0  0  0  0  0  0  0  0  0  0  0
   32.9656   10.7674   26.8337 C   0  0  0  0  0  0  0  0  0  0  0  0
   24.8537   13.6808   21.1161 C   0  0  0  0  0  0  0  0  0  0  0  0
   26.0862   12.4856   25.7526 H   0  0  0  0  0  0  0  0  0  0  0  0
   31.0323   10.2355   22.3897 H   0  0  0  0  0  0  0  0  0  0  0  0
   24.8962    9.8684   26.9111 H   0  0  0  0  0  0  0  0  0  0  0  0
   29.2960    7.9989   19.1468 H   0  0  0  0  0  0  0  0  0  0  0  0
   30.2944   13.6111   23.5833 H   0  0  0  0  0  0  0  0  0  0  0  0
   28.8273   14.1664   24.2496 H   0  0  0  0  0  0  0  0  0  0  0  0
   29.2891    9.8460   28.1639 H   0  0  0  0  0  0  0  0  0  0  0  0
   27.0989   10.6883   19.6565 H   0  0  0  0  0  0  0  0  0  0  0  0
   32.0237   12.7848   24.3172 H   0  0  0  0  0  0  0  0  0  0  0  0
   26.9716   14.6747   23.5283 H   0  0  0  0  0  0  0  0  0  0  0  0
   31.6887    9.7456   28.2083 H   0  0  0  0  0  0  0  0  0  0  0  0
   25.1378   12.0712   19.7405 H   0  0  0  0  0  0  0  0  0  0  0  0
   34.0080   11.8930   25.3357 H   0  0  0  0  0  0  0  0  0  0  0  0
   24.8298   15.2342   22.5940 H   0  0  0  0  0  0  0  0  0  0  0  0
   33.8717   10.3738   27.2762 H   0  0  0  0  0  0  0  0  0  0  0  0
   23.8869   13.9487   20.7096 H   0  0  0  0  0  0  0  0  0  0  0  0
  1 11  1  0
  2 12  1  0
  3 22  2  0
  4 23  2  0
  5 22  1  0
  6 23  1  0
  7  9  1  0
  7 11  2  0
  7 13  1  0
  8 10  1  0
  8 12  2  0
  8 13  1  0
  9 14  2  0
  9 20  1  0
 10 15  2  0
 10 21  1  0
 11 16  1  0
 12 17  1  0
 14 18  1  0
 14 24  1  0
 15 19  1  0
 15 25  1  0
 16 18  2  0
 16 22  1  0
 17 19  2  0
 17 23  1  0
 20 26  2  0
 21 27  2  0
 24 28  2  0
 25 29  2  0
 26 28  1  0
 27 29  1  0
  1 30  1  0
  2 31  1  0
  5 32  1  0
  6 33  1  0
 13 34  1  0
 13 35  1  0
 18 36  1  0
 19 37  1  0
 20 38  1  0
 21 39  1  0
 24 40  1  0
 25 41  1  0
 26 42  1  0
 27 43  1  0
 28 44  1  0
 29 45  1  0
M  END
> <Uni-Dock RESULT> 
ENERGY=   -4.480  LOWER_BOUND=    7.863  UPPER_BOUND=   10.697
INTER + INTRA:          -4.480
INTER:                  -4.480
INTRA:                   0.000
UNBOUND:                 0.000

$$$$

     RDKit          3D

 45 48  0  0  0  0  0  0  0  0999 V2000
   29.3036   11.8430   23.5430 O   0  0  0  0  0  0  0  0  0  0  0  0
   25.6828   12.8053   26.3515 O   0  0  0  0  0  0  0  0  0  0  0  0
   27.9745   11.2603   19.7780 O   0  0  0  0  0  0  0  0  0  0  0  0
   24.4647   11.4311   28.5560 O   0  0  0  0  0  0  0  0  0  0  0  0
   28.4653    9.9102   21.5632 O   0  0  0  0  0  0  0  0  0  0  0  0
   24.8678    9.1918   28.2875 O   0  0  0  0  0  0  0  0  0  0  0  0
   27.5263   13.4048   24.0541 C   0  0  0  0  0  0  0  0  0  0  0  0
   28.0587   12.3462   26.2935 C   0  0  0  0  0  0  0  0  0  0  0  0
   26.3810   14.1488   23.6259 C   0  0  0  0  0  0  0  0  0  0  0  0
   29.1658   11.5170   26.6595 C   0  0  0  0  0  0  0  0  0  0  0  0
   28.1082   12.4636   23.1683 C   0  0  0  0  0  0  0  0  0  0  0  0
   26.7592   12.0055   26.7479 C   0  0  0  0  0  0  0  0  0  0  0  0
   28.1924   13.5925   25.4178 C   0  0  0  0  0  0  0  0  0  0  0  0
   25.8350   13.8949   22.3378 C   0  0  0  0  0  0  0  0  0  0  0  0
   28.9264   10.3473   27.4313 C   0  0  0  0  0  0  0  0  0  0  0  0
   27.5149   12.1881   21.9172 C   0  0  0  0  0  0  0  0  0  0  0  0
   26.5546   10.8658   27.5584 C   0  0  0  0  0  0  0  0  0  0  0  0
   26.3990   12.9223   21.5100 C   0  0  0  0  0  0  0  0  0  0  0  0
   27.6350   10.0351   27.8601 C   0  0  0  0  0  0  0  0  0  0  0  0
   25.7559   15.1432   24.4211 C   0  0  0  0  0  0  0  0  0  0  0  0
   30.5058   11.7983   26.2896 C   0  0  0  0  0  0  0  0  0  0  0  0
   28.0114   11.1133   21.0296 C   0  0  0  0  0  0  0  0  0  0  0  0
   25.2364   10.5262   28.1388 C   0  0  0  0  0  0  0  0  0  0  0  0
   24.7125   14.6090   21.8857 C   0  0  0  0  0  0  0  0  0  0  0  0
   29.9882    9.4992   27.7885 C   0  0  0  0  0  0  0  0  0  0  0  0
   24.6412   15.8430   23.9536 C   0  0  0  0  0  0  0  0  0  0  0  0
   31.5482   10.9437   26.6556 C   0  0  0  0  0  0  0  0  0  0  0  0
   24.1215   15.5779   22.6912 C   0  0  0  0  0  0  0  0  0  0  0  0
   31.2908    9.7970   27.3992 C   0  0  0  0  0  0  0  0  0  0  0  0
   29.8834   11.3116   22.9082 H   0  0  0  0  0  0  0  0  0  0  0  0
   24.7136   12.5396   26.4579 H   0  0  0  0  0  0  0  0  0  0  0  0
   28.7887    9.1629   20.9606 H   0  0  0  0  0  0  0  0  0  0  0  0
   23.9789    8.9410   28.7037 H   0  0  0  0  0  0  0  0  0  0  0  0
   27.8022   14.4409   25.9998 H   0  0  0  0  0  0  0  0  0  0  0  0
   29.2303   13.9102   25.2359 H   0  0  0  0  0  0  0  0  0  0  0  0
   25.9493   12.7171   20.5441 H   0  0  0  0  0  0  0  0  0  0  0  0
   27.4749    9.1538   28.4724 H   0  0  0  0  0  0  0  0  0  0  0  0
   26.0889   15.4043   25.4094 H   0  0  0  0  0  0  0  0  0  0  0  0
   30.7902   12.6615   25.7151 H   0  0  0  0  0  0  0  0  0  0  0  0
   24.2909   14.4167   20.9059 H   0  0  0  0  0  0  0  0  0  0  0  0
   29.8104    8.6052   28.3751 H   0  0  0  0  0  0  0  0  0  0  0  0
   24.1767   16.5962   24.5773 H   0  0  0  0  0  0  0  0  0  0  0  0
   32.5636   11.1737   26.3588 H   0  0  0  0  0  0  0  0  0  0  0  0
   23.2570   16.1240   22.3360 H   0  0  0  0  0  0  0  0  0  0  0  0
   32.1037    9.1394   27.6790 H   0  0  0  0  0  0  0  0  0  0  0  0
  1 11  1  0
  2 12  1  0
  3 22  2  0
  4 23  2  0
  5 22  1  0
  6 23  1  0
  7  9  1  0
  7 11  2  0
  7 13  1  0
  8 10  1  0
  8 12  2  0
  8 13  1  0
  9 14  2  0
  9 20  1  0
 10 15  2  0
 10 21  1  0
 11 16  1  0
 12 17  1  0
 14 18  1  0
 14 24  1  0
 15 19  1  0
 15 25  1  0
 16 18  2  0
 16 22  1  0
 17 19  2  0
 17 23  1  0
 20 26  2  0
 21 27  2  0
 24 28  2  0
 25 29  2  0
 26 28  1  0
 27 29  1  0
  1 30  1  0
  2 31  1  0
  5 32  1  0
  6 33  1  0
 13 34  1  0
 13 35  1  0
 18 36  1  0
 19 37  1  0
 20 38  1  0
 21 39  1  0
 24 40  1  0
 25 41  1  0
 26 42  1  0
 27 43  1  0
 28 44  1  0
 29 45  1  0
M  END
> <Uni-Dock RESULT> 
ENERGY=   -4.357  LOWER_BOUND=    7.700  UPPER_BOUND=   10.659
INTER + INTRA:          -4.357
INTER:                  -4.357
INTRA:                   0.000
UNBOUND:                 0.000

$$$$

     RDKit          3D

 45 48  0  0  0  0  0  0  0  0999 V2000
   25.9018   13.1925   20.4985 O   0  0  0  0  0  0  0  0  0  0  0  0
   25.9491    8.8809   18.6734 O   0  0  0  0  0  0  0  0  0  0  0  0
   28.4530   13.3656   23.6199 O   0  0  0  0  0  0  0  0  0  0  0  0
   24.0013    6.7816   18.4980 O   0  0  0  0  0  0  0  0  0  0  0  0
   26.2054   12.9986   23.3670 O   0  0  0  0  0  0  0  0  0  0  0  0
   22.5428    7.0387   20.2462 O   0  0  0  0  0  0  0  0  0  0  0  0
   27.2241   11.5152   19.3595 C   0  0  0  0  0  0  0  0  0  0  0  0
   24.8575   11.0397   18.5900 C   0  0  0  0  0  0  0  0  0  0  0  0
   28.3998   10.7006   19.3089 C   0  0  0  0  0  0  0  0  0  0  0  0
   23.6790   11.8349   18.7510 C   0  0  0  0  0  0  0  0  0  0  0  0
   26.9772   12.2994   20.5142 C   0  0  0  0  0  0  0  0  0  0  0  0
   24.7809    9.6391   18.7991 C   0  0  0  0  0  0  0  0  0  0  0  0
   26.2204   11.6198   18.2105 C   0  0  0  0  0  0  0  0  0  0  0  0
   29.2679   10.6708   20.4347 C   0  0  0  0  0  0  0  0  0  0  0  0
   22.4723   11.2052   19.1615 C   0  0  0  0  0  0  0  0  0  0  0  0
   27.8230   12.2099   21.6411 C   0  0  0  0  0  0  0  0  0  0  0  0
   23.5567    9.0293   19.1557 C   0  0  0  0  0  0  0  0  0  0  0  0
   28.9681   11.4132   21.5785 C   0  0  0  0  0  0  0  0  0  0  0  0
   22.4288    9.8246   19.3646 C   0  0  0  0  0  0  0  0  0  0  0  0
   28.7568    9.9167   18.1820 C   0  0  0  0  0  0  0  0  0  0  0  0
   23.6462   13.2345   18.5232 C   0  0  0  0  0  0  0  0  0  0  0  0
   27.5177   12.9035   22.9120 C   0  0  0  0  0  0  0  0  0  0  0  0
   23.4043    7.5631   19.2862 C   0  0  0  0  0  0  0  0  0  0  0  0
   30.4316    9.8835   20.4172 C   0  0  0  0  0  0  0  0  0  0  0  0
   21.3027   11.9604   19.3510 C   0  0  0  0  0  0  0  0  0  0  0  0
   29.9184    9.1412   18.1835 C   0  0  0  0  0  0  0  0  0  0  0  0
   22.4733   13.9678   18.7155 C   0  0  0  0  0  0  0  0  0  0  0  0
   30.7529    9.1244   19.2958 C   0  0  0  0  0  0  0  0  0  0  0  0
   21.3067   13.3346   19.1308 C   0  0  0  0  0  0  0  0  0  0  0  0
   25.7641   13.9178   21.1889 H   0  0  0  0  0  0  0  0  0  0  0  0
   26.0374    7.9246   18.9882 H   0  0  0  0  0  0  0  0  0  0  0  0
   25.9911   13.4553   24.2455 H   0  0  0  0  0  0  0  0  0  0  0  0
   22.4091    6.0385   20.3342 H   0  0  0  0  0  0  0  0  0  0  0  0
   26.5389   11.1195   17.2837 H   0  0  0  0  0  0  0  0  0  0  0  0
   26.1928   12.6732   17.8928 H   0  0  0  0  0  0  0  0  0  0  0  0
   29.6231   11.3525   22.4414 H   0  0  0  0  0  0  0  0  0  0  0  0
   21.4924    9.3569   19.6501 H   0  0  0  0  0  0  0  0  0  0  0  0
   28.1648    9.8672   17.2859 H   0  0  0  0  0  0  0  0  0  0  0  0
   24.5027   13.7999   18.2025 H   0  0  0  0  0  0  0  0  0  0  0  0
   31.0946    9.8551   21.2742 H   0  0  0  0  0  0  0  0  0  0  0  0
   20.3809   11.4852   19.6659 H   0  0  0  0  0  0  0  0  0  0  0  0
   30.1715    8.5473   17.3143 H   0  0  0  0  0  0  0  0  0  0  0  0
   22.4705   15.0364   18.5412 H   0  0  0  0  0  0  0  0  0  0  0  0
   31.6511    8.5203   19.2898 H   0  0  0  0  0  0  0  0  0  0  0  0
   20.4016   13.9096   19.2779 H   0  0  0  0  0  0  0  0  0  0  0  0
  1 11  1  0
  2 12  1  0
  3 22  2  0
  4 23  2  0
  5 22  1  0
  6 23  1  0
  7  9  1  0
  7 11  2  0
  7 13  1  0
  8 10  1  0
  8 12  2  0
  8 13  1  0
  9 14  2  0
  9 20  1  0
 10 15  2  0
 10 21  1  0
 11 16  1  0
 12 17  1  0
 14 18  1  0
 14 24  1  0
 15 19  1  0
 15 25  1  0
 16 18  2  0
 16 22  1  0
 17 19  2  0
 17 23  1  0
 20 26  2  0
 21 27  2  0
 24 28  2  0
 25 29  2  0
 26 28  1  0
 27 29  1  0
  1 30  1  0
  2 31  1  0
  5 32  1  0
  6 33  1  0
 13 34  1  0
 13 35  1  0
 18 36  1  0
 19 37  1  0
 20 38  1  0
 21 39  1  0
 24 40  1  0
 25 41  1  0
 26 42  1  0
 27 43  1  0
 28 44  1  0
 29 45  1  0
M  END
> <Uni-Dock RESULT> 
ENERGY=   -4.267  LOWER_BOUND=   11.257  UPPER_BOUND=   13.645
INTER + INTRA:          -4.267
INTER:                  -4.267
INTRA:                   0.000
UNBOUND:                 0.000

$$$$

     RDKit          3D

 45 48  0  0  0  0  0  0  0  0999 V2000
   25.8229   13.1821   20.4200 O   0  0  0  0  0  0  0  0  0  0  0  0
   25.9147    8.8359   18.6807 O   0  0  0  0  0  0  0  0  0  0  0  0
   28.3593   13.4389   23.5476 O   0  0  0  0  0  0  0  0  0  0  0  0
   23.9857    6.7168   18.5390 O   0  0  0  0  0  0  0  0  0  0  0  0
   26.1160   13.0475   23.2929 O   0  0  0  0  0  0  0  0  0  0  0  0
   22.5177    6.9959   20.2758 O   0  0  0  0  0  0  0  0  0  0  0  0
   27.1642   11.4941   19.3197 C   0  0  0  0  0  0  0  0  0  0  0  0
   24.8051   10.9831   18.5502 C   0  0  0  0  0  0  0  0  0  0  0  0
   28.3470   10.6889   19.2900 C   0  0  0  0  0  0  0  0  0  0  0  0
   23.6191   11.7712   18.6907 C   0  0  0  0  0  0  0  0  0  0  0  0
   26.9058   12.2989   20.4576 C   0  0  0  0  0  0  0  0  0  0  0  0
   24.7395    9.5863   18.7866 C   0  0  0  0  0  0  0  0  0  0  0  0
   26.1646   11.5673   18.1648 C   0  0  0  0  0  0  0  0  0  0  0  0
   29.2106   10.6888   20.4198 C   0  0  0  0  0  0  0  0  0  0  0  0
   22.4162   11.1393   19.1087 C   0  0  0  0  0  0  0  0  0  0  0  0
   27.7475   12.2389   21.5895 C   0  0  0  0  0  0  0  0  0  0  0  0
   23.5191    8.9731   19.1503 C   0  0  0  0  0  0  0  0  0  0  0  0
   28.8997   11.4510   21.5474 C   0  0  0  0  0  0  0  0  0  0  0  0
   22.3836    9.7627   19.3389 C   0  0  0  0  0  0  0  0  0  0  0  0
   28.7155    9.8859   18.1803 C   0  0  0  0  0  0  0  0  0  0  0  0
   23.5754   13.1656   18.4351 C   0  0  0  0  0  0  0  0  0  0  0  0
   27.4309   12.9548   22.8452 C   0  0  0  0  0  0  0  0  0  0  0  0
   23.3787    7.5085   19.3092 C   0  0  0  0  0  0  0  0  0  0  0  0
   30.3810    9.9113   20.4225 C   0  0  0  0  0  0  0  0  0  0  0  0
   21.2394   11.8880   19.2784 C   0  0  0  0  0  0  0  0  0  0  0  0
   29.8836    9.1206   18.2019 C   0  0  0  0  0  0  0  0  0  0  0  0
   22.3954   13.8925   18.6081 C   0  0  0  0  0  0  0  0  0  0  0  0
   30.7136    9.1331   19.3177 C   0  0  0  0  0  0  0  0  0  0  0  0
   21.2326   13.2576   19.0311 C   0  0  0  0  0  0  0  0  0  0  0  0
   25.6761   13.9197   21.0953 H   0  0  0  0  0  0  0  0  0  0  0  0
   26.0098    7.8868   19.0148 H   0  0  0  0  0  0  0  0  0  0  0  0
   25.8941   13.5196   24.1614 H   0  0  0  0  0  0  0  0  0  0  0  0
   22.3921    5.9964   20.3830 H   0  0  0  0  0  0  0  0  0  0  0  0
   26.4912   11.0516   17.2494 H   0  0  0  0  0  0  0  0  0  0  0  0
   26.1293   12.6140   17.8262 H   0  0  0  0  0  0  0  0  0  0  0  0
   29.5515   11.4130   22.4140 H   0  0  0  0  0  0  0  0  0  0  0  0
   21.4500    9.2927   19.6298 H   0  0  0  0  0  0  0  0  0  0  0  0
   28.1278    9.8137   17.2830 H   0  0  0  0  0  0  0  0  0  0  0  0
   24.4283   13.7320   18.1068 H   0  0  0  0  0  0  0  0  0  0  0  0
   31.0406    9.9056   21.2826 H   0  0  0  0  0  0  0  0  0  0  0  0
   20.3203   11.4112   19.5989 H   0  0  0  0  0  0  0  0  0  0  0  0
   30.1455    8.5119   17.3456 H   0  0  0  0  0  0  0  0  0  0  0  0
   22.3843   14.9573   18.4127 H   0  0  0  0  0  0  0  0  0  0  0  0
   31.6169    8.5367   19.3272 H   0  0  0  0  0  0  0  0  0  0  0  0
   20.3219   13.8276   19.1631 H   0  0  0  0  0  0  0  0  0  0  0  0
  1 11  1  0
  2 12  1  0
  3 22  2  0
  4 23  2  0
  5 22  1  0
  6 23  1  0
  7  9  1  0
  7 11  2  0
  7 13  1  0
  8 10  1  0
  8 12  2  0
  8 13  1  0
  9 14  2  0
  9 20  1  0
 10 15  2  0
 10 21  1  0
 11 16  1  0
 12 17  1  0
 14 18  1  0
 14 24  1  0
 15 19  1  0
 15 25  1  0
 16 18  2  0
 16 22  1  0
 17 19  2  0
 17 23  1  0
 20 26  2  0
 21 27  2  0
 24 28  2  0
 25 29  2  0
 26 28  1  0
 27 29  1  0
  1 30  1  0
  2 31  1  0
  5 32  1  0
  6 33  1  0
 13 34  1  0
 13 35  1  0
 18 36  1  0
 19 37  1  0
 20 38  1  0
 21 39  1  0
 24 40  1  0
 25 41  1  0
 26 42  1  0
 27 43  1  0
 28 44  1  0
 29 45  1  0
M  END
> <Uni-Dock RESULT> 
ENERGY=   -4.262  LOWER_BOUND=   11.287  UPPER_BOUND=   13.666
INTER + INTRA:          -4.262
INTER:                  -4.262
INTRA:                   0.000
UNBOUND:                 0.000

$$$$

     RDKit          3D

 45 48  0  0  0  0  0  0  0  0999 V2000
   20.7308    8.0965   30.4608 O   0  0  0  0  0  0  0  0  0  0  0  0
   25.3929    8.2507   30.0560 O   0  0  0  0  0  0  0  0  0  0  0  0
   19.3895    4.4863   29.2573 O   0  0  0  0  0  0  0  0  0  0  0  0
   27.1901    9.7614   28.4069 O   0  0  0  0  0  0  0  0  0  0  0  0
   19.6520    6.5403   28.2763 O   0  0  0  0  0  0  0  0  0  0  0  0
   26.0681   10.3241   26.4902 O   0  0  0  0  0  0  0  0  0  0  0  0
   22.8382    7.1878   31.2305 C   0  0  0  0  0  0  0  0  0  0  0  0
   23.4179    9.5591   30.5521 C   0  0  0  0  0  0  0  0  0  0  0  0
   23.6802    6.0524   31.4543 C   0  0  0  0  0  0  0  0  0  0  0  0
   22.5438   10.6458   30.2325 C   0  0  0  0  0  0  0  0  0  0  0  0
   21.6055    7.0100   30.5537 C   0  0  0  0  0  0  0  0  0  0  0  0
   24.5684    9.3386   29.7528 C   0  0  0  0  0  0  0  0  0  0  0  0
   23.1767    8.5977   31.7164 C   0  0  0  0  0  0  0  0  0  0  0  0
   23.2746    4.7835   30.9569 C   0  0  0  0  0  0  0  0  0  0  0  0
   22.8278   11.4479   29.0936 C   0  0  0  0  0  0  0  0  0  0  0  0
   21.2509    5.7520   30.0197 C   0  0  0  0  0  0  0  0  0  0  0  0
   24.8572   10.1827   28.6566 C   0  0  0  0  0  0  0  0  0  0  0  0
   22.0799    4.6514   30.2466 C   0  0  0  0  0  0  0  0  0  0  0  0
   23.9657   11.2035   28.3226 C   0  0  0  0  0  0  0  0  0  0  0  0
   24.9090    6.1203   32.1596 C   0  0  0  0  0  0  0  0  0  0  0  0
   21.3938   10.9714   30.9963 C   0  0  0  0  0  0  0  0  0  0  0  0
   20.0428    5.5623   29.1867 C   0  0  0  0  0  0  0  0  0  0  0  0
   26.0953   10.0548   27.8560 C   0  0  0  0  0  0  0  0  0  0  0  0
   24.0767    3.6480   31.1611 C   0  0  0  0  0  0  0  0  0  0  0  0
   21.9774   12.5087   28.7387 C   0  0  0  0  0  0  0  0  0  0  0  0
   25.6919    4.9800   32.3530 C   0  0  0  0  0  0  0  0  0  0  0  0
   20.5615   12.0308   30.6283 C   0  0  0  0  0  0  0  0  0  0  0  0
   25.2780    3.7487   31.8566 C   0  0  0  0  0  0  0  0  0  0  0  0
   20.8496   12.7947   29.5024 C   0  0  0  0  0  0  0  0  0  0  0  0
   19.7658    8.0174   30.1707 H   0  0  0  0  0  0  0  0  0  0  0  0
   26.1131    7.8998   29.4398 H   0  0  0  0  0  0  0  0  0  0  0  0
   18.8370    6.4088   27.6892 H   0  0  0  0  0  0  0  0  0  0  0  0
   26.9109   10.2637   25.9314 H   0  0  0  0  0  0  0  0  0  0  0  0
   24.0604    8.6518   32.3698 H   0  0  0  0  0  0  0  0  0  0  0  0
   22.3760    8.9096   32.4042 H   0  0  0  0  0  0  0  0  0  0  0  0
   21.8020    3.6828   29.8444 H   0  0  0  0  0  0  0  0  0  0  0  0
   24.1821   11.8435   27.4736 H   0  0  0  0  0  0  0  0  0  0  0  0
   25.3050    7.0322   32.5690 H   0  0  0  0  0  0  0  0  0  0  0  0
   21.0996   10.4316   31.8784 H   0  0  0  0  0  0  0  0  0  0  0  0
   23.7733    2.6793   30.7811 H   0  0  0  0  0  0  0  0  0  0  0  0
   22.1886   13.1217   27.8702 H   0  0  0  0  0  0  0  0  0  0  0  0
   26.6283    5.0537   32.8916 H   0  0  0  0  0  0  0  0  0  0  0  0
   19.6854   12.2598   31.2219 H   0  0  0  0  0  0  0  0  0  0  0  0
   25.8906    2.8695   32.0099 H   0  0  0  0  0  0  0  0  0  0  0  0
   20.1997   13.6141   29.2234 H   0  0  0  0  0  0  0  0  0  0  0  0
  1 11  1  0
  2 12  1  0
  3 22  2  0
  4 23  2  0
  5 22  1  0
  6 23  1  0
  7  9  1  0
  7 11  2  0
  7 13  1  0
  8 10  1  0
  8 12  2  0
  8 13  1  0
  9 14  2  0
  9 20  1  0
 10 15  2  0
 10 21  1  0
 11 16  1  0
 12 17  1  0
 14 18  1  0
 14 24  1  0
 15 19  1  0
 15 25  1  0
 16 18  2  0
 16 22  1  0
 17 19  2  0
 17 23  1  0
 20 26  2  0
 21 27  2  0
 24 28  2  0
 25 29  2  0
 26 28  1  0
 27 29  1  0
  1 30  1  0
  2 31  1  0
  5 32  1  0
  6 33  1  0
 13 34  1  0
 13 35  1  0
 18 36  1  0
 19 37  1  0
 20 38  1  0
 21 39  1  0
 24 40  1  0
 25 41  1  0
 26 42  1  0
 27 43  1  0
 28 44  1  0
 29 45  1  0
M  END
> <Uni-Dock RESULT> 
ENERGY=   -4.241  LOWER_BOUND=    3.918  UPPER_BOUND=    6.426
INTER + INTRA:          -4.241
INTER:                  -4.241
INTRA:                   0.000
UNBOUND:                 0.000

$$$$
