
     RDKit          3D

 45 48  0  0  0  0  0  0  0  0999 V2000
   29.3545    7.4285   32.4774 O   0  0  0  0  0  0  0  0  0  0  0  0
   27.5694    2.1425   33.2591 O   0  0  0  0  0  0  0  0  0  0  0  0
   31.1110    9.1955   29.2951 O   0  0  0  0  0  0  0  0  0  0  0  0
   23.9722    0.4271   32.5869 O   0  0  0  0  0  0  0  0  0  0  0  0
   29.3624    9.6965   30.6888 O   0  0  0  0  0  0  0  0  0  0  0  0
   26.1499   -0.0859   32.0919 O   0  0  0  0  0  0  0  0  0  0  0  0
   28.9632    5.3681   31.2581 C   0  0  0  0  0  0  0  0  0  0  0  0
   26.8886    4.2328   32.2336 C   0  0  0  0  0  0  0  0  0  0  0  0
   29.2101    4.5791   30.0977 C   0  0  0  0  0  0  0  0  0  0  0  0
   25.8394    5.0443   31.7137 C   0  0  0  0  0  0  0  0  0  0  0  0
   29.3907    6.7204   31.2708 C   0  0  0  0  0  0  0  0  0  0  0  0
   26.6157    2.8762   32.5445 C   0  0  0  0  0  0  0  0  0  0  0  0
   28.2880    4.7904   32.5040 C   0  0  0  0  0  0  0  0  0  0  0  0
   29.7257    5.1976   28.9296 C   0  0  0  0  0  0  0  0  0  0  0  0
   24.6004    4.4461   31.3671 C   0  0  0  0  0  0  0  0  0  0  0  0
   29.8708    7.3303   30.0894 C   0  0  0  0  0  0  0  0  0  0  0  0
   25.3888    2.2873   32.1623 C   0  0  0  0  0  0  0  0  0  0  0  0
   30.0307    6.5603   28.9330 C   0  0  0  0  0  0  0  0  0  0  0  0
   24.3970    3.0807   31.5768 C   0  0  0  0  0  0  0  0  0  0  0  0
   28.9904    3.1843   30.0698 C   0  0  0  0  0  0  0  0  0  0  0  0
   25.9703    6.4417   31.5558 C   0  0  0  0  0  0  0  0  0  0  0  0
   30.1638    8.7786   30.0154 C   0  0  0  0  0  0  0  0  0  0  0  0
   25.1320    0.8379   32.3121 C   0  0  0  0  0  0  0  0  0  0  0  0
   29.9363    4.4432   27.7631 C   0  0  0  0  0  0  0  0  0  0  0  0
   23.5687    5.2236   30.8144 C   0  0  0  0  0  0  0  0  0  0  0  0
   29.2102    2.4458   28.9053 C   0  0  0  0  0  0  0  0  0  0  0  0
   24.9343    7.2031   31.0110 C   0  0  0  0  0  0  0  0  0  0  0  0
   29.6710    3.0750   27.7516 C   0  0  0  0  0  0  0  0  0  0  0  0
   23.7408    6.5944   30.6309 C   0  0  0  0  0  0  0  0  0  0  0  0
   29.8073    8.3217   32.6154 H   0  0  0  0  0  0  0  0  0  0  0  0
   27.3828    1.2417   33.6785 H   0  0  0  0  0  0  0  0  0  0  0  0
   29.5453   10.6908   30.6267 H   0  0  0  0  0  0  0  0  0  0  0  0
   25.9764   -1.0806   32.1736 H   0  0  0  0  0  0  0  0  0  0  0  0
   28.9744    4.0241   32.9181 H   0  0  0  0  0  0  0  0  0  0  0  0
   28.1865    5.5403   33.3147 H   0  0  0  0  0  0  0  0  0  0  0  0
   30.3971    7.0278   28.0252 H   0  0  0  0  0  0  0  0  0  0  0  0
   23.4559    2.6292   31.2810 H   0  0  0  0  0  0  0  0  0  0  0  0
   28.6861    2.6408   30.9464 H   0  0  0  0  0  0  0  0  0  0  0  0
   26.8489    6.9690   31.8817 H   0  0  0  0  0  0  0  0  0  0  0  0
   30.3157    4.9107   26.8619 H   0  0  0  0  0  0  0  0  0  0  0  0
   22.6247    4.7719   30.5330 H   0  0  0  0  0  0  0  0  0  0  0  0
   29.0319    1.3780   28.9017 H   0  0  0  0  0  0  0  0  0  0  0  0
   25.0546    8.2725   30.8934 H   0  0  0  0  0  0  0  0  0  0  0  0
   29.8406    2.4981   26.8517 H   0  0  0  0  0  0  0  0  0  0  0  0
   22.9405    7.1891   30.2097 H   0  0  0  0  0  0  0  0  0  0  0  0
  1 11  1  0
  2 12  1  0
  3 22  2  0
  4 23  2  0
  5 22  1  0
  6 23  1  0
  7  9  1  0
  7 11  2  0
  7 13  1  0
  8 10  1  0
  8 12  2  0
  8 13  1  0
  9 14  2  0
  9 20  1  0
 10 15  2  0
 10 21  1  0
 11 16  1  0
 12 17  1  0
 14 18  1  0
 14 24  1  0
 15 19  1  0
 15 25  1  0
 16 18  2  0
 16 22  1  0
 17 19  2  0
 17 23  1  0
 20 26  2  0
 21 27  2  0
 24 28  2  0
 25 29  2  0
 26 28  1  0
 27 29  1  0
  1 30  1  0
  2 31  1  0
  5 32  1  0
  6 33  1  0
 13 34  1  0
 13 35  1  0
 18 36  1  0
 19 37  1  0
 20 38  1  0
 21 39  1  0
 24 40  1  0
 25 41  1  0
 26 42  1  0
 27 43  1  0
 28 44  1  0
 29 45  1  0
M  END
> <Uni-Dock RESULT> 
ENERGY=   -4.366  LOWER_BOUND=    0.000  UPPER_BOUND=    0.000
INTER + INTRA:          -4.366
INTER:                  -4.366
INTRA:                   0.000
UNBOUND:                 0.000

$$$$

     RDKit          3D

 45 48  0  0  0  0  0  0  0  0999 V2000
   27.5161    2.1361   33.2566 O   0  0  0  0  0  0  0  0  0  0  0  0
   29.3503    7.4092   32.5020 O   0  0  0  0  0  0  0  0  0  0  0  0
   23.9085    0.4533   32.5579 O   0  0  0  0  0  0  0  0  0  0  0  0
   31.1403    9.1712   29.3357 O   0  0  0  0  0  0  0  0  0  0  0  0
   26.0847   -0.0766   32.0740 O   0  0  0  0  0  0  0  0  0  0  0  0
   29.3879    9.6826   30.7206 O   0  0  0  0  0  0  0  0  0  0  0  0
   26.8591    4.2353   32.2337 C   0  0  0  0  0  0  0  0  0  0  0  0
   28.9488    5.3561   31.2739 C   0  0  0  0  0  0  0  0  0  0  0  0
   25.8197    5.0573   31.7102 C   0  0  0  0  0  0  0  0  0  0  0  0
   29.1959    4.5686   30.1126 C   0  0  0  0  0  0  0  0  0  0  0  0
   26.5728    2.8801   32.5387 C   0  0  0  0  0  0  0  0  0  0  0  0
   29.3876    6.7046   31.2934 C   0  0  0  0  0  0  0  0  0  0  0  0
   28.2614    4.7801   32.5140 C   0  0  0  0  0  0  0  0  0  0  0  0
   24.5778    4.4707   31.3545 C   0  0  0  0  0  0  0  0  0  0  0  0
   29.7235    5.1863   28.9494 C   0  0  0  0  0  0  0  0  0  0  0  0
   25.3433    2.3027   32.1475 C   0  0  0  0  0  0  0  0  0  0  0  0
   29.8799    7.3141   30.1168 C   0  0  0  0  0  0  0  0  0  0  0  0
   24.3618    3.1063   31.5587 C   0  0  0  0  0  0  0  0  0  0  0  0
   30.0401    6.5463   28.9589 C   0  0  0  0  0  0  0  0  0  0  0  0
   25.9634    6.4540   31.5575 C   0  0  0  0  0  0  0  0  0  0  0  0
   28.9646    3.1757   30.0790 C   0  0  0  0  0  0  0  0  0  0  0  0
   25.0734    0.8552   32.2911 C   0  0  0  0  0  0  0  0  0  0  0  0
   30.1855    8.7602   30.0491 C   0  0  0  0  0  0  0  0  0  0  0  0
   23.5560    5.2585   30.7982 C   0  0  0  0  0  0  0  0  0  0  0  0
   29.9346    4.4338   27.7817 C   0  0  0  0  0  0  0  0  0  0  0  0
   24.9370    7.2258   31.0091 C   0  0  0  0  0  0  0  0  0  0  0  0
   29.1848    2.4391   28.9134 C   0  0  0  0  0  0  0  0  0  0  0  0
   23.7408    6.6284   30.6200 C   0  0  0  0  0  0  0  0  0  0  0  0
   29.6579    3.0679   27.7645 C   0  0  0  0  0  0  0  0  0  0  0  0
   27.3195    1.2357   33.6719 H   0  0  0  0  0  0  0  0  0  0  0  0
   29.8098    8.2982   32.6455 H   0  0  0  0  0  0  0  0  0  0  0  0
   25.9023   -1.0700   32.1515 H   0  0  0  0  0  0  0  0  0  0  0  0
   29.5796   10.6756   30.6629 H   0  0  0  0  0  0  0  0  0  0  0  0
   28.1615    5.5283   33.3265 H   0  0  0  0  0  0  0  0  0  0  0  0
   28.9389    4.0067   32.9298 H   0  0  0  0  0  0  0  0  0  0  0  0
   23.4186    2.6638   31.2560 H   0  0  0  0  0  0  0  0  0  0  0  0
   30.4156    7.0136   28.0547 H   0  0  0  0  0  0  0  0  0  0  0  0
   26.8445    6.9729   31.8902 H   0  0  0  0  0  0  0  0  0  0  0  0
   28.6504    2.6322   30.9520 H   0  0  0  0  0  0  0  0  0  0  0  0
   22.6098    4.8157   30.5099 H   0  0  0  0  0  0  0  0  0  0  0  0
   30.3232    4.9009   26.8844 H   0  0  0  0  0  0  0  0  0  0  0  0
   25.0671    8.2945   30.8956 H   0  0  0  0  0  0  0  0  0  0  0  0
   28.9976    1.3728   28.9054 H   0  0  0  0  0  0  0  0  0  0  0  0
   22.9479    7.2311   30.1961 H   0  0  0  0  0  0  0  0  0  0  0  0
   29.8278    2.4923   26.8637 H   0  0  0  0  0  0  0  0  0  0  0  0
  1 11  1  0
  2 12  1  0
  3 22  2  0
  4 23  2  0
  5 22  1  0
  6 23  1  0
  7  9  1  0
  7 11  2  0
  7 13  1  0
  8 10  1  0
  8 12  2  0
  8 13  1  0
  9 14  2  0
  9 20  1  0
 10 15  2  0
 10 21  1  0
 11 16  1  0
 12 17  1  0
 14 18  1  0
 14 24  1  0
 15 19  1  0
 15 25  1  0
 16 18  2  0
 16 22  1  0
 17 19  2  0
 17 23  1  0
 20 26  2  0
 21 27  2  0
 24 28  2  0
 25 29  2  0
 26 28  1  0
 27 29  1  0
  1 30  1  0
  2 31  1  0
  5 32  1  0
  6 33  1  0
 13 34  1  0
 13 35  1  0
 18 36  1  0
 19 37  1  0
 20 38  1  0
 21 39  1  0
 24 40  1  0
 25 41  1  0
 26 42  1  0
 27 43  1  0
 28 44  1  0
 29 45  1  0
M  END
> <Uni-Dock RESULT> 
ENERGY=   -4.365  LOWER_BOUND=    0.040  UPPER_BOUND=    7.066
INTER + INTRA:          -4.365
INTER:                  -4.365
INTRA:                   0.000
UNBOUND:                 0.000

$$$$

     RDKit          3D

 45 48  0  0  0  0  0  0  0  0999 V2000
   21.1264   11.2705   32.3166 O   0  0  0  0  0  0  0  0  0  0  0  0
   24.7389    6.9662   32.7185 O   0  0  0  0  0  0  0  0  0  0  0  0
   20.8580   14.2699   29.6211 O   0  0  0  0  0  0  0  0  0  0  0  0
   24.5729    3.2116   31.2321 O   0  0  0  0  0  0  0  0  0  0  0  0
   19.3984   12.7689   30.5525 O   0  0  0  0  0  0  0  0  0  0  0  0
   26.1337    4.8887   31.2757 O   0  0  0  0  0  0  0  0  0  0  0  0
   22.8792   10.1538   31.0655 C   0  0  0  0  0  0  0  0  0  0  0  0
   22.7331    7.6431   31.5341 C   0  0  0  0  0  0  0  0  0  0  0  0
   23.8321   10.1989   30.0073 C   0  0  0  0  0  0  0  0  0  0  0  0
   21.5908    7.2688   30.7693 C   0  0  0  0  0  0  0  0  0  0  0  0
   21.9134   11.1879   31.1623 C   0  0  0  0  0  0  0  0  0  0  0  0
   23.7354    6.6724   31.7884 C   0  0  0  0  0  0  0  0  0  0  0  0
   22.8916    9.0470   32.1224 C   0  0  0  0  0  0  0  0  0  0  0  0
   23.6973   11.1760   28.9875 C   0  0  0  0  0  0  0  0  0  0  0  0
   21.5549    5.9949   30.1456 C   0  0  0  0  0  0  0  0  0  0  0  0
   21.7705   12.1335   30.1214 C   0  0  0  0  0  0  0  0  0  0  0  0
   23.7020    5.4205   31.1329 C   0  0  0  0  0  0  0  0  0  0  0  0
   22.6645   12.1140   29.0461 C   0  0  0  0  0  0  0  0  0  0  0  0
   22.6117    5.0987   30.3183 C   0  0  0  0  0  0  0  0  0  0  0  0
   24.9373    9.3217   29.9458 C   0  0  0  0  0  0  0  0  0  0  0  0
   20.4647    8.1097   30.6292 C   0  0  0  0  0  0  0  0  0  0  0  0
   20.6678   13.1196   30.1007 C   0  0  0  0  0  0  0  0  0  0  0  0
   24.8133    4.4492   31.2358 C   0  0  0  0  0  0  0  0  0  0  0  0
   24.6035   11.2091   27.9143 C   0  0  0  0  0  0  0  0  0  0  0  0
   20.4549    5.6250   29.3535 C   0  0  0  0  0  0  0  0  0  0  0  0
   25.8339    9.3700   28.8764 C   0  0  0  0  0  0  0  0  0  0  0  0
   19.3755    7.7264   29.8440 C   0  0  0  0  0  0  0  0  0  0  0  0
   25.6615   10.3036   27.8575 C   0  0  0  0  0  0  0  0  0  0  0  0
   19.3750    6.4924   29.1988 C   0  0  0  0  0  0  0  0  0  0  0  0
   20.5539   12.0712   32.5470 H   0  0  0  0  0  0  0  0  0  0  0  0
   25.3743    6.2747   33.0930 H   0  0  0  0  0  0  0  0  0  0  0  0
   18.6340   13.4328   30.5231 H   0  0  0  0  0  0  0  0  0  0  0  0
   26.9004    4.2287   31.3265 H   0  0  0  0  0  0  0  0  0  0  0  0
   23.8331    9.1593   32.6976 H   0  0  0  0  0  0  0  0  0  0  0  0
   22.0881    9.1747   32.8761 H   0  0  0  0  0  0  0  0  0  0  0  0
   22.5545   12.8379   28.2455 H   0  0  0  0  0  0  0  0  0  0  0  0
   22.5861    4.1390   29.8130 H   0  0  0  0  0  0  0  0  0  0  0  0
   25.1471    8.6183   30.7317 H   0  0  0  0  0  0  0  0  0  0  0  0
   20.3905    9.0486   31.1480 H   0  0  0  0  0  0  0  0  0  0  0  0
   24.4990   11.9427   27.1234 H   0  0  0  0  0  0  0  0  0  0  0  0
   20.4263    4.6598   28.8615 H   0  0  0  0  0  0  0  0  0  0  0  0
   26.6727    8.6865   28.8441 H   0  0  0  0  0  0  0  0  0  0  0  0
   18.5230    8.3863   29.7448 H   0  0  0  0  0  0  0  0  0  0  0  0
   26.3596   10.3376   27.0311 H   0  0  0  0  0  0  0  0  0  0  0  0
   18.5280    6.1996   28.5919 H   0  0  0  0  0  0  0  0  0  0  0  0
  1 11  1  0
  2 12  1  0
  3 22  2  0
  4 23  2  0
  5 22  1  0
  6 23  1  0
  7  9  1  0
  7 11  2  0
  7 13  1  0
  8 10  1  0
  8 12  2  0
  8 13  1  0
  9 14  2  0
  9 20  1  0
 10 15  2  0
 10 21  1  0
 11 16  1  0
 12 17  1  0
 14 18  1  0
 14 24  1  0
 15 19  1  0
 15 25  1  0
 16 18  2  0
 16 22  1  0
 17 19  2  0
 17 23  1  0
 20 26  2  0
 21 27  2  0
 24 28  2  0
 25 29  2  0
 26 28  1  0
 27 29  1  0
  1 30  1  0
  2 31  1  0
  5 32  1  0
  6 33  1  0
 13 34  1  0
 13 35  1  0
 18 36  1  0
 19 37  1  0
 20 38  1  0
 21 39  1  0
 24 40  1  0
 25 41  1  0
 26 42  1  0
 27 43  1  0
 28 44  1  0
 29 45  1  0
M  END
> <Uni-Dock RESULT> 
ENERGY=   -4.283  LOWER_BOUND=    4.788  UPPER_BOUND=    7.120
INTER + INTRA:          -4.283
INTER:                  -4.283
INTRA:                   0.000
UNBOUND:                 0.000

$$$$

     RDKit          3D

 45 48  0  0  0  0  0  0  0  0999 V2000
   26.9520    7.6208   33.5949 O   0  0  0  0  0  0  0  0  0  0  0  0
   30.7757    9.7036   30.0200 O   0  0  0  0  0  0  0  0  0  0  0  0
   22.9217    7.4326   33.3599 O   0  0  0  0  0  0  0  0  0  0  0  0
   32.8222    7.9559   27.0047 O   0  0  0  0  0  0  0  0  0  0  0  0
   24.6038    5.9606   33.8645 O   0  0  0  0  0  0  0  0  0  0  0  0
   31.6026    9.8792   27.2580 O   0  0  0  0  0  0  0  0  0  0  0  0
   27.1555    8.4682   31.3309 C   0  0  0  0  0  0  0  0  0  0  0  0
   29.4169    7.7287   30.3910 C   0  0  0  0  0  0  0  0  0  0  0  0
   26.5199    9.0060   30.1748 C   0  0  0  0  0  0  0  0  0  0  0  0
   29.1876    6.3470   30.1303 C   0  0  0  0  0  0  0  0  0  0  0  0
   26.3503    7.9406   32.3725 C   0  0  0  0  0  0  0  0  0  0  0  0
   30.3887    8.4189   29.6223 C   0  0  0  0  0  0  0  0  0  0  0  0
   28.6764    8.4792   31.5003 C   0  0  0  0  0  0  0  0  0  0  0  0
   25.1179    8.8574   30.0160 C   0  0  0  0  0  0  0  0  0  0  0  0
   29.8100    5.7347   29.0119 C   0  0  0  0  0  0  0  0  0  0  0  0
   24.9598    7.7686   32.1850 C   0  0  0  0  0  0  0  0  0  0  0  0
   30.9743    7.8055   28.4915 C   0  0  0  0  0  0  0  0  0  0  0  0
   24.3618    8.2285   31.0073 C   0  0  0  0  0  0  0  0  0  0  0  0
   30.6757    6.4706   28.2003 C   0  0  0  0  0  0  0  0  0  0  0  0
   27.2298    9.7173   29.1824 C   0  0  0  0  0  0  0  0  0  0  0  0
   28.3821    5.5423   30.9660 C   0  0  0  0  0  0  0  0  0  0  0  0
   24.1138    7.0663   33.1748 C   0  0  0  0  0  0  0  0  0  0  0  0
   31.8594    8.5459   27.5654 C   0  0  0  0  0  0  0  0  0  0  0  0
   24.4802    9.3449   28.8628 C   0  0  0  0  0  0  0  0  0  0  0  0
   29.5626    4.3837   28.7154 C   0  0  0  0  0  0  0  0  0  0  0  0
   26.5820   10.2020   28.0443 C   0  0  0  0  0  0  0  0  0  0  0  0
   28.1500    4.1992   30.6628 C   0  0  0  0  0  0  0  0  0  0  0  0
   25.2131   10.0067   27.8792 C   0  0  0  0  0  0  0  0  0  0  0  0
   28.7294    3.6240   29.5346 C   0  0  0  0  0  0  0  0  0  0  0  0
   26.4324    7.4190   34.4382 H   0  0  0  0  0  0  0  0  0  0  0  0
   31.5824   10.1853   29.6467 H   0  0  0  0  0  0  0  0  0  0  0  0
   24.0236    5.4630   34.5292 H   0  0  0  0  0  0  0  0  0  0  0  0
   32.1929   10.3867   26.6098 H   0  0  0  0  0  0  0  0  0  0  0  0
   28.9865    9.5417   31.5701 H   0  0  0  0  0  0  0  0  0  0  0  0
   28.9968    8.0320   32.4633 H   0  0  0  0  0  0  0  0  0  0  0  0
   23.2951    8.0951   30.8614 H   0  0  0  0  0  0  0  0  0  0  0  0
   31.1229    5.9995   27.3313 H   0  0  0  0  0  0  0  0  0  0  0  0
   28.2763    9.9421   29.2856 H   0  0  0  0  0  0  0  0  0  0  0  0
   27.9545    5.9216   31.8768 H   0  0  0  0  0  0  0  0  0  0  0  0
   23.4121    9.2223   28.7266 H   0  0  0  0  0  0  0  0  0  0  0  0
   30.0221    3.9125   27.8545 H   0  0  0  0  0  0  0  0  0  0  0  0
   27.1436   10.7411   27.2921 H   0  0  0  0  0  0  0  0  0  0  0  0
   27.5259    3.5991   31.3129 H   0  0  0  0  0  0  0  0  0  0  0  0
   24.7154   10.3849   26.9956 H   0  0  0  0  0  0  0  0  0  0  0  0
   28.5471    2.5823   29.3043 H   0  0  0  0  0  0  0  0  0  0  0  0
  1 11  1  0
  2 12  1  0
  3 22  2  0
  4 23  2  0
  5 22  1  0
  6 23  1  0
  7  9  1  0
  7 11  2  0
  7 13  1  0
  8 10  1  0
  8 12  2  0
  8 13  1  0
  9 14  2  0
  9 20  1  0
 10 15  2  0
 10 21  1  0
 11 16  1  0
 12 17  1  0
 14 18  1  0
 14 24  1  0
 15 19  1  0
 15 25  1  0
 16 18  2  0
 16 22  1  0
 17 19  2  0
 17 23  1  0
 20 26  2  0
 21 27  2  0
 24 28  2  0
 25 29  2  0
 26 28  1  0
 27 29  1  0
  1 30  1  0
  2 31  1  0
  5 32  1  0
  6 33  1  0
 13 34  1  0
 13 35  1  0
 18 36  1  0
 19 37  1  0
 20 38  1  0
 21 39  1  0
 24 40  1  0
 25 41  1  0
 26 42  1  0
 27 43  1  0
 28 44  1  0
 29 45  1  0
M  END
> <Uni-Dock RESULT> 
ENERGY=   -4.189  LOWER_BOUND=    2.768  UPPER_BOUND=    7.159
INTER + INTRA:          -4.189
INTER:                  -4.189
INTRA:                   0.000
UNBOUND:                 0.000

$$$$

     RDKit          3D

 45 48  0  0  0  0  0  0  0  0999 V2000
   30.7637    9.6996   30.0364 O   0  0  0  0  0  0  0  0  0  0  0  0
   26.9415    7.5883   33.5962 O   0  0  0  0  0  0  0  0  0  0  0  0
   32.8179    7.9727   27.0144 O   0  0  0  0  0  0  0  0  0  0  0  0
   22.9119    7.3909   33.3559 O   0  0  0  0  0  0  0  0  0  0  0  0
   31.5931    9.8916   27.2762 O   0  0  0  0  0  0  0  0  0  0  0  0
   24.5972    5.9207   33.8546 O   0  0  0  0  0  0  0  0  0  0  0  0
   29.4095    7.7193   30.3957 C   0  0  0  0  0  0  0  0  0  0  0  0
   27.1451    8.4480   31.3370 C   0  0  0  0  0  0  0  0  0  0  0  0
   29.1841    6.3382   30.1276 C   0  0  0  0  0  0  0  0  0  0  0  0
   26.5094    8.9901   30.1830 C   0  0  0  0  0  0  0  0  0  0  0  0
   30.3803    8.4159   29.6317 C   0  0  0  0  0  0  0  0  0  0  0  0
   26.3402    7.9129   32.3748 C   0  0  0  0  0  0  0  0  0  0  0  0
   28.6659    8.4622   31.5080 C   0  0  0  0  0  0  0  0  0  0  0  0
   29.8093    5.7335   29.0067 C   0  0  0  0  0  0  0  0  0  0  0  0
   25.1079    8.8387   30.0218 C   0  0  0  0  0  0  0  0  0  0  0  0
   30.9688    7.8100   28.4983 C   0  0  0  0  0  0  0  0  0  0  0  0
   24.9504    7.7383   32.1849 C   0  0  0  0  0  0  0  0  0  0  0  0
   30.6740    6.4758   28.1999 C   0  0  0  0  0  0  0  0  0  0  0  0
   24.3524    8.2028   31.0090 C   0  0  0  0  0  0  0  0  0  0  0  0
   28.3798    5.5272   30.9582 C   0  0  0  0  0  0  0  0  0  0  0  0
   27.2186    9.7084   29.1950 C   0  0  0  0  0  0  0  0  0  0  0  0
   31.8529    8.5574   27.5770 C   0  0  0  0  0  0  0  0  0  0  0  0
   24.1051    7.0286   33.1703 C   0  0  0  0  0  0  0  0  0  0  0  0
   29.5658    4.3834   28.7031 C   0  0  0  0  0  0  0  0  0  0  0  0
   24.4703    9.3304   28.8703 C   0  0  0  0  0  0  0  0  0  0  0  0
   28.1516    4.1850   30.6479 C   0  0  0  0  0  0  0  0  0  0  0  0
   26.5707   10.1972   28.0587 C   0  0  0  0  0  0  0  0  0  0  0  0
   28.7337    3.6173   29.5174 C   0  0  0  0  0  0  0  0  0  0  0  0
   25.2025    9.9992   27.8910 C   0  0  0  0  0  0  0  0  0  0  0  0
   31.5694   10.1853   29.6664 H   0  0  0  0  0  0  0  0  0  0  0  0
   26.4214    7.3809   34.4379 H   0  0  0  0  0  0  0  0  0  0  0  0
   32.1826   10.4039   26.6312 H   0  0  0  0  0  0  0  0  0  0  0  0
   24.0177    5.4182   34.5163 H   0  0  0  0  0  0  0  0  0  0  0  0
   28.9863    8.0107   32.4690 H   0  0  0  0  0  0  0  0  0  0  0  0
   28.9732    9.5251   31.5837 H   0  0  0  0  0  0  0  0  0  0  0  0
   31.1234    6.0104   27.3290 H   0  0  0  0  0  0  0  0  0  0  0  0
   23.2863    8.0672   30.8612 H   0  0  0  0  0  0  0  0  0  0  0  0
   27.9503    5.9006   31.8706 H   0  0  0  0  0  0  0  0  0  0  0  0
   28.2643    9.9353   29.3004 H   0  0  0  0  0  0  0  0  0  0  0  0
   30.0275    3.9177   27.8402 H   0  0  0  0  0  0  0  0  0  0  0  0
   23.4027    9.2057   28.7324 H   0  0  0  0  0  0  0  0  0  0  0  0
   27.5284    3.5800   31.2941 H   0  0  0  0  0  0  0  0  0  0  0  0
   27.1318   10.7416   27.3098 H   0  0  0  0  0  0  0  0  0  0  0  0
   28.5544    2.5762   29.2815 H   0  0  0  0  0  0  0  0  0  0  0  0
   24.7049   10.3807   27.0088 H   0  0  0  0  0  0  0  0  0  0  0  0
  1 11  1  0
  2 12  1  0
  3 22  2  0
  4 23  2  0
  5 22  1  0
  6 23  1  0
  7  9  1  0
  7 11  2  0
  7 13  1  0
  8 10  1  0
  8 12  2  0
  8 13  1  0
  9 14  2  0
  9 20  1  0
 10 15  2  0
 10 21  1  0
 11 16  1  0
 12 17  1  0
 14 18  1  0
 14 24  1  0
 15 19  1  0
 15 25  1  0
 16 18  2  0
 16 22  1  0
 17 19  2  0
 17 23  1  0
 20 26  2  0
 21 27  2  0
 24 28  2  0
 25 29  2  0
 26 28  1  0
 27 29  1  0
  1 30  1  0
  2 31  1  0
  5 32  1  0
  6 33  1  0
 13 34  1  0
 13 35  1  0
 18 36  1  0
 19 37  1  0
 20 38  1  0
 21 39  1  0
 24 40  1  0
 25 41  1  0
 26 42  1  0
 27 43  1  0
 28 44  1  0
 29 45  1  0
M  END
> <Uni-Dock RESULT> 
ENERGY=   -4.188  LOWER_BOUND=    2.758  UPPER_BOUND=    4.096
INTER + INTRA:          -4.188
INTER:                  -4.188
INTRA:                   0.000
UNBOUND:                 0.000

$$$$

     RDKit          3D

 45 48  0  0  0  0  0  0  0  0999 V2000
   25.1267    6.9200   32.6829 O   0  0  0  0  0  0  0  0  0  0  0  0
   21.2246   10.9600   32.2445 O   0  0  0  0  0  0  0  0  0  0  0  0
   25.1964    3.1312   31.2780 O   0  0  0  0  0  0  0  0  0  0  0  0
   20.7168   13.8747   29.4911 O   0  0  0  0  0  0  0  0  0  0  0  0
   26.6400    4.9106   31.2634 O   0  0  0  0  0  0  0  0  0  0  0  0
   19.3754   12.2990   30.4752 O   0  0  0  0  0  0  0  0  0  0  0  0
   23.0637    7.4335   31.5144 C   0  0  0  0  0  0  0  0  0  0  0  0
   23.0325    9.9375   30.9912 C   0  0  0  0  0  0  0  0  0  0  0  0
   21.9394    6.9660   30.7746 C   0  0  0  0  0  0  0  0  0  0  0  0
   23.9658   10.0238   29.9183 C   0  0  0  0  0  0  0  0  0  0  0  0
   24.1330    6.5387   31.7741 C   0  0  0  0  0  0  0  0  0  0  0  0
   21.9999   10.9056   31.0806 C   0  0  0  0  0  0  0  0  0  0  0  0
   23.1343    8.8574   32.0707 C   0  0  0  0  0  0  0  0  0  0  0  0
   21.9818    5.6793   30.1784 C   0  0  0  0  0  0  0  0  0  0  0  0
   23.7512   10.9670   28.8803 C   0  0  0  0  0  0  0  0  0  0  0  0
   24.1761    5.2734   31.1456 C   0  0  0  0  0  0  0  0  0  0  0  0
   21.7792   11.8164   30.0223 C   0  0  0  0  0  0  0  0  0  0  0  0
   23.0994    4.8607   30.3541 C   0  0  0  0  0  0  0  0  0  0  0  0
   22.6579   11.8339   28.9345 C   0  0  0  0  0  0  0  0  0  0  0  0
   20.7569    7.7255   30.6337 C   0  0  0  0  0  0  0  0  0  0  0  0
   25.1272    9.2222   29.8587 C   0  0  0  0  0  0  0  0  0  0  0  0
   25.3521    4.3820   31.2521 C   0  0  0  0  0  0  0  0  0  0  0  0
   20.6117   12.7249   29.9975 C   0  0  0  0  0  0  0  0  0  0  0  0
   20.8991    5.2185   29.4107 C   0  0  0  0  0  0  0  0  0  0  0  0
   24.6387   11.0378   27.7932 C   0  0  0  0  0  0  0  0  0  0  0  0
   19.6858    7.2522   29.8731 C   0  0  0  0  0  0  0  0  0  0  0  0
   26.0040    9.3077   28.7753 C   0  0  0  0  0  0  0  0  0  0  0  0
   19.7607    6.0071   29.2538 C   0  0  0  0  0  0  0  0  0  0  0  0
   25.7549   10.2049   27.7398 C   0  0  0  0  0  0  0  0  0  0  0  0
   25.8125    6.2815   33.0622 H   0  0  0  0  0  0  0  0  0  0  0  0
   20.6021   11.7251   32.4665 H   0  0  0  0  0  0  0  0  0  0  0  0
   27.4504    4.3053   31.3164 H   0  0  0  0  0  0  0  0  0  0  0  0
   18.5672   12.9089   30.4434 H   0  0  0  0  0  0  0  0  0  0  0  0
   22.3341    8.9469   32.8334 H   0  0  0  0  0  0  0  0  0  0  0  0
   24.0736    9.0458   32.6294 H   0  0  0  0  0  0  0  0  0  0  0  0
   23.1323    3.8906   29.8695 H   0  0  0  0  0  0  0  0  0  0  0  0
   22.4882   12.5309   28.1207 H   0  0  0  0  0  0  0  0  0  0  0  0
   20.6259    8.6684   31.1338 H   0  0  0  0  0  0  0  0  0  0  0  0
   25.3947    8.5520   30.6559 H   0  0  0  0  0  0  0  0  0  0  0  0
   20.9295    4.2430   28.9395 H   0  0  0  0  0  0  0  0  0  0  0  0
   24.4738   11.7450   26.9888 H   0  0  0  0  0  0  0  0  0  0  0  0
   18.7892    7.8505   29.7727 H   0  0  0  0  0  0  0  0  0  0  0  0
   26.8869    8.6819   28.7449 H   0  0  0  0  0  0  0  0  0  0  0  0
   18.9274    5.6444   28.6659 H   0  0  0  0  0  0  0  0  0  0  0  0
   26.4380   10.2679   26.9026 H   0  0  0  0  0  0  0  0  0  0  0  0
  1 11  1  0
  2 12  1  0
  3 22  2  0
  4 23  2  0
  5 22  1  0
  6 23  1  0
  7  9  1  0
  7 11  2  0
  7 13  1  0
  8 10  1  0
  8 12  2  0
  8 13  1  0
  9 14  2  0
  9 20  1  0
 10 15  2  0
 10 21  1  0
 11 16  1  0
 12 17  1  0
 14 18  1  0
 14 24  1  0
 15 19  1  0
 15 25  1  0
 16 18  2  0
 16 22  1  0
 17 19  2  0
 17 23  1  0
 20 26  2  0
 21 27  2  0
 24 28  2  0
 25 29  2  0
 26 28  1  0
 27 29  1  0
  1 30  1  0
  2 31  1  0
  5 32  1  0
  6 33  1  0
 13 34  1  0
 13 35  1  0
 18 36  1  0
 19 37  1  0
 20 38  1  0
 21 39  1  0
 24 40  1  0
 25 41  1  0
 26 42  1  0
 27 43  1  0
 28 44  1  0
 29 45  1  0
M  END
> <Uni-Dock RESULT> 
ENERGY=   -4.172  LOWER_BOUND=    4.622  UPPER_BOUND=    8.472
INTER + INTRA:          -4.172
INTER:                  -4.172
INTRA:                   0.000
UNBOUND:                 0.000

$$$$

     RDKit          3D

 45 48  0  0  0  0  0  0  0  0999 V2000
   25.4764    7.8099   33.2808 O   0  0  0  0  0  0  0  0  0  0  0  0
   30.4278    9.6048   31.2807 O   0  0  0  0  0  0  0  0  0  0  0  0
   21.7680    7.9168   31.6774 O   0  0  0  0  0  0  0  0  0  0  0  0
   33.2582    7.7099   29.1053 O   0  0  0  0  0  0  0  0  0  0  0  0
   23.0694    6.3261   32.6906 O   0  0  0  0  0  0  0  0  0  0  0  0
   32.1614    9.7174   28.9731 O   0  0  0  0  0  0  0  0  0  0  0  0
   26.5015    8.6384   31.2443 C   0  0  0  0  0  0  0  0  0  0  0  0
   28.8914    7.7349   31.1165 C   0  0  0  0  0  0  0  0  0  0  0  0
   26.3394    9.2205   29.9539 C   0  0  0  0  0  0  0  0  0  0  0  0
   28.6707    6.3734   30.7595 C   0  0  0  0  0  0  0  0  0  0  0  0
   25.3537    8.1719   31.9345 C   0  0  0  0  0  0  0  0  0  0  0  0
   30.1129    8.3516   30.7435 C   0  0  0  0  0  0  0  0  0  0  0  0
   27.8691    8.5384   31.9237 C   0  0  0  0  0  0  0  0  0  0  0  0
   25.0701    9.1747   29.3218 C   0  0  0  0  0  0  0  0  0  0  0  0
   29.5949    5.7165   29.9067 C   0  0  0  0  0  0  0  0  0  0  0  0
   24.1034    8.1020   31.2787 C   0  0  0  0  0  0  0  0  0  0  0  0
   31.0070    7.6961   29.8665 C   0  0  0  0  0  0  0  0  0  0  0  0
   23.9786    8.6035   29.9792 C   0  0  0  0  0  0  0  0  0  0  0  0
   30.7350    6.3864   29.4582 C   0  0  0  0  0  0  0  0  0  0  0  0
   27.3938    9.8772   29.2818 C   0  0  0  0  0  0  0  0  0  0  0  0
   27.5740    5.6304   31.2495 C   0  0  0  0  0  0  0  0  0  0  0  0
   22.9231    7.4641   31.9022 C   0  0  0  0  0  0  0  0  0  0  0  0
   32.2047    8.3691   29.3172 C   0  0  0  0  0  0  0  0  0  0  0  0
   24.9017    9.7066   28.0322 C   0  0  0  0  0  0  0  0  0  0  0  0
   29.3716    4.3869   29.5107 C   0  0  0  0  0  0  0  0  0  0  0  0
   27.2104   10.4071   28.0030 C   0  0  0  0  0  0  0  0  0  0  0  0
   27.3679    4.3076   30.8526 C   0  0  0  0  0  0  0  0  0  0  0  0
   25.9711   10.3123   27.3750 C   0  0  0  0  0  0  0  0  0  0  0  0
   28.2578    3.6908   29.9769 C   0  0  0  0  0  0  0  0  0  0  0  0
   24.6865    7.6473   33.8904 H   0  0  0  0  0  0  0  0  0  0  0  0
   31.3448   10.0260   31.2176 H   0  0  0  0  0  0  0  0  0  0  0  0
   22.2637    5.8728   33.1046 H   0  0  0  0  0  0  0  0  0  0  0  0
   32.9716   10.1799   28.5784 H   0  0  0  0  0  0  0  0  0  0  0  0
   28.2090    9.5754   32.1212 H   0  0  0  0  0  0  0  0  0  0  0  0
   27.8083    8.0696   32.9269 H   0  0  0  0  0  0  0  0  0  0  0  0
   23.0200    8.5484   29.4741 H   0  0  0  0  0  0  0  0  0  0  0  0
   31.4193    5.8833   28.7833 H   0  0  0  0  0  0  0  0  0  0  0  0
   28.3544   10.0249   29.7420 H   0  0  0  0  0  0  0  0  0  0  0  0
   26.8873    6.0406   31.9682 H   0  0  0  0  0  0  0  0  0  0  0  0
   23.9392    9.6624   27.5361 H   0  0  0  0  0  0  0  0  0  0  0  0
   30.0648    3.8827   28.8476 H   0  0  0  0  0  0  0  0  0  0  0  0
   28.0316   10.9032   27.5015 H   0  0  0  0  0  0  0  0  0  0  0  0
   26.5190    3.7553   31.2352 H   0  0  0  0  0  0  0  0  0  0  0  0
   25.8338   10.7253   26.3840 H   0  0  0  0  0  0  0  0  0  0  0  0
   28.0941    2.6650   29.6728 H   0  0  0  0  0  0  0  0  0  0  0  0
  1 11  1  0
  2 12  1  0
  3 22  2  0
  4 23  2  0
  5 22  1  0
  6 23  1  0
  7  9  1  0
  7 11  2  0
  7 13  1  0
  8 10  1  0
  8 12  2  0
  8 13  1  0
  9 14  2  0
  9 20  1  0
 10 15  2  0
 10 21  1  0
 11 16  1  0
 12 17  1  0
 14 18  1  0
 14 24  1  0
 15 19  1  0
 15 25  1  0
 16 18  2  0
 16 22  1  0
 17 19  2  0
 17 23  1  0
 20 26  2  0
 21 27  2  0
 24 28  2  0
 25 29  2  0
 26 28  1  0
 27 29  1  0
  1 30  1  0
  2 31  1  0
  5 32  1  0
  6 33  1  0
 13 34  1  0
 13 35  1  0
 18 36  1  0
 19 37  1  0
 20 38  1  0
 21 39  1  0
 24 40  1  0
 25 41  1  0
 26 42  1  0
 27 43  1  0
 28 44  1  0
 29 45  1  0
M  END
> <Uni-Dock RESULT> 
ENERGY=   -3.993  LOWER_BOUND=    2.849  UPPER_BOUND=    7.040
INTER + INTRA:          -3.993
INTER:                  -3.993
INTRA:                   0.000
UNBOUND:                 0.000

$$$$

     RDKit          3D

 45 48  0  0  0  0  0  0  0  0999 V2000
   30.4311    9.5961   31.2824 O   0  0  0  0  0  0  0  0  0  0  0  0
   25.4912    7.7764   33.2886 O   0  0  0  0  0  0  0  0  0  0  0  0
   33.2600    7.7204   29.0885 O   0  0  0  0  0  0  0  0  0  0  0  0
   21.7775    7.8806   31.6975 O   0  0  0  0  0  0  0  0  0  0  0  0
   32.1571    9.7255   28.9699 O   0  0  0  0  0  0  0  0  0  0  0  0
   23.0867    6.2887   32.6985 O   0  0  0  0  0  0  0  0  0  0  0  0
   28.8995    7.7225   31.1134 C   0  0  0  0  0  0  0  0  0  0  0  0
   26.5074    8.6184   31.2532 C   0  0  0  0  0  0  0  0  0  0  0  0
   28.6816    6.3621   30.7502 C   0  0  0  0  0  0  0  0  0  0  0  0
   26.3396    9.2065   29.9665 C   0  0  0  0  0  0  0  0  0  0  0  0
   30.1181    8.3446   30.7398 C   0  0  0  0  0  0  0  0  0  0  0  0
   25.3631    8.1449   31.9446 C   0  0  0  0  0  0  0  0  0  0  0  0
   27.8775    8.5189   31.9278 C   0  0  0  0  0  0  0  0  0  0  0  0
   29.6051    5.7123   29.8912 C   0  0  0  0  0  0  0  0  0  0  0  0
   25.0685    9.1602   29.3379 C   0  0  0  0  0  0  0  0  0  0  0  0
   31.0113    7.6963   29.8566 C   0  0  0  0  0  0  0  0  0  0  0  0
   24.1110    8.0747   31.2924 C   0  0  0  0  0  0  0  0  0  0  0  0
   30.7418    6.3880   29.4426 C   0  0  0  0  0  0  0  0  0  0  0  0
   23.9807    8.5825   29.9958 C   0  0  0  0  0  0  0  0  0  0  0  0
   27.5887    5.6135   31.2398 C   0  0  0  0  0  0  0  0  0  0  0  0
   27.3899    9.8697   29.2943 C   0  0  0  0  0  0  0  0  0  0  0  0
   32.2052    8.3756   29.3070 C   0  0  0  0  0  0  0  0  0  0  0  0
   22.9345    7.4302   31.9164 C   0  0  0  0  0  0  0  0  0  0  0  0
   29.3845    4.3842   29.4892 C   0  0  0  0  0  0  0  0  0  0  0  0
   24.8944    9.6981   28.0516 C   0  0  0  0  0  0  0  0  0  0  0  0
   27.3852    4.2921   30.8369 C   0  0  0  0  0  0  0  0  0  0  0  0
   27.2010   10.4055   28.0188 C   0  0  0  0  0  0  0  0  0  0  0  0
   28.2742    3.6824   29.9552 C   0  0  0  0  0  0  0  0  0  0  0  0
   25.9600   10.3104   27.3942 C   0  0  0  0  0  0  0  0  0  0  0  0
   31.3465   10.0202   31.2185 H   0  0  0  0  0  0  0  0  0  0  0  0
   24.7036    7.6085   33.8999 H   0  0  0  0  0  0  0  0  0  0  0  0
   32.9646   10.1922   28.5750 H   0  0  0  0  0  0  0  0  0  0  0  0
   22.2836    5.8309   33.1128 H   0  0  0  0  0  0  0  0  0  0  0  0
   27.8212    8.0448   32.9288 H   0  0  0  0  0  0  0  0  0  0  0  0
   28.2150    9.5559   32.1296 H   0  0  0  0  0  0  0  0  0  0  0  0
   31.4255    5.8902   28.7630 H   0  0  0  0  0  0  0  0  0  0  0  0
   23.0207    8.5271   29.4934 H   0  0  0  0  0  0  0  0  0  0  0  0
   26.9031    6.0180   31.9628 H   0  0  0  0  0  0  0  0  0  0  0  0
   28.3515   10.0178   29.7522 H   0  0  0  0  0  0  0  0  0  0  0  0
   30.0770    3.8853   28.8213 H   0  0  0  0  0  0  0  0  0  0  0  0
   23.9305    9.6536   27.5584 H   0  0  0  0  0  0  0  0  0  0  0  0
   26.5393    3.7354   31.2193 H   0  0  0  0  0  0  0  0  0  0  0  0
   28.0193   10.9065   27.5172 H   0  0  0  0  0  0  0  0  0  0  0  0
   28.1126    2.6577   29.6464 H   0  0  0  0  0  0  0  0  0  0  0  0
   25.8185   10.7279   26.4057 H   0  0  0  0  0  0  0  0  0  0  0  0
  1 11  1  0
  2 12  1  0
  3 22  2  0
  4 23  2  0
  5 22  1  0
  6 23  1  0
  7  9  1  0
  7 11  2  0
  7 13  1  0
  8 10  1  0
  8 12  2  0
  8 13  1  0
  9 14  2  0
  9 20  1  0
 10 15  2  0
 10 21  1  0
 11 16  1  0
 12 17  1  0
 14 18  1  0
 14 24  1  0
 15 19  1  0
 15 25  1  0
 16 18  2  0
 16 22  1  0
 17 19  2  0
 17 23  1  0
 20 26  2  0
 21 27  2  0
 24 28  2  0
 25 29  2  0
 26 28  1  0
 27 29  1  0
  1 30  1  0
  2 31  1  0
  5 32  1  0
  6 33  1  0
 13 34  1  0
 13 35  1  0
 18 36  1  0
 19 37  1  0
 20 38  1  0
 21 39  1  0
 24 40  1  0
 25 41  1  0
 26 42  1  0
 27 43  1  0
 28 44  1  0
 29 45  1  0
M  END
> <Uni-Dock RESULT> 
ENERGY=   -3.988  LOWER_BOUND=    2.838  UPPER_BOUND=    4.373
INTER + INTRA:          -3.988
INTER:                  -3.988
INTRA:                   0.000
UNBOUND:                 0.000

$$$$

     RDKit          3D

 45 48  0  0  0  0  0  0  0  0999 V2000
   27.1045   14.9893   21.9333 O   0  0  0  0  0  0  0  0  0  0  0  0
   32.3706   13.4321   23.1913 O   0  0  0  0  0  0  0  0  0  0  0  0
   24.2664   13.1878   19.6896 O   0  0  0  0  0  0  0  0  0  0  0  0
   33.8371   11.2772   26.2800 O   0  0  0  0  0  0  0  0  0  0  0  0
   24.3479   14.1419   21.7714 O   0  0  0  0  0  0  0  0  0  0  0  0
   34.0753   11.2455   24.0013 O   0  0  0  0  0  0  0  0  0  0  0  0
   28.6036   13.0897   21.7617 C   0  0  0  0  0  0  0  0  0  0  0  0
   30.0728   13.0275   23.8550 C   0  0  0  0  0  0  0  0  0  0  0  0
   28.9182   11.8438   21.1463 C   0  0  0  0  0  0  0  0  0  0  0  0
   29.1602   12.5487   24.8388 C   0  0  0  0  0  0  0  0  0  0  0  0
   27.3333   13.6721   21.5194 C   0  0  0  0  0  0  0  0  0  0  0  0
   31.4583   12.7773   24.0264 C   0  0  0  0  0  0  0  0  0  0  0  0
   29.6079   13.8368   22.6421 C   0  0  0  0  0  0  0  0  0  0  0  0
   27.9084   11.1376   20.4433 C   0  0  0  0  0  0  0  0  0  0  0  0
   29.6310   11.7002   25.8739 C   0  0  0  0  0  0  0  0  0  0  0  0
   26.3277   12.9415   20.8463 C   0  0  0  0  0  0  0  0  0  0  0  0
   31.9074   11.9031   25.0423 C   0  0  0  0  0  0  0  0  0  0  0  0
   26.6286   11.6820   20.3179 C   0  0  0  0  0  0  0  0  0  0  0  0
   30.9865   11.3746   25.9526 C   0  0  0  0  0  0  0  0  0  0  0  0
   30.2169   11.2896   21.1797 C   0  0  0  0  0  0  0  0  0  0  0  0
   27.7954   12.9123   24.8462 C   0  0  0  0  0  0  0  0  0  0  0  0
   24.9407   13.4416   20.7243 C   0  0  0  0  0  0  0  0  0  0  0  0
   33.3214   11.4807   25.1477 C   0  0  0  0  0  0  0  0  0  0  0  0
   28.1896    9.8880   19.8656 C   0  0  0  0  0  0  0  0  0  0  0  0
   28.7379   11.1851   26.8285 C   0  0  0  0  0  0  0  0  0  0  0  0
   30.4837   10.0496   20.5956 C   0  0  0  0  0  0  0  0  0  0  0  0
   26.9203   12.3978   25.8049 C   0  0  0  0  0  0  0  0  0  0  0  0
   29.4705    9.3453   19.9500 C   0  0  0  0  0  0  0  0  0  0  0  0
   27.3876   11.5278   26.7868 C   0  0  0  0  0  0  0  0  0  0  0  0
   26.3068   15.5369   21.6407 H   0  0  0  0  0  0  0  0  0  0  0  0
   33.3668   13.4566   23.3617 H   0  0  0  0  0  0  0  0  0  0  0  0
   23.3922   14.4703   21.7024 H   0  0  0  0  0  0  0  0  0  0  0  0
   35.0382   10.9374   24.0658 H   0  0  0  0  0  0  0  0  0  0  0  0
   30.4512   14.1374   21.9876 H   0  0  0  0  0  0  0  0  0  0  0  0
   29.2006   14.7934   23.0282 H   0  0  0  0  0  0  0  0  0  0  0  0
   25.8570   11.1194   19.8030 H   0  0  0  0  0  0  0  0  0  0  0  0
   31.3298   10.7017   26.7313 H   0  0  0  0  0  0  0  0  0  0  0  0
   31.0463   11.8151   21.6180 H   0  0  0  0  0  0  0  0  0  0  0  0
   27.3939   13.6210   24.1442 H   0  0  0  0  0  0  0  0  0  0  0  0
   27.4200    9.3350   19.3398 H   0  0  0  0  0  0  0  0  0  0  0  0
   29.0867   10.5244   27.6135 H   0  0  0  0  0  0  0  0  0  0  0  0
   31.4844    9.6385   20.6351 H   0  0  0  0  0  0  0  0  0  0  0  0
   25.8764   12.6844   25.7920 H   0  0  0  0  0  0  0  0  0  0  0  0
   29.6825    8.3849   19.4982 H   0  0  0  0  0  0  0  0  0  0  0  0
   26.7054   11.1323   27.5282 H   0  0  0  0  0  0  0  0  0  0  0  0
  1 11  1  0
  2 12  1  0
  3 22  2  0
  4 23  2  0
  5 22  1  0
  6 23  1  0
  7  9  1  0
  7 11  2  0
  7 13  1  0
  8 10  1  0
  8 12  2  0
  8 13  1  0
  9 14  2  0
  9 20  1  0
 10 15  2  0
 10 21  1  0
 11 16  1  0
 12 17  1  0
 14 18  1  0
 14 24  1  0
 15 19  1  0
 15 25  1  0
 16 18  2  0
 16 22  1  0
 17 19  2  0
 17 23  1  0
 20 26  2  0
 21 27  2  0
 24 28  2  0
 25 29  2  0
 26 28  1  0
 27 29  1  0
  1 30  1  0
  2 31  1  0
  5 32  1  0
  6 33  1  0
 13 34  1  0
 13 35  1  0
 18 36  1  0
 19 37  1  0
 20 38  1  0
 21 39  1  0
 24 40  1  0
 25 41  1  0
 26 42  1  0
 27 43  1  0
 28 44  1  0
 29 45  1  0
M  END
> <Uni-Dock RESULT> 
ENERGY=   -3.914  LOWER_BOUND=    8.930  UPPER_BOUND=   12.034
INTER + INTRA:          -3.914
INTER:                  -3.914
INTRA:                   0.000
UNBOUND:                 0.000

$$$$
