
     RDKit          3D

 45 48  0  0  0  0  0  0  0  0999 V2000
   24.7332    8.8453   30.2643 O   0  0  0  0  0  0  0  0  0  0  0  0
   24.5494    6.9362   32.6449 O   0  0  0  0  0  0  0  0  0  0  0  0
   25.3580   11.5463   27.3265 O   0  0  0  0  0  0  0  0  0  0  0  0
   24.7730    3.1176   31.3423 O   0  0  0  0  0  0  0  0  0  0  0  0
   25.2565    9.2609   27.4566 O   0  0  0  0  0  0  0  0  0  0  0  0
   26.1853    4.9220   31.3635 O   0  0  0  0  0  0  0  0  0  0  0  0
   22.6308    9.8623   30.9125 C   0  0  0  0  0  0  0  0  0  0  0  0
   22.5310    7.3630   31.3709 C   0  0  0  0  0  0  0  0  0  0  0  0
   21.7392   10.9755   30.8191 C   0  0  0  0  0  0  0  0  0  0  0  0
   21.5042    6.8888   30.5063 C   0  0  0  0  0  0  0  0  0  0  0  0
   23.7307    9.7893   30.0201 C   0  0  0  0  0  0  0  0  0  0  0  0
   23.6140    6.5083   31.6962 C   0  0  0  0  0  0  0  0  0  0  0  0
   22.4792    8.7665   31.9702 C   0  0  0  0  0  0  0  0  0  0  0  0
   21.8813   11.8871   29.7383 C   0  0  0  0  0  0  0  0  0  0  0  0
   21.6119    5.5930   29.9401 C   0  0  0  0  0  0  0  0  0  0  0  0
   23.8315   10.6810   28.9297 C   0  0  0  0  0  0  0  0  0  0  0  0
   23.7271    5.2361   31.0896 C   0  0  0  0  0  0  0  0  0  0  0  0
   22.9046   11.7187   28.8033 C   0  0  0  0  0  0  0  0  0  0  0  0
   22.7163    4.7890   30.2317 C   0  0  0  0  0  0  0  0  0  0  0  0
   20.7207   11.2331   31.7706 C   0  0  0  0  0  0  0  0  0  0  0  0
   20.3607    7.6609   30.1975 C   0  0  0  0  0  0  0  0  0  0  0  0
   24.8644   10.5274   27.8812 C   0  0  0  0  0  0  0  0  0  0  0  0
   24.9095    4.3700   31.2911 C   0  0  0  0  0  0  0  0  0  0  0  0
   20.9943   12.9676   29.5976 C   0  0  0  0  0  0  0  0  0  0  0  0
   20.6130    5.1135   29.0762 C   0  0  0  0  0  0  0  0  0  0  0  0
   19.8522   12.3163   31.6176 C   0  0  0  0  0  0  0  0  0  0  0  0
   19.3758    7.1696   29.3381 C   0  0  0  0  0  0  0  0  0  0  0  0
   19.9820   13.1749   30.5306 C   0  0  0  0  0  0  0  0  0  0  0  0
   19.5029    5.9014   28.7763 C   0  0  0  0  0  0  0  0  0  0  0  0
   25.6312    8.8486   29.8001 H   0  0  0  0  0  0  0  0  0  0  0  0
   25.2370    6.3275   33.0674 H   0  0  0  0  0  0  0  0  0  0  0  0
   25.9494    9.1484   26.7262 H   0  0  0  0  0  0  0  0  0  0  0  0
   27.0011    4.3331   31.4815 H   0  0  0  0  0  0  0  0  0  0  0  0
   23.2688    8.9306   32.7316 H   0  0  0  0  0  0  0  0  0  0  0  0
   21.5336    8.8111   32.5338 H   0  0  0  0  0  0  0  0  0  0  0  0
   22.9814   12.4044   27.9660 H   0  0  0  0  0  0  0  0  0  0  0  0
   22.8014    3.8115   29.7690 H   0  0  0  0  0  0  0  0  0  0  0  0
   20.5841   10.6402   32.6584 H   0  0  0  0  0  0  0  0  0  0  0  0
   20.2027    8.6403   30.6199 H   0  0  0  0  0  0  0  0  0  0  0  0
   21.0896   13.6583   28.7679 H   0  0  0  0  0  0  0  0  0  0  0  0
   20.6903    4.1273   28.6337 H   0  0  0  0  0  0  0  0  0  0  0  0
   19.0780   12.4949   32.3531 H   0  0  0  0  0  0  0  0  0  0  0  0
   18.5076    7.7747   29.1104 H   0  0  0  0  0  0  0  0  0  0  0  0
   19.3053   14.0123   30.4187 H   0  0  0  0  0  0  0  0  0  0  0  0
   18.7363    5.5255   28.1111 H   0  0  0  0  0  0  0  0  0  0  0  0
  1 11  1  0
  2 12  1  0
  3 22  2  0
  4 23  2  0
  5 22  1  0
  6 23  1  0
  7  9  1  0
  7 11  2  0
  7 13  1  0
  8 10  1  0
  8 12  2  0
  8 13  1  0
  9 14  2  0
  9 20  1  0
 10 15  2  0
 10 21  1  0
 11 16  1  0
 12 17  1  0
 14 18  1  0
 14 24  1  0
 15 19  1  0
 15 25  1  0
 16 18  2  0
 16 22  1  0
 17 19  2  0
 17 23  1  0
 20 26  2  0
 21 27  2  0
 24 28  2  0
 25 29  2  0
 26 28  1  0
 27 29  1  0
  1 30  1  0
  2 31  1  0
  5 32  1  0
  6 33  1  0
 13 34  1  0
 13 35  1  0
 18 36  1  0
 19 37  1  0
 20 38  1  0
 21 39  1  0
 24 40  1  0
 25 41  1  0
 26 42  1  0
 27 43  1  0
 28 44  1  0
 29 45  1  0
M  END
> <Uni-Dock RESULT> 
ENERGY=   -4.584  LOWER_BOUND=    0.000  UPPER_BOUND=    0.000
INTER + INTRA:          -4.584
INTER:                  -4.584
INTRA:                   0.000
UNBOUND:                 0.000

$$$$

     RDKit          3D

 45 48  0  0  0  0  0  0  0  0999 V2000
   26.2823    5.6724   32.2998 O   0  0  0  0  0  0  0  0  0  0  0  0
   29.0615    6.4345   33.3202 O   0  0  0  0  0  0  0  0  0  0  0  0
   22.4441    4.8402   31.3550 O   0  0  0  0  0  0  0  0  0  0  0  0
   30.7830    9.0370   30.7527 O   0  0  0  0  0  0  0  0  0  0  0  0
   24.1145    6.1198   30.4477 O   0  0  0  0  0  0  0  0  0  0  0  0
   28.9529    9.0708   32.1312 O   0  0  0  0  0  0  0  0  0  0  0  0
   26.8978    3.3290   32.3617 C   0  0  0  0  0  0  0  0  0  0  0  0
   28.9061    4.7054   31.6275 C   0  0  0  0  0  0  0  0  0  0  0  0
   26.4795    1.9625   32.3818 C   0  0  0  0  0  0  0  0  0  0  0  0
   29.1679    4.2629   30.2999 C   0  0  0  0  0  0  0  0  0  0  0  0
   25.9382    4.3348   32.0805 C   0  0  0  0  0  0  0  0  0  0  0  0
   29.2022    6.0451   31.9835 C   0  0  0  0  0  0  0  0  0  0  0  0
   28.3312    3.7609   32.6805 C   0  0  0  0  0  0  0  0  0  0  0  0
   25.1616    1.6360   31.9624 C   0  0  0  0  0  0  0  0  0  0  0  0
   29.6649    5.1837   29.3426 C   0  0  0  0  0  0  0  0  0  0  0  0
   24.6463    3.9885   31.6276 C   0  0  0  0  0  0  0  0  0  0  0  0
   29.6570    6.9601   31.0061 C   0  0  0  0  0  0  0  0  0  0  0  0
   24.2750    2.6427   31.5745 C   0  0  0  0  0  0  0  0  0  0  0  0
   29.8973    6.5133   29.7022 C   0  0  0  0  0  0  0  0  0  0  0  0
   27.3131    0.9043   32.8229 C   0  0  0  0  0  0  0  0  0  0  0  0
   28.9641    2.9232   29.8965 C   0  0  0  0  0  0  0  0  0  0  0  0
   23.6785    5.0053   31.1590 C   0  0  0  0  0  0  0  0  0  0  0  0
   29.8441    8.3979   31.3001 C   0  0  0  0  0  0  0  0  0  0  0  0
   24.7353    0.2976   31.9328 C   0  0  0  0  0  0  0  0  0  0  0  0
   29.9184    4.7664   28.0252 C   0  0  0  0  0  0  0  0  0  0  0  0
   26.8697   -0.4198   32.7924 C   0  0  0  0  0  0  0  0  0  0  0  0
   29.2222    2.5236   28.5836 C   0  0  0  0  0  0  0  0  0  0  0  0
   25.5894   -0.7236   32.3403 C   0  0  0  0  0  0  0  0  0  0  0  0
   29.6945    3.4428   27.6497 C   0  0  0  0  0  0  0  0  0  0  0  0
   25.6122    6.4292   32.3088 H   0  0  0  0  0  0  0  0  0  0  0  0
   29.4217    7.3030   33.6912 H   0  0  0  0  0  0  0  0  0  0  0  0
   23.4558    6.8103   30.1077 H   0  0  0  0  0  0  0  0  0  0  0  0
   29.0638   10.0597   32.3209 H   0  0  0  0  0  0  0  0  0  0  0  0
   28.3227    4.2119   33.6937 H   0  0  0  0  0  0  0  0  0  0  0  0
   29.0484    2.9275   32.7513 H   0  0  0  0  0  0  0  0  0  0  0  0
   23.2826    2.3757   31.2267 H   0  0  0  0  0  0  0  0  0  0  0  0
   30.2496    7.2146   28.9532 H   0  0  0  0  0  0  0  0  0  0  0  0
   28.2987    1.0630   33.2250 H   0  0  0  0  0  0  0  0  0  0  0  0
   28.6188    2.1670   30.5832 H   0  0  0  0  0  0  0  0  0  0  0  0
   23.7358    0.0415   31.6011 H   0  0  0  0  0  0  0  0  0  0  0  0
   30.2918    5.4647   27.2854 H   0  0  0  0  0  0  0  0  0  0  0  0
   27.5222   -1.2150   33.1301 H   0  0  0  0  0  0  0  0  0  0  0  0
   29.0585    1.4944   28.2908 H   0  0  0  0  0  0  0  0  0  0  0  0
   25.2527   -1.7521   32.3195 H   0  0  0  0  0  0  0  0  0  0  0  0
   29.8932    3.1275   26.6336 H   0  0  0  0  0  0  0  0  0  0  0  0
  1 11  1  0
  2 12  1  0
  3 22  2  0
  4 23  2  0
  5 22  1  0
  6 23  1  0
  7  9  1  0
  7 11  2  0
  7 13  1  0
  8 10  1  0
  8 12  2  0
  8 13  1  0
  9 14  2  0
  9 20  1  0
 10 15  2  0
 10 21  1  0
 11 16  1  0
 12 17  1  0
 14 18  1  0
 14 24  1  0
 15 19  1  0
 15 25  1  0
 16 18  2  0
 16 22  1  0
 17 19  2  0
 17 23  1  0
 20 26  2  0
 21 27  2  0
 24 28  2  0
 25 29  2  0
 26 28  1  0
 27 29  1  0
  1 30  1  0
  2 31  1  0
  5 32  1  0
  6 33  1  0
 13 34  1  0
 13 35  1  0
 18 36  1  0
 19 37  1  0
 20 38  1  0
 21 39  1  0
 24 40  1  0
 25 41  1  0
 26 42  1  0
 27 43  1  0
 28 44  1  0
 29 45  1  0
M  END
> <Uni-Dock RESULT> 
ENERGY=   -4.499  LOWER_BOUND=    5.085  UPPER_BOUND=    8.965
INTER + INTRA:          -4.499
INTER:                  -4.499
INTRA:                   0.000
UNBOUND:                 0.000

$$$$

     RDKit          3D

 45 48  0  0  0  0  0  0  0  0999 V2000
   27.4366   13.0425   25.0572 O   0  0  0  0  0  0  0  0  0  0  0  0
   27.0485   15.1779   22.9042 O   0  0  0  0  0  0  0  0  0  0  0  0
   27.8440   10.5559   28.2143 O   0  0  0  0  0  0  0  0  0  0  0  0
   24.1174   14.0322   20.3696 O   0  0  0  0  0  0  0  0  0  0  0  0
   26.5191   10.6286   26.3461 O   0  0  0  0  0  0  0  0  0  0  0  0
   24.2339   14.5820   22.5911 O   0  0  0  0  0  0  0  0  0  0  0  0
   29.7824   12.8730   24.4718 C   0  0  0  0  0  0  0  0  0  0  0  0
   28.4156   13.2505   22.3610 C   0  0  0  0  0  0  0  0  0  0  0  0
   31.1007   12.4620   24.8408 C   0  0  0  0  0  0  0  0  0  0  0  0
   28.6152   12.0654   21.5976 C   0  0  0  0  0  0  0  0  0  0  0  0
   28.6859   12.4496   25.2655 C   0  0  0  0  0  0  0  0  0  0  0  0
   27.1870   13.9488   22.2499 C   0  0  0  0  0  0  0  0  0  0  0  0
   29.5051   13.7948   23.2818 C   0  0  0  0  0  0  0  0  0  0  0  0
   31.2626   11.5144   25.8873 C   0  0  0  0  0  0  0  0  0  0  0  0
   27.5622   11.5731   20.7851 C   0  0  0  0  0  0  0  0  0  0  0  0
   28.8625   11.4778   26.2747 C   0  0  0  0  0  0  0  0  0  0  0  0
   26.1335   13.4209   21.4685 C   0  0  0  0  0  0  0  0  0  0  0  0
   30.1495   11.0228   26.5723 C   0  0  0  0  0  0  0  0  0  0  0  0
   26.3404   12.2482   20.7340 C   0  0  0  0  0  0  0  0  0  0  0  0
   32.2710   12.9712   24.2243 C   0  0  0  0  0  0  0  0  0  0  0  0
   29.8403   11.3597   21.6052 C   0  0  0  0  0  0  0  0  0  0  0  0
   27.7194   10.8843   27.0035 C   0  0  0  0  0  0  0  0  0  0  0  0
   24.7906   14.0409   21.4356 C   0  0  0  0  0  0  0  0  0  0  0  0
   32.5435   11.0610   26.2448 C   0  0  0  0  0  0  0  0  0  0  0  0
   27.7385   10.3990   20.0338 C   0  0  0  0  0  0  0  0  0  0  0  0
   33.5367   12.5133   24.5975 C   0  0  0  0  0  0  0  0  0  0  0  0
   30.0004   10.1950   20.8517 C   0  0  0  0  0  0  0  0  0  0  0  0
   33.6725   11.5551   25.5971 C   0  0  0  0  0  0  0  0  0  0  0  0
   28.9519    9.7139   20.0710 C   0  0  0  0  0  0  0  0  0  0  0  0
   26.6561   12.9429   25.6919 H   0  0  0  0  0  0  0  0  0  0  0  0
   26.2886   15.8216   22.7315 H   0  0  0  0  0  0  0  0  0  0  0  0
   25.7388   10.2054   26.8340 H   0  0  0  0  0  0  0  0  0  0  0  0
   23.3068   14.9903   22.5800 H   0  0  0  0  0  0  0  0  0  0  0  0
   29.2532   14.7947   23.6901 H   0  0  0  0  0  0  0  0  0  0  0  0
   30.3785   13.9694   22.6333 H   0  0  0  0  0  0  0  0  0  0  0  0
   30.2861   10.2763   27.3477 H   0  0  0  0  0  0  0  0  0  0  0  0
   25.5331   11.8451   20.1317 H   0  0  0  0  0  0  0  0  0  0  0  0
   32.2504   13.7429   23.4744 H   0  0  0  0  0  0  0  0  0  0  0  0
   30.6901   11.6984   22.1759 H   0  0  0  0  0  0  0  0  0  0  0  0
   32.6720   10.3285   27.0331 H   0  0  0  0  0  0  0  0  0  0  0  0
   26.9371   10.0118   19.4155 H   0  0  0  0  0  0  0  0  0  0  0  0
   34.4190   12.9115   24.1125 H   0  0  0  0  0  0  0  0  0  0  0  0
   30.9443    9.6655   20.8706 H   0  0  0  0  0  0  0  0  0  0  0  0
   34.6566   11.2050   25.8810 H   0  0  0  0  0  0  0  0  0  0  0  0
   29.0816    8.8109   19.4887 H   0  0  0  0  0  0  0  0  0  0  0  0
  1 11  1  0
  2 12  1  0
  3 22  2  0
  4 23  2  0
  5 22  1  0
  6 23  1  0
  7  9  1  0
  7 11  2  0
  7 13  1  0
  8 10  1  0
  8 12  2  0
  8 13  1  0
  9 14  2  0
  9 20  1  0
 10 15  2  0
 10 21  1  0
 11 16  1  0
 12 17  1  0
 14 18  1  0
 14 24  1  0
 15 19  1  0
 15 25  1  0
 16 18  2  0
 16 22  1  0
 17 19  2  0
 17 23  1  0
 20 26  2  0
 21 27  2  0
 24 28  2  0
 25 29  2  0
 26 28  1  0
 27 29  1  0
  1 30  1  0
  2 31  1  0
  5 32  1  0
  6 33  1  0
 13 34  1  0
 13 35  1  0
 18 36  1  0
 19 37  1  0
 20 38  1  0
 21 39  1  0
 24 40  1  0
 25 41  1  0
 26 42  1  0
 27 43  1  0
 28 44  1  0
 29 45  1  0
M  END
> <Uni-Dock RESULT> 
ENERGY=   -4.066  LOWER_BOUND=    7.338  UPPER_BOUND=   11.628
INTER + INTRA:          -4.066
INTER:                  -4.066
INTRA:                   0.000
UNBOUND:                 0.000

$$$$

     RDKit          3D

 45 48  0  0  0  0  0  0  0  0999 V2000
   27.5815   13.1022   25.0797 O   0  0  0  0  0  0  0  0  0  0  0  0
   27.2422   15.2426   22.9235 O   0  0  0  0  0  0  0  0  0  0  0  0
   27.9428   10.6140   28.2412 O   0  0  0  0  0  0  0  0  0  0  0  0
   24.2276   14.2025   20.4417 O   0  0  0  0  0  0  0  0  0  0  0  0
   26.5915   10.7312   26.3943 O   0  0  0  0  0  0  0  0  0  0  0  0
   24.4017   14.7561   22.6585 O   0  0  0  0  0  0  0  0  0  0  0  0
   29.9091   12.8387   24.4574 C   0  0  0  0  0  0  0  0  0  0  0  0
   28.5238   13.2610   22.3671 C   0  0  0  0  0  0  0  0  0  0  0  0
   31.2161   12.3779   24.8070 C   0  0  0  0  0  0  0  0  0  0  0  0
   28.6645   12.0661   21.6061 C   0  0  0  0  0  0  0  0  0  0  0  0
   28.8099   12.4617   25.2706 C   0  0  0  0  0  0  0  0  0  0  0  0
   27.3219   14.0065   22.2727 C   0  0  0  0  0  0  0  0  0  0  0  0
   29.6487   13.7659   23.2678 C   0  0  0  0  0  0  0  0  0  0  0  0
   31.3579   11.4288   25.8551 C   0  0  0  0  0  0  0  0  0  0  0  0
   27.5800   11.6121   20.8130 C   0  0  0  0  0  0  0  0  0  0  0  0
   28.9648   11.4877   26.2812 C   0  0  0  0  0  0  0  0  0  0  0  0
   26.2359   13.5171   21.5108 C   0  0  0  0  0  0  0  0  0  0  0  0
   30.2377   10.9839   26.5602 C   0  0  0  0  0  0  0  0  0  0  0  0
   26.3849   12.3343   20.7784 C   0  0  0  0  0  0  0  0  0  0  0  0
   32.3953   12.8384   24.1693 C   0  0  0  0  0  0  0  0  0  0  0  0
   29.8611   11.3129   21.5972 C   0  0  0  0  0  0  0  0  0  0  0  0
   27.8114   10.9423   27.0311 C   0  0  0  0  0  0  0  0  0  0  0  0
   24.9179   14.1891   21.4967 C   0  0  0  0  0  0  0  0  0  0  0  0
   32.6257   10.9271   26.1940 C   0  0  0  0  0  0  0  0  0  0  0  0
   27.6980   10.4291   20.0643 C   0  0  0  0  0  0  0  0  0  0  0  0
   33.6480   12.3328   24.5242 C   0  0  0  0  0  0  0  0  0  0  0  0
   29.9632   10.1399   20.8465 C   0  0  0  0  0  0  0  0  0  0  0  0
   33.7625   11.3740   25.5259 C   0  0  0  0  0  0  0  0  0  0  0  0
   28.8841    9.6972   20.0851 C   0  0  0  0  0  0  0  0  0  0  0  0
   26.8082   13.0357   25.7274 H   0  0  0  0  0  0  0  0  0  0  0  0
   26.5052   15.9149   22.7601 H   0  0  0  0  0  0  0  0  0  0  0  0
   25.8032   10.3407   26.8967 H   0  0  0  0  0  0  0  0  0  0  0  0
   23.4912   15.2003   22.6605 H   0  0  0  0  0  0  0  0  0  0  0  0
   29.4427   14.7765   23.6755 H   0  0  0  0  0  0  0  0  0  0  0  0
   30.5175   13.9036   22.6044 H   0  0  0  0  0  0  0  0  0  0  0  0
   30.3577   10.2357   27.3366 H   0  0  0  0  0  0  0  0  0  0  0  0
   25.5528   11.9608   20.1911 H   0  0  0  0  0  0  0  0  0  0  0  0
   32.3925   13.6074   23.4163 H   0  0  0  0  0  0  0  0  0  0  0  0
   30.7326   11.6204   22.1526 H   0  0  0  0  0  0  0  0  0  0  0  0
   32.7383   10.1931   26.9834 H   0  0  0  0  0  0  0  0  0  0  0  0
   26.8721   10.0711   19.4608 H   0  0  0  0  0  0  0  0  0  0  0  0
   34.5372   12.6943   24.0233 H   0  0  0  0  0  0  0  0  0  0  0  0
   30.8859    9.5740   20.8527 H   0  0  0  0  0  0  0  0  0  0  0  0
   34.7366   10.9868   25.7955 H   0  0  0  0  0  0  0  0  0  0  0  0
   28.9690    8.7875   19.5049 H   0  0  0  0  0  0  0  0  0  0  0  0
  1 11  1  0
  2 12  1  0
  3 22  2  0
  4 23  2  0
  5 22  1  0
  6 23  1  0
  7  9  1  0
  7 11  2  0
  7 13  1  0
  8 10  1  0
  8 12  2  0
  8 13  1  0
  9 14  2  0
  9 20  1  0
 10 15  2  0
 10 21  1  0
 11 16  1  0
 12 17  1  0
 14 18  1  0
 14 24  1  0
 15 19  1  0
 15 25  1  0
 16 18  2  0
 16 22  1  0
 17 19  2  0
 17 23  1  0
 20 26  2  0
 21 27  2  0
 24 28  2  0
 25 29  2  0
 26 28  1  0
 27 29  1  0
  1 30  1  0
  2 31  1  0
  5 32  1  0
  6 33  1  0
 13 34  1  0
 13 35  1  0
 18 36  1  0
 19 37  1  0
 20 38  1  0
 21 39  1  0
 24 40  1  0
 25 41  1  0
 26 42  1  0
 27 43  1  0
 28 44  1  0
 29 45  1  0
M  END
> <Uni-Dock RESULT> 
ENERGY=   -3.993  LOWER_BOUND=    7.408  UPPER_BOUND=   11.683
INTER + INTRA:          -3.993
INTER:                  -3.993
INTRA:                   0.000
UNBOUND:                 0.000

$$$$

     RDKit          3D

 45 48  0  0  0  0  0  0  0  0999 V2000
   26.8035   12.8245   20.5196 O   0  0  0  0  0  0  0  0  0  0  0  0
   24.9451   13.9605   18.3745 O   0  0  0  0  0  0  0  0  0  0  0  0
   29.4400   11.7558   23.3873 O   0  0  0  0  0  0  0  0  0  0  0  0
   21.0993   13.4779   19.5170 O   0  0  0  0  0  0  0  0  0  0  0  0
   27.1582   11.7565   23.1773 O   0  0  0  0  0  0  0  0  0  0  0  0
   22.8972   14.6679   20.2930 O   0  0  0  0  0  0  0  0  0  0  0  0
   27.8435   11.3909   18.8650 C   0  0  0  0  0  0  0  0  0  0  0  0
   25.3548   11.5707   18.3747 C   0  0  0  0  0  0  0  0  0  0  0  0
   28.9586   10.5803   18.4876 C   0  0  0  0  0  0  0  0  0  0  0  0
   24.8675   10.2437   18.5436 C   0  0  0  0  0  0  0  0  0  0  0  0
   27.7468   11.8407   20.2066 C   0  0  0  0  0  0  0  0  0  0  0  0
   24.5019   12.6653   18.6643 C   0  0  0  0  0  0  0  0  0  0  0  0
   26.7706   11.8384   17.8694 C   0  0  0  0  0  0  0  0  0  0  0  0
   29.8469   10.1137   19.4939 C   0  0  0  0  0  0  0  0  0  0  0  0
   23.5597   10.0402   19.0531 C   0  0  0  0  0  0  0  0  0  0  0  0
   28.6152   11.3342   21.1983 C   0  0  0  0  0  0  0  0  0  0  0  0
   23.2169   12.4444   19.2112 C   0  0  0  0  0  0  0  0  0  0  0  0
   29.6544   10.4768   20.8284 C   0  0  0  0  0  0  0  0  0  0  0  0
   22.7568   11.1343   19.3837 C   0  0  0  0  0  0  0  0  0  0  0  0
   29.2407   10.2296   17.1436 C   0  0  0  0  0  0  0  0  0  0  0  0
   25.6383    9.1075   18.2060 C   0  0  0  0  0  0  0  0  0  0  0  0
   28.4351   11.6444   22.6341 C   0  0  0  0  0  0  0  0  0  0  0  0
   22.3497   13.5565   19.6584 C   0  0  0  0  0  0  0  0  0  0  0  0
   30.9284    9.2820   19.1583 C   0  0  0  0  0  0  0  0  0  0  0  0
   23.0670    8.7372   19.2363 C   0  0  0  0  0  0  0  0  0  0  0  0
   30.3245    9.4068   16.8283 C   0  0  0  0  0  0  0  0  0  0  0  0
   25.1338    7.8189   18.3926 C   0  0  0  0  0  0  0  0  0  0  0  0
   31.1598    8.9269   17.8321 C   0  0  0  0  0  0  0  0  0  0  0  0
   23.8536    7.6338   18.9094 C   0  0  0  0  0  0  0  0  0  0  0  0
   26.7930   13.3332   21.3931 H   0  0  0  0  0  0  0  0  0  0  0  0
   24.3422   14.7718   18.3748 H   0  0  0  0  0  0  0  0  0  0  0  0
   27.0274   11.9501   24.1630 H   0  0  0  0  0  0  0  0  0  0  0  0
   22.3071   15.4239   20.6194 H   0  0  0  0  0  0  0  0  0  0  0  0
   26.9468   12.9120   17.6541 H   0  0  0  0  0  0  0  0  0  0  0  0
   26.8313   11.3425   16.8874 H   0  0  0  0  0  0  0  0  0  0  0  0
   30.3222   10.0874   21.5897 H   0  0  0  0  0  0  0  0  0  0  0  0
   21.7695   10.9649   19.8000 H   0  0  0  0  0  0  0  0  0  0  0  0
   28.6670   10.5949   16.3095 H   0  0  0  0  0  0  0  0  0  0  0  0
   26.6269    9.1938   17.7845 H   0  0  0  0  0  0  0  0  0  0  0  0
   31.6013    8.9122   19.9232 H   0  0  0  0  0  0  0  0  0  0  0  0
   22.0715    8.5722   19.6313 H   0  0  0  0  0  0  0  0  0  0  0  0
   30.5219    9.1468   15.7960 H   0  0  0  0  0  0  0  0  0  0  0  0
   25.7381    6.9597   18.1310 H   0  0  0  0  0  0  0  0  0  0  0  0
   31.9977    8.2898   17.5802 H   0  0  0  0  0  0  0  0  0  0  0  0
   23.4676    6.6327   19.0516 H   0  0  0  0  0  0  0  0  0  0  0  0
  1 11  1  0
  2 12  1  0
  3 22  2  0
  4 23  2  0
  5 22  1  0
  6 23  1  0
  7  9  1  0
  7 11  2  0
  7 13  1  0
  8 10  1  0
  8 12  2  0
  8 13  1  0
  9 14  2  0
  9 20  1  0
 10 15  2  0
 10 21  1  0
 11 16  1  0
 12 17  1  0
 14 18  1  0
 14 24  1  0
 15 19  1  0
 15 25  1  0
 16 18  2  0
 16 22  1  0
 17 19  2  0
 17 23  1  0
 20 26  2  0
 21 27  2  0
 24 28  2  0
 25 29  2  0
 26 28  1  0
 27 29  1  0
  1 30  1  0
  2 31  1  0
  5 32  1  0
  6 33  1  0
 13 34  1  0
 13 35  1  0
 18 36  1  0
 19 37  1  0
 20 38  1  0
 21 39  1  0
 24 40  1  0
 25 41  1  0
 26 42  1  0
 27 43  1  0
 28 44  1  0
 29 45  1  0
M  END
> <Uni-Dock RESULT> 
ENERGY=   -3.753  LOWER_BOUND=   10.363  UPPER_BOUND=   13.193
INTER + INTRA:          -3.753
INTER:                  -3.753
INTRA:                   0.000
UNBOUND:                 0.000

$$$$

     RDKit          3D

 45 48  0  0  0  0  0  0  0  0999 V2000
   27.7862    4.8921   29.9495 O   0  0  0  0  0  0  0  0  0  0  0  0
   25.9665    6.2424   32.0017 O   0  0  0  0  0  0  0  0  0  0  0  0
   29.8022    3.0321   26.9843 O   0  0  0  0  0  0  0  0  0  0  0  0
   27.1146   10.0828   32.5139 O   0  0  0  0  0  0  0  0  0  0  0  0
   29.8500    5.1124   27.9440 O   0  0  0  0  0  0  0  0  0  0  0  0
   26.2562    8.8512   30.7827 O   0  0  0  0  0  0  0  0  0  0  0  0
   28.3253    3.1626   31.5597 C   0  0  0  0  0  0  0  0  0  0  0  0
   28.1053    5.3916   32.7638 C   0  0  0  0  0  0  0  0  0  0  0  0
   28.8334    1.8503   31.8097 C   0  0  0  0  0  0  0  0  0  0  0  0
   29.4067    5.6379   33.2857 C   0  0  0  0  0  0  0  0  0  0  0  0
   28.4885    3.7255   30.2682 C   0  0  0  0  0  0  0  0  0  0  0  0
   27.2875    6.4883   32.3925 C   0  0  0  0  0  0  0  0  0  0  0  0
   27.5655    3.9712   32.6141 C   0  0  0  0  0  0  0  0  0  0  0  0
   29.6259    1.2143   30.8163 C   0  0  0  0  0  0  0  0  0  0  0  0
   29.8837    6.9708   33.3707 C   0  0  0  0  0  0  0  0  0  0  0  0
   29.3122    3.0962   29.3092 C   0  0  0  0  0  0  0  0  0  0  0  0
   27.7946    7.8072   32.4440 C   0  0  0  0  0  0  0  0  0  0  0  0
   29.8703    1.8481   29.5964 C   0  0  0  0  0  0  0  0  0  0  0  0
   29.0805    8.0323   32.9473 C   0  0  0  0  0  0  0  0  0  0  0  0
   28.5684    1.1322   33.0026 C   0  0  0  0  0  0  0  0  0  0  0  0
   30.2470    4.5964   33.7420 C   0  0  0  0  0  0  0  0  0  0  0  0
   29.6464    3.7371   28.0178 C   0  0  0  0  0  0  0  0  0  0  0  0
   27.0280    8.9658   31.9355 C   0  0  0  0  0  0  0  0  0  0  0  0
   30.1728   -0.0587   31.0499 C   0  0  0  0  0  0  0  0  0  0  0  0
   31.1698    7.2310   33.8731 C   0  0  0  0  0  0  0  0  0  0  0  0
   29.1156   -0.1354   33.2145 C   0  0  0  0  0  0  0  0  0  0  0  0
   31.5221    4.8714   34.2402 C   0  0  0  0  0  0  0  0  0  0  0  0
   29.9223   -0.7250   32.2463 C   0  0  0  0  0  0  0  0  0  0  0  0
   31.9838    6.1841   34.3024 C   0  0  0  0  0  0  0  0  0  0  0  0
   27.6939    5.2516   29.0092 H   0  0  0  0  0  0  0  0  0  0  0  0
   25.2685    6.9665   31.9010 H   0  0  0  0  0  0  0  0  0  0  0  0
   30.0973    5.5553   27.0672 H   0  0  0  0  0  0  0  0  0  0  0  0
   25.7446    9.6458   30.4179 H   0  0  0  0  0  0  0  0  0  0  0  0
   26.4926    3.9538   32.3339 H   0  0  0  0  0  0  0  0  0  0  0  0
   27.5976    3.5360   33.6258 H   0  0  0  0  0  0  0  0  0  0  0  0
   30.5032    1.3638   28.8601 H   0  0  0  0  0  0  0  0  0  0  0  0
   29.4682    9.0446   32.9901 H   0  0  0  0  0  0  0  0  0  0  0  0
   27.9211    1.5026   33.7785 H   0  0  0  0  0  0  0  0  0  0  0  0
   29.9322    3.5651   33.7346 H   0  0  0  0  0  0  0  0  0  0  0  0
   30.7891   -0.5428   30.3013 H   0  0  0  0  0  0  0  0  0  0  0  0
   31.5450    8.2457   33.9354 H   0  0  0  0  0  0  0  0  0  0  0  0
   28.9047   -0.6671   34.1337 H   0  0  0  0  0  0  0  0  0  0  0  0
   32.1535    4.0618   34.5833 H   0  0  0  0  0  0  0  0  0  0  0  0
   30.3428   -1.7075   32.4175 H   0  0  0  0  0  0  0  0  0  0  0  0
   32.9730    6.3915   34.6898 H   0  0  0  0  0  0  0  0  0  0  0  0
  1 11  1  0
  2 12  1  0
  3 22  2  0
  4 23  2  0
  5 22  1  0
  6 23  1  0
  7  9  1  0
  7 11  2  0
  7 13  1  0
  8 10  1  0
  8 12  2  0
  8 13  1  0
  9 14  2  0
  9 20  1  0
 10 15  2  0
 10 21  1  0
 11 16  1  0
 12 17  1  0
 14 18  1  0
 14 24  1  0
 15 19  1  0
 15 25  1  0
 16 18  2  0
 16 22  1  0
 17 19  2  0
 17 23  1  0
 20 26  2  0
 21 27  2  0
 24 28  2  0
 25 29  2  0
 26 28  1  0
 27 29  1  0
  1 30  1  0
  2 31  1  0
  5 32  1  0
  6 33  1  0
 13 34  1  0
 13 35  1  0
 18 36  1  0
 19 37  1  0
 20 38  1  0
 21 39  1  0
 24 40  1  0
 25 41  1  0
 26 42  1  0
 27 43  1  0
 28 44  1  0
 29 45  1  0
M  END
> <Uni-Dock RESULT> 
ENERGY=   -3.692  LOWER_BOUND=    5.609  UPPER_BOUND=   10.043
INTER + INTRA:          -3.692
INTER:                  -3.692
INTRA:                   0.000
UNBOUND:                 0.000

$$$$

     RDKit          3D

 45 48  0  0  0  0  0  0  0  0999 V2000
   27.0400   14.1798   18.8659 O   0  0  0  0  0  0  0  0  0  0  0  0
   24.3185   13.2671   19.9176 O   0  0  0  0  0  0  0  0  0  0  0  0
   30.4327   15.4130   17.0533 O   0  0  0  0  0  0  0  0  0  0  0  0
   23.0272   15.8403   22.7532 O   0  0  0  0  0  0  0  0  0  0  0  0
   29.0958   16.2016   18.7390 O   0  0  0  0  0  0  0  0  0  0  0  0
   23.4590   15.9671   20.5063 O   0  0  0  0  0  0  0  0  0  0  0  0
   27.9849   12.0188   19.4240 C   0  0  0  0  0  0  0  0  0  0  0  0
   26.2895   12.6781   21.2010 C   0  0  0  0  0  0  0  0  0  0  0  0
   29.0351   11.0671   19.2395 C   0  0  0  0  0  0  0  0  0  0  0  0
   27.0607   12.8062   22.3909 C   0  0  0  0  0  0  0  0  0  0  0  0
   28.1488   13.3286   18.9053 C   0  0  0  0  0  0  0  0  0  0  0  0
   25.1399   13.4892   21.0286 C   0  0  0  0  0  0  0  0  0  0  0  0
   26.6647   11.6713   20.1161 C   0  0  0  0  0  0  0  0  0  0  0  0
   30.2723   11.4996   18.6905 C   0  0  0  0  0  0  0  0  0  0  0  0
   26.6996   13.7817   23.3549 C   0  0  0  0  0  0  0  0  0  0  0  0
   29.3984   13.7498   18.4000 C   0  0  0  0  0  0  0  0  0  0  0  0
   24.8192   14.4852   21.9795 C   0  0  0  0  0  0  0  0  0  0  0  0
   30.4442   12.8290   18.2993 C   0  0  0  0  0  0  0  0  0  0  0  0
   25.5943   14.6077   23.1379 C   0  0  0  0  0  0  0  0  0  0  0  0
   28.8994    9.6931   19.5602 C   0  0  0  0  0  0  0  0  0  0  0  0
   28.1763   11.9804   22.6602 C   0  0  0  0  0  0  0  0  0  0  0  0
   29.6569   15.1546   18.0129 C   0  0  0  0  0  0  0  0  0  0  0  0
   23.7129   15.4452   21.7716 C   0  0  0  0  0  0  0  0  0  0  0  0
   31.3366   10.5957   18.5350 C   0  0  0  0  0  0  0  0  0  0  0  0
   27.4562   13.9289   24.5296 C   0  0  0  0  0  0  0  0  0  0  0  0
   29.9667    8.8077   19.3927 C   0  0  0  0  0  0  0  0  0  0  0  0
   28.9173   12.1381   23.8333 C   0  0  0  0  0  0  0  0  0  0  0  0
   31.1836    9.2584   18.8911 C   0  0  0  0  0  0  0  0  0  0  0  0
   28.5608   13.1115   24.7636 C   0  0  0  0  0  0  0  0  0  0  0  0
   27.0178   15.0477   18.3479 H   0  0  0  0  0  0  0  0  0  0  0  0
   23.3952   13.6657   19.8154 H   0  0  0  0  0  0  0  0  0  0  0  0
   29.2834   17.1658   18.4911 H   0  0  0  0  0  0  0  0  0  0  0  0
   22.7157   16.6399   20.3606 H   0  0  0  0  0  0  0  0  0  0  0  0
   25.8892   11.5910   19.3273 H   0  0  0  0  0  0  0  0  0  0  0  0
   26.6609   10.6880   20.6131 H   0  0  0  0  0  0  0  0  0  0  0  0
   31.4046   13.1518   17.9111 H   0  0  0  0  0  0  0  0  0  0  0  0
   25.3461   15.3696   23.8691 H   0  0  0  0  0  0  0  0  0  0  0  0
   27.9787    9.2614   19.9125 H   0  0  0  0  0  0  0  0  0  0  0  0
   28.4839   11.1989   21.9840 H   0  0  0  0  0  0  0  0  0  0  0  0
   32.2868   10.9229   18.1293 H   0  0  0  0  0  0  0  0  0  0  0  0
   27.1916   14.6761   25.2685 H   0  0  0  0  0  0  0  0  0  0  0  0
   29.8451    7.7622   19.6466 H   0  0  0  0  0  0  0  0  0  0  0  0
   29.7700   11.4989   24.0229 H   0  0  0  0  0  0  0  0  0  0  0  0
   32.0062    8.5665   18.7640 H   0  0  0  0  0  0  0  0  0  0  0  0
   29.1385   13.2292   25.6713 H   0  0  0  0  0  0  0  0  0  0  0  0
  1 11  1  0
  2 12  1  0
  3 22  2  0
  4 23  2  0
  5 22  1  0
  6 23  1  0
  7  9  1  0
  7 11  2  0
  7 13  1  0
  8 10  1  0
  8 12  2  0
  8 13  1  0
  9 14  2  0
  9 20  1  0
 10 15  2  0
 10 21  1  0
 11 16  1  0
 12 17  1  0
 14 18  1  0
 14 24  1  0
 15 19  1  0
 15 25  1  0
 16 18  2  0
 16 22  1  0
 17 19  2  0
 17 23  1  0
 20 26  2  0
 21 27  2  0
 24 28  2  0
 25 29  2  0
 26 28  1  0
 27 29  1  0
  1 30  1  0
  2 31  1  0
  5 32  1  0
  6 33  1  0
 13 34  1  0
 13 35  1  0
 18 36  1  0
 19 37  1  0
 20 38  1  0
 21 39  1  0
 24 40  1  0
 25 41  1  0
 26 42  1  0
 27 43  1  0
 28 44  1  0
 29 45  1  0
M  END
> <Uni-Dock RESULT> 
ENERGY=   -3.679  LOWER_BOUND=   10.392  UPPER_BOUND=   13.333
INTER + INTRA:          -3.679
INTER:                  -3.679
INTRA:                   0.000
UNBOUND:                 0.000

$$$$

     RDKit          3D

 45 48  0  0  0  0  0  0  0  0999 V2000
   29.2752   13.6837   27.6027 O   0  0  0  0  0  0  0  0  0  0  0  0
   27.2254   12.2399   25.8535 O   0  0  0  0  0  0  0  0  0  0  0  0
   31.8673   15.9821   29.6799 O   0  0  0  0  0  0  0  0  0  0  0  0
   24.3807   10.5743   28.1906 O   0  0  0  0  0  0  0  0  0  0  0  0
   30.0553   14.6784   30.1973 O   0  0  0  0  0  0  0  0  0  0  0  0
   25.0623   12.7103   27.7177 O   0  0  0  0  0  0  0  0  0  0  0  0
   31.0539   12.3716   26.6083 C   0  0  0  0  0  0  0  0  0  0  0  0
   28.9843   10.9175   26.8715 C   0  0  0  0  0  0  0  0  0  0  0  0
   32.4506   12.2178   26.3468 C   0  0  0  0  0  0  0  0  0  0  0  0
   29.3809    9.9068   27.7924 C   0  0  0  0  0  0  0  0  0  0  0  0
   30.6350   13.3657   27.5290 C   0  0  0  0  0  0  0  0  0  0  0  0
   27.6317   11.3406   26.8456 C   0  0  0  0  0  0  0  0  0  0  0  0
   29.9822   11.5409   25.8983 C   0  0  0  0  0  0  0  0  0  0  0  0
   33.3856   12.9463   27.1306 C   0  0  0  0  0  0  0  0  0  0  0  0
   28.4307    9.3831   28.7057 C   0  0  0  0  0  0  0  0  0  0  0  0
   31.5788   14.0500   28.3259 C   0  0  0  0  0  0  0  0  0  0  0  0
   26.7080   10.8387   27.7912 C   0  0  0  0  0  0  0  0  0  0  0  0
   32.9425   13.8310   28.1159 C   0  0  0  0  0  0  0  0  0  0  0  0
   27.1160    9.8550   28.6986 C   0  0  0  0  0  0  0  0  0  0  0  0
   32.9584   11.3823   25.3205 C   0  0  0  0  0  0  0  0  0  0  0  0
   30.6955    9.3872   27.8235 C   0  0  0  0  0  0  0  0  0  0  0  0
   31.1718   14.9641   29.4163 C   0  0  0  0  0  0  0  0  0  0  0  0
   25.3249   11.3543   27.8911 C   0  0  0  0  0  0  0  0  0  0  0  0
   34.7659   12.7850   26.9238 C   0  0  0  0  0  0  0  0  0  0  0  0
   28.8078    8.3931   29.6285 C   0  0  0  0  0  0  0  0  0  0  0  0
   34.3341   11.2394   25.1256 C   0  0  0  0  0  0  0  0  0  0  0  0
   31.0545    8.4022   28.7458 C   0  0  0  0  0  0  0  0  0  0  0  0
   35.2348   11.9304   25.9298 C   0  0  0  0  0  0  0  0  0  0  0  0
   30.1148    7.9089   29.6479 C   0  0  0  0  0  0  0  0  0  0  0  0
   28.9150   14.4970   28.0832 H   0  0  0  0  0  0  0  0  0  0  0  0
   26.2576   12.4480   25.6487 H   0  0  0  0  0  0  0  0  0  0  0  0
   29.7818   15.2898   30.9572 H   0  0  0  0  0  0  0  0  0  0  0  0
   24.1204   13.0731   27.8043 H   0  0  0  0  0  0  0  0  0  0  0  0
   29.4914   12.2010   25.1544 H   0  0  0  0  0  0  0  0  0  0  0  0
   30.3806   10.7009   25.3070 H   0  0  0  0  0  0  0  0  0  0  0  0
   33.6683   14.3565   28.7276 H   0  0  0  0  0  0  0  0  0  0  0  0
   26.4063    9.4674   29.4218 H   0  0  0  0  0  0  0  0  0  0  0  0
   32.3261   10.8492   24.6319 H   0  0  0  0  0  0  0  0  0  0  0  0
   31.4563    9.7192   27.1353 H   0  0  0  0  0  0  0  0  0  0  0  0
   35.4838   13.3279   27.5276 H   0  0  0  0  0  0  0  0  0  0  0  0
   28.0901    7.9920   30.3345 H   0  0  0  0  0  0  0  0  0  0  0  0
   34.7031   10.5937   24.3387 H   0  0  0  0  0  0  0  0  0  0  0  0
   32.0660    8.0169   28.7576 H   0  0  0  0  0  0  0  0  0  0  0  0
   36.2995   11.8147   25.7728 H   0  0  0  0  0  0  0  0  0  0  0  0
   30.3985    7.1451   30.3604 H   0  0  0  0  0  0  0  0  0  0  0  0
  1 11  1  0
  2 12  1  0
  3 22  2  0
  4 23  2  0
  5 22  1  0
  6 23  1  0
  7  9  1  0
  7 11  2  0
  7 13  1  0
  8 10  1  0
  8 12  2  0
  8 13  1  0
  9 14  2  0
  9 20  1  0
 10 15  2  0
 10 21  1  0
 11 16  1  0
 12 17  1  0
 14 18  1  0
 14 24  1  0
 15 19  1  0
 15 25  1  0
 16 18  2  0
 16 22  1  0
 17 19  2  0
 17 23  1  0
 20 26  2  0
 21 27  2  0
 24 28  2  0
 25 29  2  0
 26 28  1  0
 27 29  1  0
  1 30  1  0
  2 31  1  0
  5 32  1  0
  6 33  1  0
 13 34  1  0
 13 35  1  0
 18 36  1  0
 19 37  1  0
 20 38  1  0
 21 39  1  0
 24 40  1  0
 25 41  1  0
 26 42  1  0
 27 43  1  0
 28 44  1  0
 29 45  1  0
M  END
> <Uni-Dock RESULT> 
ENERGY=   -3.607  LOWER_BOUND=    6.413  UPPER_BOUND=   10.109
INTER + INTRA:          -3.607
INTER:                  -3.607
INTRA:                   0.000
UNBOUND:                 0.000

$$$$

     RDKit          3D

 45 48  0  0  0  0  0  0  0  0999 V2000
   28.6417   10.9191   22.1955 O   0  0  0  0  0  0  0  0  0  0  0  0
   28.5037    9.7162   19.3885 O   0  0  0  0  0  0  0  0  0  0  0  0
   28.6531   12.0989   26.0588 O   0  0  0  0  0  0  0  0  0  0  0  0
   32.1961    9.6735   17.7475 O   0  0  0  0  0  0  0  0  0  0  0  0
   30.2325   11.8466   24.4179 O   0  0  0  0  0  0  0  0  0  0  0  0
   31.1912    8.6527   19.5361 O   0  0  0  0  0  0  0  0  0  0  0  0
   26.9772   12.5681   21.5751 C   0  0  0  0  0  0  0  0  0  0  0  0
   28.5076   12.1324   19.5914 C   0  0  0  0  0  0  0  0  0  0  0  0
   26.0008   13.5255   21.9907 C   0  0  0  0  0  0  0  0  0  0  0  0
   29.1562   13.3800   19.3685 C   0  0  0  0  0  0  0  0  0  0  0  0
   27.8586   12.0241   22.5440 C   0  0  0  0  0  0  0  0  0  0  0  0
   29.1931   10.9296   19.2869 C   0  0  0  0  0  0  0  0  0  0  0  0
   27.0818   12.0643   20.1335 C   0  0  0  0  0  0  0  0  0  0  0  0
   26.0444   14.0260   23.3199 C   0  0  0  0  0  0  0  0  0  0  0  0
   30.4951   13.3967   18.9013 C   0  0  0  0  0  0  0  0  0  0  0  0
   27.9130   12.5627   23.8483 C   0  0  0  0  0  0  0  0  0  0  0  0
   30.5415   10.9638   18.8625 C   0  0  0  0  0  0  0  0  0  0  0  0
   27.0045   13.5572   24.2190 C   0  0  0  0  0  0  0  0  0  0  0  0
   31.1697   12.1975   18.6603 C   0  0  0  0  0  0  0  0  0  0  0  0
   24.9656   13.9930   21.1428 C   0  0  0  0  0  0  0  0  0  0  0  0
   28.5067   14.6175   19.5822 C   0  0  0  0  0  0  0  0  0  0  0  0
   28.9361   12.1413   24.8310 C   0  0  0  0  0  0  0  0  0  0  0  0
   31.3374    9.7318   18.6688 C   0  0  0  0  0  0  0  0  0  0  0  0
   25.1230   14.9978   23.7449 C   0  0  0  0  0  0  0  0  0  0  0  0
   31.1539   14.6189   18.6864 C   0  0  0  0  0  0  0  0  0  0  0  0
   24.0544   14.9549   21.5850 C   0  0  0  0  0  0  0  0  0  0  0  0
   29.1746   15.8240   19.3625 C   0  0  0  0  0  0  0  0  0  0  0  0
   24.1381   15.4625   22.8776 C   0  0  0  0  0  0  0  0  0  0  0  0
   30.4952   15.8251   18.9194 C   0  0  0  0  0  0  0  0  0  0  0  0
   29.1480   10.3571   22.8662 H   0  0  0  0  0  0  0  0  0  0  0  0
   28.8513    8.8421   19.0187 H   0  0  0  0  0  0  0  0  0  0  0  0
   30.9428   11.5756   25.0874 H   0  0  0  0  0  0  0  0  0  0  0  0
   31.7471    7.8138   19.4210 H   0  0  0  0  0  0  0  0  0  0  0  0
   26.6701   11.0347   20.1126 H   0  0  0  0  0  0  0  0  0  0  0  0
   26.4660   12.6265   19.4133 H   0  0  0  0  0  0  0  0  0  0  0  0
   27.0455   13.9715   25.2210 H   0  0  0  0  0  0  0  0  0  0  0  0
   32.2031   12.2237   18.3314 H   0  0  0  0  0  0  0  0  0  0  0  0
   24.8100   13.6183   20.1460 H   0  0  0  0  0  0  0  0  0  0  0  0
   27.4798   14.6742   19.9059 H   0  0  0  0  0  0  0  0  0  0  0  0
   25.1599   15.3929   24.7535 H   0  0  0  0  0  0  0  0  0  0  0  0
   32.1791   14.6412   18.3360 H   0  0  0  0  0  0  0  0  0  0  0  0
   23.2725   15.3024   20.9216 H   0  0  0  0  0  0  0  0  0  0  0  0
   28.6633   16.7627   19.5332 H   0  0  0  0  0  0  0  0  0  0  0  0
   23.4284   16.2077   23.2133 H   0  0  0  0  0  0  0  0  0  0  0  0
   31.0079   16.7632   18.7504 H   0  0  0  0  0  0  0  0  0  0  0  0
  1 11  1  0
  2 12  1  0
  3 22  2  0
  4 23  2  0
  5 22  1  0
  6 23  1  0
  7  9  1  0
  7 11  2  0
  7 13  1  0
  8 10  1  0
  8 12  2  0
  8 13  1  0
  9 14  2  0
  9 20  1  0
 10 15  2  0
 10 21  1  0
 11 16  1  0
 12 17  1  0
 14 18  1  0
 14 24  1  0
 15 19  1  0
 15 25  1  0
 16 18  2  0
 16 22  1  0
 17 19  2  0
 17 23  1  0
 20 26  2  0
 21 27  2  0
 24 28  2  0
 25 29  2  0
 26 28  1  0
 27 29  1  0
  1 30  1  0
  2 31  1  0
  5 32  1  0
  6 33  1  0
 13 34  1  0
 13 35  1  0
 18 36  1  0
 19 37  1  0
 20 38  1  0
 21 39  1  0
 24 40  1  0
 25 41  1  0
 26 42  1  0
 27 43  1  0
 28 44  1  0
 29 45  1  0
M  END
> <Uni-Dock RESULT> 
ENERGY=   -3.601  LOWER_BOUND=    9.283  UPPER_BOUND=   12.560
INTER + INTRA:          -3.601
INTER:                  -3.601
INTRA:                   0.000
UNBOUND:                 0.000

$$$$
