
     RDKit          3D

 45 48  0  0  0  0  0  0  0  0999 V2000
   25.5628    6.8727   32.5049 O   0  0  0  0  0  0  0  0  0  0  0  0
   26.0945    9.6237   33.7331 O   0  0  0  0  0  0  0  0  0  0  0  0
   24.8077    3.0835   31.3260 O   0  0  0  0  0  0  0  0  0  0  0  0
   28.9447    9.3038   33.7948 O   0  0  0  0  0  0  0  0  0  0  0  0
   26.5428    4.5603   31.0825 O   0  0  0  0  0  0  0  0  0  0  0  0
   29.8722   10.9909   32.5529 O   0  0  0  0  0  0  0  0  0  0  0  0
   23.5322    7.7183   31.4870 C   0  0  0  0  0  0  0  0  0  0  0  0
   25.3148    9.5315   31.4397 C   0  0  0  0  0  0  0  0  0  0  0  0
   22.2651    7.4382   30.8879 C   0  0  0  0  0  0  0  0  0  0  0  0
   25.5540    9.7508   30.0535 C   0  0  0  0  0  0  0  0  0  0  0  0
   24.4380    6.6488   31.7047 C   0  0  0  0  0  0  0  0  0  0  0  0
   26.3727    9.7177   32.3649 C   0  0  0  0  0  0  0  0  0  0  0  0
   23.9365    9.1194   31.9519 C   0  0  0  0  0  0  0  0  0  0  0  0
   22.0127    6.1353   30.3798 C   0  0  0  0  0  0  0  0  0  0  0  0
   26.8585   10.0944   29.6165 C   0  0  0  0  0  0  0  0  0  0  0  0
   24.1860    5.3715   31.1576 C   0  0  0  0  0  0  0  0  0  0  0  0
   27.6775   10.0183   31.9068 C   0  0  0  0  0  0  0  0  0  0  0  0
   22.9758    5.1318   30.5019 C   0  0  0  0  0  0  0  0  0  0  0  0
   27.8987   10.2186   30.5404 C   0  0  0  0  0  0  0  0  0  0  0  0
   21.2263    8.3976   30.7904 C   0  0  0  0  0  0  0  0  0  0  0  0
   24.5280    9.6535   29.0855 C   0  0  0  0  0  0  0  0  0  0  0  0
   25.1851    4.2813   31.2133 C   0  0  0  0  0  0  0  0  0  0  0  0
   28.8431   10.0904   32.8155 C   0  0  0  0  0  0  0  0  0  0  0  0
   20.7921    5.8417   29.7492 C   0  0  0  0  0  0  0  0  0  0  0  0
   27.1146   10.3036   28.2509 C   0  0  0  0  0  0  0  0  0  0  0  0
   20.0168    8.0856   30.1656 C   0  0  0  0  0  0  0  0  0  0  0  0
   24.7983    9.8659   27.7321 C   0  0  0  0  0  0  0  0  0  0  0  0
   19.8034    6.8158   29.6384 C   0  0  0  0  0  0  0  0  0  0  0  0
   26.0880   10.1866   27.3153 C   0  0  0  0  0  0  0  0  0  0  0  0
   26.1508    6.1333   32.8645 H   0  0  0  0  0  0  0  0  0  0  0  0
   26.7337    9.9191   34.4582 H   0  0  0  0  0  0  0  0  0  0  0  0
   27.2309    3.8172   31.1009 H   0  0  0  0  0  0  0  0  0  0  0  0
   30.6879   11.0375   33.1517 H   0  0  0  0  0  0  0  0  0  0  0  0
   23.8758    9.1304   33.0591 H   0  0  0  0  0  0  0  0  0  0  0  0
   23.2510    9.9179   31.6260 H   0  0  0  0  0  0  0  0  0  0  0  0
   22.7814    4.1507   30.0816 H   0  0  0  0  0  0  0  0  0  0  0  0
   28.8979   10.4536   30.1891 H   0  0  0  0  0  0  0  0  0  0  0  0
   21.2996    9.3858   31.2104 H   0  0  0  0  0  0  0  0  0  0  0  0
   23.5089    9.4276   29.3553 H   0  0  0  0  0  0  0  0  0  0  0  0
   20.5992    4.8536   29.3480 H   0  0  0  0  0  0  0  0  0  0  0  0
   28.1099   10.5599   27.9071 H   0  0  0  0  0  0  0  0  0  0  0  0
   19.2362    8.8327   30.0976 H   0  0  0  0  0  0  0  0  0  0  0  0
   24.0016    9.7853   27.0037 H   0  0  0  0  0  0  0  0  0  0  0  0
   18.8635    6.5811   29.1557 H   0  0  0  0  0  0  0  0  0  0  0  0
   26.2916   10.3505   26.2649 H   0  0  0  0  0  0  0  0  0  0  0  0
  1 11  1  0
  2 12  1  0
  3 22  2  0
  4 23  2  0
  5 22  1  0
  6 23  1  0
  7  9  1  0
  7 11  2  0
  7 13  1  0
  8 10  1  0
  8 12  2  0
  8 13  1  0
  9 14  2  0
  9 20  1  0
 10 15  2  0
 10 21  1  0
 11 16  1  0
 12 17  1  0
 14 18  1  0
 14 24  1  0
 15 19  1  0
 15 25  1  0
 16 18  2  0
 16 22  1  0
 17 19  2  0
 17 23  1  0
 20 26  2  0
 21 27  2  0
 24 28  2  0
 25 29  2  0
 26 28  1  0
 27 29  1  0
  1 30  1  0
  2 31  1  0
  5 32  1  0
  6 33  1  0
 13 34  1  0
 13 35  1  0
 18 36  1  0
 19 37  1  0
 20 38  1  0
 21 39  1  0
 24 40  1  0
 25 41  1  0
 26 42  1  0
 27 43  1  0
 28 44  1  0
 29 45  1  0
M  END
> <Uni-Dock RESULT> 
ENERGY=   -4.266  LOWER_BOUND=    0.000  UPPER_BOUND=    0.000
INTER + INTRA:          -4.266
INTER:                  -4.266
INTRA:                   0.000
UNBOUND:                 0.000

$$$$

     RDKit          3D

 45 48  0  0  0  0  0  0  0  0999 V2000
   25.5565    6.8549   32.5332 O   0  0  0  0  0  0  0  0  0  0  0  0
   26.1184    9.5991   33.7631 O   0  0  0  0  0  0  0  0  0  0  0  0
   24.7605    3.0748   31.3521 O   0  0  0  0  0  0  0  0  0  0  0  0
   28.9652    9.2492   33.8215 O   0  0  0  0  0  0  0  0  0  0  0  0
   26.5107    4.5335   31.1079 O   0  0  0  0  0  0  0  0  0  0  0  0
   29.9090   10.9275   32.5799 O   0  0  0  0  0  0  0  0  0  0  0  0
   23.5338    7.7225   31.5182 C   0  0  0  0  0  0  0  0  0  0  0  0
   25.3353    9.5170   31.4705 C   0  0  0  0  0  0  0  0  0  0  0  0
   22.2633    7.4563   30.9202 C   0  0  0  0  0  0  0  0  0  0  0  0
   25.5754    9.7349   30.0842 C   0  0  0  0  0  0  0  0  0  0  0  0
   24.4286    6.6434   31.7341 C   0  0  0  0  0  0  0  0  0  0  0  0
   26.3962    9.6913   32.3946 C   0  0  0  0  0  0  0  0  0  0  0  0
   23.9534    9.1190   31.9838 C   0  0  0  0  0  0  0  0  0  0  0  0
   21.9966    6.1565   30.4114 C   0  0  0  0  0  0  0  0  0  0  0  0
   26.8830   10.0651   29.6460 C   0  0  0  0  0  0  0  0  0  0  0  0
   24.1627    5.3693   31.1862 C   0  0  0  0  0  0  0  0  0  0  0  0
   27.7036    9.9786   31.9354 C   0  0  0  0  0  0  0  0  0  0  0  0
   22.9493    5.1429   30.5316 C   0  0  0  0  0  0  0  0  0  0  0  0
   27.9253   10.1776   30.5689 C   0  0  0  0  0  0  0  0  0  0  0  0
   21.2345    8.4267   30.8246 C   0  0  0  0  0  0  0  0  0  0  0  0
   24.5474    9.6492   29.1173 C   0  0  0  0  0  0  0  0  0  0  0  0
   25.1503    4.2686   31.2400 C   0  0  0  0  0  0  0  0  0  0  0  0
   28.8709   10.0376   32.8429 C   0  0  0  0  0  0  0  0  0  0  0  0
   20.7724    5.8763   29.7818 C   0  0  0  0  0  0  0  0  0  0  0  0
   27.1397   10.2728   28.2804 C   0  0  0  0  0  0  0  0  0  0  0  0
   20.0211    8.1279   30.2009 C   0  0  0  0  0  0  0  0  0  0  0  0
   24.8184    9.8599   27.7637 C   0  0  0  0  0  0  0  0  0  0  0  0
   19.7938    6.8608   29.6729 C   0  0  0  0  0  0  0  0  0  0  0  0
   26.1110   10.1673   27.3457 C   0  0  0  0  0  0  0  0  0  0  0  0
   26.1372    6.1090   32.8916 H   0  0  0  0  0  0  0  0  0  0  0  0
   26.7615    9.8872   34.4877 H   0  0  0  0  0  0  0  0  0  0  0  0
   27.1910    3.7831   31.1249 H   0  0  0  0  0  0  0  0  0  0  0  0
   30.7259   10.9651   33.1779 H   0  0  0  0  0  0  0  0  0  0  0  0
   23.8940    9.1297   33.0911 H   0  0  0  0  0  0  0  0  0  0  0  0
   23.2759    9.9249   31.6593 H   0  0  0  0  0  0  0  0  0  0  0  0
   22.7441    4.1642   30.1107 H   0  0  0  0  0  0  0  0  0  0  0  0
   28.9266   10.4024   30.2168 H   0  0  0  0  0  0  0  0  0  0  0  0
   21.3187    9.4137   31.2454 H   0  0  0  0  0  0  0  0  0  0  0  0
   23.5262    9.4338   29.3879 H   0  0  0  0  0  0  0  0  0  0  0  0
   20.5686    4.8906   29.3800 H   0  0  0  0  0  0  0  0  0  0  0  0
   28.1374   10.5189   27.9357 H   0  0  0  0  0  0  0  0  0  0  0  0
   19.2483    8.8832   30.1344 H   0  0  0  0  0  0  0  0  0  0  0  0
   24.0201    9.7882   27.0361 H   0  0  0  0  0  0  0  0  0  0  0  0
   18.8510    6.6364   29.1910 H   0  0  0  0  0  0  0  0  0  0  0  0
   26.3152   10.3299   26.2953 H   0  0  0  0  0  0  0  0  0  0  0  0
  1 11  1  0
  2 12  1  0
  3 22  2  0
  4 23  2  0
  5 22  1  0
  6 23  1  0
  7  9  1  0
  7 11  2  0
  7 13  1  0
  8 10  1  0
  8 12  2  0
  8 13  1  0
  9 14  2  0
  9 20  1  0
 10 15  2  0
 10 21  1  0
 11 16  1  0
 12 17  1  0
 14 18  1  0
 14 24  1  0
 15 19  1  0
 15 25  1  0
 16 18  2  0
 16 22  1  0
 17 19  2  0
 17 23  1  0
 20 26  2  0
 21 27  2  0
 24 28  2  0
 25 29  2  0
 26 28  1  0
 27 29  1  0
  1 30  1  0
  2 31  1  0
  5 32  1  0
  6 33  1  0
 13 34  1  0
 13 35  1  0
 18 36  1  0
 19 37  1  0
 20 38  1  0
 21 39  1  0
 24 40  1  0
 25 41  1  0
 26 42  1  0
 27 43  1  0
 28 44  1  0
 29 45  1  0
M  END
> <Uni-Dock RESULT> 
ENERGY=   -4.252  LOWER_BOUND=    0.048  UPPER_BOUND=    0.048
INTER + INTRA:          -4.252
INTER:                  -4.252
INTRA:                   0.000
UNBOUND:                 0.000

$$$$

     RDKit          3D

 45 48  0  0  0  0  0  0  0  0999 V2000
   30.0922   13.7420   22.5332 O   0  0  0  0  0  0  0  0  0  0  0  0
   28.2925   12.5218   24.6853 O   0  0  0  0  0  0  0  0  0  0  0  0
   32.8174   15.3308   20.0099 O   0  0  0  0  0  0  0  0  0  0  0  0
   27.3522   15.0497   25.6627 O   0  0  0  0  0  0  0  0  0  0  0  0
   30.8154   16.0067   20.8965 O   0  0  0  0  0  0  0  0  0  0  0  0
   25.0711   15.0847   25.4520 O   0  0  0  0  0  0  0  0  0  0  0  0
   29.8325   11.7463   21.1827 C   0  0  0  0  0  0  0  0  0  0  0  0
   27.6392   12.2519   22.3665 C   0  0  0  0  0  0  0  0  0  0  0  0
   30.3151   10.9321   20.1117 C   0  0  0  0  0  0  0  0  0  0  0  0
   26.7269   12.5296   21.3094 C   0  0  0  0  0  0  0  0  0  0  0  0
   30.3776   13.0442   21.3554 C   0  0  0  0  0  0  0  0  0  0  0  0
   27.4693   12.8969   23.6176 C   0  0  0  0  0  0  0  0  0  0  0  0
   28.7846   11.2585   22.1862 C   0  0  0  0  0  0  0  0  0  0  0  0
   31.2017   11.4990   19.1567 C   0  0  0  0  0  0  0  0  0  0  0  0
   25.7009   13.4882   21.5069 C   0  0  0  0  0  0  0  0  0  0  0  0
   31.2261   13.6032   20.3747 C   0  0  0  0  0  0  0  0  0  0  0  0
   26.4668   13.8820   23.7830 C   0  0  0  0  0  0  0  0  0  0  0  0
   31.6269   12.8225   19.2876 C   0  0  0  0  0  0  0  0  0  0  0  0
   25.5862   14.1520   22.7305 C   0  0  0  0  0  0  0  0  0  0  0  0
   29.9678    9.5662   19.9609 C   0  0  0  0  0  0  0  0  0  0  0  0
   26.7943   11.8692   20.0610 C   0  0  0  0  0  0  0  0  0  0  0  0
   31.6727   15.0128   20.4325 C   0  0  0  0  0  0  0  0  0  0  0  0
   26.3321   14.6802   25.0216 C   0  0  0  0  0  0  0  0  0  0  0  0
   31.6604   10.7352   18.0705 C   0  0  0  0  0  0  0  0  0  0  0  0
   24.7988   13.7822   20.4706 C   0  0  0  0  0  0  0  0  0  0  0  0
   30.4388    8.8206   18.8779 C   0  0  0  0  0  0  0  0  0  0  0  0
   25.8893   12.1715   19.0415 C   0  0  0  0  0  0  0  0  0  0  0  0
   31.2742    9.4048   17.9309 C   0  0  0  0  0  0  0  0  0  0  0  0
   24.8967   13.1274   19.2440 C   0  0  0  0  0  0  0  0  0  0  0  0
   30.5819   14.5779   22.8220 H   0  0  0  0  0  0  0  0  0  0  0  0
   28.1242   12.7890   25.6454 H   0  0  0  0  0  0  0  0  0  0  0  0
   31.1079   16.9763   20.9213 H   0  0  0  0  0  0  0  0  0  0  0  0
   24.9626   15.6507   26.2850 H   0  0  0  0  0  0  0  0  0  0  0  0
   29.3129   11.0443   23.1374 H   0  0  0  0  0  0  0  0  0  0  0  0
   28.3063   10.3050   21.9108 H   0  0  0  0  0  0  0  0  0  0  0  0
   32.2790   13.2512   18.5338 H   0  0  0  0  0  0  0  0  0  0  0  0
   24.8146   14.9039   22.8584 H   0  0  0  0  0  0  0  0  0  0  0  0
   29.3618    9.0333   20.6731 H   0  0  0  0  0  0  0  0  0  0  0  0
   27.5297   11.1075   19.8575 H   0  0  0  0  0  0  0  0  0  0  0  0
   32.3261   11.1662   17.3317 H   0  0  0  0  0  0  0  0  0  0  0  0
   24.0157   14.5183   20.6104 H   0  0  0  0  0  0  0  0  0  0  0  0
   30.1600    7.7793   18.7776 H   0  0  0  0  0  0  0  0  0  0  0  0
   25.9562   11.6582   18.0908 H   0  0  0  0  0  0  0  0  0  0  0  0
   31.6355    8.8208   17.0942 H   0  0  0  0  0  0  0  0  0  0  0  0
   24.1976   13.3575   18.4503 H   0  0  0  0  0  0  0  0  0  0  0  0
  1 11  1  0
  2 12  1  0
  3 22  2  0
  4 23  2  0
  5 22  1  0
  6 23  1  0
  7  9  1  0
  7 11  2  0
  7 13  1  0
  8 10  1  0
  8 12  2  0
  8 13  1  0
  9 14  2  0
  9 20  1  0
 10 15  2  0
 10 21  1  0
 11 16  1  0
 12 17  1  0
 14 18  1  0
 14 24  1  0
 15 19  1  0
 15 25  1  0
 16 18  2  0
 16 22  1  0
 17 19  2  0
 17 23  1  0
 20 26  2  0
 21 27  2  0
 24 28  2  0
 25 29  2  0
 26 28  1  0
 27 29  1  0
  1 30  1  0
  2 31  1  0
  5 32  1  0
  6 33  1  0
 13 34  1  0
 13 35  1  0
 18 36  1  0
 19 37  1  0
 20 38  1  0
 21 39  1  0
 24 40  1  0
 25 41  1  0
 26 42  1  0
 27 43  1  0
 28 44  1  0
 29 45  1  0
M  END
> <Uni-Dock RESULT> 
ENERGY=   -4.245  LOWER_BOUND=    9.403  UPPER_BOUND=   12.634
INTER + INTRA:          -4.245
INTER:                  -4.245
INTRA:                   0.000
UNBOUND:                 0.000

$$$$

     RDKit          3D

 45 48  0  0  0  0  0  0  0  0999 V2000
   30.0765   13.7733   22.5356 O   0  0  0  0  0  0  0  0  0  0  0  0
   28.2801   12.5663   24.6979 O   0  0  0  0  0  0  0  0  0  0  0  0
   32.7975   15.3481   19.9991 O   0  0  0  0  0  0  0  0  0  0  0  0
   27.3337   15.0999   25.6547 O   0  0  0  0  0  0  0  0  0  0  0  0
   30.7941   16.0263   20.8804 O   0  0  0  0  0  0  0  0  0  0  0  0
   25.0525   15.1275   25.4440 O   0  0  0  0  0  0  0  0  0  0  0  0
   29.8216   11.7659   21.2015 C   0  0  0  0  0  0  0  0  0  0  0  0
   27.6272   12.2759   22.3815 C   0  0  0  0  0  0  0  0  0  0  0  0
   30.3061   10.9443   20.1371 C   0  0  0  0  0  0  0  0  0  0  0  0
   26.7141   12.5426   21.3222 C   0  0  0  0  0  0  0  0  0  0  0  0
   30.3636   13.0666   21.3635 C   0  0  0  0  0  0  0  0  0  0  0  0
   27.4558   12.9306   23.6272 C   0  0  0  0  0  0  0  0  0  0  0  0
   28.7750   11.2838   22.2091 C   0  0  0  0  0  0  0  0  0  0  0  0
   31.1912   11.5055   19.1774 C   0  0  0  0  0  0  0  0  0  0  0  0
   25.6858   13.5003   21.5121 C   0  0  0  0  0  0  0  0  0  0  0  0
   31.2105   13.6197   20.3781 C   0  0  0  0  0  0  0  0  0  0  0  0
   26.4510   13.9146   23.7847 C   0  0  0  0  0  0  0  0  0  0  0  0
   31.6132   12.8310   19.2974 C   0  0  0  0  0  0  0  0  0  0  0  0
   25.5696   14.1739   22.7301 C   0  0  0  0  0  0  0  0  0  0  0  0
   29.9621    9.5763   19.9976 C   0  0  0  0  0  0  0  0  0  0  0  0
   26.7830   11.8723   20.0793 C   0  0  0  0  0  0  0  0  0  0  0  0
   31.6537   15.0308   20.4244 C   0  0  0  0  0  0  0  0  0  0  0  0
   26.3145   14.7226   25.0168 C   0  0  0  0  0  0  0  0  0  0  0  0
   31.6516   10.7339   18.0975 C   0  0  0  0  0  0  0  0  0  0  0  0
   24.7828   13.7836   20.4735 C   0  0  0  0  0  0  0  0  0  0  0  0
   30.4349    8.8231   18.9206 C   0  0  0  0  0  0  0  0  0  0  0  0
   25.8771   12.1640   19.0574 C   0  0  0  0  0  0  0  0  0  0  0  0
   31.2687    9.4015   17.9688 C   0  0  0  0  0  0  0  0  0  0  0  0
   24.8822   13.1191   19.2523 C   0  0  0  0  0  0  0  0  0  0  0  0
   30.5642   14.6127   22.8175 H   0  0  0  0  0  0  0  0  0  0  0  0
   28.1113   12.8410   25.6558 H   0  0  0  0  0  0  0  0  0  0  0  0
   31.0841   16.9968   20.8972 H   0  0  0  0  0  0  0  0  0  0  0  0
   24.9428   15.7000   26.2724 H   0  0  0  0  0  0  0  0  0  0  0  0
   29.3039   11.0787   23.1620 H   0  0  0  0  0  0  0  0  0  0  0  0
   28.2990   10.3270   21.9416 H   0  0  0  0  0  0  0  0  0  0  0  0
   32.2641   13.2551   18.5401 H   0  0  0  0  0  0  0  0  0  0  0  0
   24.7962   14.9249   22.8520 H   0  0  0  0  0  0  0  0  0  0  0  0
   29.3575    9.0477   20.7142 H   0  0  0  0  0  0  0  0  0  0  0  0
   27.5203   11.1107   19.8819 H   0  0  0  0  0  0  0  0  0  0  0  0
   32.3162   11.1605   17.3551 H   0  0  0  0  0  0  0  0  0  0  0  0
   23.9979   14.5189   20.6074 H   0  0  0  0  0  0  0  0  0  0  0  0
   30.1586    7.7803   18.8290 H   0  0  0  0  0  0  0  0  0  0  0  0
   25.9452   11.6431   18.1109 H   0  0  0  0  0  0  0  0  0  0  0  0
   31.6313    8.8116   17.1369 H   0  0  0  0  0  0  0  0  0  0  0  0
   24.1825   13.3410   18.4568 H   0  0  0  0  0  0  0  0  0  0  0  0
  1 11  1  0
  2 12  1  0
  3 22  2  0
  4 23  2  0
  5 22  1  0
  6 23  1  0
  7  9  1  0
  7 11  2  0
  7 13  1  0
  8 10  1  0
  8 12  2  0
  8 13  1  0
  9 14  2  0
  9 20  1  0
 10 15  2  0
 10 21  1  0
 11 16  1  0
 12 17  1  0
 14 18  1  0
 14 24  1  0
 15 19  1  0
 15 25  1  0
 16 18  2  0
 16 22  1  0
 17 19  2  0
 17 23  1  0
 20 26  2  0
 21 27  2  0
 24 28  2  0
 25 29  2  0
 26 28  1  0
 27 29  1  0
  1 30  1  0
  2 31  1  0
  5 32  1  0
  6 33  1  0
 13 34  1  0
 13 35  1  0
 18 36  1  0
 19 37  1  0
 20 38  1  0
 21 39  1  0
 24 40  1  0
 25 41  1  0
 26 42  1  0
 27 43  1  0
 28 44  1  0
 29 45  1  0
M  END
> <Uni-Dock RESULT> 
ENERGY=   -4.244  LOWER_BOUND=    9.424  UPPER_BOUND=   12.629
INTER + INTRA:          -4.244
INTER:                  -4.244
INTRA:                   0.000
UNBOUND:                 0.000

$$$$

     RDKit          3D

 45 48  0  0  0  0  0  0  0  0999 V2000
   31.1921    5.5696   29.0246 O   0  0  0  0  0  0  0  0  0  0  0  0
   33.0240    7.8985   29.7863 O   0  0  0  0  0  0  0  0  0  0  0  0
   29.1254    2.2097   28.1545 O   0  0  0  0  0  0  0  0  0  0  0  0
   34.0957    8.2244   27.1453 O   0  0  0  0  0  0  0  0  0  0  0  0
   29.8374    4.0452   26.9822 O   0  0  0  0  0  0  0  0  0  0  0  0
   33.6372   10.3605   26.4554 O   0  0  0  0  0  0  0  0  0  0  0  0
   29.6616    6.1919   30.7981 C   0  0  0  0  0  0  0  0  0  0  0  0
   30.6328    8.2951   29.7488 C   0  0  0  0  0  0  0  0  0  0  0  0
   28.5874    5.8178   31.6634 C   0  0  0  0  0  0  0  0  0  0  0  0
   29.5075    8.9509   29.1738 C   0  0  0  0  0  0  0  0  0  0  0  0
   29.9998    5.3375   29.7176 C   0  0  0  0  0  0  0  0  0  0  0  0
   31.9061    8.4412   29.1427 C   0  0  0  0  0  0  0  0  0  0  0  0
   30.4994    7.4542   31.0163 C   0  0  0  0  0  0  0  0  0  0  0  0
   27.7863    4.6935   31.3260 C   0  0  0  0  0  0  0  0  0  0  0  0
   29.6684    9.6898   27.9743 C   0  0  0  0  0  0  0  0  0  0  0  0
   29.1684    4.2484   29.3757 C   0  0  0  0  0  0  0  0  0  0  0  0
   32.0399    9.1463   27.9230 C   0  0  0  0  0  0  0  0  0  0  0  0
   28.0719    3.9410   30.1851 C   0  0  0  0  0  0  0  0  0  0  0  0
   30.9221    9.7746   27.3645 C   0  0  0  0  0  0  0  0  0  0  0  0
   28.2873    6.5052   32.8661 C   0  0  0  0  0  0  0  0  0  0  0  0
   28.2243    8.9070   29.7657 C   0  0  0  0  0  0  0  0  0  0  0  0
   29.3910    3.4422   28.1549 C   0  0  0  0  0  0  0  0  0  0  0  0
   33.3174    9.2150   27.1795 C   0  0  0  0  0  0  0  0  0  0  0  0
   26.6985    4.3264   32.1356 C   0  0  0  0  0  0  0  0  0  0  0  0
   28.5663   10.3341   27.3875 C   0  0  0  0  0  0  0  0  0  0  0  0
   27.2055    6.1217   33.6618 C   0  0  0  0  0  0  0  0  0  0  0  0
   27.1391    9.5540   29.1708 C   0  0  0  0  0  0  0  0  0  0  0  0
   26.4081    5.0426   33.2938 C   0  0  0  0  0  0  0  0  0  0  0  0
   27.3084   10.2625   27.9837 C   0  0  0  0  0  0  0  0  0  0  0  0
   31.6010    4.9103   28.3766 H   0  0  0  0  0  0  0  0  0  0  0  0
   33.9782    8.1094   29.5286 H   0  0  0  0  0  0  0  0  0  0  0  0
   29.9741    3.5029   26.1376 H   0  0  0  0  0  0  0  0  0  0  0  0
   34.4969   10.4158   25.9223 H   0  0  0  0  0  0  0  0  0  0  0  0
   31.4824    7.1331   31.4166 H   0  0  0  0  0  0  0  0  0  0  0  0
   30.0953    8.1368   31.7808 H   0  0  0  0  0  0  0  0  0  0  0  0
   27.4328    3.1042   29.9232 H   0  0  0  0  0  0  0  0  0  0  0  0
   31.0252   10.3191   26.4318 H   0  0  0  0  0  0  0  0  0  0  0  0
   28.8817    7.3214   33.2388 H   0  0  0  0  0  0  0  0  0  0  0  0
   28.0416    8.3899   30.6939 H   0  0  0  0  0  0  0  0  0  0  0  0
   26.0760    3.4779   31.8761 H   0  0  0  0  0  0  0  0  0  0  0  0
   28.6785   10.8955   26.4672 H   0  0  0  0  0  0  0  0  0  0  0  0
   26.9897    6.6611   34.5754 H   0  0  0  0  0  0  0  0  0  0  0  0
   26.1627    9.5086   29.6361 H   0  0  0  0  0  0  0  0  0  0  0  0
   25.5714    4.7510   33.9154 H   0  0  0  0  0  0  0  0  0  0  0  0
   26.4638   10.7623   27.5272 H   0  0  0  0  0  0  0  0  0  0  0  0
  1 11  1  0
  2 12  1  0
  3 22  2  0
  4 23  2  0
  5 22  1  0
  6 23  1  0
  7  9  1  0
  7 11  2  0
  7 13  1  0
  8 10  1  0
  8 12  2  0
  8 13  1  0
  9 14  2  0
  9 20  1  0
 10 15  2  0
 10 21  1  0
 11 16  1  0
 12 17  1  0
 14 18  1  0
 14 24  1  0
 15 19  1  0
 15 25  1  0
 16 18  2  0
 16 22  1  0
 17 19  2  0
 17 23  1  0
 20 26  2  0
 21 27  2  0
 24 28  2  0
 25 29  2  0
 26 28  1  0
 27 29  1  0
  1 30  1  0
  2 31  1  0
  5 32  1  0
  6 33  1  0
 13 34  1  0
 13 35  1  0
 18 36  1  0
 19 37  1  0
 20 38  1  0
 21 39  1  0
 24 40  1  0
 25 41  1  0
 26 42  1  0
 27 43  1  0
 28 44  1  0
 29 45  1  0
M  END
> <Uni-Dock RESULT> 
ENERGY=   -4.145  LOWER_BOUND=    4.577  UPPER_BOUND=    6.009
INTER + INTRA:          -4.145
INTER:                  -4.145
INTRA:                   0.000
UNBOUND:                 0.000

$$$$

     RDKit          3D

 45 48  0  0  0  0  0  0  0  0999 V2000
   26.9178   11.3697   19.9275 O   0  0  0  0  0  0  0  0  0  0  0  0
   29.0423    9.3387   20.7763 O   0  0  0  0  0  0  0  0  0  0  0  0
   23.8086   13.6894   18.8004 O   0  0  0  0  0  0  0  0  0  0  0  0
   29.9534    8.8253   18.1049 O   0  0  0  0  0  0  0  0  0  0  0  0
   25.8650   13.1706   17.9327 O   0  0  0  0  0  0  0  0  0  0  0  0
   32.1837    9.3407   18.0077 O   0  0  0  0  0  0  0  0  0  0  0  0
   27.1174   12.4774   22.0741 C   0  0  0  0  0  0  0  0  0  0  0  0
   29.4107   11.6703   21.3277 C   0  0  0  0  0  0  0  0  0  0  0  0
   26.5500   13.3620   23.0428 C   0  0  0  0  0  0  0  0  0  0  0  0
   30.1642   12.8662   21.1579 C   0  0  0  0  0  0  0  0  0  0  0  0
   26.5255   12.4004   20.7874 C   0  0  0  0  0  0  0  0  0  0  0  0
   29.7008   10.5455   20.5149 C   0  0  0  0  0  0  0  0  0  0  0  0
   28.3101   11.5684   22.3812 C   0  0  0  0  0  0  0  0  0  0  0  0
   25.5187   14.2548   22.6445 C   0  0  0  0  0  0  0  0  0  0  0  0
   31.1508   12.9308   20.1413 C   0  0  0  0  0  0  0  0  0  0  0  0
   25.5291   13.3226   20.3989 C   0  0  0  0  0  0  0  0  0  0  0  0
   30.6584   10.6420   19.4774 C   0  0  0  0  0  0  0  0  0  0  0  0
   25.0388   14.2382   21.3334 C   0  0  0  0  0  0  0  0  0  0  0  0
   31.3816   11.8281   19.3157 C   0  0  0  0  0  0  0  0  0  0  0  0
   26.9526   13.3824   24.4017 C   0  0  0  0  0  0  0  0  0  0  0  0
   29.9769   14.0001   21.9814 C   0  0  0  0  0  0  0  0  0  0  0  0
   25.0138   13.3859   19.0131 C   0  0  0  0  0  0  0  0  0  0  0  0
   30.9034    9.5442   18.5159 C   0  0  0  0  0  0  0  0  0  0  0  0
   24.9702   15.1640   23.5644 C   0  0  0  0  0  0  0  0  0  0  0  0
   31.8960   14.1069   19.9529 C   0  0  0  0  0  0  0  0  0  0  0  0
   26.3913   14.2891   25.3036 C   0  0  0  0  0  0  0  0  0  0  0  0
   30.7266   15.1612   21.7824 C   0  0  0  0  0  0  0  0  0  0  0  0
   25.4107   15.1831   24.8851 C   0  0  0  0  0  0  0  0  0  0  0  0
   31.6808   15.2161   20.7693 C   0  0  0  0  0  0  0  0  0  0  0  0
   26.4218   11.1272   19.0807 H   0  0  0  0  0  0  0  0  0  0  0  0
   29.3155    8.4514   20.3765 H   0  0  0  0  0  0  0  0  0  0  0  0
   25.5234   13.2309   16.9810 H   0  0  0  0  0  0  0  0  0  0  0  0
   32.3645    8.6084   17.3314 H   0  0  0  0  0  0  0  0  0  0  0  0
   27.9198   10.5359   22.4870 H   0  0  0  0  0  0  0  0  0  0  0  0
   28.8031   11.7813   23.3431 H   0  0  0  0  0  0  0  0  0  0  0  0
   24.2731   14.9468   21.0357 H   0  0  0  0  0  0  0  0  0  0  0  0
   32.1192   11.9009   18.5234 H   0  0  0  0  0  0  0  0  0  0  0  0
   27.6734   12.6952   24.8100 H   0  0  0  0  0  0  0  0  0  0  0  0
   29.2661   14.0051   22.7922 H   0  0  0  0  0  0  0  0  0  0  0  0
   24.1927   15.8564   23.2629 H   0  0  0  0  0  0  0  0  0  0  0  0
   32.6473   14.1676   19.1742 H   0  0  0  0  0  0  0  0  0  0  0  0
   26.7140   14.2921   26.3370 H   0  0  0  0  0  0  0  0  0  0  0  0
   30.5691   16.0213   22.4206 H   0  0  0  0  0  0  0  0  0  0  0  0
   24.9801   15.8829   25.5896 H   0  0  0  0  0  0  0  0  0  0  0  0
   32.2593   16.1186   20.6198 H   0  0  0  0  0  0  0  0  0  0  0  0
  1 11  1  0
  2 12  1  0
  3 22  2  0
  4 23  2  0
  5 22  1  0
  6 23  1  0
  7  9  1  0
  7 11  2  0
  7 13  1  0
  8 10  1  0
  8 12  2  0
  8 13  1  0
  9 14  2  0
  9 20  1  0
 10 15  2  0
 10 21  1  0
 11 16  1  0
 12 17  1  0
 14 18  1  0
 14 24  1  0
 15 19  1  0
 15 25  1  0
 16 18  2  0
 16 22  1  0
 17 19  2  0
 17 23  1  0
 20 26  2  0
 21 27  2  0
 24 28  2  0
 25 29  2  0
 26 28  1  0
 27 29  1  0
  1 30  1  0
  2 31  1  0
  5 32  1  0
  6 33  1  0
 13 34  1  0
 13 35  1  0
 18 36  1  0
 19 37  1  0
 20 38  1  0
 21 39  1  0
 24 40  1  0
 25 41  1  0
 26 42  1  0
 27 43  1  0
 28 44  1  0
 29 45  1  0
M  END
> <Uni-Dock RESULT> 
ENERGY=   -3.889  LOWER_BOUND=    9.725  UPPER_BOUND=   12.405
INTER + INTRA:          -3.889
INTER:                  -3.889
INTRA:                   0.000
UNBOUND:                 0.000

$$$$

     RDKit          3D

 45 48  0  0  0  0  0  0  0  0999 V2000
   30.2663   13.3142   28.1317 O   0  0  0  0  0  0  0  0  0  0  0  0
   31.4350   12.7578   25.3598 O   0  0  0  0  0  0  0  0  0  0  0  0
   28.6353   14.4867   31.6364 O   0  0  0  0  0  0  0  0  0  0  0  0
   34.1289   13.3973   26.1107 O   0  0  0  0  0  0  0  0  0  0  0  0
   30.6699   13.6724   30.9672 O   0  0  0  0  0  0  0  0  0  0  0  0
   35.4272   11.5489   25.7270 O   0  0  0  0  0  0  0  0  0  0  0  0
   28.4917   11.7195   27.7050 C   0  0  0  0  0  0  0  0  0  0  0  0
   30.6523   10.8714   26.6657 C   0  0  0  0  0  0  0  0  0  0  0  0
   27.1935   11.2264   28.0431 C   0  0  0  0  0  0  0  0  0  0  0  0
   30.9347    9.6706   27.3765 C   0  0  0  0  0  0  0  0  0  0  0  0
   29.1194   12.6479   28.5745 C   0  0  0  0  0  0  0  0  0  0  0  0
   31.7257   11.6501   26.1642 C   0  0  0  0  0  0  0  0  0  0  0  0
   29.2165   11.3267   26.4153 C   0  0  0  0  0  0  0  0  0  0  0  0
   26.6395   11.5486   29.3114 C   0  0  0  0  0  0  0  0  0  0  0  0
   32.2828    9.3050   27.6207 C   0  0  0  0  0  0  0  0  0  0  0  0
   28.5718   12.9240   29.8465 C   0  0  0  0  0  0  0  0  0  0  0  0
   33.0639   11.2929   26.4545 C   0  0  0  0  0  0  0  0  0  0  0  0
   27.3383   12.3701   30.1982 C   0  0  0  0  0  0  0  0  0  0  0  0
   33.3241   10.1165   27.1647 C   0  0  0  0  0  0  0  0  0  0  0  0
   26.4108   10.4397   27.1613 C   0  0  0  0  0  0  0  0  0  0  0  0
   29.9134    8.8102   27.8408 C   0  0  0  0  0  0  0  0  0  0  0  0
   29.2850   13.7484   30.8473 C   0  0  0  0  0  0  0  0  0  0  0  0
   34.2148   12.1406   26.0719 C   0  0  0  0  0  0  0  0  0  0  0  0
   25.3832   11.0448   29.6878 C   0  0  0  0  0  0  0  0  0  0  0  0
   32.5791    8.1288   28.3300 C   0  0  0  0  0  0  0  0  0  0  0  0
   25.1609    9.9529   27.5505 C   0  0  0  0  0  0  0  0  0  0  0  0
   30.2242    7.6439   28.5430 C   0  0  0  0  0  0  0  0  0  0  0  0
   24.6526   10.2460   28.8121 C   0  0  0  0  0  0  0  0  0  0  0  0
   31.5526    7.3057   28.7901 C   0  0  0  0  0  0  0  0  0  0  0  0
   30.6634   14.1174   28.5996 H   0  0  0  0  0  0  0  0  0  0  0  0
   32.1270   13.2536   24.8149 H   0  0  0  0  0  0  0  0  0  0  0  0
   31.1629   14.2197   31.6625 H   0  0  0  0  0  0  0  0  0  0  0  0
   36.2317   12.1147   25.4846 H   0  0  0  0  0  0  0  0  0  0  0  0
   29.1617   12.1953   25.7280 H   0  0  0  0  0  0  0  0  0  0  0  0
   28.7386   10.5020   25.8629 H   0  0  0  0  0  0  0  0  0  0  0  0
   26.9169   12.5820   31.1752 H   0  0  0  0  0  0  0  0  0  0  0  0
   34.3501    9.8398   27.3835 H   0  0  0  0  0  0  0  0  0  0  0  0
   26.7162   10.2063   26.1560 H   0  0  0  0  0  0  0  0  0  0  0  0
   28.8701    9.0137   27.6603 H   0  0  0  0  0  0  0  0  0  0  0  0
   24.9616   11.2763   30.6590 H   0  0  0  0  0  0  0  0  0  0  0  0
   33.6063    7.8450   28.5271 H   0  0  0  0  0  0  0  0  0  0  0  0
   24.5789    9.3507   26.8644 H   0  0  0  0  0  0  0  0  0  0  0  0
   29.4300    6.9972   28.8936 H   0  0  0  0  0  0  0  0  0  0  0  0
   23.6832    9.8654   29.1069 H   0  0  0  0  0  0  0  0  0  0  0  0
   31.7877    6.4003   29.3346 H   0  0  0  0  0  0  0  0  0  0  0  0
  1 11  1  0
  2 12  1  0
  3 22  2  0
  4 23  2  0
  5 22  1  0
  6 23  1  0
  7  9  1  0
  7 11  2  0
  7 13  1  0
  8 10  1  0
  8 12  2  0
  8 13  1  0
  9 14  2  0
  9 20  1  0
 10 15  2  0
 10 21  1  0
 11 16  1  0
 12 17  1  0
 14 18  1  0
 14 24  1  0
 15 19  1  0
 15 25  1  0
 16 18  2  0
 16 22  1  0
 17 19  2  0
 17 23  1  0
 20 26  2  0
 21 27  2  0
 24 28  2  0
 25 29  2  0
 26 28  1  0
 27 29  1  0
  1 30  1  0
  2 31  1  0
  5 32  1  0
  6 33  1  0
 13 34  1  0
 13 35  1  0
 18 36  1  0
 19 37  1  0
 20 38  1  0
 21 39  1  0
 24 40  1  0
 25 41  1  0
 26 42  1  0
 27 43  1  0
 28 44  1  0
 29 45  1  0
M  END
> <Uni-Dock RESULT> 
ENERGY=   -3.801  LOWER_BOUND=    5.079  UPPER_BOUND=    7.960
INTER + INTRA:          -3.801
INTER:                  -3.801
INTRA:                   0.000
UNBOUND:                 0.000

$$$$

     RDKit          3D

 45 48  0  0  0  0  0  0  0  0999 V2000
   30.0524   11.3117   29.9201 O   0  0  0  0  0  0  0  0  0  0  0  0
   28.5404    8.7732   29.1269 O   0  0  0  0  0  0  0  0  0  0  0  0
   32.1813   14.4297   31.3565 O   0  0  0  0  0  0  0  0  0  0  0  0
   26.0544    9.6111   30.2876 O   0  0  0  0  0  0  0  0  0  0  0  0
   29.9947   14.0679   30.7748 O   0  0  0  0  0  0  0  0  0  0  0  0
   24.4762    9.6482   28.6272 O   0  0  0  0  0  0  0  0  0  0  0  0
   31.5316   11.0253   28.0216 C   0  0  0  0  0  0  0  0  0  0  0  0
   29.1784   10.3154   27.3688 C   0  0  0  0  0  0  0  0  0  0  0  0
   32.7750   11.3406   27.3910 C   0  0  0  0  0  0  0  0  0  0  0  0
   28.8035   11.2392   26.3525 C   0  0  0  0  0  0  0  0  0  0  0  0
   31.1331   11.7708   29.1605 C   0  0  0  0  0  0  0  0  0  0  0  0
   28.1801    9.7739   28.2174 C   0  0  0  0  0  0  0  0  0  0  0  0
   30.6310    9.8810   27.5501 C   0  0  0  0  0  0  0  0  0  0  0  0
   33.4953   12.4891   27.8170 C   0  0  0  0  0  0  0  0  0  0  0  0
   27.4493   11.6456   26.2440 C   0  0  0  0  0  0  0  0  0  0  0  0
   31.8409   12.9313   29.5430 C   0  0  0  0  0  0  0  0  0  0  0  0
   26.8415   10.2233   28.1228 C   0  0  0  0  0  0  0  0  0  0  0  0
   33.0134   13.2752   28.8655 C   0  0  0  0  0  0  0  0  0  0  0  0
   26.4918   11.1407   27.1267 C   0  0  0  0  0  0  0  0  0  0  0  0
   33.3449   10.5470   26.3641 C   0  0  0  0  0  0  0  0  0  0  0  0
   29.7352   11.7623   25.4266 C   0  0  0  0  0  0  0  0  0  0  0  0
   31.3570   13.8300   30.6144 C   0  0  0  0  0  0  0  0  0  0  0  0
   25.7887    9.7928   29.0692 C   0  0  0  0  0  0  0  0  0  0  0  0
   34.6997   12.8470   27.1885 C   0  0  0  0  0  0  0  0  0  0  0  0
   27.0640   12.5648   25.2537 C   0  0  0  0  0  0  0  0  0  0  0  0
   34.5468   10.9151   25.7553 C   0  0  0  0  0  0  0  0  0  0  0  0
   29.3363   12.6740   24.4470 C   0  0  0  0  0  0  0  0  0  0  0  0
   35.2172   12.0655   26.1589 C   0  0  0  0  0  0  0  0  0  0  0  0
   28.0057   13.0769   24.3627 C   0  0  0  0  0  0  0  0  0  0  0  0
   29.8223   11.6659   30.8385 H   0  0  0  0  0  0  0  0  0  0  0  0
   27.8733    8.2074   29.6334 H   0  0  0  0  0  0  0  0  0  0  0  0
   29.6573   14.6965   31.4940 H   0  0  0  0  0  0  0  0  0  0  0  0
   23.7390    9.3764   29.2666 H   0  0  0  0  0  0  0  0  0  0  0  0
   30.7373    9.0542   28.2815 H   0  0  0  0  0  0  0  0  0  0  0  0
   30.9289    9.4411   26.5851 H   0  0  0  0  0  0  0  0  0  0  0  0
   33.5579   14.1665   29.1589 H   0  0  0  0  0  0  0  0  0  0  0  0
   25.4648   11.4820   27.0508 H   0  0  0  0  0  0  0  0  0  0  0  0
   32.9086    9.6226   26.0272 H   0  0  0  0  0  0  0  0  0  0  0  0
   30.7729   11.4695   25.4343 H   0  0  0  0  0  0  0  0  0  0  0  0
   35.2466   13.7293   27.5002 H   0  0  0  0  0  0  0  0  0  0  0  0
   26.0326   12.8862   25.1677 H   0  0  0  0  0  0  0  0  0  0  0  0
   34.9650   10.2981   24.9701 H   0  0  0  0  0  0  0  0  0  0  0  0
   30.0630   13.0665   23.7472 H   0  0  0  0  0  0  0  0  0  0  0  0
   36.1483   12.3446   25.6826 H   0  0  0  0  0  0  0  0  0  0  0  0
   27.7021   13.7837   23.6012 H   0  0  0  0  0  0  0  0  0  0  0  0
  1 11  1  0
  2 12  1  0
  3 22  2  0
  4 23  2  0
  5 22  1  0
  6 23  1  0
  7  9  1  0
  7 11  2  0
  7 13  1  0
  8 10  1  0
  8 12  2  0
  8 13  1  0
  9 14  2  0
  9 20  1  0
 10 15  2  0
 10 21  1  0
 11 16  1  0
 12 17  1  0
 14 18  1  0
 14 24  1  0
 15 19  1  0
 15 25  1  0
 16 18  2  0
 16 22  1  0
 17 19  2  0
 17 23  1  0
 20 26  2  0
 21 27  2  0
 24 28  2  0
 25 29  2  0
 26 28  1  0
 27 29  1  0
  1 30  1  0
  2 31  1  0
  5 32  1  0
  6 33  1  0
 13 34  1  0
 13 35  1  0
 18 36  1  0
 19 37  1  0
 20 38  1  0
 21 39  1  0
 24 40  1  0
 25 41  1  0
 26 42  1  0
 27 43  1  0
 28 44  1  0
 29 45  1  0
M  END
> <Uni-Dock RESULT> 
ENERGY=   -3.782  LOWER_BOUND=    4.705  UPPER_BOUND=    9.454
INTER + INTRA:          -3.782
INTER:                  -3.782
INTRA:                   0.000
UNBOUND:                 0.000

$$$$

     RDKit          3D

 45 48  0  0  0  0  0  0  0  0999 V2000
   32.5672   13.3235   23.4134 O   0  0  0  0  0  0  0  0  0  0  0  0
   31.6955   15.2650   21.2157 O   0  0  0  0  0  0  0  0  0  0  0  0
   33.9082   11.1345   26.5323 O   0  0  0  0  0  0  0  0  0  0  0  0
   34.0185   14.8328   19.5889 O   0  0  0  0  0  0  0  0  0  0  0  0
   34.2383   11.1296   24.2648 O   0  0  0  0  0  0  0  0  0  0  0  0
   33.3184   14.0658   17.5468 O   0  0  0  0  0  0  0  0  0  0  0  0
   30.2449   12.9089   23.9700 C   0  0  0  0  0  0  0  0  0  0  0  0
   30.4696   13.1871   21.4521 C   0  0  0  0  0  0  0  0  0  0  0  0
   29.2891   12.4316   24.9194 C   0  0  0  0  0  0  0  0  0  0  0  0
   30.0912   11.9199   20.9249 C   0  0  0  0  0  0  0  0  0  0  0  0
   31.6217   12.6553   24.1978 C   0  0  0  0  0  0  0  0  0  0  0  0
   31.4263   13.9701   20.7582 C   0  0  0  0  0  0  0  0  0  0  0  0
   29.8507   13.7284   22.7388 C   0  0  0  0  0  0  0  0  0  0  0  0
   29.7241   11.5814   25.9717 C   0  0  0  0  0  0  0  0  0  0  0  0
   30.7194   11.4379   19.7485 C   0  0  0  0  0  0  0  0  0  0  0  0
   32.0298   11.7763   25.2250 C   0  0  0  0  0  0  0  0  0  0  0  0
   32.0739   13.4549   19.6102 C   0  0  0  0  0  0  0  0  0  0  0  0
   31.0747   11.2507   26.0987 C   0  0  0  0  0  0  0  0  0  0  0  0
   31.6995   12.2028   19.1120 C   0  0  0  0  0  0  0  0  0  0  0  0
   27.9163   12.7821   24.8784 C   0  0  0  0  0  0  0  0  0  0  0  0
   29.0920   11.1201   21.5256 C   0  0  0  0  0  0  0  0  0  0  0  0
   33.4384   11.3512   25.3825 C   0  0  0  0  0  0  0  0  0  0  0  0
   33.1735   14.1720   18.9275 C   0  0  0  0  0  0  0  0  0  0  0  0
   28.8011   11.0640   26.8959 C   0  0  0  0  0  0  0  0  0  0  0  0
   30.3658   10.1846   19.2209 C   0  0  0  0  0  0  0  0  0  0  0  0
   27.0143   12.2628   25.8098 C   0  0  0  0  0  0  0  0  0  0  0  0
   28.7508    9.8773   20.9882 C   0  0  0  0  0  0  0  0  0  0  0  0
   27.4527   11.3996   26.8091 C   0  0  0  0  0  0  0  0  0  0  0  0
   29.3878    9.4091   19.8414 C   0  0  0  0  0  0  0  0  0  0  0  0
   33.5548   13.3499   23.6273 H   0  0  0  0  0  0  0  0  0  0  0  0
   32.2153   15.9514   20.6862 H   0  0  0  0  0  0  0  0  0  0  0  0
   35.1978   10.8204   24.3645 H   0  0  0  0  0  0  0  0  0  0  0  0
   34.0788   14.5315   17.0662 H   0  0  0  0  0  0  0  0  0  0  0  0
   30.1385   14.7810   22.9366 H   0  0  0  0  0  0  0  0  0  0  0  0
   28.7659   13.7655   22.5504 H   0  0  0  0  0  0  0  0  0  0  0  0
   31.3874   10.5756   26.8883 H   0  0  0  0  0  0  0  0  0  0  0  0
   32.1924   11.8093   18.2292 H   0  0  0  0  0  0  0  0  0  0  0  0
   27.5095   13.4757   24.1630 H   0  0  0  0  0  0  0  0  0  0  0  0
   28.5539   11.4425   22.4026 H   0  0  0  0  0  0  0  0  0  0  0  0
   29.1251   10.4044   27.6926 H   0  0  0  0  0  0  0  0  0  0  0  0
   30.8453    9.8053   18.3260 H   0  0  0  0  0  0  0  0  0  0  0  0
   25.9688   12.5393   25.7604 H   0  0  0  0  0  0  0  0  0  0  0  0
   27.9850    9.2764   21.4618 H   0  0  0  0  0  0  0  0  0  0  0  0
   26.7480   11.0012   27.5276 H   0  0  0  0  0  0  0  0  0  0  0  0
   29.1190    8.4452   19.4290 H   0  0  0  0  0  0  0  0  0  0  0  0
  1 11  1  0
  2 12  1  0
  3 22  2  0
  4 23  2  0
  5 22  1  0
  6 23  1  0
  7  9  1  0
  7 11  2  0
  7 13  1  0
  8 10  1  0
  8 12  2  0
  8 13  1  0
  9 14  2  0
  9 20  1  0
 10 15  2  0
 10 21  1  0
 11 16  1  0
 12 17  1  0
 14 18  1  0
 14 24  1  0
 15 19  1  0
 15 25  1  0
 16 18  2  0
 16 22  1  0
 17 19  2  0
 17 23  1  0
 20 26  2  0
 21 27  2  0
 24 28  2  0
 25 29  2  0
 26 28  1  0
 27 29  1  0
  1 30  1  0
  2 31  1  0
  5 32  1  0
  6 33  1  0
 13 34  1  0
 13 35  1  0
 18 36  1  0
 19 37  1  0
 20 38  1  0
 21 39  1  0
 24 40  1  0
 25 41  1  0
 26 42  1  0
 27 43  1  0
 28 44  1  0
 29 45  1  0
M  END
> <Uni-Dock RESULT> 
ENERGY=   -3.782  LOWER_BOUND=    8.316  UPPER_BOUND=   11.794
INTER + INTRA:          -3.782
INTER:                  -3.782
INTRA:                   0.000
UNBOUND:                 0.000

$$$$
