
     RDKit          3D

 45 48  0  0  0  0  0  0  0  0999 V2000
   25.5861    6.8801   32.5099 O   0  0  0  0  0  0  0  0  0  0  0  0
   26.1173    9.6328   33.7257 O   0  0  0  0  0  0  0  0  0  0  0  0
   26.4387    4.5176   31.1354 O   0  0  0  0  0  0  0  0  0  0  0  0
   29.7719   10.9373   32.5983 O   0  0  0  0  0  0  0  0  0  0  0  0
   24.7762    2.9518   31.3177 O   0  0  0  0  0  0  0  0  0  0  0  0
   28.9757    9.2023   33.8659 O   0  0  0  0  0  0  0  0  0  0  0  0
   23.5535    7.7159   31.4897 C   0  0  0  0  0  0  0  0  0  0  0  0
   25.3300    9.5350   31.4345 C   0  0  0  0  0  0  0  0  0  0  0  0
   22.2872    7.4314   30.8912 C   0  0  0  0  0  0  0  0  0  0  0  0
   25.5650    9.7538   30.0475 C   0  0  0  0  0  0  0  0  0  0  0  0
   24.4619    6.6493   31.7106 C   0  0  0  0  0  0  0  0  0  0  0  0
   26.3899    9.7254   32.3564 C   0  0  0  0  0  0  0  0  0  0  0  0
   23.9546    9.1194   31.9511 C   0  0  0  0  0  0  0  0  0  0  0  0
   22.0377    6.1265   30.3871 C   0  0  0  0  0  0  0  0  0  0  0  0
   26.8675   10.1009   29.6066 C   0  0  0  0  0  0  0  0  0  0  0  0
   24.2125    5.3690   31.1662 C   0  0  0  0  0  0  0  0  0  0  0  0
   27.6915   10.0298   31.8955 C   0  0  0  0  0  0  0  0  0  0  0  0
   23.0029    5.1254   30.5123 C   0  0  0  0  0  0  0  0  0  0  0  0
   27.9096   10.2290   30.5278 C   0  0  0  0  0  0  0  0  0  0  0  0
   21.2461    8.3883   30.7908 C   0  0  0  0  0  0  0  0  0  0  0  0
   24.5368    9.6525   29.0822 C   0  0  0  0  0  0  0  0  0  0  0  0
   25.2055    4.2731   31.2251 C   0  0  0  0  0  0  0  0  0  0  0  0
   28.8538   10.0990   32.8081 C   0  0  0  0  0  0  0  0  0  0  0  0
   20.8176    5.8283   29.7574 C   0  0  0  0  0  0  0  0  0  0  0  0
   27.1193   10.3096   28.2403 C   0  0  0  0  0  0  0  0  0  0  0  0
   20.0372    8.0716   30.1669 C   0  0  0  0  0  0  0  0  0  0  0  0
   24.8029    9.8646   27.7279 C   0  0  0  0  0  0  0  0  0  0  0  0
   19.8268    6.7997   29.6436 C   0  0  0  0  0  0  0  0  0  0  0  0
   26.0905   10.1887   27.3074 C   0  0  0  0  0  0  0  0  0  0  0  0
   26.1783    6.1456   32.8726 H   0  0  0  0  0  0  0  0  0  0  0  0
   26.7601    9.9321   34.4461 H   0  0  0  0  0  0  0  0  0  0  0  0
   25.4421    2.1886   31.3370 H   0  0  0  0  0  0  0  0  0  0  0  0
   29.7788    9.2314   34.4826 H   0  0  0  0  0  0  0  0  0  0  0  0
   23.8972    9.1318   33.0585 H   0  0  0  0  0  0  0  0  0  0  0  0
   23.2655    9.9153   31.6265 H   0  0  0  0  0  0  0  0  0  0  0  0
   22.8096    4.1428   30.0951 H   0  0  0  0  0  0  0  0  0  0  0  0
   28.9076   10.4661   30.1746 H   0  0  0  0  0  0  0  0  0  0  0  0
   21.3171    9.3779   31.2076 H   0  0  0  0  0  0  0  0  0  0  0  0
   23.5191    9.4240   29.3549 H   0  0  0  0  0  0  0  0  0  0  0  0
   20.6270    4.8384   29.3592 H   0  0  0  0  0  0  0  0  0  0  0  0
   28.1130   10.5686   27.8936 H   0  0  0  0  0  0  0  0  0  0  0  0
   19.2550    8.8168   30.0966 H   0  0  0  0  0  0  0  0  0  0  0  0
   24.0044    9.7810   27.0017 H   0  0  0  0  0  0  0  0  0  0  0  0
   18.8875    6.5614   29.1616 H   0  0  0  0  0  0  0  0  0  0  0  0
   26.2910   10.3523   26.2564 H   0  0  0  0  0  0  0  0  0  0  0  0
  1 11  1  0
  2 12  1  0
  3 22  2  0
  4 23  2  0
  5 22  1  0
  6 23  1  0
  7  9  1  0
  7 11  2  0
  7 13  1  0
  8 10  1  0
  8 12  2  0
  8 13  1  0
  9 14  2  0
  9 20  1  0
 10 15  2  0
 10 21  1  0
 11 16  1  0
 12 17  1  0
 14 18  1  0
 14 24  1  0
 15 19  1  0
 15 25  1  0
 16 18  2  0
 16 22  1  0
 17 19  2  0
 17 23  1  0
 20 26  2  0
 21 27  2  0
 24 28  2  0
 25 29  2  0
 26 28  1  0
 27 29  1  0
  1 30  1  0
  2 31  1  0
  5 32  1  0
  6 33  1  0
 13 34  1  0
 13 35  1  0
 18 36  1  0
 19 37  1  0
 20 38  1  0
 21 39  1  0
 24 40  1  0
 25 41  1  0
 26 42  1  0
 27 43  1  0
 28 44  1  0
 29 45  1  0
M  END
> <Uni-Dock RESULT> 
ENERGY=   -4.264  LOWER_BOUND=    0.000  UPPER_BOUND=    0.000
INTER + INTRA:          -4.264
INTER:                  -4.264
INTRA:                   0.000
UNBOUND:                 0.000

$$$$

     RDKit          3D

 45 48  0  0  0  0  0  0  0  0999 V2000
   30.0767   13.7702   22.5431 O   0  0  0  0  0  0  0  0  0  0  0  0
   28.2738   12.5695   24.6984 O   0  0  0  0  0  0  0  0  0  0  0  0
   30.9131   15.9349   20.8662 O   0  0  0  0  0  0  0  0  0  0  0  0
   25.1804   15.0640   25.4314 O   0  0  0  0  0  0  0  0  0  0  0  0
   32.9229   15.3670   19.9244 O   0  0  0  0  0  0  0  0  0  0  0  0
   27.4550   15.1616   25.6913 O   0  0  0  0  0  0  0  0  0  0  0  0
   29.8210   11.7669   21.2043 C   0  0  0  0  0  0  0  0  0  0  0  0
   27.6246   12.2764   22.3808 C   0  0  0  0  0  0  0  0  0  0  0  0
   30.3048   10.9463   20.1388 C   0  0  0  0  0  0  0  0  0  0  0  0
   26.7122   12.5421   21.3206 C   0  0  0  0  0  0  0  0  0  0  0  0
   30.3651   13.0663   21.3695 C   0  0  0  0  0  0  0  0  0  0  0  0
   27.4517   12.9319   23.6257 C   0  0  0  0  0  0  0  0  0  0  0  0
   28.7730   11.2846   22.2104 C   0  0  0  0  0  0  0  0  0  0  0  0
   31.1919   11.5076   19.1812 C   0  0  0  0  0  0  0  0  0  0  0  0
   25.6833   13.4997   21.5090 C   0  0  0  0  0  0  0  0  0  0  0  0
   31.2144   13.6199   20.3847 C   0  0  0  0  0  0  0  0  0  0  0  0
   26.4470   13.9144   23.7822 C   0  0  0  0  0  0  0  0  0  0  0  0
   31.6166   12.8321   19.3042 C   0  0  0  0  0  0  0  0  0  0  0  0
   25.5661   14.1739   22.7266 C   0  0  0  0  0  0  0  0  0  0  0  0
   29.9583    9.5791   19.9962 C   0  0  0  0  0  0  0  0  0  0  0  0
   26.7823   11.8709   20.0780 C   0  0  0  0  0  0  0  0  0  0  0  0
   31.6702   15.0273   20.4283 C   0  0  0  0  0  0  0  0  0  0  0  0
   26.3204   14.7215   25.0155 C   0  0  0  0  0  0  0  0  0  0  0  0
   31.6521   10.7372   18.1001 C   0  0  0  0  0  0  0  0  0  0  0  0
   24.7812   13.7820   20.4695 C   0  0  0  0  0  0  0  0  0  0  0  0
   30.4308    8.8271   18.9182 C   0  0  0  0  0  0  0  0  0  0  0  0
   25.8771   12.1617   19.0553 C   0  0  0  0  0  0  0  0  0  0  0  0
   31.2667    9.4059   17.9684 C   0  0  0  0  0  0  0  0  0  0  0  0
   24.8817   13.1166   19.2487 C   0  0  0  0  0  0  0  0  0  0  0  0
   30.5631   14.6088   22.8296 H   0  0  0  0  0  0  0  0  0  0  0  0
   28.1006   12.8465   25.6551 H   0  0  0  0  0  0  0  0  0  0  0  0
   33.2412   16.3288   19.9267 H   0  0  0  0  0  0  0  0  0  0  0  0
   27.3757   15.7312   26.5252 H   0  0  0  0  0  0  0  0  0  0  0  0
   29.3004   11.0804   23.1643 H   0  0  0  0  0  0  0  0  0  0  0  0
   28.2977   10.3272   21.9433 H   0  0  0  0  0  0  0  0  0  0  0  0
   32.2695   13.2553   18.5481 H   0  0  0  0  0  0  0  0  0  0  0  0
   24.7929   14.9253   22.8480 H   0  0  0  0  0  0  0  0  0  0  0  0
   29.3519    9.0503   20.7108 H   0  0  0  0  0  0  0  0  0  0  0  0
   27.5199   11.1095   19.8820 H   0  0  0  0  0  0  0  0  0  0  0  0
   32.3184   11.1640   17.3594 H   0  0  0  0  0  0  0  0  0  0  0  0
   23.9959   14.5171   20.6023 H   0  0  0  0  0  0  0  0  0  0  0  0
   30.1525    7.7851   18.8241 H   0  0  0  0  0  0  0  0  0  0  0  0
   25.9461   11.6400   18.1093 H   0  0  0  0  0  0  0  0  0  0  0  0
   31.6291    8.8169   17.1357 H   0  0  0  0  0  0  0  0  0  0  0  0
   24.1826   13.3377   18.4526 H   0  0  0  0  0  0  0  0  0  0  0  0
  1 11  1  0
  2 12  1  0
  3 22  2  0
  4 23  2  0
  5 22  1  0
  6 23  1  0
  7  9  1  0
  7 11  2  0
  7 13  1  0
  8 10  1  0
  8 12  2  0
  8 13  1  0
  9 14  2  0
  9 20  1  0
 10 15  2  0
 10 21  1  0
 11 16  1  0
 12 17  1  0
 14 18  1  0
 14 24  1  0
 15 19  1  0
 15 25  1  0
 16 18  2  0
 16 22  1  0
 17 19  2  0
 17 23  1  0
 20 26  2  0
 21 27  2  0
 24 28  2  0
 25 29  2  0
 26 28  1  0
 27 29  1  0
  1 30  1  0
  2 31  1  0
  5 32  1  0
  6 33  1  0
 13 34  1  0
 13 35  1  0
 18 36  1  0
 19 37  1  0
 20 38  1  0
 21 39  1  0
 24 40  1  0
 25 41  1  0
 26 42  1  0
 27 43  1  0
 28 44  1  0
 29 45  1  0
M  END
> <Uni-Dock RESULT> 
ENERGY=   -4.244  LOWER_BOUND=    9.434  UPPER_BOUND=   12.637
INTER + INTRA:          -4.244
INTER:                  -4.244
INTRA:                   0.000
UNBOUND:                 0.000

$$$$

     RDKit          3D

 45 48  0  0  0  0  0  0  0  0999 V2000
   31.1650    5.7493   28.9679 O   0  0  0  0  0  0  0  0  0  0  0  0
   32.9005    8.1472   29.7269 O   0  0  0  0  0  0  0  0  0  0  0  0
   29.8437    4.0957   27.0400 O   0  0  0  0  0  0  0  0  0  0  0  0
   33.3857   10.5486   26.5134 O   0  0  0  0  0  0  0  0  0  0  0  0
   29.1686    2.1771   28.0947 O   0  0  0  0  0  0  0  0  0  0  0  0
   33.9954    8.4085   27.0607 O   0  0  0  0  0  0  0  0  0  0  0  0
   29.6218    6.2926   30.7553 C   0  0  0  0  0  0  0  0  0  0  0  0
   30.4941    8.4438   29.7164 C   0  0  0  0  0  0  0  0  0  0  0  0
   28.5701    5.8680   31.6249 C   0  0  0  0  0  0  0  0  0  0  0  0
   29.3374    9.0578   29.1579 C   0  0  0  0  0  0  0  0  0  0  0  0
   29.9881    5.4608   29.6664 C   0  0  0  0  0  0  0  0  0  0  0  0
   31.7542    8.6477   29.0998 C   0  0  0  0  0  0  0  0  0  0  0  0
   30.4080    7.5871   30.9774 C   0  0  0  0  0  0  0  0  0  0  0  0
   27.8146    4.7136   31.2848 C   0  0  0  0  0  0  0  0  0  0  0  0
   29.4562    9.8133   27.9636 C   0  0  0  0  0  0  0  0  0  0  0  0
   29.1995    4.3396   29.3219 C   0  0  0  0  0  0  0  0  0  0  0  0
   31.8476    9.3681   27.8868 C   0  0  0  0  0  0  0  0  0  0  0  0
   28.1236    3.9813   30.1368 C   0  0  0  0  0  0  0  0  0  0  0  0
   30.6995    9.9547   27.3431 C   0  0  0  0  0  0  0  0  0  0  0  0
   28.2496    6.5341   32.8346 C   0  0  0  0  0  0  0  0  0  0  0  0
   28.0626    8.9560   29.7612 C   0  0  0  0  0  0  0  0  0  0  0  0
   29.4429    3.5422   28.0991 C   0  0  0  0  0  0  0  0  0  0  0  0
   33.1173    9.4861   27.1369 C   0  0  0  0  0  0  0  0  0  0  0  0
   26.7486    4.2954   32.0990 C   0  0  0  0  0  0  0  0  0  0  0  0
   28.3229   10.4167   27.3930 C   0  0  0  0  0  0  0  0  0  0  0  0
   27.1902    6.0999   33.6346 C   0  0  0  0  0  0  0  0  0  0  0  0
   26.9462    9.5630   29.1824 C   0  0  0  0  0  0  0  0  0  0  0  0
   26.4363    4.9908   33.2640 C   0  0  0  0  0  0  0  0  0  0  0  0
   27.0748   10.2882   28.0002 C   0  0  0  0  0  0  0  0  0  0  0  0
   31.5989    5.1150   28.3114 H   0  0  0  0  0  0  0  0  0  0  0  0
   33.8415    8.4020   29.4595 H   0  0  0  0  0  0  0  0  0  0  0  0
   29.3089    1.6210   27.2596 H   0  0  0  0  0  0  0  0  0  0  0  0
   34.8572    8.4760   26.5325 H   0  0  0  0  0  0  0  0  0  0  0  0
   31.4075    7.3040   31.3654 H   0  0  0  0  0  0  0  0  0  0  0  0
   29.9837    8.2456   31.7521 H   0  0  0  0  0  0  0  0  0  0  0  0
   27.5181    3.1202   29.8743 H   0  0  0  0  0  0  0  0  0  0  0  0
   30.7719   10.5105   26.4141 H   0  0  0  0  0  0  0  0  0  0  0  0
   28.8115    7.3719   33.2093 H   0  0  0  0  0  0  0  0  0  0  0  0
   27.9105    8.4238   30.6864 H   0  0  0  0  0  0  0  0  0  0  0  0
   26.1606    3.4234   31.8376 H   0  0  0  0  0  0  0  0  0  0  0  0
   28.4032   10.9902   26.4769 H   0  0  0  0  0  0  0  0  0  0  0  0
   26.9582    6.6236   34.5534 H   0  0  0  0  0  0  0  0  0  0  0  0
   25.9770    9.4734   29.6563 H   0  0  0  0  0  0  0  0  0  0  0  0
   25.6169    4.6601   33.8891 H   0  0  0  0  0  0  0  0  0  0  0  0
   26.2060   10.7568   27.5562 H   0  0  0  0  0  0  0  0  0  0  0  0
  1 11  1  0
  2 12  1  0
  3 22  2  0
  4 23  2  0
  5 22  1  0
  6 23  1  0
  7  9  1  0
  7 11  2  0
  7 13  1  0
  8 10  1  0
  8 12  2  0
  8 13  1  0
  9 14  2  0
  9 20  1  0
 10 15  2  0
 10 21  1  0
 11 16  1  0
 12 17  1  0
 14 18  1  0
 14 24  1  0
 15 19  1  0
 15 25  1  0
 16 18  2  0
 16 22  1  0
 17 19  2  0
 17 23  1  0
 20 26  2  0
 21 27  2  0
 24 28  2  0
 25 29  2  0
 26 28  1  0
 27 29  1  0
  1 30  1  0
  2 31  1  0
  5 32  1  0
  6 33  1  0
 13 34  1  0
 13 35  1  0
 18 36  1  0
 19 37  1  0
 20 38  1  0
 21 39  1  0
 24 40  1  0
 25 41  1  0
 26 42  1  0
 27 43  1  0
 28 44  1  0
 29 45  1  0
M  END
> <Uni-Dock RESULT> 
ENERGY=   -4.082  LOWER_BOUND=    4.522  UPPER_BOUND=    5.943
INTER + INTRA:          -4.082
INTER:                  -4.082
INTRA:                   0.000
UNBOUND:                 0.000

$$$$

     RDKit          3D

 45 48  0  0  0  0  0  0  0  0999 V2000
   26.9864   11.3558   19.9256 O   0  0  0  0  0  0  0  0  0  0  0  0
   29.1479    9.3497   20.7265 O   0  0  0  0  0  0  0  0  0  0  0  0
   25.7788   13.1576   18.0568 O   0  0  0  0  0  0  0  0  0  0  0  0
   32.1321    9.4032   18.0024 O   0  0  0  0  0  0  0  0  0  0  0  0
   23.7027   13.7152   18.8491 O   0  0  0  0  0  0  0  0  0  0  0  0
   29.9137    8.8292   17.9846 O   0  0  0  0  0  0  0  0  0  0  0  0
   27.1937   12.4481   22.0785 C   0  0  0  0  0  0  0  0  0  0  0  0
   29.4904   11.6800   21.3023 C   0  0  0  0  0  0  0  0  0  0  0  0
   26.6259   13.3170   23.0611 C   0  0  0  0  0  0  0  0  0  0  0  0
   30.2275   12.8872   21.1392 C   0  0  0  0  0  0  0  0  0  0  0  0
   26.5886   12.3742   20.7978 C   0  0  0  0  0  0  0  0  0  0  0  0
   29.7872   10.5685   20.4740 C   0  0  0  0  0  0  0  0  0  0  0  0
   28.4012   11.5519   22.3646 C   0  0  0  0  0  0  0  0  0  0  0  0
   25.5785   14.1993   22.6820 C   0  0  0  0  0  0  0  0  0  0  0  0
   31.2036   12.9758   20.1143 C   0  0  0  0  0  0  0  0  0  0  0  0
   25.5754   13.2877   20.4282 C   0  0  0  0  0  0  0  0  0  0  0  0
   30.7333   10.6881   19.4301 C   0  0  0  0  0  0  0  0  0  0  0  0
   25.0840   14.1874   21.3763 C   0  0  0  0  0  0  0  0  0  0  0  0
   31.4403   11.8854   19.2740 C   0  0  0  0  0  0  0  0  0  0  0  0
   27.0434   13.3312   24.4157 C   0  0  0  0  0  0  0  0  0  0  0  0
   30.0337   14.0092   21.9775 C   0  0  0  0  0  0  0  0  0  0  0  0
   25.0334   13.3598   19.0529 C   0  0  0  0  0  0  0  0  0  0  0  0
   30.9723    9.6008   18.4558 C   0  0  0  0  0  0  0  0  0  0  0  0
   25.0284   15.0933   23.6159 C   0  0  0  0  0  0  0  0  0  0  0  0
   31.9321   14.1632   19.9325 C   0  0  0  0  0  0  0  0  0  0  0  0
   26.4803   14.2229   25.3315 C   0  0  0  0  0  0  0  0  0  0  0  0
   30.7670   15.1818   21.7848 C   0  0  0  0  0  0  0  0  0  0  0  0
   25.4834   15.1072   24.9316 C   0  0  0  0  0  0  0  0  0  0  0  0
   31.7108   15.2603   20.7635 C   0  0  0  0  0  0  0  0  0  0  0  0
   26.4871   11.1119   19.0812 H   0  0  0  0  0  0  0  0  0  0  0  0
   29.4315    8.4723   20.3123 H   0  0  0  0  0  0  0  0  0  0  0  0
   23.3218   13.7905   17.9135 H   0  0  0  0  0  0  0  0  0  0  0  0
   30.0675    8.0962   17.3025 H   0  0  0  0  0  0  0  0  0  0  0  0
   28.0256   10.5130   22.4621 H   0  0  0  0  0  0  0  0  0  0  0  0
   28.9004   11.7599   23.3245 H   0  0  0  0  0  0  0  0  0  0  0  0
   24.3054   14.8883   21.0944 H   0  0  0  0  0  0  0  0  0  0  0  0
   32.1688   11.9758   18.4752 H   0  0  0  0  0  0  0  0  0  0  0  0
   27.7777   12.6505   24.8101 H   0  0  0  0  0  0  0  0  0  0  0  0
   29.3307   13.9959   22.7948 H   0  0  0  0  0  0  0  0  0  0  0  0
   24.2384   15.7778   23.3290 H   0  0  0  0  0  0  0  0  0  0  0  0
   32.6753   14.2422   19.1475 H   0  0  0  0  0  0  0  0  0  0  0  0
   26.8146   14.2214   26.3612 H   0  0  0  0  0  0  0  0  0  0  0  0
   30.6047   16.0325   22.4343 H   0  0  0  0  0  0  0  0  0  0  0  0
   25.0515   15.7952   25.6469 H   0  0  0  0  0  0  0  0  0  0  0  0
   32.2766   16.1717   20.6190 H   0  0  0  0  0  0  0  0  0  0  0  0
  1 11  1  0
  2 12  1  0
  3 22  2  0
  4 23  2  0
  5 22  1  0
  6 23  1  0
  7  9  1  0
  7 11  2  0
  7 13  1  0
  8 10  1  0
  8 12  2  0
  8 13  1  0
  9 14  2  0
  9 20  1  0
 10 15  2  0
 10 21  1  0
 11 16  1  0
 12 17  1  0
 14 18  1  0
 14 24  1  0
 15 19  1  0
 15 25  1  0
 16 18  2  0
 16 22  1  0
 17 19  2  0
 17 23  1  0
 20 26  2  0
 21 27  2  0
 24 28  2  0
 25 29  2  0
 26 28  1  0
 27 29  1  0
  1 30  1  0
  2 31  1  0
  5 32  1  0
  6 33  1  0
 13 34  1  0
 13 35  1  0
 18 36  1  0
 19 37  1  0
 20 38  1  0
 21 39  1  0
 24 40  1  0
 25 41  1  0
 26 42  1  0
 27 43  1  0
 28 44  1  0
 29 45  1  0
M  END
> <Uni-Dock RESULT> 
ENERGY=   -3.876  LOWER_BOUND=    9.726  UPPER_BOUND=   12.426
INTER + INTRA:          -3.876
INTER:                  -3.876
INTRA:                   0.000
UNBOUND:                 0.000

$$$$

     RDKit          3D

 45 48  0  0  0  0  0  0  0  0999 V2000
   32.5848   13.3356   23.0902 O   0  0  0  0  0  0  0  0  0  0  0  0
   31.6922   15.1595   20.8067 O   0  0  0  0  0  0  0  0  0  0  0  0
   34.2132   11.2372   24.1591 O   0  0  0  0  0  0  0  0  0  0  0  0
   33.2529   13.8403   17.3206 O   0  0  0  0  0  0  0  0  0  0  0  0
   33.9870   11.2550   26.4389 O   0  0  0  0  0  0  0  0  0  0  0  0
   34.1007   14.6923   19.2716 O   0  0  0  0  0  0  0  0  0  0  0  0
   30.2702   12.9437   23.6903 C   0  0  0  0  0  0  0  0  0  0  0  0
   30.4668   13.0972   21.1594 C   0  0  0  0  0  0  0  0  0  0  0  0
   29.3245   12.5116   24.6710 C   0  0  0  0  0  0  0  0  0  0  0  0
   30.0819   11.8062   20.6988 C   0  0  0  0  0  0  0  0  0  0  0  0
   31.6497   12.7044   23.9169 C   0  0  0  0  0  0  0  0  0  0  0  0
   31.4165   13.8439   20.4178 C   0  0  0  0  0  0  0  0  0  0  0  0
   29.8624   13.7018   22.4245 C   0  0  0  0  0  0  0  0  0  0  0  0
   29.7715   11.7149   25.7594 C   0  0  0  0  0  0  0  0  0  0  0  0
   30.6971   11.2665   19.5406 C   0  0  0  0  0  0  0  0  0  0  0  0
   32.0696   11.8764   24.9826 C   0  0  0  0  0  0  0  0  0  0  0  0
   32.0505   13.2735   19.2900 C   0  0  0  0  0  0  0  0  0  0  0  0
   31.1241   11.3937   25.8898 C   0  0  0  0  0  0  0  0  0  0  0  0
   31.6709   11.9983   18.8572 C   0  0  0  0  0  0  0  0  0  0  0  0
   27.9503   12.8568   24.6260 C   0  0  0  0  0  0  0  0  0  0  0  0
   29.0886   11.0378   21.3485 C   0  0  0  0  0  0  0  0  0  0  0  0
   33.4793   11.4615   25.1590 C   0  0  0  0  0  0  0  0  0  0  0  0
   33.1457   13.9607   18.5711 C   0  0  0  0  0  0  0  0  0  0  0  0
   28.8586   11.2416   26.7168 C   0  0  0  0  0  0  0  0  0  0  0  0
   30.3370    9.9894   19.0787 C   0  0  0  0  0  0  0  0  0  0  0  0
   27.0585   12.3819   25.5904 C   0  0  0  0  0  0  0  0  0  0  0  0
   28.7407    9.7707   20.8760 C   0  0  0  0  0  0  0  0  0  0  0  0
   27.5086   11.5697   26.6266 C   0  0  0  0  0  0  0  0  0  0  0  0
   29.3651    9.2463   19.7468 C   0  0  0  0  0  0  0  0  0  0  0  0
   33.5749   13.3756   23.2897 H   0  0  0  0  0  0  0  0  0  0  0  0
   32.2070   15.8159   20.2358 H   0  0  0  0  0  0  0  0  0  0  0  0
   34.9432   10.9498   26.5762 H   0  0  0  0  0  0  0  0  0  0  0  0
   34.8645   15.1489   18.7875 H   0  0  0  0  0  0  0  0  0  0  0  0
   30.1530   14.7625   22.5669 H   0  0  0  0  0  0  0  0  0  0  0  0
   28.7756   13.7312   22.2464 H   0  0  0  0  0  0  0  0  0  0  0  0
   31.4450   10.7591   26.7091 H   0  0  0  0  0  0  0  0  0  0  0  0
   32.1550   11.5621   17.9897 H   0  0  0  0  0  0  0  0  0  0  0  0
   27.5348   13.5134   23.8815 H   0  0  0  0  0  0  0  0  0  0  0  0
   28.5602   11.4035   22.2142 H   0  0  0  0  0  0  0  0  0  0  0  0
   29.1918   10.6226   27.5417 H   0  0  0  0  0  0  0  0  0  0  0  0
   30.8067    9.5663   18.1983 H   0  0  0  0  0  0  0  0  0  0  0  0
   26.0118   12.6534   25.5375 H   0  0  0  0  0  0  0  0  0  0  0  0
   27.9795    9.1947   21.3866 H   0  0  0  0  0  0  0  0  0  0  0  0
   26.8117   11.2055   27.3705 H   0  0  0  0  0  0  0  0  0  0  0  0
   29.0912    8.2637   19.3847 H   0  0  0  0  0  0  0  0  0  0  0  0
  1 11  1  0
  2 12  1  0
  3 22  2  0
  4 23  2  0
  5 22  1  0
  6 23  1  0
  7  9  1  0
  7 11  2  0
  7 13  1  0
  8 10  1  0
  8 12  2  0
  8 13  1  0
  9 14  2  0
  9 20  1  0
 10 15  2  0
 10 21  1  0
 11 16  1  0
 12 17  1  0
 14 18  1  0
 14 24  1  0
 15 19  1  0
 15 25  1  0
 16 18  2  0
 16 22  1  0
 17 19  2  0
 17 23  1  0
 20 26  2  0
 21 27  2  0
 24 28  2  0
 25 29  2  0
 26 28  1  0
 27 29  1  0
  1 30  1  0
  2 31  1  0
  5 32  1  0
  6 33  1  0
 13 34  1  0
 13 35  1  0
 18 36  1  0
 19 37  1  0
 20 38  1  0
 21 39  1  0
 24 40  1  0
 25 41  1  0
 26 42  1  0
 27 43  1  0
 28 44  1  0
 29 45  1  0
M  END
> <Uni-Dock RESULT> 
ENERGY=   -3.828  LOWER_BOUND=    8.506  UPPER_BOUND=   11.999
INTER + INTRA:          -3.828
INTER:                  -3.828
INTRA:                   0.000
UNBOUND:                 0.000

$$$$

     RDKit          3D

 45 48  0  0  0  0  0  0  0  0999 V2000
   30.3268   13.2945   28.1133 O   0  0  0  0  0  0  0  0  0  0  0  0
   31.5127   12.6914   25.3623 O   0  0  0  0  0  0  0  0  0  0  0  0
   30.5754   13.7254   30.9328 O   0  0  0  0  0  0  0  0  0  0  0  0
   35.3568   11.5125   25.7652 O   0  0  0  0  0  0  0  0  0  0  0  0
   28.5913   14.5782   31.6978 O   0  0  0  0  0  0  0  0  0  0  0  0
   34.1889   13.4424   26.1683 O   0  0  0  0  0  0  0  0  0  0  0  0
   28.5369   11.7158   27.6947 C   0  0  0  0  0  0  0  0  0  0  0  0
   30.6935   10.8283   26.6801 C   0  0  0  0  0  0  0  0  0  0  0  0
   27.2312   11.2409   28.0296 C   0  0  0  0  0  0  0  0  0  0  0  0
   30.9547    9.6305   27.4040 C   0  0  0  0  0  0  0  0  0  0  0  0
   29.1691   12.6475   28.5573 C   0  0  0  0  0  0  0  0  0  0  0  0
   31.7808   11.5879   26.1797 C   0  0  0  0  0  0  0  0  0  0  0  0
   29.2659   11.3003   26.4144 C   0  0  0  0  0  0  0  0  0  0  0  0
   26.6722   11.5843   29.2901 C   0  0  0  0  0  0  0  0  0  0  0  0
   32.2962    9.2495   27.6618 C   0  0  0  0  0  0  0  0  0  0  0  0
   28.6155   12.9444   29.8235 C   0  0  0  0  0  0  0  0  0  0  0  0
   33.1110   11.2162   26.4824 C   0  0  0  0  0  0  0  0  0  0  0  0
   27.3739   12.4088   30.1719 C   0  0  0  0  0  0  0  0  0  0  0  0
   33.3514   10.0432   27.2062 C   0  0  0  0  0  0  0  0  0  0  0  0
   26.4457   10.4522   27.1518 C   0  0  0  0  0  0  0  0  0  0  0  0
   29.9187    8.7878   27.8686 C   0  0  0  0  0  0  0  0  0  0  0  0
   29.3207   13.7764   30.8239 C   0  0  0  0  0  0  0  0  0  0  0  0
   34.2688   12.0543   26.1009 C   0  0  0  0  0  0  0  0  0  0  0  0
   25.4078   11.0989   29.6637 C   0  0  0  0  0  0  0  0  0  0  0  0
   32.5717    8.0763   28.3842 C   0  0  0  0  0  0  0  0  0  0  0  0
   25.1878    9.9839   27.5383 C   0  0  0  0  0  0  0  0  0  0  0  0
   30.2091    7.6241   28.5838 C   0  0  0  0  0  0  0  0  0  0  0  0
   24.6744   10.2978   28.7927 C   0  0  0  0  0  0  0  0  0  0  0  0
   31.5310    7.2709   28.8441 C   0  0  0  0  0  0  0  0  0  0  0  0
   30.7326   14.0985   28.5723 H   0  0  0  0  0  0  0  0  0  0  0  0
   32.2180   13.1705   24.8193 H   0  0  0  0  0  0  0  0  0  0  0  0
   29.0573   15.1370   32.4028 H   0  0  0  0  0  0  0  0  0  0  0  0
   34.9843   14.0217   25.9275 H   0  0  0  0  0  0  0  0  0  0  0  0
   29.2283   12.1627   25.7183 H   0  0  0  0  0  0  0  0  0  0  0  0
   28.7811   10.4770   25.8659 H   0  0  0  0  0  0  0  0  0  0  0  0
   26.9471   12.6368   31.1429 H   0  0  0  0  0  0  0  0  0  0  0  0
   34.3723    9.7562   27.4354 H   0  0  0  0  0  0  0  0  0  0  0  0
   26.7552   10.2032   26.1517 H   0  0  0  0  0  0  0  0  0  0  0  0
   28.8797    9.0033   27.6781 H   0  0  0  0  0  0  0  0  0  0  0  0
   24.9822   11.3468   30.6292 H   0  0  0  0  0  0  0  0  0  0  0  0
   33.5936    7.7810   28.5917 H   0  0  0  0  0  0  0  0  0  0  0  0
   24.6039    9.3798   26.8554 H   0  0  0  0  0  0  0  0  0  0  0  0
   29.4038    6.9912   28.9342 H   0  0  0  0  0  0  0  0  0  0  0  0
   23.6988    9.9314   29.0853 H   0  0  0  0  0  0  0  0  0  0  0  0
   31.7501    6.3676   29.3986 H   0  0  0  0  0  0  0  0  0  0  0  0
  1 11  1  0
  2 12  1  0
  3 22  2  0
  4 23  2  0
  5 22  1  0
  6 23  1  0
  7  9  1  0
  7 11  2  0
  7 13  1  0
  8 10  1  0
  8 12  2  0
  8 13  1  0
  9 14  2  0
  9 20  1  0
 10 15  2  0
 10 21  1  0
 11 16  1  0
 12 17  1  0
 14 18  1  0
 14 24  1  0
 15 19  1  0
 15 25  1  0
 16 18  2  0
 16 22  1  0
 17 19  2  0
 17 23  1  0
 20 26  2  0
 21 27  2  0
 24 28  2  0
 25 29  2  0
 26 28  1  0
 27 29  1  0
  1 30  1  0
  2 31  1  0
  5 32  1  0
  6 33  1  0
 13 34  1  0
 13 35  1  0
 18 36  1  0
 19 37  1  0
 20 38  1  0
 21 39  1  0
 24 40  1  0
 25 41  1  0
 26 42  1  0
 27 43  1  0
 28 44  1  0
 29 45  1  0
M  END
> <Uni-Dock RESULT> 
ENERGY=   -3.777  LOWER_BOUND=    5.134  UPPER_BOUND=    7.990
INTER + INTRA:          -3.777
INTER:                  -3.777
INTRA:                   0.000
UNBOUND:                 0.000

$$$$

     RDKit          3D

 45 48  0  0  0  0  0  0  0  0999 V2000
   30.0643   11.2934   29.9344 O   0  0  0  0  0  0  0  0  0  0  0  0
   28.5466    8.7625   29.1411 O   0  0  0  0  0  0  0  0  0  0  0  0
   30.1512   14.0166   30.8139 O   0  0  0  0  0  0  0  0  0  0  0  0
   24.6197    9.6099   28.7052 O   0  0  0  0  0  0  0  0  0  0  0  0
   32.3073   14.4978   31.4209 O   0  0  0  0  0  0  0  0  0  0  0  0
   26.1090    9.6162   30.4468 O   0  0  0  0  0  0  0  0  0  0  0  0
   31.5367   11.0148   28.0303 C   0  0  0  0  0  0  0  0  0  0  0  0
   29.1821   10.3052   27.3818 C   0  0  0  0  0  0  0  0  0  0  0  0
   32.7770   11.3327   27.3953 C   0  0  0  0  0  0  0  0  0  0  0  0
   28.8046   11.2290   26.3664 C   0  0  0  0  0  0  0  0  0  0  0  0
   31.1423   11.7565   29.1731 C   0  0  0  0  0  0  0  0  0  0  0  0
   28.1859    9.7636   28.2325 C   0  0  0  0  0  0  0  0  0  0  0  0
   30.6350    9.8707   27.5598 C   0  0  0  0  0  0  0  0  0  0  0  0
   33.4983   12.4804   27.8215 C   0  0  0  0  0  0  0  0  0  0  0  0
   27.4499   11.6352   26.2612 C   0  0  0  0  0  0  0  0  0  0  0  0
   31.8514   12.9177   29.5557 C   0  0  0  0  0  0  0  0  0  0  0  0
   26.8480   10.2117   28.1412 C   0  0  0  0  0  0  0  0  0  0  0  0
   33.0205   13.2631   28.8745 C   0  0  0  0  0  0  0  0  0  0  0  0
   26.4947   11.1300   27.1464 C   0  0  0  0  0  0  0  0  0  0  0  0
   33.3432   10.5425   26.3635 C   0  0  0  0  0  0  0  0  0  0  0  0
   29.7340   11.7522   25.4381 C   0  0  0  0  0  0  0  0  0  0  0  0
   31.3825   13.8162   30.6342 C   0  0  0  0  0  0  0  0  0  0  0  0
   25.8058    9.7792   29.0979 C   0  0  0  0  0  0  0  0  0  0  0  0
   34.7000   12.8410   27.1891 C   0  0  0  0  0  0  0  0  0  0  0  0
   27.0621   12.5544   25.2720 C   0  0  0  0  0  0  0  0  0  0  0  0
   34.5423   10.9134   25.7507 C   0  0  0  0  0  0  0  0  0  0  0  0
   29.3324   12.6639   24.4596 C   0  0  0  0  0  0  0  0  0  0  0  0
   35.2136   12.0631   26.1550 C   0  0  0  0  0  0  0  0  0  0  0  0
   28.0016   13.0667   24.3786 C   0  0  0  0  0  0  0  0  0  0  0  0
   29.8347   11.6430   30.8546 H   0  0  0  0  0  0  0  0  0  0  0  0
   27.8778    8.1984   29.6473 H   0  0  0  0  0  0  0  0  0  0  0  0
   32.0029   15.1332   32.1489 H   0  0  0  0  0  0  0  0  0  0  0  0
   25.3956    9.3394   31.1106 H   0  0  0  0  0  0  0  0  0  0  0  0
   30.7426    9.0436   28.2906 H   0  0  0  0  0  0  0  0  0  0  0  0
   30.9310    9.4307   26.5940 H   0  0  0  0  0  0  0  0  0  0  0  0
   33.5666   14.1534   29.1679 H   0  0  0  0  0  0  0  0  0  0  0  0
   25.4674   11.4711   27.0741 H   0  0  0  0  0  0  0  0  0  0  0  0
   32.9063    9.6190   26.0254 H   0  0  0  0  0  0  0  0  0  0  0  0
   30.7715   11.4595   25.4433 H   0  0  0  0  0  0  0  0  0  0  0  0
   35.2476   13.7227   27.5012 H   0  0  0  0  0  0  0  0  0  0  0  0
   26.0303   12.8756   25.1886 H   0  0  0  0  0  0  0  0  0  0  0  0
   34.9576   10.2991   24.9619 H   0  0  0  0  0  0  0  0  0  0  0  0
   30.0573   13.0565   23.7579 H   0  0  0  0  0  0  0  0  0  0  0  0
   36.1425   12.3442   25.6756 H   0  0  0  0  0  0  0  0  0  0  0  0
   27.6959   13.7733   23.6178 H   0  0  0  0  0  0  0  0  0  0  0  0
  1 11  1  0
  2 12  1  0
  3 22  2  0
  4 23  2  0
  5 22  1  0
  6 23  1  0
  7  9  1  0
  7 11  2  0
  7 13  1  0
  8 10  1  0
  8 12  2  0
  8 13  1  0
  9 14  2  0
  9 20  1  0
 10 15  2  0
 10 21  1  0
 11 16  1  0
 12 17  1  0
 14 18  1  0
 14 24  1  0
 15 19  1  0
 15 25  1  0
 16 18  2  0
 16 22  1  0
 17 19  2  0
 17 23  1  0
 20 26  2  0
 21 27  2  0
 24 28  2  0
 25 29  2  0
 26 28  1  0
 27 29  1  0
  1 30  1  0
  2 31  1  0
  5 32  1  0
  6 33  1  0
 13 34  1  0
 13 35  1  0
 18 36  1  0
 19 37  1  0
 20 38  1  0
 21 39  1  0
 24 40  1  0
 25 41  1  0
 26 42  1  0
 27 43  1  0
 28 44  1  0
 29 45  1  0
M  END
> <Uni-Dock RESULT> 
ENERGY=   -3.765  LOWER_BOUND=    4.693  UPPER_BOUND=    9.448
INTER + INTRA:          -3.765
INTER:                  -3.765
INTRA:                   0.000
UNBOUND:                 0.000

$$$$

     RDKit          3D

 45 48  0  0  0  0  0  0  0  0999 V2000
   29.8989    6.4089   30.1882 O   0  0  0  0  0  0  0  0  0  0  0  0
   30.6599    9.1523   31.2984 O   0  0  0  0  0  0  0  0  0  0  0  0
   29.5391    4.5702   28.0232 O   0  0  0  0  0  0  0  0  0  0  0  0
   31.0471   11.7905   28.2621 O   0  0  0  0  0  0  0  0  0  0  0  0
   29.2640    2.4756   28.9096 O   0  0  0  0  0  0  0  0  0  0  0  0
   32.1392    9.8871   28.9220 O   0  0  0  0  0  0  0  0  0  0  0  0
   27.9390    6.3692   31.6124 C   0  0  0  0  0  0  0  0  0  0  0  0
   28.3264    8.7420   30.7833 C   0  0  0  0  0  0  0  0  0  0  0  0
   26.9078    5.6050   32.2411 C   0  0  0  0  0  0  0  0  0  0  0  0
   27.1762    9.0304   29.9952 C   0  0  0  0  0  0  0  0  0  0  0  0
   28.7449    5.7493   30.6235 C   0  0  0  0  0  0  0  0  0  0  0  0
   29.5667    9.3395   30.4454 C   0  0  0  0  0  0  0  0  0  0  0  0
   28.2465    7.8187   31.9967 C   0  0  0  0  0  0  0  0  0  0  0  0
   26.6112    4.3057   31.7482 C   0  0  0  0  0  0  0  0  0  0  0  0
   27.3031    9.8622   28.8537 C   0  0  0  0  0  0  0  0  0  0  0  0
   28.4084    4.4726   30.1193 C   0  0  0  0  0  0  0  0  0  0  0  0
   29.6839   10.1318   29.2801 C   0  0  0  0  0  0  0  0  0  0  0  0
   27.3461    3.7681   30.6896 C   0  0  0  0  0  0  0  0  0  0  0  0
   28.5471   10.3955   28.5083 C   0  0  0  0  0  0  0  0  0  0  0  0
   26.1696    6.0721   33.3576 C   0  0  0  0  0  0  0  0  0  0  0  0
   25.8947    8.5271   30.3172 C   0  0  0  0  0  0  0  0  0  0  0  0
   29.1161    3.8586   28.9736 C   0  0  0  0  0  0  0  0  0  0  0  0
   30.9854   10.6584   28.8137 C   0  0  0  0  0  0  0  0  0  0  0  0
   25.5760    3.5470   32.3197 C   0  0  0  0  0  0  0  0  0  0  0  0
   26.1805   10.1480   28.0587 C   0  0  0  0  0  0  0  0  0  0  0  0
   25.1480    5.3008   33.9166 C   0  0  0  0  0  0  0  0  0  0  0  0
   24.7883    8.8216   29.5178 C   0  0  0  0  0  0  0  0  0  0  0  0
   24.8456    4.0473   33.3942 C   0  0  0  0  0  0  0  0  0  0  0  0
   24.9309    9.6265   28.3901 C   0  0  0  0  0  0  0  0  0  0  0  0
   30.6230    5.9697   29.6364 H   0  0  0  0  0  0  0  0  0  0  0  0
   31.5171    9.6842   31.2350 H   0  0  0  0  0  0  0  0  0  0  0  0
   29.7265    2.0378   28.1218 H   0  0  0  0  0  0  0  0  0  0  0  0
   33.0300   10.2337   28.5867 H   0  0  0  0  0  0  0  0  0  0  0  0
   29.1862    7.8120   32.5855 H   0  0  0  0  0  0  0  0  0  0  0  0
   27.5006    8.2762   32.6660 H   0  0  0  0  0  0  0  0  0  0  0  0
   27.0874    2.7874   30.3044 H   0  0  0  0  0  0  0  0  0  0  0  0
   28.6364   11.0063   27.6161 H   0  0  0  0  0  0  0  0  0  0  0  0
   26.3720    7.0108   33.8432 H   0  0  0  0  0  0  0  0  0  0  0  0
   25.7246    7.9160   31.1890 H   0  0  0  0  0  0  0  0  0  0  0  0
   25.3366    2.5608   31.9393 H   0  0  0  0  0  0  0  0  0  0  0  0
   26.2694   10.7772   27.1808 H   0  0  0  0  0  0  0  0  0  0  0  0
   24.5927    5.6759   34.7670 H   0  0  0  0  0  0  0  0  0  0  0  0
   23.8146    8.4263   29.7775 H   0  0  0  0  0  0  0  0  0  0  0  0
   24.0527    3.4552   33.8328 H   0  0  0  0  0  0  0  0  0  0  0  0
   24.0697    9.8518   27.7743 H   0  0  0  0  0  0  0  0  0  0  0  0
  1 11  1  0
  2 12  1  0
  3 22  2  0
  4 23  2  0
  5 22  1  0
  6 23  1  0
  7  9  1  0
  7 11  2  0
  7 13  1  0
  8 10  1  0
  8 12  2  0
  8 13  1  0
  9 14  2  0
  9 20  1  0
 10 15  2  0
 10 21  1  0
 11 16  1  0
 12 17  1  0
 14 18  1  0
 14 24  1  0
 15 19  1  0
 15 25  1  0
 16 18  2  0
 16 22  1  0
 17 19  2  0
 17 23  1  0
 20 26  2  0
 21 27  2  0
 24 28  2  0
 25 29  2  0
 26 28  1  0
 27 29  1  0
  1 30  1  0
  2 31  1  0
  5 32  1  0
  6 33  1  0
 13 34  1  0
 13 35  1  0
 18 36  1  0
 19 37  1  0
 20 38  1  0
 21 39  1  0
 24 40  1  0
 25 41  1  0
 26 42  1  0
 27 43  1  0
 28 44  1  0
 29 45  1  0
M  END
> <Uni-Dock RESULT> 
ENERGY=   -3.716  LOWER_BOUND=    3.167  UPPER_BOUND=    4.431
INTER + INTRA:          -3.716
INTER:                  -3.716
INTRA:                   0.000
UNBOUND:                 0.000

$$$$
