
     RDKit          3D

 45 48  0  0  0  0  0  0  0  0999 V2000
   24.5548    6.9406   32.6426 O   0  0  0  0  0  0  0  0  0  0  0  0
   24.7351    8.8489   30.2613 O   0  0  0  0  0  0  0  0  0  0  0  0
   24.7752    3.1216   31.3408 O   0  0  0  0  0  0  0  0  0  0  0  0
   25.3558   11.5490   27.3215 O   0  0  0  0  0  0  0  0  0  0  0  0
   26.1880    4.9256   31.3590 O   0  0  0  0  0  0  0  0  0  0  0  0
   25.2540    9.2636   27.4525 O   0  0  0  0  0  0  0  0  0  0  0  0
   22.5344    7.3676   31.3720 C   0  0  0  0  0  0  0  0  0  0  0  0
   22.6342    9.8668   30.9126 C   0  0  0  0  0  0  0  0  0  0  0  0
   21.5059    6.8934   30.5091 C   0  0  0  0  0  0  0  0  0  0  0  0
   21.7426   10.9802   30.8204 C   0  0  0  0  0  0  0  0  0  0  0  0
   23.6177    6.5126   31.6957 C   0  0  0  0  0  0  0  0  0  0  0  0
   23.7326    9.7931   30.0183 C   0  0  0  0  0  0  0  0  0  0  0  0
   22.4840    8.7713   31.9709 C   0  0  0  0  0  0  0  0  0  0  0  0
   21.6124    5.5974   29.9432 C   0  0  0  0  0  0  0  0  0  0  0  0
   21.8832   11.8914   29.7390 C   0  0  0  0  0  0  0  0  0  0  0  0
   23.7294    5.2403   31.0892 C   0  0  0  0  0  0  0  0  0  0  0  0
   23.8317   10.6845   28.9276 C   0  0  0  0  0  0  0  0  0  0  0  0
   22.7171    4.7933   30.2331 C   0  0  0  0  0  0  0  0  0  0  0  0
   22.9049   11.7225   28.8025 C   0  0  0  0  0  0  0  0  0  0  0  0
   20.3622    7.6658   30.2020 C   0  0  0  0  0  0  0  0  0  0  0  0
   20.7257   11.2383   31.7734 C   0  0  0  0  0  0  0  0  0  0  0  0
   24.9119    4.3739   31.2890 C   0  0  0  0  0  0  0  0  0  0  0  0
   24.8630   10.5304   27.8775 C   0  0  0  0  0  0  0  0  0  0  0  0
   20.6120    5.1181   29.0810 C   0  0  0  0  0  0  0  0  0  0  0  0
   20.9963   12.9721   29.5994 C   0  0  0  0  0  0  0  0  0  0  0  0
   19.3757    7.1744   29.3445 C   0  0  0  0  0  0  0  0  0  0  0  0
   19.8573   12.3216   31.6216 C   0  0  0  0  0  0  0  0  0  0  0  0
   19.5015    5.9061   28.7828 C   0  0  0  0  0  0  0  0  0  0  0  0
   19.9855   13.1799   30.5341 C   0  0  0  0  0  0  0  0  0  0  0  0
   25.2429    6.3318   33.0642 H   0  0  0  0  0  0  0  0  0  0  0  0
   25.6325    8.8520   29.7957 H   0  0  0  0  0  0  0  0  0  0  0  0
   27.0037    4.3364   31.4760 H   0  0  0  0  0  0  0  0  0  0  0  0
   25.9457    9.1507   26.7211 H   0  0  0  0  0  0  0  0  0  0  0  0
   23.2749    8.9354   32.7309 H   0  0  0  0  0  0  0  0  0  0  0  0
   21.5394    8.8163   32.5360 H   0  0  0  0  0  0  0  0  0  0  0  0
   22.8011    3.8155   29.7706 H   0  0  0  0  0  0  0  0  0  0  0  0
   22.9806   12.4079   27.9648 H   0  0  0  0  0  0  0  0  0  0  0  0
   20.2052    8.6452   30.6244 H   0  0  0  0  0  0  0  0  0  0  0  0
   20.5905   10.6457   32.6615 H   0  0  0  0  0  0  0  0  0  0  0  0
   20.6883    4.1316   28.6386 H   0  0  0  0  0  0  0  0  0  0  0  0
   21.0904   13.6625   28.7693 H   0  0  0  0  0  0  0  0  0  0  0  0
   18.5072    7.7797   29.1181 H   0  0  0  0  0  0  0  0  0  0  0  0
   19.0843   12.5007   32.3582 H   0  0  0  0  0  0  0  0  0  0  0  0
   18.7336    5.5301   28.1190 H   0  0  0  0  0  0  0  0  0  0  0  0
   19.3090   14.0175   30.4229 H   0  0  0  0  0  0  0  0  0  0  0  0
  1 11  1  0
  2 12  1  0
  3 22  2  0
  4 23  2  0
  5 22  1  0
  6 23  1  0
  7  9  1  0
  7 11  2  0
  7 13  1  0
  8 10  1  0
  8 12  2  0
  8 13  1  0
  9 14  2  0
  9 20  1  0
 10 15  2  0
 10 21  1  0
 11 16  1  0
 12 17  1  0
 14 18  1  0
 14 24  1  0
 15 19  1  0
 15 25  1  0
 16 18  2  0
 16 22  1  0
 17 19  2  0
 17 23  1  0
 20 26  2  0
 21 27  2  0
 24 28  2  0
 25 29  2  0
 26 28  1  0
 27 29  1  0
  1 30  1  0
  2 31  1  0
  5 32  1  0
  6 33  1  0
 13 34  1  0
 13 35  1  0
 18 36  1  0
 19 37  1  0
 20 38  1  0
 21 39  1  0
 24 40  1  0
 25 41  1  0
 26 42  1  0
 27 43  1  0
 28 44  1  0
 29 45  1  0
M  END
> <Uni-Dock RESULT> 
ENERGY=   -4.581  LOWER_BOUND=    0.000  UPPER_BOUND=    0.000
INTER + INTRA:          -4.581
INTER:                  -4.581
INTRA:                   0.000
UNBOUND:                 0.000

$$$$

     RDKit          3D

 45 48  0  0  0  0  0  0  0  0999 V2000
   29.0324    6.3849   33.3812 O   0  0  0  0  0  0  0  0  0  0  0  0
   26.2531    5.6653   32.3311 O   0  0  0  0  0  0  0  0  0  0  0  0
   30.7987    9.0043   30.8619 O   0  0  0  0  0  0  0  0  0  0  0  0
   22.4134    4.8855   31.3480 O   0  0  0  0  0  0  0  0  0  0  0  0
   28.9591    9.0381   32.2278 O   0  0  0  0  0  0  0  0  0  0  0  0
   24.1031    6.1601   30.4701 O   0  0  0  0  0  0  0  0  0  0  0  0
   28.8716    4.6806   31.6641 C   0  0  0  0  0  0  0  0  0  0  0  0
   26.8442    3.3150   32.3651 C   0  0  0  0  0  0  0  0  0  0  0  0
   29.1385    4.2536   30.3323 C   0  0  0  0  0  0  0  0  0  0  0  0
   26.4118    1.9527   32.3637 C   0  0  0  0  0  0  0  0  0  0  0  0
   29.1788    6.0123   32.0404 C   0  0  0  0  0  0  0  0  0  0  0  0
   25.8969    4.3345   32.0911 C   0  0  0  0  0  0  0  0  0  0  0  0
   28.2796    3.7278   32.7000 C   0  0  0  0  0  0  0  0  0  0  0  0
   29.6517    5.1822   29.3914 C   0  0  0  0  0  0  0  0  0  0  0  0
   25.0937    1.6455   31.9304 C   0  0  0  0  0  0  0  0  0  0  0  0
   29.6498    6.9358   31.0789 C   0  0  0  0  0  0  0  0  0  0  0  0
   24.6049    4.0075   31.6243 C   0  0  0  0  0  0  0  0  0  0  0  0
   29.8948    6.5043   29.7707 C   0  0  0  0  0  0  0  0  0  0  0  0
   24.2203    2.6664   31.5502 C   0  0  0  0  0  0  0  0  0  0  0  0
   28.9239    2.9216   29.9093 C   0  0  0  0  0  0  0  0  0  0  0  0
   27.2315    0.8802   32.7959 C   0  0  0  0  0  0  0  0  0  0  0  0
   29.8494    8.3674   31.3939 C   0  0  0  0  0  0  0  0  0  0  0  0
   23.6509    5.0406   31.1630 C   0  0  0  0  0  0  0  0  0  0  0  0
   29.9102    4.7803   28.0702 C   0  0  0  0  0  0  0  0  0  0  0  0
   24.6541    0.3121   31.8795 C   0  0  0  0  0  0  0  0  0  0  0  0
   29.1874    2.5374   28.5929 C   0  0  0  0  0  0  0  0  0  0  0  0
   26.7750   -0.4389   32.7442 C   0  0  0  0  0  0  0  0  0  0  0  0
   29.6757    3.4643   27.6750 C   0  0  0  0  0  0  0  0  0  0  0  0
   25.4950   -0.7232   32.2790 C   0  0  0  0  0  0  0  0  0  0  0  0
   29.3987    7.2446   33.7668 H   0  0  0  0  0  0  0  0  0  0  0  0
   25.5906    6.4287   32.3459 H   0  0  0  0  0  0  0  0  0  0  0  0
   29.0788   10.0231   32.4318 H   0  0  0  0  0  0  0  0  0  0  0  0
   23.4540    6.8620   30.1350 H   0  0  0  0  0  0  0  0  0  0  0  0
   28.2684    4.1651   33.7191 H   0  0  0  0  0  0  0  0  0  0  0  0
   28.9876    2.8863   32.7644 H   0  0  0  0  0  0  0  0  0  0  0  0
   30.2597    7.2121   29.0339 H   0  0  0  0  0  0  0  0  0  0  0  0
   23.2277    2.4145   31.1919 H   0  0  0  0  0  0  0  0  0  0  0  0
   28.5661    2.1598   30.5831 H   0  0  0  0  0  0  0  0  0  0  0  0
   28.2157    1.0233   33.2072 H   0  0  0  0  0  0  0  0  0  0  0  0
   30.2961    5.4848   27.3426 H   0  0  0  0  0  0  0  0  0  0  0  0
   23.6545    0.0709   31.5373 H   0  0  0  0  0  0  0  0  0  0  0  0
   29.0156    1.5139   28.2849 H   0  0  0  0  0  0  0  0  0  0  0  0
   27.4169   -1.2453   33.0755 H   0  0  0  0  0  0  0  0  0  0  0  0
   29.8785    3.1608   26.6560 H   0  0  0  0  0  0  0  0  0  0  0  0
   25.1479   -1.7478   32.2418 H   0  0  0  0  0  0  0  0  0  0  0  0
  1 11  1  0
  2 12  1  0
  3 22  2  0
  4 23  2  0
  5 22  1  0
  6 23  1  0
  7  9  1  0
  7 11  2  0
  7 13  1  0
  8 10  1  0
  8 12  2  0
  8 13  1  0
  9 14  2  0
  9 20  1  0
 10 15  2  0
 10 21  1  0
 11 16  1  0
 12 17  1  0
 14 18  1  0
 14 24  1  0
 15 19  1  0
 15 25  1  0
 16 18  2  0
 16 22  1  0
 17 19  2  0
 17 23  1  0
 20 26  2  0
 21 27  2  0
 24 28  2  0
 25 29  2  0
 26 28  1  0
 27 29  1  0
  1 30  1  0
  2 31  1  0
  5 32  1  0
  6 33  1  0
 13 34  1  0
 13 35  1  0
 18 36  1  0
 19 37  1  0
 20 38  1  0
 21 39  1  0
 24 40  1  0
 25 41  1  0
 26 42  1  0
 27 43  1  0
 28 44  1  0
 29 45  1  0
M  END
> <Uni-Dock RESULT> 
ENERGY=   -4.490  LOWER_BOUND=    5.062  UPPER_BOUND=    8.943
INTER + INTRA:          -4.490
INTER:                  -4.490
INTRA:                   0.000
UNBOUND:                 0.000

$$$$

     RDKit          3D

 45 48  0  0  0  0  0  0  0  0999 V2000
   28.3557    6.7504   33.4800 O   0  0  0  0  0  0  0  0  0  0  0  0
   25.7141    5.9163   32.1871 O   0  0  0  0  0  0  0  0  0  0  0  0
   30.3140    9.3063   31.0385 O   0  0  0  0  0  0  0  0  0  0  0  0
   22.0124    4.9977   30.8562 O   0  0  0  0  0  0  0  0  0  0  0  0
   28.3442    9.3501   32.2084 O   0  0  0  0  0  0  0  0  0  0  0  0
   23.7555    6.2773   30.0981 O   0  0  0  0  0  0  0  0  0  0  0  0
   28.4074    4.9720   31.8327 C   0  0  0  0  0  0  0  0  0  0  0  0
   26.3484    3.5855   32.3850 C   0  0  0  0  0  0  0  0  0  0  0  0
   28.8179    4.4965   30.5550 C   0  0  0  0  0  0  0  0  0  0  0  0
   25.9476    2.2137   32.4002 C   0  0  0  0  0  0  0  0  0  0  0  0
   28.6461    6.3258   32.1787 C   0  0  0  0  0  0  0  0  0  0  0  0
   25.4127    4.5679   31.9716 C   0  0  0  0  0  0  0  0  0  0  0  0
   27.7330    4.0487   32.8447 C   0  0  0  0  0  0  0  0  0  0  0  0
   29.4047    5.3976   29.6305 C   0  0  0  0  0  0  0  0  0  0  0  0
   24.6874    1.8549   31.8500 C   0  0  0  0  0  0  0  0  0  0  0  0
   29.1932    7.2199   31.2297 C   0  0  0  0  0  0  0  0  0  0  0  0
   24.1824    4.1886   31.3915 C   0  0  0  0  0  0  0  0  0  0  0  0
   29.5797    6.7403   29.9735 C   0  0  0  0  0  0  0  0  0  0  0  0
   23.8359    2.8362   31.3384 C   0  0  0  0  0  0  0  0  0  0  0  0
   28.6761    3.1428   30.1719 C   0  0  0  0  0  0  0  0  0  0  0  0
   26.7414    1.1817   32.9603 C   0  0  0  0  0  0  0  0  0  0  0  0
   29.3291    8.6681   31.4995 C   0  0  0  0  0  0  0  0  0  0  0  0
   23.2587    5.1766   30.7907 C   0  0  0  0  0  0  0  0  0  0  0  0
   29.8054    4.9474   28.3614 C   0  0  0  0  0  0  0  0  0  0  0  0
   24.2838    0.5097   31.8140 C   0  0  0  0  0  0  0  0  0  0  0  0
   29.0808    2.7106   28.9073 C   0  0  0  0  0  0  0  0  0  0  0  0
   26.3207   -0.1497   32.9212 C   0  0  0  0  0  0  0  0  0  0  0  0
   29.6405    3.6104   28.0033 C   0  0  0  0  0  0  0  0  0  0  0  0
   25.1012   -0.4861   32.3421 C   0  0  0  0  0  0  0  0  0  0  0  0
   28.6623    7.6347   33.8620 H   0  0  0  0  0  0  0  0  0  0  0  0
   25.0375    6.6625   32.1009 H   0  0  0  0  0  0  0  0  0  0  0  0
   28.4215   10.3456   32.3796 H   0  0  0  0  0  0  0  0  0  0  0  0
   23.1292    6.9476   29.6683 H   0  0  0  0  0  0  0  0  0  0  0  0
   27.6085    4.5279   33.8370 H   0  0  0  0  0  0  0  0  0  0  0  0
   28.4485    3.2291   33.0177 H   0  0  0  0  0  0  0  0  0  0  0  0
   30.0028    7.4257   29.2466 H   0  0  0  0  0  0  0  0  0  0  0  0
   22.8907    2.5441   30.8931 H   0  0  0  0  0  0  0  0  0  0  0  0
   28.2675    2.4011   30.8393 H   0  0  0  0  0  0  0  0  0  0  0  0
   27.6752    1.3671   33.4623 H   0  0  0  0  0  0  0  0  0  0  0  0
   30.2485    5.6304   27.6461 H   0  0  0  0  0  0  0  0  0  0  0  0
   23.3297    0.2287   31.3835 H   0  0  0  0  0  0  0  0  0  0  0  0
   28.9631    1.6711   28.6292 H   0  0  0  0  0  0  0  0  0  0  0  0
   26.9424   -0.9248   33.3513 H   0  0  0  0  0  0  0  0  0  0  0  0
   29.9528    3.2697   27.0245 H   0  0  0  0  0  0  0  0  0  0  0  0
   24.7816   -1.5198   32.3154 H   0  0  0  0  0  0  0  0  0  0  0  0
  1 11  1  0
  2 12  1  0
  3 22  2  0
  4 23  2  0
  5 22  1  0
  6 23  1  0
  7  9  1  0
  7 11  2  0
  7 13  1  0
  8 10  1  0
  8 12  2  0
  8 13  1  0
  9 14  2  0
  9 20  1  0
 10 15  2  0
 10 21  1  0
 11 16  1  0
 12 17  1  0
 14 18  1  0
 14 24  1  0
 15 19  1  0
 15 25  1  0
 16 18  2  0
 16 22  1  0
 17 19  2  0
 17 23  1  0
 20 26  2  0
 21 27  2  0
 24 28  2  0
 25 29  2  0
 26 28  1  0
 27 29  1  0
  1 30  1  0
  2 31  1  0
  5 32  1  0
  6 33  1  0
 13 34  1  0
 13 35  1  0
 18 36  1  0
 19 37  1  0
 20 38  1  0
 21 39  1  0
 24 40  1  0
 25 41  1  0
 26 42  1  0
 27 43  1  0
 28 44  1  0
 29 45  1  0
M  END
> <Uni-Dock RESULT> 
ENERGY=   -4.254  LOWER_BOUND=    4.815  UPPER_BOUND=    8.636
INTER + INTRA:          -4.254
INTER:                  -4.254
INTRA:                   0.000
UNBOUND:                 0.000

$$$$

     RDKit          3D

 45 48  0  0  0  0  0  0  0  0999 V2000
   27.0854   15.2266   23.0789 O   0  0  0  0  0  0  0  0  0  0  0  0
   27.4631   13.0457   25.1876 O   0  0  0  0  0  0  0  0  0  0  0  0
   24.1185   14.1679   20.5482 O   0  0  0  0  0  0  0  0  0  0  0  0
   27.8636   10.4942   28.2935 O   0  0  0  0  0  0  0  0  0  0  0  0
   24.2607   14.6736   22.7786 O   0  0  0  0  0  0  0  0  0  0  0  0
   26.5244   10.6199   26.4385 O   0  0  0  0  0  0  0  0  0  0  0  0
   28.4223   13.2922   22.4876 C   0  0  0  0  0  0  0  0  0  0  0  0
   29.8015   12.8566   24.5792 C   0  0  0  0  0  0  0  0  0  0  0  0
   28.5999   12.1193   21.7001 C   0  0  0  0  0  0  0  0  0  0  0  0
   31.1173   12.4215   24.9290 C   0  0  0  0  0  0  0  0  0  0  0  0
   27.2022   14.0085   22.4002 C   0  0  0  0  0  0  0  0  0  0  0  0
   28.7060   12.4326   25.3741 C   0  0  0  0  0  0  0  0  0  0  0  0
   29.5266   13.8045   23.4092 C   0  0  0  0  0  0  0  0  0  0  0  0
   27.5337   11.6564   20.8876 C   0  0  0  0  0  0  0  0  0  0  0  0
   31.2752   11.4520   25.9560 C   0  0  0  0  0  0  0  0  0  0  0  0
   26.1353   13.5094   21.6181 C   0  0  0  0  0  0  0  0  0  0  0  0
   28.8782   11.4395   26.3631 C   0  0  0  0  0  0  0  0  0  0  0  0
   26.3207   12.3483   20.8598 C   0  0  0  0  0  0  0  0  0  0  0  0
   30.1615   10.9621   26.6410 C   0  0  0  0  0  0  0  0  0  0  0  0
   29.8156   11.3976   21.6840 C   0  0  0  0  0  0  0  0  0  0  0  0
   32.2890   12.9268   24.3122 C   0  0  0  0  0  0  0  0  0  0  0  0
   24.8006   14.1475   21.6084 C   0  0  0  0  0  0  0  0  0  0  0  0
   27.7334   10.8474   27.0902 C   0  0  0  0  0  0  0  0  0  0  0  0
   27.6882   10.4947   20.1127 C   0  0  0  0  0  0  0  0  0  0  0  0
   32.5529   10.9752   26.2938 C   0  0  0  0  0  0  0  0  0  0  0  0
   29.9539   10.2456   20.9071 C   0  0  0  0  0  0  0  0  0  0  0  0
   33.5516   12.4454   24.6658 C   0  0  0  0  0  0  0  0  0  0  0  0
   28.8927    9.7932   20.1265 C   0  0  0  0  0  0  0  0  0  0  0  0
   33.6830   11.4667   25.6458 C   0  0  0  0  0  0  0  0  0  0  0  0
   26.3327   15.8835   22.9249 H   0  0  0  0  0  0  0  0  0  0  0  0
   26.6867   12.9443   25.8271 H   0  0  0  0  0  0  0  0  0  0  0  0
   23.3391   15.0942   22.7831 H   0  0  0  0  0  0  0  0  0  0  0  0
   25.7425   10.1978   26.9249 H   0  0  0  0  0  0  0  0  0  0  0  0
   29.2913   14.7997   23.8385 H   0  0  0  0  0  0  0  0  0  0  0  0
   30.3967   13.9800   22.7567 H   0  0  0  0  0  0  0  0  0  0  0  0
   25.5031   11.9674   20.2568 H   0  0  0  0  0  0  0  0  0  0  0  0
   30.2946   10.1993   27.4009 H   0  0  0  0  0  0  0  0  0  0  0  0
   30.6744   11.7143   22.2537 H   0  0  0  0  0  0  0  0  0  0  0  0
   32.2724   13.7129   23.5773 H   0  0  0  0  0  0  0  0  0  0  0  0
   26.8766   10.1298   19.4941 H   0  0  0  0  0  0  0  0  0  0  0  0
   32.6782   10.2261   27.0669 H   0  0  0  0  0  0  0  0  0  0  0  0
   30.8909    9.7035   20.9078 H   0  0  0  0  0  0  0  0  0  0  0  0
   34.4351   12.8412   24.1810 H   0  0  0  0  0  0  0  0  0  0  0  0
   29.0056    8.8997   19.5260 H   0  0  0  0  0  0  0  0  0  0  0  0
   34.6646   11.0983   25.9147 H   0  0  0  0  0  0  0  0  0  0  0  0
  1 11  1  0
  2 12  1  0
  3 22  2  0
  4 23  2  0
  5 22  1  0
  6 23  1  0
  7  9  1  0
  7 11  2  0
  7 13  1  0
  8 10  1  0
  8 12  2  0
  8 13  1  0
  9 14  2  0
  9 20  1  0
 10 15  2  0
 10 21  1  0
 11 16  1  0
 12 17  1  0
 14 18  1  0
 14 24  1  0
 15 19  1  0
 15 25  1  0
 16 18  2  0
 16 22  1  0
 17 19  2  0
 17 23  1  0
 20 26  2  0
 21 27  2  0
 24 28  2  0
 25 29  2  0
 26 28  1  0
 27 29  1  0
  1 30  1  0
  2 31  1  0
  5 32  1  0
  6 33  1  0
 13 34  1  0
 13 35  1  0
 18 36  1  0
 19 37  1  0
 20 38  1  0
 21 39  1  0
 24 40  1  0
 25 41  1  0
 26 42  1  0
 27 43  1  0
 28 44  1  0
 29 45  1  0
M  END
> <Uni-Dock RESULT> 
ENERGY=   -4.062  LOWER_BOUND=    7.295  UPPER_BOUND=   11.584
INTER + INTRA:          -4.062
INTER:                  -4.062
INTRA:                   0.000
UNBOUND:                 0.000

$$$$

     RDKit          3D

 45 48  0  0  0  0  0  0  0  0999 V2000
   27.0029   15.3093   23.5544 O   0  0  0  0  0  0  0  0  0  0  0  0
   27.2356   12.9666   25.5044 O   0  0  0  0  0  0  0  0  0  0  0  0
   24.1163   14.5304   20.8360 O   0  0  0  0  0  0  0  0  0  0  0  0
   27.4402   10.1791   28.4209 O   0  0  0  0  0  0  0  0  0  0  0  0
   24.1794   14.8634   23.1022 O   0  0  0  0  0  0  0  0  0  0  0  0
   26.1826   10.4825   26.5296 O   0  0  0  0  0  0  0  0  0  0  0  0
   28.3118   13.3862   22.8707 C   0  0  0  0  0  0  0  0  0  0  0  0
   29.5914   12.7551   24.9757 C   0  0  0  0  0  0  0  0  0  0  0  0
   28.4909   12.2709   22.0039 C   0  0  0  0  0  0  0  0  0  0  0  0
   30.8797   12.2566   25.3428 C   0  0  0  0  0  0  0  0  0  0  0  0
   27.1156   14.1425   22.7902 C   0  0  0  0  0  0  0  0  0  0  0  0
   28.4532   12.3050   25.6924 C   0  0  0  0  0  0  0  0  0  0  0  0
   29.3901   13.7956   23.8712 C   0  0  0  0  0  0  0  0  0  0  0  0
   27.4475   11.9016   21.1174 C   0  0  0  0  0  0  0  0  0  0  0  0
   30.9695   11.2087   26.2985 C   0  0  0  0  0  0  0  0  0  0  0  0
   26.0692   13.7349   21.9311 C   0  0  0  0  0  0  0  0  0  0  0  0
   28.5582   11.2361   26.6091 C   0  0  0  0  0  0  0  0  0  0  0  0
   26.2552   12.6289   21.0946 C   0  0  0  0  0  0  0  0  0  0  0  0
   29.8160   10.7018   26.9001 C   0  0  0  0  0  0  0  0  0  0  0  0
   29.6869   11.5171   21.9807 C   0  0  0  0  0  0  0  0  0  0  0  0
   32.0888   12.7722   24.8126 C   0  0  0  0  0  0  0  0  0  0  0  0
   24.7532   14.4107   21.9175 C   0  0  0  0  0  0  0  0  0  0  0  0
   27.3692   10.6250   27.2437 C   0  0  0  0  0  0  0  0  0  0  0  0
   27.6033   10.7971   20.2632 C   0  0  0  0  0  0  0  0  0  0  0  0
   32.2192   10.6708   26.6491 C   0  0  0  0  0  0  0  0  0  0  0  0
   29.8269   10.4229   21.1246 C   0  0  0  0  0  0  0  0  0  0  0  0
   33.3227   12.2288   25.1779 C   0  0  0  0  0  0  0  0  0  0  0  0
   28.7874   10.0615   20.2709 C   0  0  0  0  0  0  0  0  0  0  0  0
   33.3876   11.1760   26.0851 C   0  0  0  0  0  0  0  0  0  0  0  0
   26.2746   15.9976   23.4213 H   0  0  0  0  0  0  0  0  0  0  0  0
   26.4310   12.8404   26.1034 H   0  0  0  0  0  0  0  0  0  0  0  0
   23.2698   15.3093   23.1025 H   0  0  0  0  0  0  0  0  0  0  0  0
   25.3704   10.0482   26.9514 H   0  0  0  0  0  0  0  0  0  0  0  0
   29.1635   14.7622   24.3653 H   0  0  0  0  0  0  0  0  0  0  0  0
   30.2908   13.9938   23.2686 H   0  0  0  0  0  0  0  0  0  0  0  0
   25.4535   12.3183   20.4329 H   0  0  0  0  0  0  0  0  0  0  0  0
   29.8974    9.8807   27.6045 H   0  0  0  0  0  0  0  0  0  0  0  0
   30.5294   11.7649   22.6061 H   0  0  0  0  0  0  0  0  0  0  0  0
   32.1232   13.6112   24.1395 H   0  0  0  0  0  0  0  0  0  0  0  0
   26.8086   10.5035   19.5872 H   0  0  0  0  0  0  0  0  0  0  0  0
   32.2927    9.8625   27.3673 H   0  0  0  0  0  0  0  0  0  0  0  0
   30.7485    9.8551   21.1210 H   0  0  0  0  0  0  0  0  0  0  0  0
   34.2355   12.6337   24.7596 H   0  0  0  0  0  0  0  0  0  0  0  0
   28.9015    9.2126   19.6091 H   0  0  0  0  0  0  0  0  0  0  0  0
   34.3472   10.7600   26.3636 H   0  0  0  0  0  0  0  0  0  0  0  0
  1 11  1  0
  2 12  1  0
  3 22  2  0
  4 23  2  0
  5 22  1  0
  6 23  1  0
  7  9  1  0
  7 11  2  0
  7 13  1  0
  8 10  1  0
  8 12  2  0
  8 13  1  0
  9 14  2  0
  9 20  1  0
 10 15  2  0
 10 21  1  0
 11 16  1  0
 12 17  1  0
 14 18  1  0
 14 24  1  0
 15 19  1  0
 15 25  1  0
 16 18  2  0
 16 22  1  0
 17 19  2  0
 17 23  1  0
 20 26  2  0
 21 27  2  0
 24 28  2  0
 25 29  2  0
 26 28  1  0
 27 29  1  0
  1 30  1  0
  2 31  1  0
  5 32  1  0
  6 33  1  0
 13 34  1  0
 13 35  1  0
 18 36  1  0
 19 37  1  0
 20 38  1  0
 21 39  1  0
 24 40  1  0
 25 41  1  0
 26 42  1  0
 27 43  1  0
 28 44  1  0
 29 45  1  0
M  END
> <Uni-Dock RESULT> 
ENERGY=   -3.981  LOWER_BOUND=    6.906  UPPER_BOUND=   11.357
INTER + INTRA:          -3.981
INTER:                  -3.981
INTRA:                   0.000
UNBOUND:                 0.000

$$$$

     RDKit          3D

 45 48  0  0  0  0  0  0  0  0999 V2000
   26.0530    6.2921   32.0215 O   0  0  0  0  0  0  0  0  0  0  0  0
   27.8052    4.9015   29.9379 O   0  0  0  0  0  0  0  0  0  0  0  0
   27.2630   10.1208   32.4745 O   0  0  0  0  0  0  0  0  0  0  0  0
   29.7252    2.9914   26.9408 O   0  0  0  0  0  0  0  0  0  0  0  0
   26.3475    8.8870   30.7744 O   0  0  0  0  0  0  0  0  0  0  0  0
   29.8231    5.0783   27.8819 O   0  0  0  0  0  0  0  0  0  0  0  0
   28.1980    5.4190   32.7395 C   0  0  0  0  0  0  0  0  0  0  0  0
   28.3601    3.1778   31.5489 C   0  0  0  0  0  0  0  0  0  0  0  0
   29.5148    5.6523   33.2283 C   0  0  0  0  0  0  0  0  0  0  0  0
   28.8568    1.8609   31.7976 C   0  0  0  0  0  0  0  0  0  0  0  0
   27.3860    6.5235   32.3787 C   0  0  0  0  0  0  0  0  0  0  0  0
   28.4996    3.7283   30.2491 C   0  0  0  0  0  0  0  0  0  0  0  0
   27.6363    4.0047   32.6144 C   0  0  0  0  0  0  0  0  0  0  0  0
   30.0110    6.9793   33.2909 C   0  0  0  0  0  0  0  0  0  0  0  0
   29.6170    1.2066   30.7909 C   0  0  0  0  0  0  0  0  0  0  0  0
   27.9114    7.8358   32.4072 C   0  0  0  0  0  0  0  0  0  0  0  0
   29.2919    3.0805   29.2762 C   0  0  0  0  0  0  0  0  0  0  0  0
   29.2118    8.0478   32.8778 C   0  0  0  0  0  0  0  0  0  0  0  0
   29.8404    1.8273   29.5603 C   0  0  0  0  0  0  0  0  0  0  0  0
   30.3520    4.6032   33.6730 C   0  0  0  0  0  0  0  0  0  0  0  0
   28.6112    1.1559   33.0024 C   0  0  0  0  0  0  0  0  0  0  0  0
   27.1481    9.0005   31.9076 C   0  0  0  0  0  0  0  0  0  0  0  0
   29.6033    3.7066   27.9719 C   0  0  0  0  0  0  0  0  0  0  0  0
   31.3120    7.2263   33.7602 C   0  0  0  0  0  0  0  0  0  0  0  0
   30.1526   -0.0716   31.0218 C   0  0  0  0  0  0  0  0  0  0  0  0
   31.6421    4.8653   34.1384 C   0  0  0  0  0  0  0  0  0  0  0  0
   29.1466   -0.1171   33.2116 C   0  0  0  0  0  0  0  0  0  0  0  0
   32.1223    6.1721   34.1787 C   0  0  0  0  0  0  0  0  0  0  0  0
   29.9222   -0.7250   32.2295 C   0  0  0  0  0  0  0  0  0  0  0  0
   25.3622    7.0246   31.9315 H   0  0  0  0  0  0  0  0  0  0  0  0
   27.6950    5.2546   28.9970 H   0  0  0  0  0  0  0  0  0  0  0  0
   25.8377    9.6854   30.4155 H   0  0  0  0  0  0  0  0  0  0  0  0
   30.0550    5.5110   26.9958 H   0  0  0  0  0  0  0  0  0  0  0  0
   26.5569    3.9993   32.3600 H   0  0  0  0  0  0  0  0  0  0  0  0
   27.6869    3.5773   33.6285 H   0  0  0  0  0  0  0  0  0  0  0  0
   29.6136    9.0553   32.9030 H   0  0  0  0  0  0  0  0  0  0  0  0
   30.4490    1.3289   28.8131 H   0  0  0  0  0  0  0  0  0  0  0  0
   30.0237    3.5763   33.6816 H   0  0  0  0  0  0  0  0  0  0  0  0
   27.9875    1.5410   33.7904 H   0  0  0  0  0  0  0  0  0  0  0  0
   31.7019    8.2365   33.8051 H   0  0  0  0  0  0  0  0  0  0  0  0
   30.7445   -0.5698   30.2628 H   0  0  0  0  0  0  0  0  0  0  0  0
   32.2709    4.0502   34.4732 H   0  0  0  0  0  0  0  0  0  0  0  0
   28.9509   -0.6387   34.1400 H   0  0  0  0  0  0  0  0  0  0  0  0
   33.1231    6.3695   34.5407 H   0  0  0  0  0  0  0  0  0  0  0  0
   30.3338   -1.7117   32.3986 H   0  0  0  0  0  0  0  0  0  0  0  0
  1 11  1  0
  2 12  1  0
  3 22  2  0
  4 23  2  0
  5 22  1  0
  6 23  1  0
  7  9  1  0
  7 11  2  0
  7 13  1  0
  8 10  1  0
  8 12  2  0
  8 13  1  0
  9 14  2  0
  9 20  1  0
 10 15  2  0
 10 21  1  0
 11 16  1  0
 12 17  1  0
 14 18  1  0
 14 24  1  0
 15 19  1  0
 15 25  1  0
 16 18  2  0
 16 22  1  0
 17 19  2  0
 17 23  1  0
 20 26  2  0
 21 27  2  0
 24 28  2  0
 25 29  2  0
 26 28  1  0
 27 29  1  0
  1 30  1  0
  2 31  1  0
  5 32  1  0
  6 33  1  0
 13 34  1  0
 13 35  1  0
 18 36  1  0
 19 37  1  0
 20 38  1  0
 21 39  1  0
 24 40  1  0
 25 41  1  0
 26 42  1  0
 27 43  1  0
 28 44  1  0
 29 45  1  0
M  END
> <Uni-Dock RESULT> 
ENERGY=   -3.717  LOWER_BOUND=    5.685  UPPER_BOUND=   10.074
INTER + INTRA:          -3.717
INTER:                  -3.717
INTRA:                   0.000
UNBOUND:                 0.000

$$$$

     RDKit          3D

 45 48  0  0  0  0  0  0  0  0999 V2000
   24.3060   13.2497   19.8967 O   0  0  0  0  0  0  0  0  0  0  0  0
   27.0254   14.1668   18.8437 O   0  0  0  0  0  0  0  0  0  0  0  0
   23.0043   15.8295   22.7213 O   0  0  0  0  0  0  0  0  0  0  0  0
   30.4159   15.4038   17.0292 O   0  0  0  0  0  0  0  0  0  0  0  0
   23.4376   15.9492   20.4744 O   0  0  0  0  0  0  0  0  0  0  0  0
   29.0750   16.1946   18.7106 O   0  0  0  0  0  0  0  0  0  0  0  0
   26.2778   12.6716   21.1839 C   0  0  0  0  0  0  0  0  0  0  0  0
   27.9767   12.0110   19.4108 C   0  0  0  0  0  0  0  0  0  0  0  0
   27.0476   12.8067   22.3740 C   0  0  0  0  0  0  0  0  0  0  0  0
   29.0300   11.0618   19.2308 C   0  0  0  0  0  0  0  0  0  0  0  0
   25.1257   13.4785   21.0074 C   0  0  0  0  0  0  0  0  0  0  0  0
   28.1369   13.3193   18.8871 C   0  0  0  0  0  0  0  0  0  0  0  0
   26.6570   11.6619   20.1031 C   0  0  0  0  0  0  0  0  0  0  0  0
   26.6826   13.7847   23.3339 C   0  0  0  0  0  0  0  0  0  0  0  0
   30.2664   11.4962   18.6811 C   0  0  0  0  0  0  0  0  0  0  0  0
   24.8011   14.4771   21.9543 C   0  0  0  0  0  0  0  0  0  0  0  0
   29.3856   13.7425   18.3814 C   0  0  0  0  0  0  0  0  0  0  0  0
   25.5750   14.6064   23.1127 C   0  0  0  0  0  0  0  0  0  0  0  0
   30.4344   12.8245   18.2850 C   0  0  0  0  0  0  0  0  0  0  0  0
   28.1656   11.9853   22.6473 C   0  0  0  0  0  0  0  0  0  0  0  0
   28.8984    9.6887   19.5567 C   0  0  0  0  0  0  0  0  0  0  0  0
   23.6920   15.4328   21.7418 C   0  0  0  0  0  0  0  0  0  0  0  0
   29.6399   15.1465   17.9891 C   0  0  0  0  0  0  0  0  0  0  0  0
   27.4378   13.9388   24.5086 C   0  0  0  0  0  0  0  0  0  0  0  0
   31.3336   10.5950   18.5300 C   0  0  0  0  0  0  0  0  0  0  0  0
   28.9050   12.1499   23.8204 C   0  0  0  0  0  0  0  0  0  0  0  0
   29.9686    8.8059   19.3935 C   0  0  0  0  0  0  0  0  0  0  0  0
   28.5447   13.1257   24.7467 C   0  0  0  0  0  0  0  0  0  0  0  0
   31.1845    9.2586   18.8911 C   0  0  0  0  0  0  0  0  0  0  0  0
   23.3815   13.6449   19.7921 H   0  0  0  0  0  0  0  0  0  0  0  0
   27.0009   15.0325   18.3222 H   0  0  0  0  0  0  0  0  0  0  0  0
   22.6923   16.6190   20.3255 H   0  0  0  0  0  0  0  0  0  0  0  0
   29.2598   17.1584   18.4593 H   0  0  0  0  0  0  0  0  0  0  0  0
   25.8824   11.5762   19.3140 H   0  0  0  0  0  0  0  0  0  0  0  0
   26.6559   10.6806   20.6038 H   0  0  0  0  0  0  0  0  0  0  0  0
   25.3237   15.3704   23.8410 H   0  0  0  0  0  0  0  0  0  0  0  0
   31.3940   13.1489   17.8963 H   0  0  0  0  0  0  0  0  0  0  0  0
   28.4761   11.2024   21.9743 H   0  0  0  0  0  0  0  0  0  0  0  0
   27.9788    9.2554   19.9098 H   0  0  0  0  0  0  0  0  0  0  0  0
   27.1703   14.6881   25.2445 H   0  0  0  0  0  0  0  0  0  0  0  0
   32.2832   10.9236   18.1239 H   0  0  0  0  0  0  0  0  0  0  0  0
   29.7595   11.5139   24.0132 H   0  0  0  0  0  0  0  0  0  0  0  0
   29.8501    7.7611   19.6512 H   0  0  0  0  0  0  0  0  0  0  0  0
   29.1213   13.2486   25.6545 H   0  0  0  0  0  0  0  0  0  0  0  0
   32.0094    8.5688   18.7673 H   0  0  0  0  0  0  0  0  0  0  0  0
  1 11  1  0
  2 12  1  0
  3 22  2  0
  4 23  2  0
  5 22  1  0
  6 23  1  0
  7  9  1  0
  7 11  2  0
  7 13  1  0
  8 10  1  0
  8 12  2  0
  8 13  1  0
  9 14  2  0
  9 20  1  0
 10 15  2  0
 10 21  1  0
 11 16  1  0
 12 17  1  0
 14 18  1  0
 14 24  1  0
 15 19  1  0
 15 25  1  0
 16 18  2  0
 16 22  1  0
 17 19  2  0
 17 23  1  0
 20 26  2  0
 21 27  2  0
 24 28  2  0
 25 29  2  0
 26 28  1  0
 27 29  1  0
  1 30  1  0
  2 31  1  0
  5 32  1  0
  6 33  1  0
 13 34  1  0
 13 35  1  0
 18 36  1  0
 19 37  1  0
 20 38  1  0
 21 39  1  0
 24 40  1  0
 25 41  1  0
 26 42  1  0
 27 43  1  0
 28 44  1  0
 29 45  1  0
M  END
> <Uni-Dock RESULT> 
ENERGY=   -3.680  LOWER_BOUND=   10.399  UPPER_BOUND=   13.338
INTER + INTRA:          -3.680
INTER:                  -3.680
INTRA:                   0.000
UNBOUND:                 0.000

$$$$

     RDKit          3D

 45 48  0  0  0  0  0  0  0  0999 V2000
   27.2279   12.2415   25.8558 O   0  0  0  0  0  0  0  0  0  0  0  0
   29.2781   13.6831   27.6062 O   0  0  0  0  0  0  0  0  0  0  0  0
   24.3834   10.5735   28.1913 O   0  0  0  0  0  0  0  0  0  0  0  0
   31.8708   15.9789   29.6858 O   0  0  0  0  0  0  0  0  0  0  0  0
   25.0651   12.7100   27.7208 O   0  0  0  0  0  0  0  0  0  0  0  0
   30.0587   14.6748   30.2019 O   0  0  0  0  0  0  0  0  0  0  0  0
   28.9869   10.9177   26.8720 C   0  0  0  0  0  0  0  0  0  0  0  0
   31.0566   12.3719   26.6102 C   0  0  0  0  0  0  0  0  0  0  0  0
   29.3835    9.9058   27.7917 C   0  0  0  0  0  0  0  0  0  0  0  0
   32.4532   12.2183   26.3483 C   0  0  0  0  0  0  0  0  0  0  0  0
   27.6342   11.3410   26.8467 C   0  0  0  0  0  0  0  0  0  0  0  0
   30.6378   13.3651   27.5321 C   0  0  0  0  0  0  0  0  0  0  0  0
   29.9847   11.5421   25.8993 C   0  0  0  0  0  0  0  0  0  0  0  0
   28.4333    9.3812   28.7045 C   0  0  0  0  0  0  0  0  0  0  0  0
   33.3885   12.9458   27.1329 C   0  0  0  0  0  0  0  0  0  0  0  0
   26.7107   10.8382   27.7919 C   0  0  0  0  0  0  0  0  0  0  0  0
   31.5818   14.0484   28.3296 C   0  0  0  0  0  0  0  0  0  0  0  0
   27.1187    9.8534   28.6981 C   0  0  0  0  0  0  0  0  0  0  0  0
   32.9456   13.8294   28.1192 C   0  0  0  0  0  0  0  0  0  0  0  0
   30.6981    9.3862   27.8219 C   0  0  0  0  0  0  0  0  0  0  0  0
   32.9608   11.3838   25.3212 C   0  0  0  0  0  0  0  0  0  0  0  0
   25.3276   11.3537   27.8926 C   0  0  0  0  0  0  0  0  0  0  0  0
   31.1751   14.9613   29.4210 C   0  0  0  0  0  0  0  0  0  0  0  0
   28.8105    8.3902   29.6261 C   0  0  0  0  0  0  0  0  0  0  0  0
   34.7687   12.7846   26.9257 C   0  0  0  0  0  0  0  0  0  0  0  0
   31.0570    8.4000   28.7431 C   0  0  0  0  0  0  0  0  0  0  0  0
   34.3364   11.2410   25.1258 C   0  0  0  0  0  0  0  0  0  0  0  0
   30.1175    7.9058   29.6448 C   0  0  0  0  0  0  0  0  0  0  0  0
   35.2374   11.9310   25.9307 C   0  0  0  0  0  0  0  0  0  0  0  0
   26.2601   12.4499   25.6513 H   0  0  0  0  0  0  0  0  0  0  0  0
   28.9181   14.4959   28.0876 H   0  0  0  0  0  0  0  0  0  0  0  0
   24.1233   13.0726   27.8079 H   0  0  0  0  0  0  0  0  0  0  0  0
   29.7852   15.2854   30.9625 H   0  0  0  0  0  0  0  0  0  0  0  0
   29.4939   12.2031   25.1563 H   0  0  0  0  0  0  0  0  0  0  0  0
   30.3829   10.7028   25.3071 H   0  0  0  0  0  0  0  0  0  0  0  0
   26.4090    9.4650   29.4210 H   0  0  0  0  0  0  0  0  0  0  0  0
   33.6715   14.3542   28.7314 H   0  0  0  0  0  0  0  0  0  0  0  0
   31.4587    9.7189   27.1341 H   0  0  0  0  0  0  0  0  0  0  0  0
   32.3283   10.8516   24.6319 H   0  0  0  0  0  0  0  0  0  0  0  0
   28.0928    7.9884   30.3319 H   0  0  0  0  0  0  0  0  0  0  0  0
   35.4867   13.3267   27.5300 H   0  0  0  0  0  0  0  0  0  0  0  0
   32.0685    8.0145   28.7542 H   0  0  0  0  0  0  0  0  0  0  0  0
   34.7054   10.5962   24.3382 H   0  0  0  0  0  0  0  0  0  0  0  0
   30.4011    7.1411   30.3564 H   0  0  0  0  0  0  0  0  0  0  0  0
   36.3020   11.8155   25.7735 H   0  0  0  0  0  0  0  0  0  0  0  0
  1 11  1  0
  2 12  1  0
  3 22  2  0
  4 23  2  0
  5 22  1  0
  6 23  1  0
  7  9  1  0
  7 11  2  0
  7 13  1  0
  8 10  1  0
  8 12  2  0
  8 13  1  0
  9 14  2  0
  9 20  1  0
 10 15  2  0
 10 21  1  0
 11 16  1  0
 12 17  1  0
 14 18  1  0
 14 24  1  0
 15 19  1  0
 15 25  1  0
 16 18  2  0
 16 22  1  0
 17 19  2  0
 17 23  1  0
 20 26  2  0
 21 27  2  0
 24 28  2  0
 25 29  2  0
 26 28  1  0
 27 29  1  0
  1 30  1  0
  2 31  1  0
  5 32  1  0
  6 33  1  0
 13 34  1  0
 13 35  1  0
 18 36  1  0
 19 37  1  0
 20 38  1  0
 21 39  1  0
 24 40  1  0
 25 41  1  0
 26 42  1  0
 27 43  1  0
 28 44  1  0
 29 45  1  0
M  END
> <Uni-Dock RESULT> 
ENERGY=   -3.609  LOWER_BOUND=    6.416  UPPER_BOUND=   10.108
INTER + INTRA:          -3.609
INTER:                  -3.609
INTRA:                   0.000
UNBOUND:                 0.000

$$$$

     RDKit          3D

 45 48  0  0  0  0  0  0  0  0999 V2000
   28.5061    9.7151   19.4008 O   0  0  0  0  0  0  0  0  0  0  0  0
   28.6499   10.9197   22.2068 O   0  0  0  0  0  0  0  0  0  0  0  0
   32.1948    9.6727   17.7516 O   0  0  0  0  0  0  0  0  0  0  0  0
   28.6696   12.1016   26.0695 O   0  0  0  0  0  0  0  0  0  0  0  0
   31.1942    8.6527   19.5430 O   0  0  0  0  0  0  0  0  0  0  0  0
   30.2453   11.8489   24.4252 O   0  0  0  0  0  0  0  0  0  0  0  0
   28.5095   12.1314   19.6024 C   0  0  0  0  0  0  0  0  0  0  0  0
   26.9835   12.5677   21.5892 C   0  0  0  0  0  0  0  0  0  0  0  0
   29.1573   13.3791   19.3772 C   0  0  0  0  0  0  0  0  0  0  0  0
   26.0076   13.5250   22.0064 C   0  0  0  0  0  0  0  0  0  0  0  0
   29.1948   10.9287   19.2969 C   0  0  0  0  0  0  0  0  0  0  0  0
   27.8672   12.0245   22.5565 C   0  0  0  0  0  0  0  0  0  0  0  0
   27.0849   12.0632   20.1477 C   0  0  0  0  0  0  0  0  0  0  0  0
   30.4951   13.3960   18.9070 C   0  0  0  0  0  0  0  0  0  0  0  0
   26.0541   14.0263   23.3354 C   0  0  0  0  0  0  0  0  0  0  0  0
   30.5422   10.9631   18.8696 C   0  0  0  0  0  0  0  0  0  0  0  0
   27.9243   12.5640   23.8603 C   0  0  0  0  0  0  0  0  0  0  0  0
   31.1695   12.1969   18.6654 C   0  0  0  0  0  0  0  0  0  0  0  0
   27.0163   13.5584   24.2325 C   0  0  0  0  0  0  0  0  0  0  0  0
   28.5077   14.6166   19.5917 C   0  0  0  0  0  0  0  0  0  0  0  0
   24.9705   13.9918   21.1606 C   0  0  0  0  0  0  0  0  0  0  0  0
   31.3381    9.7313   18.6748 C   0  0  0  0  0  0  0  0  0  0  0  0
   28.9497   12.1434   24.8409 C   0  0  0  0  0  0  0  0  0  0  0  0
   31.1529   14.6183   18.6901 C   0  0  0  0  0  0  0  0  0  0  0  0
   25.1333   14.9980   23.7618 C   0  0  0  0  0  0  0  0  0  0  0  0
   29.1748   15.8231   19.3697 C   0  0  0  0  0  0  0  0  0  0  0  0
   24.0599   14.9536   21.6042 C   0  0  0  0  0  0  0  0  0  0  0  0
   30.4943   15.8245   18.9237 C   0  0  0  0  0  0  0  0  0  0  0  0
   24.1463   15.4620   22.8964 C   0  0  0  0  0  0  0  0  0  0  0  0
   28.8532    8.8408   19.0308 H   0  0  0  0  0  0  0  0  0  0  0  0
   29.1577   10.3581   22.8767 H   0  0  0  0  0  0  0  0  0  0  0  0
   31.7502    7.8138   19.4271 H   0  0  0  0  0  0  0  0  0  0  0  0
   30.9573   11.5784   25.0932 H   0  0  0  0  0  0  0  0  0  0  0  0
   26.6736   11.0334   20.1283 H   0  0  0  0  0  0  0  0  0  0  0  0
   26.4674   12.6247   19.4286 H   0  0  0  0  0  0  0  0  0  0  0  0
   32.2023   12.2232   18.3340 H   0  0  0  0  0  0  0  0  0  0  0  0
   27.0594   13.9731   25.2341 H   0  0  0  0  0  0  0  0  0  0  0  0
   27.4816   14.6731   19.9176 H   0  0  0  0  0  0  0  0  0  0  0  0
   24.8127   13.6164   20.1644 H   0  0  0  0  0  0  0  0  0  0  0  0
   32.1775   14.6408   18.3374 H   0  0  0  0  0  0  0  0  0  0  0  0
   25.1724   15.3937   24.7700 H   0  0  0  0  0  0  0  0  0  0  0  0
   28.6634   16.7617   19.5410 H   0  0  0  0  0  0  0  0  0  0  0  0
   23.2764   15.3005   20.9424 H   0  0  0  0  0  0  0  0  0  0  0  0
   31.0064   16.7627   18.7530 H   0  0  0  0  0  0  0  0  0  0  0  0
   23.4372   16.2071   23.2334 H   0  0  0  0  0  0  0  0  0  0  0  0
  1 11  1  0
  2 12  1  0
  3 22  2  0
  4 23  2  0
  5 22  1  0
  6 23  1  0
  7  9  1  0
  7 11  2  0
  7 13  1  0
  8 10  1  0
  8 12  2  0
  8 13  1  0
  9 14  2  0
  9 20  1  0
 10 15  2  0
 10 21  1  0
 11 16  1  0
 12 17  1  0
 14 18  1  0
 14 24  1  0
 15 19  1  0
 15 25  1  0
 16 18  2  0
 16 22  1  0
 17 19  2  0
 17 23  1  0
 20 26  2  0
 21 27  2  0
 24 28  2  0
 25 29  2  0
 26 28  1  0
 27 29  1  0
  1 30  1  0
  2 31  1  0
  5 32  1  0
  6 33  1  0
 13 34  1  0
 13 35  1  0
 18 36  1  0
 19 37  1  0
 20 38  1  0
 21 39  1  0
 24 40  1  0
 25 41  1  0
 26 42  1  0
 27 43  1  0
 28 44  1  0
 29 45  1  0
M  END
> <Uni-Dock RESULT> 
ENERGY=   -3.601  LOWER_BOUND=    9.279  UPPER_BOUND=   12.552
INTER + INTRA:          -3.601
INTER:                  -3.601
INTRA:                   0.000
UNBOUND:                 0.000

$$$$
