
     RDKit          3D

 45 48  0  0  0  0  0  0  0  0999 V2000
   25.8702    1.3188   32.2591 O   0  0  0  0  0  0  0  0  0  0  0  0
   27.7625    4.7894   29.8748 O   0  0  0  0  0  0  0  0  0  0  0  0
   23.1846    0.3331   32.4721 O   0  0  0  0  0  0  0  0  0  0  0  0
   29.7718    4.8851   27.8295 O   0  0  0  0  0  0  0  0  0  0  0  0
   22.0807    0.9065   30.5480 O   0  0  0  0  0  0  0  0  0  0  0  0
   29.7708    2.8583   26.7610 O   0  0  0  0  0  0  0  0  0  0  0  0
   25.8558    3.7188   31.9441 C   0  0  0  0  0  0  0  0  0  0  0  0
   28.2320    2.9879   31.4219 C   0  0  0  0  0  0  0  0  0  0  0  0
   25.1644    4.9084   31.5499 C   0  0  0  0  0  0  0  0  0  0  0  0
   28.8846    1.7474   31.7116 C   0  0  0  0  0  0  0  0  0  0  0  0
   25.1718    2.4770   31.9051 C   0  0  0  0  0  0  0  0  0  0  0  0
   28.4344    3.5964   30.1570 C   0  0  0  0  0  0  0  0  0  0  0  0
   27.3126    3.7069   32.4110 C   0  0  0  0  0  0  0  0  0  0  0  0
   23.8237    4.8066   31.0877 C   0  0  0  0  0  0  0  0  0  0  0  0
   29.6838    1.1367   30.7068 C   0  0  0  0  0  0  0  0  0  0  0  0
   23.8225    2.4093   31.4898 C   0  0  0  0  0  0  0  0  0  0  0  0
   29.2746    2.9942   29.1931 C   0  0  0  0  0  0  0  0  0  0  0  0
   23.1786    3.5691   31.0561 C   0  0  0  0  0  0  0  0  0  0  0  0
   29.8603    1.7578   29.4692 C   0  0  0  0  0  0  0  0  0  0  0  0
   25.7498    6.1999   31.5902 C   0  0  0  0  0  0  0  0  0  0  0  0
   28.7748    1.0816   32.9593 C   0  0  0  0  0  0  0  0  0  0  0  0
   23.0382    1.1550   31.5279 C   0  0  0  0  0  0  0  0  0  0  0  0
   29.5958    3.6392   27.9005 C   0  0  0  0  0  0  0  0  0  0  0  0
   23.1235    5.9521   30.6730 C   0  0  0  0  0  0  0  0  0  0  0  0
   30.3211   -0.0916   30.9511 C   0  0  0  0  0  0  0  0  0  0  0  0
   25.0369    7.3269   31.1751 C   0  0  0  0  0  0  0  0  0  0  0  0
   29.4173   -0.1381   33.1836 C   0  0  0  0  0  0  0  0  0  0  0  0
   23.7300    7.2039   30.7158 C   0  0  0  0  0  0  0  0  0  0  0  0
   30.1852   -0.7242   32.1833 C   0  0  0  0  0  0  0  0  0  0  0  0
   25.5371    0.3818   32.0787 H   0  0  0  0  0  0  0  0  0  0  0  0
   27.6876    5.1895   28.9498 H   0  0  0  0  0  0  0  0  0  0  0  0
   21.5191    0.0638   30.5714 H   0  0  0  0  0  0  0  0  0  0  0  0
   30.0134    3.2810   25.8730 H   0  0  0  0  0  0  0  0  0  0  0  0
   27.7398    4.7060   32.5846 H   0  0  0  0  0  0  0  0  0  0  0  0
   27.3247    3.2858   33.4277 H   0  0  0  0  0  0  0  0  0  0  0  0
   22.1462    3.5142   30.7270 H   0  0  0  0  0  0  0  0  0  0  0  0
   30.4962    1.2910   28.7242 H   0  0  0  0  0  0  0  0  0  0  0  0
   26.7546    6.3821   31.9263 H   0  0  0  0  0  0  0  0  0  0  0  0
   28.1980    1.4625   33.7828 H   0  0  0  0  0  0  0  0  0  0  0  0
   22.1018    5.8793   30.3186 H   0  0  0  0  0  0  0  0  0  0  0  0
   30.9301   -0.5616   30.1877 H   0  0  0  0  0  0  0  0  0  0  0  0
   25.5037    8.3032   31.2090 H   0  0  0  0  0  0  0  0  0  0  0  0
   29.3165   -0.6327   34.1414 H   0  0  0  0  0  0  0  0  0  0  0  0
   23.1839    8.0819   30.3954 H   0  0  0  0  0  0  0  0  0  0  0  0
   30.6799   -1.6698   32.3644 H   0  0  0  0  0  0  0  0  0  0  0  0
  1 11  1  0
  2 12  1  0
  3 22  2  0
  4 23  2  0
  5 22  1  0
  6 23  1  0
  7  9  1  0
  7 11  2  0
  7 13  1  0
  8 10  1  0
  8 12  2  0
  8 13  1  0
  9 14  2  0
  9 20  1  0
 10 15  2  0
 10 21  1  0
 11 16  1  0
 12 17  1  0
 14 18  1  0
 14 24  1  0
 15 19  1  0
 15 25  1  0
 16 18  2  0
 16 22  1  0
 17 19  2  0
 17 23  1  0
 20 26  2  0
 21 27  2  0
 24 28  2  0
 25 29  2  0
 26 28  1  0
 27 29  1  0
  1 30  1  0
  2 31  1  0
  5 32  1  0
  6 33  1  0
 13 34  1  0
 13 35  1  0
 18 36  1  0
 19 37  1  0
 20 38  1  0
 21 39  1  0
 24 40  1  0
 25 41  1  0
 26 42  1  0
 27 43  1  0
 28 44  1  0
 29 45  1  0
M  END
> <Uni-Dock RESULT> 
ENERGY=   -5.786  LOWER_BOUND=    0.000  UPPER_BOUND=    0.000
INTER + INTRA:          -5.786
INTER:                  -5.786
INTRA:                   0.000
UNBOUND:                 0.000

$$$$

     RDKit          3D

 45 48  0  0  0  0  0  0  0  0999 V2000
   27.7674    4.8413   29.9275 O   0  0  0  0  0  0  0  0  0  0  0  0
   25.8531    1.3266   32.2282 O   0  0  0  0  0  0  0  0  0  0  0  0
   29.7887    4.9745   27.8962 O   0  0  0  0  0  0  0  0  0  0  0  0
   23.1640    0.3434   32.4052 O   0  0  0  0  0  0  0  0  0  0  0  0
   29.7893    2.9703   26.7859 O   0  0  0  0  0  0  0  0  0  0  0  0
   22.0728    0.9592   30.4870 O   0  0  0  0  0  0  0  0  0  0  0  0
   28.2236    3.0069   31.4395 C   0  0  0  0  0  0  0  0  0  0  0  0
   25.8461    3.7326   31.9631 C   0  0  0  0  0  0  0  0  0  0  0  0
   28.8717    1.7592   31.7072 C   0  0  0  0  0  0  0  0  0  0  0  0
   25.1599    4.9319   31.5895 C   0  0  0  0  0  0  0  0  0  0  0  0
   28.4349    3.6409   30.1887 C   0  0  0  0  0  0  0  0  0  0  0  0
   25.1596    2.4936   31.8943 C   0  0  0  0  0  0  0  0  0  0  0  0
   27.3002    3.7074   32.4380 C   0  0  0  0  0  0  0  0  0  0  0  0
   29.6752    1.1674   30.6945 C   0  0  0  0  0  0  0  0  0  0  0  0
   23.8216    4.8431   31.1177 C   0  0  0  0  0  0  0  0  0  0  0  0
   29.2792    3.0569   29.2173 C   0  0  0  0  0  0  0  0  0  0  0  0
   23.8125    2.4379   31.4700 C   0  0  0  0  0  0  0  0  0  0  0  0
   29.8604    1.8136   29.4711 C   0  0  0  0  0  0  0  0  0  0  0  0
   23.1739    3.6081   31.0567 C   0  0  0  0  0  0  0  0  0  0  0  0
   28.7530    1.0678   32.9402 C   0  0  0  0  0  0  0  0  0  0  0  0
   25.7481    6.2208   31.6601 C   0  0  0  0  0  0  0  0  0  0  0  0
   29.6094    3.7277   27.9403 C   0  0  0  0  0  0  0  0  0  0  0  0
   23.0251    1.1850   31.4775 C   0  0  0  0  0  0  0  0  0  0  0  0
   30.3083   -0.0672   30.9170 C   0  0  0  0  0  0  0  0  0  0  0  0
   23.1265    5.9986   30.7228 C   0  0  0  0  0  0  0  0  0  0  0  0
   29.3913   -0.1579   33.1428 C   0  0  0  0  0  0  0  0  0  0  0  0
   25.0402    7.3579   31.2644 C   0  0  0  0  0  0  0  0  0  0  0  0
   30.1637   -0.7249   32.1349 C   0  0  0  0  0  0  0  0  0  0  0  0
   23.7358    7.2478   30.7950 C   0  0  0  0  0  0  0  0  0  0  0  0
   27.6988    5.2607   29.0105 H   0  0  0  0  0  0  0  0  0  0  0  0
   25.5189    0.3944   32.0265 H   0  0  0  0  0  0  0  0  0  0  0  0
   30.0380    3.4107   25.9083 H   0  0  0  0  0  0  0  0  0  0  0  0
   21.5089    0.1177   30.4898 H   0  0  0  0  0  0  0  0  0  0  0  0
   27.3054    3.2654   33.4457 H   0  0  0  0  0  0  0  0  0  0  0  0
   27.7288    4.7018   32.6348 H   0  0  0  0  0  0  0  0  0  0  0  0
   30.4996    1.3608   28.7203 H   0  0  0  0  0  0  0  0  0  0  0  0
   22.1433    3.5626   30.7206 H   0  0  0  0  0  0  0  0  0  0  0  0
   28.1724    1.4329   33.7680 H   0  0  0  0  0  0  0  0  0  0  0  0
   26.7513    6.3936   32.0057 H   0  0  0  0  0  0  0  0  0  0  0  0
   30.9206   -0.5229   30.1475 H   0  0  0  0  0  0  0  0  0  0  0  0
   22.1068    5.9357   30.3610 H   0  0  0  0  0  0  0  0  0  0  0  0
   29.2839   -0.6720   34.0896 H   0  0  0  0  0  0  0  0  0  0  0  0
   25.5091    8.3321   31.3212 H   0  0  0  0  0  0  0  0  0  0  0  0
   30.6551   -1.6753   32.2992 H   0  0  0  0  0  0  0  0  0  0  0  0
   23.1936    8.1336   30.4898 H   0  0  0  0  0  0  0  0  0  0  0  0
  1 11  1  0
  2 12  1  0
  3 22  2  0
  4 23  2  0
  5 22  1  0
  6 23  1  0
  7  9  1  0
  7 11  2  0
  7 13  1  0
  8 10  1  0
  8 12  2  0
  8 13  1  0
  9 14  2  0
  9 20  1  0
 10 15  2  0
 10 21  1  0
 11 16  1  0
 12 17  1  0
 14 18  1  0
 14 24  1  0
 15 19  1  0
 15 25  1  0
 16 18  2  0
 16 22  1  0
 17 19  2  0
 17 23  1  0
 20 26  2  0
 21 27  2  0
 24 28  2  0
 25 29  2  0
 26 28  1  0
 27 29  1  0
  1 30  1  0
  2 31  1  0
  5 32  1  0
  6 33  1  0
 13 34  1  0
 13 35  1  0
 18 36  1  0
 19 37  1  0
 20 38  1  0
 21 39  1  0
 24 40  1  0
 25 41  1  0
 26 42  1  0
 27 43  1  0
 28 44  1  0
 29 45  1  0
M  END
> <Uni-Dock RESULT> 
ENERGY=   -5.764  LOWER_BOUND=    0.063  UPPER_BOUND=    7.129
INTER + INTRA:          -5.764
INTER:                  -5.764
INTRA:                   0.000
UNBOUND:                 0.000

$$$$

     RDKit          3D

 45 48  0  0  0  0  0  0  0  0999 V2000
   27.8609    4.8297   29.8714 O   0  0  0  0  0  0  0  0  0  0  0  0
   25.9221    1.4102   32.2919 O   0  0  0  0  0  0  0  0  0  0  0  0
   29.8483    4.8739   27.8031 O   0  0  0  0  0  0  0  0  0  0  0  0
   23.2185    0.4833   32.5396 O   0  0  0  0  0  0  0  0  0  0  0  0
   29.7919    2.8431   26.7436 O   0  0  0  0  0  0  0  0  0  0  0  0
   22.1054    1.0721   30.6255 O   0  0  0  0  0  0  0  0  0  0  0  0
   28.3092    3.0249   31.4209 C   0  0  0  0  0  0  0  0  0  0  0  0
   25.9552    3.8087   31.9667 C   0  0  0  0  0  0  0  0  0  0  0  0
   28.9386    1.7720   31.7087 C   0  0  0  0  0  0  0  0  0  0  0  0
   25.2851    5.0112   31.5750 C   0  0  0  0  0  0  0  0  0  0  0  0
   28.5103    3.6236   30.1511 C   0  0  0  0  0  0  0  0  0  0  0  0
   25.2446    2.5816   31.9408 C   0  0  0  0  0  0  0  0  0  0  0  0
   27.4168    3.7675   32.4172 C   0  0  0  0  0  0  0  0  0  0  0  0
   29.7129    1.1401   30.6976 C   0  0  0  0  0  0  0  0  0  0  0  0
   23.9373    4.9363   31.1285 C   0  0  0  0  0  0  0  0  0  0  0  0
   29.3263    2.9996   29.1804 C   0  0  0  0  0  0  0  0  0  0  0  0
   23.8895    2.5412   31.5411 C   0  0  0  0  0  0  0  0  0  0  0  0
   29.8886    1.7522   29.4553 C   0  0  0  0  0  0  0  0  0  0  0  0
   23.2657    3.7128   31.1096 C   0  0  0  0  0  0  0  0  0  0  0  0
   28.8287    1.1138   32.9605 C   0  0  0  0  0  0  0  0  0  0  0  0
   25.8984    6.2900   31.6031 C   0  0  0  0  0  0  0  0  0  0  0  0
   29.6465    3.6322   27.8816 C   0  0  0  0  0  0  0  0  0  0  0  0
   23.0791    1.3042   31.5935 C   0  0  0  0  0  0  0  0  0  0  0  0
   30.3266   -0.1005   30.9401 C   0  0  0  0  0  0  0  0  0  0  0  0
   23.2571    6.0948   30.7167 C   0  0  0  0  0  0  0  0  0  0  0  0
   29.4474   -0.1185   33.1829 C   0  0  0  0  0  0  0  0  0  0  0  0
   25.2050    7.4303   31.1912 C   0  0  0  0  0  0  0  0  0  0  0  0
   30.1913   -0.7249   32.1764 C   0  0  0  0  0  0  0  0  0  0  0  0
   23.8907    7.3335   30.7471 C   0  0  0  0  0  0  0  0  0  0  0  0
   27.7840    5.2275   28.9454 H   0  0  0  0  0  0  0  0  0  0  0  0
   25.5670    0.4799   32.1195 H   0  0  0  0  0  0  0  0  0  0  0  0
   30.0333    3.2569   25.8511 H   0  0  0  0  0  0  0  0  0  0  0  0
   21.5261    0.2419   30.6590 H   0  0  0  0  0  0  0  0  0  0  0  0
   27.4315    3.3505   33.4354 H   0  0  0  0  0  0  0  0  0  0  0  0
   27.8672    4.7580   32.5816 H   0  0  0  0  0  0  0  0  0  0  0  0
   30.5059    1.2688   28.7053 H   0  0  0  0  0  0  0  0  0  0  0  0
   22.2286    3.6786   30.7924 H   0  0  0  0  0  0  0  0  0  0  0  0
   28.2696    1.5104   33.7887 H   0  0  0  0  0  0  0  0  0  0  0  0
   26.9106    6.4521   31.9271 H   0  0  0  0  0  0  0  0  0  0  0  0
   30.9168   -0.5867   30.1719 H   0  0  0  0  0  0  0  0  0  0  0  0
   22.2301    6.0424   30.3741 H   0  0  0  0  0  0  0  0  0  0  0  0
   29.3470   -0.6068   34.1439 H   0  0  0  0  0  0  0  0  0  0  0  0
   25.6930    8.3964   31.2155 H   0  0  0  0  0  0  0  0  0  0  0  0
   30.6676   -1.6801   32.3561 H   0  0  0  0  0  0  0  0  0  0  0  0
   23.3599    8.2216   30.4291 H   0  0  0  0  0  0  0  0  0  0  0  0
  1 11  1  0
  2 12  1  0
  3 22  2  0
  4 23  2  0
  5 22  1  0
  6 23  1  0
  7  9  1  0
  7 11  2  0
  7 13  1  0
  8 10  1  0
  8 12  2  0
  8 13  1  0
  9 14  2  0
  9 20  1  0
 10 15  2  0
 10 21  1  0
 11 16  1  0
 12 17  1  0
 14 18  1  0
 14 24  1  0
 15 19  1  0
 15 25  1  0
 16 18  2  0
 16 22  1  0
 17 19  2  0
 17 23  1  0
 20 26  2  0
 21 27  2  0
 24 28  2  0
 25 29  2  0
 26 28  1  0
 27 29  1  0
  1 30  1  0
  2 31  1  0
  5 32  1  0
  6 33  1  0
 13 34  1  0
 13 35  1  0
 18 36  1  0
 19 37  1  0
 20 38  1  0
 21 39  1  0
 24 40  1  0
 25 41  1  0
 26 42  1  0
 27 43  1  0
 28 44  1  0
 29 45  1  0
M  END
> <Uni-Dock RESULT> 
ENERGY=   -5.748  LOWER_BOUND=    0.127  UPPER_BOUND=    7.129
INTER + INTRA:          -5.748
INTER:                  -5.748
INTRA:                   0.000
UNBOUND:                 0.000

$$$$

     RDKit          3D

 45 48  0  0  0  0  0  0  0  0999 V2000
   29.1004   10.8544   22.3272 O   0  0  0  0  0  0  0  0  0  0  0  0
   32.9656   13.2638   23.0799 O   0  0  0  0  0  0  0  0  0  0  0  0
   28.2425    9.1635   20.1744 O   0  0  0  0  0  0  0  0  0  0  0  0
   34.9725   13.1449   25.1263 O   0  0  0  0  0  0  0  0  0  0  0  0
   30.1187    8.3360   19.1524 O   0  0  0  0  0  0  0  0  0  0  0  0
   34.9727   11.0164   25.9745 O   0  0  0  0  0  0  0  0  0  0  0  0
   30.4925   12.6438   21.4788 C   0  0  0  0  0  0  0  0  0  0  0  0
   30.8010   12.6915   23.9999 C   0  0  0  0  0  0  0  0  0  0  0  0
   31.3384   13.1687   20.4505 C   0  0  0  0  0  0  0  0  0  0  0  0
   30.0205   12.0632   25.0220 C   0  0  0  0  0  0  0  0  0  0  0  0
   29.8958   11.3698   21.2993 C   0  0  0  0  0  0  0  0  0  0  0  0
   32.2153   12.6775   24.1035 C   0  0  0  0  0  0  0  0  0  0  0  0
   30.1902   13.3867   22.7815 C   0  0  0  0  0  0  0  0  0  0  0  0
   31.5929   12.3790   19.2959 C   0  0  0  0  0  0  0  0  0  0  0  0
   30.6859   11.4039   26.0915 C   0  0  0  0  0  0  0  0  0  0  0  0
   30.1240   10.6260   20.1194 C   0  0  0  0  0  0  0  0  0  0  0  0
   32.8518   12.0590   25.2035 C   0  0  0  0  0  0  0  0  0  0  0  0
   30.9947   11.1262   19.1501 C   0  0  0  0  0  0  0  0  0  0  0  0
   32.0799   11.4030   26.1636 C   0  0  0  0  0  0  0  0  0  0  0  0
   31.9493   14.4470   20.5205 C   0  0  0  0  0  0  0  0  0  0  0  0
   28.6020   12.0572   25.0267 C   0  0  0  0  0  0  0  0  0  0  0  0
   29.4456    9.3402   19.8432 C   0  0  0  0  0  0  0  0  0  0  0  0
   34.3169   12.1057   25.4068 C   0  0  0  0  0  0  0  0  0  0  0  0
   32.4357   12.8556   18.2775 C   0  0  0  0  0  0  0  0  0  0  0  0
   29.9499   10.7590   27.0999 C   0  0  0  0  0  0  0  0  0  0  0  0
   32.7829   14.9038   19.4972 C   0  0  0  0  0  0  0  0  0  0  0  0
   27.8880   11.4119   26.0390 C   0  0  0  0  0  0  0  0  0  0  0  0
   33.0276   14.1108   18.3813 C   0  0  0  0  0  0  0  0  0  0  0  0
   28.5585   10.7630   27.0702 C   0  0  0  0  0  0  0  0  0  0  0  0
   28.7977    9.8914   22.3774 H   0  0  0  0  0  0  0  0  0  0  0  0
   33.9614   13.1349   22.9655 H   0  0  0  0  0  0  0  0  0  0  0  0
   29.6621    7.4583   18.9350 H   0  0  0  0  0  0  0  0  0  0  0  0
   35.9715   11.0402   26.1419 H   0  0  0  0  0  0  0  0  0  0  0  0
   30.5352   14.4315   22.7966 H   0  0  0  0  0  0  0  0  0  0  0  0
   29.0989   13.5175   22.8356 H   0  0  0  0  0  0  0  0  0  0  0  0
   31.1779   10.5494   18.2495 H   0  0  0  0  0  0  0  0  0  0  0  0
   32.5702   10.9190   27.0018 H   0  0  0  0  0  0  0  0  0  0  0  0
   31.8170   15.1198   21.3486 H   0  0  0  0  0  0  0  0  0  0  0  0
   28.0072   12.5298   24.2659 H   0  0  0  0  0  0  0  0  0  0  0  0
   32.6338   12.2567   17.3962 H   0  0  0  0  0  0  0  0  0  0  0  0
   30.4528   10.2538   27.9164 H   0  0  0  0  0  0  0  0  0  0  0  0
   33.2436   15.8807   19.5723 H   0  0  0  0  0  0  0  0  0  0  0  0
   26.8055   11.4146   26.0214 H   0  0  0  0  0  0  0  0  0  0  0  0
   33.6752   14.4715   17.5924 H   0  0  0  0  0  0  0  0  0  0  0  0
   27.9984   10.2648   27.8510 H   0  0  0  0  0  0  0  0  0  0  0  0
  1 11  1  0
  2 12  1  0
  3 22  2  0
  4 23  2  0
  5 22  1  0
  6 23  1  0
  7  9  1  0
  7 11  2  0
  7 13  1  0
  8 10  1  0
  8 12  2  0
  8 13  1  0
  9 14  2  0
  9 20  1  0
 10 15  2  0
 10 21  1  0
 11 16  1  0
 12 17  1  0
 14 18  1  0
 14 24  1  0
 15 19  1  0
 15 25  1  0
 16 18  2  0
 16 22  1  0
 17 19  2  0
 17 23  1  0
 20 26  2  0
 21 27  2  0
 24 28  2  0
 25 29  2  0
 26 28  1  0
 27 29  1  0
  1 30  1  0
  2 31  1  0
  5 32  1  0
  6 33  1  0
 13 34  1  0
 13 35  1  0
 18 36  1  0
 19 37  1  0
 20 38  1  0
 21 39  1  0
 24 40  1  0
 25 41  1  0
 26 42  1  0
 27 43  1  0
 28 44  1  0
 29 45  1  0
M  END
> <Uni-Dock RESULT> 
ENERGY=   -4.400  LOWER_BOUND=   10.344  UPPER_BOUND=   13.775
INTER + INTRA:          -4.400
INTER:                  -4.400
INTRA:                   0.000
UNBOUND:                 0.000

$$$$

     RDKit          3D

 45 48  0  0  0  0  0  0  0  0999 V2000
   32.9645   13.2575   23.0651 O   0  0  0  0  0  0  0  0  0  0  0  0
   29.0957   10.8536   22.3133 O   0  0  0  0  0  0  0  0  0  0  0  0
   34.9682   13.1402   25.1147 O   0  0  0  0  0  0  0  0  0  0  0  0
   28.2375    9.1585   20.1639 O   0  0  0  0  0  0  0  0  0  0  0  0
   34.9630   11.0142   25.9688 O   0  0  0  0  0  0  0  0  0  0  0  0
   30.1137    8.3245   19.1471 O   0  0  0  0  0  0  0  0  0  0  0  0
   30.7974   12.6919   23.9834 C   0  0  0  0  0  0  0  0  0  0  0  0
   30.4925   12.6379   21.4621 C   0  0  0  0  0  0  0  0  0  0  0  0
   30.0142   12.0681   25.0062 C   0  0  0  0  0  0  0  0  0  0  0  0
   31.3411   13.1583   20.4337 C   0  0  0  0  0  0  0  0  0  0  0  0
   32.2115   12.6754   24.0893 C   0  0  0  0  0  0  0  0  0  0  0  0
   29.8935   11.3646   21.2853 C   0  0  0  0  0  0  0  0  0  0  0  0
   30.1898   13.3850   22.7624 C   0  0  0  0  0  0  0  0  0  0  0  0
   30.6768   11.4103   26.0785 C   0  0  0  0  0  0  0  0  0  0  0  0
   31.5956   12.3651   19.2815 C   0  0  0  0  0  0  0  0  0  0  0  0
   32.8453   12.0587   25.1918 C   0  0  0  0  0  0  0  0  0  0  0  0
   30.1220   10.6172   20.1077 C   0  0  0  0  0  0  0  0  0  0  0  0
   32.0708   11.4069   26.1526 C   0  0  0  0  0  0  0  0  0  0  0  0
   30.9951   11.1131   19.1383 C   0  0  0  0  0  0  0  0  0  0  0  0
   28.5957   12.0648   25.0089 C   0  0  0  0  0  0  0  0  0  0  0  0
   31.9543   14.4357   20.5011 C   0  0  0  0  0  0  0  0  0  0  0  0
   34.3101   12.1031   25.3972 C   0  0  0  0  0  0  0  0  0  0  0  0
   29.4415    9.3320   19.8341 C   0  0  0  0  0  0  0  0  0  0  0  0
   29.9380   10.7697   27.0876 C   0  0  0  0  0  0  0  0  0  0  0  0
   32.4409   12.8372   18.2631 C   0  0  0  0  0  0  0  0  0  0  0  0
   27.8790   11.4237   26.0219 C   0  0  0  0  0  0  0  0  0  0  0  0
   32.7902   14.8880   19.4777 C   0  0  0  0  0  0  0  0  0  0  0  0
   28.5468   10.7764   27.0558 C   0  0  0  0  0  0  0  0  0  0  0  0
   33.0352   14.0916   18.3644 C   0  0  0  0  0  0  0  0  0  0  0  0
   33.9603   13.1263   22.9525 H   0  0  0  0  0  0  0  0  0  0  0  0
   28.7910    9.8915   22.3658 H   0  0  0  0  0  0  0  0  0  0  0  0
   35.9615   11.0364   26.1375 H   0  0  0  0  0  0  0  0  0  0  0  0
   29.6556    7.4472   18.9312 H   0  0  0  0  0  0  0  0  0  0  0  0
   29.0987   13.5181   22.8145 H   0  0  0  0  0  0  0  0  0  0  0  0
   30.5368   14.4293   22.7751 H   0  0  0  0  0  0  0  0  0  0  0  0
   32.5588   10.9242   26.9929 H   0  0  0  0  0  0  0  0  0  0  0  0
   31.1785   10.5335   18.2396 H   0  0  0  0  0  0  0  0  0  0  0  0
   28.0030   12.5365   24.2460 H   0  0  0  0  0  0  0  0  0  0  0  0
   31.8221   15.1110   21.3271 H   0  0  0  0  0  0  0  0  0  0  0  0
   30.4387   10.2658   27.9062 H   0  0  0  0  0  0  0  0  0  0  0  0
   32.6390   12.2354   17.3838 H   0  0  0  0  0  0  0  0  0  0  0  0
   26.7965   11.4285   26.0028 H   0  0  0  0  0  0  0  0  0  0  0  0
   33.2528   15.8642   19.5509 H   0  0  0  0  0  0  0  0  0  0  0  0
   27.9845   10.2814   27.8372 H   0  0  0  0  0  0  0  0  0  0  0  0
   33.6845   14.4488   17.5754 H   0  0  0  0  0  0  0  0  0  0  0  0
  1 11  1  0
  2 12  1  0
  3 22  2  0
  4 23  2  0
  5 22  1  0
  6 23  1  0
  7  9  1  0
  7 11  2  0
  7 13  1  0
  8 10  1  0
  8 12  2  0
  8 13  1  0
  9 14  2  0
  9 20  1  0
 10 15  2  0
 10 21  1  0
 11 16  1  0
 12 17  1  0
 14 18  1  0
 14 24  1  0
 15 19  1  0
 15 25  1  0
 16 18  2  0
 16 22  1  0
 17 19  2  0
 17 23  1  0
 20 26  2  0
 21 27  2  0
 24 28  2  0
 25 29  2  0
 26 28  1  0
 27 29  1  0
  1 30  1  0
  2 31  1  0
  5 32  1  0
  6 33  1  0
 13 34  1  0
 13 35  1  0
 18 36  1  0
 19 37  1  0
 20 38  1  0
 21 39  1  0
 24 40  1  0
 25 41  1  0
 26 42  1  0
 27 43  1  0
 28 44  1  0
 29 45  1  0
M  END
> <Uni-Dock RESULT> 
ENERGY=   -4.398  LOWER_BOUND=   10.347  UPPER_BOUND=   14.077
INTER + INTRA:          -4.398
INTER:                  -4.398
INTRA:                   0.000
UNBOUND:                 0.000

$$$$

     RDKit          3D

 45 48  0  0  0  0  0  0  0  0999 V2000
   28.5761   11.3928   23.7593 O   0  0  0  0  0  0  0  0  0  0  0  0
   25.3355   13.6141   21.3355 O   0  0  0  0  0  0  0  0  0  0  0  0
   28.8125   10.7106   26.5357 O   0  0  0  0  0  0  0  0  0  0  0  0
   23.6498   12.8282   19.1514 O   0  0  0  0  0  0  0  0  0  0  0  0
   26.6951   10.5881   27.4024 O   0  0  0  0  0  0  0  0  0  0  0  0
   23.4000   10.5529   19.2521 O   0  0  0  0  0  0  0  0  0  0  0  0
   27.4102   13.4999   23.5142 C   0  0  0  0  0  0  0  0  0  0  0  0
   27.4760   12.4943   21.1823 C   0  0  0  0  0  0  0  0  0  0  0  0
   26.5311   14.4944   24.0496 C   0  0  0  0  0  0  0  0  0  0  0  0
   28.2725   11.4160   20.6808 C   0  0  0  0  0  0  0  0  0  0  0  0
   27.7447   12.3736   24.3084 C   0  0  0  0  0  0  0  0  0  0  0  0
   26.1101   12.5759   20.8097 C   0  0  0  0  0  0  0  0  0  0  0  0
   28.0189   13.5804   22.1130 C   0  0  0  0  0  0  0  0  0  0  0  0
   25.9818   14.3039   25.3470 C   0  0  0  0  0  0  0  0  0  0  0  0
   27.6614   10.4311   19.8575 C   0  0  0  0  0  0  0  0  0  0  0  0
   27.2254   12.2325   25.6153 C   0  0  0  0  0  0  0  0  0  0  0  0
   25.5385   11.6118   19.9486 C   0  0  0  0  0  0  0  0  0  0  0  0
   26.3263   13.1820   26.1029 C   0  0  0  0  0  0  0  0  0  0  0  0
   26.3130   10.5360   19.5119 C   0  0  0  0  0  0  0  0  0  0  0  0
   26.1680   15.6729   23.3484 C   0  0  0  0  0  0  0  0  0  0  0  0
   29.6545   11.2696   20.9656 C   0  0  0  0  0  0  0  0  0  0  0  0
   27.6238   11.1289   26.5170 C   0  0  0  0  0  0  0  0  0  0  0  0
   24.1478   11.7103   19.4523 C   0  0  0  0  0  0  0  0  0  0  0  0
   25.0987   15.2504   25.8937 C   0  0  0  0  0  0  0  0  0  0  0  0
   28.4097    9.3481   19.3659 C   0  0  0  0  0  0  0  0  0  0  0  0
   25.2897   16.6028   23.9093 C   0  0  0  0  0  0  0  0  0  0  0  0
   30.3818   10.1868   20.4663 C   0  0  0  0  0  0  0  0  0  0  0  0
   24.7549   16.3917   25.1756 C   0  0  0  0  0  0  0  0  0  0  0  0
   29.7620    9.2282   19.6720 C   0  0  0  0  0  0  0  0  0  0  0  0
   28.7108   10.4764   24.1637 H   0  0  0  0  0  0  0  0  0  0  0  0
   24.3264   13.6448   21.2884 H   0  0  0  0  0  0  0  0  0  0  0  0
   26.9566    9.8479   28.0425 H   0  0  0  0  0  0  0  0  0  0  0  0
   22.4546   10.6004   18.8914 H   0  0  0  0  0  0  0  0  0  0  0  0
   27.8666   14.5465   21.6087 H   0  0  0  0  0  0  0  0  0  0  0  0
   29.1129   13.5679   22.2325 H   0  0  0  0  0  0  0  0  0  0  0  0
   25.9195   13.0670   27.1023 H   0  0  0  0  0  0  0  0  0  0  0  0
   25.8701    9.7905   18.8597 H   0  0  0  0  0  0  0  0  0  0  0  0
   26.5315   15.9101   22.3648 H   0  0  0  0  0  0  0  0  0  0  0  0
   30.2081   11.9615   21.5743 H   0  0  0  0  0  0  0  0  0  0  0  0
   24.6764   15.1087   26.8818 H   0  0  0  0  0  0  0  0  0  0  0  0
   27.9478    8.5941   18.7392 H   0  0  0  0  0  0  0  0  0  0  0  0
   25.0213   17.4935   23.3555 H   0  0  0  0  0  0  0  0  0  0  0  0
   31.4346   10.0907   20.6996 H   0  0  0  0  0  0  0  0  0  0  0  0
   24.0746   17.1168   25.6036 H   0  0  0  0  0  0  0  0  0  0  0  0
   30.3322    8.3916   19.2889 H   0  0  0  0  0  0  0  0  0  0  0  0
  1 11  1  0
  2 12  1  0
  3 22  2  0
  4 23  2  0
  5 22  1  0
  6 23  1  0
  7  9  1  0
  7 11  2  0
  7 13  1  0
  8 10  1  0
  8 12  2  0
  8 13  1  0
  9 14  2  0
  9 20  1  0
 10 15  2  0
 10 21  1  0
 11 16  1  0
 12 17  1  0
 14 18  1  0
 14 24  1  0
 15 19  1  0
 15 25  1  0
 16 18  2  0
 16 22  1  0
 17 19  2  0
 17 23  1  0
 20 26  2  0
 21 27  2  0
 24 28  2  0
 25 29  2  0
 26 28  1  0
 27 29  1  0
  1 30  1  0
  2 31  1  0
  5 32  1  0
  6 33  1  0
 13 34  1  0
 13 35  1  0
 18 36  1  0
 19 37  1  0
 20 38  1  0
 21 39  1  0
 24 40  1  0
 25 41  1  0
 26 42  1  0
 27 43  1  0
 28 44  1  0
 29 45  1  0
M  END
> <Uni-Dock RESULT> 
ENERGY=   -4.227  LOWER_BOUND=   10.260  UPPER_BOUND=   13.191
INTER + INTRA:          -4.227
INTER:                  -4.227
INTRA:                   0.000
UNBOUND:                 0.000

$$$$

     RDKit          3D

 45 48  0  0  0  0  0  0  0  0999 V2000
   25.3357   13.6139   21.3347 O   0  0  0  0  0  0  0  0  0  0  0  0
   28.5766   11.3931   23.7587 O   0  0  0  0  0  0  0  0  0  0  0  0
   23.6500   12.8276   19.1508 O   0  0  0  0  0  0  0  0  0  0  0  0
   28.8132   10.7113   26.5351 O   0  0  0  0  0  0  0  0  0  0  0  0
   23.4005   10.5523   19.2516 O   0  0  0  0  0  0  0  0  0  0  0  0
   26.6958   10.5886   27.4019 O   0  0  0  0  0  0  0  0  0  0  0  0
   27.4764   12.4942   21.1816 C   0  0  0  0  0  0  0  0  0  0  0  0
   27.4106   13.5001   23.5134 C   0  0  0  0  0  0  0  0  0  0  0  0
   28.2729   11.4161   20.6801 C   0  0  0  0  0  0  0  0  0  0  0  0
   26.5312   14.4945   24.0486 C   0  0  0  0  0  0  0  0  0  0  0  0
   26.1104   12.5756   20.8089 C   0  0  0  0  0  0  0  0  0  0  0  0
   27.7452   12.3738   24.3076 C   0  0  0  0  0  0  0  0  0  0  0  0
   28.0192   13.5805   22.1121 C   0  0  0  0  0  0  0  0  0  0  0  0
   27.6618   10.4310   19.8570 C   0  0  0  0  0  0  0  0  0  0  0  0
   25.9821   14.3041   25.3462 C   0  0  0  0  0  0  0  0  0  0  0  0
   25.5388   11.6114   19.9480 C   0  0  0  0  0  0  0  0  0  0  0  0
   27.2260   12.2330   25.6146 C   0  0  0  0  0  0  0  0  0  0  0  0
   26.3134   10.5357   19.5114 C   0  0  0  0  0  0  0  0  0  0  0  0
   26.3267   13.1824   26.1022 C   0  0  0  0  0  0  0  0  0  0  0  0
   29.6549   11.2698   20.9648 C   0  0  0  0  0  0  0  0  0  0  0  0
   26.1680   15.6729   23.3474 C   0  0  0  0  0  0  0  0  0  0  0  0
   24.1482   11.7097   19.4518 C   0  0  0  0  0  0  0  0  0  0  0  0
   27.6244   11.1295   26.5164 C   0  0  0  0  0  0  0  0  0  0  0  0
   28.4103    9.3481   19.3655 C   0  0  0  0  0  0  0  0  0  0  0  0
   25.0989   15.2505   25.8927 C   0  0  0  0  0  0  0  0  0  0  0  0
   30.3823   10.1870   20.4657 C   0  0  0  0  0  0  0  0  0  0  0  0
   25.2897   16.6028   23.9083 C   0  0  0  0  0  0  0  0  0  0  0  0
   29.7626    9.2283   19.6714 C   0  0  0  0  0  0  0  0  0  0  0  0
   24.7548   16.3918   25.1745 C   0  0  0  0  0  0  0  0  0  0  0  0
   24.3266   13.6444   21.2877 H   0  0  0  0  0  0  0  0  0  0  0  0
   28.7115   10.4769   24.1631 H   0  0  0  0  0  0  0  0  0  0  0  0
   22.4551   10.5996   18.8910 H   0  0  0  0  0  0  0  0  0  0  0  0
   26.9575    9.8485   28.0421 H   0  0  0  0  0  0  0  0  0  0  0  0
   29.1130   13.5682   22.2316 H   0  0  0  0  0  0  0  0  0  0  0  0
   27.8667   14.5466   21.6077 H   0  0  0  0  0  0  0  0  0  0  0  0
   25.8706    9.7900   18.8593 H   0  0  0  0  0  0  0  0  0  0  0  0
   25.9200   13.0674   27.1015 H   0  0  0  0  0  0  0  0  0  0  0  0
   30.2085   11.9618   21.5735 H   0  0  0  0  0  0  0  0  0  0  0  0
   26.5315   15.9100   22.3637 H   0  0  0  0  0  0  0  0  0  0  0  0
   27.9484    8.5939   18.7388 H   0  0  0  0  0  0  0  0  0  0  0  0
   24.6766   15.1089   26.8808 H   0  0  0  0  0  0  0  0  0  0  0  0
   31.4352   10.0910   20.6989 H   0  0  0  0  0  0  0  0  0  0  0  0
   25.0211   17.4934   23.3543 H   0  0  0  0  0  0  0  0  0  0  0  0
   30.3328    8.3917   19.2885 H   0  0  0  0  0  0  0  0  0  0  0  0
   24.0745   17.1169   25.6025 H   0  0  0  0  0  0  0  0  0  0  0  0
  1 11  1  0
  2 12  1  0
  3 22  2  0
  4 23  2  0
  5 22  1  0
  6 23  1  0
  7  9  1  0
  7 11  2  0
  7 13  1  0
  8 10  1  0
  8 12  2  0
  8 13  1  0
  9 14  2  0
  9 20  1  0
 10 15  2  0
 10 21  1  0
 11 16  1  0
 12 17  1  0
 14 18  1  0
 14 24  1  0
 15 19  1  0
 15 25  1  0
 16 18  2  0
 16 22  1  0
 17 19  2  0
 17 23  1  0
 20 26  2  0
 21 27  2  0
 24 28  2  0
 25 29  2  0
 26 28  1  0
 27 29  1  0
  1 30  1  0
  2 31  1  0
  5 32  1  0
  6 33  1  0
 13 34  1  0
 13 35  1  0
 18 36  1  0
 19 37  1  0
 20 38  1  0
 21 39  1  0
 24 40  1  0
 25 41  1  0
 26 42  1  0
 27 43  1  0
 28 44  1  0
 29 45  1  0
M  END
> <Uni-Dock RESULT> 
ENERGY=   -4.224  LOWER_BOUND=   10.261  UPPER_BOUND=   14.008
INTER + INTRA:          -4.224
INTER:                  -4.224
INTRA:                   0.000
UNBOUND:                 0.000

$$$$

     RDKit          3D

 45 48  0  0  0  0  0  0  0  0999 V2000
   28.0122    5.3624   30.2274 O   0  0  0  0  0  0  0  0  0  0  0  0
   31.7949    3.2609   31.8357 O   0  0  0  0  0  0  0  0  0  0  0  0
   25.2181    5.0619   30.8039 O   0  0  0  0  0  0  0  0  0  0  0  0
   34.1048    4.2108   33.2468 O   0  0  0  0  0  0  0  0  0  0  0  0
   25.0345    4.2202   32.9269 O   0  0  0  0  0  0  0  0  0  0  0  0
   33.4975    6.1132   34.3701 O   0  0  0  0  0  0  0  0  0  0  0  0
   29.1381    3.2282   30.4198 C   0  0  0  0  0  0  0  0  0  0  0  0
   30.9947    4.9584   30.3067 C   0  0  0  0  0  0  0  0  0  0  0  0
   29.1724    1.8917   30.9309 C   0  0  0  0  0  0  0  0  0  0  0  0
   30.9326    6.3319   29.9090 C   0  0  0  0  0  0  0  0  0  0  0  0
   28.0160    4.0478   30.7033 C   0  0  0  0  0  0  0  0  0  0  0  0
   31.7721    4.6009   31.4377 C   0  0  0  0  0  0  0  0  0  0  0  0
   30.2587    3.8352   29.5736 C   0  0  0  0  0  0  0  0  0  0  0  0
   28.1002    1.4367   31.7463 C   0  0  0  0  0  0  0  0  0  0  0  0
   31.6171    7.3069   30.6849 C   0  0  0  0  0  0  0  0  0  0  0  0
   26.9389    3.5548   31.4744 C   0  0  0  0  0  0  0  0  0  0  0  0
   32.4847    5.5828   32.1627 C   0  0  0  0  0  0  0  0  0  0  0  0
   27.0114    2.2689   32.0119 C   0  0  0  0  0  0  0  0  0  0  0  0
   32.3706    6.9246   31.7961 C   0  0  0  0  0  0  0  0  0  0  0  0
   30.2314    0.9845   30.6707 C   0  0  0  0  0  0  0  0  0  0  0  0
   30.2140    6.7825   28.7719 C   0  0  0  0  0  0  0  0  0  0  0  0
   25.7047    4.3359   31.7119 C   0  0  0  0  0  0  0  0  0  0  0  0
   33.3874    5.2463   33.2860 C   0  0  0  0  0  0  0  0  0  0  0  0
   28.1130    0.1376   32.2816 C   0  0  0  0  0  0  0  0  0  0  0  0
   31.5593    8.6664   30.3344 C   0  0  0  0  0  0  0  0  0  0  0  0
   30.2253   -0.3035   31.2108 C   0  0  0  0  0  0  0  0  0  0  0  0
   30.1697    8.1382   28.4389 C   0  0  0  0  0  0  0  0  0  0  0  0
   29.1721   -0.7250   32.0152 C   0  0  0  0  0  0  0  0  0  0  0  0
   30.8371    9.0771   29.2179 C   0  0  0  0  0  0  0  0  0  0  0  0
   27.3626    6.0723   30.5364 H   0  0  0  0  0  0  0  0  0  0  0  0
   32.1523    2.9427   32.7258 H   0  0  0  0  0  0  0  0  0  0  0  0
   24.1761    4.7300   33.0980 H   0  0  0  0  0  0  0  0  0  0  0  0
   34.1275    5.9099   35.1368 H   0  0  0  0  0  0  0  0  0  0  0  0
   31.0181    3.1110   29.2424 H   0  0  0  0  0  0  0  0  0  0  0  0
   29.8138    4.1376   28.6135 H   0  0  0  0  0  0  0  0  0  0  0  0
   26.1889    1.8952   32.6129 H   0  0  0  0  0  0  0  0  0  0  0  0
   32.9092    7.6789   32.3602 H   0  0  0  0  0  0  0  0  0  0  0  0
   31.0843    1.2313   30.0645 H   0  0  0  0  0  0  0  0  0  0  0  0
   29.6675    6.1247   28.1204 H   0  0  0  0  0  0  0  0  0  0  0  0
   27.2986   -0.2132   32.9049 H   0  0  0  0  0  0  0  0  0  0  0  0
   32.0783    9.4134   30.9238 H   0  0  0  0  0  0  0  0  0  0  0  0
   31.0458   -0.9790   31.0041 H   0  0  0  0  0  0  0  0  0  0  0  0
   29.6112    8.4621   27.5698 H   0  0  0  0  0  0  0  0  0  0  0  0
   29.1745   -1.7246   32.4305 H   0  0  0  0  0  0  0  0  0  0  0  0
   30.7979   10.1261   28.9537 H   0  0  0  0  0  0  0  0  0  0  0  0
  1 11  1  0
  2 12  1  0
  3 22  2  0
  4 23  2  0
  5 22  1  0
  6 23  1  0
  7  9  1  0
  7 11  2  0
  7 13  1  0
  8 10  1  0
  8 12  2  0
  8 13  1  0
  9 14  2  0
  9 20  1  0
 10 15  2  0
 10 21  1  0
 11 16  1  0
 12 17  1  0
 14 18  1  0
 14 24  1  0
 15 19  1  0
 15 25  1  0
 16 18  2  0
 16 22  1  0
 17 19  2  0
 17 23  1  0
 20 26  2  0
 21 27  2  0
 24 28  2  0
 25 29  2  0
 26 28  1  0
 27 29  1  0
  1 30  1  0
  2 31  1  0
  5 32  1  0
  6 33  1  0
 13 34  1  0
 13 35  1  0
 18 36  1  0
 19 37  1  0
 20 38  1  0
 21 39  1  0
 24 40  1  0
 25 41  1  0
 26 42  1  0
 27 43  1  0
 28 44  1  0
 29 45  1  0
M  END
> <Uni-Dock RESULT> 
ENERGY=   -4.037  LOWER_BOUND=    3.726  UPPER_BOUND=    6.432
INTER + INTRA:          -4.037
INTER:                  -4.037
INTRA:                   0.000
UNBOUND:                 0.000

$$$$

     RDKit          3D

 45 48  0  0  0  0  0  0  0  0999 V2000
   31.7522    3.2125   31.8848 O   0  0  0  0  0  0  0  0  0  0  0  0
   28.0145    5.3149   30.1758 O   0  0  0  0  0  0  0  0  0  0  0  0
   34.0656    4.1750   33.2817 O   0  0  0  0  0  0  0  0  0  0  0  0
   25.2118    5.0763   30.7394 O   0  0  0  0  0  0  0  0  0  0  0  0
   33.4791    6.1234   34.3348 O   0  0  0  0  0  0  0  0  0  0  0  0
   24.9993    4.3102   32.8883 O   0  0  0  0  0  0  0  0  0  0  0  0
   30.9896    4.8689   30.2928 C   0  0  0  0  0  0  0  0  0  0  0  0
   29.1059    3.1717   30.4494 C   0  0  0  0  0  0  0  0  0  0  0  0
   30.9518    6.2289   29.8482 C   0  0  0  0  0  0  0  0  0  0  0  0
   29.1160    1.8531   31.0059 C   0  0  0  0  0  0  0  0  0  0  0  0
   31.7530    4.5385   31.4414 C   0  0  0  0  0  0  0  0  0  0  0  0
   27.9945    4.0174   30.6959 C   0  0  0  0  0  0  0  0  0  0  0  0
   30.2422    3.7327   29.5922 C   0  0  0  0  0  0  0  0  0  0  0  0
   31.6452    7.2193   30.5963 C   0  0  0  0  0  0  0  0  0  0  0  0
   28.0308    1.4422   31.8275 C   0  0  0  0  0  0  0  0  0  0  0  0
   32.4751    5.5335   32.1386 C   0  0  0  0  0  0  0  0  0  0  0  0
   26.9042    3.5671   31.4745 C   0  0  0  0  0  0  0  0  0  0  0  0
   32.3843    6.8637   31.7259 C   0  0  0  0  0  0  0  0  0  0  0  0
   26.9529    2.2992   32.0559 C   0  0  0  0  0  0  0  0  0  0  0  0
   30.2488    6.6514   28.6908 C   0  0  0  0  0  0  0  0  0  0  0  0
   30.1629    0.9217   30.7851 C   0  0  0  0  0  0  0  0  0  0  0  0
   33.3640    5.2219   33.2799 C   0  0  0  0  0  0  0  0  0  0  0  0
   25.6804    4.3743   31.6754 C   0  0  0  0  0  0  0  0  0  0  0  0
   31.6110    8.5668   30.1994 C   0  0  0  0  0  0  0  0  0  0  0  0
   28.0196    0.1620   32.4066 C   0  0  0  0  0  0  0  0  0  0  0  0
   30.2277    7.9954   28.3117 C   0  0  0  0  0  0  0  0  0  0  0  0
   30.1329   -0.3470   31.3684 C   0  0  0  0  0  0  0  0  0  0  0  0
   30.9037    8.9501   29.0638 C   0  0  0  0  0  0  0  0  0  0  0  0
   29.0674   -0.7250   32.1781 C   0  0  0  0  0  0  0  0  0  0  0  0
   32.0980    2.9195   32.7881 H   0  0  0  0  0  0  0  0  0  0  0  0
   27.3736    6.0446   30.4552 H   0  0  0  0  0  0  0  0  0  0  0  0
   34.1001    5.9368   35.1130 H   0  0  0  0  0  0  0  0  0  0  0  0
   24.1475    4.8384   33.0350 H   0  0  0  0  0  0  0  0  0  0  0  0
   29.8093    4.0089   28.6190 H   0  0  0  0  0  0  0  0  0  0  0  0
   30.9930    2.9862   29.2919 H   0  0  0  0  0  0  0  0  0  0  0  0
   32.9302    7.6285   32.2684 H   0  0  0  0  0  0  0  0  0  0  0  0
   26.1203    1.9587   32.6625 H   0  0  0  0  0  0  0  0  0  0  0  0
   29.6972    5.9801   28.0575 H   0  0  0  0  0  0  0  0  0  0  0  0
   31.0241    1.1348   30.1777 H   0  0  0  0  0  0  0  0  0  0  0  0
   32.1369    9.3255   30.7673 H   0  0  0  0  0  0  0  0  0  0  0  0
   27.1953   -0.1550   33.0348 H   0  0  0  0  0  0  0  0  0  0  0  0
   29.6809    8.2980   27.4276 H   0  0  0  0  0  0  0  0  0  0  0  0
   30.9446   -1.0413   31.1915 H   0  0  0  0  0  0  0  0  0  0  0  0
   30.8825    9.9899   28.7639 H   0  0  0  0  0  0  0  0  0  0  0  0
   29.0513   -1.7098   32.6270 H   0  0  0  0  0  0  0  0  0  0  0  0
  1 11  1  0
  2 12  1  0
  3 22  2  0
  4 23  2  0
  5 22  1  0
  6 23  1  0
  7  9  1  0
  7 11  2  0
  7 13  1  0
  8 10  1  0
  8 12  2  0
  8 13  1  0
  9 14  2  0
  9 20  1  0
 10 15  2  0
 10 21  1  0
 11 16  1  0
 12 17  1  0
 14 18  1  0
 14 24  1  0
 15 19  1  0
 15 25  1  0
 16 18  2  0
 16 22  1  0
 17 19  2  0
 17 23  1  0
 20 26  2  0
 21 27  2  0
 24 28  2  0
 25 29  2  0
 26 28  1  0
 27 29  1  0
  1 30  1  0
  2 31  1  0
  5 32  1  0
  6 33  1  0
 13 34  1  0
 13 35  1  0
 18 36  1  0
 19 37  1  0
 20 38  1  0
 21 39  1  0
 24 40  1  0
 25 41  1  0
 26 42  1  0
 27 43  1  0
 28 44  1  0
 29 45  1  0
M  END
> <Uni-Dock RESULT> 
ENERGY=   -4.018  LOWER_BOUND=    3.687  UPPER_BOUND=    6.505
INTER + INTRA:          -4.018
INTER:                  -4.018
INTRA:                   0.000
UNBOUND:                 0.000

$$$$
