
     RDKit          3D

 45 48  0  0  0  0  0  0  0  0999 V2000
   24.5405    6.8595   32.6386 O   0  0  0  0  0  0  0  0  0  0  0  0
   24.7659    8.7444   30.2414 O   0  0  0  0  0  0  0  0  0  0  0  0
   26.0071    4.7273   31.4005 O   0  0  0  0  0  0  0  0  0  0  0  0
   25.2938    9.2677   27.4765 O   0  0  0  0  0  0  0  0  0  0  0  0
   24.6493    2.8832   31.3304 O   0  0  0  0  0  0  0  0  0  0  0  0
   25.4674   11.5359   27.2042 O   0  0  0  0  0  0  0  0  0  0  0  0
   22.5338    7.3175   31.3582 C   0  0  0  0  0  0  0  0  0  0  0  0
   22.6860    9.8110   30.8799 C   0  0  0  0  0  0  0  0  0  0  0  0
   21.4976    6.8584   30.4965 C   0  0  0  0  0  0  0  0  0  0  0  0
   21.8179   10.9417   30.7781 C   0  0  0  0  0  0  0  0  0  0  0  0
   23.5977    6.4422   31.6923 C   0  0  0  0  0  0  0  0  0  0  0  0
   23.7845    9.7082   29.9885 C   0  0  0  0  0  0  0  0  0  0  0  0
   22.5112    8.7266   31.9462 C   0  0  0  0  0  0  0  0  0  0  0  0
   21.5776    5.5559   29.9416 C   0  0  0  0  0  0  0  0  0  0  0  0
   21.9790   11.8421   29.6906 C   0  0  0  0  0  0  0  0  0  0  0  0
   23.6835    5.1618   31.0956 C   0  0  0  0  0  0  0  0  0  0  0  0
   23.9035   10.5901   28.8905 C   0  0  0  0  0  0  0  0  0  0  0  0
   22.6637    4.7304   30.2413 C   0  0  0  0  0  0  0  0  0  0  0  0
   22.9989   11.6457   28.7573 C   0  0  0  0  0  0  0  0  0  0  0  0
   20.3713    7.6525   30.1801 C   0  0  0  0  0  0  0  0  0  0  0  0
   20.8049   11.2278   31.7276 C   0  0  0  0  0  0  0  0  0  0  0  0
   24.8397    4.2622   31.3043 C   0  0  0  0  0  0  0  0  0  0  0  0
   24.9333   10.4189   27.8414 C   0  0  0  0  0  0  0  0  0  0  0  0
   20.5691    5.0909   29.0809 C   0  0  0  0  0  0  0  0  0  0  0  0
   21.1149   12.9398   29.5417 C   0  0  0  0  0  0  0  0  0  0  0  0
   19.3767    7.1753   29.3240 C   0  0  0  0  0  0  0  0  0  0  0  0
   19.9593   12.3277   31.5663 C   0  0  0  0  0  0  0  0  0  0  0  0
   19.4765    5.9000   28.7732 C   0  0  0  0  0  0  0  0  0  0  0  0
   20.1071   13.1753   30.4729 C   0  0  0  0  0  0  0  0  0  0  0  0
   25.2155    6.2426   33.0691 H   0  0  0  0  0  0  0  0  0  0  0  0
   25.6645    8.7223   29.7789 H   0  0  0  0  0  0  0  0  0  0  0  0
   25.4327    2.2522   31.4496 H   0  0  0  0  0  0  0  0  0  0  0  0
   26.1569   11.4351   26.4690 H   0  0  0  0  0  0  0  0  0  0  0  0
   21.5665    8.7952   32.5087 H   0  0  0  0  0  0  0  0  0  0  0  0
   23.3035    8.8806   32.7067 H   0  0  0  0  0  0  0  0  0  0  0  0
   22.7266    3.7472   29.7872 H   0  0  0  0  0  0  0  0  0  0  0  0
   23.0897   12.3242   27.9156 H   0  0  0  0  0  0  0  0  0  0  0  0
   20.2342    8.6385   30.5942 H   0  0  0  0  0  0  0  0  0  0  0  0
   20.6561   10.6447   32.6197 H   0  0  0  0  0  0  0  0  0  0  0  0
   20.6253    4.0994   28.6468 H   0  0  0  0  0  0  0  0  0  0  0  0
   21.2248   13.6223   28.7069 H   0  0  0  0  0  0  0  0  0  0  0  0
   18.5219    7.7972   29.0905 H   0  0  0  0  0  0  0  0  0  0  0  0
   19.1891   12.5281   32.3003 H   0  0  0  0  0  0  0  0  0  0  0  0
   18.7024    5.5351   28.1104 H   0  0  0  0  0  0  0  0  0  0  0  0
   19.4481   14.0259   30.3546 H   0  0  0  0  0  0  0  0  0  0  0  0
  1 11  1  0
  2 12  1  0
  3 22  2  0
  4 23  2  0
  5 22  1  0
  6 23  1  0
  7  9  1  0
  7 11  2  0
  7 13  1  0
  8 10  1  0
  8 12  2  0
  8 13  1  0
  9 14  2  0
  9 20  1  0
 10 15  2  0
 10 21  1  0
 11 16  1  0
 12 17  1  0
 14 18  1  0
 14 24  1  0
 15 19  1  0
 15 25  1  0
 16 18  2  0
 16 22  1  0
 17 19  2  0
 17 23  1  0
 20 26  2  0
 21 27  2  0
 24 28  2  0
 25 29  2  0
 26 28  1  0
 27 29  1  0
  1 30  1  0
  2 31  1  0
  5 32  1  0
  6 33  1  0
 13 34  1  0
 13 35  1  0
 18 36  1  0
 19 37  1  0
 20 38  1  0
 21 39  1  0
 24 40  1  0
 25 41  1  0
 26 42  1  0
 27 43  1  0
 28 44  1  0
 29 45  1  0
M  END
> <Uni-Dock RESULT> 
ENERGY=   -4.625  LOWER_BOUND=    0.000  UPPER_BOUND=    0.000
INTER + INTRA:          -4.625
INTER:                  -4.625
INTRA:                   0.000
UNBOUND:                 0.000

$$$$

     RDKit          3D

 45 48  0  0  0  0  0  0  0  0999 V2000
   28.7982    6.4733   33.4222 O   0  0  0  0  0  0  0  0  0  0  0  0
   26.0749    5.6770   32.2820 O   0  0  0  0  0  0  0  0  0  0  0  0
   28.8501    9.0386   32.1389 O   0  0  0  0  0  0  0  0  0  0  0  0
   23.9244    5.9893   30.4180 O   0  0  0  0  0  0  0  0  0  0  0  0
   30.7107    9.1239   30.8048 O   0  0  0  0  0  0  0  0  0  0  0  0
   22.1522    4.7437   31.1642 O   0  0  0  0  0  0  0  0  0  0  0  0
   28.7340    4.7251   31.7441 C   0  0  0  0  0  0  0  0  0  0  0  0
   26.7043    3.3401   32.4012 C   0  0  0  0  0  0  0  0  0  0  0  0
   29.0601    4.2690   30.4355 C   0  0  0  0  0  0  0  0  0  0  0  0
   26.2968    1.9705   32.4194 C   0  0  0  0  0  0  0  0  0  0  0  0
   29.0043    6.0711   32.0977 C   0  0  0  0  0  0  0  0  0  0  0  0
   25.7505    4.3343   32.0637 C   0  0  0  0  0  0  0  0  0  0  0  0
   28.1180    3.7882   32.7808 C   0  0  0  0  0  0  0  0  0  0  0  0
   29.5949    5.1821   29.4915 C   0  0  0  0  0  0  0  0  0  0  0  0
   25.0025    1.6272   31.9437 C   0  0  0  0  0  0  0  0  0  0  0  0
   29.4978    6.9785   31.1303 C   0  0  0  0  0  0  0  0  0  0  0  0
   24.4830    3.9704   31.5552 C   0  0  0  0  0  0  0  0  0  0  0  0
   29.8016    6.5174   29.8453 C   0  0  0  0  0  0  0  0  0  0  0  0
   24.1264    2.6212   31.5029 C   0  0  0  0  0  0  0  0  0  0  0  0
   28.8847    2.9231   30.0393 C   0  0  0  0  0  0  0  0  0  0  0  0
   27.1178    0.9251   32.9119 C   0  0  0  0  0  0  0  0  0  0  0  0
   29.6704    8.4217   31.4076 C   0  0  0  0  0  0  0  0  0  0  0  0
   23.5205    4.9659   31.0328 C   0  0  0  0  0  0  0  0  0  0  0  0
   29.9124    4.7512   28.1924 C   0  0  0  0  0  0  0  0  0  0  0  0
   24.5891    0.2848   31.9115 C   0  0  0  0  0  0  0  0  0  0  0  0
   29.2064    2.5101   28.7448 C   0  0  0  0  0  0  0  0  0  0  0  0
   26.6872   -0.4032   32.8777 C   0  0  0  0  0  0  0  0  0  0  0  0
   29.7154    3.4216   27.8229 C   0  0  0  0  0  0  0  0  0  0  0  0
   25.4318   -0.7237   32.3709 C   0  0  0  0  0  0  0  0  0  0  0  0
   29.1335    7.3477   33.8025 H   0  0  0  0  0  0  0  0  0  0  0  0
   25.4016    6.4304   32.2509 H   0  0  0  0  0  0  0  0  0  0  0  0
   30.8298   10.1169   30.9658 H   0  0  0  0  0  0  0  0  0  0  0  0
   21.4800    5.4043   30.7929 H   0  0  0  0  0  0  0  0  0  0  0  0
   28.8377    2.9620   32.8947 H   0  0  0  0  0  0  0  0  0  0  0  0
   28.0588    4.2507   33.7870 H   0  0  0  0  0  0  0  0  0  0  0  0
   30.1843    7.2115   29.1047 H   0  0  0  0  0  0  0  0  0  0  0  0
   23.1533    2.3404   31.1139 H   0  0  0  0  0  0  0  0  0  0  0  0
   28.5132    2.1725   30.7184 H   0  0  0  0  0  0  0  0  0  0  0  0
   28.0822    1.0974   33.3573 H   0  0  0  0  0  0  0  0  0  0  0  0
   30.3151    5.4435   27.4623 H   0  0  0  0  0  0  0  0  0  0  0  0
   23.6081    0.0159   31.5373 H   0  0  0  0  0  0  0  0  0  0  0  0
   29.0638    1.4762   28.4572 H   0  0  0  0  0  0  0  0  0  0  0  0
   27.3299   -1.1884   33.2553 H   0  0  0  0  0  0  0  0  0  0  0  0
   29.9633    3.0959   26.8209 H   0  0  0  0  0  0  0  0  0  0  0  0
   25.1048   -1.7553   32.3477 H   0  0  0  0  0  0  0  0  0  0  0  0
  1 11  1  0
  2 12  1  0
  3 22  2  0
  4 23  2  0
  5 22  1  0
  6 23  1  0
  7  9  1  0
  7 11  2  0
  7 13  1  0
  8 10  1  0
  8 12  2  0
  8 13  1  0
  9 14  2  0
  9 20  1  0
 10 15  2  0
 10 21  1  0
 11 16  1  0
 12 17  1  0
 14 18  1  0
 14 24  1  0
 15 19  1  0
 15 25  1  0
 16 18  2  0
 16 22  1  0
 17 19  2  0
 17 23  1  0
 20 26  2  0
 21 27  2  0
 24 28  2  0
 25 29  2  0
 26 28  1  0
 27 29  1  0
  1 30  1  0
  2 31  1  0
  5 32  1  0
  6 33  1  0
 13 34  1  0
 13 35  1  0
 18 36  1  0
 19 37  1  0
 20 38  1  0
 21 39  1  0
 24 40  1  0
 25 41  1  0
 26 42  1  0
 27 43  1  0
 28 44  1  0
 29 45  1  0
M  END
> <Uni-Dock RESULT> 
ENERGY=   -4.481  LOWER_BOUND=    5.030  UPPER_BOUND=    8.904
INTER + INTRA:          -4.481
INTER:                  -4.481
INTRA:                   0.000
UNBOUND:                 0.000

$$$$

     RDKit          3D

 45 48  0  0  0  0  0  0  0  0999 V2000
   26.9708   15.0482   22.4611 O   0  0  0  0  0  0  0  0  0  0  0  0
   27.3750   13.0343   24.7263 O   0  0  0  0  0  0  0  0  0  0  0  0
   24.2338   14.3283   21.9912 O   0  0  0  0  0  0  0  0  0  0  0  0
   26.6048   10.7118   26.2127 O   0  0  0  0  0  0  0  0  0  0  0  0
   24.0485   13.6375   19.8147 O   0  0  0  0  0  0  0  0  0  0  0  0
   27.8365   10.6646   28.1439 O   0  0  0  0  0  0  0  0  0  0  0  0
   28.3990   13.1350   22.0417 C   0  0  0  0  0  0  0  0  0  0  0  0
   29.7351   12.9033   24.1936 C   0  0  0  0  0  0  0  0  0  0  0  0
   28.6465   11.9193   21.3435 C   0  0  0  0  0  0  0  0  0  0  0  0
   31.0571   12.5505   24.6062 C   0  0  0  0  0  0  0  0  0  0  0  0
   27.1544   13.7922   21.8719 C   0  0  0  0  0  0  0  0  0  0  0  0
   28.6358   12.4888   24.9883 C   0  0  0  0  0  0  0  0  0  0  0  0
   29.4550   13.7559   22.9534 C   0  0  0  0  0  0  0  0  0  0  0  0
   27.6242   11.3571   20.5374 C   0  0  0  0  0  0  0  0  0  0  0  0
   31.2258   11.6618   25.7022 C   0  0  0  0  0  0  0  0  0  0  0  0
   26.1310   13.1950   21.0982 C   0  0  0  0  0  0  0  0  0  0  0  0
   28.8211   11.5734   26.0491 C   0  0  0  0  0  0  0  0  0  0  0  0
   26.3858   11.9939   20.4285 C   0  0  0  0  0  0  0  0  0  0  0  0
   30.1144   11.1731   26.3917 C   0  0  0  0  0  0  0  0  0  0  0  0
   29.8902   11.2499   21.4100 C   0  0  0  0  0  0  0  0  0  0  0  0
   32.2242   13.0622   23.9855 C   0  0  0  0  0  0  0  0  0  0  0  0
   24.7712   13.7697   20.9974 C   0  0  0  0  0  0  0  0  0  0  0  0
   27.6883   10.9830   26.7965 C   0  0  0  0  0  0  0  0  0  0  0  0
   27.8478   10.1523   19.8500 C   0  0  0  0  0  0  0  0  0  0  0  0
   32.5120   11.2649   26.1049 C   0  0  0  0  0  0  0  0  0  0  0  0
   30.0973   10.0539   20.7197 C   0  0  0  0  0  0  0  0  0  0  0  0
   33.4950   12.6610   24.4038 C   0  0  0  0  0  0  0  0  0  0  0  0
   29.0786    9.5047   19.9448 C   0  0  0  0  0  0  0  0  0  0  0  0
   33.6387   11.7587   25.4530 C   0  0  0  0  0  0  0  0  0  0  0  0
   26.1988   15.6633   22.2439 H   0  0  0  0  0  0  0  0  0  0  0  0
   26.5835   12.9454   25.3489 H   0  0  0  0  0  0  0  0  0  0  0  0
   23.1079   14.0050   19.7360 H   0  0  0  0  0  0  0  0  0  0  0  0
   27.0783   10.2399   28.6644 H   0  0  0  0  0  0  0  0  0  0  0  0
   30.3353   13.9227   22.3125 H   0  0  0  0  0  0  0  0  0  0  0  0
   29.1678   14.7673   23.3060 H   0  0  0  0  0  0  0  0  0  0  0  0
   25.6031   11.5380   19.8315 H   0  0  0  0  0  0  0  0  0  0  0  0
   30.2582   10.4714   27.2066 H   0  0  0  0  0  0  0  0  0  0  0  0
   30.7186   11.6410   21.9785 H   0  0  0  0  0  0  0  0  0  0  0  0
   32.1961   13.7944   23.1973 H   0  0  0  0  0  0  0  0  0  0  0  0
   27.0701    9.7119   19.2370 H   0  0  0  0  0  0  0  0  0  0  0  0
   32.6462   10.5770   26.9317 H   0  0  0  0  0  0  0  0  0  0  0  0
   31.0550    9.5532   20.7831 H   0  0  0  0  0  0  0  0  0  0  0  0
   34.3748   13.0601   23.9151 H   0  0  0  0  0  0  0  0  0  0  0  0
   29.2448    8.5775   19.4115 H   0  0  0  0  0  0  0  0  0  0  0  0
   34.6268   11.4524   25.7719 H   0  0  0  0  0  0  0  0  0  0  0  0
  1 11  1  0
  2 12  1  0
  3 22  2  0
  4 23  2  0
  5 22  1  0
  6 23  1  0
  7  9  1  0
  7 11  2  0
  7 13  1  0
  8 10  1  0
  8 12  2  0
  8 13  1  0
  9 14  2  0
  9 20  1  0
 10 15  2  0
 10 21  1  0
 11 16  1  0
 12 17  1  0
 14 18  1  0
 14 24  1  0
 15 19  1  0
 15 25  1  0
 16 18  2  0
 16 22  1  0
 17 19  2  0
 17 23  1  0
 20 26  2  0
 21 27  2  0
 24 28  2  0
 25 29  2  0
 26 28  1  0
 27 29  1  0
  1 30  1  0
  2 31  1  0
  5 32  1  0
  6 33  1  0
 13 34  1  0
 13 35  1  0
 18 36  1  0
 19 37  1  0
 20 38  1  0
 21 39  1  0
 24 40  1  0
 25 41  1  0
 26 42  1  0
 27 43  1  0
 28 44  1  0
 29 45  1  0
M  END
> <Uni-Dock RESULT> 
ENERGY=   -4.061  LOWER_BOUND=    7.434  UPPER_BOUND=   11.734
INTER + INTRA:          -4.061
INTER:                  -4.061
INTRA:                   0.000
UNBOUND:                 0.000

$$$$

     RDKit          3D

 45 48  0  0  0  0  0  0  0  0999 V2000
   26.5307   15.4612   24.3114 O   0  0  0  0  0  0  0  0  0  0  0  0
   26.5512   12.8918   25.9692 O   0  0  0  0  0  0  0  0  0  0  0  0
   23.7991   15.1833   23.4799 O   0  0  0  0  0  0  0  0  0  0  0  0
   25.4538   10.3552   26.7160 O   0  0  0  0  0  0  0  0  0  0  0  0
   23.7612   15.1122   21.1902 O   0  0  0  0  0  0  0  0  0  0  0  0
   26.4911    9.6724   28.6414 O   0  0  0  0  0  0  0  0  0  0  0  0
   27.8268   13.5856   23.4878 C   0  0  0  0  0  0  0  0  0  0  0  0
   28.9316   12.6569   25.5821 C   0  0  0  0  0  0  0  0  0  0  0  0
   28.0360   12.5769   22.5051 C   0  0  0  0  0  0  0  0  0  0  0  0
   30.1750   12.0704   25.9725 C   0  0  0  0  0  0  0  0  0  0  0  0
   26.6630   14.3920   23.4182 C   0  0  0  0  0  0  0  0  0  0  0  0
   27.7319   12.1666   26.1586 C   0  0  0  0  0  0  0  0  0  0  0  0
   28.8411   13.8300   24.6029 C   0  0  0  0  0  0  0  0  0  0  0  0
   27.0502   12.3576   21.5096 C   0  0  0  0  0  0  0  0  0  0  0  0
   30.1655   10.9123   26.7960 C   0  0  0  0  0  0  0  0  0  0  0  0
   25.6700   14.1306   22.4442 C   0  0  0  0  0  0  0  0  0  0  0  0
   27.7399   10.9904   26.9423 C   0  0  0  0  0  0  0  0  0  0  0  0
   25.8851   13.1277   21.4935 C   0  0  0  0  0  0  0  0  0  0  0  0
   28.9575   10.3799   27.2506 C   0  0  0  0  0  0  0  0  0  0  0  0
   29.2076   11.7861   22.4721 C   0  0  0  0  0  0  0  0  0  0  0  0
   31.4338   12.6010   25.5939 C   0  0  0  0  0  0  0  0  0  0  0  0
   24.3785   14.8519   22.4108 C   0  0  0  0  0  0  0  0  0  0  0  0
   26.4968   10.3475   27.4235 C   0  0  0  0  0  0  0  0  0  0  0  0
   27.2356   11.3591   20.5387 C   0  0  0  0  0  0  0  0  0  0  0  0
   31.3707   10.2900   27.1625 C   0  0  0  0  0  0  0  0  0  0  0  0
   29.3777   10.7986   21.4997 C   0  0  0  0  0  0  0  0  0  0  0  0
   32.6218   11.9720   25.9732 C   0  0  0  0  0  0  0  0  0  0  0  0
   28.3936   10.5830   20.5379 C   0  0  0  0  0  0  0  0  0  0  0  0
   32.5908   10.8158   26.7464 C   0  0  0  0  0  0  0  0  0  0  0  0
   25.8365   16.1897   24.2169 H   0  0  0  0  0  0  0  0  0  0  0  0
   25.7003   12.7266   26.4894 H   0  0  0  0  0  0  0  0  0  0  0  0
   22.8660   15.5848   21.1504 H   0  0  0  0  0  0  0  0  0  0  0  0
   25.6547    9.2084   28.9749 H   0  0  0  0  0  0  0  0  0  0  0  0
   29.7883   14.0654   24.0921 H   0  0  0  0  0  0  0  0  0  0  0  0
   28.6078   14.7377   25.1957 H   0  0  0  0  0  0  0  0  0  0  0  0
   25.1263   12.9301   20.7437 H   0  0  0  0  0  0  0  0  0  0  0  0
   28.9652    9.4776   27.8531 H   0  0  0  0  0  0  0  0  0  0  0  0
   30.0090   11.9243   23.1800 H   0  0  0  0  0  0  0  0  0  0  0  0
   31.5408   13.5132   25.0333 H   0  0  0  0  0  0  0  0  0  0  0  0
   26.4845   11.1799   19.7782 H   0  0  0  0  0  0  0  0  0  0  0  0
   31.3689    9.3988   27.7794 H   0  0  0  0  0  0  0  0  0  0  0  0
   30.2800   10.2005   21.4901 H   0  0  0  0  0  0  0  0  0  0  0  0
   33.5738   12.3903   25.6715 H   0  0  0  0  0  0  0  0  0  0  0  0
   28.5308    9.8164   19.7863 H   0  0  0  0  0  0  0  0  0  0  0  0
   33.5156   10.3338   27.0367 H   0  0  0  0  0  0  0  0  0  0  0  0
  1 11  1  0
  2 12  1  0
  3 22  2  0
  4 23  2  0
  5 22  1  0
  6 23  1  0
  7  9  1  0
  7 11  2  0
  7 13  1  0
  8 10  1  0
  8 12  2  0
  8 13  1  0
  9 14  2  0
  9 20  1  0
 10 15  2  0
 10 21  1  0
 11 16  1  0
 12 17  1  0
 14 18  1  0
 14 24  1  0
 15 19  1  0
 15 25  1  0
 16 18  2  0
 16 22  1  0
 17 19  2  0
 17 23  1  0
 20 26  2  0
 21 27  2  0
 24 28  2  0
 25 29  2  0
 26 28  1  0
 27 29  1  0
  1 30  1  0
  2 31  1  0
  5 32  1  0
  6 33  1  0
 13 34  1  0
 13 35  1  0
 18 36  1  0
 19 37  1  0
 20 38  1  0
 21 39  1  0
 24 40  1  0
 25 41  1  0
 26 42  1  0
 27 43  1  0
 28 44  1  0
 29 45  1  0
M  END
> <Uni-Dock RESULT> 
ENERGY=   -4.024  LOWER_BOUND=    6.164  UPPER_BOUND=   10.898
INTER + INTRA:          -4.024
INTER:                  -4.024
INTRA:                   0.000
UNBOUND:                 0.000

$$$$

     RDKit          3D

 45 48  0  0  0  0  0  0  0  0999 V2000
   27.6708   15.3256   24.3601 O   0  0  0  0  0  0  0  0  0  0  0  0
   28.1179   12.8541   26.1044 O   0  0  0  0  0  0  0  0  0  0  0  0
   24.8452   14.9126   24.0860 O   0  0  0  0  0  0  0  0  0  0  0  0
   27.2930   10.3281   27.1702 O   0  0  0  0  0  0  0  0  0  0  0  0
   24.3735   14.7135   21.8529 O   0  0  0  0  0  0  0  0  0  0  0  0
   28.7074    9.7876   28.8896 O   0  0  0  0  0  0  0  0  0  0  0  0
   28.8649   13.4508   23.3930 C   0  0  0  0  0  0  0  0  0  0  0  0
   30.3883   12.6763   25.2768 C   0  0  0  0  0  0  0  0  0  0  0  0
   28.9255   12.3965   22.4381 C   0  0  0  0  0  0  0  0  0  0  0  0
   31.7073   12.1534   25.4476 C   0  0  0  0  0  0  0  0  0  0  0  0
   27.6757   14.2134   23.5107 C   0  0  0  0  0  0  0  0  0  0  0  0
   29.3430   12.1796   26.0970 C   0  0  0  0  0  0  0  0  0  0  0  0
   30.0621   13.7897   24.2782 C   0  0  0  0  0  0  0  0  0  0  0  0
   27.7779   12.0901   21.6634 C   0  0  0  0  0  0  0  0  0  0  0  0
   31.9050   11.0431   26.3122 C   0  0  0  0  0  0  0  0  0  0  0  0
   26.5271   13.8660   22.7605 C   0  0  0  0  0  0  0  0  0  0  0  0
   29.5510   11.0496   26.9200 C   0  0  0  0  0  0  0  0  0  0  0  0
   26.5992   12.8196   21.8354 C   0  0  0  0  0  0  0  0  0  0  0  0
   30.8300   10.4973   27.0165 C   0  0  0  0  0  0  0  0  0  0  0  0
   30.1020   11.6440   22.2176 C   0  0  0  0  0  0  0  0  0  0  0  0
   32.8467   12.7032   24.8080 C   0  0  0  0  0  0  0  0  0  0  0  0
   25.2232   14.5416   22.9424 C   0  0  0  0  0  0  0  0  0  0  0  0
   28.4514   10.3939   27.6625 C   0  0  0  0  0  0  0  0  0  0  0  0
   27.8170   11.0460   20.7241 C   0  0  0  0  0  0  0  0  0  0  0  0
   33.1835   10.4819   26.4686 C   0  0  0  0  0  0  0  0  0  0  0  0
   30.1252   10.6101   21.2793 C   0  0  0  0  0  0  0  0  0  0  0  0
   34.1111   12.1355   24.9806 C   0  0  0  0  0  0  0  0  0  0  0  0
   28.9856   10.3095   20.5371 C   0  0  0  0  0  0  0  0  0  0  0  0
   34.2779   11.0235   25.8000 C   0  0  0  0  0  0  0  0  0  0  0  0
   26.9409   16.0246   24.3665 H   0  0  0  0  0  0  0  0  0  0  0  0
   27.3899   12.6901   26.7864 H   0  0  0  0  0  0  0  0  0  0  0  0
   23.4679   15.1535   21.9639 H   0  0  0  0  0  0  0  0  0  0  0  0
   27.9708    9.3156   29.4003 H   0  0  0  0  0  0  0  0  0  0  0  0
   30.8833   14.0273   23.5835 H   0  0  0  0  0  0  0  0  0  0  0  0
   29.9077   14.7207   24.8605 H   0  0  0  0  0  0  0  0  0  0  0  0
   25.7204   12.5559   21.2567 H   0  0  0  0  0  0  0  0  0  0  0  0
   30.9914    9.6306   27.6488 H   0  0  0  0  0  0  0  0  0  0  0  0
   31.0172   11.8474   22.7500 H   0  0  0  0  0  0  0  0  0  0  0  0
   32.8054   13.5860   24.1940 H   0  0  0  0  0  0  0  0  0  0  0  0
   26.9428   10.8004   20.1324 H   0  0  0  0  0  0  0  0  0  0  0  0
   33.3378    9.6267   27.1164 H   0  0  0  0  0  0  0  0  0  0  0  0
   31.0338   10.0424   21.1244 H   0  0  0  0  0  0  0  0  0  0  0  0
   34.9690   12.5674   24.4811 H   0  0  0  0  0  0  0  0  0  0  0  0
   29.0094    9.5072   19.8108 H   0  0  0  0  0  0  0  0  0  0  0  0
   35.2609   10.5890   25.9291 H   0  0  0  0  0  0  0  0  0  0  0  0
  1 11  1  0
  2 12  1  0
  3 22  2  0
  4 23  2  0
  5 22  1  0
  6 23  1  0
  7  9  1  0
  7 11  2  0
  7 13  1  0
  8 10  1  0
  8 12  2  0
  8 13  1  0
  9 14  2  0
  9 20  1  0
 10 15  2  0
 10 21  1  0
 11 16  1  0
 12 17  1  0
 14 18  1  0
 14 24  1  0
 15 19  1  0
 15 25  1  0
 16 18  2  0
 16 22  1  0
 17 19  2  0
 17 23  1  0
 20 26  2  0
 21 27  2  0
 24 28  2  0
 25 29  2  0
 26 28  1  0
 27 29  1  0
  1 30  1  0
  2 31  1  0
  5 32  1  0
  6 33  1  0
 13 34  1  0
 13 35  1  0
 18 36  1  0
 19 37  1  0
 20 38  1  0
 21 39  1  0
 24 40  1  0
 25 41  1  0
 26 42  1  0
 27 43  1  0
 28 44  1  0
 29 45  1  0
M  END
> <Uni-Dock RESULT> 
ENERGY=   -3.898  LOWER_BOUND=    7.462  UPPER_BOUND=   11.515
INTER + INTRA:          -3.898
INTER:                  -3.898
INTRA:                   0.000
UNBOUND:                 0.000

$$$$

     RDKit          3D

 45 48  0  0  0  0  0  0  0  0999 V2000
   25.4525    5.4545   31.9834 O   0  0  0  0  0  0  0  0  0  0  0  0
   27.4765    4.4031   29.9466 O   0  0  0  0  0  0  0  0  0  0  0  0
   25.3331    8.0906   30.8579 O   0  0  0  0  0  0  0  0  0  0  0  0
   29.4539    4.7935   27.9133 O   0  0  0  0  0  0  0  0  0  0  0  0
   25.9564    9.5813   32.4821 O   0  0  0  0  0  0  0  0  0  0  0  0
   29.8475    2.7723   26.9090 O   0  0  0  0  0  0  0  0  0  0  0  0
   27.7064    4.9983   32.7500 C   0  0  0  0  0  0  0  0  0  0  0  0
   28.3054    2.8193   31.5825 C   0  0  0  0  0  0  0  0  0  0  0  0
   28.9468    5.4729   33.2629 C   0  0  0  0  0  0  0  0  0  0  0  0
   29.0306    1.6180   31.8531 C   0  0  0  0  0  0  0  0  0  0  0  0
   26.7115    5.9318   32.3650 C   0  0  0  0  0  0  0  0  0  0  0  0
   28.3689    3.3795   30.2809 C   0  0  0  0  0  0  0  0  0  0  0  0
   27.4186    3.5037   32.6258 C   0  0  0  0  0  0  0  0  0  0  0  0
   29.1876    6.8690   33.3250 C   0  0  0  0  0  0  0  0  0  0  0  0
   29.9200    1.1099   30.8682 C   0  0  0  0  0  0  0  0  0  0  0  0
   26.9852    7.3200   32.3934 C   0  0  0  0  0  0  0  0  0  0  0  0
   29.2890    2.8834   29.3296 C   0  0  0  0  0  0  0  0  0  0  0  0
   28.2135    7.7698   32.8885 C   0  0  0  0  0  0  0  0  0  0  0  0
   30.0516    1.7545   29.6367 C   0  0  0  0  0  0  0  0  0  0  0  0
   29.9540    4.5987   33.7324 C   0  0  0  0  0  0  0  0  0  0  0  0
   28.8929    0.8858   33.0591 C   0  0  0  0  0  0  0  0  0  0  0  0
   26.0343    8.3295   31.8775 C   0  0  0  0  0  0  0  0  0  0  0  0
   29.5109    3.5391   28.0215 C   0  0  0  0  0  0  0  0  0  0  0  0
   30.4103    7.3544   33.8184 C   0  0  0  0  0  0  0  0  0  0  0  0
   30.6767   -0.0465   31.1216 C   0  0  0  0  0  0  0  0  0  0  0  0
   31.1635    5.0968   34.2212 C   0  0  0  0  0  0  0  0  0  0  0  0
   29.6491   -0.2655   33.2906 C   0  0  0  0  0  0  0  0  0  0  0  0
   31.3928    6.4701   34.2611 C   0  0  0  0  0  0  0  0  0  0  0  0
   30.5445   -0.7250   32.3300 C   0  0  0  0  0  0  0  0  0  0  0  0
   24.6382    6.0429   31.8733 H   0  0  0  0  0  0  0  0  0  0  0  0
   27.3217    4.7278   29.0019 H   0  0  0  0  0  0  0  0  0  0  0  0
   25.3274   10.2919   32.1278 H   0  0  0  0  0  0  0  0  0  0  0  0
   30.0242    3.2075   26.0115 H   0  0  0  0  0  0  0  0  0  0  0  0
   27.5255    3.0983   33.6445 H   0  0  0  0  0  0  0  0  0  0  0  0
   26.3646    3.2973   32.3499 H   0  0  0  0  0  0  0  0  0  0  0  0
   28.4220    8.8340   32.9148 H   0  0  0  0  0  0  0  0  0  0  0  0
   30.7575    1.3720   28.9070 H   0  0  0  0  0  0  0  0  0  0  0  0
   29.8212    3.5288   33.7427 H   0  0  0  0  0  0  0  0  0  0  0  0
   28.1919    1.1532   33.8305 H   0  0  0  0  0  0  0  0  0  0  0  0
   30.6058    8.4195   33.8633 H   0  0  0  0  0  0  0  0  0  0  0  0
   31.3665   -0.4310   30.3792 H   0  0  0  0  0  0  0  0  0  0  0  0
   31.9249    4.4134   34.5749 H   0  0  0  0  0  0  0  0  0  0  0  0
   29.5326   -0.8096   34.2194 H   0  0  0  0  0  0  0  0  0  0  0  0
   32.3320    6.8506   34.6413 H   0  0  0  0  0  0  0  0  0  0  0  0
   31.1271   -1.6180   32.5165 H   0  0  0  0  0  0  0  0  0  0  0  0
  1 11  1  0
  2 12  1  0
  3 22  2  0
  4 23  2  0
  5 22  1  0
  6 23  1  0
  7  9  1  0
  7 11  2  0
  7 13  1  0
  8 10  1  0
  8 12  2  0
  8 13  1  0
  9 14  2  0
  9 20  1  0
 10 15  2  0
 10 21  1  0
 11 16  1  0
 12 17  1  0
 14 18  1  0
 14 24  1  0
 15 19  1  0
 15 25  1  0
 16 18  2  0
 16 22  1  0
 17 19  2  0
 17 23  1  0
 20 26  2  0
 21 27  2  0
 24 28  2  0
 25 29  2  0
 26 28  1  0
 27 29  1  0
  1 30  1  0
  2 31  1  0
  5 32  1  0
  6 33  1  0
 13 34  1  0
 13 35  1  0
 18 36  1  0
 19 37  1  0
 20 38  1  0
 21 39  1  0
 24 40  1  0
 25 41  1  0
 26 42  1  0
 27 43  1  0
 28 44  1  0
 29 45  1  0
M  END
> <Uni-Dock RESULT> 
ENERGY=   -3.706  LOWER_BOUND=    5.123  UPPER_BOUND=    9.967
INTER + INTRA:          -3.706
INTER:                  -3.706
INTRA:                   0.000
UNBOUND:                 0.000

$$$$

     RDKit          3D

 45 48  0  0  0  0  0  0  0  0999 V2000
   33.1517    6.3294   32.9450 O   0  0  0  0  0  0  0  0  0  0  0  0
   33.3671    7.4744   30.1178 O   0  0  0  0  0  0  0  0  0  0  0  0
   35.3880    4.5565   32.6523 O   0  0  0  0  0  0  0  0  0  0  0  0
   34.3247    7.3894   27.4210 O   0  0  0  0  0  0  0  0  0  0  0  0
   34.6460    2.4183   33.0081 O   0  0  0  0  0  0  0  0  0  0  0  0
   33.9170    9.4282   26.4587 O   0  0  0  0  0  0  0  0  0  0  0  0
   31.4302    5.7391   31.3437 C   0  0  0  0  0  0  0  0  0  0  0  0
   30.9854    7.9201   30.1129 C   0  0  0  0  0  0  0  0  0  0  0  0
   30.7788    4.7513   30.5520 C   0  0  0  0  0  0  0  0  0  0  0  0
   29.8821    8.6291   29.5450 C   0  0  0  0  0  0  0  0  0  0  0  0
   32.5945    5.3879   32.0723 C   0  0  0  0  0  0  0  0  0  0  0  0
   32.2376    7.9546   29.4475 C   0  0  0  0  0  0  0  0  0  0  0  0
   30.8882    7.1634   31.4401 C   0  0  0  0  0  0  0  0  0  0  0  0
   31.3376    3.4512   30.4596 C   0  0  0  0  0  0  0  0  0  0  0  0
   30.0223    9.2090   28.2553 C   0  0  0  0  0  0  0  0  0  0  0  0
   33.1619    4.0988   31.9342 C   0  0  0  0  0  0  0  0  0  0  0  0
   32.3458    8.5011   28.1485 C   0  0  0  0  0  0  0  0  0  0  0  0
   32.5164    3.1434   31.1426 C   0  0  0  0  0  0  0  0  0  0  0  0
   31.2361    9.1216   27.5707 C   0  0  0  0  0  0  0  0  0  0  0  0
   29.5748    5.0129   29.8583 C   0  0  0  0  0  0  0  0  0  0  0  0
   28.6463    8.8043   30.2168 C   0  0  0  0  0  0  0  0  0  0  0  0
   34.4468    3.7230   32.5645 C   0  0  0  0  0  0  0  0  0  0  0  0
   33.5874    8.4090   27.3484 C   0  0  0  0  0  0  0  0  0  0  0  0
   30.7135    2.4675   29.6742 C   0  0  0  0  0  0  0  0  0  0  0  0
   28.9423    9.8770   27.6543 C   0  0  0  0  0  0  0  0  0  0  0  0
   28.9659    4.0240   29.0829 C   0  0  0  0  0  0  0  0  0  0  0  0
   27.5856    9.4770   29.6058 C   0  0  0  0  0  0  0  0  0  0  0  0
   29.5349    2.7563   28.9880 C   0  0  0  0  0  0  0  0  0  0  0  0
   27.7293   10.0032   28.3259 C   0  0  0  0  0  0  0  0  0  0  0  0
   33.8593    6.1089   33.6322 H   0  0  0  0  0  0  0  0  0  0  0  0
   34.3155    7.6296   29.8039 H   0  0  0  0  0  0  0  0  0  0  0  0
   35.5275    2.1383   33.4212 H   0  0  0  0  0  0  0  0  0  0  0  0
   34.7517    9.3704   25.8877 H   0  0  0  0  0  0  0  0  0  0  0  0
   29.8618    7.0617   31.8272 H   0  0  0  0  0  0  0  0  0  0  0  0
   31.4186    7.7673   32.2041 H   0  0  0  0  0  0  0  0  0  0  0  0
   32.9483    2.1536   31.0402 H   0  0  0  0  0  0  0  0  0  0  0  0
   31.3181    9.5426   26.5741 H   0  0  0  0  0  0  0  0  0  0  0  0
   29.0815    5.9700   29.9130 H   0  0  0  0  0  0  0  0  0  0  0  0
   28.4724    8.4638   31.2228 H   0  0  0  0  0  0  0  0  0  0  0  0
   31.1370    1.4733   29.5923 H   0  0  0  0  0  0  0  0  0  0  0  0
   29.0394   10.3097   26.6653 H   0  0  0  0  0  0  0  0  0  0  0  0
   28.0454    4.2417   28.5564 H   0  0  0  0  0  0  0  0  0  0  0  0
   26.6480    9.5979   30.1335 H   0  0  0  0  0  0  0  0  0  0  0  0
   29.0585    1.9934   28.3858 H   0  0  0  0  0  0  0  0  0  0  0  0
   26.9030   10.5234   27.8587 H   0  0  0  0  0  0  0  0  0  0  0  0
  1 11  1  0
  2 12  1  0
  3 22  2  0
  4 23  2  0
  5 22  1  0
  6 23  1  0
  7  9  1  0
  7 11  2  0
  7 13  1  0
  8 10  1  0
  8 12  2  0
  8 13  1  0
  9 14  2  0
  9 20  1  0
 10 15  2  0
 10 21  1  0
 11 16  1  0
 12 17  1  0
 14 18  1  0
 14 24  1  0
 15 19  1  0
 15 25  1  0
 16 18  2  0
 16 22  1  0
 17 19  2  0
 17 23  1  0
 20 26  2  0
 21 27  2  0
 24 28  2  0
 25 29  2  0
 26 28  1  0
 27 29  1  0
  1 30  1  0
  2 31  1  0
  5 32  1  0
  6 33  1  0
 13 34  1  0
 13 35  1  0
 18 36  1  0
 19 37  1  0
 20 38  1  0
 21 39  1  0
 24 40  1  0
 25 41  1  0
 26 42  1  0
 27 43  1  0
 28 44  1  0
 29 45  1  0
M  END
> <Uni-Dock RESULT> 
ENERGY=   -3.688  LOWER_BOUND=    7.024  UPPER_BOUND=    9.180
INTER + INTRA:          -3.688
INTER:                  -3.688
INTRA:                   0.000
UNBOUND:                 0.000

$$$$

     RDKit          3D

 45 48  0  0  0  0  0  0  0  0999 V2000
   30.6901    9.8932   29.9324 O   0  0  0  0  0  0  0  0  0  0  0  0
   27.7346    9.8811   29.1479 O   0  0  0  0  0  0  0  0  0  0  0  0
   31.6514    9.8296   27.2302 O   0  0  0  0  0  0  0  0  0  0  0  0
   25.6196    9.4592   27.2650 O   0  0  0  0  0  0  0  0  0  0  0  0
   32.9470    7.9561   26.9849 O   0  0  0  0  0  0  0  0  0  0  0  0
   23.7047   10.3694   28.1332 O   0  0  0  0  0  0  0  0  0  0  0  0
   29.4007    7.8910   30.3847 C   0  0  0  0  0  0  0  0  0  0  0  0
   27.1803    8.7902   31.2394 C   0  0  0  0  0  0  0  0  0  0  0  0
   29.1463    6.5132   30.1319 C   0  0  0  0  0  0  0  0  0  0  0  0
   26.1864    8.4559   32.2104 C   0  0  0  0  0  0  0  0  0  0  0  0
   30.3560    8.5772   29.5934 C   0  0  0  0  0  0  0  0  0  0  0  0
   26.7674    9.3293   29.9940 C   0  0  0  0  0  0  0  0  0  0  0  0
   28.6803    8.6388   31.5044 C   0  0  0  0  0  0  0  0  0  0  0  0
   29.8087    5.8671   29.0573 C   0  0  0  0  0  0  0  0  0  0  0  0
   24.8144    8.5171   31.8456 C   0  0  0  0  0  0  0  0  0  0  0  0
   30.9753    7.9284   28.4986 C   0  0  0  0  0  0  0  0  0  0  0  0
   25.4003    9.3441   29.6357 C   0  0  0  0  0  0  0  0  0  0  0  0
   30.7052    6.5777   28.2560 C   0  0  0  0  0  0  0  0  0  0  0  0
   24.4424    8.9382   30.5673 C   0  0  0  0  0  0  0  0  0  0  0  0
   28.2610    5.7503   30.9278 C   0  0  0  0  0  0  0  0  0  0  0  0
   26.4996    8.0812   33.5411 C   0  0  0  0  0  0  0  0  0  0  0  0
   31.8761    8.6344   27.5608 C   0  0  0  0  0  0  0  0  0  0  0  0
   24.9365    9.7385   28.2867 C   0  0  0  0  0  0  0  0  0  0  0  0
   29.5613    4.5107   28.7872 C   0  0  0  0  0  0  0  0  0  0  0  0
   23.8166    8.1553   32.7661 C   0  0  0  0  0  0  0  0  0  0  0  0
   28.0268    4.4026   30.6473 C   0  0  0  0  0  0  0  0  0  0  0  0
   25.4935    7.7310   34.4445 C   0  0  0  0  0  0  0  0  0  0  0  0
   28.6720    3.7852   29.5784 C   0  0  0  0  0  0  0  0  0  0  0  0
   24.1578    7.7585   34.0562 C   0  0  0  0  0  0  0  0  0  0  0  0
   31.4817   10.3892   29.5464 H   0  0  0  0  0  0  0  0  0  0  0  0
   27.5171   10.4486   28.3402 H   0  0  0  0  0  0  0  0  0  0  0  0
   33.5600    8.4176   26.3236 H   0  0  0  0  0  0  0  0  0  0  0  0
   23.3627   10.6262   27.2149 H   0  0  0  0  0  0  0  0  0  0  0  0
   28.9221    8.0890   32.4279 H   0  0  0  0  0  0  0  0  0  0  0  0
   29.0914    9.6559   31.6666 H   0  0  0  0  0  0  0  0  0  0  0  0
   31.1831    6.0787   27.4197 H   0  0  0  0  0  0  0  0  0  0  0  0
   23.3926    8.9501   30.2940 H   0  0  0  0  0  0  0  0  0  0  0  0
   27.7510    6.1728   31.7786 H   0  0  0  0  0  0  0  0  0  0  0  0
   27.5038    8.0766   33.9280 H   0  0  0  0  0  0  0  0  0  0  0  0
   30.0579    4.0104   27.9640 H   0  0  0  0  0  0  0  0  0  0  0  0
   22.7692    8.1874   32.4892 H   0  0  0  0  0  0  0  0  0  0  0  0
   27.3442    3.8335   31.2655 H   0  0  0  0  0  0  0  0  0  0  0  0
   25.7525    7.4441   35.4558 H   0  0  0  0  0  0  0  0  0  0  0  0
   28.4869    2.7402   29.3657 H   0  0  0  0  0  0  0  0  0  0  0  0
   23.3834    7.4859   34.7618 H   0  0  0  0  0  0  0  0  0  0  0  0
  1 11  1  0
  2 12  1  0
  3 22  2  0
  4 23  2  0
  5 22  1  0
  6 23  1  0
  7  9  1  0
  7 11  2  0
  7 13  1  0
  8 10  1  0
  8 12  2  0
  8 13  1  0
  9 14  2  0
  9 20  1  0
 10 15  2  0
 10 21  1  0
 11 16  1  0
 12 17  1  0
 14 18  1  0
 14 24  1  0
 15 19  1  0
 15 25  1  0
 16 18  2  0
 16 22  1  0
 17 19  2  0
 17 23  1  0
 20 26  2  0
 21 27  2  0
 24 28  2  0
 25 29  2  0
 26 28  1  0
 27 29  1  0
  1 30  1  0
  2 31  1  0
  5 32  1  0
  6 33  1  0
 13 34  1  0
 13 35  1  0
 18 36  1  0
 19 37  1  0
 20 38  1  0
 21 39  1  0
 24 40  1  0
 25 41  1  0
 26 42  1  0
 27 43  1  0
 28 44  1  0
 29 45  1  0
M  END
> <Uni-Dock RESULT> 
ENERGY=   -3.671  LOWER_BOUND=    4.548  UPPER_BOUND=    6.890
INTER + INTRA:          -3.671
INTER:                  -3.671
INTRA:                   0.000
UNBOUND:                 0.000

$$$$

     RDKit          3D

 45 48  0  0  0  0  0  0  0  0999 V2000
   32.4874   13.4185   24.0008 O   0  0  0  0  0  0  0  0  0  0  0  0
   30.7637   11.7875   22.0723 O   0  0  0  0  0  0  0  0  0  0  0  0
   34.3317   11.2857   24.5298 O   0  0  0  0  0  0  0  0  0  0  0  0
   29.8901    9.3067   20.9413 O   0  0  0  0  0  0  0  0  0  0  0  0
   34.3026   10.8687   26.7824 O   0  0  0  0  0  0  0  0  0  0  0  0
   28.6704    9.7754   19.0594 O   0  0  0  0  0  0  0  0  0  0  0  0
   30.2666   12.7729   24.7271 C   0  0  0  0  0  0  0  0  0  0  0  0
   28.8331   13.1302   22.6567 C   0  0  0  0  0  0  0  0  0  0  0  0
   29.4332   12.0232   25.6047 C   0  0  0  0  0  0  0  0  0  0  0  0
   27.5176   13.5782   22.3234 C   0  0  0  0  0  0  0  0  0  0  0  0
   31.6711   12.5867   24.7757 C   0  0  0  0  0  0  0  0  0  0  0  0
   29.4013   12.0622   21.9160 C   0  0  0  0  0  0  0  0  0  0  0  0
   29.6796   13.7883   23.7493 C   0  0  0  0  0  0  0  0  0  0  0  0
   30.0163   11.0627   26.4699 C   0  0  0  0  0  0  0  0  0  0  0  0
   26.7549   12.8420   21.3769 C   0  0  0  0  0  0  0  0  0  0  0  0
   32.2316   11.5938   25.6141 C   0  0  0  0  0  0  0  0  0  0  0  0
   28.6134   11.3184   21.0086 C   0  0  0  0  0  0  0  0  0  0  0  0
   31.3978   10.8570   26.4614 C   0  0  0  0  0  0  0  0  0  0  0  0
   27.3007   11.7194   20.7512 C   0  0  0  0  0  0  0  0  0  0  0  0
   28.0328   12.2106   25.6601 C   0  0  0  0  0  0  0  0  0  0  0  0
   26.9331   14.7442   22.8785 C   0  0  0  0  0  0  0  0  0  0  0  0
   33.6745   11.2662   25.6051 C   0  0  0  0  0  0  0  0  0  0  0  0
   29.1116   10.0952   20.3407 C   0  0  0  0  0  0  0  0  0  0  0  0
   29.2074   10.3066   27.3347 C   0  0  0  0  0  0  0  0  0  0  0  0
   25.4439   13.2348   21.0595 C   0  0  0  0  0  0  0  0  0  0  0  0
   27.2426   11.4522   26.5262 C   0  0  0  0  0  0  0  0  0  0  0  0
   25.6304   15.1228   22.5461 C   0  0  0  0  0  0  0  0  0  0  0  0
   27.8272   10.5007   27.3586 C   0  0  0  0  0  0  0  0  0  0  0  0
   24.8849   14.3662   21.6475 C   0  0  0  0  0  0  0  0  0  0  0  0
   33.4901   13.4818   24.1103 H   0  0  0  0  0  0  0  0  0  0  0  0
   31.2890   11.1808   21.4576 H   0  0  0  0  0  0  0  0  0  0  0  0
   35.2843   10.6190   26.7896 H   0  0  0  0  0  0  0  0  0  0  0  0
   28.9846    8.9308   18.5968 H   0  0  0  0  0  0  0  0  0  0  0  0
   29.1294   14.5116   24.3719 H   0  0  0  0  0  0  0  0  0  0  0  0
   30.4619   14.3899   23.2435 H   0  0  0  0  0  0  0  0  0  0  0  0
   31.8274   10.0990   27.1077 H   0  0  0  0  0  0  0  0  0  0  0  0
   26.6950   11.1500   20.0540 H   0  0  0  0  0  0  0  0  0  0  0  0
   27.5315   12.9469   25.0525 H   0  0  0  0  0  0  0  0  0  0  0  0
   27.4602   15.4030   23.5466 H   0  0  0  0  0  0  0  0  0  0  0  0
   29.6435    9.5656   27.9945 H   0  0  0  0  0  0  0  0  0  0  0  0
   24.8528   12.6695   20.3483 H   0  0  0  0  0  0  0  0  0  0  0  0
   26.1716   11.6069   26.5545 H   0  0  0  0  0  0  0  0  0  0  0  0
   25.1998   16.0148   22.9831 H   0  0  0  0  0  0  0  0  0  0  0  0
   27.2099    9.9158   28.0283 H   0  0  0  0  0  0  0  0  0  0  0  0
   23.8759   14.6658   21.3945 H   0  0  0  0  0  0  0  0  0  0  0  0
  1 11  1  0
  2 12  1  0
  3 22  2  0
  4 23  2  0
  5 22  1  0
  6 23  1  0
  7  9  1  0
  7 11  2  0
  7 13  1  0
  8 10  1  0
  8 12  2  0
  8 13  1  0
  9 14  2  0
  9 20  1  0
 10 15  2  0
 10 21  1  0
 11 16  1  0
 12 17  1  0
 14 18  1  0
 14 24  1  0
 15 19  1  0
 15 25  1  0
 16 18  2  0
 16 22  1  0
 17 19  2  0
 17 23  1  0
 20 26  2  0
 21 27  2  0
 24 28  2  0
 25 29  2  0
 26 28  1  0
 27 29  1  0
  1 30  1  0
  2 31  1  0
  5 32  1  0
  6 33  1  0
 13 34  1  0
 13 35  1  0
 18 36  1  0
 19 37  1  0
 20 38  1  0
 21 39  1  0
 24 40  1  0
 25 41  1  0
 26 42  1  0
 27 43  1  0
 28 44  1  0
 29 45  1  0
M  END
> <Uni-Dock RESULT> 
ENERGY=   -3.599  LOWER_BOUND=    8.220  UPPER_BOUND=   10.753
INTER + INTRA:          -3.599
INTER:                  -3.599
INTRA:                   0.000
UNBOUND:                 0.000

$$$$
