
     RDKit          3D

 45 48  0  0  0  0  0  0  0  0999 V2000
   24.7664    8.7440   30.2398 O   0  0  0  0  0  0  0  0  0  0  0  0
   24.5406    6.8596   32.6374 O   0  0  0  0  0  0  0  0  0  0  0  0
   25.2933    9.2665   27.4746 O   0  0  0  0  0  0  0  0  0  0  0  0
   26.0047    4.7259   31.3988 O   0  0  0  0  0  0  0  0  0  0  0  0
   25.4687   11.5345   27.2020 O   0  0  0  0  0  0  0  0  0  0  0  0
   24.6451    2.8830   31.3297 O   0  0  0  0  0  0  0  0  0  0  0  0
   22.6878    9.8125   30.8794 C   0  0  0  0  0  0  0  0  0  0  0  0
   22.5336    7.3193   31.3580 C   0  0  0  0  0  0  0  0  0  0  0  0
   21.8207   10.9441   30.7780 C   0  0  0  0  0  0  0  0  0  0  0  0
   21.4966    6.8610   30.4970 C   0  0  0  0  0  0  0  0  0  0  0  0
   23.7857    9.7086   29.9873 C   0  0  0  0  0  0  0  0  0  0  0  0
   23.5970    6.4430   31.6917 C   0  0  0  0  0  0  0  0  0  0  0  0
   22.5126    8.7284   31.9459 C   0  0  0  0  0  0  0  0  0  0  0  0
   21.9821   11.8442   29.6902 C   0  0  0  0  0  0  0  0  0  0  0  0
   21.5750    5.5583   29.9422 C   0  0  0  0  0  0  0  0  0  0  0  0
   23.9049   10.5905   28.8893 C   0  0  0  0  0  0  0  0  0  0  0  0
   23.6812    5.1624   31.0950 C   0  0  0  0  0  0  0  0  0  0  0  0
   23.0012   11.6467   28.7564 C   0  0  0  0  0  0  0  0  0  0  0  0
   22.6605    4.7319   30.2414 C   0  0  0  0  0  0  0  0  0  0  0  0
   20.8085   11.2311   31.7278 C   0  0  0  0  0  0  0  0  0  0  0  0
   20.3708    7.6560   30.1812 C   0  0  0  0  0  0  0  0  0  0  0  0
   24.9341   10.4181   27.8396 C   0  0  0  0  0  0  0  0  0  0  0  0
   24.8368    4.2619   31.3032 C   0  0  0  0  0  0  0  0  0  0  0  0
   21.1189   12.9426   29.5417 C   0  0  0  0  0  0  0  0  0  0  0  0
   20.5657    5.0941   29.0820 C   0  0  0  0  0  0  0  0  0  0  0  0
   19.9639   12.3318   31.5670 C   0  0  0  0  0  0  0  0  0  0  0  0
   19.3753    7.1797   29.3257 C   0  0  0  0  0  0  0  0  0  0  0  0
   20.1118   13.1792   30.4735 C   0  0  0  0  0  0  0  0  0  0  0  0
   19.4737    5.9042   28.7749 C   0  0  0  0  0  0  0  0  0  0  0  0
   25.6647    8.7211   29.7769 H   0  0  0  0  0  0  0  0  0  0  0  0
   25.2153    6.2421   33.0676 H   0  0  0  0  0  0  0  0  0  0  0  0
   26.1579   11.4331   26.4664 H   0  0  0  0  0  0  0  0  0  0  0  0
   25.4281    2.2512   31.4485 H   0  0  0  0  0  0  0  0  0  0  0  0
   21.5683    8.7980   32.5089 H   0  0  0  0  0  0  0  0  0  0  0  0
   23.3055    8.8818   32.7058 H   0  0  0  0  0  0  0  0  0  0  0  0
   23.0922   12.3250   27.9146 H   0  0  0  0  0  0  0  0  0  0  0  0
   22.7223    3.7485   29.7873 H   0  0  0  0  0  0  0  0  0  0  0  0
   20.6595   10.6482   32.6202 H   0  0  0  0  0  0  0  0  0  0  0  0
   20.2348    8.6421   30.5951 H   0  0  0  0  0  0  0  0  0  0  0  0
   21.2288   13.6250   28.7068 H   0  0  0  0  0  0  0  0  0  0  0  0
   20.6207    4.1025   28.6482 H   0  0  0  0  0  0  0  0  0  0  0  0
   19.1941   12.5329   32.3013 H   0  0  0  0  0  0  0  0  0  0  0  0
   18.5209    7.8023   29.0925 H   0  0  0  0  0  0  0  0  0  0  0  0
   19.4536   14.0303   30.3554 H   0  0  0  0  0  0  0  0  0  0  0  0
   18.6988    5.5399   28.1126 H   0  0  0  0  0  0  0  0  0  0  0  0
  1 11  1  0
  2 12  1  0
  3 22  2  0
  4 23  2  0
  5 22  1  0
  6 23  1  0
  7  9  1  0
  7 11  2  0
  7 13  1  0
  8 10  1  0
  8 12  2  0
  8 13  1  0
  9 14  2  0
  9 20  1  0
 10 15  2  0
 10 21  1  0
 11 16  1  0
 12 17  1  0
 14 18  1  0
 14 24  1  0
 15 19  1  0
 15 25  1  0
 16 18  2  0
 16 22  1  0
 17 19  2  0
 17 23  1  0
 20 26  2  0
 21 27  2  0
 24 28  2  0
 25 29  2  0
 26 28  1  0
 27 29  1  0
  1 30  1  0
  2 31  1  0
  5 32  1  0
  6 33  1  0
 13 34  1  0
 13 35  1  0
 18 36  1  0
 19 37  1  0
 20 38  1  0
 21 39  1  0
 24 40  1  0
 25 41  1  0
 26 42  1  0
 27 43  1  0
 28 44  1  0
 29 45  1  0
M  END
> <Uni-Dock RESULT> 
ENERGY=   -4.623  LOWER_BOUND=    0.000  UPPER_BOUND=    0.000
INTER + INTRA:          -4.623
INTER:                  -4.623
INTRA:                   0.000
UNBOUND:                 0.000

$$$$

     RDKit          3D

 45 48  0  0  0  0  0  0  0  0999 V2000
   26.1074    5.6941   32.2184 O   0  0  0  0  0  0  0  0  0  0  0  0
   28.8386    6.5433   33.3002 O   0  0  0  0  0  0  0  0  0  0  0  0
   23.9208    5.9514   30.3884 O   0  0  0  0  0  0  0  0  0  0  0  0
   28.8320    9.0916   31.9826 O   0  0  0  0  0  0  0  0  0  0  0  0
   22.1796    4.6915   31.1818 O   0  0  0  0  0  0  0  0  0  0  0  0
   30.6680    9.1847   30.6152 O   0  0  0  0  0  0  0  0  0  0  0  0
   26.7717    3.3680   32.3575 C   0  0  0  0  0  0  0  0  0  0  0  0
   28.7699    4.7720   31.6468 C   0  0  0  0  0  0  0  0  0  0  0  0
   26.3839    1.9931   32.4008 C   0  0  0  0  0  0  0  0  0  0  0  0
   29.0799    4.3030   30.3389 C   0  0  0  0  0  0  0  0  0  0  0  0
   25.7983    4.3441   32.0235 C   0  0  0  0  0  0  0  0  0  0  0  0
   29.0273    6.1263   31.9778 C   0  0  0  0  0  0  0  0  0  0  0  0
   28.1853    3.8407   32.7063 C   0  0  0  0  0  0  0  0  0  0  0  0
   25.0865    1.6256   31.9524 C   0  0  0  0  0  0  0  0  0  0  0  0
   29.5853    5.2106   29.3736 C   0  0  0  0  0  0  0  0  0  0  0  0
   24.5274    3.9558   31.5422 C   0  0  0  0  0  0  0  0  0  0  0  0
   29.4913    7.0273   30.9900 C   0  0  0  0  0  0  0  0  0  0  0  0
   24.1890    2.6013   31.5139 C   0  0  0  0  0  0  0  0  0  0  0  0
   29.7793    6.5532   29.7062 C   0  0  0  0  0  0  0  0  0  0  0  0
   27.2279    0.9660   32.8926 C   0  0  0  0  0  0  0  0  0  0  0  0
   28.9166    2.9495   29.9636 C   0  0  0  0  0  0  0  0  0  0  0  0
   23.5420    4.9309   31.0236 C   0  0  0  0  0  0  0  0  0  0  0  0
   29.6482    8.4764   31.2452 C   0  0  0  0  0  0  0  0  0  0  0  0
   24.6917    0.2774   31.9451 C   0  0  0  0  0  0  0  0  0  0  0  0
   29.8863    4.7668   28.0749 C   0  0  0  0  0  0  0  0  0  0  0  0
   26.8157   -0.3684   32.8835 C   0  0  0  0  0  0  0  0  0  0  0  0
   29.2217    2.5237   28.6692 C   0  0  0  0  0  0  0  0  0  0  0  0
   25.5563   -0.7131   32.4030 C   0  0  0  0  0  0  0  0  0  0  0  0
   29.7017    3.4297   27.7265 C   0  0  0  0  0  0  0  0  0  0  0  0
   25.4232    6.4375   32.1892 H   0  0  0  0  0  0  0  0  0  0  0  0
   29.1680    7.4273   33.6632 H   0  0  0  0  0  0  0  0  0  0  0  0
   21.4917    5.3377   30.8137 H   0  0  0  0  0  0  0  0  0  0  0  0
   30.7758   10.1815   30.7609 H   0  0  0  0  0  0  0  0  0  0  0  0
   28.9185    3.0261   32.8185 H   0  0  0  0  0  0  0  0  0  0  0  0
   28.1369    4.3158   33.7071 H   0  0  0  0  0  0  0  0  0  0  0  0
   23.2134    2.3019   31.1457 H   0  0  0  0  0  0  0  0  0  0  0  0
   30.1393    7.2426   28.9498 H   0  0  0  0  0  0  0  0  0  0  0  0
   28.1974    1.1576   33.3187 H   0  0  0  0  0  0  0  0  0  0  0  0
   28.5676    2.2030   30.6587 H   0  0  0  0  0  0  0  0  0  0  0  0
   23.7082   -0.0102   31.5917 H   0  0  0  0  0  0  0  0  0  0  0  0
   30.2667    5.4548   27.3290 H   0  0  0  0  0  0  0  0  0  0  0  0
   27.4758   -1.1396   33.2601 H   0  0  0  0  0  0  0  0  0  0  0  0
   29.0888    1.4842   28.3977 H   0  0  0  0  0  0  0  0  0  0  0  0
   25.2435   -1.7494   32.3991 H   0  0  0  0  0  0  0  0  0  0  0  0
   29.9369    3.0941   26.7247 H   0  0  0  0  0  0  0  0  0  0  0  0
  1 11  1  0
  2 12  1  0
  3 22  2  0
  4 23  2  0
  5 22  1  0
  6 23  1  0
  7  9  1  0
  7 11  2  0
  7 13  1  0
  8 10  1  0
  8 12  2  0
  8 13  1  0
  9 14  2  0
  9 20  1  0
 10 15  2  0
 10 21  1  0
 11 16  1  0
 12 17  1  0
 14 18  1  0
 14 24  1  0
 15 19  1  0
 15 25  1  0
 16 18  2  0
 16 22  1  0
 17 19  2  0
 17 23  1  0
 20 26  2  0
 21 27  2  0
 24 28  2  0
 25 29  2  0
 26 28  1  0
 27 29  1  0
  1 30  1  0
  2 31  1  0
  5 32  1  0
  6 33  1  0
 13 34  1  0
 13 35  1  0
 18 36  1  0
 19 37  1  0
 20 38  1  0
 21 39  1  0
 24 40  1  0
 25 41  1  0
 26 42  1  0
 27 43  1  0
 28 44  1  0
 29 45  1  0
M  END
> <Uni-Dock RESULT> 
ENERGY=   -4.495  LOWER_BOUND=    5.043  UPPER_BOUND=    8.920
INTER + INTRA:          -4.495
INTER:                  -4.495
INTRA:                   0.000
UNBOUND:                 0.000

$$$$

     RDKit          3D

 45 48  0  0  0  0  0  0  0  0999 V2000
   27.3655   13.0485   24.8122 O   0  0  0  0  0  0  0  0  0  0  0  0
   26.9696   15.0958   22.5756 O   0  0  0  0  0  0  0  0  0  0  0  0
   26.5782   10.7162   26.2743 O   0  0  0  0  0  0  0  0  0  0  0  0
   24.2213   14.4138   22.1156 O   0  0  0  0  0  0  0  0  0  0  0  0
   27.8223   10.6302   28.1962 O   0  0  0  0  0  0  0  0  0  0  0  0
   24.0132   13.7531   19.9317 O   0  0  0  0  0  0  0  0  0  0  0  0
   29.7203   12.8970   24.2616 C   0  0  0  0  0  0  0  0  0  0  0  0
   28.3724   13.1716   22.1222 C   0  0  0  0  0  0  0  0  0  0  0  0
   31.0408   12.5235   24.6606 C   0  0  0  0  0  0  0  0  0  0  0  0
   28.6009   11.9621   21.4068 C   0  0  0  0  0  0  0  0  0  0  0  0
   28.6216   12.4850   25.0585 C   0  0  0  0  0  0  0  0  0  0  0  0
   27.1344   13.8453   21.9693 C   0  0  0  0  0  0  0  0  0  0  0  0
   29.4417   13.7685   23.0343 C   0  0  0  0  0  0  0  0  0  0  0  0
   31.2065   11.6191   25.7440 C   0  0  0  0  0  0  0  0  0  0  0  0
   27.5667   11.4222   20.6007 C   0  0  0  0  0  0  0  0  0  0  0  0
   28.8034   11.5542   26.1064 C   0  0  0  0  0  0  0  0  0  0  0  0
   26.0989   13.2700   21.1951 C   0  0  0  0  0  0  0  0  0  0  0  0
   30.0941   11.1345   26.4349 C   0  0  0  0  0  0  0  0  0  0  0  0
   26.3352   12.0748   20.5085 C   0  0  0  0  0  0  0  0  0  0  0  0
   32.2096   13.0294   24.0383 C   0  0  0  0  0  0  0  0  0  0  0  0
   29.8371   11.2776   21.4562 C   0  0  0  0  0  0  0  0  0  0  0  0
   27.6687   10.9675   26.8541 C   0  0  0  0  0  0  0  0  0  0  0  0
   24.7452   13.8617   21.1111 C   0  0  0  0  0  0  0  0  0  0  0  0
   32.4906   11.2021   26.1327 C   0  0  0  0  0  0  0  0  0  0  0  0
   27.7715   10.2238   19.8965 C   0  0  0  0  0  0  0  0  0  0  0  0
   33.4784   12.6083   24.4427 C   0  0  0  0  0  0  0  0  0  0  0  0
   30.0255   10.0882   20.7493 C   0  0  0  0  0  0  0  0  0  0  0  0
   33.6186   11.6911   25.4794 C   0  0  0  0  0  0  0  0  0  0  0  0
   28.9952    9.5607   19.9746 C   0  0  0  0  0  0  0  0  0  0  0  0
   26.5773   12.9609   25.4391 H   0  0  0  0  0  0  0  0  0  0  0  0
   26.2033   15.7226   22.3716 H   0  0  0  0  0  0  0  0  0  0  0  0
   27.0627   10.2077   28.7166 H   0  0  0  0  0  0  0  0  0  0  0  0
   23.0763   14.1325   19.8642 H   0  0  0  0  0  0  0  0  0  0  0  0
   30.3196   13.9332   22.3894 H   0  0  0  0  0  0  0  0  0  0  0  0
   29.1688   14.7785   23.4017 H   0  0  0  0  0  0  0  0  0  0  0  0
   30.2352   10.4209   27.2398 H   0  0  0  0  0  0  0  0  0  0  0  0
   25.5432   11.6356   19.9111 H   0  0  0  0  0  0  0  0  0  0  0  0
   32.1846   13.7720   23.2596 H   0  0  0  0  0  0  0  0  0  0  0  0
   30.6739   11.6516   22.0238 H   0  0  0  0  0  0  0  0  0  0  0  0
   32.6224   10.5022   26.9497 H   0  0  0  0  0  0  0  0  0  0  0  0
   26.9846    9.8004   19.2834 H   0  0  0  0  0  0  0  0  0  0  0  0
   34.3594   13.0034   23.9530 H   0  0  0  0  0  0  0  0  0  0  0  0
   30.9777    9.5756   20.7998 H   0  0  0  0  0  0  0  0  0  0  0  0
   34.6052   11.3693   25.7875 H   0  0  0  0  0  0  0  0  0  0  0  0
   29.1470    8.6386   19.4284 H   0  0  0  0  0  0  0  0  0  0  0  0
  1 11  1  0
  2 12  1  0
  3 22  2  0
  4 23  2  0
  5 22  1  0
  6 23  1  0
  7  9  1  0
  7 11  2  0
  7 13  1  0
  8 10  1  0
  8 12  2  0
  8 13  1  0
  9 14  2  0
  9 20  1  0
 10 15  2  0
 10 21  1  0
 11 16  1  0
 12 17  1  0
 14 18  1  0
 14 24  1  0
 15 19  1  0
 15 25  1  0
 16 18  2  0
 16 22  1  0
 17 19  2  0
 17 23  1  0
 20 26  2  0
 21 27  2  0
 24 28  2  0
 25 29  2  0
 26 28  1  0
 27 29  1  0
  1 30  1  0
  2 31  1  0
  5 32  1  0
  6 33  1  0
 13 34  1  0
 13 35  1  0
 18 36  1  0
 19 37  1  0
 20 38  1  0
 21 39  1  0
 24 40  1  0
 25 41  1  0
 26 42  1  0
 27 43  1  0
 28 44  1  0
 29 45  1  0
M  END
> <Uni-Dock RESULT> 
ENERGY=   -4.063  LOWER_BOUND=    7.388  UPPER_BOUND=   11.694
INTER + INTRA:          -4.063
INTER:                  -4.063
INTRA:                   0.000
UNBOUND:                 0.000

$$$$

     RDKit          3D

 45 48  0  0  0  0  0  0  0  0999 V2000
   26.7320   12.8830   25.8091 O   0  0  0  0  0  0  0  0  0  0  0  0
   26.6646   15.3878   24.0563 O   0  0  0  0  0  0  0  0  0  0  0  0
   25.6691   10.3664   26.6657 O   0  0  0  0  0  0  0  0  0  0  0  0
   23.9248   15.0541   23.2736 O   0  0  0  0  0  0  0  0  0  0  0  0
   26.7387    9.7663   28.6008 O   0  0  0  0  0  0  0  0  0  0  0  0
   23.8569   14.8964   20.9889 O   0  0  0  0  0  0  0  0  0  0  0  0
   29.1091   12.6554   25.3984 C   0  0  0  0  0  0  0  0  0  0  0  0
   27.9674   13.4944   23.2861 C   0  0  0  0  0  0  0  0  0  0  0  0
   30.3633   12.0953   25.7933 C   0  0  0  0  0  0  0  0  0  0  0  0
   28.1731   12.4514   22.3391 C   0  0  0  0  0  0  0  0  0  0  0  0
   27.9221   12.1762   26.0093 C   0  0  0  0  0  0  0  0  0  0  0  0
   26.7950   14.2870   23.2022 C   0  0  0  0  0  0  0  0  0  0  0  0
   28.9941   13.7899   24.3770 C   0  0  0  0  0  0  0  0  0  0  0  0
   30.3759   10.9691   26.6598 C   0  0  0  0  0  0  0  0  0  0  0  0
   27.1762   12.1857   21.3662 C   0  0  0  0  0  0  0  0  0  0  0  0
   27.9520   11.0306   26.8364 C   0  0  0  0  0  0  0  0  0  0  0  0
   25.7917   13.9801   22.2525 C   0  0  0  0  0  0  0  0  0  0  0  0
   29.1792   10.4431   27.1507 C   0  0  0  0  0  0  0  0  0  0  0  0
   26.0036   12.9442   21.3372 C   0  0  0  0  0  0  0  0  0  0  0  0
   31.6116   12.6226   25.3778 C   0  0  0  0  0  0  0  0  0  0  0  0
   29.3517   11.6706   22.3197 C   0  0  0  0  0  0  0  0  0  0  0  0
   26.7215   10.3950   27.3586 C   0  0  0  0  0  0  0  0  0  0  0  0
   24.4929   14.6879   22.2098 C   0  0  0  0  0  0  0  0  0  0  0  0
   31.5917   10.3720   27.0328 C   0  0  0  0  0  0  0  0  0  0  0  0
   27.3581   11.1531   20.4310 C   0  0  0  0  0  0  0  0  0  0  0  0
   32.8106   12.0193   25.7640 C   0  0  0  0  0  0  0  0  0  0  0  0
   29.5182   10.6487   21.3828 C   0  0  0  0  0  0  0  0  0  0  0  0
   32.8011   10.8928   26.5805 C   0  0  0  0  0  0  0  0  0  0  0  0
   28.5234   10.3881   20.4434 C   0  0  0  0  0  0  0  0  0  0  0  0
   25.8899   12.7299   26.3467 H   0  0  0  0  0  0  0  0  0  0  0  0
   25.9622   16.1060   23.9442 H   0  0  0  0  0  0  0  0  0  0  0  0
   25.9113    9.3076   28.9632 H   0  0  0  0  0  0  0  0  0  0  0  0
   22.9567   15.3590   20.9437 H   0  0  0  0  0  0  0  0  0  0  0  0
   29.9323   14.0144   23.8448 H   0  0  0  0  0  0  0  0  0  0  0  0
   28.7602   14.7170   24.9385 H   0  0  0  0  0  0  0  0  0  0  0  0
   29.2037    9.5644   27.7865 H   0  0  0  0  0  0  0  0  0  0  0  0
   25.2368   12.7114   20.6059 H   0  0  0  0  0  0  0  0  0  0  0  0
   31.7024   13.5141   24.7817 H   0  0  0  0  0  0  0  0  0  0  0  0
   30.1612   11.8425   23.0107 H   0  0  0  0  0  0  0  0  0  0  0  0
   31.6069    9.5047   27.6827 H   0  0  0  0  0  0  0  0  0  0  0  0
   26.5987   10.9387   19.6882 H   0  0  0  0  0  0  0  0  0  0  0  0
   33.7544   12.4345   25.4337 H   0  0  0  0  0  0  0  0  0  0  0  0
   30.4259   10.0589   21.3832 H   0  0  0  0  0  0  0  0  0  0  0  0
   33.7343   10.4306   26.8759 H   0  0  0  0  0  0  0  0  0  0  0  0
   28.6579    9.5950   19.7192 H   0  0  0  0  0  0  0  0  0  0  0  0
  1 11  1  0
  2 12  1  0
  3 22  2  0
  4 23  2  0
  5 22  1  0
  6 23  1  0
  7  9  1  0
  7 11  2  0
  7 13  1  0
  8 10  1  0
  8 12  2  0
  8 13  1  0
  9 14  2  0
  9 20  1  0
 10 15  2  0
 10 21  1  0
 11 16  1  0
 12 17  1  0
 14 18  1  0
 14 24  1  0
 15 19  1  0
 15 25  1  0
 16 18  2  0
 16 22  1  0
 17 19  2  0
 17 23  1  0
 20 26  2  0
 21 27  2  0
 24 28  2  0
 25 29  2  0
 26 28  1  0
 27 29  1  0
  1 30  1  0
  2 31  1  0
  5 32  1  0
  6 33  1  0
 13 34  1  0
 13 35  1  0
 18 36  1  0
 19 37  1  0
 20 38  1  0
 21 39  1  0
 24 40  1  0
 25 41  1  0
 26 42  1  0
 27 43  1  0
 28 44  1  0
 29 45  1  0
M  END
> <Uni-Dock RESULT> 
ENERGY=   -4.048  LOWER_BOUND=    6.347  UPPER_BOUND=   11.023
INTER + INTRA:          -4.048
INTER:                  -4.048
INTRA:                   0.000
UNBOUND:                 0.000

$$$$

     RDKit          3D

 45 48  0  0  0  0  0  0  0  0999 V2000
   27.5262   13.1611   25.0090 O   0  0  0  0  0  0  0  0  0  0  0  0
   27.1018   15.2363   22.8036 O   0  0  0  0  0  0  0  0  0  0  0  0
   26.7339   10.8366   26.4807 O   0  0  0  0  0  0  0  0  0  0  0  0
   24.3227   14.6259   22.4372 O   0  0  0  0  0  0  0  0  0  0  0  0
   28.0432   10.7038   28.3561 O   0  0  0  0  0  0  0  0  0  0  0  0
   24.0206   13.9889   20.2572 O   0  0  0  0  0  0  0  0  0  0  0  0
   29.8554   12.9565   24.3732 C   0  0  0  0  0  0  0  0  0  0  0  0
   28.4394   13.2822   22.2856 C   0  0  0  0  0  0  0  0  0  0  0  0
   31.1796   12.5474   24.7218 C   0  0  0  0  0  0  0  0  0  0  0  0
   28.6121   12.0735   21.5533 C   0  0  0  0  0  0  0  0  0  0  0  0
   28.7759   12.5649   25.2058 C   0  0  0  0  0  0  0  0  0  0  0  0
   27.2138   13.9873   22.1823 C   0  0  0  0  0  0  0  0  0  0  0  0
   29.5550   13.8449   23.1633 C   0  0  0  0  0  0  0  0  0  0  0  0
   31.3613   11.6300   25.7917 C   0  0  0  0  0  0  0  0  0  0  0  0
   27.5367   11.5660   20.7808 C   0  0  0  0  0  0  0  0  0  0  0  0
   28.9718   11.6211   26.2395 C   0  0  0  0  0  0  0  0  0  0  0  0
   26.1374   13.4441   21.4414 C   0  0  0  0  0  0  0  0  0  0  0  0
   30.2625   11.1671   26.5184 C   0  0  0  0  0  0  0  0  0  0  0  0
   26.3193   12.2493   20.7377 C   0  0  0  0  0  0  0  0  0  0  0  0
   32.3377   13.0297   24.0619 C   0  0  0  0  0  0  0  0  0  0  0  0
   29.8319   11.3584   21.5533 C   0  0  0  0  0  0  0  0  0  0  0  0
   27.8502   11.0561   27.0229 C   0  0  0  0  0  0  0  0  0  0  0  0
   24.7967   14.0696   21.4104 C   0  0  0  0  0  0  0  0  0  0  0  0
   32.6477   11.1784   26.1310 C   0  0  0  0  0  0  0  0  0  0  0  0
   27.6865   10.3688   20.0607 C   0  0  0  0  0  0  0  0  0  0  0  0
   33.6092   12.5741   24.4173 C   0  0  0  0  0  0  0  0  0  0  0  0
   29.9654   10.1708   20.8311 C   0  0  0  0  0  0  0  0  0  0  0  0
   33.7635   11.6450   25.4414 C   0  0  0  0  0  0  0  0  0  0  0  0
   28.8954    9.6754   20.0898 C   0  0  0  0  0  0  0  0  0  0  0  0
   26.7589   13.0876   25.6630 H   0  0  0  0  0  0  0  0  0  0  0  0
   26.3446   15.8834   22.6319 H   0  0  0  0  0  0  0  0  0  0  0  0
   27.2924   10.2958   28.9002 H   0  0  0  0  0  0  0  0  0  0  0  0
   23.0916   14.3918   20.2263 H   0  0  0  0  0  0  0  0  0  0  0  0
   30.4132   13.9935   22.4887 H   0  0  0  0  0  0  0  0  0  0  0  0
   29.3205   14.8582   23.5479 H   0  0  0  0  0  0  0  0  0  0  0  0
   30.4145   10.4434   27.3123 H   0  0  0  0  0  0  0  0  0  0  0  0
   25.4958   11.8347   20.1658 H   0  0  0  0  0  0  0  0  0  0  0  0
   32.3034   13.7791   23.2902 H   0  0  0  0  0  0  0  0  0  0  0  0
   30.6974   11.7070   22.0933 H   0  0  0  0  0  0  0  0  0  0  0  0
   32.7911   10.4686   26.9374 H   0  0  0  0  0  0  0  0  0  0  0  0
   26.8679    9.9701   19.4730 H   0  0  0  0  0  0  0  0  0  0  0  0
   34.4818   12.9516   23.8993 H   0  0  0  0  0  0  0  0  0  0  0  0
   30.9057    9.6345   20.8436 H   0  0  0  0  0  0  0  0  0  0  0  0
   34.7521   11.2965   25.7115 H   0  0  0  0  0  0  0  0  0  0  0  0
   29.0046    8.7544   19.5316 H   0  0  0  0  0  0  0  0  0  0  0  0
  1 11  1  0
  2 12  1  0
  3 22  2  0
  4 23  2  0
  5 22  1  0
  6 23  1  0
  7  9  1  0
  7 11  2  0
  7 13  1  0
  8 10  1  0
  8 12  2  0
  8 13  1  0
  9 14  2  0
  9 20  1  0
 10 15  2  0
 10 21  1  0
 11 16  1  0
 12 17  1  0
 14 18  1  0
 14 24  1  0
 15 19  1  0
 15 25  1  0
 16 18  2  0
 16 22  1  0
 17 19  2  0
 17 23  1  0
 20 26  2  0
 21 27  2  0
 24 28  2  0
 25 29  2  0
 26 28  1  0
 27 29  1  0
  1 30  1  0
  2 31  1  0
  5 32  1  0
  6 33  1  0
 13 34  1  0
 13 35  1  0
 18 36  1  0
 19 37  1  0
 20 38  1  0
 21 39  1  0
 24 40  1  0
 25 41  1  0
 26 42  1  0
 27 43  1  0
 28 44  1  0
 29 45  1  0
M  END
> <Uni-Dock RESULT> 
ENERGY=   -3.954  LOWER_BOUND=    7.472  UPPER_BOUND=   11.693
INTER + INTRA:          -3.954
INTER:                  -3.954
INTRA:                   0.000
UNBOUND:                 0.000

$$$$

     RDKit          3D

 45 48  0  0  0  0  0  0  0  0999 V2000
   27.7657    4.9175   29.9502 O   0  0  0  0  0  0  0  0  0  0  0  0
   25.9309    6.2268   32.0166 O   0  0  0  0  0  0  0  0  0  0  0  0
   29.7955    5.0366   27.9345 O   0  0  0  0  0  0  0  0  0  0  0  0
   26.2619    8.8804   30.9778 O   0  0  0  0  0  0  0  0  0  0  0  0
   29.8531    3.0112   26.8653 O   0  0  0  0  0  0  0  0  0  0  0  0
   27.1136   10.1932   32.6513 O   0  0  0  0  0  0  0  0  0  0  0  0
   28.3063    3.1659   31.5349 C   0  0  0  0  0  0  0  0  0  0  0  0
   28.0713    5.3758   32.7720 C   0  0  0  0  0  0  0  0  0  0  0  0
   28.8186    1.8522   31.7674 C   0  0  0  0  0  0  0  0  0  0  0  0
   29.3697    5.6198   33.3025 C   0  0  0  0  0  0  0  0  0  0  0  0
   28.4721    3.7489   30.2525 C   0  0  0  0  0  0  0  0  0  0  0  0
   27.2491    6.4745   32.4159 C   0  0  0  0  0  0  0  0  0  0  0  0
   27.5387    3.9553   32.5984 C   0  0  0  0  0  0  0  0  0  0  0  0
   29.6178    1.2343   30.7680 C   0  0  0  0  0  0  0  0  0  0  0  0
   29.8400    6.9532   33.4109 C   0  0  0  0  0  0  0  0  0  0  0  0
   29.3032    3.1366   29.2872 C   0  0  0  0  0  0  0  0  0  0  0  0
   27.7507    7.7957   32.4905 C   0  0  0  0  0  0  0  0  0  0  0  0
   29.8643    1.8869   29.5585 C   0  0  0  0  0  0  0  0  0  0  0  0
   29.0331    8.0177   33.0023 C   0  0  0  0  0  0  0  0  0  0  0  0
   28.5517    1.1151   32.9484 C   0  0  0  0  0  0  0  0  0  0  0  0
   30.2132    4.5749   33.7451 C   0  0  0  0  0  0  0  0  0  0  0  0
   29.6412    3.7875   28.0015 C   0  0  0  0  0  0  0  0  0  0  0  0
   26.9856    8.9660   32.0061 C   0  0  0  0  0  0  0  0  0  0  0  0
   30.1688   -0.0398   30.9847 C   0  0  0  0  0  0  0  0  0  0  0  0
   31.1230    7.2113   33.9222 C   0  0  0  0  0  0  0  0  0  0  0  0
   29.1031   -0.1532   33.1435 C   0  0  0  0  0  0  0  0  0  0  0  0
   31.4853    4.8478   34.2523 C   0  0  0  0  0  0  0  0  0  0  0  0
   29.9162   -0.7250   32.1701 C   0  0  0  0  0  0  0  0  0  0  0  0
   31.9405    6.1614   34.3375 C   0  0  0  0  0  0  0  0  0  0  0  0
   27.6742    5.2935   29.0165 H   0  0  0  0  0  0  0  0  0  0  0  0
   25.2271    6.9464   31.9243 H   0  0  0  0  0  0  0  0  0  0  0  0
   30.1064    3.4392   25.9827 H   0  0  0  0  0  0  0  0  0  0  0  0
   26.6146   11.0100   32.3192 H   0  0  0  0  0  0  0  0  0  0  0  0
   27.5689    3.5052   33.6035 H   0  0  0  0  0  0  0  0  0  0  0  0
   26.4671    3.9369   32.3139 H   0  0  0  0  0  0  0  0  0  0  0  0
   30.5016    1.4153   28.8179 H   0  0  0  0  0  0  0  0  0  0  0  0
   29.4165    9.0307   33.0639 H   0  0  0  0  0  0  0  0  0  0  0  0
   27.8997    1.4712   33.7270 H   0  0  0  0  0  0  0  0  0  0  0  0
   29.9035    3.5425   33.7201 H   0  0  0  0  0  0  0  0  0  0  0  0
   30.7901   -0.5104   30.2315 H   0  0  0  0  0  0  0  0  0  0  0  0
   31.4931    8.2267   34.0024 H   0  0  0  0  0  0  0  0  0  0  0  0
   28.8907   -0.6995   34.0538 H   0  0  0  0  0  0  0  0  0  0  0  0
   32.1192    4.0358   34.5848 H   0  0  0  0  0  0  0  0  0  0  0  0
   30.3400   -1.7084   32.3282 H   0  0  0  0  0  0  0  0  0  0  0  0
   32.9273    6.3672   34.7318 H   0  0  0  0  0  0  0  0  0  0  0  0
  1 11  1  0
  2 12  1  0
  3 22  2  0
  4 23  2  0
  5 22  1  0
  6 23  1  0
  7  9  1  0
  7 11  2  0
  7 13  1  0
  8 10  1  0
  8 12  2  0
  8 13  1  0
  9 14  2  0
  9 20  1  0
 10 15  2  0
 10 21  1  0
 11 16  1  0
 12 17  1  0
 14 18  1  0
 14 24  1  0
 15 19  1  0
 15 25  1  0
 16 18  2  0
 16 22  1  0
 17 19  2  0
 17 23  1  0
 20 26  2  0
 21 27  2  0
 24 28  2  0
 25 29  2  0
 26 28  1  0
 27 29  1  0
  1 30  1  0
  2 31  1  0
  5 32  1  0
  6 33  1  0
 13 34  1  0
 13 35  1  0
 18 36  1  0
 19 37  1  0
 20 38  1  0
 21 39  1  0
 24 40  1  0
 25 41  1  0
 26 42  1  0
 27 43  1  0
 28 44  1  0
 29 45  1  0
M  END
> <Uni-Dock RESULT> 
ENERGY=   -3.708  LOWER_BOUND=    5.588  UPPER_BOUND=   10.007
INTER + INTRA:          -3.708
INTER:                  -3.708
INTRA:                   0.000
UNBOUND:                 0.000

$$$$

     RDKit          3D

 45 48  0  0  0  0  0  0  0  0999 V2000
   33.3710    7.4705   30.1113 O   0  0  0  0  0  0  0  0  0  0  0  0
   33.1608    6.3234   32.9380 O   0  0  0  0  0  0  0  0  0  0  0  0
   34.3230    7.3873   27.4125 O   0  0  0  0  0  0  0  0  0  0  0  0
   35.3960    4.5500   32.6394 O   0  0  0  0  0  0  0  0  0  0  0  0
   33.9141    9.4269   26.4527 O   0  0  0  0  0  0  0  0  0  0  0  0
   34.6539    2.4117   32.9951 O   0  0  0  0  0  0  0  0  0  0  0  0
   30.9894    7.9171   30.1117 C   0  0  0  0  0  0  0  0  0  0  0  0
   31.4360    5.7350   31.3397 C   0  0  0  0  0  0  0  0  0  0  0  0
   29.8852    8.6269   29.5465 C   0  0  0  0  0  0  0  0  0  0  0  0
   30.7826    4.7480   30.5487 C   0  0  0  0  0  0  0  0  0  0  0  0
   32.2402    7.9516   29.4436 C   0  0  0  0  0  0  0  0  0  0  0  0
   32.6017    5.3828   32.0657 C   0  0  0  0  0  0  0  0  0  0  0  0
   30.8946    7.1593   31.4384 C   0  0  0  0  0  0  0  0  0  0  0  0
   30.0230    9.2078   28.2570 C   0  0  0  0  0  0  0  0  0  0  0  0
   31.3406    3.4478   30.4541 C   0  0  0  0  0  0  0  0  0  0  0  0
   32.3459    8.4992   28.1450 C   0  0  0  0  0  0  0  0  0  0  0  0
   33.1682    4.0935   31.9255 C   0  0  0  0  0  0  0  0  0  0  0  0
   31.2354    9.1204   27.5698 C   0  0  0  0  0  0  0  0  0  0  0  0
   32.5207    3.1390   31.1346 C   0  0  0  0  0  0  0  0  0  0  0  0
   28.6508    8.8020   30.2209 C   0  0  0  0  0  0  0  0  0  0  0  0
   29.5773    5.0106   29.8576 C   0  0  0  0  0  0  0  0  0  0  0  0
   33.5861    8.4073   27.3422 C   0  0  0  0  0  0  0  0  0  0  0  0
   34.4543    3.7168   32.5529 C   0  0  0  0  0  0  0  0  0  0  0  0
   28.9420    9.8766   27.6587 C   0  0  0  0  0  0  0  0  0  0  0  0
   30.7146    2.4649   29.6692 C   0  0  0  0  0  0  0  0  0  0  0  0
   27.5892    9.4756   29.6127 C   0  0  0  0  0  0  0  0  0  0  0  0
   28.9664    4.0225   29.0827 C   0  0  0  0  0  0  0  0  0  0  0  0
   27.7305   10.0028   28.3330 C   0  0  0  0  0  0  0  0  0  0  0  0
   29.5348    2.7546   28.9857 C   0  0  0  0  0  0  0  0  0  0  0  0
   34.3186    7.6256   29.7956 H   0  0  0  0  0  0  0  0  0  0  0  0
   33.8698    6.1021   33.6236 H   0  0  0  0  0  0  0  0  0  0  0  0
   34.7477    9.3694   25.8799 H   0  0  0  0  0  0  0  0  0  0  0  0
   35.5363    2.1310   33.4061 H   0  0  0  0  0  0  0  0  0  0  0  0
   29.8690    7.0577   31.8275 H   0  0  0  0  0  0  0  0  0  0  0  0
   31.4269    7.7624   32.2017 H   0  0  0  0  0  0  0  0  0  0  0  0
   31.3155    9.5422   26.5735 H   0  0  0  0  0  0  0  0  0  0  0  0
   32.9521    2.1491   31.0304 H   0  0  0  0  0  0  0  0  0  0  0  0
   28.4788    8.4607   31.2270 H   0  0  0  0  0  0  0  0  0  0  0  0
   29.0844    5.9677   29.9140 H   0  0  0  0  0  0  0  0  0  0  0  0
   29.0372   10.3101   26.6698 H   0  0  0  0  0  0  0  0  0  0  0  0
   31.1376    1.4706   29.5858 H   0  0  0  0  0  0  0  0  0  0  0  0
   26.6527    9.5964   30.1424 H   0  0  0  0  0  0  0  0  0  0  0  0
   28.0449    4.2409   28.5583 H   0  0  0  0  0  0  0  0  0  0  0  0
   26.9034   10.5237   27.8679 H   0  0  0  0  0  0  0  0  0  0  0  0
   29.0568    1.9924   28.3838 H   0  0  0  0  0  0  0  0  0  0  0  0
  1 11  1  0
  2 12  1  0
  3 22  2  0
  4 23  2  0
  5 22  1  0
  6 23  1  0
  7  9  1  0
  7 11  2  0
  7 13  1  0
  8 10  1  0
  8 12  2  0
  8 13  1  0
  9 14  2  0
  9 20  1  0
 10 15  2  0
 10 21  1  0
 11 16  1  0
 12 17  1  0
 14 18  1  0
 14 24  1  0
 15 19  1  0
 15 25  1  0
 16 18  2  0
 16 22  1  0
 17 19  2  0
 17 23  1  0
 20 26  2  0
 21 27  2  0
 24 28  2  0
 25 29  2  0
 26 28  1  0
 27 29  1  0
  1 30  1  0
  2 31  1  0
  5 32  1  0
  6 33  1  0
 13 34  1  0
 13 35  1  0
 18 36  1  0
 19 37  1  0
 20 38  1  0
 21 39  1  0
 24 40  1  0
 25 41  1  0
 26 42  1  0
 27 43  1  0
 28 44  1  0
 29 45  1  0
M  END
> <Uni-Dock RESULT> 
ENERGY=   -3.689  LOWER_BOUND=    7.028  UPPER_BOUND=    9.184
INTER + INTRA:          -3.689
INTER:                  -3.689
INTRA:                   0.000
UNBOUND:                 0.000

$$$$

     RDKit          3D

 45 48  0  0  0  0  0  0  0  0999 V2000
   27.7369    9.8877   29.1409 O   0  0  0  0  0  0  0  0  0  0  0  0
   30.6920    9.9014   29.9271 O   0  0  0  0  0  0  0  0  0  0  0  0
   25.6230    9.4628   27.2573 O   0  0  0  0  0  0  0  0  0  0  0  0
   31.6549    9.8343   27.2256 O   0  0  0  0  0  0  0  0  0  0  0  0
   23.7076   10.3740   28.1231 O   0  0  0  0  0  0  0  0  0  0  0  0
   32.9510    7.9604   26.9838 O   0  0  0  0  0  0  0  0  0  0  0  0
   27.1816    8.7998   31.2336 C   0  0  0  0  0  0  0  0  0  0  0  0
   29.4026    7.8997   30.3815 C   0  0  0  0  0  0  0  0  0  0  0  0
   26.1872    8.4667   32.2045 C   0  0  0  0  0  0  0  0  0  0  0  0
   29.1487    6.5215   30.1305 C   0  0  0  0  0  0  0  0  0  0  0  0
   26.7693    9.3370   29.9872 C   0  0  0  0  0  0  0  0  0  0  0  0
   30.3584    8.5849   29.5897 C   0  0  0  0  0  0  0  0  0  0  0  0
   28.6815    8.6490   31.4996 C   0  0  0  0  0  0  0  0  0  0  0  0
   24.8154    8.5272   31.8388 C   0  0  0  0  0  0  0  0  0  0  0  0
   29.8118    5.8739   29.0573 C   0  0  0  0  0  0  0  0  0  0  0  0
   25.4024    9.3512   29.6281 C   0  0  0  0  0  0  0  0  0  0  0  0
   30.9784    7.9346   28.4963 C   0  0  0  0  0  0  0  0  0  0  0  0
   24.4441    8.9463   30.5597 C   0  0  0  0  0  0  0  0  0  0  0  0
   30.7087    6.5836   28.2555 C   0  0  0  0  0  0  0  0  0  0  0  0
   26.4996    8.0939   33.5359 C   0  0  0  0  0  0  0  0  0  0  0  0
   28.2630    5.7596   30.9270 C   0  0  0  0  0  0  0  0  0  0  0  0
   24.9393    9.7436   28.2782 C   0  0  0  0  0  0  0  0  0  0  0  0
   31.8796    8.6395   27.5580 C   0  0  0  0  0  0  0  0  0  0  0  0
   23.8171    8.1665   32.7592 C   0  0  0  0  0  0  0  0  0  0  0  0
   29.5647    4.5170   28.7889 C   0  0  0  0  0  0  0  0  0  0  0  0
   25.4931    7.7449   34.4391 C   0  0  0  0  0  0  0  0  0  0  0  0
   28.0292    4.4114   30.6483 C   0  0  0  0  0  0  0  0  0  0  0  0
   24.1576    7.7717   34.0502 C   0  0  0  0  0  0  0  0  0  0  0  0
   28.6751    3.7926   29.5807 C   0  0  0  0  0  0  0  0  0  0  0  0
   27.5199   10.4541   28.3323 H   0  0  0  0  0  0  0  0  0  0  0  0
   31.4838   10.3970   29.5409 H   0  0  0  0  0  0  0  0  0  0  0  0
   23.3660   10.6295   27.2043 H   0  0  0  0  0  0  0  0  0  0  0  0
   33.5644    8.4212   26.3221 H   0  0  0  0  0  0  0  0  0  0  0  0
   28.9227    8.1005   32.4242 H   0  0  0  0  0  0  0  0  0  0  0  0
   29.0922    9.6663   31.6606 H   0  0  0  0  0  0  0  0  0  0  0  0
   23.3944    8.9578   30.2857 H   0  0  0  0  0  0  0  0  0  0  0  0
   31.1872    6.0833   27.4202 H   0  0  0  0  0  0  0  0  0  0  0  0
   27.5037    8.0899   33.9234 H   0  0  0  0  0  0  0  0  0  0  0  0
   27.7524    6.1831   31.7768 H   0  0  0  0  0  0  0  0  0  0  0  0
   22.7698    8.1980   32.4816 H   0  0  0  0  0  0  0  0  0  0  0  0
   30.0620    4.0158   27.9668 H   0  0  0  0  0  0  0  0  0  0  0  0
   25.7516    7.4594   35.4510 H   0  0  0  0  0  0  0  0  0  0  0  0
   27.3463    3.8431   31.2668 H   0  0  0  0  0  0  0  0  0  0  0  0
   23.3829    7.5000   34.7556 H   0  0  0  0  0  0  0  0  0  0  0  0
   28.4903    2.7472   29.3694 H   0  0  0  0  0  0  0  0  0  0  0  0
  1 11  1  0
  2 12  1  0
  3 22  2  0
  4 23  2  0
  5 22  1  0
  6 23  1  0
  7  9  1  0
  7 11  2  0
  7 13  1  0
  8 10  1  0
  8 12  2  0
  8 13  1  0
  9 14  2  0
  9 20  1  0
 10 15  2  0
 10 21  1  0
 11 16  1  0
 12 17  1  0
 14 18  1  0
 14 24  1  0
 15 19  1  0
 15 25  1  0
 16 18  2  0
 16 22  1  0
 17 19  2  0
 17 23  1  0
 20 26  2  0
 21 27  2  0
 24 28  2  0
 25 29  2  0
 26 28  1  0
 27 29  1  0
  1 30  1  0
  2 31  1  0
  5 32  1  0
  6 33  1  0
 13 34  1  0
 13 35  1  0
 18 36  1  0
 19 37  1  0
 20 38  1  0
 21 39  1  0
 24 40  1  0
 25 41  1  0
 26 42  1  0
 27 43  1  0
 28 44  1  0
 29 45  1  0
M  END
> <Uni-Dock RESULT> 
ENERGY=   -3.675  LOWER_BOUND=    4.549  UPPER_BOUND=    6.891
INTER + INTRA:          -3.675
INTER:                  -3.675
INTRA:                   0.000
UNBOUND:                 0.000

$$$$

     RDKit          3D

 45 48  0  0  0  0  0  0  0  0999 V2000
   30.6525   11.7373   21.9885 O   0  0  0  0  0  0  0  0  0  0  0  0
   32.3643   13.4241   23.8794 O   0  0  0  0  0  0  0  0  0  0  0  0
   29.7780    9.2241   20.9323 O   0  0  0  0  0  0  0  0  0  0  0  0
   34.1920   11.3014   24.4994 O   0  0  0  0  0  0  0  0  0  0  0  0
   28.5806    9.6351   19.0228 O   0  0  0  0  0  0  0  0  0  0  0  0
   34.1370   10.9608   26.7644 O   0  0  0  0  0  0  0  0  0  0  0  0
   28.7230   13.1083   22.5068 C   0  0  0  0  0  0  0  0  0  0  0  0
   30.1328   12.8140   24.6032 C   0  0  0  0  0  0  0  0  0  0  0  0
   27.4133   13.5512   22.1446 C   0  0  0  0  0  0  0  0  0  0  0  0
   29.2864   12.0984   25.4967 C   0  0  0  0  0  0  0  0  0  0  0  0
   29.2933   12.0132   21.8086 C   0  0  0  0  0  0  0  0  0  0  0  0
   31.5358   12.6228   24.6730 C   0  0  0  0  0  0  0  0  0  0  0  0
   29.5614   13.7987   23.5856 C   0  0  0  0  0  0  0  0  0  0  0  0
   26.6569   12.7873   21.2153 C   0  0  0  0  0  0  0  0  0  0  0  0
   29.8553   11.1648   26.3998 C   0  0  0  0  0  0  0  0  0  0  0  0
   28.5111   11.2432   20.9183 C   0  0  0  0  0  0  0  0  0  0  0  0
   32.0822   11.6561   25.5503 C   0  0  0  0  0  0  0  0  0  0  0  0
   27.2033   11.6415   20.6336 C   0  0  0  0  0  0  0  0  0  0  0  0
   31.2357   10.9524   26.4130 C   0  0  0  0  0  0  0  0  0  0  0  0
   26.8292   14.7380   22.6539 C   0  0  0  0  0  0  0  0  0  0  0  0
   27.8865   12.2944   25.5307 C   0  0  0  0  0  0  0  0  0  0  0  0
   29.0100    9.9957   20.2972 C   0  0  0  0  0  0  0  0  0  0  0  0
   33.5235   11.3213   25.5676 C   0  0  0  0  0  0  0  0  0  0  0  0
   25.3513   13.1754   20.8709 C   0  0  0  0  0  0  0  0  0  0  0  0
   29.0334   10.4421   27.2810 C   0  0  0  0  0  0  0  0  0  0  0  0
   25.5321   15.1115   22.2951 C   0  0  0  0  0  0  0  0  0  0  0  0
   27.0833   11.5694   26.4135 C   0  0  0  0  0  0  0  0  0  0  0  0
   24.7921   14.3288   21.4145 C   0  0  0  0  0  0  0  0  0  0  0  0
   27.6541   10.6436   27.2835 C   0  0  0  0  0  0  0  0  0  0  0  0
   31.1811   11.1079   21.4003 H   0  0  0  0  0  0  0  0  0  0  0  0
   33.3663   13.4862   23.9973 H   0  0  0  0  0  0  0  0  0  0  0  0
   28.8953    8.7738   18.5922 H   0  0  0  0  0  0  0  0  0  0  0  0
   35.1174   10.7066   26.7904 H   0  0  0  0  0  0  0  0  0  0  0  0
   29.0084   14.5453   24.1776 H   0  0  0  0  0  0  0  0  0  0  0  0
   30.3520   14.3791   23.0682 H   0  0  0  0  0  0  0  0  0  0  0  0
   26.6022   11.0520   19.9495 H   0  0  0  0  0  0  0  0  0  0  0  0
   31.6546   10.2144   27.0890 H   0  0  0  0  0  0  0  0  0  0  0  0
   27.3526   15.4164   23.3051 H   0  0  0  0  0  0  0  0  0  0  0  0
   27.3954   13.0120   24.8935 H   0  0  0  0  0  0  0  0  0  0  0  0
   24.7648   12.5894   20.1729 H   0  0  0  0  0  0  0  0  0  0  0  0
   29.4589    9.7219   27.9699 H   0  0  0  0  0  0  0  0  0  0  0  0
   25.1015   16.0198   22.6972 H   0  0  0  0  0  0  0  0  0  0  0  0
   26.0129   11.7301   26.4250 H   0  0  0  0  0  0  0  0  0  0  0  0
   23.7874   14.6245   21.1408 H   0  0  0  0  0  0  0  0  0  0  0  0
   27.0268   10.0846   27.9659 H   0  0  0  0  0  0  0  0  0  0  0  0
  1 11  1  0
  2 12  1  0
  3 22  2  0
  4 23  2  0
  5 22  1  0
  6 23  1  0
  7  9  1  0
  7 11  2  0
  7 13  1  0
  8 10  1  0
  8 12  2  0
  8 13  1  0
  9 14  2  0
  9 20  1  0
 10 15  2  0
 10 21  1  0
 11 16  1  0
 12 17  1  0
 14 18  1  0
 14 24  1  0
 15 19  1  0
 15 25  1  0
 16 18  2  0
 16 22  1  0
 17 19  2  0
 17 23  1  0
 20 26  2  0
 21 27  2  0
 24 28  2  0
 25 29  2  0
 26 28  1  0
 27 29  1  0
  1 30  1  0
  2 31  1  0
  5 32  1  0
  6 33  1  0
 13 34  1  0
 13 35  1  0
 18 36  1  0
 19 37  1  0
 20 38  1  0
 21 39  1  0
 24 40  1  0
 25 41  1  0
 26 42  1  0
 27 43  1  0
 28 44  1  0
 29 45  1  0
M  END
> <Uni-Dock RESULT> 
ENERGY=   -3.605  LOWER_BOUND=    8.166  UPPER_BOUND=   10.762
INTER + INTRA:          -3.605
INTER:                  -3.605
INTRA:                   0.000
UNBOUND:                 0.000

$$$$
