
     RDKit          3D

 69 68  0  0  0  0  0  0  0  0999 V2000
    0.0486    0.3948    0.0000 O   0  0  0  0  0  0  0  0  0  0  0  0
   -2.9584    1.5123    1.4394 C   0  0  0  0  0  0  0  0  0  0  0  0
   -2.1212   -0.2902   -0.0992 C   0  0  0  0  0  0  0  0  0  0  0  0
   -3.2792    0.1499    0.7854 C   0  0  1  0  0  0  0  0  0  0  0  0
   -0.8759   -0.6384    0.4454 C   0  0  0  0  0  0  0  0  0  0  0  0
   -2.4982    1.4784    2.6183 O   0  0  0  0  0  0  0  0  0  0  0  0
   -3.2139    2.5236    0.7191 O   0  0  0  0  0  0  0  0  0  0  0  0
    0.1823   -0.9912   -0.3935 C   0  0  0  0  0  0  0  0  0  0  0  0
    1.3929   -1.3200    0.1697 O   0  0  0  0  0  0  0  0  0  0  0  0
    2.4135   -0.4069   -0.0079 C   0  0  0  0  0  0  0  0  0  0  0  0
   -2.2791   -0.3248   -1.4949 C   0  0  0  0  0  0  0  0  0  0  0  0
   -1.2243   -0.7094   -2.3274 C   0  0  0  0  0  0  0  0  0  0  0  0
    0.0090   -1.0495   -1.7768 C   0  0  0  0  0  0  0  0  0  0  0  0
   -3.6627   -0.9207    1.8062 C   0  0  0  0  0  0  0  0  0  0  0  0
    2.2232    0.9774    0.0408 C   0  0  0  0  0  0  0  0  0  0  0  0
    3.6981   -0.9272   -0.1772 C   0  0  0  0  0  0  0  0  0  0  0  0
    4.7859   -0.0658   -0.3270 C   0  0  0  0  0  0  0  0  0  0  0  0
    3.3121    1.8358   -0.1088 C   0  0  0  0  0  0  0  0  0  0  0  0
    4.5927    1.3155   -0.2955 C   0  0  0  0  0  0  0  0  0  0  0  0
   -3.7109   -1.5947    1.4347 C   0  0  0  0  0  0  0  0  0  0  0  0
   -2.0384   -0.0976    0.2646 C   0  0  0  0  0  0  0  0  0  0  0  0
   -3.2972   -0.1399    1.1168 C   0  0  1  0  0  0  0  0  0  0  0  0
   -0.9329    0.6601    0.6802 C   0  0  0  0  0  0  0  0  0  0  0  0
   -4.5685   -2.1169    0.6598 O   0  0  0  0  0  0  0  0  0  0  0  0
   -3.1512   -2.0996    2.4534 O   0  0  0  0  0  0  0  0  0  0  0  0
    0.2248    0.7019   -0.0979 C   0  0  0  0  0  0  0  0  0  0  0  0
    1.2696    1.4768    0.3500 O   0  0  0  0  0  0  0  0  0  0  0  0
    2.4907    0.8573    0.4999 C   0  0  0  0  0  0  0  0  0  0  0  0
   -1.9595   -0.7896   -0.9549 C   0  0  0  0  0  0  0  0  0  0  0  0
   -0.8070   -0.7281   -1.7413 C   0  0  0  0  0  0  0  0  0  0  0  0
    0.2847    0.0272   -1.3184 C   0  0  0  0  0  0  0  0  0  0  0  0
   -4.4215    0.6577    0.4592 C   0  0  0  0  0  0  0  0  0  0  0  0
    3.6158    1.6114    0.1637 C   0  0  0  0  0  0  0  0  0  0  0  0
    2.6420   -0.4324    1.0161 C   0  0  0  0  0  0  0  0  0  0  0  0
    4.8915    1.0625    0.3036 C   0  0  0  0  0  0  0  0  0  0  0  0
    3.9196   -0.9789    1.1578 C   0  0  0  0  0  0  0  0  0  0  0  0
    5.0427   -0.2336    0.7981 C   0  0  0  0  0  0  0  0  0  0  0  0
    0.0000    0.0000    0.0000 Ca  0  0  0  0  0 15  0  0  0  0  0  0
    0.0998    0.3852    0.0000 O   0  0  0  0  0  0  0  0  0  0  0  0
   -0.7822   -0.1043    0.0000 H   0  0  0  0  0  0  0  0  0  0  0  0
    0.7336   -0.2905    0.0000 H   0  0  0  0  0  0  0  0  0  0  0  0
   -4.1659    0.3076    0.1549 H   0  0  0  0  0  0  0  0  0  0  0  0
   -0.7190   -0.5879    1.5214 H   0  0  0  0  0  0  0  0  0  0  0  0
   -3.2291   -0.0321   -1.9371 H   0  0  0  0  0  0  0  0  0  0  0  0
   -1.3668   -0.7256   -3.4043 H   0  0  0  0  0  0  0  0  0  0  0  0
    0.8306   -1.3428   -2.4197 H   0  0  0  0  0  0  0  0  0  0  0  0
   -3.9795   -1.8392    1.3015 H   0  0  0  0  0  0  0  0  0  0  0  0
   -4.4920   -0.5757    2.4317 H   0  0  0  0  0  0  0  0  0  0  0  0
   -2.8361   -1.1813    2.4751 H   0  0  0  0  0  0  0  0  0  0  0  0
    1.2352    1.4014    0.2100 H   0  0  0  0  0  0  0  0  0  0  0  0
    3.8499   -2.0006   -0.1914 H   0  0  0  0  0  0  0  0  0  0  0  0
    5.7843   -0.4712   -0.4623 H   0  0  0  0  0  0  0  0  0  0  0  0
    3.1539    2.9106   -0.0690 H   0  0  0  0  0  0  0  0  0  0  0  0
    5.4375    1.9881   -0.4076 H   0  0  0  0  0  0  0  0  0  0  0  0
   -3.0864    0.3405    2.0830 H   0  0  0  0  0  0  0  0  0  0  0  0
   -0.9661    1.2017    1.6210 H   0  0  0  0  0  0  0  0  0  0  0  0
   -2.8037   -1.3944   -1.2866 H   0  0  0  0  0  0  0  0  0  0  0  0
   -0.7642   -1.2789   -2.6762 H   0  0  0  0  0  0  0  0  0  0  0  0
    1.1774    0.0763   -1.9330 H   0  0  0  0  0  0  0  0  0  0  0  0
   -4.7072    0.2471   -0.5145 H   0  0  0  0  0  0  0  0  0  0  0  0
   -5.3172    0.6576    1.0915 H   0  0  0  0  0  0  0  0  0  0  0  0
   -4.1259    1.6993    0.3007 H   0  0  0  0  0  0  0  0  0  0  0  0
    3.4945    2.6214   -0.2177 H   0  0  0  0  0  0  0  0  0  0  0  0
    1.7722   -1.0149    1.3139 H   0  0  0  0  0  0  0  0  0  0  0  0
    5.7640    1.6460    0.0246 H   0  0  0  0  0  0  0  0  0  0  0  0
    4.0325   -1.9838    1.5523 H   0  0  0  0  0  0  0  0  0  0  0  0
    6.0355   -0.6614    0.9075 H   0  0  0  0  0  0  0  0  0  0  0  0
   -0.7889   -0.0012    0.0000 H   0  0  0  0  0  0  0  0  0  0  0  0
    0.6890   -0.3840    0.0000 H   0  0  0  0  0  0  0  0  0  0  0  0
  3  4  1  0
  4  2  1  0
  5  3  2  0
  6  2  1  0
  7  2  2  0
  8  5  1  0
  9  8  1  0
 10  9  1  0
 11  3  1  0
 12 11  2  0
 13  8  2  0
 14  4  1  0
 15 10  2  0
 16 10  1  0
 17 16  2  0
 18 15  1  0
 19 17  1  0
 12 13  1  0
 18 19  2  0
 21 22  1  0
 22 20  1  0
 23 21  2  0
 24 20  1  0
 25 20  2  0
 26 23  1  0
 27 26  1  0
 28 27  1  0
 29 21  1  0
 30 29  2  0
 31 26  2  0
 32 22  1  0
 33 28  2  0
 34 28  1  0
 35 33  1  0
 36 34  2  0
 37 36  1  0
 30 31  1  0
 35 37  2  0
  1 40  1  0
  1 41  1  0
  4 42  1  6
  5 43  1  0
 11 44  1  0
 12 45  1  0
 13 46  1  0
 14 47  1  0
 14 48  1  0
 14 49  1  0
 15 50  1  0
 16 51  1  0
 17 52  1  0
 18 53  1  0
 19 54  1  0
 22 55  1  1
 23 56  1  0
 29 57  1  0
 30 58  1  0
 31 59  1  0
 32 60  1  0
 32 61  1  0
 32 62  1  0
 33 63  1  0
 34 64  1  0
 35 65  1  0
 36 66  1  0
 37 67  1  0
 39 68  1  0
 39 69  1  0
M  CHG  3   6  -1  24  -1  38   2
M  END
$$$$
