
     RDKit          3D

 69 68  0  0  0  0  0  0  0  0999 V2000
    0.0489    0.3949    0.0000 O   0  0  0  0  0  0  0  0  0  0  0  0
   -2.8611   -0.8781    2.1453 C   0  0  0  0  0  0  0  0  0  0  0  0
   -1.6979   -0.7310   -0.0871 C   0  0  0  0  0  0  0  0  0  0  0  0
   -2.8159   -0.1627    0.7746 C   0  0  1  0  0  0  0  0  0  0  0  0
   -0.6524    0.0971   -0.5208 C   0  0  0  0  0  0  0  0  0  0  0  0
   -2.0185   -0.4610    2.9942 O   0  0  0  0  0  0  0  0  0  0  0  0
   -3.7369   -1.7832    2.2784 O   0  0  0  0  0  0  0  0  0  0  0  0
    0.3922   -0.4325   -1.2841 C   0  0  0  0  0  0  0  0  0  0  0  0
    1.4285    0.3545   -1.7250 O   0  0  0  0  0  0  0  0  0  0  0  0
    2.2772    0.9006   -0.7836 C   0  0  0  0  0  0  0  0  0  0  0  0
   -1.6835   -2.0856   -0.4609 C   0  0  0  0  0  0  0  0  0  0  0  0
   -0.6550   -2.6008   -1.2531 C   0  0  0  0  0  0  0  0  0  0  0  0
    0.3830   -1.7711   -1.6726 C   0  0  0  0  0  0  0  0  0  0  0  0
   -4.1552   -0.1986    0.0399 C   0  0  0  0  0  0  0  0  0  0  0  0
    2.4138    0.4546    0.5344 C   0  0  0  0  0  0  0  0  0  0  0  0
    3.0743    1.9559   -1.2390 C   0  0  0  0  0  0  0  0  0  0  0  0
    3.9846    2.5753   -0.3810 C   0  0  0  0  0  0  0  0  0  0  0  0
    3.3234    1.0775    1.3933 C   0  0  0  0  0  0  0  0  0  0  0  0
    4.1076    2.1364    0.9365 C   0  0  0  0  0  0  0  0  0  0  0  0
   -3.6274   -1.6561   -1.1855 C   0  0  0  0  0  0  0  0  0  0  0  0
   -1.9414    0.1387   -0.5890 C   0  0  0  0  0  0  0  0  0  0  0  0
   -3.3423   -0.3962   -0.3403 C   0  0  1  0  0  0  0  0  0  0  0  0
   -1.0506    0.2979    0.4825 C   0  0  0  0  0  0  0  0  0  0  0  0
   -4.1336   -1.4643   -2.3311 O   0  0  0  0  0  0  0  0  0  0  0  0
   -3.3446   -2.7542   -0.6180 O   0  0  0  0  0  0  0  0  0  0  0  0
    0.2356    0.7931    0.2619 C   0  0  0  0  0  0  0  0  0  0  0  0
    1.0618    0.9428    1.3504 O   0  0  0  0  0  0  0  0  0  0  0  0
    2.2677    0.2805    1.3244 C   0  0  0  0  0  0  0  0  0  0  0  0
   -1.5164    0.5066   -1.8764 C   0  0  0  0  0  0  0  0  0  0  0  0
   -0.2377    1.0266   -2.0889 C   0  0  0  0  0  0  0  0  0  0  0  0
    0.6388    1.1803   -1.0169 C   0  0  0  0  0  0  0  0  0  0  0  0
   -4.3954    0.6874   -0.5656 C   0  0  0  0  0  0  0  0  0  0  0  0
    3.3254    0.9078    1.9873 C   0  0  0  0  0  0  0  0  0  0  0  0
    2.4559   -0.9722    0.7355 C   0  0  0  0  0  0  0  0  0  0  0  0
    4.5811    0.3001    2.0388 C   0  0  0  0  0  0  0  0  0  0  0  0
    3.7145   -1.5791    0.7869 C   0  0  0  0  0  0  0  0  0  0  0  0
    4.7765   -0.9427    1.4356 C   0  0  0  0  0  0  0  0  0  0  0  0
    0.0000    0.0000    0.0000 Ca  0  0  0  0  0 15  0  0  0  0  0  0
   -0.0566    0.3937    0.0000 O   0  0  0  0  0  0  0  0  0  0  0  0
    0.7330   -0.2913    0.0000 H   0  0  0  0  0  0  0  0  0  0  0  0
   -0.7819   -0.1036    0.0000 H   0  0  0  0  0  0  0  0  0  0  0  0
   -2.5997    0.8934    0.9861 H   0  0  0  0  0  0  0  0  0  0  0  0
   -0.6415    1.1462   -0.2406 H   0  0  0  0  0  0  0  0  0  0  0  0
   -2.4784   -2.7471   -0.1143 H   0  0  0  0  0  0  0  0  0  0  0  0
   -0.6656   -3.6513   -1.5308 H   0  0  0  0  0  0  0  0  0  0  0  0
    1.1873   -2.1695   -2.2822 H   0  0  0  0  0  0  0  0  0  0  0  0
   -4.1108    0.3960   -0.8792 H   0  0  0  0  0  0  0  0  0  0  0  0
   -4.9540    0.2116    0.6679 H   0  0  0  0  0  0  0  0  0  0  0  0
   -4.4489   -1.2153   -0.2419 H   0  0  0  0  0  0  0  0  0  0  0  0
    1.8144   -0.3678    0.9186 H   0  0  0  0  0  0  0  0  0  0  0  0
    2.9777    2.2994   -2.2654 H   0  0  0  0  0  0  0  0  0  0  0  0
    4.5936    3.4003   -0.7392 H   0  0  0  0  0  0  0  0  0  0  0  0
    3.4091    0.7357    2.4217 H   0  0  0  0  0  0  0  0  0  0  0  0
    4.8088    2.6209    1.6098 H   0  0  0  0  0  0  0  0  0  0  0  0
   -3.4227   -0.7030    0.7118 H   0  0  0  0  0  0  0  0  0  0  0  0
   -1.3536    0.0182    1.4880 H   0  0  0  0  0  0  0  0  0  0  0  0
   -2.1908    0.3777   -2.7240 H   0  0  0  0  0  0  0  0  0  0  0  0
    0.0673    1.3064   -3.0931 H   0  0  0  0  0  0  0  0  0  0  0  0
    1.6294    1.5911   -1.1819 H   0  0  0  0  0  0  0  0  0  0  0  0
   -4.3817    1.0754   -1.5904 H   0  0  0  0  0  0  0  0  0  0  0  0
   -5.4005    0.2940   -0.3755 H   0  0  0  0  0  0  0  0  0  0  0  0
   -4.2326    1.5345    0.1099 H   0  0  0  0  0  0  0  0  0  0  0  0
    3.1687    1.8726    2.4621 H   0  0  0  0  0  0  0  0  0  0  0  0
    1.6335   -1.4875    0.2402 H   0  0  0  0  0  0  0  0  0  0  0  0
    5.4016    0.7935    2.5530 H   0  0  0  0  0  0  0  0  0  0  0  0
    3.8594   -2.5509    0.3203 H   0  0  0  0  0  0  0  0  0  0  0  0
    5.7539   -1.4190    1.4768 H   0  0  0  0  0  0  0  0  0  0  0  0
    0.7837   -0.0883    0.0000 H   0  0  0  0  0  0  0  0  0  0  0  0
   -0.7272   -0.3054    0.0000 H   0  0  0  0  0  0  0  0  0  0  0  0
  3  4  1  0
  4  2  1  0
  5  3  2  0
  6  2  1  0
  7  2  2  0
  8  5  1  0
  9  8  1  0
 10  9  1  0
 11  3  1  0
 12 11  2  0
 13  8  2  0
 14  4  1  0
 15 10  2  0
 16 10  1  0
 17 16  2  0
 18 15  1  0
 19 17  1  0
 12 13  1  0
 18 19  2  0
 21 22  1  0
 22 20  1  0
 23 21  2  0
 24 20  1  0
 25 20  2  0
 26 23  1  0
 27 26  1  0
 28 27  1  0
 29 21  1  0
 30 29  2  0
 31 26  2  0
 32 22  1  0
 33 28  2  0
 34 28  1  0
 35 33  1  0
 36 34  2  0
 37 36  1  0
 30 31  1  0
 35 37  2  0
  1 40  1  0
  1 41  1  0
  4 42  1  1
  5 43  1  0
 11 44  1  0
 12 45  1  0
 13 46  1  0
 14 47  1  0
 14 48  1  0
 14 49  1  0
 15 50  1  0
 16 51  1  0
 17 52  1  0
 18 53  1  0
 19 54  1  0
 22 55  1  1
 23 56  1  0
 29 57  1  0
 30 58  1  0
 31 59  1  0
 32 60  1  0
 32 61  1  0
 32 62  1  0
 33 63  1  0
 34 64  1  0
 35 65  1  0
 36 66  1  0
 37 67  1  0
 39 68  1  0
 39 69  1  0
M  CHG  3   6  -1  24  -1  38   2
M  END
$$$$
