
     RDKit          3D

 39 38  0  0  0  0  0  0  0  0999 V2000
    0.0000    0.0000    0.0000 O   0  0  0  0  0  0  0  0  0  0  0  0
    3.3828    1.2332    0.2308 C   0  0  0  0  0  0  0  0  0  0  0  0
    1.6666   -0.4138   -0.4062 C   0  0  0  0  0  0  0  0  0  0  0  0
    2.4795    0.7450   -0.8383 C   0  0  0  0  0  0  0  0  0  0  0  0
    0.2991   -0.3950   -0.3138 C   0  0  0  0  0  0  0  0  0  0  0  0
    2.9333    1.6928    1.4504 O   0  0  0  0  0  0  0  0  0  0  0  0
    4.6237    1.2343    0.0297 O   0  0  0  0  0  0  0  0  0  0  0  0
   -0.3606   -1.5337    0.1007 C   0  0  0  0  0  0  0  0  0  0  0  0
   -1.7460   -1.5870    0.2176 O   0  0  0  0  0  0  0  0  0  0  0  0
   -2.4488   -0.4348   -0.1030 C   0  0  0  0  0  0  0  0  0  0  0  0
    2.3402   -1.5725   -0.0814 C   0  0  0  0  0  0  0  0  0  0  0  0
    1.6923   -2.6945    0.3269 C   0  0  0  0  0  0  0  0  0  0  0  0
    0.3168   -2.7064    0.4298 C   0  0  0  0  0  0  0  0  0  0  0  0
    1.6252    1.8157   -1.4329 C   0  0  0  0  0  0  0  0  0  0  0  0
   -1.8490    0.7323   -0.5223 C   0  0  0  0  0  0  0  0  0  0  0  0
   -3.8264   -0.4684    0.0071 C   0  0  0  0  0  0  0  0  0  0  0  0
   -4.5768    0.6646   -0.3040 C   0  0  0  0  0  0  0  0  0  0  0  0
   -2.5930    1.8622   -0.8328 C   0  0  0  0  0  0  0  0  0  0  0  0
   -3.9588    1.8260   -0.7228 C   0  0  0  0  0  0  0  0  0  0  0  0
    3.8194    1.0678   -1.0306 C   0  0  0  0  0  0  0  0  0  0  0  0
    1.8359    0.1094    0.0630 C   0  0  0  0  0  0  0  0  0  0  0  0
    2.7254    1.2921   -0.0779 C   0  0  0  0  0  0  0  0  0  0  0  0
    0.5845    0.2521    0.6258 C   0  0  0  0  0  0  0  0  0  0  0  0
    4.7744    0.0528   -0.8640 O   0  0  0  0  0  0  0  0  0  0  0  0
    3.8811    1.8415   -2.0427 O   0  0  0  0  0  0  0  0  0  0  0  0
   -0.2884   -0.7938    0.7873 C   0  0  0  0  0  0  0  0  0  0  0  0
   -1.5211   -0.5410    1.3644 O   0  0  0  0  0  0  0  0  0  0  0  0
   -2.6418   -0.1915    0.6332 C   0  0  0  0  0  0  0  0  0  0  0  0
    2.1926   -1.1584   -0.3452 C   0  0  0  0  0  0  0  0  0  0  0  0
    1.3490   -2.2421   -0.2039 C   0  0  0  0  0  0  0  0  0  0  0  0
    0.1057   -2.0521    0.3651 C   0  0  0  0  0  0  0  0  0  0  0  0
    3.1925    1.7708    1.2775 C   0  0  0  0  0  0  0  0  0  0  0  0
   -3.4418   -1.2441    0.1930 C   0  0  0  0  0  0  0  0  0  0  0  0
   -2.9880    1.1066    0.3327 C   0  0  0  0  0  0  0  0  0  0  0  0
   -4.5686   -0.9881   -0.5360 C   0  0  0  0  0  0  0  0  0  0  0  0
   -4.1278    1.4010   -0.4071 C   0  0  0  0  0  0  0  0  0  0  0  0
   -4.8827    0.3170   -0.8168 C   0  0  0  0  0  0  0  0  0  0  0  0
    0.0000    0.0000    0.0000 Ca  0  0  0  0  0 15  0  0  0  0  0  0
    0.0000    0.0000    0.0000 O   0  0  0  0  0  0  0  0  0  0  0  0
  3  4  1  0
  4  2  1  0
  5  3  2  0
  6  2  1  0
  7  2  2  0
  8  5  1  0
  9  8  1  0
 10  9  1  0
 11  3  1  0
 12 11  2  0
 13  8  2  0
 14  4  1  0
 15 10  2  0
 16 10  1  0
 17 16  2  0
 18 15  1  0
 19 17  1  0
 12 13  1  0
 18 19  2  0
 21 22  1  0
 22 20  1  0
 23 21  2  0
 24 20  1  0
 25 20  2  0
 26 23  1  0
 27 26  1  0
 28 27  1  0
 29 21  1  0
 30 29  2  0
 31 26  2  0
 32 22  1  0
 33 28  2  0
 34 28  1  0
 35 33  1  0
 36 34  2  0
 37 36  1  0
 30 31  1  0
 35 37  2  0
M  CHG  3   6  -1  24  -1  38   2
M  END
