
     RDKit          3D

 69 68  0  0  0  0  0  0  0  0999 V2000
   -0.0017    0.3980    0.0000 O   0  0  0  0  0  0  0  0  0  0  0  0
   -3.4799   -1.0931   -2.0989 C   0  0  0  0  0  0  0  0  0  0  0  0
   -1.9923   -0.3262   -0.1959 C   0  0  0  0  0  0  0  0  0  0  0  0
   -3.0335   -1.3435   -0.6392 C   0  0  1  0  0  0  0  0  0  0  0  0
   -0.7819   -0.7592    0.3648 C   0  0  0  0  0  0  0  0  0  0  0  0
   -4.5479   -0.4311   -2.2548 O   0  0  0  0  0  0  0  0  0  0  0  0
   -2.7287   -1.6016   -2.9843 O   0  0  0  0  0  0  0  0  0  0  0  0
    0.1780    0.1699    0.7681 C   0  0  0  0  0  0  0  0  0  0  0  0
    1.3441   -0.3065    1.3219 O   0  0  0  0  0  0  0  0  0  0  0  0
    2.5161    0.0256    0.6769 C   0  0  0  0  0  0  0  0  0  0  0  0
   -2.2255    1.0541   -0.3101 C   0  0  0  0  0  0  0  0  0  0  0  0
   -1.2718    1.9807    0.1178 C   0  0  0  0  0  0  0  0  0  0  0  0
   -0.0684    1.5397    0.6641 C   0  0  0  0  0  0  0  0  0  0  0  0
   -4.2052   -1.3727    0.3403 C   0  0  0  0  0  0  0  0  0  0  0  0
    3.6232    0.2807    1.4883 C   0  0  0  0  0  0  0  0  0  0  0  0
    2.6485    0.0501   -0.7143 C   0  0  0  0  0  0  0  0  0  0  0  0
    3.8805    0.3672   -1.2891 C   0  0  0  0  0  0  0  0  0  0  0  0
    4.8547    0.5954    0.9108 C   0  0  0  0  0  0  0  0  0  0  0  0
    4.9814    0.6430   -0.4779 C   0  0  0  0  0  0  0  0  0  0  0  0
   -2.9267    1.9264   -1.2314 C   0  0  0  0  0  0  0  0  0  0  0  0
   -2.0487   -0.3432   -0.5630 C   0  0  0  0  0  0  0  0  0  0  0  0
   -3.2982    0.4966   -0.7776 C   0  0  1  0  0  0  0  0  0  0  0  0
   -1.0931    0.0038    0.4047 C   0  0  0  0  0  0  0  0  0  0  0  0
   -2.8561    2.8047   -0.3228 O   0  0  0  0  0  0  0  0  0  0  0  0
   -2.7570    2.0628   -2.4798 O   0  0  0  0  0  0  0  0  0  0  0  0
    0.0535   -0.7727    0.5705 C   0  0  0  0  0  0  0  0  0  0  0  0
    0.9608   -0.4044    1.5368 O   0  0  0  0  0  0  0  0  0  0  0  0
    2.2094   -0.0310    1.0879 C   0  0  0  0  0  0  0  0  0  0  0  0
   -1.8331   -1.4918   -1.3405 C   0  0  0  0  0  0  0  0  0  0  0  0
   -0.6949   -2.2803   -1.1539 C   0  0  0  0  0  0  0  0  0  0  0  0
    0.2488   -1.9250   -0.1925 C   0  0  0  0  0  0  0  0  0  0  0  0
   -4.1929    0.4866    0.4611 C   0  0  0  0  0  0  0  0  0  0  0  0
    3.3035   -0.4664    1.8369 C   0  0  0  0  0  0  0  0  0  0  0  0
    2.4068    0.7954   -0.0219 C   0  0  0  0  0  0  0  0  0  0  0  0
    4.5974   -0.1044    1.4587 C   0  0  0  0  0  0  0  0  0  0  0  0
    3.7011    1.1610   -0.3949 C   0  0  0  0  0  0  0  0  0  0  0  0
    4.7956    0.7080    0.3418 C   0  0  0  0  0  0  0  0  0  0  0  0
    0.0000    0.0000    0.0000 Ca  0  0  0  0  0 15  0  0  0  0  0  0
    0.0361    0.3961    0.0000 O   0  0  0  0  0  0  0  0  0  0  0  0
    0.7641   -0.1957    0.0000 H   0  0  0  0  0  0  0  0  0  0  0  0
   -0.7624   -0.2022    0.0000 H   0  0  0  0  0  0  0  0  0  0  0  0
   -2.5782   -2.3449   -0.6288 H   0  0  0  0  0  0  0  0  0  0  0  0
   -0.5780   -1.8214    0.4661 H   0  0  0  0  0  0  0  0  0  0  0  0
   -3.1591    1.4073   -0.7487 H   0  0  0  0  0  0  0  0  0  0  0  0
   -1.4727    3.0422    0.0136 H   0  0  0  0  0  0  0  0  0  0  0  0
    0.6719    2.2582    0.9993 H   0  0  0  0  0  0  0  0  0  0  0  0
   -4.7275   -0.4103    0.3911 H   0  0  0  0  0  0  0  0  0  0  0  0
   -4.9366   -2.1312    0.0464 H   0  0  0  0  0  0  0  0  0  0  0  0
   -3.8626   -1.6115    1.3528 H   0  0  0  0  0  0  0  0  0  0  0  0
    3.5194    0.2398    2.5694 H   0  0  0  0  0  0  0  0  0  0  0  0
    1.8014   -0.1809   -1.3573 H   0  0  0  0  0  0  0  0  0  0  0  0
    3.9774    0.3931   -2.3711 H   0  0  0  0  0  0  0  0  0  0  0  0
    5.7143    0.8006    1.5425 H   0  0  0  0  0  0  0  0  0  0  0  0
    5.9388    0.8866   -0.9306 H   0  0  0  0  0  0  0  0  0  0  0  0
   -3.8873    0.0554   -1.5944 H   0  0  0  0  0  0  0  0  0  0  0  0
   -1.2297    0.9022    1.0036 H   0  0  0  0  0  0  0  0  0  0  0  0
   -2.5528   -1.7664   -2.1079 H   0  0  0  0  0  0  0  0  0  0  0  0
   -0.5440   -3.1637   -1.7662 H   0  0  0  0  0  0  0  0  0  0  0  0
    1.1342   -2.5343   -0.0465 H   0  0  0  0  0  0  0  0  0  0  0  0
   -3.6933    0.9031    1.3432 H   0  0  0  0  0  0  0  0  0  0  0  0
   -5.0993    1.0777    0.2881 H   0  0  0  0  0  0  0  0  0  0  0  0
   -4.5013   -0.5353    0.7105 H   0  0  0  0  0  0  0  0  0  0  0  0
    3.1425   -1.0874    2.7136 H   0  0  0  0  0  0  0  0  0  0  0  0
    1.5598    1.1692   -0.5951 H   0  0  0  0  0  0  0  0  0  0  0  0
    5.4480   -0.4491    2.0392 H   0  0  0  0  0  0  0  0  0  0  0  0
    3.8454    1.8073   -1.2563 H   0  0  0  0  0  0  0  0  0  0  0  0
    5.8016    0.9953    0.0484 H   0  0  0  0  0  0  0  0  0  0  0  0
   -0.7784   -0.1290    0.0000 H   0  0  0  0  0  0  0  0  0  0  0  0
    0.7423   -0.2670    0.0000 H   0  0  0  0  0  0  0  0  0  0  0  0
  3  4  1  0
  4  2  1  0
  5  3  2  0
  6  2  1  0
  7  2  2  0
  8  5  1  0
  9  8  1  0
 10  9  1  0
 11  3  1  0
 12 11  2  0
 13  8  2  0
 14  4  1  0
 15 10  2  0
 16 10  1  0
 17 16  2  0
 18 15  1  0
 19 17  1  0
 12 13  1  0
 18 19  2  0
 21 22  1  0
 22 20  1  0
 23 21  2  0
 24 20  1  0
 25 20  2  0
 26 23  1  0
 27 26  1  0
 28 27  1  0
 29 21  1  0
 30 29  2  0
 31 26  2  0
 32 22  1  0
 33 28  2  0
 34 28  1  0
 35 33  1  0
 36 34  2  0
 37 36  1  0
 30 31  1  0
 35 37  2  0
  1 40  1  0
  1 41  1  0
  4 42  1  6
  5 43  1  0
 11 44  1  0
 12 45  1  0
 13 46  1  0
 14 47  1  0
 14 48  1  0
 14 49  1  0
 15 50  1  0
 16 51  1  0
 17 52  1  0
 18 53  1  0
 19 54  1  0
 22 55  1  6
 23 56  1  0
 29 57  1  0
 30 58  1  0
 31 59  1  0
 32 60  1  0
 32 61  1  0
 32 62  1  0
 33 63  1  0
 34 64  1  0
 35 65  1  0
 36 66  1  0
 37 67  1  0
 39 68  1  0
 39 69  1  0
M  CHG  3   6  -1  24  -1  38   2
M  END
$$$$
