
     RDKit          3D

 66 71  0  0  0  0  0  0  0  0999 V2000
   31.5577   11.6363   18.7533 C   0  0  0  0  0  0  0  0  0  0  0  0
   31.5559   10.6100   17.8069 C   0  0  0  0  0  0  0  0  0  0  0  0
   30.9042    9.4113   18.0871 C   0  0  0  0  0  0  0  0  0  0  0  0
   30.2637    9.2590   19.3113 C   0  0  0  0  0  0  0  0  0  0  0  0
   30.2702   10.2887   20.2514 C   0  0  0  0  0  0  0  0  0  0  0  0
   30.9185   11.5029   19.9934 C   0  0  0  0  0  0  0  0  0  0  0  0
   32.1836   12.7808   18.4452 F   0  0  0  0  0  0  0  0  0  0  0  0
   29.6320    8.1086   19.5811 F   0  0  0  0  0  0  0  0  0  0  0  0
   29.6405   10.1006   21.4197 F   0  0  0  0  0  0  0  0  0  0  0  0
   30.9392   12.6498   20.9933 C   0  0  1  0  0  0  0  0  0  0  0  0
   28.9147   12.6222   22.4789 N   0  0  0  0  0  0  0  0  0  0  0  0
   29.5401   13.2801   21.3176 C   0  0  2  0  0  0  0  0  0  0  0  0
   31.7220   12.2401   22.2633 C   0  0  0  0  0  0  0  0  0  0  0  0
   31.1479   12.8819   23.5215 C   0  0  1  0  0  0  0  0  0  0  0  0
   29.6657   12.4907   23.6506 C   0  0  0  0  0  0  0  0  0  0  0  0
   28.6605   13.4024   20.0663 C   0  0  0  0  0  0  0  0  0  0  0  0
   27.4472   12.5320   22.6270 C   0  0  0  0  0  0  0  0  0  0  0  0
   26.7559   13.7968   23.1506 C   0  0  0  0  0  0  0  0  0  0  0  0
   25.4197   13.6032   23.2430 F   0  0  0  0  0  0  0  0  0  0  0  0
   26.9498   14.8413   22.3113 F   0  0  0  0  0  0  0  0  0  0  0  0
   27.2006   14.1715   24.3669 F   0  0  0  0  0  0  0  0  0  0  0  0
   29.1821   12.1268   24.7228 O   0  0  0  0  0  0  0  0  0  0  0  0
   31.8465   12.4453   24.7253 N   0  0  0  0  0  0  0  0  0  0  0  0
   33.0613   12.9889   25.0769 C   0  0  0  0  0  0  0  0  0  0  0  0
   33.6588   13.7932   24.3689 O   0  0  0  0  0  0  0  0  0  0  0  0
   33.6171   12.5998   26.3947 C   0  0  0  0  0  0  0  0  0  0  0  0
   34.5216   13.4538   27.0348 C   0  0  0  0  0  0  0  0  0  0  0  0
   33.2842   11.3961   27.0212 C   0  0  0  0  0  0  0  0  0  0  0  0
   33.7558   11.0059   28.2351 N   0  0  0  0  0  0  0  0  0  0  0  0
   34.6205   11.8557   28.8128 C   0  0  0  0  0  0  0  0  0  0  0  0
   35.0228   13.0649   28.2645 C   0  0  0  0  0  0  0  0  0  0  0  0
   35.9570   13.8028   29.1663 C   0  0  0  0  0  0  0  0  0  0  0  0
   35.2277   11.6267   30.1675 C   0  0  0  0  0  0  0  0  0  0  0  0
   36.2936   12.7377   30.2337 C   0  0  2  0  0  0  0  0  0  0  0  0
   36.4804   13.3085   31.6149 C   0  0  0  0  0  0  0  0  0  0  0  0
   37.7760   13.0713   32.0496 C   0  0  0  0  0  0  0  0  0  0  0  0
   38.4773   12.3905   31.0787 N   0  0  0  0  0  0  0  0  0  0  0  0
   37.6985   12.1430   29.9634 C   0  0  0  0  0  0  0  0  0  0  0  0
   38.0713   11.5649   28.9566 O   0  0  0  0  0  0  0  0  0  0  0  0
   38.2826   13.4409   33.2261 N   0  0  0  0  0  0  0  0  0  0  0  0
   35.6070   13.9826   32.4472 C   0  0  0  0  0  0  0  0  0  0  0  0
   36.0908   14.3889   33.6901 C   0  0  0  0  0  0  0  0  0  0  0  0
   37.4144   14.1000   34.0296 C   0  0  0  0  0  0  0  0  0  0  0  0
   32.0634   10.7561   16.8573 H   0  0  0  0  0  0  0  0  0  0  0  0
   30.8908    8.6004   17.3655 H   0  0  0  0  0  0  0  0  0  0  0  0
   31.5118   13.4691   20.5347 H   0  0  0  0  0  0  0  0  0  0  0  0
   29.7274   14.3095   21.6570 H   0  0  0  0  0  0  0  0  0  0  0  0
   31.7231   11.1501   22.3981 H   0  0  0  0  0  0  0  0  0  0  0  0
   32.7779   12.5111   22.1361 H   0  0  0  0  0  0  0  0  0  0  0  0
   31.2112   13.9757   23.4733 H   0  0  0  0  0  0  0  0  0  0  0  0
   28.2961   12.4298   19.7214 H   0  0  0  0  0  0  0  0  0  0  0  0
   29.2151   13.8731   19.2474 H   0  0  0  0  0  0  0  0  0  0  0  0
   27.7840   14.0282   20.2556 H   0  0  0  0  0  0  0  0  0  0  0  0
   27.0123   12.2279   21.6707 H   0  0  0  0  0  0  0  0  0  0  0  0
   27.2294   11.7159   23.3262 H   0  0  0  0  0  0  0  0  0  0  0  0
   31.2522   12.0301   25.4384 H   0  0  0  0  0  0  0  0  0  0  0  0
   34.8165   14.3950   26.5794 H   0  0  0  0  0  0  0  0  0  0  0  0
   32.6197   10.6736   26.5560 H   0  0  0  0  0  0  0  0  0  0  0  0
   35.4362   14.6688   29.5902 H   0  0  0  0  0  0  0  0  0  0  0  0
   36.8417   14.1468   28.6194 H   0  0  0  0  0  0  0  0  0  0  0  0
   34.4473   11.7439   30.9272 H   0  0  0  0  0  0  0  0  0  0  0  0
   35.6503   10.6193   30.2374 H   0  0  0  0  0  0  0  0  0  0  0  0
   39.4403   12.1145   31.1830 H   0  0  0  0  0  0  0  0  0  0  0  0
   34.5827   14.1908   32.1550 H   0  0  0  0  0  0  0  0  0  0  0  0
   35.4525   14.9216   34.3882 H   0  0  0  0  0  0  0  0  0  0  0  0
   37.8181   14.4043   34.9922 H   0  0  0  0  0  0  0  0  0  0  0  0
  1  2  2  0
  2  3  1  0
  3  4  2  0
  4  5  1  0
  5  6  2  0
  1  6  1  0
  1  7  1  0
  4  8  1  0
  5  9  1  0
 10  6  1  0
 11 12  1  0
 13 14  1  0
 14 15  1  0
 11 15  1  0
 12 10  1  0
 10 13  1  0
 12 16  1  0
 11 17  1  0
 17 18  1  0
 18 19  1  0
 18 20  1  0
 18 21  1  0
 15 22  2  0
 14 23  1  0
 23 24  1  0
 24 25  2  0
 24 26  1  0
 28 29  1  0
 29 30  2  0
 30 31  1  0
 27 31  2  0
 27 26  1  0
 26 28  2  0
 31 32  1  0
 30 33  1  0
 34 32  1  1
 34 33  1  0
 34 35  1  0
 35 36  2  0
 36 37  1  0
 37 38  1  0
 38 34  1  0
 38 39  2  0
 36 40  1  0
 35 41  1  0
 41 42  2  0
 40 43  2  0
 43 42  1  0
  2 44  1  0
  3 45  1  0
 10 46  1  1
 12 47  1  1
 13 48  1  0
 13 49  1  0
 14 50  1  1
 16 51  1  0
 16 52  1  0
 16 53  1  0
 17 54  1  0
 17 55  1  0
 23 56  1  0
 27 57  1  0
 28 58  1  0
 32 59  1  0
 32 60  1  0
 33 61  1  0
 33 62  1  0
 37 63  1  0
 41 64  1  0
 42 65  1  0
 43 66  1  0
M  END
> <Uni-Dock RESULT> 
ENERGY=   -4.281  LOWER_BOUND=    0.000  UPPER_BOUND=    0.000
INTER + INTRA:          -4.281
INTER:                  -4.281
INTRA:                   0.000
UNBOUND:                 0.000

$$$$

     RDKit          3D

 66 71  0  0  0  0  0  0  0  0999 V2000
   30.0662    4.1079   31.2654 C   0  0  0  0  0  0  0  0  0  0  0  0
   30.0115    2.7337   31.0250 C   0  0  0  0  0  0  0  0  0  0  0  0
   29.8513    2.2648   29.7233 C   0  0  0  0  0  0  0  0  0  0  0  0
   29.7486    3.1795   28.6819 C   0  0  0  0  0  0  0  0  0  0  0  0
   29.8038    4.5504   28.9303 C   0  0  0  0  0  0  0  0  0  0  0  0
   29.9641    5.0468   30.2299 C   0  0  0  0  0  0  0  0  0  0  0  0
   30.2339    4.5236   32.5286 F   0  0  0  0  0  0  0  0  0  0  0  0
   29.5992    2.7306   27.4284 F   0  0  0  0  0  0  0  0  0  0  0  0
   29.7006    5.3986   27.8973 F   0  0  0  0  0  0  0  0  0  0  0  0
   30.0357    6.5356   30.5359 C   0  0  1  0  0  0  0  0  0  0  0  0
   30.9522    7.8387   28.5947 N   0  0  0  0  0  0  0  0  0  0  0  0
   31.2695    7.2860   29.9238 C   0  0  2  0  0  0  0  0  0  0  0  0
   28.6893    7.2182   30.1969 C   0  0  0  0  0  0  0  0  0  0  0  0
   28.8813    8.6440   29.6922 C   0  0  1  0  0  0  0  0  0  0  0  0
   29.7999    8.6182   28.4584 C   0  0  0  0  0  0  0  0  0  0  0  0
   32.5523    6.4484   30.0092 C   0  0  0  0  0  0  0  0  0  0  0  0
   31.9880    8.0122   27.5550 C   0  0  0  0  0  0  0  0  0  0  0  0
   32.8736    9.2552   27.7040 C   0  0  0  0  0  0  0  0  0  0  0  0
   33.7843    9.3112   26.7046 F   0  0  0  0  0  0  0  0  0  0  0  0
   33.5623    9.2263   28.8692 F   0  0  0  0  0  0  0  0  0  0  0  0
   32.1702   10.4053   27.6821 F   0  0  0  0  0  0  0  0  0  0  0  0
   29.5448    9.2714   27.4464 O   0  0  0  0  0  0  0  0  0  0  0  0
   27.6169    9.2646   29.3129 N   0  0  0  0  0  0  0  0  0  0  0  0
   26.7670    9.7816   30.2643 C   0  0  0  0  0  0  0  0  0  0  0  0
   26.9757    9.6765   31.4686 O   0  0  0  0  0  0  0  0  0  0  0  0
   25.5858   10.5318   29.7756 C   0  0  0  0  0  0  0  0  0  0  0  0
   24.9931   11.4902   30.6048 C   0  0  0  0  0  0  0  0  0  0  0  0
   25.0250   10.3065   28.5159 C   0  0  0  0  0  0  0  0  0  0  0  0
   23.9539   10.9811   28.0202 N   0  0  0  0  0  0  0  0  0  0  0  0
   23.4172   11.8911   28.8495 C   0  0  0  0  0  0  0  0  0  0  0  0
   23.8926   12.1756   30.1214 C   0  0  0  0  0  0  0  0  0  0  0  0
   23.1104   13.2653   30.7782 C   0  0  0  0  0  0  0  0  0  0  0  0
   22.2528   12.7649   28.4794 C   0  0  0  0  0  0  0  0  0  0  0  0
   21.9008   13.4194   29.8294 C   0  0  2  0  0  0  0  0  0  0  0  0
   21.4156   14.8393   29.6993 C   0  0  0  0  0  0  0  0  0  0  0  0
   20.1116   14.9341   30.1624 C   0  0  0  0  0  0  0  0  0  0  0  0
   19.6780   13.6996   30.5938 N   0  0  0  0  0  0  0  0  0  0  0  0
   20.6552   12.7329   30.4441 C   0  0  0  0  0  0  0  0  0  0  0  0
   20.5395   11.5589   30.7524 O   0  0  0  0  0  0  0  0  0  0  0  0
   19.3750   16.0449   30.1936 N   0  0  0  0  0  0  0  0  0  0  0  0
   22.0400   15.9743   29.2178 C   0  0  0  0  0  0  0  0  0  0  0  0
   21.3091   17.1615   29.2288 C   0  0  0  0  0  0  0  0  0  0  0  0
   20.0010   17.1477   29.7184 C   0  0  0  0  0  0  0  0  0  0  0  0
   30.0957    2.0405   31.8575 H   0  0  0  0  0  0  0  0  0  0  0  0
   29.8061    1.2004   29.5144 H   0  0  0  0  0  0  0  0  0  0  0  0
   30.1623    6.6371   31.6236 H   0  0  0  0  0  0  0  0  0  0  0  0
   31.4448    8.1720   30.5516 H   0  0  0  0  0  0  0  0  0  0  0  0
   28.1340    6.6519   29.4371 H   0  0  0  0  0  0  0  0  0  0  0  0
   28.0468    7.2043   31.0866 H   0  0  0  0  0  0  0  0  0  0  0  0
   29.3507    9.2755   30.4563 H   0  0  0  0  0  0  0  0  0  0  0  0
   32.5428    5.6067   29.3098 H   0  0  0  0  0  0  0  0  0  0  0  0
   32.6907    6.0540   31.0217 H   0  0  0  0  0  0  0  0  0  0  0  0
   33.4363    7.0500   29.7804 H   0  0  0  0  0  0  0  0  0  0  0  0
   32.6029    7.1087   27.5129 H   0  0  0  0  0  0  0  0  0  0  0  0
   31.4825    8.0739   26.5839 H   0  0  0  0  0  0  0  0  0  0  0  0
   27.5806    9.6132   28.3584 H   0  0  0  0  0  0  0  0  0  0  0  0
   25.3897   11.6907   31.5961 H   0  0  0  0  0  0  0  0  0  0  0  0
   25.4149    9.5478   27.8434 H   0  0  0  0  0  0  0  0  0  0  0  0
   23.7253   14.1714   30.8215 H   0  0  0  0  0  0  0  0  0  0  0  0
   22.8165   12.9806   31.7943 H   0  0  0  0  0  0  0  0  0  0  0  0
   22.5831   13.4926   27.7303 H   0  0  0  0  0  0  0  0  0  0  0  0
   21.4356   12.1661   28.0646 H   0  0  0  0  0  0  0  0  0  0  0  0
   18.7585   13.5371   30.9711 H   0  0  0  0  0  0  0  0  0  0  0  0
   23.0580   15.9525   28.8422 H   0  0  0  0  0  0  0  0  0  0  0  0
   21.7446   18.0861   28.8628 H   0  0  0  0  0  0  0  0  0  0  0  0
   19.4077   18.0585   29.7384 H   0  0  0  0  0  0  0  0  0  0  0  0
  1  2  2  0
  2  3  1  0
  3  4  2  0
  4  5  1  0
  5  6  2  0
  1  6  1  0
  1  7  1  0
  4  8  1  0
  5  9  1  0
 10  6  1  0
 11 12  1  0
 13 14  1  0
 14 15  1  0
 11 15  1  0
 12 10  1  0
 10 13  1  0
 12 16  1  0
 11 17  1  0
 17 18  1  0
 18 19  1  0
 18 20  1  0
 18 21  1  0
 15 22  2  0
 14 23  1  0
 23 24  1  0
 24 25  2  0
 24 26  1  0
 28 29  1  0
 29 30  2  0
 30 31  1  0
 27 31  2  0
 27 26  1  0
 26 28  2  0
 31 32  1  0
 30 33  1  0
 34 32  1  1
 34 33  1  0
 34 35  1  0
 35 36  2  0
 36 37  1  0
 37 38  1  0
 38 34  1  0
 38 39  2  0
 36 40  1  0
 35 41  1  0
 41 42  2  0
 40 43  2  0
 43 42  1  0
  2 44  1  0
  3 45  1  0
 10 46  1  1
 12 47  1  1
 13 48  1  0
 13 49  1  0
 14 50  1  1
 16 51  1  0
 16 52  1  0
 16 53  1  0
 17 54  1  0
 17 55  1  0
 23 56  1  0
 27 57  1  0
 28 58  1  0
 32 59  1  0
 32 60  1  0
 33 61  1  0
 33 62  1  0
 37 63  1  0
 41 64  1  0
 42 65  1  0
 43 66  1  0
M  END
> <Uni-Dock RESULT> 
ENERGY=   -4.155  LOWER_BOUND=    8.113  UPPER_BOUND=   12.385
INTER + INTRA:          -4.155
INTER:                  -4.155
INTRA:                   0.000
UNBOUND:                 0.000

$$$$

     RDKit          3D

 66 71  0  0  0  0  0  0  0  0999 V2000
   33.1825   13.7088   26.0607 C   0  0  0  0  0  0  0  0  0  0  0  0
   33.9404   14.1433   24.9717 C   0  0  0  0  0  0  0  0  0  0  0  0
   33.5303   13.8359   23.6766 C   0  0  0  0  0  0  0  0  0  0  0  0
   32.3670   13.0981   23.4919 C   0  0  0  0  0  0  0  0  0  0  0  0
   31.6157   12.6676   24.5848 C   0  0  0  0  0  0  0  0  0  0  0  0
   32.0070   12.9636   25.8964 C   0  0  0  0  0  0  0  0  0  0  0  0
   33.5996   14.0336   27.2924 F   0  0  0  0  0  0  0  0  0  0  0  0
   31.9680   12.8053   22.2468 F   0  0  0  0  0  0  0  0  0  0  0  0
   30.5001   11.9583   24.3624 F   0  0  0  0  0  0  0  0  0  0  0  0
   31.2074   12.5161   27.1112 C   0  0  1  0  0  0  0  0  0  0  0  0
   28.7660   12.2717   26.5764 N   0  0  0  0  0  0  0  0  0  0  0  0
   29.7695   13.1313   27.2296 C   0  0  2  0  0  0  0  0  0  0  0  0
   31.2105   10.9726   27.2165 C   0  0  0  0  0  0  0  0  0  0  0  0
   29.9042   10.4353   27.7904 C   0  0  1  0  0  0  0  0  0  0  0  0
   28.7369   10.9146   26.9104 C   0  0  0  0  0  0  0  0  0  0  0  0
   29.7427   14.6120   26.8279 C   0  0  0  0  0  0  0  0  0  0  0  0
   27.5327   12.8271   25.9810 C   0  0  0  0  0  0  0  0  0  0  0  0
   26.4063   13.1478   26.9709 C   0  0  0  0  0  0  0  0  0  0  0  0
   25.3321   13.6514   26.3199 F   0  0  0  0  0  0  0  0  0  0  0  0
   26.7991   14.0795   27.8713 F   0  0  0  0  0  0  0  0  0  0  0  0
   25.9952   12.0674   27.6649 F   0  0  0  0  0  0  0  0  0  0  0  0
   27.8310   10.1557   26.5652 O   0  0  0  0  0  0  0  0  0  0  0  0
   29.8833    8.9773   27.8301 N   0  0  0  0  0  0  0  0  0  0  0  0
   30.5339    8.2856   28.8267 C   0  0  0  0  0  0  0  0  0  0  0  0
   31.2283    8.8378   29.6739 O   0  0  0  0  0  0  0  0  0  0  0  0
   30.3245    6.8190   28.8754 C   0  0  0  0  0  0  0  0  0  0  0  0
   30.4967    6.1434   30.0884 C   0  0  0  0  0  0  0  0  0  0  0  0
   29.9757    6.0751   27.7454 C   0  0  0  0  0  0  0  0  0  0  0  0
   29.7578    4.7332   27.7464 N   0  0  0  0  0  0  0  0  0  0  0  0
   29.9342    4.1260   28.9313 C   0  0  0  0  0  0  0  0  0  0  0  0
   30.2933    4.7749   30.1038 C   0  0  0  0  0  0  0  0  0  0  0  0
   30.3682    3.8341   31.2613 C   0  0  0  0  0  0  0  0  0  0  0  0
   29.7096    2.6572   29.1515 C   0  0  0  0  0  0  0  0  0  0  0  0
   30.2751    2.4551   30.5707 C   0  0  2  0  0  0  0  0  0  0  0  0
   29.5223    1.4288   31.3760 C   0  0  0  0  0  0  0  0  0  0  0  0
   30.3645    0.3748   31.6980 C   0  0  0  0  0  0  0  0  0  0  0  0
   31.6198    0.6044   31.1789 N   0  0  0  0  0  0  0  0  0  0  0  0
   31.6794    1.8049   30.4956 C   0  0  0  0  0  0  0  0  0  0  0  0
   32.6700    2.2553   29.9454 O   0  0  0  0  0  0  0  0  0  0  0  0
   30.0263   -0.7046   32.4037 N   0  0  0  0  0  0  0  0  0  0  0  0
   28.2090    1.3924   31.8047 C   0  0  0  0  0  0  0  0  0  0  0  0
   27.8072    0.2820   32.5460 C   0  0  0  0  0  0  0  0  0  0  0  0
   28.7367   -0.7250   32.8160 C   0  0  0  0  0  0  0  0  0  0  0  0
   34.8451   14.7197   25.1445 H   0  0  0  0  0  0  0  0  0  0  0  0
   34.1050   14.1637   22.8158 H   0  0  0  0  0  0  0  0  0  0  0  0
   31.7388   12.8824   28.0017 H   0  0  0  0  0  0  0  0  0  0  0  0
   29.4994   13.1024   28.2955 H   0  0  0  0  0  0  0  0  0  0  0  0
   31.3785   10.5054   26.2369 H   0  0  0  0  0  0  0  0  0  0  0  0
   32.0635   10.6574   27.8310 H   0  0  0  0  0  0  0  0  0  0  0  0
   29.7382   10.8025   28.8105 H   0  0  0  0  0  0  0  0  0  0  0  0
   29.8621   14.7490   25.7487 H   0  0  0  0  0  0  0  0  0  0  0  0
   30.5394   15.1657   27.3361 H   0  0  0  0  0  0  0  0  0  0  0  0
   28.7982   15.0843   27.1120 H   0  0  0  0  0  0  0  0  0  0  0  0
   27.7900   13.7143   25.3956 H   0  0  0  0  0  0  0  0  0  0  0  0
   27.1486   12.0956   25.2601 H   0  0  0  0  0  0  0  0  0  0  0  0
   29.1020    8.5470   27.3421 H   0  0  0  0  0  0  0  0  0  0  0  0
   30.7778    6.6805   30.9899 H   0  0  0  0  0  0  0  0  0  0  0  0
   29.8676    6.5361   26.7678 H   0  0  0  0  0  0  0  0  0  0  0  0
   29.5224    4.0233   31.9319 H   0  0  0  0  0  0  0  0  0  0  0  0
   31.3038    3.9664   31.8155 H   0  0  0  0  0  0  0  0  0  0  0  0
   28.6351    2.4528   29.0916 H   0  0  0  0  0  0  0  0  0  0  0  0
   30.2317    2.0672   28.3914 H   0  0  0  0  0  0  0  0  0  0  0  0
   32.3907   -0.0337   31.2930 H   0  0  0  0  0  0  0  0  0  0  0  0
   27.5097    2.1907   31.5772 H   0  0  0  0  0  0  0  0  0  0  0  0
   26.7881    0.1955   32.9100 H   0  0  0  0  0  0  0  0  0  0  0  0
   28.4509   -1.6023   33.3912 H   0  0  0  0  0  0  0  0  0  0  0  0
  1  2  2  0
  2  3  1  0
  3  4  2  0
  4  5  1  0
  5  6  2  0
  1  6  1  0
  1  7  1  0
  4  8  1  0
  5  9  1  0
 10  6  1  0
 11 12  1  0
 13 14  1  0
 14 15  1  0
 11 15  1  0
 12 10  1  0
 10 13  1  0
 12 16  1  0
 11 17  1  0
 17 18  1  0
 18 19  1  0
 18 20  1  0
 18 21  1  0
 15 22  2  0
 14 23  1  0
 23 24  1  0
 24 25  2  0
 24 26  1  0
 28 29  1  0
 29 30  2  0
 30 31  1  0
 27 31  2  0
 27 26  1  0
 26 28  2  0
 31 32  1  0
 30 33  1  0
 34 32  1  1
 34 33  1  0
 34 35  1  0
 35 36  2  0
 36 37  1  0
 37 38  1  0
 38 34  1  0
 38 39  2  0
 36 40  1  0
 35 41  1  0
 41 42  2  0
 40 43  2  0
 43 42  1  0
  2 44  1  0
  3 45  1  0
 10 46  1  1
 12 47  1  1
 13 48  1  0
 13 49  1  0
 14 50  1  1
 16 51  1  0
 16 52  1  0
 16 53  1  0
 17 54  1  0
 17 55  1  0
 23 56  1  0
 27 57  1  0
 28 58  1  0
 32 59  1  0
 32 60  1  0
 33 61  1  0
 33 62  1  0
 37 63  1  0
 41 64  1  0
 42 65  1  0
 43 66  1  0
M  END
> <Uni-Dock RESULT> 
ENERGY=   -4.070  LOWER_BOUND=    7.199  UPPER_BOUND=    9.063
INTER + INTRA:          -4.070
INTER:                  -4.070
INTRA:                   0.000
UNBOUND:                 0.000

$$$$

     RDKit          3D

 66 71  0  0  0  0  0  0  0  0999 V2000
   30.3151   15.4771   21.4952 C   0  0  0  0  0  0  0  0  0  0  0  0
   30.4324   16.8130   21.1074 C   0  0  0  0  0  0  0  0  0  0  0  0
   30.9643   17.7467   21.9935 C   0  0  0  0  0  0  0  0  0  0  0  0
   31.3711   17.3279   23.2549 C   0  0  0  0  0  0  0  0  0  0  0  0
   31.2505   15.9917   23.6348 C   0  0  0  0  0  0  0  0  0  0  0  0
   30.7188   15.0342   22.7621 C   0  0  0  0  0  0  0  0  0  0  0  0
   29.8108   14.6034   20.6126 F   0  0  0  0  0  0  0  0  0  0  0  0
   31.8875   18.2234   24.1073 F   0  0  0  0  0  0  0  0  0  0  0  0
   31.6548   15.6298   24.8605 F   0  0  0  0  0  0  0  0  0  0  0  0
   30.5795   13.5671   23.1412 C   0  0  1  0  0  0  0  0  0  0  0  0
   32.3072   12.8765   24.8277 N   0  0  0  0  0  0  0  0  0  0  0  0
   31.9293   12.8130   23.4045 C   0  0  2  0  0  0  0  0  0  0  0  0
   29.5662   13.4062   24.2991 C   0  0  0  0  0  0  0  0  0  0  0  0
   29.9411   12.2607   25.2329 C   0  0  1  0  0  0  0  0  0  0  0  0
   31.3563   12.5074   25.7836 C   0  0  0  0  0  0  0  0  0  0  0  0
   33.0203   13.2210   22.4056 C   0  0  0  0  0  0  0  0  0  0  0  0
   33.7195   12.8448   25.2615 C   0  0  0  0  0  0  0  0  0  0  0  0
   34.3699   11.4565   25.2972 C   0  0  0  0  0  0  0  0  0  0  0  0
   35.6577   11.5464   25.7032 F   0  0  0  0  0  0  0  0  0  0  0  0
   34.3787   10.8906   24.0673 F   0  0  0  0  0  0  0  0  0  0  0  0
   33.7374   10.6028   26.1271 F   0  0  0  0  0  0  0  0  0  0  0  0
   31.6251   12.3502   26.9748 O   0  0  0  0  0  0  0  0  0  0  0  0
   29.0209   12.1501   26.3593 N   0  0  0  0  0  0  0  0  0  0  0  0
   27.7917   11.5477   26.2143 C   0  0  0  0  0  0  0  0  0  0  0  0
   27.3688   11.1536   25.1323 O   0  0  0  0  0  0  0  0  0  0  0  0
   26.9942   11.3399   27.4463 C   0  0  0  0  0  0  0  0  0  0  0  0
   26.0347   10.3221   27.4765 C   0  0  0  0  0  0  0  0  0  0  0  0
   27.1515   12.1373   28.5828 C   0  0  0  0  0  0  0  0  0  0  0  0
   26.4550   11.9731   29.7386 N   0  0  0  0  0  0  0  0  0  0  0  0
   25.5454   10.9851   29.7229 C   0  0  0  0  0  0  0  0  0  0  0  0
   25.3064   10.1509   28.6405 C   0  0  0  0  0  0  0  0  0  0  0  0
   24.2659    9.1243   28.9468 C   0  0  0  0  0  0  0  0  0  0  0  0
   24.6988   10.6191   30.9085 C   0  0  0  0  0  0  0  0  0  0  0  0
   23.6944    9.6264   30.2915 C   0  0  2  0  0  0  0  0  0  0  0  0
   23.2962    8.5159   31.2279 C   0  0  0  0  0  0  0  0  0  0  0  0
   21.9341    8.5817   31.4816 C   0  0  0  0  0  0  0  0  0  0  0  0
   21.3815    9.6408   30.7955 N   0  0  0  0  0  0  0  0  0  0  0  0
   22.3311   10.3250   30.0593 C   0  0  0  0  0  0  0  0  0  0  0  0
   22.1130   11.2968   29.3558 O   0  0  0  0  0  0  0  0  0  0  0  0
   21.2474    7.7520   32.2675 N   0  0  0  0  0  0  0  0  0  0  0  0
   24.0419    7.5177   31.8257 C   0  0  0  0  0  0  0  0  0  0  0  0
   23.3678    6.6253   32.6583 C   0  0  0  0  0  0  0  0  0  0  0  0
   21.9924    6.7801   32.8455 C   0  0  0  0  0  0  0  0  0  0  0  0
   30.1078   17.1132   20.1149 H   0  0  0  0  0  0  0  0  0  0  0  0
   31.0641   18.7905   21.7123 H   0  0  0  0  0  0  0  0  0  0  0  0
   30.1380   13.0497   22.2770 H   0  0  0  0  0  0  0  0  0  0  0  0
   31.7366   11.7455   23.2221 H   0  0  0  0  0  0  0  0  0  0  0  0
   29.4873   14.3271   24.8923 H   0  0  0  0  0  0  0  0  0  0  0  0
   28.5639   13.2527   23.8791 H   0  0  0  0  0  0  0  0  0  0  0  0
   29.9418   11.3006   24.7028 H   0  0  0  0  0  0  0  0  0  0  0  0
   33.3909   14.2340   22.5902 H   0  0  0  0  0  0  0  0  0  0  0  0
   32.6424   13.1737   21.3786 H   0  0  0  0  0  0  0  0  0  0  0  0
   33.8798   12.5469   22.4577 H   0  0  0  0  0  0  0  0  0  0  0  0
   34.3002   13.5218   24.6285 H   0  0  0  0  0  0  0  0  0  0  0  0
   33.7701   13.2658   26.2728 H   0  0  0  0  0  0  0  0  0  0  0  0
   29.4591   12.1923   27.2758 H   0  0  0  0  0  0  0  0  0  0  0  0
   25.8717    9.6847   26.6121 H   0  0  0  0  0  0  0  0  0  0  0  0
   27.8507   12.9682   28.6064 H   0  0  0  0  0  0  0  0  0  0  0  0
   24.7464    8.1435   29.0374 H   0  0  0  0  0  0  0  0  0  0  0  0
   23.5094    9.0830   28.1555 H   0  0  0  0  0  0  0  0  0  0  0  0
   25.3382   10.1562   31.6679 H   0  0  0  0  0  0  0  0  0  0  0  0
   24.2210   11.5080   31.3326 H   0  0  0  0  0  0  0  0  0  0  0  0
   20.4027    9.8749   30.8344 H   0  0  0  0  0  0  0  0  0  0  0  0
   25.1107    7.4247   31.6615 H   0  0  0  0  0  0  0  0  0  0  0  0
   23.8990    5.8206   33.1570 H   0  0  0  0  0  0  0  0  0  0  0  0
   21.4413    6.0992   33.4896 H   0  0  0  0  0  0  0  0  0  0  0  0
  1  2  2  0
  2  3  1  0
  3  4  2  0
  4  5  1  0
  5  6  2  0
  1  6  1  0
  1  7  1  0
  4  8  1  0
  5  9  1  0
 10  6  1  0
 11 12  1  0
 13 14  1  0
 14 15  1  0
 11 15  1  0
 12 10  1  0
 10 13  1  0
 12 16  1  0
 11 17  1  0
 17 18  1  0
 18 19  1  0
 18 20  1  0
 18 21  1  0
 15 22  2  0
 14 23  1  0
 23 24  1  0
 24 25  2  0
 24 26  1  0
 28 29  1  0
 29 30  2  0
 30 31  1  0
 27 31  2  0
 27 26  1  0
 26 28  2  0
 31 32  1  0
 30 33  1  0
 34 32  1  1
 34 33  1  0
 34 35  1  0
 35 36  2  0
 36 37  1  0
 37 38  1  0
 38 34  1  0
 38 39  2  0
 36 40  1  0
 35 41  1  0
 41 42  2  0
 40 43  2  0
 43 42  1  0
  2 44  1  0
  3 45  1  0
 10 46  1  1
 12 47  1  1
 13 48  1  0
 13 49  1  0
 14 50  1  1
 16 51  1  0
 16 52  1  0
 16 53  1  0
 17 54  1  0
 17 55  1  0
 23 56  1  0
 27 57  1  0
 28 58  1  0
 32 59  1  0
 32 60  1  0
 33 61  1  0
 33 62  1  0
 37 63  1  0
 41 64  1  0
 42 65  1  0
 43 66  1  0
M  END
> <Uni-Dock RESULT> 
ENERGY=   -4.016  LOWER_BOUND=    6.658  UPPER_BOUND=    9.843
INTER + INTRA:          -4.016
INTER:                  -4.016
INTRA:                   0.000
UNBOUND:                 0.000

$$$$

     RDKit          3D

 66 71  0  0  0  0  0  0  0  0999 V2000
   25.1985    8.0967   17.3658 C   0  0  0  0  0  0  0  0  0  0  0  0
   24.4200    6.9414   17.2745 C   0  0  0  0  0  0  0  0  0  0  0  0
   23.3310    6.7717   18.1262 C   0  0  0  0  0  0  0  0  0  0  0  0
   23.0381    7.7622   19.0563 C   0  0  0  0  0  0  0  0  0  0  0  0
   23.8207    8.9131   19.1413 C   0  0  0  0  0  0  0  0  0  0  0  0
   24.9207    9.1069   18.2966 C   0  0  0  0  0  0  0  0  0  0  0  0
   26.2311    8.2327   16.5220 F   0  0  0  0  0  0  0  0  0  0  0  0
   21.9882    7.6033   19.8733 F   0  0  0  0  0  0  0  0  0  0  0  0
   23.5036    9.8438   20.0524 F   0  0  0  0  0  0  0  0  0  0  0  0
   25.7913   10.3534   18.3572 C   0  0  1  0  0  0  0  0  0  0  0  0
   24.5045   12.3445   19.1854 N   0  0  0  0  0  0  0  0  0  0  0  0
   25.0665   11.6944   17.9879 C   0  0  2  0  0  0  0  0  0  0  0  0
   26.5317   10.4250   19.7137 C   0  0  0  0  0  0  0  0  0  0  0  0
   26.7185   11.8616   20.1888 C   0  0  1  0  0  0  0  0  0  0  0  0
   25.3405   12.5383   20.2889 C   0  0  0  0  0  0  0  0  0  0  0  0
   24.1011   11.5203   16.8080 C   0  0  0  0  0  0  0  0  0  0  0  0
   23.3013   13.1997   19.1160 C   0  0  0  0  0  0  0  0  0  0  0  0
   23.5354   14.6324   18.6219 C   0  0  0  0  0  0  0  0  0  0  0  0
   22.3707   15.3210   18.5953 F   0  0  0  0  0  0  0  0  0  0  0  0
   24.0307   14.6388   17.3619 F   0  0  0  0  0  0  0  0  0  0  0  0
   24.3995   15.3191   19.3962 F   0  0  0  0  0  0  0  0  0  0  0  0
   25.0258   13.2281   21.2589 O   0  0  0  0  0  0  0  0  0  0  0  0
   27.3597   11.9257   21.4974 N   0  0  0  0  0  0  0  0  0  0  0  0
   28.7212   11.7706   21.6284 C   0  0  0  0  0  0  0  0  0  0  0  0
   29.4514   11.4886   20.6838 O   0  0  0  0  0  0  0  0  0  0  0  0
   29.2999   12.0094   22.9720 C   0  0  0  0  0  0  0  0  0  0  0  0
   30.6448   12.3789   23.0817 C   0  0  0  0  0  0  0  0  0  0  0  0
   28.5545   11.8624   24.1446 C   0  0  0  0  0  0  0  0  0  0  0  0
   29.0381   12.0864   25.3952 N   0  0  0  0  0  0  0  0  0  0  0  0
   30.3327   12.4390   25.4532 C   0  0  0  0  0  0  0  0  0  0  0  0
   31.1571   12.5963   24.3485 C   0  0  0  0  0  0  0  0  0  0  0  0
   32.5308   13.0357   24.7360 C   0  0  0  0  0  0  0  0  0  0  0  0
   31.0466   12.7641   26.7342 C   0  0  0  0  0  0  0  0  0  0  0  0
   32.5133   12.8551   26.2703 C   0  0  2  0  0  0  0  0  0  0  0  0
   33.3122   13.8974   27.0077 C   0  0  0  0  0  0  0  0  0  0  0  0
   34.3502   13.2908   27.6994 C   0  0  0  0  0  0  0  0  0  0  0  0
   34.3186   11.9295   27.4899 N   0  0  0  0  0  0  0  0  0  0  0  0
   33.2751   11.5635   26.6599 C   0  0  0  0  0  0  0  0  0  0  0  0
   33.0213   10.4247   26.3057 O   0  0  0  0  0  0  0  0  0  0  0  0
   35.2520   13.9163   28.4564 N   0  0  0  0  0  0  0  0  0  0  0  0
   33.1656   15.2694   27.0870 C   0  0  0  0  0  0  0  0  0  0  0  0
   34.0848   15.9681   27.8685 C   0  0  0  0  0  0  0  0  0  0  0  0
   35.0944   15.2595   28.5237 C   0  0  0  0  0  0  0  0  0  0  0  0
   24.6706    6.1834   16.5375 H   0  0  0  0  0  0  0  0  0  0  0  0
   22.7128    5.8810   18.0722 H   0  0  0  0  0  0  0  0  0  0  0  0
   26.5718   10.2410   17.5906 H   0  0  0  0  0  0  0  0  0  0  0  0
   25.8449   12.3901   17.6413 H   0  0  0  0  0  0  0  0  0  0  0  0
   25.9939    9.8680   20.4926 H   0  0  0  0  0  0  0  0  0  0  0  0
   27.5005    9.9178   19.6201 H   0  0  0  0  0  0  0  0  0  0  0  0
   27.3324   12.4359   19.4844 H   0  0  0  0  0  0  0  0  0  0  0  0
   23.2073   10.9535   17.0864 H   0  0  0  0  0  0  0  0  0  0  0  0
   24.5934   11.0023   15.9779 H   0  0  0  0  0  0  0  0  0  0  0  0
   23.7649   12.4870   16.4229 H   0  0  0  0  0  0  0  0  0  0  0  0
   22.5476   12.7020   18.4993 H   0  0  0  0  0  0  0  0  0  0  0  0
   22.8714   13.2574   20.1231 H   0  0  0  0  0  0  0  0  0  0  0  0
   26.8378   12.4358   22.2054 H   0  0  0  0  0  0  0  0  0  0  0  0
   31.2644   12.4947   22.1969 H   0  0  0  0  0  0  0  0  0  0  0  0
   27.5179   11.5385   24.1268 H   0  0  0  0  0  0  0  0  0  0  0  0
   32.6690   14.0819   24.4401 H   0  0  0  0  0  0  0  0  0  0  0  0
   33.2932   12.4195   24.2469 H   0  0  0  0  0  0  0  0  0  0  0  0
   30.6648   13.7164   27.1179 H   0  0  0  0  0  0  0  0  0  0  0  0
   30.8785   11.9813   27.4808 H   0  0  0  0  0  0  0  0  0  0  0  0
   34.9827   11.2915   27.8977 H   0  0  0  0  0  0  0  0  0  0  0  0
   32.3688   15.7914   26.5668 H   0  0  0  0  0  0  0  0  0  0  0  0
   34.0212   17.0470   27.9705 H   0  0  0  0  0  0  0  0  0  0  0  0
   35.8244   15.7785   29.1401 H   0  0  0  0  0  0  0  0  0  0  0  0
  1  2  2  0
  2  3  1  0
  3  4  2  0
  4  5  1  0
  5  6  2  0
  1  6  1  0
  1  7  1  0
  4  8  1  0
  5  9  1  0
 10  6  1  0
 11 12  1  0
 13 14  1  0
 14 15  1  0
 11 15  1  0
 12 10  1  0
 10 13  1  0
 12 16  1  0
 11 17  1  0
 17 18  1  0
 18 19  1  0
 18 20  1  0
 18 21  1  0
 15 22  2  0
 14 23  1  0
 23 24  1  0
 24 25  2  0
 24 26  1  0
 28 29  1  0
 29 30  2  0
 30 31  1  0
 27 31  2  0
 27 26  1  0
 26 28  2  0
 31 32  1  0
 30 33  1  0
 34 32  1  1
 34 33  1  0
 34 35  1  0
 35 36  2  0
 36 37  1  0
 37 38  1  0
 38 34  1  0
 38 39  2  0
 36 40  1  0
 35 41  1  0
 41 42  2  0
 40 43  2  0
 43 42  1  0
  2 44  1  0
  3 45  1  0
 10 46  1  1
 12 47  1  1
 13 48  1  0
 13 49  1  0
 14 50  1  1
 16 51  1  0
 16 52  1  0
 16 53  1  0
 17 54  1  0
 17 55  1  0
 23 56  1  0
 27 57  1  0
 28 58  1  0
 32 59  1  0
 32 60  1  0
 33 61  1  0
 33 62  1  0
 37 63  1  0
 41 64  1  0
 42 65  1  0
 43 66  1  0
M  END
> <Uni-Dock RESULT> 
ENERGY=   -4.000  LOWER_BOUND=    4.208  UPPER_BOUND=    6.092
INTER + INTRA:          -4.000
INTER:                  -4.000
INTRA:                   0.000
UNBOUND:                 0.000

$$$$

     RDKit          3D

 66 71  0  0  0  0  0  0  0  0999 V2000
   29.8673    1.7024   30.0848 C   0  0  0  0  0  0  0  0  0  0  0  0
   30.5372    0.6273   30.6717 C   0  0  0  0  0  0  0  0  0  0  0  0
   31.0785    0.7626   31.9479 C   0  0  0  0  0  0  0  0  0  0  0  0
   30.9402    1.9729   32.6172 C   0  0  0  0  0  0  0  0  0  0  0  0
   30.2699    3.0420   32.0241 C   0  0  0  0  0  0  0  0  0  0  0  0
   29.7173    2.9310   30.7422 C   0  0  0  0  0  0  0  0  0  0  0  0
   29.3479    1.5330   28.8609 F   0  0  0  0  0  0  0  0  0  0  0  0
   31.4558    2.1038   33.8469 F   0  0  0  0  0  0  0  0  0  0  0  0
   30.1589    4.1919   32.7042 F   0  0  0  0  0  0  0  0  0  0  0  0
   28.9734    4.0747   30.0683 C   0  0  1  0  0  0  0  0  0  0  0  0
   27.8981    5.5999   31.7486 N   0  0  0  0  0  0  0  0  0  0  0  0
   27.6471    4.5202   30.7772 C   0  0  2  0  0  0  0  0  0  0  0  0
   29.9359    5.2556   29.7989 C   0  0  0  0  0  0  0  0  0  0  0  0
   29.2353    6.6043   29.9197 C   0  0  1  0  0  0  0  0  0  0  0  0
   28.6153    6.7217   31.3228 C   0  0  0  0  0  0  0  0  0  0  0  0
   26.8460    3.3220   31.3036 C   0  0  0  0  0  0  0  0  0  0  0  0
   27.0592    5.7761   32.9524 C   0  0  0  0  0  0  0  0  0  0  0  0
   25.7177    6.4840   32.7264 C   0  0  0  0  0  0  0  0  0  0  0  0
   25.0342    6.5874   33.8898 F   0  0  0  0  0  0  0  0  0  0  0  0
   24.9376    5.7873   31.8668 F   0  0  0  0  0  0  0  0  0  0  0  0
   25.8594    7.7266   32.2227 F   0  0  0  0  0  0  0  0  0  0  0  0
   28.7196    7.7486   31.9939 O   0  0  0  0  0  0  0  0  0  0  0  0
   30.1571    7.7184   29.7283 N   0  0  0  0  0  0  0  0  0  0  0  0
   30.5500    8.1051   28.4669 C   0  0  0  0  0  0  0  0  0  0  0  0
   30.2246    7.4948   27.4537 O   0  0  0  0  0  0  0  0  0  0  0  0
   31.3593    9.3425   28.3636 C   0  0  0  0  0  0  0  0  0  0  0  0
   31.3537   10.0655   27.1658 C   0  0  0  0  0  0  0  0  0  0  0  0
   32.1478    9.8110   29.4176 C   0  0  0  0  0  0  0  0  0  0  0  0
   32.8922   10.9478   29.3736 N   0  0  0  0  0  0  0  0  0  0  0  0
   32.8571   11.6096   28.2054 C   0  0  0  0  0  0  0  0  0  0  0  0
   32.1177   11.2172   27.0991 C   0  0  0  0  0  0  0  0  0  0  0  0
   32.2517   12.1830   25.9678 C   0  0  0  0  0  0  0  0  0  0  0  0
   33.5807   12.9036   27.9639 C   0  0  0  0  0  0  0  0  0  0  0  0
   33.4101   13.0879   26.4435 C   0  0  2  0  0  0  0  0  0  0  0  0
   33.2589   14.5273   26.0269 C   0  0  0  0  0  0  0  0  0  0  0  0
   34.3111   14.8894   25.1988 C   0  0  0  0  0  0  0  0  0  0  0  0
   35.1570   13.8165   25.0219 N   0  0  0  0  0  0  0  0  0  0  0  0
   34.7193   12.7006   25.7110 C   0  0  0  0  0  0  0  0  0  0  0  0
   35.2748   11.6152   25.7220 O   0  0  0  0  0  0  0  0  0  0  0  0
   34.4909   16.0900   24.6478 N   0  0  0  0  0  0  0  0  0  0  0  0
   32.2927   15.4670   26.3327 C   0  0  0  0  0  0  0  0  0  0  0  0
   32.4381   16.7389   25.7805 C   0  0  0  0  0  0  0  0  0  0  0  0
   33.5360   16.9989   24.9572 C   0  0  0  0  0  0  0  0  0  0  0  0
   30.6298   -0.3081   30.1267 H   0  0  0  0  0  0  0  0  0  0  0  0
   31.6035   -0.0607   32.4225 H   0  0  0  0  0  0  0  0  0  0  0  0
   28.6511    3.7141   29.0806 H   0  0  0  0  0  0  0  0  0  0  0  0
   27.0180    4.9891   30.0064 H   0  0  0  0  0  0  0  0  0  0  0  0
   30.7881    5.2428   30.4915 H   0  0  0  0  0  0  0  0  0  0  0  0
   30.3790    5.1360   28.8019 H   0  0  0  0  0  0  0  0  0  0  0  0
   28.4312    6.7014   29.1802 H   0  0  0  0  0  0  0  0  0  0  0  0
   27.3193    2.8602   32.1756 H   0  0  0  0  0  0  0  0  0  0  0  0
   26.7356    2.5583   30.5262 H   0  0  0  0  0  0  0  0  0  0  0  0
   25.8365    3.6183   31.6017 H   0  0  0  0  0  0  0  0  0  0  0  0
   26.9013    4.8004   33.4205 H   0  0  0  0  0  0  0  0  0  0  0  0
   27.6322    6.3654   33.6781 H   0  0  0  0  0  0  0  0  0  0  0  0
   30.1871    8.3858   30.4948 H   0  0  0  0  0  0  0  0  0  0  0  0
   30.7632    9.7323   26.3170 H   0  0  0  0  0  0  0  0  0  0  0  0
   32.2255    9.2722   30.3575 H   0  0  0  0  0  0  0  0  0  0  0  0
   31.3112   12.7338   25.8540 H   0  0  0  0  0  0  0  0  0  0  0  0
   32.4798   11.6623   25.0314 H   0  0  0  0  0  0  0  0  0  0  0  0
   33.0910   13.6939   28.5430 H   0  0  0  0  0  0  0  0  0  0  0  0
   34.6278   12.8256   28.2738 H   0  0  0  0  0  0  0  0  0  0  0  0
   35.9888   13.8555   24.4553 H   0  0  0  0  0  0  0  0  0  0  0  0
   31.4513   15.2345   26.9775 H   0  0  0  0  0  0  0  0  0  0  0  0
   31.7122   17.5199   25.9845 H   0  0  0  0  0  0  0  0  0  0  0  0
   33.6748   17.9818   24.5136 H   0  0  0  0  0  0  0  0  0  0  0  0
  1  2  2  0
  2  3  1  0
  3  4  2  0
  4  5  1  0
  5  6  2  0
  1  6  1  0
  1  7  1  0
  4  8  1  0
  5  9  1  0
 10  6  1  0
 11 12  1  0
 13 14  1  0
 14 15  1  0
 11 15  1  0
 12 10  1  0
 10 13  1  0
 12 16  1  0
 11 17  1  0
 17 18  1  0
 18 19  1  0
 18 20  1  0
 18 21  1  0
 15 22  2  0
 14 23  1  0
 23 24  1  0
 24 25  2  0
 24 26  1  0
 28 29  1  0
 29 30  2  0
 30 31  1  0
 27 31  2  0
 27 26  1  0
 26 28  2  0
 31 32  1  0
 30 33  1  0
 34 32  1  1
 34 33  1  0
 34 35  1  0
 35 36  2  0
 36 37  1  0
 37 38  1  0
 38 34  1  0
 38 39  2  0
 36 40  1  0
 35 41  1  0
 41 42  2  0
 40 43  2  0
 43 42  1  0
  2 44  1  0
  3 45  1  0
 10 46  1  1
 12 47  1  1
 13 48  1  0
 13 49  1  0
 14 50  1  1
 16 51  1  0
 16 52  1  0
 16 53  1  0
 17 54  1  0
 17 55  1  0
 23 56  1  0
 27 57  1  0
 28 58  1  0
 32 59  1  0
 32 60  1  0
 33 61  1  0
 33 62  1  0
 37 63  1  0
 41 64  1  0
 42 65  1  0
 43 66  1  0
M  END
> <Uni-Dock RESULT> 
ENERGY=   -3.999  LOWER_BOUND=    7.846  UPPER_BOUND=   10.384
INTER + INTRA:          -3.999
INTER:                  -3.999
INTRA:                   0.000
UNBOUND:                 0.000

$$$$

     RDKit          3D

 66 71  0  0  0  0  0  0  0  0999 V2000
   22.7332    6.0258   30.3819 C   0  0  0  0  0  0  0  0  0  0  0  0
   22.7063    4.6717   30.7206 C   0  0  0  0  0  0  0  0  0  0  0  0
   23.7541    4.1211   31.4549 C   0  0  0  0  0  0  0  0  0  0  0  0
   24.8129    4.9355   31.8391 C   0  0  0  0  0  0  0  0  0  0  0  0
   24.8324    6.2870   31.4966 C   0  0  0  0  0  0  0  0  0  0  0  0
   23.7913    6.8639   30.7589 C   0  0  0  0  0  0  0  0  0  0  0  0
   21.7023    6.5250   29.6858 F   0  0  0  0  0  0  0  0  0  0  0  0
   25.8195    4.4091   32.5495 F   0  0  0  0  0  0  0  0  0  0  0  0
   25.8726    7.0371   31.8870 F   0  0  0  0  0  0  0  0  0  0  0  0
   23.7769    8.3361   30.3744 C   0  0  1  0  0  0  0  0  0  0  0  0
   25.0441    9.7392   32.0272 N   0  0  0  0  0  0  0  0  0  0  0  0
   23.6986    9.3409   31.5762 C   0  0  2  0  0  0  0  0  0  0  0  0
   24.9418    8.6488   29.4054 C   0  0  0  0  0  0  0  0  0  0  0  0
   25.4957   10.0543   29.6109 C   0  0  1  0  0  0  0  0  0  0  0  0
   25.9536   10.2025   31.0721 C   0  0  0  0  0  0  0  0  0  0  0  0
   22.7447    8.8513   32.6738 C   0  0  0  0  0  0  0  0  0  0  0  0
   25.3160   10.1178   33.4296 C   0  0  0  0  0  0  0  0  0  0  0  0
   24.9174   11.5466   33.8185 C   0  0  0  0  0  0  0  0  0  0  0  0
   25.2071   11.7823   35.1192 F   0  0  0  0  0  0  0  0  0  0  0  0
   23.5862   11.7401   33.6656 F   0  0  0  0  0  0  0  0  0  0  0  0
   25.5464   12.4848   33.0822 F   0  0  0  0  0  0  0  0  0  0  0  0
   27.0282   10.7274   31.3648 O   0  0  0  0  0  0  0  0  0  0  0  0
   26.6348   10.3255   28.7410 N   0  0  0  0  0  0  0  0  0  0  0  0
   26.4532   10.6574   27.4175 C   0  0  0  0  0  0  0  0  0  0  0  0
   25.3510   10.6600   26.8787 O   0  0  0  0  0  0  0  0  0  0  0  0
   27.6558   11.0699   26.6556 C   0  0  0  0  0  0  0  0  0  0  0  0
   27.5055   11.8872   25.5301 C   0  0  0  0  0  0  0  0  0  0  0  0
   28.9432   10.6578   27.0091 C   0  0  0  0  0  0  0  0  0  0  0  0
   30.0748   11.0240   26.3507 N   0  0  0  0  0  0  0  0  0  0  0  0
   29.8836   11.8084   25.2773 C   0  0  0  0  0  0  0  0  0  0  0  0
   28.6460   12.2572   24.8395 C   0  0  0  0  0  0  0  0  0  0  0  0
   28.7659   13.1470   23.6461 C   0  0  0  0  0  0  0  0  0  0  0  0
   31.0042   12.3498   24.4363 C   0  0  0  0  0  0  0  0  0  0  0  0
   30.2443   12.9554   23.2402 C   0  0  2  0  0  0  0  0  0  0  0  0
   30.8844   14.2040   22.6927 C   0  0  0  0  0  0  0  0  0  0  0  0
   31.2760   13.9934   21.3789 C   0  0  0  0  0  0  0  0  0  0  0  0
   30.9536   12.7101   20.9952 N   0  0  0  0  0  0  0  0  0  0  0  0
   30.3389   12.0097   22.0166 C   0  0  0  0  0  0  0  0  0  0  0  0
   29.9444   10.8582   21.9448 O   0  0  0  0  0  0  0  0  0  0  0  0
   31.8744   14.8877   20.5917 N   0  0  0  0  0  0  0  0  0  0  0  0
   31.1198   15.4360   23.2730 C   0  0  0  0  0  0  0  0  0  0  0  0
   31.7450   16.4048   22.4890 C   0  0  0  0  0  0  0  0  0  0  0  0
   32.0979   16.0891   21.1750 C   0  0  0  0  0  0  0  0  0  0  0  0
   21.8658    4.0580   30.4085 H   0  0  0  0  0  0  0  0  0  0  0  0
   23.7532    3.0705   31.7286 H   0  0  0  0  0  0  0  0  0  0  0  0
   22.8526    8.5134   29.8054 H   0  0  0  0  0  0  0  0  0  0  0  0
   23.2575   10.2694   31.1846 H   0  0  0  0  0  0  0  0  0  0  0  0
   25.7637    7.9301   29.5233 H   0  0  0  0  0  0  0  0  0  0  0  0
   24.5943    8.5154   28.3730 H   0  0  0  0  0  0  0  0  0  0  0  0
   24.7312   10.8152   29.4121 H   0  0  0  0  0  0  0  0  0  0  0  0
   23.1563    8.0036   33.2303 H   0  0  0  0  0  0  0  0  0  0  0  0
   21.7835    8.5482   32.2448 H   0  0  0  0  0  0  0  0  0  0  0  0
   22.5324    9.6423   33.3984 H   0  0  0  0  0  0  0  0  0  0  0  0
   24.8337    9.3937   34.0922 H   0  0  0  0  0  0  0  0  0  0  0  0
   26.3932   10.0100   33.6041 H   0  0  0  0  0  0  0  0  0  0  0  0
   27.4829   10.6122   29.2231 H   0  0  0  0  0  0  0  0  0  0  0  0
   26.5222   12.2228   25.2129 H   0  0  0  0  0  0  0  0  0  0  0  0
   29.1203    9.9905   27.8477 H   0  0  0  0  0  0  0  0  0  0  0  0
   28.5451   14.1781   23.9446 H   0  0  0  0  0  0  0  0  0  0  0  0
   28.0688   12.8432   22.8576 H   0  0  0  0  0  0  0  0  0  0  0  0
   31.5476   13.1031   25.0170 H   0  0  0  0  0  0  0  0  0  0  0  0
   31.6939   11.5499   24.1484 H   0  0  0  0  0  0  0  0  0  0  0  0
   31.1474   12.3418   20.0780 H   0  0  0  0  0  0  0  0  0  0  0  0
   30.8348   15.6503   24.2980 H   0  0  0  0  0  0  0  0  0  0  0  0
   31.9575   17.3914   22.8889 H   0  0  0  0  0  0  0  0  0  0  0  0
   32.5869   16.8249   20.5412 H   0  0  0  0  0  0  0  0  0  0  0  0
  1  2  2  0
  2  3  1  0
  3  4  2  0
  4  5  1  0
  5  6  2  0
  1  6  1  0
  1  7  1  0
  4  8  1  0
  5  9  1  0
 10  6  1  0
 11 12  1  0
 13 14  1  0
 14 15  1  0
 11 15  1  0
 12 10  1  0
 10 13  1  0
 12 16  1  0
 11 17  1  0
 17 18  1  0
 18 19  1  0
 18 20  1  0
 18 21  1  0
 15 22  2  0
 14 23  1  0
 23 24  1  0
 24 25  2  0
 24 26  1  0
 28 29  1  0
 29 30  2  0
 30 31  1  0
 27 31  2  0
 27 26  1  0
 26 28  2  0
 31 32  1  0
 30 33  1  0
 34 32  1  1
 34 33  1  0
 34 35  1  0
 35 36  2  0
 36 37  1  0
 37 38  1  0
 38 34  1  0
 38 39  2  0
 36 40  1  0
 35 41  1  0
 41 42  2  0
 40 43  2  0
 43 42  1  0
  2 44  1  0
  3 45  1  0
 10 46  1  1
 12 47  1  1
 13 48  1  0
 13 49  1  0
 14 50  1  1
 16 51  1  0
 16 52  1  0
 16 53  1  0
 17 54  1  0
 17 55  1  0
 23 56  1  0
 27 57  1  0
 28 58  1  0
 32 59  1  0
 32 60  1  0
 33 61  1  0
 33 62  1  0
 37 63  1  0
 41 64  1  0
 42 65  1  0
 43 66  1  0
M  END
> <Uni-Dock RESULT> 
ENERGY=   -3.878  LOWER_BOUND=    7.781  UPPER_BOUND=   11.279
INTER + INTRA:          -3.878
INTER:                  -3.878
INTRA:                   0.000
UNBOUND:                 0.000

$$$$

     RDKit          3D

 66 71  0  0  0  0  0  0  0  0999 V2000
   29.7222   11.1667   20.9475 C   0  0  0  0  0  0  0  0  0  0  0  0
   29.5465   10.6891   19.6475 C   0  0  0  0  0  0  0  0  0  0  0  0
   28.3044   10.8080   19.0286 C   0  0  0  0  0  0  0  0  0  0  0  0
   27.2570   11.4039   19.7213 C   0  0  0  0  0  0  0  0  0  0  0  0
   27.4406   11.8781   21.0196 C   0  0  0  0  0  0  0  0  0  0  0  0
   28.6795   11.7701   21.6634 C   0  0  0  0  0  0  0  0  0  0  0  0
   30.9342   11.0474   21.5075 F   0  0  0  0  0  0  0  0  0  0  0  0
   26.0626   11.5236   19.1263 F   0  0  0  0  0  0  0  0  0  0  0  0
   26.4042   12.4462   21.6522 F   0  0  0  0  0  0  0  0  0  0  0  0
   28.9167   12.2833   23.0762 C   0  0  1  0  0  0  0  0  0  0  0  0
   27.3998   14.2059   23.6319 N   0  0  0  0  0  0  0  0  0  0  0  0
   28.7761   13.8349   23.2570 C   0  0  2  0  0  0  0  0  0  0  0  0
   28.0645   11.4814   24.0882 C   0  0  0  0  0  0  0  0  0  0  0  0
   27.5996   12.3445   25.2559 C   0  0  1  0  0  0  0  0  0  0  0  0
   26.8033   13.5409   24.7071 C   0  0  0  0  0  0  0  0  0  0  0  0
   29.3774   14.6082   22.0759 C   0  0  0  0  0  0  0  0  0  0  0  0
   26.8174   15.5135   23.2649 C   0  0  0  0  0  0  0  0  0  0  0  0
   27.2266   16.6935   24.1548 C   0  0  0  0  0  0  0  0  0  0  0  0
   26.6403   17.8357   23.7270 F   0  0  0  0  0  0  0  0  0  0  0  0
   28.5650   16.8935   24.1142 F   0  0  0  0  0  0  0  0  0  0  0  0
   26.8862   16.5175   25.4474 F   0  0  0  0  0  0  0  0  0  0  0  0
   25.7388   13.8980   25.2125 O   0  0  0  0  0  0  0  0  0  0  0  0
   26.7439   11.6041   26.1763 N   0  0  0  0  0  0  0  0  0  0  0  0
   27.2805   10.7432   27.1067 C   0  0  0  0  0  0  0  0  0  0  0  0
   28.4788   10.4856   27.1597 O   0  0  0  0  0  0  0  0  0  0  0  0
   26.3484   10.1593   28.1003 C   0  0  0  0  0  0  0  0  0  0  0  0
   26.8468    9.7259   29.3336 C   0  0  0  0  0  0  0  0  0  0  0  0
   24.9830   10.0073   27.8461 C   0  0  0  0  0  0  0  0  0  0  0  0
   24.0893    9.4931   28.7322 N   0  0  0  0  0  0  0  0  0  0  0  0
   24.6112    9.0903   29.9023 C   0  0  0  0  0  0  0  0  0  0  0  0
   25.9530    9.1862   30.2416 C   0  0  0  0  0  0  0  0  0  0  0  0
   26.2143    8.6943   31.6273 C   0  0  0  0  0  0  0  0  0  0  0  0
   23.7892    8.5275   31.0265 C   0  0  0  0  0  0  0  0  0  0  0  0
   24.8748    8.0172   31.9938 C   0  0  2  0  0  0  0  0  0  0  0  0
   24.5029    8.1665   33.4457 C   0  0  0  0  0  0  0  0  0  0  0  0
   24.4378    6.9171   34.0445 C   0  0  0  0  0  0  0  0  0  0  0  0
   24.7349    5.9398   33.1200 N   0  0  0  0  0  0  0  0  0  0  0  0
   25.0102    6.4782   31.8766 C   0  0  0  0  0  0  0  0  0  0  0  0
   25.3096    5.8398   30.8818 O   0  0  0  0  0  0  0  0  0  0  0  0
   24.1361    6.6802   35.3213 N   0  0  0  0  0  0  0  0  0  0  0  0
   24.2358    9.2890   34.2063 C   0  0  0  0  0  0  0  0  0  0  0  0
   23.9138    9.0921   35.5485 C   0  0  0  0  0  0  0  0  0  0  0  0
   23.8771    7.7900   36.0527 C   0  0  0  0  0  0  0  0  0  0  0  0
   30.3825   10.2286   19.1283 H   0  0  0  0  0  0  0  0  0  0  0  0
   28.1460   10.4431   18.0185 H   0  0  0  0  0  0  0  0  0  0  0  0
   29.9662   12.0699   23.3264 H   0  0  0  0  0  0  0  0  0  0  0  0
   29.3797   14.1074   24.1352 H   0  0  0  0  0  0  0  0  0  0  0  0
   27.1807   11.0417   23.6069 H   0  0  0  0  0  0  0  0  0  0  0  0
   28.6479   10.6238   24.4472 H   0  0  0  0  0  0  0  0  0  0  0  0
   28.4521   12.7325   25.8266 H   0  0  0  0  0  0  0  0  0  0  0  0
   28.7676   14.5197   21.1714 H   0  0  0  0  0  0  0  0  0  0  0  0
   30.3859   14.2460   21.8488 H   0  0  0  0  0  0  0  0  0  0  0  0
   29.4677   15.6741   22.3028 H   0  0  0  0  0  0  0  0  0  0  0  0
   27.0532   15.7255   22.2182 H   0  0  0  0  0  0  0  0  0  0  0  0
   25.7258   15.4202   23.3112 H   0  0  0  0  0  0  0  0  0  0  0  0
   25.8296   12.0187   26.3381 H   0  0  0  0  0  0  0  0  0  0  0  0
   27.9034    9.8153   29.5697 H   0  0  0  0  0  0  0  0  0  0  0  0
   24.5438   10.2870   26.8928 H   0  0  0  0  0  0  0  0  0  0  0  0
   26.4407    9.5495   32.2741 H   0  0  0  0  0  0  0  0  0  0  0  0
   27.0586    7.9966   31.6441 H   0  0  0  0  0  0  0  0  0  0  0  0
   23.1840    9.3326   31.4571 H   0  0  0  0  0  0  0  0  0  0  0  0
   23.1280    7.7341   30.6634 H   0  0  0  0  0  0  0  0  0  0  0  0
   24.7473    4.9568   33.3389 H   0  0  0  0  0  0  0  0  0  0  0  0
   24.2710   10.2884   33.7846 H   0  0  0  0  0  0  0  0  0  0  0  0
   23.6931    9.9344   36.1967 H   0  0  0  0  0  0  0  0  0  0  0  0
   23.6284    7.6069   37.0952 H   0  0  0  0  0  0  0  0  0  0  0  0
  1  2  2  0
  2  3  1  0
  3  4  2  0
  4  5  1  0
  5  6  2  0
  1  6  1  0
  1  7  1  0
  4  8  1  0
  5  9  1  0
 10  6  1  0
 11 12  1  0
 13 14  1  0
 14 15  1  0
 11 15  1  0
 12 10  1  0
 10 13  1  0
 12 16  1  0
 11 17  1  0
 17 18  1  0
 18 19  1  0
 18 20  1  0
 18 21  1  0
 15 22  2  0
 14 23  1  0
 23 24  1  0
 24 25  2  0
 24 26  1  0
 28 29  1  0
 29 30  2  0
 30 31  1  0
 27 31  2  0
 27 26  1  0
 26 28  2  0
 31 32  1  0
 30 33  1  0
 34 32  1  1
 34 33  1  0
 34 35  1  0
 35 36  2  0
 36 37  1  0
 37 38  1  0
 38 34  1  0
 38 39  2  0
 36 40  1  0
 35 41  1  0
 41 42  2  0
 40 43  2  0
 43 42  1  0
  2 44  1  0
  3 45  1  0
 10 46  1  1
 12 47  1  1
 13 48  1  0
 13 49  1  0
 14 50  1  1
 16 51  1  0
 16 52  1  0
 16 53  1  0
 17 54  1  0
 17 55  1  0
 23 56  1  0
 27 57  1  0
 28 58  1  0
 32 59  1  0
 32 60  1  0
 33 61  1  0
 33 62  1  0
 37 63  1  0
 41 64  1  0
 42 65  1  0
 43 66  1  0
M  END
> <Uni-Dock RESULT> 
ENERGY=   -3.807  LOWER_BOUND=    6.912  UPPER_BOUND=    8.554
INTER + INTRA:          -3.807
INTER:                  -3.807
INTRA:                   0.000
UNBOUND:                 0.000

$$$$
