
     RDKit          3D

 66 71  0  0  0  0  0  0  0  0999 V2000
   31.4458   11.4903   18.5523 C   0  0  0  0  0  0  0  0  0  0  0  0
   31.9394   10.2964   18.0236 C   0  0  0  0  0  0  0  0  0  0  0  0
   31.3241    9.0911   18.3488 C   0  0  0  0  0  0  0  0  0  0  0  0
   30.2234    9.1018   19.1966 C   0  0  0  0  0  0  0  0  0  0  0  0
   29.7358   10.3002   19.7181 C   0  0  0  0  0  0  0  0  0  0  0  0
   30.3370   11.5262   19.4112 C   0  0  0  0  0  0  0  0  0  0  0  0
   32.0578   12.6334   18.2108 F   0  0  0  0  0  0  0  0  0  0  0  0
   29.6322    7.9422   19.5146 F   0  0  0  0  0  0  0  0  0  0  0  0
   28.6711   10.2596   20.5305 F   0  0  0  0  0  0  0  0  0  0  0  0
   29.8415   12.8625   19.9490 C   0  0  1  0  0  0  0  0  0  0  0  0
   27.3885   12.8223   19.4693 N   0  0  0  0  0  0  0  0  0  0  0  0
   28.6632   13.4783   19.1342 C   0  0  2  0  0  0  0  0  0  0  0  0
   29.5252   12.8221   21.4656 C   0  0  0  0  0  0  0  0  0  0  0  0
   28.0799   13.1932   21.8163 C   0  0  1  0  0  0  0  0  0  0  0  0
   27.0676   12.6186   20.8086 C   0  0  0  0  0  0  0  0  0  0  0  0
   28.9789   13.6227   17.6424 C   0  0  0  0  0  0  0  0  0  0  0  0
   26.4178   12.3715   18.4488 C   0  0  0  0  0  0  0  0  0  0  0  0
   26.5377   10.9142   17.9942 C   0  0  0  0  0  0  0  0  0  0  0  0
   25.5959   10.6396   17.0591 F   0  0  0  0  0  0  0  0  0  0  0  0
   26.3778   10.0346   19.0013 F   0  0  0  0  0  0  0  0  0  0  0  0
   27.7402   10.6764   17.4209 F   0  0  0  0  0  0  0  0  0  0  0  0
   26.0238   12.0770   21.1732 O   0  0  0  0  0  0  0  0  0  0  0  0
   27.7082   12.7355   23.1509 N   0  0  0  0  0  0  0  0  0  0  0  0
   28.1685   13.3628   24.2850 C   0  0  0  0  0  0  0  0  0  0  0  0
   28.9829   14.2788   24.2537 O   0  0  0  0  0  0  0  0  0  0  0  0
   27.6148   12.8996   25.5802 C   0  0  0  0  0  0  0  0  0  0  0  0
   27.0164   11.6469   25.7579 C   0  0  0  0  0  0  0  0  0  0  0  0
   27.7165   13.7511   26.6860 C   0  0  0  0  0  0  0  0  0  0  0  0
   27.2494   13.4589   27.9296 N   0  0  0  0  0  0  0  0  0  0  0  0
   26.6710   12.2551   28.0519 C   0  0  0  0  0  0  0  0  0  0  0  0
   26.5448   11.3323   27.0210 C   0  0  0  0  0  0  0  0  0  0  0  0
   25.8585   10.0871   27.4841 C   0  0  0  0  0  0  0  0  0  0  0  0
   26.0659   11.7425   29.3298 C   0  0  0  0  0  0  0  0  0  0  0  0
   25.9308   10.2394   29.0207 C   0  0  2  0  0  0  0  0  0  0  0  0
   27.0152    9.3997   29.6523 C   0  0  0  0  0  0  0  0  0  0  0  0
   26.4397    8.4833   30.5211 C   0  0  0  0  0  0  0  0  0  0  0  0
   25.0700    8.6413   30.5276 N   0  0  0  0  0  0  0  0  0  0  0  0
   24.6674    9.6562   29.6799 C   0  0  0  0  0  0  0  0  0  0  0  0
   23.5158   10.0108   29.4927 O   0  0  0  0  0  0  0  0  0  0  0  0
   27.0975    7.5814   31.2496 N   0  0  0  0  0  0  0  0  0  0  0  0
   28.3889    9.4146   29.5059 C   0  0  0  0  0  0  0  0  0  0  0  0
   29.1212    8.4903   30.2497 C   0  0  0  0  0  0  0  0  0  0  0  0
   28.4424    7.6081   31.0936 C   0  0  0  0  0  0  0  0  0  0  0  0
   32.8002   10.3183   17.3613 H   0  0  0  0  0  0  0  0  0  0  0  0
   31.6896    8.1501   17.9502 H   0  0  0  0  0  0  0  0  0  0  0  0
   30.6830   13.5642   19.8514 H   0  0  0  0  0  0  0  0  0  0  0  0
   28.5403   14.5081   19.5012 H   0  0  0  0  0  0  0  0  0  0  0  0
   29.7902   11.8557   21.9115 H   0  0  0  0  0  0  0  0  0  0  0  0
   30.1891   13.5376   21.9703 H   0  0  0  0  0  0  0  0  0  0  0  0
   27.9615   14.2845   21.8018 H   0  0  0  0  0  0  0  0  0  0  0  0
   29.9449   14.1189   17.4992 H   0  0  0  0  0  0  0  0  0  0  0  0
   29.0117   12.6602   17.1261 H   0  0  0  0  0  0  0  0  0  0  0  0
   28.2289   14.2448   17.1428 H   0  0  0  0  0  0  0  0  0  0  0  0
   26.4646   13.0405   17.5859 H   0  0  0  0  0  0  0  0  0  0  0  0
   25.4112   12.5029   18.8639 H   0  0  0  0  0  0  0  0  0  0  0  0
   26.8713   12.1602   23.1893 H   0  0  0  0  0  0  0  0  0  0  0  0
   26.9344   10.9267   24.9517 H   0  0  0  0  0  0  0  0  0  0  0  0
   28.1855   14.7291   26.5979 H   0  0  0  0  0  0  0  0  0  0  0  0
   26.3750    9.1919   27.1218 H   0  0  0  0  0  0  0  0  0  0  0  0
   24.8273   10.0827   27.1136 H   0  0  0  0  0  0  0  0  0  0  0  0
   25.0963   12.2281   29.4846 H   0  0  0  0  0  0  0  0  0  0  0  0
   26.7161   11.9541   30.1847 H   0  0  0  0  0  0  0  0  0  0  0  0
   24.4534    8.0815   31.0941 H   0  0  0  0  0  0  0  0  0  0  0  0
   28.8892   10.1162   28.8458 H   0  0  0  0  0  0  0  0  0  0  0  0
   30.2036    8.4543   30.1794 H   0  0  0  0  0  0  0  0  0  0  0  0
   28.9889    6.8778   31.6851 H   0  0  0  0  0  0  0  0  0  0  0  0
  1  2  2  0
  2  3  1  0
  3  4  2  0
  4  5  1  0
  5  6  2  0
  1  6  1  0
  1  7  1  0
  4  8  1  0
  5  9  1  0
 10  6  1  0
 11 12  1  0
 13 14  1  0
 14 15  1  0
 11 15  1  0
 12 10  1  0
 10 13  1  0
 12 16  1  0
 11 17  1  0
 17 18  1  0
 18 19  1  0
 18 20  1  0
 18 21  1  0
 15 22  2  0
 14 23  1  0
 23 24  1  0
 24 25  2  0
 24 26  1  0
 28 29  1  0
 29 30  2  0
 30 31  1  0
 27 31  2  0
 27 26  1  0
 26 28  2  0
 31 32  1  0
 30 33  1  0
 34 32  1  1
 34 33  1  0
 34 35  1  0
 35 36  2  0
 36 37  1  0
 37 38  1  0
 38 34  1  0
 38 39  2  0
 36 40  1  0
 35 41  1  0
 41 42  2  0
 40 43  2  0
 43 42  1  0
  2 44  1  0
  3 45  1  0
 10 46  1  1
 12 47  1  1
 13 48  1  0
 13 49  1  0
 14 50  1  1
 16 51  1  0
 16 52  1  0
 16 53  1  0
 17 54  1  0
 17 55  1  0
 23 56  1  0
 27 57  1  0
 28 58  1  0
 32 59  1  0
 32 60  1  0
 33 61  1  0
 33 62  1  0
 37 63  1  0
 41 64  1  0
 42 65  1  0
 43 66  1  0
M  END
> <Uni-Dock RESULT> 
ENERGY=   -4.327  LOWER_BOUND=    0.000  UPPER_BOUND=    0.000
INTER + INTRA:          -4.327
INTER:                  -4.327
INTRA:                   0.000
UNBOUND:                 0.000

$$$$

     RDKit          3D

 66 71  0  0  0  0  0  0  0  0999 V2000
   31.4261   11.4159   18.6262 C   0  0  0  0  0  0  0  0  0  0  0  0
   31.8921   10.2146   18.0893 C   0  0  0  0  0  0  0  0  0  0  0  0
   31.2476    9.0219   18.4042 C   0  0  0  0  0  0  0  0  0  0  0  0
   30.1458    9.0524   19.2501 C   0  0  0  0  0  0  0  0  0  0  0  0
   29.6859   10.2582   19.7798 C   0  0  0  0  0  0  0  0  0  0  0  0
   30.3168   11.4718   19.4833 C   0  0  0  0  0  0  0  0  0  0  0  0
   32.0658   12.5466   18.2945 F   0  0  0  0  0  0  0  0  0  0  0  0
   29.5265    7.9049   19.5582 F   0  0  0  0  0  0  0  0  0  0  0  0
   28.6189   10.2368   20.5900 F   0  0  0  0  0  0  0  0  0  0  0  0
   29.8521   12.8153   20.0304 C   0  0  1  0  0  0  0  0  0  0  0  0
   27.3999   12.8372   19.5460 N   0  0  0  0  0  0  0  0  0  0  0  0
   28.6905   13.4653   19.2182 C   0  0  2  0  0  0  0  0  0  0  0  0
   29.5319   12.7711   21.5461 C   0  0  0  0  0  0  0  0  0  0  0  0
   28.0952   13.1739   21.8970 C   0  0  1  0  0  0  0  0  0  0  0  0
   27.0715   12.6312   20.8832 C   0  0  0  0  0  0  0  0  0  0  0  0
   29.0125   13.6134   17.7281 C   0  0  0  0  0  0  0  0  0  0  0  0
   26.4206   12.4175   18.5203 C   0  0  0  0  0  0  0  0  0  0  0  0
   26.5068   10.9612   18.0550 C   0  0  0  0  0  0  0  0  0  0  0  0
   25.5605   10.7162   17.1160 F   0  0  0  0  0  0  0  0  0  0  0  0
   26.3239   10.0781   19.0551 F   0  0  0  0  0  0  0  0  0  0  0  0
   27.7044   10.6991   17.4820 F   0  0  0  0  0  0  0  0  0  0  0  0
   26.0144   12.1119   21.2417 O   0  0  0  0  0  0  0  0  0  0  0  0
   27.7101   12.7150   23.2275 N   0  0  0  0  0  0  0  0  0  0  0  0
   28.1830   13.3226   24.3671 C   0  0  0  0  0  0  0  0  0  0  0  0
   29.0190   14.2192   24.3442 O   0  0  0  0  0  0  0  0  0  0  0  0
   27.6158   12.8630   25.6578 C   0  0  0  0  0  0  0  0  0  0  0  0
   26.9874   11.6236   25.8248 C   0  0  0  0  0  0  0  0  0  0  0  0
   27.7356   13.7034   26.7702 C   0  0  0  0  0  0  0  0  0  0  0  0
   27.2592   13.4130   28.0107 N   0  0  0  0  0  0  0  0  0  0  0  0
   26.6521   12.2224   28.1228 C   0  0  0  0  0  0  0  0  0  0  0  0
   26.5060   11.3107   27.0847 C   0  0  0  0  0  0  0  0  0  0  0  0
   25.7892   10.0788   27.5370 C   0  0  0  0  0  0  0  0  0  0  0  0
   26.0324   11.7148   29.3956 C   0  0  0  0  0  0  0  0  0  0  0  0
   25.8621   10.2178   29.0748 C   0  0  2  0  0  0  0  0  0  0  0  0
   26.9249    9.3477   29.7021 C   0  0  0  0  0  0  0  0  0  0  0  0
   26.3260    8.4387   30.5627 C   0  0  0  0  0  0  0  0  0  0  0  0
   24.9605    8.6292   30.5681 N   0  0  0  0  0  0  0  0  0  0  0  0
   24.5839    9.6598   29.7273 C   0  0  0  0  0  0  0  0  0  0  0  0
   23.4414   10.0432   29.5407 O   0  0  0  0  0  0  0  0  0  0  0  0
   26.9608    7.5159   31.2856 N   0  0  0  0  0  0  0  0  0  0  0  0
   28.2990    9.3309   29.5582 C   0  0  0  0  0  0  0  0  0  0  0  0
   29.0075    8.3838   30.2962 C   0  0  0  0  0  0  0  0  0  0  0  0
   28.3062    7.5117   31.1322 C   0  0  0  0  0  0  0  0  0  0  0  0
   32.7544   10.2210   17.4288 H   0  0  0  0  0  0  0  0  0  0  0  0
   31.5914    8.0755   17.9992 H   0  0  0  0  0  0  0  0  0  0  0  0
   30.7103   13.4975   19.9397 H   0  0  0  0  0  0  0  0  0  0  0  0
   28.5914   14.4949   19.5928 H   0  0  0  0  0  0  0  0  0  0  0  0
   29.7729   11.7953   21.9851 H   0  0  0  0  0  0  0  0  0  0  0  0
   30.2117   13.4666   22.0574 H   0  0  0  0  0  0  0  0  0  0  0  0
   28.0029   14.2678   21.8906 H   0  0  0  0  0  0  0  0  0  0  0  0
   29.9903   14.0874   17.5904 H   0  0  0  0  0  0  0  0  0  0  0  0
   29.0233   12.6543   17.2046 H   0  0  0  0  0  0  0  0  0  0  0  0
   28.2785   14.2569   17.2319 H   0  0  0  0  0  0  0  0  0  0  0  0
   26.4851   13.0917   17.6627 H   0  0  0  0  0  0  0  0  0  0  0  0
   25.4167   12.5697   18.9347 H   0  0  0  0  0  0  0  0  0  0  0  0
   26.8597   12.1596   23.2600 H   0  0  0  0  0  0  0  0  0  0  0  0
   26.8899   10.9116   25.0130 H   0  0  0  0  0  0  0  0  0  0  0  0
   28.2279   14.6706   26.6903 H   0  0  0  0  0  0  0  0  0  0  0  0
   26.2850    9.1743   27.1688 H   0  0  0  0  0  0  0  0  0  0  0  0
   24.7590   10.1018   27.1646 H   0  0  0  0  0  0  0  0  0  0  0  0
   25.0744   12.2222   29.5523 H   0  0  0  0  0  0  0  0  0  0  0  0
   26.6858   11.9044   30.2533 H   0  0  0  0  0  0  0  0  0  0  0  0
   24.3296    8.0800   31.1292 H   0  0  0  0  0  0  0  0  0  0  0  0
   28.8171   10.0254   28.9043 H   0  0  0  0  0  0  0  0  0  0  0  0
   30.0889    8.3225   30.2276 H   0  0  0  0  0  0  0  0  0  0  0  0
   28.8340    6.7641   31.7191 H   0  0  0  0  0  0  0  0  0  0  0  0
  1  2  2  0
  2  3  1  0
  3  4  2  0
  4  5  1  0
  5  6  2  0
  1  6  1  0
  1  7  1  0
  4  8  1  0
  5  9  1  0
 10  6  1  0
 11 12  1  0
 13 14  1  0
 14 15  1  0
 11 15  1  0
 12 10  1  0
 10 13  1  0
 12 16  1  0
 11 17  1  0
 17 18  1  0
 18 19  1  0
 18 20  1  0
 18 21  1  0
 15 22  2  0
 14 23  1  0
 23 24  1  0
 24 25  2  0
 24 26  1  0
 28 29  1  0
 29 30  2  0
 30 31  1  0
 27 31  2  0
 27 26  1  0
 26 28  2  0
 31 32  1  0
 30 33  1  0
 34 32  1  1
 34 33  1  0
 34 35  1  0
 35 36  2  0
 36 37  1  0
 37 38  1  0
 38 34  1  0
 38 39  2  0
 36 40  1  0
 35 41  1  0
 41 42  2  0
 40 43  2  0
 43 42  1  0
  2 44  1  0
  3 45  1  0
 10 46  1  1
 12 47  1  1
 13 48  1  0
 13 49  1  0
 14 50  1  1
 16 51  1  0
 16 52  1  0
 16 53  1  0
 17 54  1  0
 17 55  1  0
 23 56  1  0
 27 57  1  0
 28 58  1  0
 32 59  1  0
 32 60  1  0
 33 61  1  0
 33 62  1  0
 37 63  1  0
 41 64  1  0
 42 65  1  0
 43 66  1  0
M  END
> <Uni-Dock RESULT> 
ENERGY=   -4.312  LOWER_BOUND=    0.103  UPPER_BOUND=    0.103
INTER + INTRA:          -4.312
INTER:                  -4.312
INTRA:                   0.000
UNBOUND:                 0.000

$$$$

     RDKit          3D

 66 71  0  0  0  0  0  0  0  0999 V2000
   31.5720   11.7843   18.4289 C   0  0  0  0  0  0  0  0  0  0  0  0
   31.7619   10.6918   17.5809 C   0  0  0  0  0  0  0  0  0  0  0  0
   31.3452    9.4259   17.9822 C   0  0  0  0  0  0  0  0  0  0  0  0
   30.7436    9.2755   19.2255 C   0  0  0  0  0  0  0  0  0  0  0  0
   30.5558   10.3737   20.0651 C   0  0  0  0  0  0  0  0  0  0  0  0
   30.9683   11.6571   19.6890 C   0  0  0  0  0  0  0  0  0  0  0  0
   31.9776   12.9903   18.0062 F   0  0  0  0  0  0  0  0  0  0  0  0
   30.3457    8.0571   19.6159 F   0  0  0  0  0  0  0  0  0  0  0  0
   29.9698   10.1786   21.2541 F   0  0  0  0  0  0  0  0  0  0  0  0
   30.7824   12.8893   20.5650 C   0  0  1  0  0  0  0  0  0  0  0  0
   28.3754   12.7855   21.2317 N   0  0  0  0  0  0  0  0  0  0  0  0
   29.3704   13.5416   20.4534 C   0  0  2  0  0  0  0  0  0  0  0  0
   31.1814   12.6446   22.0423 C   0  0  0  0  0  0  0  0  0  0  0  0
   30.0525   12.8959   23.0483 C   0  0  1  0  0  0  0  0  0  0  0  0
   28.6889   12.4008   22.5325 C   0  0  0  0  0  0  0  0  0  0  0  0
   28.9831   13.8862   19.0122 C   0  0  0  0  0  0  0  0  0  0  0  0
   27.0445   12.4168   20.7028 C   0  0  0  0  0  0  0  0  0  0  0  0
   26.9312   11.0353   20.0521 C   0  0  0  0  0  0  0  0  0  0  0  0
   25.6665   10.8321   19.6092 F   0  0  0  0  0  0  0  0  0  0  0  0
   27.2315   10.0304   20.8966 F   0  0  0  0  0  0  0  0  0  0  0  0
   27.7447   10.9316   18.9756 F   0  0  0  0  0  0  0  0  0  0  0  0
   27.9146   11.7661   23.2491 O   0  0  0  0  0  0  0  0  0  0  0  0
   30.3156   12.2574   24.3336 N   0  0  0  0  0  0  0  0  0  0  0  0
   31.2436   12.7611   25.2148 C   0  0  0  0  0  0  0  0  0  0  0  0
   31.9669   13.7138   24.9456 O   0  0  0  0  0  0  0  0  0  0  0  0
   31.3264   12.1130   26.5459 C   0  0  0  0  0  0  0  0  0  0  0  0
   30.8580   10.8194   26.8029 C   0  0  0  0  0  0  0  0  0  0  0  0
   31.9239   12.8243   27.5924 C   0  0  0  0  0  0  0  0  0  0  0  0
   32.0628   12.3564   28.8620 N   0  0  0  0  0  0  0  0  0  0  0  0
   31.5880   11.1191   29.0676 C   0  0  0  0  0  0  0  0  0  0  0  0
   31.0014   10.3266   28.0888 C   0  0  0  0  0  0  0  0  0  0  0  0
   30.5830    9.0005   28.6385 C   0  0  0  0  0  0  0  0  0  0  0  0
   31.6164   10.4217   30.3998 C   0  0  0  0  0  0  0  0  0  0  0  0
   31.3402    8.9639   29.9856 C   0  0  2  0  0  0  0  0  0  0  0  0
   32.5835    8.1078   29.9472 C   0  0  0  0  0  0  0  0  0  0  0  0
   32.4500    7.0626   30.8502 C   0  0  0  0  0  0  0  0  0  0  0  0
   31.2315    7.1492   31.4894 N   0  0  0  0  0  0  0  0  0  0  0  0
   30.5019    8.2401   31.0554 C   0  0  0  0  0  0  0  0  0  0  0  0
   29.3931    8.5568   31.4520 O   0  0  0  0  0  0  0  0  0  0  0  0
   33.3553    6.1113   31.0799 N   0  0  0  0  0  0  0  0  0  0  0  0
   33.7447    8.2100   29.2056 C   0  0  0  0  0  0  0  0  0  0  0  0
   34.7230    7.2385   29.4125 C   0  0  0  0  0  0  0  0  0  0  0  0
   34.4865    6.2250   30.3443 C   0  0  0  0  0  0  0  0  0  0  0  0
   32.2330   10.8394   16.6133 H   0  0  0  0  0  0  0  0  0  0  0  0
   31.4821    8.5615   17.3404 H   0  0  0  0  0  0  0  0  0  0  0  0
   31.4978   13.6392   20.1964 H   0  0  0  0  0  0  0  0  0  0  0  0
   29.4370   14.5101   20.9708 H   0  0  0  0  0  0  0  0  0  0  0  0
   31.6079   11.6448   22.1889 H   0  0  0  0  0  0  0  0  0  0  0  0
   32.0092   13.3242   22.2877 H   0  0  0  0  0  0  0  0  0  0  0  0
   29.9522   13.9731   23.2344 H   0  0  0  0  0  0  0  0  0  0  0  0
   29.7869   14.4444   18.5201 H   0  0  0  0  0  0  0  0  0  0  0  0
   28.7696   12.9984   18.4121 H   0  0  0  0  0  0  0  0  0  0  0  0
   28.0954   14.5270   18.9888 H   0  0  0  0  0  0  0  0  0  0  0  0
   26.7057   13.1895   20.0082 H   0  0  0  0  0  0  0  0  0  0  0  0
   26.3337   12.4447   21.5375 H   0  0  0  0  0  0  0  0  0  0  0  0
   29.5791   11.6404   24.6646 H   0  0  0  0  0  0  0  0  0  0  0  0
   30.4143   10.2019   26.0301 H   0  0  0  0  0  0  0  0  0  0  0  0
   32.3140   13.8280   27.4357 H   0  0  0  0  0  0  0  0  0  0  0  0
   30.8714    8.1845   27.9674 H   0  0  0  0  0  0  0  0  0  0  0  0
   29.4953    8.9902   28.7712 H   0  0  0  0  0  0  0  0  0  0  0  0
   30.8255   10.8348   31.0351 H   0  0  0  0  0  0  0  0  0  0  0  0
   32.5840   10.5578   30.8936 H   0  0  0  0  0  0  0  0  0  0  0  0
   30.9293    6.4929   32.1912 H   0  0  0  0  0  0  0  0  0  0  0  0
   33.9025    9.0127   28.4920 H   0  0  0  0  0  0  0  0  0  0  0  0
   35.6577    7.2661   28.8616 H   0  0  0  0  0  0  0  0  0  0  0  0
   35.2326    5.4553   30.5254 H   0  0  0  0  0  0  0  0  0  0  0  0
  1  2  2  0
  2  3  1  0
  3  4  2  0
  4  5  1  0
  5  6  2  0
  1  6  1  0
  1  7  1  0
  4  8  1  0
  5  9  1  0
 10  6  1  0
 11 12  1  0
 13 14  1  0
 14 15  1  0
 11 15  1  0
 12 10  1  0
 10 13  1  0
 12 16  1  0
 11 17  1  0
 17 18  1  0
 18 19  1  0
 18 20  1  0
 18 21  1  0
 15 22  2  0
 14 23  1  0
 23 24  1  0
 24 25  2  0
 24 26  1  0
 28 29  1  0
 29 30  2  0
 30 31  1  0
 27 31  2  0
 27 26  1  0
 26 28  2  0
 31 32  1  0
 30 33  1  0
 34 32  1  1
 34 33  1  0
 34 35  1  0
 35 36  2  0
 36 37  1  0
 37 38  1  0
 38 34  1  0
 38 39  2  0
 36 40  1  0
 35 41  1  0
 41 42  2  0
 40 43  2  0
 43 42  1  0
  2 44  1  0
  3 45  1  0
 10 46  1  1
 12 47  1  1
 13 48  1  0
 13 49  1  0
 14 50  1  1
 16 51  1  0
 16 52  1  0
 16 53  1  0
 17 54  1  0
 17 55  1  0
 23 56  1  0
 27 57  1  0
 28 58  1  0
 32 59  1  0
 32 60  1  0
 33 61  1  0
 33 62  1  0
 37 63  1  0
 41 64  1  0
 42 65  1  0
 43 66  1  0
M  END
> <Uni-Dock RESULT> 
ENERGY=   -4.261  LOWER_BOUND=    3.122  UPPER_BOUND=    3.856
INTER + INTRA:          -4.261
INTER:                  -4.261
INTRA:                   0.000
UNBOUND:                 0.000

$$$$

     RDKit          3D

 66 71  0  0  0  0  0  0  0  0999 V2000
   31.6174   11.5249   18.5759 C   0  0  0  0  0  0  0  0  0  0  0  0
   31.7847   10.3969   17.7707 C   0  0  0  0  0  0  0  0  0  0  0  0
   31.1790    9.1964   18.1300 C   0  0  0  0  0  0  0  0  0  0  0  0
   30.4142    9.1461   19.2888 C   0  0  0  0  0  0  0  0  0  0  0  0
   30.2508   10.2793   20.0859 C   0  0  0  0  0  0  0  0  0  0  0  0
   30.8513   11.4982   19.7509 C   0  0  0  0  0  0  0  0  0  0  0  0
   32.2081   12.6666   18.1947 F   0  0  0  0  0  0  0  0  0  0  0  0
   29.8338    7.9904   19.6391 F   0  0  0  0  0  0  0  0  0  0  0  0
   29.5030   10.1815   21.1934 F   0  0  0  0  0  0  0  0  0  0  0  0
   30.7004   12.7653   20.5828 C   0  0  1  0  0  0  0  0  0  0  0  0
   28.2333   12.9496   20.9411 N   0  0  0  0  0  0  0  0  0  0  0  0
   29.3975   13.5691   20.2866 C   0  0  2  0  0  0  0  0  0  0  0  0
   30.8820   12.5148   22.1014 C   0  0  0  0  0  0  0  0  0  0  0  0
   29.6731   12.9167   22.9537 C   0  0  1  0  0  0  0  0  0  0  0  0
   28.3364   12.5652   22.2753 C   0  0  0  0  0  0  0  0  0  0  0  0
   29.2344   13.9186   18.8043 C   0  0  0  0  0  0  0  0  0  0  0  0
   26.9451   12.7197   20.2523 C   0  0  0  0  0  0  0  0  0  0  0  0
   26.7558   11.3436   19.6077 C   0  0  0  0  0  0  0  0  0  0  0  0
   25.5411   11.2728   19.0107 F   0  0  0  0  0  0  0  0  0  0  0  0
   26.8316   10.3330   20.4943 F   0  0  0  0  0  0  0  0  0  0  0  0
   27.6795   11.1220   18.6438 F   0  0  0  0  0  0  0  0  0  0  0  0
   27.4114   12.0399   22.8951 O   0  0  0  0  0  0  0  0  0  0  0  0
   29.6994   12.2854   24.2689 N   0  0  0  0  0  0  0  0  0  0  0  0
   30.5622   12.7037   25.2548 C   0  0  0  0  0  0  0  0  0  0  0  0
   31.4179   13.5620   25.0688 O   0  0  0  0  0  0  0  0  0  0  0  0
   30.4041   12.0843   26.5927 C   0  0  0  0  0  0  0  0  0  0  0  0
   29.7621   10.8584   26.8026 C   0  0  0  0  0  0  0  0  0  0  0  0
   30.9444   12.7501   27.6985 C   0  0  0  0  0  0  0  0  0  0  0  0
   30.8698   12.3018   28.9805 N   0  0  0  0  0  0  0  0  0  0  0  0
   30.2343   11.1314   29.1380 C   0  0  0  0  0  0  0  0  0  0  0  0
   29.6871   10.3853   28.1016 C   0  0  0  0  0  0  0  0  0  0  0  0
   29.0542    9.1290   28.6085 C   0  0  0  0  0  0  0  0  0  0  0  0
   30.0168   10.4690   30.4706 C   0  0  0  0  0  0  0  0  0  0  0  0
   29.6289    9.0415   30.0409 C   0  0  2  0  0  0  0  0  0  0  0  0
   30.7608    8.0504   30.1693 C   0  0  0  0  0  0  0  0  0  0  0  0
   30.3971    7.0500   31.0595 C   0  0  0  0  0  0  0  0  0  0  0  0
   29.1266    7.2892   31.5386 N   0  0  0  0  0  0  0  0  0  0  0  0
   28.5866    8.4439   31.0039 C   0  0  0  0  0  0  0  0  0  0  0  0
   27.4808    8.8931   31.2538 O   0  0  0  0  0  0  0  0  0  0  0  0
   31.1517    6.0092   31.4122 N   0  0  0  0  0  0  0  0  0  0  0  0
   32.0092    8.0027   29.5793 C   0  0  0  0  0  0  0  0  0  0  0  0
   32.8362    6.9329   29.9187 C   0  0  0  0  0  0  0  0  0  0  0  0
   32.3711    5.9763   30.8242 C   0  0  0  0  0  0  0  0  0  0  0  0
   32.3863   10.4661   16.8688 H   0  0  0  0  0  0  0  0  0  0  0  0
   31.2945    8.3061   17.5201 H   0  0  0  0  0  0  0  0  0  0  0  0
   31.5374   13.4205   20.2994 H   0  0  0  0  0  0  0  0  0  0  0  0
   29.5099   14.5368   20.7976 H   0  0  0  0  0  0  0  0  0  0  0  0
   31.1694   11.4774   22.3116 H   0  0  0  0  0  0  0  0  0  0  0  0
   31.7453   13.1030   22.4419 H   0  0  0  0  0  0  0  0  0  0  0  0
   29.6747   14.0027   23.1139 H   0  0  0  0  0  0  0  0  0  0  0  0
   30.1519   14.3702   18.4116 H   0  0  0  0  0  0  0  0  0  0  0  0
   28.9967   13.0455   18.1917 H   0  0  0  0  0  0  0  0  0  0  0  0
   28.4360   14.6543   18.6618 H   0  0  0  0  0  0  0  0  0  0  0  0
   26.7862   13.5077   19.5120 H   0  0  0  0  0  0  0  0  0  0  0  0
   26.1439   12.8483   20.9901 H   0  0  0  0  0  0  0  0  0  0  0  0
   28.8616   11.7636   24.5110 H   0  0  0  0  0  0  0  0  0  0  0  0
   29.3500   10.2753   25.9867 H   0  0  0  0  0  0  0  0  0  0  0  0
   31.4635   13.6994   27.5814 H   0  0  0  0  0  0  0  0  0  0  0  0
   29.3284    8.2690   27.9882 H   0  0  0  0  0  0  0  0  0  0  0  0
   27.9645    9.2444   28.6027 H   0  0  0  0  0  0  0  0  0  0  0  0
   29.2057   10.9843   30.9963 H   0  0  0  0  0  0  0  0  0  0  0  0
   30.9247   10.5079   31.0812 H   0  0  0  0  0  0  0  0  0  0  0  0
   28.6663    6.6890   32.2037 H   0  0  0  0  0  0  0  0  0  0  0  0
   32.3455    8.7643   28.8826 H   0  0  0  0  0  0  0  0  0  0  0  0
   33.8292    6.8413   29.4902 H   0  0  0  0  0  0  0  0  0  0  0  0
   32.9956    5.1324   31.1066 H   0  0  0  0  0  0  0  0  0  0  0  0
  1  2  2  0
  2  3  1  0
  3  4  2  0
  4  5  1  0
  5  6  2  0
  1  6  1  0
  1  7  1  0
  4  8  1  0
  5  9  1  0
 10  6  1  0
 11 12  1  0
 13 14  1  0
 14 15  1  0
 11 15  1  0
 12 10  1  0
 10 13  1  0
 12 16  1  0
 11 17  1  0
 17 18  1  0
 18 19  1  0
 18 20  1  0
 18 21  1  0
 15 22  2  0
 14 23  1  0
 23 24  1  0
 24 25  2  0
 24 26  1  0
 28 29  1  0
 29 30  2  0
 30 31  1  0
 27 31  2  0
 27 26  1  0
 26 28  2  0
 31 32  1  0
 30 33  1  0
 34 32  1  1
 34 33  1  0
 34 35  1  0
 35 36  2  0
 36 37  1  0
 37 38  1  0
 38 34  1  0
 38 39  2  0
 36 40  1  0
 35 41  1  0
 41 42  2  0
 40 43  2  0
 43 42  1  0
  2 44  1  0
  3 45  1  0
 10 46  1  1
 12 47  1  1
 13 48  1  0
 13 49  1  0
 14 50  1  1
 16 51  1  0
 16 52  1  0
 16 53  1  0
 17 54  1  0
 17 55  1  0
 23 56  1  0
 27 57  1  0
 28 58  1  0
 32 59  1  0
 32 60  1  0
 33 61  1  0
 33 62  1  0
 37 63  1  0
 41 64  1  0
 42 65  1  0
 43 66  1  0
M  END
> <Uni-Dock RESULT> 
ENERGY=   -4.146  LOWER_BOUND=    2.301  UPPER_BOUND=    2.815
INTER + INTRA:          -4.146
INTER:                  -4.146
INTRA:                   0.000
UNBOUND:                 0.000

$$$$

     RDKit          3D

 66 71  0  0  0  0  0  0  0  0999 V2000
   20.7417    9.0559   30.7262 C   0  0  0  0  0  0  0  0  0  0  0  0
   20.5609    7.6717   30.7393 C   0  0  0  0  0  0  0  0  0  0  0  0
   21.6463    6.8317   30.5084 C   0  0  0  0  0  0  0  0  0  0  0  0
   22.8952    7.3919   30.2701 C   0  0  0  0  0  0  0  0  0  0  0  0
   23.0666    8.7763   30.2613 C   0  0  0  0  0  0  0  0  0  0  0  0
   21.9924    9.6447   30.4865 C   0  0  0  0  0  0  0  0  0  0  0  0
   19.6758    9.8346   30.9612 F   0  0  0  0  0  0  0  0  0  0  0  0
   23.9407    6.5853   30.0431 F   0  0  0  0  0  0  0  0  0  0  0  0
   24.2904    9.2692   30.0279 F   0  0  0  0  0  0  0  0  0  0  0  0
   22.1263   11.1620   30.4931 C   0  0  1  0  0  0  0  0  0  0  0  0
   24.0650   11.5801   32.0147 N   0  0  0  0  0  0  0  0  0  0  0  0
   22.6118   11.7517   31.8525 C   0  0  2  0  0  0  0  0  0  0  0  0
   22.9674   11.6982   29.3070 C   0  0  0  0  0  0  0  0  0  0  0  0
   24.1977   12.5110   29.7255 C   0  0  1  0  0  0  0  0  0  0  0  0
   24.9046   11.9107   30.9545 C   0  0  0  0  0  0  0  0  0  0  0  0
   21.7424   11.3187   33.0368 C   0  0  0  0  0  0  0  0  0  0  0  0
   24.6866   11.0783   33.2592 C   0  0  0  0  0  0  0  0  0  0  0  0
   24.9488    9.5712   33.3275 C   0  0  0  0  0  0  0  0  0  0  0  0
   25.5126    9.2506   34.5176 F   0  0  0  0  0  0  0  0  0  0  0  0
   25.7754    9.1370   32.3571 F   0  0  0  0  0  0  0  0  0  0  0  0
   23.7961    8.8679   33.2379 F   0  0  0  0  0  0  0  0  0  0  0  0
   26.1292   11.7956   31.0079 O   0  0  0  0  0  0  0  0  0  0  0  0
   25.1718   12.6209   28.6448 N   0  0  0  0  0  0  0  0  0  0  0  0
   24.9644   13.4479   27.5656 C   0  0  0  0  0  0  0  0  0  0  0  0
   23.9217   14.0703   27.3960 O   0  0  0  0  0  0  0  0  0  0  0  0
   26.0818   13.5855   26.6006 C   0  0  0  0  0  0  0  0  0  0  0  0
   27.1160   12.6499   26.4817 C   0  0  0  0  0  0  0  0  0  0  0  0
   26.0893   14.6970   25.7506 C   0  0  0  0  0  0  0  0  0  0  0  0
   27.0513   14.9520   24.8234 N   0  0  0  0  0  0  0  0  0  0  0  0
   28.0302   14.0381   24.7529 C   0  0  0  0  0  0  0  0  0  0  0  0
   28.0972   12.8920   25.5354 C   0  0  0  0  0  0  0  0  0  0  0  0
   29.3084   12.0783   25.2090 C   0  0  0  0  0  0  0  0  0  0  0  0
   29.2034   14.1378   23.8171 C   0  0  0  0  0  0  0  0  0  0  0  0
   29.7539   12.6999   23.8656 C   0  0  2  0  0  0  0  0  0  0  0  0
   29.3633   11.8697   22.6663 C   0  0  0  0  0  0  0  0  0  0  0  0
   30.5084   11.4604   21.9978 C   0  0  0  0  0  0  0  0  0  0  0  0
   31.6257   11.9478   22.6421 N   0  0  0  0  0  0  0  0  0  0  0  0
   31.2896   12.6974   23.7538 C   0  0  0  0  0  0  0  0  0  0  0  0
   32.0775   13.2467   24.5052 O   0  0  0  0  0  0  0  0  0  0  0  0
   30.5411   10.7114   20.8956 N   0  0  0  0  0  0  0  0  0  0  0  0
   28.1282   11.4933   22.1745 C   0  0  0  0  0  0  0  0  0  0  0  0
   28.1109   10.7104   21.0211 C   0  0  0  0  0  0  0  0  0  0  0  0
   29.3229   10.3499   20.4274 C   0  0  0  0  0  0  0  0  0  0  0  0
   19.5734    7.2616   30.9308 H   0  0  0  0  0  0  0  0  0  0  0  0
   21.5306    5.7526   30.5136 H   0  0  0  0  0  0  0  0  0  0  0  0
   21.1142   11.5606   30.3286 H   0  0  0  0  0  0  0  0  0  0  0  0
   22.4760   12.8411   31.7815 H   0  0  0  0  0  0  0  0  0  0  0  0
   23.2563   10.8961   28.6170 H   0  0  0  0  0  0  0  0  0  0  0  0
   22.3230   12.3498   28.7006 H   0  0  0  0  0  0  0  0  0  0  0  0
   23.8958   13.5310   29.9966 H   0  0  0  0  0  0  0  0  0  0  0  0
   20.6821   11.4839   32.8171 H   0  0  0  0  0  0  0  0  0  0  0  0
   21.8762   10.2645   33.2913 H   0  0  0  0  0  0  0  0  0  0  0  0
   21.9745   11.9101   33.9287 H   0  0  0  0  0  0  0  0  0  0  0  0
   24.0863   11.3956   34.1156 H   0  0  0  0  0  0  0  0  0  0  0  0
   25.6524   11.5841   33.3780 H   0  0  0  0  0  0  0  0  0  0  0  0
   26.1120   12.3173   28.8824 H   0  0  0  0  0  0  0  0  0  0  0  0
   27.1535   11.7508   27.0864 H   0  0  0  0  0  0  0  0  0  0  0  0
   25.2989   15.4434   25.7985 H   0  0  0  0  0  0  0  0  0  0  0  0
   29.0600   11.0151   25.1228 H   0  0  0  0  0  0  0  0  0  0  0  0
   30.0571   12.2104   25.9981 H   0  0  0  0  0  0  0  0  0  0  0  0
   29.9129   14.8726   24.2125 H   0  0  0  0  0  0  0  0  0  0  0  0
   28.8827   14.4473   22.8171 H   0  0  0  0  0  0  0  0  0  0  0  0
   32.5652   11.7754   22.3226 H   0  0  0  0  0  0  0  0  0  0  0  0
   27.2022   11.7936   22.6549 H   0  0  0  0  0  0  0  0  0  0  0  0
   27.1717   10.3850   20.5853 H   0  0  0  0  0  0  0  0  0  0  0  0
   29.3381    9.7404   19.5273 H   0  0  0  0  0  0  0  0  0  0  0  0
  1  2  2  0
  2  3  1  0
  3  4  2  0
  4  5  1  0
  5  6  2  0
  1  6  1  0
  1  7  1  0
  4  8  1  0
  5  9  1  0
 10  6  1  0
 11 12  1  0
 13 14  1  0
 14 15  1  0
 11 15  1  0
 12 10  1  0
 10 13  1  0
 12 16  1  0
 11 17  1  0
 17 18  1  0
 18 19  1  0
 18 20  1  0
 18 21  1  0
 15 22  2  0
 14 23  1  0
 23 24  1  0
 24 25  2  0
 24 26  1  0
 28 29  1  0
 29 30  2  0
 30 31  1  0
 27 31  2  0
 27 26  1  0
 26 28  2  0
 31 32  1  0
 30 33  1  0
 34 32  1  1
 34 33  1  0
 34 35  1  0
 35 36  2  0
 36 37  1  0
 37 38  1  0
 38 34  1  0
 38 39  2  0
 36 40  1  0
 35 41  1  0
 41 42  2  0
 40 43  2  0
 43 42  1  0
  2 44  1  0
  3 45  1  0
 10 46  1  1
 12 47  1  1
 13 48  1  0
 13 49  1  0
 14 50  1  1
 16 51  1  0
 16 52  1  0
 16 53  1  0
 17 54  1  0
 17 55  1  0
 23 56  1  0
 27 57  1  0
 28 58  1  0
 32 59  1  0
 32 60  1  0
 33 61  1  0
 33 62  1  0
 37 63  1  0
 41 64  1  0
 42 65  1  0
 43 66  1  0
M  END
> <Uni-Dock RESULT> 
ENERGY=   -4.104  LOWER_BOUND=    5.517  UPPER_BOUND=   11.306
INTER + INTRA:          -4.104
INTER:                  -4.104
INTRA:                   0.000
UNBOUND:                 0.000

$$$$

     RDKit          3D

 66 71  0  0  0  0  0  0  0  0999 V2000
   30.6659   11.6295   21.5410 C   0  0  0  0  0  0  0  0  0  0  0  0
   30.4839   10.7334   20.4862 C   0  0  0  0  0  0  0  0  0  0  0  0
   29.2091   10.2538   20.2002 C   0  0  0  0  0  0  0  0  0  0  0  0
   28.1373   10.6812   20.9742 C   0  0  0  0  0  0  0  0  0  0  0  0
   28.3286   11.5789   22.0247 C   0  0  0  0  0  0  0  0  0  0  0  0
   29.5997   12.0743   22.3371 C   0  0  0  0  0  0  0  0  0  0  0  0
   31.9063   12.0777   21.7826 F   0  0  0  0  0  0  0  0  0  0  0  0
   26.9097   10.2174   20.7036 F   0  0  0  0  0  0  0  0  0  0  0  0
   27.2639   11.9626   22.7419 F   0  0  0  0  0  0  0  0  0  0  0  0
   29.8622   13.0593   23.4690 C   0  0  1  0  0  0  0  0  0  0  0  0
   28.1696   14.8600   23.0931 N   0  0  0  0  0  0  0  0  0  0  0  0
   29.6088   14.5496   23.0867 C   0  0  2  0  0  0  0  0  0  0  0  0
   29.1339   12.6766   24.7823 C   0  0  0  0  0  0  0  0  0  0  0  0
   28.1756   13.7522   25.3061 C   0  0  1  0  0  0  0  0  0  0  0  0
   27.3955   14.4425   24.1724 C   0  0  0  0  0  0  0  0  0  0  0  0
   30.3909   14.9899   21.8456 C   0  0  0  0  0  0  0  0  0  0  0  0
   27.4980   15.6063   22.0074 C   0  0  0  0  0  0  0  0  0  0  0  0
   26.8593   14.7648   20.8989 C   0  0  0  0  0  0  0  0  0  0  0  0
   26.2877   15.5723   19.9726 F   0  0  0  0  0  0  0  0  0  0  0  0
   25.9046   13.9319   21.3553 F   0  0  0  0  0  0  0  0  0  0  0  0
   27.7861   14.0209   20.2517 F   0  0  0  0  0  0  0  0  0  0  0  0
   26.1865   14.6600   24.2543 O   0  0  0  0  0  0  0  0  0  0  0  0
   27.2139   13.2082   26.2590 N   0  0  0  0  0  0  0  0  0  0  0  0
   27.5773   12.8746   27.5428 C   0  0  0  0  0  0  0  0  0  0  0  0
   28.7363   12.9254   27.9398 O   0  0  0  0  0  0  0  0  0  0  0  0
   26.4898   12.4640   28.4633 C   0  0  0  0  0  0  0  0  0  0  0  0
   25.2449   11.9982   28.0249 C   0  0  0  0  0  0  0  0  0  0  0  0
   26.7299   12.5251   29.8405 C   0  0  0  0  0  0  0  0  0  0  0  0
   25.8243   12.1850   30.7968 N   0  0  0  0  0  0  0  0  0  0  0  0
   24.6406   11.7577   30.3333 C   0  0  0  0  0  0  0  0  0  0  0  0
   24.3166   11.6395   28.9875 C   0  0  0  0  0  0  0  0  0  0  0  0
   22.9226   11.1303   28.8044 C   0  0  0  0  0  0  0  0  0  0  0  0
   23.4909   11.3567   31.2160 C   0  0  0  0  0  0  0  0  0  0  0  0
   22.5909   10.6024   30.2189 C   0  0  2  0  0  0  0  0  0  0  0  0
   22.6981    9.1007   30.3349 C   0  0  0  0  0  0  0  0  0  0  0  0
   21.4565    8.5751   30.6631 C   0  0  0  0  0  0  0  0  0  0  0  0
   20.5338    9.5929   30.7806 N   0  0  0  0  0  0  0  0  0  0  0  0
   21.1030   10.8301   30.5436 C   0  0  0  0  0  0  0  0  0  0  0  0
   20.5192   11.9000   30.5818 O   0  0  0  0  0  0  0  0  0  0  0  0
   21.1807    7.2836   30.8444 N   0  0  0  0  0  0  0  0  0  0  0  0
   23.7701    8.2432   30.1790 C   0  0  0  0  0  0  0  0  0  0  0  0
   23.5314    6.8817   30.3609 C   0  0  0  0  0  0  0  0  0  0  0  0
   22.2413    6.4566   30.6867 C   0  0  0  0  0  0  0  0  0  0  0  0
   31.3399   10.4183   19.8964 H   0  0  0  0  0  0  0  0  0  0  0  0
   29.0426    9.5565   19.3854 H   0  0  0  0  0  0  0  0  0  0  0  0
   30.9341   12.9797   23.7033 H   0  0  0  0  0  0  0  0  0  0  0  0
   30.0176   15.1527   23.9110 H   0  0  0  0  0  0  0  0  0  0  0  0
   28.6162   11.7136   24.6954 H   0  0  0  0  0  0  0  0  0  0  0  0
   29.8957   12.4989   25.5540 H   0  0  0  0  0  0  0  0  0  0  0  0
   28.7427   14.5348   25.8268 H   0  0  0  0  0  0  0  0  0  0  0  0
   31.4466   14.7125   21.9369 H   0  0  0  0  0  0  0  0  0  0  0  0
   30.0016   14.5464   20.9260 H   0  0  0  0  0  0  0  0  0  0  0  0
   30.3608   16.0785   21.7307 H   0  0  0  0  0  0  0  0  0  0  0  0
   28.1987   16.3264   21.5775 H   0  0  0  0  0  0  0  0  0  0  0  0
   26.7019   16.2101   22.4596 H   0  0  0  0  0  0  0  0  0  0  0  0
   26.2392   13.3877   26.0343 H   0  0  0  0  0  0  0  0  0  0  0  0
   25.0048   11.8953   26.9727 H   0  0  0  0  0  0  0  0  0  0  0  0
   27.6874   12.8686   30.2269 H   0  0  0  0  0  0  0  0  0  0  0  0
   22.8841   10.3473   28.0396 H   0  0  0  0  0  0  0  0  0  0  0  0
   22.2708   11.9586   28.5049 H   0  0  0  0  0  0  0  0  0  0  0  0
   23.0140   12.2597   31.6120 H   0  0  0  0  0  0  0  0  0  0  0  0
   23.8338   10.7346   32.0491 H   0  0  0  0  0  0  0  0  0  0  0  0
   19.5679    9.4363   31.0192 H   0  0  0  0  0  0  0  0  0  0  0  0
   24.7635    8.6037   29.9306 H   0  0  0  0  0  0  0  0  0  0  0  0
   24.3337    6.1586   30.2543 H   0  0  0  0  0  0  0  0  0  0  0  0
   22.0277    5.4009   30.8345 H   0  0  0  0  0  0  0  0  0  0  0  0
  1  2  2  0
  2  3  1  0
  3  4  2  0
  4  5  1  0
  5  6  2  0
  1  6  1  0
  1  7  1  0
  4  8  1  0
  5  9  1  0
 10  6  1  0
 11 12  1  0
 13 14  1  0
 14 15  1  0
 11 15  1  0
 12 10  1  0
 10 13  1  0
 12 16  1  0
 11 17  1  0
 17 18  1  0
 18 19  1  0
 18 20  1  0
 18 21  1  0
 15 22  2  0
 14 23  1  0
 23 24  1  0
 24 25  2  0
 24 26  1  0
 28 29  1  0
 29 30  2  0
 30 31  1  0
 27 31  2  0
 27 26  1  0
 26 28  2  0
 31 32  1  0
 30 33  1  0
 34 32  1  1
 34 33  1  0
 34 35  1  0
 35 36  2  0
 36 37  1  0
 37 38  1  0
 38 34  1  0
 38 39  2  0
 36 40  1  0
 35 41  1  0
 41 42  2  0
 40 43  2  0
 43 42  1  0
  2 44  1  0
  3 45  1  0
 10 46  1  1
 12 47  1  1
 13 48  1  0
 13 49  1  0
 14 50  1  1
 16 51  1  0
 16 52  1  0
 16 53  1  0
 17 54  1  0
 17 55  1  0
 23 56  1  0
 27 57  1  0
 28 58  1  0
 32 59  1  0
 32 60  1  0
 33 61  1  0
 33 62  1  0
 37 63  1  0
 41 64  1  0
 42 65  1  0
 43 66  1  0
M  END
> <Uni-Dock RESULT> 
ENERGY=   -3.981  LOWER_BOUND=    2.846  UPPER_BOUND=    4.024
INTER + INTRA:          -3.981
INTER:                  -3.981
INTRA:                   0.000
UNBOUND:                 0.000

$$$$

     RDKit          3D

 66 71  0  0  0  0  0  0  0  0999 V2000
   34.6889    2.1487   33.8709 C   0  0  0  0  0  0  0  0  0  0  0  0
   34.1671    0.8621   33.7253 C   0  0  0  0  0  0  0  0  0  0  0  0
   33.4663    0.5282   32.5702 C   0  0  0  0  0  0  0  0  0  0  0  0
   33.3012    1.4879   31.5792 C   0  0  0  0  0  0  0  0  0  0  0  0
   33.8284    2.7703   31.7326 C   0  0  0  0  0  0  0  0  0  0  0  0
   34.5340    3.1347   32.8850 C   0  0  0  0  0  0  0  0  0  0  0  0
   35.3660    2.4328   34.9928 F   0  0  0  0  0  0  0  0  0  0  0  0
   32.6230    1.1701   30.4682 F   0  0  0  0  0  0  0  0  0  0  0  0
   33.6442    3.6610   30.7487 F   0  0  0  0  0  0  0  0  0  0  0  0
   35.1340    4.5182   33.0999 C   0  0  1  0  0  0  0  0  0  0  0  0
   36.4052    4.9479   30.9908 N   0  0  0  0  0  0  0  0  0  0  0  0
   36.5325    4.7146   32.4389 C   0  0  2  0  0  0  0  0  0  0  0  0
   34.1601    5.6631   32.7224 C   0  0  0  0  0  0  0  0  0  0  0  0
   34.6934    6.6119   31.6432 C   0  0  1  0  0  0  0  0  0  0  0  0
   35.4622    5.8662   30.5371 C   0  0  0  0  0  0  0  0  0  0  0  0
   37.5505    3.6532   32.8668 C   0  0  0  0  0  0  0  0  0  0  0  0
   37.2398    4.2582   29.9836 C   0  0  0  0  0  0  0  0  0  0  0  0
   36.6558    2.9782   29.3792 C   0  0  0  0  0  0  0  0  0  0  0  0
   37.5227    2.4505   28.4808 F   0  0  0  0  0  0  0  0  0  0  0  0
   35.4869    3.1832   28.7427 F   0  0  0  0  0  0  0  0  0  0  0  0
   36.4532    2.0353   30.3285 F   0  0  0  0  0  0  0  0  0  0  0  0
   35.2915    6.1181   29.3441 O   0  0  0  0  0  0  0  0  0  0  0  0
   33.6238    7.3826   31.0180 N   0  0  0  0  0  0  0  0  0  0  0  0
   33.0116    8.4290   31.6676 C   0  0  0  0  0  0  0  0  0  0  0  0
   33.2566    8.7227   32.8325 O   0  0  0  0  0  0  0  0  0  0  0  0
   32.0375    9.2274   30.8850 C   0  0  0  0  0  0  0  0  0  0  0  0
   31.4065    8.7542   29.7288 C   0  0  0  0  0  0  0  0  0  0  0  0
   31.7172   10.5115   31.3395 C   0  0  0  0  0  0  0  0  0  0  0  0
   30.8467   11.3536   30.7205 N   0  0  0  0  0  0  0  0  0  0  0  0
   30.2759   10.8658   29.6093 C   0  0  0  0  0  0  0  0  0  0  0  0
   30.5108    9.5974   29.0935 C   0  0  0  0  0  0  0  0  0  0  0  0
   29.7164    9.3583   27.8494 C   0  0  0  0  0  0  0  0  0  0  0  0
   29.3050   11.6375   28.7584 C   0  0  0  0  0  0  0  0  0  0  0  0
   28.6905   10.5134   27.9029 C   0  0  2  0  0  0  0  0  0  0  0  0
   27.3261   10.0770   28.3805 C   0  0  0  0  0  0  0  0  0  0  0  0
   26.3953   10.2956   27.3749 C   0  0  0  0  0  0  0  0  0  0  0  0
   27.0172   10.8429   26.2727 N   0  0  0  0  0  0  0  0  0  0  0  0
   28.3722   11.0174   26.4832 C   0  0  0  0  0  0  0  0  0  0  0  0
   29.1622   11.4820   25.6788 O   0  0  0  0  0  0  0  0  0  0  0  0
   25.0919   10.0260   27.4479 N   0  0  0  0  0  0  0  0  0  0  0  0
   26.9035    9.5391   29.5810 C   0  0  0  0  0  0  0  0  0  0  0  0
   25.5472    9.2420   29.7061 C   0  0  0  0  0  0  0  0  0  0  0  0
   24.6943    9.4982   28.6300 C   0  0  0  0  0  0  0  0  0  0  0  0
   34.3136    0.1313   34.5156 H   0  0  0  0  0  0  0  0  0  0  0  0
   33.0513   -0.4654   32.4342 H   0  0  0  0  0  0  0  0  0  0  0  0
   35.2889    4.6210   34.1841 H   0  0  0  0  0  0  0  0  0  0  0  0
   36.9276    5.6637   32.8305 H   0  0  0  0  0  0  0  0  0  0  0  0
   33.1717    5.2806   32.4400 H   0  0  0  0  0  0  0  0  0  0  0  0
   33.9659    6.2561   33.6269 H   0  0  0  0  0  0  0  0  0  0  0  0
   35.3930    7.3297   32.0909 H   0  0  0  0  0  0  0  0  0  0  0  0
   37.5681    3.5536   33.9575 H   0  0  0  0  0  0  0  0  0  0  0  0
   37.3359    2.6706   32.4395 H   0  0  0  0  0  0  0  0  0  0  0  0
   38.5629    3.9370   32.5607 H   0  0  0  0  0  0  0  0  0  0  0  0
   38.2266    4.0582   30.4086 H   0  0  0  0  0  0  0  0  0  0  0  0
   37.4155    4.9590   29.1585 H   0  0  0  0  0  0  0  0  0  0  0  0
   33.5835    7.3166   30.0048 H   0  0  0  0  0  0  0  0  0  0  0  0
   31.5845    7.7577   29.3406 H   0  0  0  0  0  0  0  0  0  0  0  0
   32.1733   10.9160   32.2410 H   0  0  0  0  0  0  0  0  0  0  0  0
   29.2440    8.3704   27.8646 H   0  0  0  0  0  0  0  0  0  0  0  0
   30.3777    9.4280   26.9784 H   0  0  0  0  0  0  0  0  0  0  0  0
   29.8593   12.3669   28.1580 H   0  0  0  0  0  0  0  0  0  0  0  0
   28.5714   12.1631   29.3782 H   0  0  0  0  0  0  0  0  0  0  0  0
   26.5265   11.0873   25.4278 H   0  0  0  0  0  0  0  0  0  0  0  0
   27.5894    9.3560   30.4022 H   0  0  0  0  0  0  0  0  0  0  0  0
   25.1541    8.8198   30.6255 H   0  0  0  0  0  0  0  0  0  0  0  0
   23.6323    9.2765   28.7010 H   0  0  0  0  0  0  0  0  0  0  0  0
  1  2  2  0
  2  3  1  0
  3  4  2  0
  4  5  1  0
  5  6  2  0
  1  6  1  0
  1  7  1  0
  4  8  1  0
  5  9  1  0
 10  6  1  0
 11 12  1  0
 13 14  1  0
 14 15  1  0
 11 15  1  0
 12 10  1  0
 10 13  1  0
 12 16  1  0
 11 17  1  0
 17 18  1  0
 18 19  1  0
 18 20  1  0
 18 21  1  0
 15 22  2  0
 14 23  1  0
 23 24  1  0
 24 25  2  0
 24 26  1  0
 28 29  1  0
 29 30  2  0
 30 31  1  0
 27 31  2  0
 27 26  1  0
 26 28  2  0
 31 32  1  0
 30 33  1  0
 34 32  1  1
 34 33  1  0
 34 35  1  0
 35 36  2  0
 36 37  1  0
 37 38  1  0
 38 34  1  0
 38 39  2  0
 36 40  1  0
 35 41  1  0
 41 42  2  0
 40 43  2  0
 43 42  1  0
  2 44  1  0
  3 45  1  0
 10 46  1  1
 12 47  1  1
 13 48  1  0
 13 49  1  0
 14 50  1  1
 16 51  1  0
 16 52  1  0
 16 53  1  0
 17 54  1  0
 17 55  1  0
 23 56  1  0
 27 57  1  0
 28 58  1  0
 32 59  1  0
 32 60  1  0
 33 61  1  0
 33 62  1  0
 37 63  1  0
 41 64  1  0
 42 65  1  0
 43 66  1  0
M  END
> <Uni-Dock RESULT> 
ENERGY=   -3.913  LOWER_BOUND=    7.779  UPPER_BOUND=   12.512
INTER + INTRA:          -3.913
INTER:                  -3.913
INTRA:                   0.000
UNBOUND:                 0.000

$$$$

     RDKit          3D

 66 71  0  0  0  0  0  0  0  0999 V2000
   34.1520   13.1205   28.3507 C   0  0  0  0  0  0  0  0  0  0  0  0
   34.9522   13.5193   29.4228 C   0  0  0  0  0  0  0  0  0  0  0  0
   34.7973   12.9093   30.6641 C   0  0  0  0  0  0  0  0  0  0  0  0
   33.8447   11.9085   30.8106 C   0  0  0  0  0  0  0  0  0  0  0  0
   33.0514   11.5149   29.7328 C   0  0  0  0  0  0  0  0  0  0  0  0
   33.1829   12.1136   28.4746 C   0  0  0  0  0  0  0  0  0  0  0  0
   34.3345   13.7237   27.1672 F   0  0  0  0  0  0  0  0  0  0  0  0
   33.6907   11.3228   32.0058 F   0  0  0  0  0  0  0  0  0  0  0  0
   32.1473   10.5445   29.9230 F   0  0  0  0  0  0  0  0  0  0  0  0
   32.3464   11.7178   27.2647 C   0  0  1  0  0  0  0  0  0  0  0  0
   32.5456    9.2270   27.1947 N   0  0  0  0  0  0  0  0  0  0  0  0
   32.8898   10.4756   26.4946 C   0  0  2  0  0  0  0  0  0  0  0  0
   30.8399   11.5679   27.5962 C   0  0  0  0  0  0  0  0  0  0  0  0
   30.2640   10.1807   27.2905 C   0  0  1  0  0  0  0  0  0  0  0  0
   31.2428    9.0486   27.6520 C   0  0  0  0  0  0  0  0  0  0  0  0
   34.3521   10.6305   26.0658 C   0  0  0  0  0  0  0  0  0  0  0  0
   33.5177    8.1382   27.4325 C   0  0  0  0  0  0  0  0  0  0  0  0
   34.2540    8.1665   28.7748 C   0  0  0  0  0  0  0  0  0  0  0  0
   35.1124    7.1208   28.8565 F   0  0  0  0  0  0  0  0  0  0  0  0
   33.4230    8.0926   29.8318 F   0  0  0  0  0  0  0  0  0  0  0  0
   34.9941    9.2919   28.9050 F   0  0  0  0  0  0  0  0  0  0  0  0
   30.8738    8.0359   28.2470 O   0  0  0  0  0  0  0  0  0  0  0  0
   29.0089    9.9441   27.9959 N   0  0  0  0  0  0  0  0  0  0  0  0
   27.8347   10.5431   27.6034 C   0  0  0  0  0  0  0  0  0  0  0  0
   27.7811   11.3748   26.7042 O   0  0  0  0  0  0  0  0  0  0  0  0
   26.5985   10.1212   28.3053 C   0  0  0  0  0  0  0  0  0  0  0  0
   26.5983    9.5104   29.5646 C   0  0  0  0  0  0  0  0  0  0  0  0
   25.3684   10.3671   27.6851 C   0  0  0  0  0  0  0  0  0  0  0  0
   24.1595   10.0305   28.2098 N   0  0  0  0  0  0  0  0  0  0  0  0
   24.2062    9.4350   29.4105 C   0  0  0  0  0  0  0  0  0  0  0  0
   25.3741    9.1709   30.1150 C   0  0  0  0  0  0  0  0  0  0  0  0
   25.0844    8.5042   31.4217 C   0  0  0  0  0  0  0  0  0  0  0  0
   22.9906    8.9587   30.1571 C   0  0  0  0  0  0  0  0  0  0  0  0
   23.5652    8.7481   31.5707 C   0  0  2  0  0  0  0  0  0  0  0  0
   23.2327    9.8707   32.5243 C   0  0  0  0  0  0  0  0  0  0  0  0
   22.4968    9.3677   33.5879 C   0  0  0  0  0  0  0  0  0  0  0  0
   22.3059    8.0120   33.4250 N   0  0  0  0  0  0  0  0  0  0  0  0
   22.8922    7.5482   32.2623 C   0  0  0  0  0  0  0  0  0  0  0  0
   22.8770    6.3935   31.8704 O   0  0  0  0  0  0  0  0  0  0  0  0
   22.0337   10.0753   34.6183 N   0  0  0  0  0  0  0  0  0  0  0  0
   23.5273   11.2201   32.4905 C   0  0  0  0  0  0  0  0  0  0  0  0
   23.0620   12.0027   33.5463 C   0  0  0  0  0  0  0  0  0  0  0  0
   22.3322   11.3954   34.5708 C   0  0  0  0  0  0  0  0  0  0  0  0
   35.6906   14.3029   29.2785 H   0  0  0  0  0  0  0  0  0  0  0  0
   35.4076   13.2022   31.5124 H   0  0  0  0  0  0  0  0  0  0  0  0
   32.4016   12.5632   26.5630 H   0  0  0  0  0  0  0  0  0  0  0  0
   32.3205   10.4227   25.5548 H   0  0  0  0  0  0  0  0  0  0  0  0
   30.6206   11.8525   28.6325 H   0  0  0  0  0  0  0  0  0  0  0  0
   30.2853   12.3030   26.9967 H   0  0  0  0  0  0  0  0  0  0  0  0
   30.0554   10.0924   26.2164 H   0  0  0  0  0  0  0  0  0  0  0  0
   34.5052   11.5888   25.5579 H   0  0  0  0  0  0  0  0  0  0  0  0
   35.0438   10.5794   26.9101 H   0  0  0  0  0  0  0  0  0  0  0  0
   34.6353    9.8484   25.3537 H   0  0  0  0  0  0  0  0  0  0  0  0
   34.2358    8.1096   26.6092 H   0  0  0  0  0  0  0  0  0  0  0  0
   32.9744    7.1871   27.3773 H   0  0  0  0  0  0  0  0  0  0  0  0
   28.9876    9.1004   28.5620 H   0  0  0  0  0  0  0  0  0  0  0  0
   27.5133    9.3205   30.1143 H   0  0  0  0  0  0  0  0  0  0  0  0
   25.3194   10.8513   26.7117 H   0  0  0  0  0  0  0  0  0  0  0  0
   25.6676    8.9524   32.2332 H   0  0  0  0  0  0  0  0  0  0  0  0
   25.3304    7.4390   31.3473 H   0  0  0  0  0  0  0  0  0  0  0  0
   22.6373    8.0260   29.7042 H   0  0  0  0  0  0  0  0  0  0  0  0
   22.1897    9.7042   30.1196 H   0  0  0  0  0  0  0  0  0  0  0  0
   21.7916    7.4453   34.0798 H   0  0  0  0  0  0  0  0  0  0  0  0
   24.0925   11.6651   31.6775 H   0  0  0  0  0  0  0  0  0  0  0  0
   23.2594   13.0695   33.5753 H   0  0  0  0  0  0  0  0  0  0  0  0
   21.9572   11.9822   35.4056 H   0  0  0  0  0  0  0  0  0  0  0  0
  1  2  2  0
  2  3  1  0
  3  4  2  0
  4  5  1  0
  5  6  2  0
  1  6  1  0
  1  7  1  0
  4  8  1  0
  5  9  1  0
 10  6  1  0
 11 12  1  0
 13 14  1  0
 14 15  1  0
 11 15  1  0
 12 10  1  0
 10 13  1  0
 12 16  1  0
 11 17  1  0
 17 18  1  0
 18 19  1  0
 18 20  1  0
 18 21  1  0
 15 22  2  0
 14 23  1  0
 23 24  1  0
 24 25  2  0
 24 26  1  0
 28 29  1  0
 29 30  2  0
 30 31  1  0
 27 31  2  0
 27 26  1  0
 26 28  2  0
 31 32  1  0
 30 33  1  0
 34 32  1  1
 34 33  1  0
 34 35  1  0
 35 36  2  0
 36 37  1  0
 37 38  1  0
 38 34  1  0
 38 39  2  0
 36 40  1  0
 35 41  1  0
 41 42  2  0
 40 43  2  0
 43 42  1  0
  2 44  1  0
  3 45  1  0
 10 46  1  1
 12 47  1  1
 13 48  1  0
 13 49  1  0
 14 50  1  1
 16 51  1  0
 16 52  1  0
 16 53  1  0
 17 54  1  0
 17 55  1  0
 23 56  1  0
 27 57  1  0
 28 58  1  0
 32 59  1  0
 32 60  1  0
 33 61  1  0
 33 62  1  0
 37 63  1  0
 41 64  1  0
 42 65  1  0
 43 66  1  0
M  END
> <Uni-Dock RESULT> 
ENERGY=   -3.854  LOWER_BOUND=    6.850  UPPER_BOUND=    8.658
INTER + INTRA:          -3.854
INTER:                  -3.854
INTRA:                   0.000
UNBOUND:                 0.000

$$$$

     RDKit          3D

 66 71  0  0  0  0  0  0  0  0999 V2000
   27.9175    6.9766   31.3088 C   0  0  0  0  0  0  0  0  0  0  0  0
   28.5907    5.7682   31.4970 C   0  0  0  0  0  0  0  0  0  0  0  0
   29.8271    5.5654   30.8911 C   0  0  0  0  0  0  0  0  0  0  0  0
   30.3698    6.5769   30.1083 C   0  0  0  0  0  0  0  0  0  0  0  0
   29.6907    7.7820   29.9281 C   0  0  0  0  0  0  0  0  0  0  0  0
   28.4445    8.0118   30.5220 C   0  0  0  0  0  0  0  0  0  0  0  0
   26.7327    7.1410   31.9145 F   0  0  0  0  0  0  0  0  0  0  0  0
   31.5579    6.3821   29.5204 F   0  0  0  0  0  0  0  0  0  0  0  0
   30.2552    8.7279   29.1652 F   0  0  0  0  0  0  0  0  0  0  0  0
   27.6645    9.3104   30.3617 C   0  0  1  0  0  0  0  0  0  0  0  0
   29.3472   11.0822   30.8888 N   0  0  0  0  0  0  0  0  0  0  0  0
   28.1024   10.4405   31.3429 C   0  0  2  0  0  0  0  0  0  0  0  0
   27.6244    9.8127   28.8962 C   0  0  0  0  0  0  0  0  0  0  0  0
   28.2067   11.2165   28.6967 C   0  0  1  0  0  0  0  0  0  0  0  0
   29.4640   11.4551   29.5526 C   0  0  0  0  0  0  0  0  0  0  0  0
   28.0606   10.0069   32.8113 C   0  0  0  0  0  0  0  0  0  0  0  0
   30.4877   11.3622   31.7877 C   0  0  0  0  0  0  0  0  0  0  0  0
   31.5832   10.2940   31.8477 C   0  0  0  0  0  0  0  0  0  0  0  0
   32.5581   10.6753   32.7086 F   0  0  0  0  0  0  0  0  0  0  0  0
   32.1627   10.0677   30.6534 F   0  0  0  0  0  0  0  0  0  0  0  0
   31.0962    9.1167   32.3039 F   0  0  0  0  0  0  0  0  0  0  0  0
   30.4705   11.9948   29.0925 O   0  0  0  0  0  0  0  0  0  0  0  0
   28.5470   11.4722   27.3011 N   0  0  0  0  0  0  0  0  0  0  0  0
   27.5799   11.7139   26.3535 C   0  0  0  0  0  0  0  0  0  0  0  0
   26.3800   11.6418   26.5950 O   0  0  0  0  0  0  0  0  0  0  0  0
   28.0476   12.0988   25.0000 C   0  0  0  0  0  0  0  0  0  0  0  0
   29.3352   11.8263   24.5239 C   0  0  0  0  0  0  0  0  0  0  0  0
   27.1469   12.7480   24.1482 C   0  0  0  0  0  0  0  0  0  0  0  0
   27.4406   13.1611   22.8860 N   0  0  0  0  0  0  0  0  0  0  0  0
   28.6888   12.8928   22.4754 C   0  0  0  0  0  0  0  0  0  0  0  0
   29.6450   12.2329   23.2371 C   0  0  0  0  0  0  0  0  0  0  0  0
   30.9319   12.0860   22.4900 C   0  0  0  0  0  0  0  0  0  0  0  0
   29.2293   13.2839   21.1275 C   0  0  0  0  0  0  0  0  0  0  0  0
   30.4958   12.4110   21.0430 C   0  0  2  0  0  0  0  0  0  0  0  0
   30.3182   11.1820   20.1839 C   0  0  0  0  0  0  0  0  0  0  0  0
   31.2155   11.2268   19.1263 C   0  0  0  0  0  0  0  0  0  0  0  0
   31.9708   12.3778   19.2020 N   0  0  0  0  0  0  0  0  0  0  0  0
   31.6207   13.1492   20.2943 C   0  0  0  0  0  0  0  0  0  0  0  0
   32.1244   14.2165   20.6012 O   0  0  0  0  0  0  0  0  0  0  0  0
   31.3394   10.3059   18.1705 N   0  0  0  0  0  0  0  0  0  0  0  0
   29.4561   10.1073   20.2876 C   0  0  0  0  0  0  0  0  0  0  0  0
   29.5465    9.1184   19.3092 C   0  0  0  0  0  0  0  0  0  0  0  0
   30.4886    9.2589   18.2874 C   0  0  0  0  0  0  0  0  0  0  0  0
   28.1434    4.9959   32.1163 H   0  0  0  0  0  0  0  0  0  0  0  0
   30.3694    4.6345   31.0227 H   0  0  0  0  0  0  0  0  0  0  0  0
   26.6195    9.0740   30.6113 H   0  0  0  0  0  0  0  0  0  0  0  0
   27.3445   11.2332   31.2573 H   0  0  0  0  0  0  0  0  0  0  0  0
   28.0982    9.1015   28.2087 H   0  0  0  0  0  0  0  0  0  0  0  0
   26.5744    9.8340   28.5729 H   0  0  0  0  0  0  0  0  0  0  0  0
   27.4683   11.9720   28.9953 H   0  0  0  0  0  0  0  0  0  0  0  0
   27.0982    9.5406   33.0482 H   0  0  0  0  0  0  0  0  0  0  0  0
   28.8526    9.2967   33.0611 H   0  0  0  0  0  0  0  0  0  0  0  0
   28.1638   10.8705   33.4767 H   0  0  0  0  0  0  0  0  0  0  0  0
   30.1121   11.5737   32.7919 H   0  0  0  0  0  0  0  0  0  0  0  0
   30.9576   12.2942   31.4510 H   0  0  0  0  0  0  0  0  0  0  0  0
   29.5050   11.7711   27.1411 H   0  0  0  0  0  0  0  0  0  0  0  0
   30.0713   11.2982   25.1195 H   0  0  0  0  0  0  0  0  0  0  0  0
   26.1314   12.9688   24.4710 H   0  0  0  0  0  0  0  0  0  0  0  0
   31.3370   11.0738   22.5937 H   0  0  0  0  0  0  0  0  0  0  0  0
   31.6602   12.8069   22.8778 H   0  0  0  0  0  0  0  0  0  0  0  0
   29.4573   14.3552   21.1323 H   0  0  0  0  0  0  0  0  0  0  0  0
   28.5022   13.0731   20.3367 H   0  0  0  0  0  0  0  0  0  0  0  0
   32.6818   12.6157   18.5293 H   0  0  0  0  0  0  0  0  0  0  0  0
   28.7301   10.0281   21.0908 H   0  0  0  0  0  0  0  0  0  0  0  0
   28.8948    8.2509   19.3351 H   0  0  0  0  0  0  0  0  0  0  0  0
   30.5798    8.5029   17.5115 H   0  0  0  0  0  0  0  0  0  0  0  0
  1  2  2  0
  2  3  1  0
  3  4  2  0
  4  5  1  0
  5  6  2  0
  1  6  1  0
  1  7  1  0
  4  8  1  0
  5  9  1  0
 10  6  1  0
 11 12  1  0
 13 14  1  0
 14 15  1  0
 11 15  1  0
 12 10  1  0
 10 13  1  0
 12 16  1  0
 11 17  1  0
 17 18  1  0
 18 19  1  0
 18 20  1  0
 18 21  1  0
 15 22  2  0
 14 23  1  0
 23 24  1  0
 24 25  2  0
 24 26  1  0
 28 29  1  0
 29 30  2  0
 30 31  1  0
 27 31  2  0
 27 26  1  0
 26 28  2  0
 31 32  1  0
 30 33  1  0
 34 32  1  1
 34 33  1  0
 34 35  1  0
 35 36  2  0
 36 37  1  0
 37 38  1  0
 38 34  1  0
 38 39  2  0
 36 40  1  0
 35 41  1  0
 41 42  2  0
 40 43  2  0
 43 42  1  0
  2 44  1  0
  3 45  1  0
 10 46  1  1
 12 47  1  1
 13 48  1  0
 13 49  1  0
 14 50  1  1
 16 51  1  0
 16 52  1  0
 16 53  1  0
 17 54  1  0
 17 55  1  0
 23 56  1  0
 27 57  1  0
 28 58  1  0
 32 59  1  0
 32 60  1  0
 33 61  1  0
 33 62  1  0
 37 63  1  0
 41 64  1  0
 42 65  1  0
 43 66  1  0
M  END
> <Uni-Dock RESULT> 
ENERGY=   -3.801  LOWER_BOUND=    4.779  UPPER_BOUND=   10.964
INTER + INTRA:          -3.801
INTER:                  -3.801
INTRA:                   0.000
UNBOUND:                 0.000

$$$$
