
     RDKit          3D

 66 71  0  0  0  0  0  0  0  0999 V2000
   29.3770   10.1847   20.5731 C   0  0  0  0  0  0  0  0  0  0  0  0
   30.1595    9.5208   19.6248 C   0  0  0  0  0  0  0  0  0  0  0  0
   31.0990   10.2280   18.8787 C   0  0  0  0  0  0  0  0  0  0  0  0
   31.2349   11.5944   19.0859 C   0  0  0  0  0  0  0  0  0  0  0  0
   30.4497   12.2494   20.0330 C   0  0  0  0  0  0  0  0  0  0  0  0
   29.5085   11.5587   20.8093 C   0  0  0  0  0  0  0  0  0  0  0  0
   28.4634    9.4659   21.2372 F   0  0  0  0  0  0  0  0  0  0  0  0
   32.1300   12.2822   18.3647 F   0  0  0  0  0  0  0  0  0  0  0  0
   30.5943   13.5737   20.1990 F   0  0  0  0  0  0  0  0  0  0  0  0
   28.6966   12.3281   21.8348 C   0  0  1  0  0  0  0  0  0  0  0  0
   26.8296   13.9413   22.2538 N   0  0  0  0  0  0  0  0  0  0  0  0
   27.5061   13.1147   21.2249 C   0  0  2  0  0  0  0  0  0  0  0  0
   28.2019   11.5247   23.0442 C   0  0  0  0  0  0  0  0  0  0  0  0
   27.7212   12.4983   24.1134 C   0  0  1  0  0  0  0  0  0  0  0  0
   26.7272   13.5518   23.5839 C   0  0  0  0  0  0  0  0  0  0  0  0
   26.4999   12.2121   20.5014 C   0  0  0  0  0  0  0  0  0  0  0  0
   26.0105   15.0970   21.8201 C   0  0  0  0  0  0  0  0  0  0  0  0
   24.4889   14.9139   21.6931 C   0  0  0  0  0  0  0  0  0  0  0  0
   23.8805   14.5679   22.8425 F   0  0  0  0  0  0  0  0  0  0  0  0
   23.9257   16.0766   21.2760 F   0  0  0  0  0  0  0  0  0  0  0  0
   24.1717   13.9812   20.7684 F   0  0  0  0  0  0  0  0  0  0  0  0
   25.9469   14.1051   24.3625 O   0  0  0  0  0  0  0  0  0  0  0  0
   27.0918   11.8226   25.2463 N   0  0  0  0  0  0  0  0  0  0  0  0
   27.8480   11.1159   26.1584 C   0  0  0  0  0  0  0  0  0  0  0  0
   29.0450   10.8947   26.0105 O   0  0  0  0  0  0  0  0  0  0  0  0
   27.1491   10.6493   27.3795 C   0  0  0  0  0  0  0  0  0  0  0  0
   25.7631   10.4661   27.4431 C   0  0  0  0  0  0  0  0  0  0  0  0
   27.9147   10.3496   28.5109 C   0  0  0  0  0  0  0  0  0  0  0  0
   27.4022    9.9138   29.6924 N   0  0  0  0  0  0  0  0  0  0  0  0
   26.0667    9.7849   29.7206 C   0  0  0  0  0  0  0  0  0  0  0  0
   25.2262   10.0312   28.6429 C   0  0  0  0  0  0  0  0  0  0  0  0
   23.8006    9.7297   28.9760 C   0  0  0  0  0  0  0  0  0  0  0  0
   25.3067    9.2940   30.9202 C   0  0  0  0  0  0  0  0  0  0  0  0
   23.8507    9.5894   30.5132 C   0  0  2  0  0  0  0  0  0  0  0  0
   22.8604    8.6014   31.0698 C   0  0  0  0  0  0  0  0  0  0  0  0
   21.9763    9.2508   31.9193 C   0  0  0  0  0  0  0  0  0  0  0  0
   22.2826   10.5927   31.9758 N   0  0  0  0  0  0  0  0  0  0  0  0
   23.3670   10.9037   31.1766 C   0  0  0  0  0  0  0  0  0  0  0  0
   23.8365   12.0193   31.0256 O   0  0  0  0  0  0  0  0  0  0  0  0
   20.9734    8.6783   32.5853 N   0  0  0  0  0  0  0  0  0  0  0  0
   22.7226    7.2403   30.8729 C   0  0  0  0  0  0  0  0  0  0  0  0
   21.6888    6.5959   31.5511 C   0  0  0  0  0  0  0  0  0  0  0  0
   20.8529    7.3449   32.3823 C   0  0  0  0  0  0  0  0  0  0  0  0
   30.0258    8.4518   19.4773 H   0  0  0  0  0  0  0  0  0  0  0  0
   31.7171    9.7279   18.1399 H   0  0  0  0  0  0  0  0  0  0  0  0
   29.3934   13.0732   22.2495 H   0  0  0  0  0  0  0  0  0  0  0  0
   27.9178   13.8163   20.4874 H   0  0  0  0  0  0  0  0  0  0  0  0
   27.3912   10.8388   22.7728 H   0  0  0  0  0  0  0  0  0  0  0  0
   29.0143   10.9042   23.4408 H   0  0  0  0  0  0  0  0  0  0  0  0
   28.5795   13.0598   24.5065 H   0  0  0  0  0  0  0  0  0  0  0  0
   25.8799   11.6460   21.2026 H   0  0  0  0  0  0  0  0  0  0  0  0
   25.8307   12.8118   19.8781 H   0  0  0  0  0  0  0  0  0  0  0  0
   26.9839   11.5085   19.8211 H   0  0  0  0  0  0  0  0  0  0  0  0
   26.1852   15.8979   22.5493 H   0  0  0  0  0  0  0  0  0  0  0  0
   26.4110   15.4564   20.8653 H   0  0  0  0  0  0  0  0  0  0  0  0
   26.2490   12.2761   25.5913 H   0  0  0  0  0  0  0  0  0  0  0  0
   25.1222   10.6378   26.5856 H   0  0  0  0  0  0  0  0  0  0  0  0
   28.9978   10.4583   28.4989 H   0  0  0  0  0  0  0  0  0  0  0  0
   23.5056    8.7971   28.4817 H   0  0  0  0  0  0  0  0  0  0  0  0
   23.1389   10.5384   28.6467 H   0  0  0  0  0  0  0  0  0  0  0  0
   25.5005    8.2232   31.0468 H   0  0  0  0  0  0  0  0  0  0  0  0
   25.6186    9.8275   31.8240 H   0  0  0  0  0  0  0  0  0  0  0  0
   21.7642   11.2556   32.5292 H   0  0  0  0  0  0  0  0  0  0  0  0
   23.3895    6.6845   30.2212 H   0  0  0  0  0  0  0  0  0  0  0  0
   21.5317    5.5275   31.4402 H   0  0  0  0  0  0  0  0  0  0  0  0
   20.0377    6.8687   32.9210 H   0  0  0  0  0  0  0  0  0  0  0  0
  1  2  2  0
  2  3  1  0
  3  4  2  0
  4  5  1  0
  5  6  2  0
  1  6  1  0
  1  7  1  0
  4  8  1  0
  5  9  1  0
 10  6  1  0
 11 12  1  0
 13 14  1  0
 14 15  1  0
 11 15  1  0
 12 10  1  0
 10 13  1  0
 12 16  1  0
 11 17  1  0
 17 18  1  0
 18 19  1  0
 18 20  1  0
 18 21  1  0
 15 22  2  0
 14 23  1  0
 23 24  1  0
 24 25  2  0
 24 26  1  0
 28 29  1  0
 29 30  2  0
 30 31  1  0
 27 31  2  0
 27 26  1  0
 26 28  2  0
 31 32  1  0
 30 33  1  0
 34 32  1  6
 34 33  1  0
 34 35  1  0
 35 36  2  0
 36 37  1  0
 37 38  1  0
 38 34  1  0
 38 39  2  0
 36 40  1  0
 35 41  1  0
 41 42  2  0
 40 43  2  0
 43 42  1  0
  2 44  1  0
  3 45  1  0
 10 46  1  6
 12 47  1  6
 13 48  1  0
 13 49  1  0
 14 50  1  6
 16 51  1  0
 16 52  1  0
 16 53  1  0
 17 54  1  0
 17 55  1  0
 23 56  1  0
 27 57  1  0
 28 58  1  0
 32 59  1  0
 32 60  1  0
 33 61  1  0
 33 62  1  0
 37 63  1  0
 41 64  1  0
 42 65  1  0
 43 66  1  0
M  END
> <Uni-Dock RESULT> 
ENERGY=   -5.493  LOWER_BOUND=    0.000  UPPER_BOUND=    0.000
INTER + INTRA:          -5.493
INTER:                  -5.493
INTRA:                   0.000
UNBOUND:                 0.000

$$$$

     RDKit          3D

 66 71  0  0  0  0  0  0  0  0999 V2000
   35.1095   14.4939   29.7140 C   0  0  0  0  0  0  0  0  0  0  0  0
   35.5952   15.5210   30.5273 C   0  0  0  0  0  0  0  0  0  0  0  0
   36.8660   15.4231   31.0883 C   0  0  0  0  0  0  0  0  0  0  0  0
   37.6300   14.2915   30.8350 C   0  0  0  0  0  0  0  0  0  0  0  0
   37.1377   13.2709   30.0235 C   0  0  0  0  0  0  0  0  0  0  0  0
   35.8689   13.3516   29.4326 C   0  0  0  0  0  0  0  0  0  0  0  0
   33.8679   14.6203   29.2294 F   0  0  0  0  0  0  0  0  0  0  0  0
   38.8494   14.1869   31.3795 F   0  0  0  0  0  0  0  0  0  0  0  0
   37.8946   12.1829   29.8099 F   0  0  0  0  0  0  0  0  0  0  0  0
   35.3984   12.2132   28.5462 C   0  0  1  0  0  0  0  0  0  0  0  0
   34.5442    9.8641   28.4214 N   0  0  0  0  0  0  0  0  0  0  0  0
   34.8712   10.9854   29.3353 C   0  0  2  0  0  0  0  0  0  0  0  0
   34.3860   12.5822   27.4546 C   0  0  0  0  0  0  0  0  0  0  0  0
   34.2928   11.4273   26.4647 C   0  0  1  0  0  0  0  0  0  0  0  0
   34.0535   10.0597   27.1359 C   0  0  0  0  0  0  0  0  0  0  0  0
   33.6775   11.3207   30.2371 C   0  0  0  0  0  0  0  0  0  0  0  0
   34.4898    8.4876   28.9663 C   0  0  0  0  0  0  0  0  0  0  0  0
   33.1211    7.9038   29.3548 C   0  0  0  0  0  0  0  0  0  0  0  0
   32.2490    7.8243   28.3329 F   0  0  0  0  0  0  0  0  0  0  0  0
   33.2858    6.6464   29.8396 F   0  0  0  0  0  0  0  0  0  0  0  0
   32.5316    8.6192   30.3377 F   0  0  0  0  0  0  0  0  0  0  0  0
   33.5412    9.1413   26.4916 O   0  0  0  0  0  0  0  0  0  0  0  0
   33.2412   11.6244   25.4691 N   0  0  0  0  0  0  0  0  0  0  0  0
   33.3903   12.5477   24.4549 C   0  0  0  0  0  0  0  0  0  0  0  0
   34.3241   13.3407   24.4005 O   0  0  0  0  0  0  0  0  0  0  0  0
   32.3698   12.5231   23.3802 C   0  0  0  0  0  0  0  0  0  0  0  0
   31.0866   11.9932   23.5577 C   0  0  0  0  0  0  0  0  0  0  0  0
   32.6951   13.0832   22.1407 C   0  0  0  0  0  0  0  0  0  0  0  0
   31.8550   13.1266   21.0725 N   0  0  0  0  0  0  0  0  0  0  0  0
   30.6475   12.5771   21.2752 C   0  0  0  0  0  0  0  0  0  0  0  0
   30.2233   12.0226   22.4757 C   0  0  0  0  0  0  0  0  0  0  0  0
   28.8051   11.5572   22.3967 C   0  0  0  0  0  0  0  0  0  0  0  0
   29.5662   12.5449   20.2326 C   0  0  0  0  0  0  0  0  0  0  0  0
   28.5359   11.5978   20.8765 C   0  0  2  0  0  0  0  0  0  0  0  0
   27.1117   11.9271   20.5161 C   0  0  0  0  0  0  0  0  0  0  0  0
   26.5476   10.8692   19.8177 C   0  0  0  0  0  0  0  0  0  0  0  0
   27.4684    9.8533   19.6842 N   0  0  0  0  0  0  0  0  0  0  0  0
   28.6738   10.1740   20.2804 C   0  0  0  0  0  0  0  0  0  0  0  0
   29.6536    9.4492   20.3277 O   0  0  0  0  0  0  0  0  0  0  0  0
   25.3024   10.8245   19.3438 N   0  0  0  0  0  0  0  0  0  0  0  0
   26.3472   13.0524   20.7596 C   0  0  0  0  0  0  0  0  0  0  0  0
   25.0378   13.0540   20.2803 C   0  0  0  0  0  0  0  0  0  0  0  0
   24.5674   11.9348   19.5898 C   0  0  0  0  0  0  0  0  0  0  0  0
   34.9719   16.3919   30.7158 H   0  0  0  0  0  0  0  0  0  0  0  0
   37.2603   16.2127   31.7202 H   0  0  0  0  0  0  0  0  0  0  0  0
   36.2985   11.8828   28.0045 H   0  0  0  0  0  0  0  0  0  0  0  0
   35.6879   10.6312   29.9781 H   0  0  0  0  0  0  0  0  0  0  0  0
   33.3958   12.7951   27.8735 H   0  0  0  0  0  0  0  0  0  0  0  0
   34.7072   13.4940   26.9371 H   0  0  0  0  0  0  0  0  0  0  0  0
   35.2425   11.3374   25.9203 H   0  0  0  0  0  0  0  0  0  0  0  0
   32.7564   11.4571   29.6629 H   0  0  0  0  0  0  0  0  0  0  0  0
   33.5038   10.5133   30.9539 H   0  0  0  0  0  0  0  0  0  0  0  0
   33.8468   12.2165   30.8381 H   0  0  0  0  0  0  0  0  0  0  0  0
   34.9230    7.8294   28.2029 H   0  0  0  0  0  0  0  0  0  0  0  0
   35.1606    8.4394   29.8318 H   0  0  0  0  0  0  0  0  0  0  0  0
   32.6942   10.7915   25.2644 H   0  0  0  0  0  0  0  0  0  0  0  0
   30.7607   11.5869   24.5086 H   0  0  0  0  0  0  0  0  0  0  0  0
   33.6747   13.5246   21.9655 H   0  0  0  0  0  0  0  0  0  0  0  0
   28.1668   12.2540   22.9519 H   0  0  0  0  0  0  0  0  0  0  0  0
   28.6956   10.5521   22.8186 H   0  0  0  0  0  0  0  0  0  0  0  0
   29.1781   13.5601   20.0953 H   0  0  0  0  0  0  0  0  0  0  0  0
   29.9556   12.1743   19.2788 H   0  0  0  0  0  0  0  0  0  0  0  0
   27.2695    8.9846   19.2148 H   0  0  0  0  0  0  0  0  0  0  0  0
   26.7415   13.9083   21.2984 H   0  0  0  0  0  0  0  0  0  0  0  0
   24.3891   13.9102   20.4368 H   0  0  0  0  0  0  0  0  0  0  0  0
   23.5503   11.9081   19.2075 H   0  0  0  0  0  0  0  0  0  0  0  0
  1  2  2  0
  2  3  1  0
  3  4  2  0
  4  5  1  0
  5  6  2  0
  1  6  1  0
  1  7  1  0
  4  8  1  0
  5  9  1  0
 10  6  1  0
 11 12  1  0
 13 14  1  0
 14 15  1  0
 11 15  1  0
 12 10  1  0
 10 13  1  0
 12 16  1  0
 11 17  1  0
 17 18  1  0
 18 19  1  0
 18 20  1  0
 18 21  1  0
 15 22  2  0
 14 23  1  0
 23 24  1  0
 24 25  2  0
 24 26  1  0
 28 29  1  0
 29 30  2  0
 30 31  1  0
 27 31  2  0
 27 26  1  0
 26 28  2  0
 31 32  1  0
 30 33  1  0
 34 32  1  6
 34 33  1  0
 34 35  1  0
 35 36  2  0
 36 37  1  0
 37 38  1  0
 38 34  1  0
 38 39  2  0
 36 40  1  0
 35 41  1  0
 41 42  2  0
 40 43  2  0
 43 42  1  0
  2 44  1  0
  3 45  1  0
 10 46  1  6
 12 47  1  6
 13 48  1  0
 13 49  1  0
 14 50  1  6
 16 51  1  0
 16 52  1  0
 16 53  1  0
 17 54  1  0
 17 55  1  0
 23 56  1  0
 27 57  1  0
 28 58  1  0
 32 59  1  0
 32 60  1  0
 33 61  1  0
 33 62  1  0
 37 63  1  0
 41 64  1  0
 42 65  1  0
 43 66  1  0
M  END
> <Uni-Dock RESULT> 
ENERGY=   -4.839  LOWER_BOUND=    7.872  UPPER_BOUND=   11.355
INTER + INTRA:          -4.839
INTER:                  -4.839
INTRA:                   0.000
UNBOUND:                 0.000

$$$$

     RDKit          3D

 66 71  0  0  0  0  0  0  0  0999 V2000
   32.5290   14.1666   27.0257 C   0  0  0  0  0  0  0  0  0  0  0  0
   33.0323   15.4314   26.7108 C   0  0  0  0  0  0  0  0  0  0  0  0
   33.8641   15.5946   25.6059 C   0  0  0  0  0  0  0  0  0  0  0  0
   34.1891   14.4852   24.8364 C   0  0  0  0  0  0  0  0  0  0  0  0
   33.6838   13.2267   25.1580 C   0  0  0  0  0  0  0  0  0  0  0  0
   32.8310   13.0375   26.2546 C   0  0  0  0  0  0  0  0  0  0  0  0
   31.7640   14.0574   28.1190 F   0  0  0  0  0  0  0  0  0  0  0  0
   34.9965   14.6338   23.7779 F   0  0  0  0  0  0  0  0  0  0  0  0
   34.0286   12.1714   24.4032 F   0  0  0  0  0  0  0  0  0  0  0  0
   32.3021   11.6442   26.5410 C   0  0  1  0  0  0  0  0  0  0  0  0
   32.7935    9.3490   27.4098 N   0  0  0  0  0  0  0  0  0  0  0  0
   33.3209   10.7281   27.2697 C   0  0  2  0  0  0  0  0  0  0  0  0
   30.9520   11.5707   27.2652 C   0  0  0  0  0  0  0  0  0  0  0  0
   30.4192   10.1468   27.1613 C   0  0  1  0  0  0  0  0  0  0  0  0
   31.4427    9.0746   27.5867 C   0  0  0  0  0  0  0  0  0  0  0  0
   33.7618   11.2848   28.6284 C   0  0  0  0  0  0  0  0  0  0  0  0
   33.7464    8.2356   27.6266 C   0  0  0  0  0  0  0  0  0  0  0  0
   33.9911    7.7462   29.0637 C   0  0  0  0  0  0  0  0  0  0  0  0
   32.8885    7.2818   29.6800 F   0  0  0  0  0  0  0  0  0  0  0  0
   34.8979    6.7359   29.0503 F   0  0  0  0  0  0  0  0  0  0  0  0
   34.5130    8.7191   29.8426 F   0  0  0  0  0  0  0  0  0  0  0  0
   31.0507    7.9674   27.9632 O   0  0  0  0  0  0  0  0  0  0  0  0
   29.2062    9.9419   27.9504 N   0  0  0  0  0  0  0  0  0  0  0  0
   28.0001   10.4762   27.5466 C   0  0  0  0  0  0  0  0  0  0  0  0
   27.8914   11.2521   26.6032 O   0  0  0  0  0  0  0  0  0  0  0  0
   26.7971   10.0380   28.2936 C   0  0  0  0  0  0  0  0  0  0  0  0
   26.8502    9.5326   29.5976 C   0  0  0  0  0  0  0  0  0  0  0  0
   25.5483   10.1640   27.6768 C   0  0  0  0  0  0  0  0  0  0  0  0
   24.3688    9.8014   28.2478 N   0  0  0  0  0  0  0  0  0  0  0  0
   24.4686    9.2900   29.4846 C   0  0  0  0  0  0  0  0  0  0  0  0
   25.6576    9.1509   30.1885 C   0  0  0  0  0  0  0  0  0  0  0  0
   25.4242    8.6128   31.5633 C   0  0  0  0  0  0  0  0  0  0  0  0
   23.2839    8.8523   30.2984 C   0  0  0  0  0  0  0  0  0  0  0  0
   23.9615    8.1250   31.4752 C   0  0  2  0  0  0  0  0  0  0  0  0
   23.1998    8.2389   32.7689 C   0  0  0  0  0  0  0  0  0  0  0  0
   22.7943    6.9797   33.1873 C   0  0  0  0  0  0  0  0  0  0  0  0
   23.2246    6.0277   32.2895 N   0  0  0  0  0  0  0  0  0  0  0  0
   23.9317    6.5929   31.2444 C   0  0  0  0  0  0  0  0  0  0  0  0
   24.4417    5.9784   30.3225 O   0  0  0  0  0  0  0  0  0  0  0  0
   22.0962    6.7132   34.2913 N   0  0  0  0  0  0  0  0  0  0  0  0
   22.8678    9.3390   33.5368 C   0  0  0  0  0  0  0  0  0  0  0  0
   22.1347    9.1108   34.7007 C   0  0  0  0  0  0  0  0  0  0  0  0
   21.7783    7.8016   35.0315 C   0  0  0  0  0  0  0  0  0  0  0  0
   32.7683   16.2811   27.3359 H   0  0  0  0  0  0  0  0  0  0  0  0
   34.2618   16.5702   25.3450 H   0  0  0  0  0  0  0  0  0  0  0  0
   32.1224   11.1981   25.5504 H   0  0  0  0  0  0  0  0  0  0  0  0
   34.2122   10.6541   26.6326 H   0  0  0  0  0  0  0  0  0  0  0  0
   31.0392   11.8603   28.3186 H   0  0  0  0  0  0  0  0  0  0  0  0
   30.2421   12.2704   26.8082 H   0  0  0  0  0  0  0  0  0  0  0  0
   30.1664    9.9284   26.1149 H   0  0  0  0  0  0  0  0  0  0  0  0
   32.9836   11.1716   29.3890 H   0  0  0  0  0  0  0  0  0  0  0  0
   34.6514   10.7580   28.9847 H   0  0  0  0  0  0  0  0  0  0  0  0
   34.0445   12.3381   28.5764 H   0  0  0  0  0  0  0  0  0  0  0  0
   33.3702    7.3824   27.0485 H   0  0  0  0  0  0  0  0  0  0  0  0
   34.7041    8.5168   27.1738 H   0  0  0  0  0  0  0  0  0  0  0  0
   29.1789    9.0614   28.4592 H   0  0  0  0  0  0  0  0  0  0  0  0
   27.7831    9.4538   30.1444 H   0  0  0  0  0  0  0  0  0  0  0  0
   25.4590   10.5712   26.6712 H   0  0  0  0  0  0  0  0  0  0  0  0
   25.5508    9.4215   32.2920 H   0  0  0  0  0  0  0  0  0  0  0  0
   26.1261    7.8042   31.7949 H   0  0  0  0  0  0  0  0  0  0  0  0
   22.7263    9.7402   30.6158 H   0  0  0  0  0  0  0  0  0  0  0  0
   22.6265    8.2030   29.7111 H   0  0  0  0  0  0  0  0  0  0  0  0
   23.0462    5.0426   32.3998 H   0  0  0  0  0  0  0  0  0  0  0  0
   23.1580   10.3457   33.2526 H   0  0  0  0  0  0  0  0  0  0  0  0
   21.8408    9.9346   35.3435 H   0  0  0  0  0  0  0  0  0  0  0  0
   21.2091    7.5946   35.9341 H   0  0  0  0  0  0  0  0  0  0  0  0
  1  2  2  0
  2  3  1  0
  3  4  2  0
  4  5  1  0
  5  6  2  0
  1  6  1  0
  1  7  1  0
  4  8  1  0
  5  9  1  0
 10  6  1  0
 11 12  1  0
 13 14  1  0
 14 15  1  0
 11 15  1  0
 12 10  1  0
 10 13  1  0
 12 16  1  0
 11 17  1  0
 17 18  1  0
 18 19  1  0
 18 20  1  0
 18 21  1  0
 15 22  2  0
 14 23  1  0
 23 24  1  0
 24 25  2  0
 24 26  1  0
 28 29  1  0
 29 30  2  0
 30 31  1  0
 27 31  2  0
 27 26  1  0
 26 28  2  0
 31 32  1  0
 30 33  1  0
 34 32  1  6
 34 33  1  0
 34 35  1  0
 35 36  2  0
 36 37  1  0
 37 38  1  0
 38 34  1  0
 38 39  2  0
 36 40  1  0
 35 41  1  0
 41 42  2  0
 40 43  2  0
 43 42  1  0
  2 44  1  0
  3 45  1  0
 10 46  1  6
 12 47  1  6
 13 48  1  0
 13 49  1  0
 14 50  1  6
 16 51  1  0
 16 52  1  0
 16 53  1  0
 17 54  1  0
 17 55  1  0
 23 56  1  0
 27 57  1  0
 28 58  1  0
 32 59  1  0
 32 60  1  0
 33 61  1  0
 33 62  1  0
 37 63  1  0
 41 64  1  0
 42 65  1  0
 43 66  1  0
M  END
> <Uni-Dock RESULT> 
ENERGY=   -4.101  LOWER_BOUND=    5.322  UPPER_BOUND=    7.200
INTER + INTRA:          -4.101
INTER:                  -4.101
INTRA:                   0.000
UNBOUND:                 0.000

$$$$

     RDKit          3D

 66 71  0  0  0  0  0  0  0  0999 V2000
   34.2287    4.2931   32.9226 C   0  0  0  0  0  0  0  0  0  0  0  0
   35.4627    4.2271   33.5747 C   0  0  0  0  0  0  0  0  0  0  0  0
   36.3559    3.2022   33.2729 C   0  0  0  0  0  0  0  0  0  0  0  0
   35.9961    2.2502   32.3280 C   0  0  0  0  0  0  0  0  0  0  0  0
   34.7627    2.3225   31.6829 C   0  0  0  0  0  0  0  0  0  0  0  0
   33.8521    3.3531   31.9555 C   0  0  0  0  0  0  0  0  0  0  0  0
   33.3917    5.2766   33.2757 F   0  0  0  0  0  0  0  0  0  0  0  0
   36.8468    1.2563   32.0402 F   0  0  0  0  0  0  0  0  0  0  0  0
   34.4382    1.3784   30.7853 F   0  0  0  0  0  0  0  0  0  0  0  0
   32.5327    3.3836   31.2064 C   0  0  1  0  0  0  0  0  0  0  0  0
   30.2552    2.3853   30.9232 N   0  0  0  0  0  0  0  0  0  0  0  0
   31.4733    2.3991   31.7691 C   0  0  2  0  0  0  0  0  0  0  0  0
   31.8905    4.7650   31.0270 C   0  0  0  0  0  0  0  0  0  0  0  0
   30.7870    4.6582   29.9815 C   0  0  1  0  0  0  0  0  0  0  0  0
   29.7927    3.5108   30.2518 C   0  0  0  0  0  0  0  0  0  0  0  0
   31.1173    2.6758   33.2345 C   0  0  0  0  0  0  0  0  0  0  0  0
   29.3498    1.2146   30.9891 C   0  0  0  0  0  0  0  0  0  0  0  0
   28.1080    1.2949   31.8926 C   0  0  0  0  0  0  0  0  0  0  0  0
   27.2523    2.2796   31.5621 F   0  0  0  0  0  0  0  0  0  0  0  0
   27.4203    0.1264   31.8227 F   0  0  0  0  0  0  0  0  0  0  0  0
   28.4426    1.4655   33.1905 F   0  0  0  0  0  0  0  0  0  0  0  0
   28.6554    3.5598   29.7769 O   0  0  0  0  0  0  0  0  0  0  0  0
   30.0163    5.8930   29.8502 N   0  0  0  0  0  0  0  0  0  0  0  0
   30.5582    7.0041   29.2376 C   0  0  0  0  0  0  0  0  0  0  0  0
   31.7338    7.0768   28.8968 O   0  0  0  0  0  0  0  0  0  0  0  0
   29.6321    8.1288   28.9646 C   0  0  0  0  0  0  0  0  0  0  0  0
   28.4401    8.3251   29.6712 C   0  0  0  0  0  0  0  0  0  0  0  0
   29.9816    9.0534   27.9752 C   0  0  0  0  0  0  0  0  0  0  0  0
   29.2254   10.1278   27.6255 N   0  0  0  0  0  0  0  0  0  0  0  0
   28.0748   10.2591   28.3038 C   0  0  0  0  0  0  0  0  0  0  0  0
   27.6553    9.4103   29.3198 C   0  0  0  0  0  0  0  0  0  0  0  0
   26.3646    9.8658   29.9204 C   0  0  0  0  0  0  0  0  0  0  0  0
   27.1099   11.3904   28.0877 C   0  0  0  0  0  0  0  0  0  0  0  0
   25.8871   10.9205   28.8982 C   0  0  2  0  0  0  0  0  0  0  0  0
   25.1014   12.0511   29.5076 C   0  0  0  0  0  0  0  0  0  0  0  0
   23.8182   12.0687   28.9802 C   0  0  0  0  0  0  0  0  0  0  0  0
   23.6712   11.0420   28.0737 N   0  0  0  0  0  0  0  0  0  0  0  0
   24.8288   10.2956   27.9542 C   0  0  0  0  0  0  0  0  0  0  0  0
   24.9687    9.3184   27.2378 O   0  0  0  0  0  0  0  0  0  0  0  0
   22.8586   12.9387   29.2952 N   0  0  0  0  0  0  0  0  0  0  0  0
   25.4542   13.0051   30.4433 C   0  0  0  0  0  0  0  0  0  0  0  0
   24.4840   13.9397   30.8031 C   0  0  0  0  0  0  0  0  0  0  0  0
   23.2207   13.8671   30.2121 C   0  0  0  0  0  0  0  0  0  0  0  0
   35.7147    4.9811   34.3166 H   0  0  0  0  0  0  0  0  0  0  0  0
   37.3197    3.1372   33.7676 H   0  0  0  0  0  0  0  0  0  0  0  0
   32.7753    3.0441   30.1874 H   0  0  0  0  0  0  0  0  0  0  0  0
   31.8993    1.3887   31.7127 H   0  0  0  0  0  0  0  0  0  0  0  0
   31.4774    5.1467   31.9677 H   0  0  0  0  0  0  0  0  0  0  0  0
   32.6454    5.4907   30.7018 H   0  0  0  0  0  0  0  0  0  0  0  0
   31.2343    4.4488   29.0005 H   0  0  0  0  0  0  0  0  0  0  0  0
   30.4807    3.5590   33.3412 H   0  0  0  0  0  0  0  0  0  0  0  0
   30.5781    1.8259   33.6618 H   0  0  0  0  0  0  0  0  0  0  0  0
   32.0015    2.8086   33.8612 H   0  0  0  0  0  0  0  0  0  0  0  0
   29.0002    1.0291   29.9659 H   0  0  0  0  0  0  0  0  0  0  0  0
   29.9468    0.3407   31.2742 H   0  0  0  0  0  0  0  0  0  0  0  0
   29.0123    5.7550   29.7614 H   0  0  0  0  0  0  0  0  0  0  0  0
   28.1380    7.6687   30.4795 H   0  0  0  0  0  0  0  0  0  0  0  0
   30.9095    8.9504   27.4153 H   0  0  0  0  0  0  0  0  0  0  0  0
   26.5611   10.3006   30.9070 H   0  0  0  0  0  0  0  0  0  0  0  0
   25.6625    9.0316   30.0261 H   0  0  0  0  0  0  0  0  0  0  0  0
   27.5509   12.3111   28.4849 H   0  0  0  0  0  0  0  0  0  0  0  0
   26.8963   11.5219   27.0220 H   0  0  0  0  0  0  0  0  0  0  0  0
   22.8152   10.8637   27.5737 H   0  0  0  0  0  0  0  0  0  0  0  0
   26.4456   13.0371   30.8842 H   0  0  0  0  0  0  0  0  0  0  0  0
   24.7018   14.7158   31.5301 H   0  0  0  0  0  0  0  0  0  0  0  0
   22.4448   14.5811   30.4759 H   0  0  0  0  0  0  0  0  0  0  0  0
  1  2  2  0
  2  3  1  0
  3  4  2  0
  4  5  1  0
  5  6  2  0
  1  6  1  0
  1  7  1  0
  4  8  1  0
  5  9  1  0
 10  6  1  0
 11 12  1  0
 13 14  1  0
 14 15  1  0
 11 15  1  0
 12 10  1  0
 10 13  1  0
 12 16  1  0
 11 17  1  0
 17 18  1  0
 18 19  1  0
 18 20  1  0
 18 21  1  0
 15 22  2  0
 14 23  1  0
 23 24  1  0
 24 25  2  0
 24 26  1  0
 28 29  1  0
 29 30  2  0
 30 31  1  0
 27 31  2  0
 27 26  1  0
 26 28  2  0
 31 32  1  0
 30 33  1  0
 34 32  1  6
 34 33  1  0
 34 35  1  0
 35 36  2  0
 36 37  1  0
 37 38  1  0
 38 34  1  0
 38 39  2  0
 36 40  1  0
 35 41  1  0
 41 42  2  0
 40 43  2  0
 43 42  1  0
  2 44  1  0
  3 45  1  0
 10 46  1  6
 12 47  1  6
 13 48  1  0
 13 49  1  0
 14 50  1  6
 16 51  1  0
 16 52  1  0
 16 53  1  0
 17 54  1  0
 17 55  1  0
 23 56  1  0
 27 57  1  0
 28 58  1  0
 32 59  1  0
 32 60  1  0
 33 61  1  0
 33 62  1  0
 37 63  1  0
 41 64  1  0
 42 65  1  0
 43 66  1  0
M  END
> <Uni-Dock RESULT> 
ENERGY=   -4.011  LOWER_BOUND=    8.063  UPPER_BOUND=   11.588
INTER + INTRA:          -4.011
INTER:                  -4.011
INTRA:                   0.000
UNBOUND:                 0.000

$$$$

     RDKit          3D

 66 71  0  0  0  0  0  0  0  0999 V2000
   32.6217   14.5520   31.5870 C   0  0  0  0  0  0  0  0  0  0  0  0
   32.8221   15.6261   32.4579 C   0  0  0  0  0  0  0  0  0  0  0  0
   32.5944   16.9287   32.0211 C   0  0  0  0  0  0  0  0  0  0  0  0
   32.1782   17.1385   30.7129 C   0  0  0  0  0  0  0  0  0  0  0  0
   31.9817   16.0616   29.8502 C   0  0  0  0  0  0  0  0  0  0  0  0
   32.1873   14.7396   30.2691 C   0  0  0  0  0  0  0  0  0  0  0  0
   32.8902   13.3230   32.0451 F   0  0  0  0  0  0  0  0  0  0  0  0
   31.9667   18.3897   30.2837 F   0  0  0  0  0  0  0  0  0  0  0  0
   31.5936   16.2984   28.5870 F   0  0  0  0  0  0  0  0  0  0  0  0
   31.9399   13.6111   29.2851 C   0  0  1  0  0  0  0  0  0  0  0  0
   32.7496   12.3664   27.2704 N   0  0  0  0  0  0  0  0  0  0  0  0
   33.1017   13.3948   28.2795 C   0  0  2  0  0  0  0  0  0  0  0  0
   31.5433   12.2602   29.8937 C   0  0  0  0  0  0  0  0  0  0  0  0
   31.0065   11.3638   28.7844 C   0  0  1  0  0  0  0  0  0  0  0  0
   31.9397   11.2747   27.5599 C   0  0  0  0  0  0  0  0  0  0  0  0
   34.4309   13.0554   28.9640 C   0  0  0  0  0  0  0  0  0  0  0  0
   33.4798   12.3469   25.9816 C   0  0  0  0  0  0  0  0  0  0  0  0
   34.6604   11.3749   25.8196 C   0  0  0  0  0  0  0  0  0  0  0  0
   34.3267   10.0788   25.9605 F   0  0  0  0  0  0  0  0  0  0  0  0
   35.1985   11.5177   24.5814 F   0  0  0  0  0  0  0  0  0  0  0  0
   35.6507   11.6379   26.7003 F   0  0  0  0  0  0  0  0  0  0  0  0
   31.8709   10.3013   26.8055 O   0  0  0  0  0  0  0  0  0  0  0  0
   30.7416   10.0012   29.2419 N   0  0  0  0  0  0  0  0  0  0  0  0
   29.6626    9.7249   30.0560 C   0  0  0  0  0  0  0  0  0  0  0  0
   28.9544   10.5950   30.5510 O   0  0  0  0  0  0  0  0  0  0  0  0
   29.3578    8.2933   30.2900 C   0  0  0  0  0  0  0  0  0  0  0  0
   30.3097    7.2771   30.1495 C   0  0  0  0  0  0  0  0  0  0  0  0
   28.0663    7.9463   30.6996 C   0  0  0  0  0  0  0  0  0  0  0  0
   27.6544    6.6746   30.9480 N   0  0  0  0  0  0  0  0  0  0  0  0
   28.5887    5.7281   30.7680 C   0  0  0  0  0  0  0  0  0  0  0  0
   29.9020    5.9760   30.3906 C   0  0  0  0  0  0  0  0  0  0  0  0
   30.7081    4.7183   30.3428 C   0  0  0  0  0  0  0  0  0  0  0  0
   28.3449    4.2659   31.0128 C   0  0  0  0  0  0  0  0  0  0  0  0
   29.6142    3.6305   30.4142 C   0  0  2  0  0  0  0  0  0  0  0  0
   30.0464    2.3739   31.1220 C   0  0  0  0  0  0  0  0  0  0  0  0
   29.9884    1.2987   30.2470 C   0  0  0  0  0  0  0  0  0  0  0  0
   29.5613    1.7259   29.0090 N   0  0  0  0  0  0  0  0  0  0  0  0
   29.3200    3.0872   28.9930 C   0  0  0  0  0  0  0  0  0  0  0  0
   28.9528    3.7283   28.0225 O   0  0  0  0  0  0  0  0  0  0  0  0
   30.2995    0.0365   30.5424 N   0  0  0  0  0  0  0  0  0  0  0  0
   30.4560    2.1565   32.4240 C   0  0  0  0  0  0  0  0  0  0  0  0
   30.7894    0.8508   32.7817 C   0  0  0  0  0  0  0  0  0  0  0  0
   30.6977   -0.1595   31.8217 C   0  0  0  0  0  0  0  0  0  0  0  0
   33.1567   15.4331   33.4744 H   0  0  0  0  0  0  0  0  0  0  0  0
   32.7423   17.7746   32.6848 H   0  0  0  0  0  0  0  0  0  0  0  0
   31.0646   13.9309   28.6985 H   0  0  0  0  0  0  0  0  0  0  0  0
   33.2392   14.3339   27.7274 H   0  0  0  0  0  0  0  0  0  0  0  0
   32.3906   11.7730   30.3896 H   0  0  0  0  0  0  0  0  0  0  0  0
   30.7749   12.4056   30.6623 H   0  0  0  0  0  0  0  0  0  0  0  0
   30.0565   11.7723   28.4142 H   0  0  0  0  0  0  0  0  0  0  0  0
   34.4477   12.0277   29.3386 H   0  0  0  0  0  0  0  0  0  0  0  0
   35.2602   13.1640   28.2594 H   0  0  0  0  0  0  0  0  0  0  0  0
   34.6582   13.7296   29.7923 H   0  0  0  0  0  0  0  0  0  0  0  0
   32.7434   12.1014   25.2063 H   0  0  0  0  0  0  0  0  0  0  0  0
   33.8213   13.3668   25.7707 H   0  0  0  0  0  0  0  0  0  0  0  0
   31.0332    9.2750   28.5919 H   0  0  0  0  0  0  0  0  0  0  0  0
   31.3382    7.4883   29.8792 H   0  0  0  0  0  0  0  0  0  0  0  0
   27.3005    8.7069   30.8411 H   0  0  0  0  0  0  0  0  0  0  0  0
   31.3814    4.6898   31.2071 H   0  0  0  0  0  0  0  0  0  0  0  0
   31.2993    4.6633   29.4220 H   0  0  0  0  0  0  0  0  0  0  0  0
   28.2579    4.0985   32.0919 H   0  0  0  0  0  0  0  0  0  0  0  0
   27.4243    3.9367   30.5201 H   0  0  0  0  0  0  0  0  0  0  0  0
   29.4523    1.1110   28.2188 H   0  0  0  0  0  0  0  0  0  0  0  0
   30.5159    2.9626   33.1487 H   0  0  0  0  0  0  0  0  0  0  0  0
   31.1148    0.6161   33.7904 H   0  0  0  0  0  0  0  0  0  0  0  0
   30.9538   -1.1856   32.0725 H   0  0  0  0  0  0  0  0  0  0  0  0
  1  2  2  0
  2  3  1  0
  3  4  2  0
  4  5  1  0
  5  6  2  0
  1  6  1  0
  1  7  1  0
  4  8  1  0
  5  9  1  0
 10  6  1  0
 11 12  1  0
 13 14  1  0
 14 15  1  0
 11 15  1  0
 12 10  1  0
 10 13  1  0
 12 16  1  0
 11 17  1  0
 17 18  1  0
 18 19  1  0
 18 20  1  0
 18 21  1  0
 15 22  2  0
 14 23  1  0
 23 24  1  0
 24 25  2  0
 24 26  1  0
 28 29  1  0
 29 30  2  0
 30 31  1  0
 27 31  2  0
 27 26  1  0
 26 28  2  0
 31 32  1  0
 30 33  1  0
 34 32  1  6
 34 33  1  0
 34 35  1  0
 35 36  2  0
 36 37  1  0
 37 38  1  0
 38 34  1  0
 38 39  2  0
 36 40  1  0
 35 41  1  0
 41 42  2  0
 40 43  2  0
 43 42  1  0
  2 44  1  0
  3 45  1  0
 10 46  1  6
 12 47  1  6
 13 48  1  0
 13 49  1  0
 14 50  1  6
 16 51  1  0
 16 52  1  0
 16 53  1  0
 17 54  1  0
 17 55  1  0
 23 56  1  0
 27 57  1  0
 28 58  1  0
 32 59  1  0
 32 60  1  0
 33 61  1  0
 33 62  1  0
 37 63  1  0
 41 64  1  0
 42 65  1  0
 43 66  1  0
M  END
> <Uni-Dock RESULT> 
ENERGY=   -3.871  LOWER_BOUND=    7.119  UPPER_BOUND=    9.754
INTER + INTRA:          -3.871
INTER:                  -3.871
INTRA:                   0.000
UNBOUND:                 0.000

$$$$

     RDKit          3D

 66 71  0  0  0  0  0  0  0  0999 V2000
   23.6390    6.1847   30.7197 C   0  0  0  0  0  0  0  0  0  0  0  0
   23.4340    4.8193   30.9346 C   0  0  0  0  0  0  0  0  0  0  0  0
   22.1502    4.2863   30.8515 C   0  0  0  0  0  0  0  0  0  0  0  0
   21.0863    5.1312   30.5640 C   0  0  0  0  0  0  0  0  0  0  0  0
   21.2990    6.4922   30.3521 C   0  0  0  0  0  0  0  0  0  0  0  0
   22.5831    7.0517   30.4131 C   0  0  0  0  0  0  0  0  0  0  0  0
   24.8867    6.6528   30.8475 F   0  0  0  0  0  0  0  0  0  0  0  0
   19.8475    4.6264   30.4922 F   0  0  0  0  0  0  0  0  0  0  0  0
   20.2478    7.2853   30.0909 F   0  0  0  0  0  0  0  0  0  0  0  0
   22.7487    8.5382   30.1565 C   0  0  1  0  0  0  0  0  0  0  0  0
   22.4472   10.8657   31.0257 N   0  0  0  0  0  0  0  0  0  0  0  0
   22.3847    9.4259   31.3761 C   0  0  2  0  0  0  0  0  0  0  0  0
   24.1088    8.9795   29.6012 C   0  0  0  0  0  0  0  0  0  0  0  0
   23.9855   10.4086   29.0867 C   0  0  1  0  0  0  0  0  0  0  0  0
   23.3563   11.3779   30.1079 C   0  0  0  0  0  0  0  0  0  0  0  0
   23.2419    9.1269   32.6115 C   0  0  0  0  0  0  0  0  0  0  0  0
   21.7002   11.8387   31.8564 C   0  0  0  0  0  0  0  0  0  0  0  0
   22.4554   12.5941   32.9626 C   0  0  0  0  0  0  0  0  0  0  0  0
   23.4748   13.3492   32.5132 F   0  0  0  0  0  0  0  0  0  0  0  0
   21.5984   13.4234   33.6115 F   0  0  0  0  0  0  0  0  0  0  0  0
   22.9532   11.7521   33.8947 F   0  0  0  0  0  0  0  0  0  0  0  0
   23.5780   12.5881   30.0223 O   0  0  0  0  0  0  0  0  0  0  0  0
   25.2703   10.9698   28.6738 N   0  0  0  0  0  0  0  0  0  0  0  0
   25.8853   10.5511   27.5120 C   0  0  0  0  0  0  0  0  0  0  0  0
   25.4796    9.6098   26.8389 O   0  0  0  0  0  0  0  0  0  0  0  0
   27.0700   11.3258   27.0724 C   0  0  0  0  0  0  0  0  0  0  0  0
   27.8457   12.0963   27.9461 C   0  0  0  0  0  0  0  0  0  0  0  0
   27.4472   11.2589   25.7273 C   0  0  0  0  0  0  0  0  0  0  0  0
   28.5099   11.9178   25.1932 N   0  0  0  0  0  0  0  0  0  0  0  0
   29.2056   12.6718   26.0585 C   0  0  0  0  0  0  0  0  0  0  0  0
   28.9259   12.7800   27.4144 C   0  0  0  0  0  0  0  0  0  0  0  0
   29.9254   13.6420   28.1158 C   0  0  0  0  0  0  0  0  0  0  0  0
   30.4274   13.4582   25.6760 C   0  0  0  0  0  0  0  0  0  0  0  0
   30.6554   14.3173   26.9342 C   0  0  2  0  0  0  0  0  0  0  0  0
   32.1068   14.6152   27.2016 C   0  0  0  0  0  0  0  0  0  0  0  0
   32.3264   15.9832   27.1285 C   0  0  0  0  0  0  0  0  0  0  0  0
   31.1453   16.6317   26.8421 N   0  0  0  0  0  0  0  0  0  0  0  0
   30.0925   15.7445   26.7154 C   0  0  0  0  0  0  0  0  0  0  0  0
   28.9347   16.0504   26.4839 O   0  0  0  0  0  0  0  0  0  0  0  0
   33.4970   16.5949   27.3094 N   0  0  0  0  0  0  0  0  0  0  0  0
   33.1716   13.7800   27.4825 C   0  0  0  0  0  0  0  0  0  0  0  0
   34.4181   14.3736   27.6769 C   0  0  0  0  0  0  0  0  0  0  0  0
   34.5297   15.7626   27.5825 C   0  0  0  0  0  0  0  0  0  0  0  0
   24.2844    4.1826   31.1666 H   0  0  0  0  0  0  0  0  0  0  0  0
   21.9731    3.2277   31.0127 H   0  0  0  0  0  0  0  0  0  0  0  0
   22.0233    8.7731   29.3620 H   0  0  0  0  0  0  0  0  0  0  0  0
   21.3384    9.2168   31.6355 H   0  0  0  0  0  0  0  0  0  0  0  0
   24.8961    8.9236   30.3617 H   0  0  0  0  0  0  0  0  0  0  0  0
   24.4158    8.3133   28.7862 H   0  0  0  0  0  0  0  0  0  0  0  0
   23.3274   10.4232   28.2074 H   0  0  0  0  0  0  0  0  0  0  0  0
   24.2555    9.5263   32.5128 H   0  0  0  0  0  0  0  0  0  0  0  0
   22.7947    9.5764   33.5025 H   0  0  0  0  0  0  0  0  0  0  0  0
   23.3100    8.0580   32.8238 H   0  0  0  0  0  0  0  0  0  0  0  0
   21.2881   12.5882   31.1692 H   0  0  0  0  0  0  0  0  0  0  0  0
   20.8416   11.3190   32.2968 H   0  0  0  0  0  0  0  0  0  0  0  0
   25.4184   11.9353   28.9578 H   0  0  0  0  0  0  0  0  0  0  0  0
   27.6306   12.1508   29.0073 H   0  0  0  0  0  0  0  0  0  0  0  0
   26.8843   10.6554   25.0173 H   0  0  0  0  0  0  0  0  0  0  0  0
   30.5927   13.0077   28.7104 H   0  0  0  0  0  0  0  0  0  0  0  0
   29.4305   14.3638   28.7749 H   0  0  0  0  0  0  0  0  0  0  0  0
   31.2507   12.7609   25.4863 H   0  0  0  0  0  0  0  0  0  0  0  0
   30.2418   14.0527   24.7756 H   0  0  0  0  0  0  0  0  0  0  0  0
   31.0718   17.6319   26.7490 H   0  0  0  0  0  0  0  0  0  0  0  0
   33.0540   12.7028   27.5479 H   0  0  0  0  0  0  0  0  0  0  0  0
   35.2933   13.7703   27.8970 H   0  0  0  0  0  0  0  0  0  0  0  0
   35.4886   16.2519   27.7319 H   0  0  0  0  0  0  0  0  0  0  0  0
  1  2  2  0
  2  3  1  0
  3  4  2  0
  4  5  1  0
  5  6  2  0
  1  6  1  0
  1  7  1  0
  4  8  1  0
  5  9  1  0
 10  6  1  0
 11 12  1  0
 13 14  1  0
 14 15  1  0
 11 15  1  0
 12 10  1  0
 10 13  1  0
 12 16  1  0
 11 17  1  0
 17 18  1  0
 18 19  1  0
 18 20  1  0
 18 21  1  0
 15 22  2  0
 14 23  1  0
 23 24  1  0
 24 25  2  0
 24 26  1  0
 28 29  1  0
 29 30  2  0
 30 31  1  0
 27 31  2  0
 27 26  1  0
 26 28  2  0
 31 32  1  0
 30 33  1  0
 34 32  1  6
 34 33  1  0
 34 35  1  0
 35 36  2  0
 36 37  1  0
 37 38  1  0
 38 34  1  0
 38 39  2  0
 36 40  1  0
 35 41  1  0
 41 42  2  0
 40 43  2  0
 43 42  1  0
  2 44  1  0
  3 45  1  0
 10 46  1  6
 12 47  1  6
 13 48  1  0
 13 49  1  0
 14 50  1  6
 16 51  1  0
 16 52  1  0
 16 53  1  0
 17 54  1  0
 17 55  1  0
 23 56  1  0
 27 57  1  0
 28 58  1  0
 32 59  1  0
 32 60  1  0
 33 61  1  0
 33 62  1  0
 37 63  1  0
 41 64  1  0
 42 65  1  0
 43 66  1  0
M  END
> <Uni-Dock RESULT> 
ENERGY=   -3.706  LOWER_BOUND=    5.741  UPPER_BOUND=   11.103
INTER + INTRA:          -3.706
INTER:                  -3.706
INTRA:                   0.000
UNBOUND:                 0.000

$$$$

     RDKit          3D

 66 71  0  0  0  0  0  0  0  0999 V2000
   32.8407   12.3331   27.9934 C   0  0  0  0  0  0  0  0  0  0  0  0
   33.7157   13.3355   27.5669 C   0  0  0  0  0  0  0  0  0  0  0  0
   34.7313   13.0349   26.6628 C   0  0  0  0  0  0  0  0  0  0  0  0
   34.8632   11.7304   26.2055 C   0  0  0  0  0  0  0  0  0  0  0  0
   33.9869   10.7360   26.6367 C   0  0  0  0  0  0  0  0  0  0  0  0
   32.9456   11.0148   27.5331 C   0  0  0  0  0  0  0  0  0  0  0  0
   31.9050   12.6665   28.8911 F   0  0  0  0  0  0  0  0  0  0  0  0
   35.8441   11.4327   25.3431 F   0  0  0  0  0  0  0  0  0  0  0  0
   34.1500    9.4814   26.1878 F   0  0  0  0  0  0  0  0  0  0  0  0
   32.0160    9.8904   27.9507 C   0  0  1  0  0  0  0  0  0  0  0  0
   31.7100    7.8178   29.3199 N   0  0  0  0  0  0  0  0  0  0  0  0
   32.6102    8.9639   29.0447 C   0  0  2  0  0  0  0  0  0  0  0  0
   30.5968   10.3048   28.3590 C   0  0  0  0  0  0  0  0  0  0  0  0
   29.7197    9.0596   28.4079 C   0  0  1  0  0  0  0  0  0  0  0  0
   30.3257    7.9127   29.2418 C   0  0  0  0  0  0  0  0  0  0  0  0
   32.9552    9.7102   30.3387 C   0  0  0  0  0  0  0  0  0  0  0  0
   32.2725    6.5987   29.9462 C   0  0  0  0  0  0  0  0  0  0  0  0
   32.1326    6.4219   31.4674 C   0  0  0  0  0  0  0  0  0  0  0  0
   30.8589    6.3847   31.9002 F   0  0  0  0  0  0  0  0  0  0  0  0
   32.7178    5.2561   31.8438 F   0  0  0  0  0  0  0  0  0  0  0  0
   32.7643    7.4044   32.1465 F   0  0  0  0  0  0  0  0  0  0  0  0
   29.5892    7.0479   29.7224 O   0  0  0  0  0  0  0  0  0  0  0  0
   28.3837    9.3338   28.9332 N   0  0  0  0  0  0  0  0  0  0  0  0
   27.4539   10.0204   28.1801 C   0  0  0  0  0  0  0  0  0  0  0  0
   27.7192   10.5535   27.1081 O   0  0  0  0  0  0  0  0  0  0  0  0
   26.0705   10.0621   28.7110 C   0  0  0  0  0  0  0  0  0  0  0  0
   25.7668    9.8829   30.0653 C   0  0  0  0  0  0  0  0  0  0  0  0
   25.0238   10.3229   27.8209 C   0  0  0  0  0  0  0  0  0  0  0  0
   23.7126   10.3887   28.1744 N   0  0  0  0  0  0  0  0  0  0  0  0
   23.4625   10.1769   29.4758 C   0  0  0  0  0  0  0  0  0  0  0  0
   24.4346    9.9384   30.4385 C   0  0  0  0  0  0  0  0  0  0  0  0
   23.8386    9.8111   31.8033 C   0  0  0  0  0  0  0  0  0  0  0  0
   22.0855   10.2308   30.0745 C   0  0  0  0  0  0  0  0  0  0  0  0
   22.3339    9.6676   31.4867 C   0  0  2  0  0  0  0  0  0  0  0  0
   21.4291   10.2583   32.5352 C   0  0  0  0  0  0  0  0  0  0  0  0
   20.6312    9.2633   33.0813 C   0  0  0  0  0  0  0  0  0  0  0  0
   20.9272    8.0523   32.4951 N   0  0  0  0  0  0  0  0  0  0  0  0
   21.9247    8.1741   31.5456 C   0  0  0  0  0  0  0  0  0  0  0  0
   22.3925    7.2576   30.8907 O   0  0  0  0  0  0  0  0  0  0  0  0
   19.7142    9.4352   34.0335 N   0  0  0  0  0  0  0  0  0  0  0  0
   21.2884   11.5554   32.9913 C   0  0  0  0  0  0  0  0  0  0  0  0
   20.3387   11.7858   33.9858 C   0  0  0  0  0  0  0  0  0  0  0  0
   19.5881   10.7114   34.4683 C   0  0  0  0  0  0  0  0  0  0  0  0
   33.5945   14.3467   27.9481 H   0  0  0  0  0  0  0  0  0  0  0  0
   35.4181   13.8017   26.3187 H   0  0  0  0  0  0  0  0  0  0  0  0
   31.8876    9.2756   27.0462 H   0  0  0  0  0  0  0  0  0  0  0  0
   33.5399    8.5370   28.6458 H   0  0  0  0  0  0  0  0  0  0  0  0
   30.5842   10.8082   29.3325 H   0  0  0  0  0  0  0  0  0  0  0  0
   30.1911   11.0203   27.6338 H   0  0  0  0  0  0  0  0  0  0  0  0
   29.5936    8.6633   27.3912 H   0  0  0  0  0  0  0  0  0  0  0  0
   32.0611    9.9637   30.9158 H   0  0  0  0  0  0  0  0  0  0  0  0
   33.5952    9.0924   30.9749 H   0  0  0  0  0  0  0  0  0  0  0  0
   33.5199   10.6264   30.1546 H   0  0  0  0  0  0  0  0  0  0  0  0
   31.7784    5.7432   29.4692 H   0  0  0  0  0  0  0  0  0  0  0  0
   33.3318    6.5353   29.6721 H   0  0  0  0  0  0  0  0  0  0  0  0
   28.0328    8.6301   29.5787 H   0  0  0  0  0  0  0  0  0  0  0  0
   26.5386    9.7230   30.8097 H   0  0  0  0  0  0  0  0  0  0  0  0
   25.2170   10.4887   26.7625 H   0  0  0  0  0  0  0  0  0  0  0  0
   24.0592   10.7181   32.3777 H   0  0  0  0  0  0  0  0  0  0  0  0
   24.2442    8.9412   32.3314 H   0  0  0  0  0  0  0  0  0  0  0  0
   21.7476   11.2727   30.0891 H   0  0  0  0  0  0  0  0  0  0  0  0
   21.3822    9.6304   29.4884 H   0  0  0  0  0  0  0  0  0  0  0  0
   20.4705    7.1903   32.7453 H   0  0  0  0  0  0  0  0  0  0  0  0
   21.8857   12.3707   32.5953 H   0  0  0  0  0  0  0  0  0  0  0  0
   20.1791   12.7837   34.3822 H   0  0  0  0  0  0  0  0  0  0  0  0
   18.8428   10.8620   35.2450 H   0  0  0  0  0  0  0  0  0  0  0  0
  1  2  2  0
  2  3  1  0
  3  4  2  0
  4  5  1  0
  5  6  2  0
  1  6  1  0
  1  7  1  0
  4  8  1  0
  5  9  1  0
 10  6  1  0
 11 12  1  0
 13 14  1  0
 14 15  1  0
 11 15  1  0
 12 10  1  0
 10 13  1  0
 12 16  1  0
 11 17  1  0
 17 18  1  0
 18 19  1  0
 18 20  1  0
 18 21  1  0
 15 22  2  0
 14 23  1  0
 23 24  1  0
 24 25  2  0
 24 26  1  0
 28 29  1  0
 29 30  2  0
 30 31  1  0
 27 31  2  0
 27 26  1  0
 26 28  2  0
 31 32  1  0
 30 33  1  0
 34 32  1  6
 34 33  1  0
 34 35  1  0
 35 36  2  0
 36 37  1  0
 37 38  1  0
 38 34  1  0
 38 39  2  0
 36 40  1  0
 35 41  1  0
 41 42  2  0
 40 43  2  0
 43 42  1  0
  2 44  1  0
  3 45  1  0
 10 46  1  6
 12 47  1  6
 13 48  1  0
 13 49  1  0
 14 50  1  6
 16 51  1  0
 16 52  1  0
 16 53  1  0
 17 54  1  0
 17 55  1  0
 23 56  1  0
 27 57  1  0
 28 58  1  0
 32 59  1  0
 32 60  1  0
 33 61  1  0
 33 62  1  0
 37 63  1  0
 41 64  1  0
 42 65  1  0
 43 66  1  0
M  END
> <Uni-Dock RESULT> 
ENERGY=   -3.667  LOWER_BOUND=    5.789  UPPER_BOUND=    7.885
INTER + INTRA:          -3.667
INTER:                  -3.667
INTRA:                   0.000
UNBOUND:                 0.000

$$$$
