
     RDKit          3D

 66 71  0  0  0  0  0  0  0  0999 V2000
   23.5097    8.5949   19.3322 C   0  0  0  0  0  0  0  0  0  0  0  0
   22.5004    7.6515   19.5370 C   0  0  0  0  0  0  0  0  0  0  0  0
   22.4443    6.5111   18.7380 C   0  0  0  0  0  0  0  0  0  0  0  0
   23.3979    6.3351   17.7427 C   0  0  0  0  0  0  0  0  0  0  0  0
   24.4021    7.2826   17.5466 C   0  0  0  0  0  0  0  0  0  0  0  0
   24.4855    8.4346   18.3414 C   0  0  0  0  0  0  0  0  0  0  0  0
   23.5262    9.6790   20.1194 F   0  0  0  0  0  0  0  0  0  0  0  0
   23.3407    5.2457   16.9639 F   0  0  0  0  0  0  0  0  0  0  0  0
   25.2964    7.0884   16.5646 F   0  0  0  0  0  0  0  0  0  0  0  0
   25.5890    9.4532   18.0948 C   0  0  1  0  0  0  0  0  0  0  0  0
   24.5660   11.7423   18.2313 N   0  0  0  0  0  0  0  0  0  0  0  0
   25.1244   10.7286   17.3210 C   0  0  2  0  0  0  0  0  0  0  0  0
   26.3655    9.7965   19.3925 C   0  0  0  0  0  0  0  0  0  0  0  0
   26.5856   11.2970   19.5881 C   0  0  1  0  0  0  0  0  0  0  0  0
   25.2666   12.0653   19.3908 C   0  0  0  0  0  0  0  0  0  0  0  0
   24.2921   10.4012   16.0770 C   0  0  0  0  0  0  0  0  0  0  0  0
   23.3403   12.5121   17.9275 C   0  0  0  0  0  0  0  0  0  0  0  0
   22.0347   11.9692   18.5151 C   0  0  0  0  0  0  0  0  0  0  0  0
   21.7541   10.7345   18.0385 F   0  0  0  0  0  0  0  0  0  0  0  0
   22.0505   11.9037   19.8606 F   0  0  0  0  0  0  0  0  0  0  0  0
   20.9990   12.7690   18.1610 F   0  0  0  0  0  0  0  0  0  0  0  0
   24.9000   12.9396   20.1768 O   0  0  0  0  0  0  0  0  0  0  0  0
   27.0988   11.6063   20.9190 N   0  0  0  0  0  0  0  0  0  0  0  0
   28.4105   11.3650   21.2574 C   0  0  0  0  0  0  0  0  0  0  0  0
   29.1988   10.8204   20.4898 O   0  0  0  0  0  0  0  0  0  0  0  0
   28.8694   11.8217   22.5934 C   0  0  0  0  0  0  0  0  0  0  0  0
   30.2435   11.9457   22.8335 C   0  0  0  0  0  0  0  0  0  0  0  0
   27.9889   12.1162   23.6385 C   0  0  0  0  0  0  0  0  0  0  0  0
   28.3720   12.5479   24.8701 N   0  0  0  0  0  0  0  0  0  0  0  0
   29.6982   12.6453   25.0550 C   0  0  0  0  0  0  0  0  0  0  0  0
   30.6522   12.3626   24.0879 C   0  0  0  0  0  0  0  0  0  0  0  0
   32.0394   12.5970   24.5904 C   0  0  0  0  0  0  0  0  0  0  0  0
   30.3258   13.1211   26.3346 C   0  0  0  0  0  0  0  0  0  0  0  0
   31.8094   12.7704   26.1088 C   0  0  2  0  0  0  0  0  0  0  0  0
   32.7637   13.7382   26.7583 C   0  0  0  0  0  0  0  0  0  0  0  0
   33.5308   13.0763   27.7056 C   0  0  0  0  0  0  0  0  0  0  0  0
   33.1742   11.7466   27.7502 N   0  0  0  0  0  0  0  0  0  0  0  0
   32.1650   11.4562   26.8507 C   0  0  0  0  0  0  0  0  0  0  0  0
   31.6632   10.3565   26.6848 O   0  0  0  0  0  0  0  0  0  0  0  0
   34.4741   13.6288   28.4689 N   0  0  0  0  0  0  0  0  0  0  0  0
   32.9634   15.0915   26.5620 C   0  0  0  0  0  0  0  0  0  0  0  0
   33.9391   15.7148   27.3389 C   0  0  0  0  0  0  0  0  0  0  0  0
   34.6574   14.9542   28.2641 C   0  0  0  0  0  0  0  0  0  0  0  0
   21.7643    7.8184   20.3193 H   0  0  0  0  0  0  0  0  0  0  0  0
   21.6667    5.7669   18.8811 H   0  0  0  0  0  0  0  0  0  0  0  0
   26.3255    8.9666   17.4377 H   0  0  0  0  0  0  0  0  0  0  0  0
   26.0409   11.1997   16.9355 H   0  0  0  0  0  0  0  0  0  0  0  0
   25.8753    9.3848   20.2836 H   0  0  0  0  0  0  0  0  0  0  0  0
   27.3382    9.2865   19.3615 H   0  0  0  0  0  0  0  0  0  0  0  0
   27.3093   11.6797   18.8584 H   0  0  0  0  0  0  0  0  0  0  0  0
   24.1836   11.2819   15.4356 H   0  0  0  0  0  0  0  0  0  0  0  0
   24.7864    9.6329   15.4724 H   0  0  0  0  0  0  0  0  0  0  0  0
   23.2896   10.0453   16.3272 H   0  0  0  0  0  0  0  0  0  0  0  0
   23.2458   12.6307   16.8455 H   0  0  0  0  0  0  0  0  0  0  0  0
   23.4761   13.5279   18.3182 H   0  0  0  0  0  0  0  0  0  0  0  0
   26.5368   12.2652   21.4506 H   0  0  0  0  0  0  0  0  0  0  0  0
   30.9673   11.7151   22.0565 H   0  0  0  0  0  0  0  0  0  0  0  0
   26.9138   12.0021   23.5353 H   0  0  0  0  0  0  0  0  0  0  0  0
   32.6921   11.7486   24.3566 H   0  0  0  0  0  0  0  0  0  0  0  0
   32.4433   13.5023   24.1231 H   0  0  0  0  0  0  0  0  0  0  0  0
   30.1561   14.1996   26.4300 H   0  0  0  0  0  0  0  0  0  0  0  0
   29.8872   12.6082   27.1972 H   0  0  0  0  0  0  0  0  0  0  0  0
   33.6018   11.0799   28.3723 H   0  0  0  0  0  0  0  0  0  0  0  0
   32.3866   15.6564   25.8369 H   0  0  0  0  0  0  0  0  0  0  0  0
   34.1411   16.7759   27.2319 H   0  0  0  0  0  0  0  0  0  0  0  0
   35.4232   15.4137   28.8840 H   0  0  0  0  0  0  0  0  0  0  0  0
  1  2  2  0
  2  3  1  0
  3  4  2  0
  4  5  1  0
  5  6  2  0
  1  6  1  0
  1  7  1  0
  4  8  1  0
  5  9  1  0
 10  6  1  0
 11 12  1  0
 13 14  1  0
 14 15  1  0
 11 15  1  0
 12 10  1  0
 10 13  1  0
 12 16  1  0
 11 17  1  0
 17 18  1  0
 18 19  1  0
 18 20  1  0
 18 21  1  0
 15 22  2  0
 14 23  1  0
 23 24  1  0
 24 25  2  0
 24 26  1  0
 28 29  1  0
 29 30  2  0
 30 31  1  0
 27 31  2  0
 27 26  1  0
 26 28  2  0
 31 32  1  0
 30 33  1  0
 34 32  1  1
 34 33  1  0
 34 35  1  0
 35 36  2  0
 36 37  1  0
 37 38  1  0
 38 34  1  0
 38 39  2  0
 36 40  1  0
 35 41  1  0
 41 42  2  0
 40 43  2  0
 43 42  1  0
  2 44  1  0
  3 45  1  0
 10 46  1  1
 12 47  1  1
 13 48  1  0
 13 49  1  0
 14 50  1  1
 16 51  1  0
 16 52  1  0
 16 53  1  0
 17 54  1  0
 17 55  1  0
 23 56  1  0
 27 57  1  0
 28 58  1  0
 32 59  1  0
 32 60  1  0
 33 61  1  0
 33 62  1  0
 37 63  1  0
 41 64  1  0
 42 65  1  0
 43 66  1  0
M  END
> <Uni-Dock RESULT> 
ENERGY=   -4.086  LOWER_BOUND=    0.000  UPPER_BOUND=    0.000
INTER + INTRA:          -4.086
INTER:                  -4.086
INTRA:                   0.000
UNBOUND:                 0.000

$$$$

     RDKit          3D

 66 71  0  0  0  0  0  0  0  0999 V2000
   32.5601   15.1656   26.1953 C   0  0  0  0  0  0  0  0  0  0  0  0
   33.2725   16.2570   26.6971 C   0  0  0  0  0  0  0  0  0  0  0  0
   33.3207   17.4464   25.9726 C   0  0  0  0  0  0  0  0  0  0  0  0
   32.6576   17.5232   24.7538 C   0  0  0  0  0  0  0  0  0  0  0  0
   31.9483   16.4281   24.2617 C   0  0  0  0  0  0  0  0  0  0  0  0
   31.8779   15.2226   24.9742 C   0  0  0  0  0  0  0  0  0  0  0  0
   32.5415   14.0394   26.9209 F   0  0  0  0  0  0  0  0  0  0  0  0
   32.7112   18.6613   24.0478 F   0  0  0  0  0  0  0  0  0  0  0  0
   31.3340   16.5323   23.0727 F   0  0  0  0  0  0  0  0  0  0  0  0
   31.1025   14.0437   24.4041 C   0  0  1  0  0  0  0  0  0  0  0  0
   32.4747   11.9727   24.7696 N   0  0  0  0  0  0  0  0  0  0  0  0
   31.9982   12.9358   23.7627 C   0  0  2  0  0  0  0  0  0  0  0  0
   30.0852   13.4681   25.4230 C   0  0  0  0  0  0  0  0  0  0  0  0
   30.1161   11.9420   25.5143 C   0  0  1  0  0  0  0  0  0  0  0  0
   31.5624   11.4413   25.6778 C   0  0  0  0  0  0  0  0  0  0  0  0
   33.0568   13.5018   22.8105 C   0  0  0  0  0  0  0  0  0  0  0  0
   33.8621   11.4619   24.8047 C   0  0  0  0  0  0  0  0  0  0  0  0
   34.8279   12.1847   25.7478 C   0  0  0  0  0  0  0  0  0  0  0  0
   34.9818   13.4825   25.3978 F   0  0  0  0  0  0  0  0  0  0  0  0
   34.4351   12.1434   27.0358 F   0  0  0  0  0  0  0  0  0  0  0  0
   36.0557   11.6140   25.6805 F   0  0  0  0  0  0  0  0  0  0  0  0
   31.8646   10.5899   26.5147 O   0  0  0  0  0  0  0  0  0  0  0  0
   29.3313   11.4446   26.6399 N   0  0  0  0  0  0  0  0  0  0  0  0
   27.9561   11.4190   26.6016 C   0  0  0  0  0  0  0  0  0  0  0  0
   27.3155   11.8697   25.6563 O   0  0  0  0  0  0  0  0  0  0  0  0
   27.2498   10.7864   27.7439 C   0  0  0  0  0  0  0  0  0  0  0  0
   25.9134   10.3989   27.5854 C   0  0  0  0  0  0  0  0  0  0  0  0
   27.8534   10.5765   28.9872 C   0  0  0  0  0  0  0  0  0  0  0  0
   27.2420    9.9901   30.0513 N   0  0  0  0  0  0  0  0  0  0  0  0
   25.9606    9.6415   29.8539 C   0  0  0  0  0  0  0  0  0  0  0  0
   25.2688    9.8207   28.6646 C   0  0  0  0  0  0  0  0  0  0  0  0
   23.8703    9.3025   28.7516 C   0  0  0  0  0  0  0  0  0  0  0  0
   25.1142    8.9641   30.8944 C   0  0  0  0  0  0  0  0  0  0  0  0
   23.7088    9.0579   30.2689 C   0  0  2  0  0  0  0  0  0  0  0  0
   22.8211    7.8873   30.6016 C   0  0  0  0  0  0  0  0  0  0  0  0
   21.7122    8.3258   31.3103 C   0  0  0  0  0  0  0  0  0  0  0  0
   21.7779    9.6907   31.4840 N   0  0  0  0  0  0  0  0  0  0  0  0
   22.9169   10.2260   30.9112 C   0  0  0  0  0  0  0  0  0  0  0  0
   23.2213   11.4076   30.9184 O   0  0  0  0  0  0  0  0  0  0  0  0
   20.7233    7.5558   31.7650 N   0  0  0  0  0  0  0  0  0  0  0  0
   22.9490    6.5392   30.3260 C   0  0  0  0  0  0  0  0  0  0  0  0
   21.9396    5.6928   30.7829 C   0  0  0  0  0  0  0  0  0  0  0  0
   20.8636    6.2387   31.4864 C   0  0  0  0  0  0  0  0  0  0  0  0
   33.7866   16.1662   27.6506 H   0  0  0  0  0  0  0  0  0  0  0  0
   33.8702   18.3054   26.3455 H   0  0  0  0  0  0  0  0  0  0  0  0
   30.4920   14.4384   23.5779 H   0  0  0  0  0  0  0  0  0  0  0  0
   31.3305   12.3381   23.1245 H   0  0  0  0  0  0  0  0  0  0  0  0
   30.2254   13.8921   26.4252 H   0  0  0  0  0  0  0  0  0  0  0  0
   29.0775   13.7953   25.1318 H   0  0  0  0  0  0  0  0  0  0  0  0
   29.7063   11.4920   24.6020 H   0  0  0  0  0  0  0  0  0  0  0  0
   33.5042   12.7066   22.2053 H   0  0  0  0  0  0  0  0  0  0  0  0
   32.6056   14.2124   22.1094 H   0  0  0  0  0  0  0  0  0  0  0  0
   33.8648   14.0123   23.3405 H   0  0  0  0  0  0  0  0  0  0  0  0
   34.2678   11.4452   23.7904 H   0  0  0  0  0  0  0  0  0  0  0  0
   33.8254   10.4114   25.1179 H   0  0  0  0  0  0  0  0  0  0  0  0
   29.8449   10.8591   27.2926 H   0  0  0  0  0  0  0  0  0  0  0  0
   25.3972   10.5540   26.6419 H   0  0  0  0  0  0  0  0  0  0  0  0
   28.8728   10.8900   29.1929 H   0  0  0  0  0  0  0  0  0  0  0  0
   23.1536   10.0348   28.3634 H   0  0  0  0  0  0  0  0  0  0  0  0
   23.7922    8.3776   28.1688 H   0  0  0  0  0  0  0  0  0  0  0  0
   25.4578    7.9298   31.0086 H   0  0  0  0  0  0  0  0  0  0  0  0
   25.1939    9.4802   31.8570 H   0  0  0  0  0  0  0  0  0  0  0  0
   21.0765   10.2200   31.9762 H   0  0  0  0  0  0  0  0  0  0  0  0
   23.7993    6.1445   29.7793 H   0  0  0  0  0  0  0  0  0  0  0  0
   21.9844    4.6240   30.5990 H   0  0  0  0  0  0  0  0  0  0  0  0
   20.0628    5.6027   31.8553 H   0  0  0  0  0  0  0  0  0  0  0  0
  1  2  2  0
  2  3  1  0
  3  4  2  0
  4  5  1  0
  5  6  2  0
  1  6  1  0
  1  7  1  0
  4  8  1  0
  5  9  1  0
 10  6  1  0
 11 12  1  0
 13 14  1  0
 14 15  1  0
 11 15  1  0
 12 10  1  0
 10 13  1  0
 12 16  1  0
 11 17  1  0
 17 18  1  0
 18 19  1  0
 18 20  1  0
 18 21  1  0
 15 22  2  0
 14 23  1  0
 23 24  1  0
 24 25  2  0
 24 26  1  0
 28 29  1  0
 29 30  2  0
 30 31  1  0
 27 31  2  0
 27 26  1  0
 26 28  2  0
 31 32  1  0
 30 33  1  0
 34 32  1  1
 34 33  1  0
 34 35  1  0
 35 36  2  0
 36 37  1  0
 37 38  1  0
 38 34  1  0
 38 39  2  0
 36 40  1  0
 35 41  1  0
 41 42  2  0
 40 43  2  0
 43 42  1  0
  2 44  1  0
  3 45  1  0
 10 46  1  1
 12 47  1  1
 13 48  1  0
 13 49  1  0
 14 50  1  1
 16 51  1  0
 16 52  1  0
 16 53  1  0
 17 54  1  0
 17 55  1  0
 23 56  1  0
 27 57  1  0
 28 58  1  0
 32 59  1  0
 32 60  1  0
 33 61  1  0
 33 62  1  0
 37 63  1  0
 41 64  1  0
 42 65  1  0
 43 66  1  0
M  END
> <Uni-Dock RESULT> 
ENERGY=   -4.045  LOWER_BOUND=    7.594  UPPER_BOUND=   11.768
INTER + INTRA:          -4.045
INTER:                  -4.045
INTRA:                   0.000
UNBOUND:                 0.000

$$$$

     RDKit          3D

 66 71  0  0  0  0  0  0  0  0999 V2000
   37.6228   11.4480   29.5448 C   0  0  0  0  0  0  0  0  0  0  0  0
   38.9785   11.2450   29.2775 C   0  0  0  0  0  0  0  0  0  0  0  0
   39.6246   10.1191   29.7843 C   0  0  0  0  0  0  0  0  0  0  0  0
   38.9034    9.2154   30.5551 C   0  0  0  0  0  0  0  0  0  0  0  0
   37.5499    9.4265   30.8158 C   0  0  0  0  0  0  0  0  0  0  0  0
   36.8745   10.5470   30.3116 C   0  0  0  0  0  0  0  0  0  0  0  0
   37.0401   12.5447   29.0420 F   0  0  0  0  0  0  0  0  0  0  0  0
   39.5236    8.1372   31.0548 F   0  0  0  0  0  0  0  0  0  0  0  0
   36.8888    8.5416   31.5785 F   0  0  0  0  0  0  0  0  0  0  0  0
   35.3990   10.7521   30.6226 C   0  0  1  0  0  0  0  0  0  0  0  0
   35.0619   13.1760   31.1848 N   0  0  0  0  0  0  0  0  0  0  0  0
   35.1185   11.8117   31.7359 C   0  0  2  0  0  0  0  0  0  0  0  0
   34.5629   11.0026   29.3408 C   0  0  0  0  0  0  0  0  0  0  0  0
   33.5854   12.1711   29.4735 C   0  0  1  0  0  0  0  0  0  0  0  0
   34.3005   13.4097   30.0423 C   0  0  0  0  0  0  0  0  0  0  0  0
   35.9939   11.6174   32.9783 C   0  0  0  0  0  0  0  0  0  0  0  0
   35.6965   14.3390   31.8421 C   0  0  0  0  0  0  0  0  0  0  0  0
   37.0942   14.7197   31.3462 C   0  0  0  0  0  0  0  0  0  0  0  0
   37.9819   13.7203   31.5551 F   0  0  0  0  0  0  0  0  0  0  0  0
   37.1202   15.0343   30.0365 F   0  0  0  0  0  0  0  0  0  0  0  0
   37.5513   15.7971   32.0304 F   0  0  0  0  0  0  0  0  0  0  0  0
   34.1539   14.5285   29.5488 O   0  0  0  0  0  0  0  0  0  0  0  0
   32.9912   12.5363   28.1914 N   0  0  0  0  0  0  0  0  0  0  0  0
   32.0050   11.7710   27.6125 C   0  0  0  0  0  0  0  0  0  0  0  0
   31.6195   10.7134   28.1026 O   0  0  0  0  0  0  0  0  0  0  0  0
   31.3791   12.2854   26.3684 C   0  0  0  0  0  0  0  0  0  0  0  0
   30.1470   11.7593   25.9605 C   0  0  0  0  0  0  0  0  0  0  0  0
   31.9758   13.2628   25.5667 C   0  0  0  0  0  0  0  0  0  0  0  0
   31.4271   13.7659   24.4284 N   0  0  0  0  0  0  0  0  0  0  0  0
   30.2496   13.2270   24.0744 C   0  0  0  0  0  0  0  0  0  0  0  0
   29.5844   12.2437   24.7929 C   0  0  0  0  0  0  0  0  0  0  0  0
   28.2839   11.8746   24.1572 C   0  0  0  0  0  0  0  0  0  0  0  0
   29.4701   13.6559   22.8636 C   0  0  0  0  0  0  0  0  0  0  0  0
   28.3934   12.5567   22.7748 C   0  0  2  0  0  0  0  0  0  0  0  0
   27.0747   13.0461   22.2359 C   0  0  0  0  0  0  0  0  0  0  0  0
   26.7752   12.3829   21.0550 C   0  0  0  0  0  0  0  0  0  0  0  0
   27.7794   11.4900   20.7524 N   0  0  0  0  0  0  0  0  0  0  0  0
   28.7868   11.5115   21.6993 C   0  0  0  0  0  0  0  0  0  0  0  0
   29.7924   10.8209   21.6749 O   0  0  0  0  0  0  0  0  0  0  0  0
   25.6852   12.5707   20.3105 N   0  0  0  0  0  0  0  0  0  0  0  0
   26.1908   13.9951   22.7132 C   0  0  0  0  0  0  0  0  0  0  0  0
   25.0359   14.2281   21.9675 C   0  0  0  0  0  0  0  0  0  0  0  0
   24.8300   13.5028   20.7919 C   0  0  0  0  0  0  0  0  0  0  0  0
   39.5189   11.9720   28.6764 H   0  0  0  0  0  0  0  0  0  0  0  0
   40.6781    9.9444   29.5884 H   0  0  0  0  0  0  0  0  0  0  0  0
   35.0273    9.7989   31.0281 H   0  0  0  0  0  0  0  0  0  0  0  0
   34.0900   11.6255   32.0793 H   0  0  0  0  0  0  0  0  0  0  0  0
   35.1997   11.1633   28.4619 H   0  0  0  0  0  0  0  0  0  0  0  0
   34.0051   10.0861   29.1041 H   0  0  0  0  0  0  0  0  0  0  0  0
   32.7661   11.9139   30.1556 H   0  0  0  0  0  0  0  0  0  0  0  0
   35.6194   12.2119   33.8180 H   0  0  0  0  0  0  0  0  0  0  0  0
   35.9768   10.5714   33.3034 H   0  0  0  0  0  0  0  0  0  0  0  0
   37.0343   11.9034   32.8049 H   0  0  0  0  0  0  0  0  0  0  0  0
   35.7102   14.1811   32.9232 H   0  0  0  0  0  0  0  0  0  0  0  0
   35.0469   15.2088   31.6860 H   0  0  0  0  0  0  0  0  0  0  0  0
   33.1232   13.5068   27.9208 H   0  0  0  0  0  0  0  0  0  0  0  0
   29.6507   10.9881   26.5435 H   0  0  0  0  0  0  0  0  0  0  0  0
   32.9492   13.6841   25.8005 H   0  0  0  0  0  0  0  0  0  0  0  0
   28.1758   10.7867   24.0836 H   0  0  0  0  0  0  0  0  0  0  0  0
   27.4617   12.2789   24.7585 H   0  0  0  0  0  0  0  0  0  0  0  0
   29.0460   14.6488   23.0517 H   0  0  0  0  0  0  0  0  0  0  0  0
   30.1162   13.6999   21.9805 H   0  0  0  0  0  0  0  0  0  0  0  0
   27.7698   10.9035   19.9336 H   0  0  0  0  0  0  0  0  0  0  0  0
   26.3804   14.5452   23.6292 H   0  0  0  0  0  0  0  0  0  0  0  0
   24.3044   14.9624   22.2899 H   0  0  0  0  0  0  0  0  0  0  0  0
   23.9392   13.6642   20.1900 H   0  0  0  0  0  0  0  0  0  0  0  0
  1  2  2  0
  2  3  1  0
  3  4  2  0
  4  5  1  0
  5  6  2  0
  1  6  1  0
  1  7  1  0
  4  8  1  0
  5  9  1  0
 10  6  1  0
 11 12  1  0
 13 14  1  0
 14 15  1  0
 11 15  1  0
 12 10  1  0
 10 13  1  0
 12 16  1  0
 11 17  1  0
 17 18  1  0
 18 19  1  0
 18 20  1  0
 18 21  1  0
 15 22  2  0
 14 23  1  0
 23 24  1  0
 24 25  2  0
 24 26  1  0
 28 29  1  0
 29 30  2  0
 30 31  1  0
 27 31  2  0
 27 26  1  0
 26 28  2  0
 31 32  1  0
 30 33  1  0
 34 32  1  1
 34 33  1  0
 34 35  1  0
 35 36  2  0
 36 37  1  0
 37 38  1  0
 38 34  1  0
 38 39  2  0
 36 40  1  0
 35 41  1  0
 41 42  2  0
 40 43  2  0
 43 42  1  0
  2 44  1  0
  3 45  1  0
 10 46  1  1
 12 47  1  1
 13 48  1  0
 13 49  1  0
 14 50  1  1
 16 51  1  0
 16 52  1  0
 16 53  1  0
 17 54  1  0
 17 55  1  0
 23 56  1  0
 27 57  1  0
 28 58  1  0
 32 59  1  0
 32 60  1  0
 33 61  1  0
 33 62  1  0
 37 63  1  0
 41 64  1  0
 42 65  1  0
 43 66  1  0
M  END
> <Uni-Dock RESULT> 
ENERGY=   -3.970  LOWER_BOUND=    7.616  UPPER_BOUND=   13.933
INTER + INTRA:          -3.970
INTER:                  -3.970
INTRA:                   0.000
UNBOUND:                 0.000

$$$$

     RDKit          3D

 66 71  0  0  0  0  0  0  0  0999 V2000
   24.9131    6.9078   30.8542 C   0  0  0  0  0  0  0  0  0  0  0  0
   24.8597    5.5496   31.1753 C   0  0  0  0  0  0  0  0  0  0  0  0
   23.6485    4.8651   31.0964 C   0  0  0  0  0  0  0  0  0  0  0  0
   22.5076    5.5529   30.7010 C   0  0  0  0  0  0  0  0  0  0  0  0
   22.5713    6.9089   30.3817 C   0  0  0  0  0  0  0  0  0  0  0  0
   23.7786    7.6189   30.4456 C   0  0  0  0  0  0  0  0  0  0  0  0
   26.0962    7.5298   30.9464 F   0  0  0  0  0  0  0  0  0  0  0  0
   21.3380    4.9015   30.6353 F   0  0  0  0  0  0  0  0  0  0  0  0
   21.4462    7.5453   30.0201 F   0  0  0  0  0  0  0  0  0  0  0  0
   23.8115    9.1004   30.0991 C   0  0  1  0  0  0  0  0  0  0  0  0
   25.2444   10.2571   31.8063 N   0  0  0  0  0  0  0  0  0  0  0  0
   23.8634   10.0490   31.3395 C   0  0  2  0  0  0  0  0  0  0  0  0
   24.9085    9.4300   29.0538 C   0  0  0  0  0  0  0  0  0  0  0  0
   25.7419   10.6595   29.4170 C   0  0  1  0  0  0  0  0  0  0  0  0
   26.2308   10.5680   30.8736 C   0  0  0  0  0  0  0  0  0  0  0  0
   22.8319    9.6848   32.4124 C   0  0  0  0  0  0  0  0  0  0  0  0
   25.6228   10.2499   33.2359 C   0  0  0  0  0  0  0  0  0  0  0  0
   26.1514    8.9247   33.7915 C   0  0  0  0  0  0  0  0  0  0  0  0
   25.2189    7.9478   33.7105 F   0  0  0  0  0  0  0  0  0  0  0  0
   27.2617    8.4953   33.1607 F   0  0  0  0  0  0  0  0  0  0  0  0
   26.4595    9.0624   35.1045 F   0  0  0  0  0  0  0  0  0  0  0  0
   27.3973   10.8120   31.1841 O   0  0  0  0  0  0  0  0  0  0  0  0
   26.9090   10.8048   28.5525 N   0  0  0  0  0  0  0  0  0  0  0  0
   26.7931   11.2597   27.2591 C   0  0  0  0  0  0  0  0  0  0  0  0
   25.7066   11.5032   26.7419 O   0  0  0  0  0  0  0  0  0  0  0  0
   28.0467   11.4871   26.4971 C   0  0  0  0  0  0  0  0  0  0  0  0
   28.0076   12.2882   25.3490 C   0  0  0  0  0  0  0  0  0  0  0  0
   29.2703   10.9179   26.8617 C   0  0  0  0  0  0  0  0  0  0  0  0
   30.4399   11.1133   26.1954 N   0  0  0  0  0  0  0  0  0  0  0  0
   30.3517   11.8827   25.0987 C   0  0  0  0  0  0  0  0  0  0  0  0
   29.1839   12.4800   24.6462 C   0  0  0  0  0  0  0  0  0  0  0  0
   29.4178   13.2984   23.4185 C   0  0  0  0  0  0  0  0  0  0  0  0
   31.5293   12.2362   24.2350 C   0  0  0  0  0  0  0  0  0  0  0  0
   30.8432   12.8657   23.0069 C   0  0  2  0  0  0  0  0  0  0  0  0
   31.6473   13.9657   22.3646 C   0  0  0  0  0  0  0  0  0  0  0  0
   31.9689   13.6127   21.0623 C   0  0  0  0  0  0  0  0  0  0  0  0
   31.4514   12.3693   20.7734 N   0  0  0  0  0  0  0  0  0  0  0  0
   30.7697   11.8348   21.8512 C   0  0  0  0  0  0  0  0  0  0  0  0
   30.2146   10.7484   21.8660 O   0  0  0  0  0  0  0  0  0  0  0  0
   32.6743   14.3521   20.2059 N   0  0  0  0  0  0  0  0  0  0  0  0
   32.0815   15.1826   22.8548 C   0  0  0  0  0  0  0  0  0  0  0  0
   32.8250   15.9913   21.9962 C   0  0  0  0  0  0  0  0  0  0  0  0
   33.0915   15.5405   20.7014 C   0  0  0  0  0  0  0  0  0  0  0  0
   25.7672    5.0387   31.4874 H   0  0  0  0  0  0  0  0  0  0  0  0
   23.5866    3.8095   31.3430 H   0  0  0  0  0  0  0  0  0  0  0  0
   22.8581    9.3279   29.5988 H   0  0  0  0  0  0  0  0  0  0  0  0
   23.5582   11.0412   30.9751 H   0  0  0  0  0  0  0  0  0  0  0  0
   25.5784    8.5783   28.8814 H   0  0  0  0  0  0  0  0  0  0  0  0
   24.4248    9.5921   28.0807 H   0  0  0  0  0  0  0  0  0  0  0  0
   25.1441   11.5738   29.3204 H   0  0  0  0  0  0  0  0  0  0  0  0
   22.7299   10.4904   33.1468 H   0  0  0  0  0  0  0  0  0  0  0  0
   21.8423    9.5426   31.9646 H   0  0  0  0  0  0  0  0  0  0  0  0
   23.0959    8.7723   32.9526 H   0  0  0  0  0  0  0  0  0  0  0  0
   24.7793   10.6003   33.8356 H   0  0  0  0  0  0  0  0  0  0  0  0
   26.4096   11.0005   33.3788 H   0  0  0  0  0  0  0  0  0  0  0  0
   27.7993   10.8452   29.0407 H   0  0  0  0  0  0  0  0  0  0  0  0
   27.0770   12.7413   25.0180 H   0  0  0  0  0  0  0  0  0  0  0  0
   29.3648   10.2534   27.7156 H   0  0  0  0  0  0  0  0  0  0  0  0
   28.6706   13.0766   22.6484 H   0  0  0  0  0  0  0  0  0  0  0  0
   29.3629   14.3615   23.6788 H   0  0  0  0  0  0  0  0  0  0  0  0
   32.1621   12.9482   24.7770 H   0  0  0  0  0  0  0  0  0  0  0  0
   32.1154   11.3435   23.9920 H   0  0  0  0  0  0  0  0  0  0  0  0
   31.5688   11.9148   19.8823 H   0  0  0  0  0  0  0  0  0  0  0  0
   31.8609   15.5039   23.8676 H   0  0  0  0  0  0  0  0  0  0  0  0
   33.1954   16.9575   22.3238 H   0  0  0  0  0  0  0  0  0  0  0  0
   33.6695   16.1494   20.0106 H   0  0  0  0  0  0  0  0  0  0  0  0
  1  2  2  0
  2  3  1  0
  3  4  2  0
  4  5  1  0
  5  6  2  0
  1  6  1  0
  1  7  1  0
  4  8  1  0
  5  9  1  0
 10  6  1  0
 11 12  1  0
 13 14  1  0
 14 15  1  0
 11 15  1  0
 12 10  1  0
 10 13  1  0
 12 16  1  0
 11 17  1  0
 17 18  1  0
 18 19  1  0
 18 20  1  0
 18 21  1  0
 15 22  2  0
 14 23  1  0
 23 24  1  0
 24 25  2  0
 24 26  1  0
 28 29  1  0
 29 30  2  0
 30 31  1  0
 27 31  2  0
 27 26  1  0
 26 28  2  0
 31 32  1  0
 30 33  1  0
 34 32  1  1
 34 33  1  0
 34 35  1  0
 35 36  2  0
 36 37  1  0
 37 38  1  0
 38 34  1  0
 38 39  2  0
 36 40  1  0
 35 41  1  0
 41 42  2  0
 40 43  2  0
 43 42  1  0
  2 44  1  0
  3 45  1  0
 10 46  1  1
 12 47  1  1
 13 48  1  0
 13 49  1  0
 14 50  1  1
 16 51  1  0
 16 52  1  0
 16 53  1  0
 17 54  1  0
 17 55  1  0
 23 56  1  0
 27 57  1  0
 28 58  1  0
 32 59  1  0
 32 60  1  0
 33 61  1  0
 33 62  1  0
 37 63  1  0
 41 64  1  0
 42 65  1  0
 43 66  1  0
M  END
> <Uni-Dock RESULT> 
ENERGY=   -3.922  LOWER_BOUND=    7.614  UPPER_BOUND=   10.338
INTER + INTRA:          -3.922
INTER:                  -3.922
INTRA:                   0.000
UNBOUND:                 0.000

$$$$

     RDKit          3D

 66 71  0  0  0  0  0  0  0  0999 V2000
   24.2577    6.9225   30.6658 C   0  0  0  0  0  0  0  0  0  0  0  0
   24.0142    5.5575   30.8338 C   0  0  0  0  0  0  0  0  0  0  0  0
   22.7203    5.0607   30.6896 C   0  0  0  0  0  0  0  0  0  0  0  0
   21.6886    5.9398   30.3834 C   0  0  0  0  0  0  0  0  0  0  0  0
   21.9421    7.3009   30.2168 C   0  0  0  0  0  0  0  0  0  0  0  0
   23.2357    7.8252   30.3490 C   0  0  0  0  0  0  0  0  0  0  0  0
   25.5150    7.3602   30.8165 F   0  0  0  0  0  0  0  0  0  0  0  0
   20.4404    5.4683   30.2556 F   0  0  0  0  0  0  0  0  0  0  0  0
   20.9186    8.1236   29.9384 F   0  0  0  0  0  0  0  0  0  0  0  0
   23.4761    9.3172   30.1697 C   0  0  1  0  0  0  0  0  0  0  0  0
   25.0438   10.0660   31.9827 N   0  0  0  0  0  0  0  0  0  0  0  0
   23.6506   10.1049   31.5077 C   0  0  2  0  0  0  0  0  0  0  0  0
   24.6154    9.6062   29.1582 C   0  0  0  0  0  0  0  0  0  0  0  0
   25.6089   10.6600   29.6490 C   0  0  1  0  0  0  0  0  0  0  0  0
   26.0702   10.3394   31.0820 C   0  0  0  0  0  0  0  0  0  0  0  0
   22.5712    9.7696   32.5422 C   0  0  0  0  0  0  0  0  0  0  0  0
   25.4078    9.8468   33.3993 C   0  0  0  0  0  0  0  0  0  0  0  0
   25.7436    8.4074   33.7989 C   0  0  0  0  0  0  0  0  0  0  0  0
   24.6851    7.5844   33.6175 F   0  0  0  0  0  0  0  0  0  0  0  0
   26.7879    7.9014   33.1145 F   0  0  0  0  0  0  0  0  0  0  0  0
   26.0587    8.3535   35.1163 F   0  0  0  0  0  0  0  0  0  0  0  0
   27.2572   10.3831   31.4076 O   0  0  0  0  0  0  0  0  0  0  0  0
   26.7907   10.7377   28.7960 N   0  0  0  0  0  0  0  0  0  0  0  0
   26.7479   11.3459   27.5625 C   0  0  0  0  0  0  0  0  0  0  0  0
   25.7093   11.7939   27.0852 O   0  0  0  0  0  0  0  0  0  0  0  0
   28.0262   11.4810   26.8197 C   0  0  0  0  0  0  0  0  0  0  0  0
   28.1065   12.4030   25.7685 C   0  0  0  0  0  0  0  0  0  0  0  0
   29.1565   10.7105   27.1078 C   0  0  0  0  0  0  0  0  0  0  0  0
   30.3464   10.8151   26.4573 N   0  0  0  0  0  0  0  0  0  0  0  0
   30.3734   11.7070   25.4542 C   0  0  0  0  0  0  0  0  0  0  0  0
   29.3028   12.5071   25.0813 C   0  0  0  0  0  0  0  0  0  0  0  0
   29.6565   13.4172   23.9506 C   0  0  0  0  0  0  0  0  0  0  0  0
   31.5945   11.9881   24.6250 C   0  0  0  0  0  0  0  0  0  0  0  0
   31.0109   12.8399   23.4809 C   0  0  2  0  0  0  0  0  0  0  0  0
   31.9641   13.8826   22.9583 C   0  0  0  0  0  0  0  0  0  0  0  0
   32.2426   13.6361   21.6220 C   0  0  0  0  0  0  0  0  0  0  0  0
   31.5597   12.5166   21.2007 N   0  0  0  0  0  0  0  0  0  0  0  0
   30.8030   11.9648   22.2180 C   0  0  0  0  0  0  0  0  0  0  0  0
   30.1025   10.9709   22.1164 O   0  0  0  0  0  0  0  0  0  0  0  0
   33.0496   14.3616   20.8474 N   0  0  0  0  0  0  0  0  0  0  0  0
   32.5596   14.9651   23.5775 C   0  0  0  0  0  0  0  0  0  0  0  0
   33.4140   15.7537   22.8080 C   0  0  0  0  0  0  0  0  0  0  0  0
   33.6243   15.4178   21.4687 C   0  0  0  0  0  0  0  0  0  0  0  0
   24.8399    4.8942   31.0790 H   0  0  0  0  0  0  0  0  0  0  0  0
   22.5109    4.0030   30.8174 H   0  0  0  0  0  0  0  0  0  0  0  0
   22.5670    9.7291   29.7062 H   0  0  0  0  0  0  0  0  0  0  0  0
   23.4885   11.1642   31.2590 H   0  0  0  0  0  0  0  0  0  0  0  0
   25.1619    8.6945   28.8860 H   0  0  0  0  0  0  0  0  0  0  0  0
   24.1656    9.9415   28.2135 H   0  0  0  0  0  0  0  0  0  0  0  0
   25.1443   11.6533   29.6603 H   0  0  0  0  0  0  0  0  0  0  0  0
   22.5769   10.4944   33.3629 H   0  0  0  0  0  0  0  0  0  0  0  0
   21.5745    9.8168   32.0900 H   0  0  0  0  0  0  0  0  0  0  0  0
   22.7024    8.7747   32.9750 H   0  0  0  0  0  0  0  0  0  0  0  0
   24.6170   10.2414   34.0417 H   0  0  0  0  0  0  0  0  0  0  0  0
   26.2901   10.4604   33.6182 H   0  0  0  0  0  0  0  0  0  0  0  0
   27.6746   10.5995   29.2779 H   0  0  0  0  0  0  0  0  0  0  0  0
   27.2501   13.0148   25.4983 H   0  0  0  0  0  0  0  0  0  0  0  0
   29.1520    9.9482   27.8814 H   0  0  0  0  0  0  0  0  0  0  0  0
   28.8910   13.3886   23.1671 H   0  0  0  0  0  0  0  0  0  0  0  0
   29.7477   14.4419   24.3283 H   0  0  0  0  0  0  0  0  0  0  0  0
   32.3162   12.5404   25.2375 H   0  0  0  0  0  0  0  0  0  0  0  0
   32.0527   11.0556   24.2788 H   0  0  0  0  0  0  0  0  0  0  0  0
   31.6189   12.1526   20.2635 H   0  0  0  0  0  0  0  0  0  0  0  0
   32.3787   15.1987   24.6217 H   0  0  0  0  0  0  0  0  0  0  0  0
   33.9126   16.6165   23.2381 H   0  0  0  0  0  0  0  0  0  0  0  0
   34.2859   16.0140   20.8452 H   0  0  0  0  0  0  0  0  0  0  0  0
  1  2  2  0
  2  3  1  0
  3  4  2  0
  4  5  1  0
  5  6  2  0
  1  6  1  0
  1  7  1  0
  4  8  1  0
  5  9  1  0
 10  6  1  0
 11 12  1  0
 13 14  1  0
 14 15  1  0
 11 15  1  0
 12 10  1  0
 10 13  1  0
 12 16  1  0
 11 17  1  0
 17 18  1  0
 18 19  1  0
 18 20  1  0
 18 21  1  0
 15 22  2  0
 14 23  1  0
 23 24  1  0
 24 25  2  0
 24 26  1  0
 28 29  1  0
 29 30  2  0
 30 31  1  0
 27 31  2  0
 27 26  1  0
 26 28  2  0
 31 32  1  0
 30 33  1  0
 34 32  1  1
 34 33  1  0
 34 35  1  0
 35 36  2  0
 36 37  1  0
 37 38  1  0
 38 34  1  0
 38 39  2  0
 36 40  1  0
 35 41  1  0
 41 42  2  0
 40 43  2  0
 43 42  1  0
  2 44  1  0
  3 45  1  0
 10 46  1  1
 12 47  1  1
 13 48  1  0
 13 49  1  0
 14 50  1  1
 16 51  1  0
 16 52  1  0
 16 53  1  0
 17 54  1  0
 17 55  1  0
 23 56  1  0
 27 57  1  0
 28 58  1  0
 32 59  1  0
 32 60  1  0
 33 61  1  0
 33 62  1  0
 37 63  1  0
 41 64  1  0
 42 65  1  0
 43 66  1  0
M  END
> <Uni-Dock RESULT> 
ENERGY=   -3.908  LOWER_BOUND=    7.656  UPPER_BOUND=   10.278
INTER + INTRA:          -3.908
INTER:                  -3.908
INTRA:                   0.000
UNBOUND:                 0.000

$$$$

     RDKit          3D

 66 71  0  0  0  0  0  0  0  0999 V2000
   28.2247   11.1470   20.8852 C   0  0  0  0  0  0  0  0  0  0  0  0
   28.1750   10.4361   19.6840 C   0  0  0  0  0  0  0  0  0  0  0  0
   29.3449   10.2144   18.9601 C   0  0  0  0  0  0  0  0  0  0  0  0
   30.5469   10.7121   19.4485 C   0  0  0  0  0  0  0  0  0  0  0  0
   30.5862   11.4201   20.6493 C   0  0  0  0  0  0  0  0  0  0  0  0
   29.4250   11.6504   21.4005 C   0  0  0  0  0  0  0  0  0  0  0  0
   27.0771   11.3415   21.5487 F   0  0  0  0  0  0  0  0  0  0  0  0
   31.6729   10.5116   18.7496 F   0  0  0  0  0  0  0  0  0  0  0  0
   31.7622   11.9011   21.0823 F   0  0  0  0  0  0  0  0  0  0  0  0
   29.5017   12.4348   22.7023 C   0  0  1  0  0  0  0  0  0  0  0  0
   27.5610   14.0273   22.7553 N   0  0  0  0  0  0  0  0  0  0  0  0
   29.0198   13.9167   22.5886 C   0  0  2  0  0  0  0  0  0  0  0  0
   28.8278   11.6803   23.8776 C   0  0  0  0  0  0  0  0  0  0  0  0
   27.9109   12.5671   24.7209 C   0  0  1  0  0  0  0  0  0  0  0  0
   26.9524   13.3638   23.8179 C   0  0  0  0  0  0  0  0  0  0  0  0
   29.6230   14.6492   21.3856 C   0  0  0  0  0  0  0  0  0  0  0  0
   26.7148   14.8922   21.9050 C   0  0  0  0  0  0  0  0  0  0  0  0
   26.0377   14.2154   20.7100 C   0  0  0  0  0  0  0  0  0  0  0  0
   26.9488   13.7193   19.8416 F   0  0  0  0  0  0  0  0  0  0  0  0
   25.2148   13.2116   21.0706 F   0  0  0  0  0  0  0  0  0  0  0  0
   25.2965   15.1197   20.0239 F   0  0  0  0  0  0  0  0  0  0  0  0
   25.7483   13.4480   24.0626 O   0  0  0  0  0  0  0  0  0  0  0  0
   27.1105   11.7893   25.6616 N   0  0  0  0  0  0  0  0  0  0  0  0
   27.6600   11.2605   26.8069 C   0  0  0  0  0  0  0  0  0  0  0  0
   28.8561   11.3543   27.0672 O   0  0  0  0  0  0  0  0  0  0  0  0
   26.7426   10.5869   27.7600 C   0  0  0  0  0  0  0  0  0  0  0  0
   27.1673   10.3767   29.0779 C   0  0  0  0  0  0  0  0  0  0  0  0
   25.4725   10.1296   27.3965 C   0  0  0  0  0  0  0  0  0  0  0  0
   24.6014    9.5197   28.2445 N   0  0  0  0  0  0  0  0  0  0  0  0
   25.0548    9.3347   29.4946 C   0  0  0  0  0  0  0  0  0  0  0  0
   26.3024    9.7379   29.9487 C   0  0  0  0  0  0  0  0  0  0  0  0
   26.4980    9.4170   31.3946 C   0  0  0  0  0  0  0  0  0  0  0  0
   24.2427    8.6990   30.5873 C   0  0  0  0  0  0  0  0  0  0  0  0
   25.3039    8.4793   31.6831 C   0  0  2  0  0  0  0  0  0  0  0  0
   24.7609    8.6048   33.0825 C   0  0  0  0  0  0  0  0  0  0  0  0
   24.9086    7.3995   33.7530 C   0  0  0  0  0  0  0  0  0  0  0  0
   25.5034    6.4734   32.9248 N   0  0  0  0  0  0  0  0  0  0  0  0
   25.7777    7.0030   31.6773 C   0  0  0  0  0  0  0  0  0  0  0  0
   26.3022    6.4003   30.7551 O   0  0  0  0  0  0  0  0  0  0  0  0
   24.5345    7.1555   35.0092 N   0  0  0  0  0  0  0  0  0  0  0  0
   24.1754    9.6695   33.7409 C   0  0  0  0  0  0  0  0  0  0  0  0
   23.7657    9.4623   35.0574 C   0  0  0  0  0  0  0  0  0  0  0  0
   23.9634    8.2083   35.6397 C   0  0  0  0  0  0  0  0  0  0  0  0
   27.2195   10.0636   19.3232 H   0  0  0  0  0  0  0  0  0  0  0  0
   29.3265    9.6650   18.0238 H   0  0  0  0  0  0  0  0  0  0  0  0
   30.5672   12.4954   22.9711 H   0  0  0  0  0  0  0  0  0  0  0  0
   29.4240   14.4353   23.4707 H   0  0  0  0  0  0  0  0  0  0  0  0
   28.2644   10.8045   23.5321 H   0  0  0  0  0  0  0  0  0  0  0  0
   29.6150   11.2577   24.5172 H   0  0  0  0  0  0  0  0  0  0  0  0
   28.4986   13.2865   25.3039 H   0  0  0  0  0  0  0  0  0  0  0  0
   29.4604   15.7292   21.4631 H   0  0  0  0  0  0  0  0  0  0  0  0
   30.7072   14.4982   21.3450 H   0  0  0  0  0  0  0  0  0  0  0  0
   29.1965   14.3150   20.4365 H   0  0  0  0  0  0  0  0  0  0  0  0
   27.2983   15.7529   21.5697 H   0  0  0  0  0  0  0  0  0  0  0  0
   25.9209   15.3101   22.5359 H   0  0  0  0  0  0  0  0  0  0  0  0
   26.1065   11.9222   25.5793 H   0  0  0  0  0  0  0  0  0  0  0  0
   28.1514   10.7022   29.4040 H   0  0  0  0  0  0  0  0  0  0  0  0
   25.0957   10.2219   26.3821 H   0  0  0  0  0  0  0  0  0  0  0  0
   27.4658    8.9320   31.5634 H   0  0  0  0  0  0  0  0  0  0  0  0
   26.4521   10.3434   31.9783 H   0  0  0  0  0  0  0  0  0  0  0  0
   23.4569    9.3986   30.8941 H   0  0  0  0  0  0  0  0  0  0  0  0
   23.7826    7.7683   30.2388 H   0  0  0  0  0  0  0  0  0  0  0  0
   25.7026    5.5271   33.2062 H   0  0  0  0  0  0  0  0  0  0  0  0
   24.0324   10.6317   33.2600 H   0  0  0  0  0  0  0  0  0  0  0  0
   23.2979   10.2595   35.6263 H   0  0  0  0  0  0  0  0  0  0  0  0
   23.6531    8.0178   36.6641 H   0  0  0  0  0  0  0  0  0  0  0  0
  1  2  2  0
  2  3  1  0
  3  4  2  0
  4  5  1  0
  5  6  2  0
  1  6  1  0
  1  7  1  0
  4  8  1  0
  5  9  1  0
 10  6  1  0
 11 12  1  0
 13 14  1  0
 14 15  1  0
 11 15  1  0
 12 10  1  0
 10 13  1  0
 12 16  1  0
 11 17  1  0
 17 18  1  0
 18 19  1  0
 18 20  1  0
 18 21  1  0
 15 22  2  0
 14 23  1  0
 23 24  1  0
 24 25  2  0
 24 26  1  0
 28 29  1  0
 29 30  2  0
 30 31  1  0
 27 31  2  0
 27 26  1  0
 26 28  2  0
 31 32  1  0
 30 33  1  0
 34 32  1  1
 34 33  1  0
 34 35  1  0
 35 36  2  0
 36 37  1  0
 37 38  1  0
 38 34  1  0
 38 39  2  0
 36 40  1  0
 35 41  1  0
 41 42  2  0
 40 43  2  0
 43 42  1  0
  2 44  1  0
  3 45  1  0
 10 46  1  1
 12 47  1  1
 13 48  1  0
 13 49  1  0
 14 50  1  1
 16 51  1  0
 16 52  1  0
 16 53  1  0
 17 54  1  0
 17 55  1  0
 23 56  1  0
 27 57  1  0
 28 58  1  0
 32 59  1  0
 32 60  1  0
 33 61  1  0
 33 62  1  0
 37 63  1  0
 41 64  1  0
 42 65  1  0
 43 66  1  0
M  END
> <Uni-Dock RESULT> 
ENERGY=   -3.853  LOWER_BOUND=    6.327  UPPER_BOUND=    8.156
INTER + INTRA:          -3.853
INTER:                  -3.853
INTRA:                   0.000
UNBOUND:                 0.000

$$$$

     RDKit          3D

 66 71  0  0  0  0  0  0  0  0999 V2000
   28.2023   11.1779   20.9708 C   0  0  0  0  0  0  0  0  0  0  0  0
   28.1448   10.4852   19.7594 C   0  0  0  0  0  0  0  0  0  0  0  0
   29.3124   10.2600   19.0329 C   0  0  0  0  0  0  0  0  0  0  0  0
   30.5200   10.7360   19.5290 C   0  0  0  0  0  0  0  0  0  0  0  0
   30.5671   11.4259   20.7399 C   0  0  0  0  0  0  0  0  0  0  0  0
   29.4083   11.6593   21.4939 C   0  0  0  0  0  0  0  0  0  0  0  0
   27.0567   11.3766   21.6366 F   0  0  0  0  0  0  0  0  0  0  0  0
   31.6439   10.5322   18.8277 F   0  0  0  0  0  0  0  0  0  0  0  0
   31.7486   11.8864   21.1804 F   0  0  0  0  0  0  0  0  0  0  0  0
   29.4937   12.4237   22.8071 C   0  0  1  0  0  0  0  0  0  0  0  0
   27.5722   14.0385   22.8824 N   0  0  0  0  0  0  0  0  0  0  0  0
   29.0297   13.9127   22.7147 C   0  0  2  0  0  0  0  0  0  0  0  0
   28.8100   11.6603   23.9709 C   0  0  0  0  0  0  0  0  0  0  0  0
   27.9034   12.5457   24.8267 C   0  0  1  0  0  0  0  0  0  0  0  0
   26.9550   13.3670   23.9349 C   0  0  0  0  0  0  0  0  0  0  0  0
   29.6424   14.6554   21.5228 C   0  0  0  0  0  0  0  0  0  0  0  0
   26.7370   14.9258   22.0444 C   0  0  0  0  0  0  0  0  0  0  0  0
   26.0525   14.2747   20.8394 C   0  0  0  0  0  0  0  0  0  0  0  0
   26.9581   13.7803   19.9642 F   0  0  0  0  0  0  0  0  0  0  0  0
   25.2174   13.2757   21.1850 F   0  0  0  0  0  0  0  0  0  0  0  0
   25.3227   15.1977   20.1662 F   0  0  0  0  0  0  0  0  0  0  0  0
   25.7519   13.4621   24.1803 O   0  0  0  0  0  0  0  0  0  0  0  0
   27.0931   11.7640   25.7556 N   0  0  0  0  0  0  0  0  0  0  0  0
   27.6355   11.2120   26.8933 C   0  0  0  0  0  0  0  0  0  0  0  0
   28.8325   11.2876   27.1554 O   0  0  0  0  0  0  0  0  0  0  0  0
   26.7094   10.5357   27.8361 C   0  0  0  0  0  0  0  0  0  0  0  0
   27.1308   10.3012   29.1510 C   0  0  0  0  0  0  0  0  0  0  0  0
   25.4342   10.0991   27.4654 C   0  0  0  0  0  0  0  0  0  0  0  0
   24.5552    9.4875   28.3041 N   0  0  0  0  0  0  0  0  0  0  0  0
   25.0056    9.2788   29.5515 C   0  0  0  0  0  0  0  0  0  0  0  0
   26.2578    9.6603   30.0120 C   0  0  0  0  0  0  0  0  0  0  0  0
   26.4485    9.3160   31.4532 C   0  0  0  0  0  0  0  0  0  0  0  0
   24.1853    8.6371   30.6345 C   0  0  0  0  0  0  0  0  0  0  0  0
   25.2431    8.3887   31.7275 C   0  0  2  0  0  0  0  0  0  0  0  0
   24.7008    8.5003   33.1283 C   0  0  0  0  0  0  0  0  0  0  0  0
   24.8336    7.2837   33.7812 C   0  0  0  0  0  0  0  0  0  0  0  0
   25.4177    6.3627   32.9399 N   0  0  0  0  0  0  0  0  0  0  0  0
   25.6991    6.9071   31.7003 C   0  0  0  0  0  0  0  0  0  0  0  0
   26.2169    6.3115   30.7697 O   0  0  0  0  0  0  0  0  0  0  0  0
   24.4558    7.0260   35.0336 N   0  0  0  0  0  0  0  0  0  0  0  0
   24.1278    9.5623   33.8019 C   0  0  0  0  0  0  0  0  0  0  0  0
   23.7148    9.3409   35.1151 C   0  0  0  0  0  0  0  0  0  0  0  0
   23.8971    8.0763   35.6791 C   0  0  0  0  0  0  0  0  0  0  0  0
   27.1851   10.1296   19.3928 H   0  0  0  0  0  0  0  0  0  0  0  0
   29.2879    9.7246   18.0886 H   0  0  0  0  0  0  0  0  0  0  0  0
   30.5596   12.4675   23.0771 H   0  0  0  0  0  0  0  0  0  0  0  0
   29.4395   14.4136   23.6044 H   0  0  0  0  0  0  0  0  0  0  0  0
   28.2363   10.7965   23.6125 H   0  0  0  0  0  0  0  0  0  0  0  0
   29.5917   11.2190   24.6046 H   0  0  0  0  0  0  0  0  0  0  0  0
   28.4993   13.2494   25.4203 H   0  0  0  0  0  0  0  0  0  0  0  0
   29.4928   15.7360   21.6159 H   0  0  0  0  0  0  0  0  0  0  0  0
   30.7248   14.4919   21.4804 H   0  0  0  0  0  0  0  0  0  0  0  0
   29.2125   14.3402   20.5688 H   0  0  0  0  0  0  0  0  0  0  0  0
   27.3311   15.7842   21.7219 H   0  0  0  0  0  0  0  0  0  0  0  0
   25.9479   15.3440   22.6810 H   0  0  0  0  0  0  0  0  0  0  0  0
   26.0908   11.9102   25.6748 H   0  0  0  0  0  0  0  0  0  0  0  0
   28.1186   10.6100   29.4822 H   0  0  0  0  0  0  0  0  0  0  0  0
   25.0591   10.2107   26.4523 H   0  0  0  0  0  0  0  0  0  0  0  0
   27.4104    8.8170   31.6153 H   0  0  0  0  0  0  0  0  0  0  0  0
   26.4134   10.2343   32.0503 H   0  0  0  0  0  0  0  0  0  0  0  0
   23.4078    9.3416   30.9511 H   0  0  0  0  0  0  0  0  0  0  0  0
   23.7142    7.7172   30.2723 H   0  0  0  0  0  0  0  0  0  0  0  0
   25.6053    5.4101   33.2075 H   0  0  0  0  0  0  0  0  0  0  0  0
   23.9966   10.5331   33.3350 H   0  0  0  0  0  0  0  0  0  0  0  0
   23.2563   10.1354   35.6954 H   0  0  0  0  0  0  0  0  0  0  0  0
   23.5839    7.8747   36.7005 H   0  0  0  0  0  0  0  0  0  0  0  0
  1  2  2  0
  2  3  1  0
  3  4  2  0
  4  5  1  0
  5  6  2  0
  1  6  1  0
  1  7  1  0
  4  8  1  0
  5  9  1  0
 10  6  1  0
 11 12  1  0
 13 14  1  0
 14 15  1  0
 11 15  1  0
 12 10  1  0
 10 13  1  0
 12 16  1  0
 11 17  1  0
 17 18  1  0
 18 19  1  0
 18 20  1  0
 18 21  1  0
 15 22  2  0
 14 23  1  0
 23 24  1  0
 24 25  2  0
 24 26  1  0
 28 29  1  0
 29 30  2  0
 30 31  1  0
 27 31  2  0
 27 26  1  0
 26 28  2  0
 31 32  1  0
 30 33  1  0
 34 32  1  1
 34 33  1  0
 34 35  1  0
 35 36  2  0
 36 37  1  0
 37 38  1  0
 38 34  1  0
 38 39  2  0
 36 40  1  0
 35 41  1  0
 41 42  2  0
 40 43  2  0
 43 42  1  0
  2 44  1  0
  3 45  1  0
 10 46  1  1
 12 47  1  1
 13 48  1  0
 13 49  1  0
 14 50  1  1
 16 51  1  0
 16 52  1  0
 16 53  1  0
 17 54  1  0
 17 55  1  0
 23 56  1  0
 27 57  1  0
 28 58  1  0
 32 59  1  0
 32 60  1  0
 33 61  1  0
 33 62  1  0
 37 63  1  0
 41 64  1  0
 42 65  1  0
 43 66  1  0
M  END
> <Uni-Dock RESULT> 
ENERGY=   -3.848  LOWER_BOUND=    6.390  UPPER_BOUND=    8.237
INTER + INTRA:          -3.848
INTER:                  -3.848
INTRA:                   0.000
UNBOUND:                 0.000

$$$$

     RDKit          3D

 66 71  0  0  0  0  0  0  0  0999 V2000
   30.9156    3.4588   31.7253 C   0  0  0  0  0  0  0  0  0  0  0  0
   31.7065    2.4834   32.3366 C   0  0  0  0  0  0  0  0  0  0  0  0
   31.6632    1.1680   31.8788 C   0  0  0  0  0  0  0  0  0  0  0  0
   30.8247    0.8485   30.8177 C   0  0  0  0  0  0  0  0  0  0  0  0
   30.0394    1.8298   30.2135 C   0  0  0  0  0  0  0  0  0  0  0  0
   30.0699    3.1618   30.6500 C   0  0  0  0  0  0  0  0  0  0  0  0
   30.9838    4.7107   32.1979 F   0  0  0  0  0  0  0  0  0  0  0  0
   30.7707   -0.4178   30.3818 F   0  0  0  0  0  0  0  0  0  0  0  0
   29.2282    1.4820   29.2021 F   0  0  0  0  0  0  0  0  0  0  0  0
   29.1933    4.2063   29.9742 C   0  0  1  0  0  0  0  0  0  0  0  0
   28.1799    5.6378   31.7712 N   0  0  0  0  0  0  0  0  0  0  0  0
   27.9085    4.5843   30.7789 C   0  0  2  0  0  0  0  0  0  0  0  0
   30.0054    5.4518   29.5338 C   0  0  0  0  0  0  0  0  0  0  0  0
   29.3329    6.7750   29.9014 C   0  0  1  0  0  0  0  0  0  0  0  0
   28.8961    6.7655   31.3773 C   0  0  0  0  0  0  0  0  0  0  0  0
   27.1386    3.3592   31.2829 C   0  0  0  0  0  0  0  0  0  0  0  0
   27.6434    5.6064   33.1489 C   0  0  0  0  0  0  0  0  0  0  0  0
   28.5690    5.0320   34.2249 C   0  0  0  0  0  0  0  0  0  0  0  0
   28.8699    3.7363   33.9774 F   0  0  0  0  0  0  0  0  0  0  0  0
   29.7249    5.7138   34.3432 F   0  0  0  0  0  0  0  0  0  0  0  0
   27.9535    5.0660   35.4323 F   0  0  0  0  0  0  0  0  0  0  0  0
   29.1184    7.7170   32.1269 O   0  0  0  0  0  0  0  0  0  0  0  0
   30.2198    7.9158   29.6957 N   0  0  0  0  0  0  0  0  0  0  0  0
   30.4899    8.3979   28.4355 C   0  0  0  0  0  0  0  0  0  0  0  0
   30.0588    7.8611   27.4190 O   0  0  0  0  0  0  0  0  0  0  0  0
   31.3071    9.6331   28.3343 C   0  0  0  0  0  0  0  0  0  0  0  0
   31.2910   10.3619   27.1385 C   0  0  0  0  0  0  0  0  0  0  0  0
   32.1152   10.0961   29.3769 C   0  0  0  0  0  0  0  0  0  0  0  0
   32.8671   11.2282   29.3244 N   0  0  0  0  0  0  0  0  0  0  0  0
   32.8245   11.8895   28.1568 C   0  0  0  0  0  0  0  0  0  0  0  0
   32.0672   11.5046   27.0597 C   0  0  0  0  0  0  0  0  0  0  0  0
   32.2087   12.4633   25.9227 C   0  0  0  0  0  0  0  0  0  0  0  0
   33.5661   13.1708   27.9002 C   0  0  0  0  0  0  0  0  0  0  0  0
   33.4062   13.3290   26.3755 C   0  0  2  0  0  0  0  0  0  0  0  0
   33.3205   14.7633   25.9235 C   0  0  0  0  0  0  0  0  0  0  0  0
   34.3853   15.0550   25.0836 C   0  0  0  0  0  0  0  0  0  0  0  0
   35.1806   13.9406   24.9325 N   0  0  0  0  0  0  0  0  0  0  0  0
   34.6972   12.8643   25.6536 C   0  0  0  0  0  0  0  0  0  0  0  0
   35.2083   11.7572   25.6960 O   0  0  0  0  0  0  0  0  0  0  0  0
   34.6205   16.2321   24.5034 N   0  0  0  0  0  0  0  0  0  0  0  0
   32.4030   15.7561   26.2104 C   0  0  0  0  0  0  0  0  0  0  0  0
   32.6077   17.0061   25.6277 C   0  0  0  0  0  0  0  0  0  0  0  0
   33.7128   17.1930   24.7943 C   0  0  0  0  0  0  0  0  0  0  0  0
   32.3486    2.7611   33.1688 H   0  0  0  0  0  0  0  0  0  0  0  0
   32.2696    0.3954   32.3417 H   0  0  0  0  0  0  0  0  0  0  0  0
   28.8285    3.7541   29.0396 H   0  0  0  0  0  0  0  0  0  0  0  0
   27.2325    5.0703   30.0596 H   0  0  0  0  0  0  0  0  0  0  0  0
   31.0246    5.4402   29.9400 H   0  0  0  0  0  0  0  0  0  0  0  0
   30.1498    5.4064   28.4455 H   0  0  0  0  0  0  0  0  0  0  0  0
   28.4386    6.9374   29.2878 H   0  0  0  0  0  0  0  0  0  0  0  0
   26.1390    3.6406   31.6300 H   0  0  0  0  0  0  0  0  0  0  0  0
   26.9964    2.6329   30.4753 H   0  0  0  0  0  0  0  0  0  0  0  0
   27.6488    2.8560   32.1080 H   0  0  0  0  0  0  0  0  0  0  0  0
   26.6871    5.0780   33.1533 H   0  0  0  0  0  0  0  0  0  0  0  0
   27.4049    6.6366   33.4401 H   0  0  0  0  0  0  0  0  0  0  0  0
   30.3677    8.4950   30.5173 H   0  0  0  0  0  0  0  0  0  0  0  0
   30.6891   10.0343   26.2953 H   0  0  0  0  0  0  0  0  0  0  0  0
   32.2077    9.5586   30.3162 H   0  0  0  0  0  0  0  0  0  0  0  0
   32.4018   11.9344   24.9827 H   0  0  0  0  0  0  0  0  0  0  0  0
   31.2854   13.0456   25.8259 H   0  0  0  0  0  0  0  0  0  0  0  0
   33.0806   13.9769   28.4620 H   0  0  0  0  0  0  0  0  0  0  0  0
   34.6105   13.0863   28.2184 H   0  0  0  0  0  0  0  0  0  0  0  0
   36.0137   13.9283   24.3665 H   0  0  0  0  0  0  0  0  0  0  0  0
   31.5554   15.5809   26.8650 H   0  0  0  0  0  0  0  0  0  0  0  0
   31.9225   17.8265   25.8162 H   0  0  0  0  0  0  0  0  0  0  0  0
   33.8979   18.1571   24.3272 H   0  0  0  0  0  0  0  0  0  0  0  0
  1  2  2  0
  2  3  1  0
  3  4  2  0
  4  5  1  0
  5  6  2  0
  1  6  1  0
  1  7  1  0
  4  8  1  0
  5  9  1  0
 10  6  1  0
 11 12  1  0
 13 14  1  0
 14 15  1  0
 11 15  1  0
 12 10  1  0
 10 13  1  0
 12 16  1  0
 11 17  1  0
 17 18  1  0
 18 19  1  0
 18 20  1  0
 18 21  1  0
 15 22  2  0
 14 23  1  0
 23 24  1  0
 24 25  2  0
 24 26  1  0
 28 29  1  0
 29 30  2  0
 30 31  1  0
 27 31  2  0
 27 26  1  0
 26 28  2  0
 31 32  1  0
 30 33  1  0
 34 32  1  1
 34 33  1  0
 34 35  1  0
 35 36  2  0
 36 37  1  0
 37 38  1  0
 38 34  1  0
 38 39  2  0
 36 40  1  0
 35 41  1  0
 41 42  2  0
 40 43  2  0
 43 42  1  0
  2 44  1  0
  3 45  1  0
 10 46  1  1
 12 47  1  1
 13 48  1  0
 13 49  1  0
 14 50  1  1
 16 51  1  0
 16 52  1  0
 16 53  1  0
 17 54  1  0
 17 55  1  0
 23 56  1  0
 27 57  1  0
 28 58  1  0
 32 59  1  0
 32 60  1  0
 33 61  1  0
 33 62  1  0
 37 63  1  0
 41 64  1  0
 42 65  1  0
 43 66  1  0
M  END
> <Uni-Dock RESULT> 
ENERGY=   -3.834  LOWER_BOUND=    9.454  UPPER_BOUND=   11.810
INTER + INTRA:          -3.834
INTER:                  -3.834
INTRA:                   0.000
UNBOUND:                 0.000

$$$$

     RDKit          3D

 66 71  0  0  0  0  0  0  0  0999 V2000
   26.8857   13.1227   22.7946 C   0  0  0  0  0  0  0  0  0  0  0  0
   26.4983   13.3504   21.4722 C   0  0  0  0  0  0  0  0  0  0  0  0
   27.2842   12.8700   20.4265 C   0  0  0  0  0  0  0  0  0  0  0  0
   28.4491   12.1721   20.7215 C   0  0  0  0  0  0  0  0  0  0  0  0
   28.8270   11.9493   22.0452 C   0  0  0  0  0  0  0  0  0  0  0  0
   28.0504   12.4154   23.1154 C   0  0  0  0  0  0  0  0  0  0  0  0
   26.1043   13.6043   23.7706 F   0  0  0  0  0  0  0  0  0  0  0  0
   29.2145   11.7186   19.7189 F   0  0  0  0  0  0  0  0  0  0  0  0
   29.9675   11.2861   22.2930 F   0  0  0  0  0  0  0  0  0  0  0  0
   28.4964   12.1627   24.5483 C   0  0  1  0  0  0  0  0  0  0  0  0
   28.1350   14.2795   25.8499 N   0  0  0  0  0  0  0  0  0  0  0  0
   29.1490   13.3995   25.2453 C   0  0  2  0  0  0  0  0  0  0  0  0
   27.3721   11.5241   25.4043 C   0  0  0  0  0  0  0  0  0  0  0  0
   27.2056   12.1820   26.7746 C   0  0  1  0  0  0  0  0  0  0  0  0
   27.1316   13.7128   26.6319 C   0  0  0  0  0  0  0  0  0  0  0  0
   30.2096   14.0830   24.3761 C   0  0  0  0  0  0  0  0  0  0  0  0
   28.1836   15.7542   25.7504 C   0  0  0  0  0  0  0  0  0  0  0  0
   27.3580   16.3862   24.6264 C   0  0  0  0  0  0  0  0  0  0  0  0
   27.7850   15.9770   23.4095 F   0  0  0  0  0  0  0  0  0  0  0  0
   26.0426   16.1115   24.7214 F   0  0  0  0  0  0  0  0  0  0  0  0
   27.4929   17.7349   24.6541 F   0  0  0  0  0  0  0  0  0  0  0  0
   26.2786   14.3796   27.2189 O   0  0  0  0  0  0  0  0  0  0  0  0
   25.9975   11.7286   27.4567 N   0  0  0  0  0  0  0  0  0  0  0  0
   25.9256   10.4845   28.0402 C   0  0  0  0  0  0  0  0  0  0  0  0
   26.8392    9.6679   27.9638 O   0  0  0  0  0  0  0  0  0  0  0  0
   24.7002   10.1588   28.8123 C   0  0  0  0  0  0  0  0  0  0  0  0
   24.7325    9.0921   29.7191 C   0  0  0  0  0  0  0  0  0  0  0  0
   23.4994   10.8583   28.6607 C   0  0  0  0  0  0  0  0  0  0  0  0
   22.3617   10.5961   29.3586 N   0  0  0  0  0  0  0  0  0  0  0  0
   22.4391    9.5617   30.2108 C   0  0  0  0  0  0  0  0  0  0  0  0
   23.5776    8.7971   30.4218 C   0  0  0  0  0  0  0  0  0  0  0  0
   23.3540    7.7400   31.4534 C   0  0  0  0  0  0  0  0  0  0  0  0
   21.3017    9.1215   31.0885 C   0  0  0  0  0  0  0  0  0  0  0  0
   21.8181    7.7708   31.6218 C   0  0  2  0  0  0  0  0  0  0  0  0
   21.3568    7.4588   33.0214 C   0  0  0  0  0  0  0  0  0  0  0  0
   20.5860    6.3055   33.0152 C   0  0  0  0  0  0  0  0  0  0  0  0
   20.4881    5.8153   31.7317 N   0  0  0  0  0  0  0  0  0  0  0  0
   21.1758    6.6041   30.8279 C   0  0  0  0  0  0  0  0  0  0  0  0
   21.2532    6.3978   29.6278 O   0  0  0  0  0  0  0  0  0  0  0  0
   20.0158    5.7435   34.0813 N   0  0  0  0  0  0  0  0  0  0  0  0
   21.5724    8.1133   34.2192 C   0  0  0  0  0  0  0  0  0  0  0  0
   20.9944    7.5640   35.3630 C   0  0  0  0  0  0  0  0  0  0  0  0
   20.2369    6.3964   35.2461 C   0  0  0  0  0  0  0  0  0  0  0  0
   25.5850   13.9048   21.2714 H   0  0  0  0  0  0  0  0  0  0  0  0
   27.0003   13.0378   19.3920 H   0  0  0  0  0  0  0  0  0  0  0  0
   29.2908   11.4026   24.5014 H   0  0  0  0  0  0  0  0  0  0  0  0
   29.7010   13.0033   26.1106 H   0  0  0  0  0  0  0  0  0  0  0  0
   26.4071   11.5295   24.8822 H   0  0  0  0  0  0  0  0  0  0  0  0
   27.5991   10.4573   25.5375 H   0  0  0  0  0  0  0  0  0  0  0  0
   28.0585   11.9462   27.4226 H   0  0  0  0  0  0  0  0  0  0  0  0
   30.8069   14.7852   24.9669 H   0  0  0  0  0  0  0  0  0  0  0  0
   30.9083   13.3451   23.9670 H   0  0  0  0  0  0  0  0  0  0  0  0
   29.7720   14.6371   23.5419 H   0  0  0  0  0  0  0  0  0  0  0  0
   29.2247   16.0785   25.6814 H   0  0  0  0  0  0  0  0  0  0  0  0
   27.8152   16.1671   26.6974 H   0  0  0  0  0  0  0  0  0  0  0  0
   25.3584   12.4696   27.7305 H   0  0  0  0  0  0  0  0  0  0  0  0
   25.6390    8.5100   29.8615 H   0  0  0  0  0  0  0  0  0  0  0  0
   23.3912   11.6689   27.9460 H   0  0  0  0  0  0  0  0  0  0  0  0
   23.7212    6.7674   31.1074 H   0  0  0  0  0  0  0  0  0  0  0  0
   23.8806    8.0178   32.3735 H   0  0  0  0  0  0  0  0  0  0  0  0
   21.1622    9.8639   31.8824 H   0  0  0  0  0  0  0  0  0  0  0  0
   20.3761    9.0321   30.5101 H   0  0  0  0  0  0  0  0  0  0  0  0
   19.9698    4.9848   31.4949 H   0  0  0  0  0  0  0  0  0  0  0  0
   22.1636    9.0214   34.2775 H   0  0  0  0  0  0  0  0  0  0  0  0
   21.1263    8.0330   36.3329 H   0  0  0  0  0  0  0  0  0  0  0  0
   19.7738    5.9464   36.1207 H   0  0  0  0  0  0  0  0  0  0  0  0
  1  2  2  0
  2  3  1  0
  3  4  2  0
  4  5  1  0
  5  6  2  0
  1  6  1  0
  1  7  1  0
  4  8  1  0
  5  9  1  0
 10  6  1  0
 11 12  1  0
 13 14  1  0
 14 15  1  0
 11 15  1  0
 12 10  1  0
 10 13  1  0
 12 16  1  0
 11 17  1  0
 17 18  1  0
 18 19  1  0
 18 20  1  0
 18 21  1  0
 15 22  2  0
 14 23  1  0
 23 24  1  0
 24 25  2  0
 24 26  1  0
 28 29  1  0
 29 30  2  0
 30 31  1  0
 27 31  2  0
 27 26  1  0
 26 28  2  0
 31 32  1  0
 30 33  1  0
 34 32  1  1
 34 33  1  0
 34 35  1  0
 35 36  2  0
 36 37  1  0
 37 38  1  0
 38 34  1  0
 38 39  2  0
 36 40  1  0
 35 41  1  0
 41 42  2  0
 40 43  2  0
 43 42  1  0
  2 44  1  0
  3 45  1  0
 10 46  1  1
 12 47  1  1
 13 48  1  0
 13 49  1  0
 14 50  1  1
 16 51  1  0
 16 52  1  0
 16 53  1  0
 17 54  1  0
 17 55  1  0
 23 56  1  0
 27 57  1  0
 28 58  1  0
 32 59  1  0
 32 60  1  0
 33 61  1  0
 33 62  1  0
 37 63  1  0
 41 64  1  0
 42 65  1  0
 43 66  1  0
M  END
> <Uni-Dock RESULT> 
ENERGY=   -3.832  LOWER_BOUND=    7.991  UPPER_BOUND=   10.417
INTER + INTRA:          -3.832
INTER:                  -3.832
INTRA:                   0.000
UNBOUND:                 0.000

$$$$
