
     RDKit          3D

 66 71  0  0  0  0  0  0  0  0999 V2000
   30.3960   12.3708   20.7162 C   0  0  0  0  0  0  0  0  0  0  0  0
   31.1591   11.7659   19.7166 C   0  0  0  0  0  0  0  0  0  0  0  0
   30.8914   10.4511   19.3466 C   0  0  0  0  0  0  0  0  0  0  0  0
   29.8593    9.7678   19.9789 C   0  0  0  0  0  0  0  0  0  0  0  0
   29.1017   10.3805   20.9783 C   0  0  0  0  0  0  0  0  0  0  0  0
   29.3596   11.6959   21.3790 C   0  0  0  0  0  0  0  0  0  0  0  0
   30.6657   13.6439   21.0384 F   0  0  0  0  0  0  0  0  0  0  0  0
   29.5863    8.5094   19.6084 F   0  0  0  0  0  0  0  0  0  0  0  0
   28.0928    9.6909   21.5276 F   0  0  0  0  0  0  0  0  0  0  0  0
   28.5776   12.4268   22.4550 C   0  0  1  0  0  0  0  0  0  0  0  0
   26.7905   14.1038   22.9561 N   0  0  0  0  0  0  0  0  0  0  0  0
   27.4738   13.3542   21.8844 C   0  0  2  0  0  0  0  0  0  0  0  0
   27.9874   11.5520   23.5708 C   0  0  0  0  0  0  0  0  0  0  0  0
   27.4995   12.4514   24.7021 C   0  0  1  0  0  0  0  0  0  0  0  0
   26.5669   13.5817   24.2217 C   0  0  0  0  0  0  0  0  0  0  0  0
   26.4293   12.6079   21.0384 C   0  0  0  0  0  0  0  0  0  0  0  0
   26.1293   15.3792   22.6059 C   0  0  0  0  0  0  0  0  0  0  0  0
   26.9262   16.6246   23.0010 C   0  0  0  0  0  0  0  0  0  0  0  0
   27.1941   16.6721   24.3221 F   0  0  0  0  0  0  0  0  0  0  0  0
   28.1075   16.6650   22.3390 F   0  0  0  0  0  0  0  0  0  0  0  0
   26.2457   17.7481   22.6760 F   0  0  0  0  0  0  0  0  0  0  0  0
   25.7256   14.0640   24.9856 O   0  0  0  0  0  0  0  0  0  0  0  0
   26.7980   11.7057   25.7453 N   0  0  0  0  0  0  0  0  0  0  0  0
   27.4911   10.9109   26.6337 C   0  0  0  0  0  0  0  0  0  0  0  0
   28.6934   10.6911   26.5360 O   0  0  0  0  0  0  0  0  0  0  0  0
   26.7248   10.3509   27.7729 C   0  0  0  0  0  0  0  0  0  0  0  0
   27.4034    9.9825   28.9395 C   0  0  0  0  0  0  0  0  0  0  0  0
   25.3423   10.1564   27.7211 C   0  0  0  0  0  0  0  0  0  0  0  0
   24.5966    9.6614   28.7446 N   0  0  0  0  0  0  0  0  0  0  0  0
   25.2895    9.3197   29.8431 C   0  0  0  0  0  0  0  0  0  0  0  0
   26.6623    9.4605   29.9848 C   0  0  0  0  0  0  0  0  0  0  0  0
   27.1306    9.0304   31.3358 C   0  0  0  0  0  0  0  0  0  0  0  0
   24.6512    8.7826   31.0925 C   0  0  0  0  0  0  0  0  0  0  0  0
   25.8770    8.3358   31.9127 C   0  0  2  0  0  0  0  0  0  0  0  0
   25.7109    8.5311   33.3968 C   0  0  0  0  0  0  0  0  0  0  0  0
   25.7708    7.3042   34.0414 C   0  0  0  0  0  0  0  0  0  0  0  0
   25.9630    6.3002   33.1180 N   0  0  0  0  0  0  0  0  0  0  0  0
   26.0403    6.7972   31.8300 C   0  0  0  0  0  0  0  0  0  0  0  0
   26.2122    6.1283   30.8254 O   0  0  0  0  0  0  0  0  0  0  0  0
   25.6611    7.1088   35.3555 N   0  0  0  0  0  0  0  0  0  0  0  0
   25.5195    9.6747   34.1489 C   0  0  0  0  0  0  0  0  0  0  0  0
   25.3980    9.5212   35.5291 C   0  0  0  0  0  0  0  0  0  0  0  0
   25.4743    8.2391   36.0777 C   0  0  0  0  0  0  0  0  0  0  0  0
   31.9545   12.3273   19.2347 H   0  0  0  0  0  0  0  0  0  0  0  0
   31.4703    9.9593   18.5709 H   0  0  0  0  0  0  0  0  0  0  0  0
   29.3115   13.0758   22.9589 H   0  0  0  0  0  0  0  0  0  0  0  0
   27.9567   14.1014   21.2405 H   0  0  0  0  0  0  0  0  0  0  0  0
   28.7490   10.8566   23.9439 H   0  0  0  0  0  0  0  0  0  0  0  0
   27.1575   10.9349   23.2092 H   0  0  0  0  0  0  0  0  0  0  0  0
   28.3594   12.9448   25.1745 H   0  0  0  0  0  0  0  0  0  0  0  0
   26.8883   12.0976   20.1870 H   0  0  0  0  0  0  0  0  0  0  0  0
   25.6892   13.3034   20.6283 H   0  0  0  0  0  0  0  0  0  0  0  0
   25.8754   11.8710   21.6281 H   0  0  0  0  0  0  0  0  0  0  0  0
   25.9455   15.3994   21.5267 H   0  0  0  0  0  0  0  0  0  0  0  0
   25.1493   15.4190   23.0940 H   0  0  0  0  0  0  0  0  0  0  0  0
   25.9307   12.1344   26.0585 H   0  0  0  0  0  0  0  0  0  0  0  0
   28.4796   10.1052   29.0198 H   0  0  0  0  0  0  0  0  0  0  0  0
   24.7664   10.3833   26.8287 H   0  0  0  0  0  0  0  0  0  0  0  0
   27.9888    8.3547   31.2573 H   0  0  0  0  0  0  0  0  0  0  0  0
   27.4211    9.9152   31.9127 H   0  0  0  0  0  0  0  0  0  0  0  0
   23.9682    7.9603   30.8560 H   0  0  0  0  0  0  0  0  0  0  0  0
   24.0901    9.5897   31.5757 H   0  0  0  0  0  0  0  0  0  0  0  0
   26.0361    5.3268   33.3660 H   0  0  0  0  0  0  0  0  0  0  0  0
   25.4629   10.6576   33.6923 H   0  0  0  0  0  0  0  0  0  0  0  0
   25.2449   10.3817   36.1732 H   0  0  0  0  0  0  0  0  0  0  0  0
   25.3827    8.0899   37.1507 H   0  0  0  0  0  0  0  0  0  0  0  0
  1  2  2  0
  2  3  1  0
  3  4  2  0
  4  5  1  0
  5  6  2  0
  1  6  1  0
  1  7  1  0
  4  8  1  0
  5  9  1  0
 10  6  1  0
 11 12  1  0
 13 14  1  0
 14 15  1  0
 11 15  1  0
 12 10  1  0
 10 13  1  0
 12 16  1  0
 11 17  1  0
 17 18  1  0
 18 19  1  0
 18 20  1  0
 18 21  1  0
 15 22  2  0
 14 23  1  0
 23 24  1  0
 24 25  2  0
 24 26  1  0
 28 29  1  0
 29 30  2  0
 30 31  1  0
 27 31  2  0
 27 26  1  0
 26 28  2  0
 31 32  1  0
 30 33  1  0
 34 32  1  1
 34 33  1  0
 34 35  1  0
 35 36  2  0
 36 37  1  0
 37 38  1  0
 38 34  1  0
 38 39  2  0
 36 40  1  0
 35 41  1  0
 41 42  2  0
 40 43  2  0
 43 42  1  0
  2 44  1  0
  3 45  1  0
 10 46  1  1
 12 47  1  1
 13 48  1  0
 13 49  1  0
 14 50  1  1
 16 51  1  0
 16 52  1  0
 16 53  1  0
 17 54  1  0
 17 55  1  0
 23 56  1  0
 27 57  1  0
 28 58  1  0
 32 59  1  0
 32 60  1  0
 33 61  1  0
 33 62  1  0
 37 63  1  0
 41 64  1  0
 42 65  1  0
 43 66  1  0
M  END
> <Uni-Dock RESULT> 
ENERGY=   -4.894  LOWER_BOUND=    0.000  UPPER_BOUND=    0.000
INTER + INTRA:          -4.894
INTER:                  -4.894
INTRA:                   0.000
UNBOUND:                 0.000

$$$$

     RDKit          3D

 66 71  0  0  0  0  0  0  0  0999 V2000
   22.0286    6.4544   30.2510 C   0  0  0  0  0  0  0  0  0  0  0  0
   21.9755    5.1193   30.6538 C   0  0  0  0  0  0  0  0  0  0  0  0
   23.1133    4.5123   31.1776 C   0  0  0  0  0  0  0  0  0  0  0  0
   24.2820    5.2554   31.2958 C   0  0  0  0  0  0  0  0  0  0  0  0
   24.3262    6.5900   30.8896 C   0  0  0  0  0  0  0  0  0  0  0  0
   23.2009    7.2194   30.3465 C   0  0  0  0  0  0  0  0  0  0  0  0
   20.9119    7.0166   29.7671 F   0  0  0  0  0  0  0  0  0  0  0  0
   25.3719    4.6787   31.8202 F   0  0  0  0  0  0  0  0  0  0  0  0
   25.4663    7.2723   31.0623 F   0  0  0  0  0  0  0  0  0  0  0  0
   23.1737    8.6654   29.8861 C   0  0  1  0  0  0  0  0  0  0  0  0
   22.4961   11.0118   30.4265 N   0  0  0  0  0  0  0  0  0  0  0  0
   22.5766    9.6315   30.9416 C   0  0  2  0  0  0  0  0  0  0  0  0
   24.5026    9.2318   29.3648 C   0  0  0  0  0  0  0  0  0  0  0  0
   24.2387   10.5692   28.6805 C   0  0  1  0  0  0  0  0  0  0  0  0
   23.4297   11.5501   29.5531 C   0  0  0  0  0  0  0  0  0  0  0  0
   23.3450    9.6280   32.2732 C   0  0  0  0  0  0  0  0  0  0  0  0
   21.5024   11.9266   31.0286 C   0  0  0  0  0  0  0  0  0  0  0  0
   20.2435   12.1256   30.1816 C   0  0  0  0  0  0  0  0  0  0  0  0
   20.5166   12.6005   28.9490 F   0  0  0  0  0  0  0  0  0  0  0  0
   19.5775   10.9551   30.0342 F   0  0  0  0  0  0  0  0  0  0  0  0
   19.3982   12.9950   30.7821 F   0  0  0  0  0  0  0  0  0  0  0  0
   23.5453   12.7688   29.3937 O   0  0  0  0  0  0  0  0  0  0  0  0
   25.4715   11.2424   28.2761 N   0  0  0  0  0  0  0  0  0  0  0  0
   26.1984   10.7956   27.1929 C   0  0  0  0  0  0  0  0  0  0  0  0
   25.9295    9.7638   26.5877 O   0  0  0  0  0  0  0  0  0  0  0  0
   27.3209   11.6512   26.7384 C   0  0  0  0  0  0  0  0  0  0  0  0
   27.7644   11.5531   25.4153 C   0  0  0  0  0  0  0  0  0  0  0  0
   27.9725   12.5458   27.5910 C   0  0  0  0  0  0  0  0  0  0  0  0
   28.9944   13.3601   27.2154 N   0  0  0  0  0  0  0  0  0  0  0  0
   29.3881   13.2308   25.9379 C   0  0  0  0  0  0  0  0  0  0  0  0
   28.8152   12.3620   25.0206 C   0  0  0  0  0  0  0  0  0  0  0  0
   29.4460   12.4792   23.6722 C   0  0  0  0  0  0  0  0  0  0  0  0
   30.4789   14.0575   25.3185 C   0  0  0  0  0  0  0  0  0  0  0  0
   30.6870   13.3518   23.9644 C   0  0  2  0  0  0  0  0  0  0  0  0
   31.0368   14.2941   22.8429 C   0  0  0  0  0  0  0  0  0  0  0  0
   32.2953   13.9871   22.3469 C   0  0  0  0  0  0  0  0  0  0  0  0
   32.8222   12.9187   23.0387 N   0  0  0  0  0  0  0  0  0  0  0  0
   31.9563   12.4647   24.0164 C   0  0  0  0  0  0  0  0  0  0  0  0
   32.1704   11.5297   24.7688 O   0  0  0  0  0  0  0  0  0  0  0  0
   32.9158   14.6201   21.3511 N   0  0  0  0  0  0  0  0  0  0  0  0
   30.3335   15.3438   22.2828 C   0  0  0  0  0  0  0  0  0  0  0  0
   30.9417   16.0378   21.2379 C   0  0  0  0  0  0  0  0  0  0  0  0
   32.2132   15.6454   20.8133 C   0  0  0  0  0  0  0  0  0  0  0  0
   21.0459    4.5657   30.5565 H   0  0  0  0  0  0  0  0  0  0  0  0
   23.0966    3.4755   31.4989 H   0  0  0  0  0  0  0  0  0  0  0  0
   22.4959    8.6822   29.0176 H   0  0  0  0  0  0  0  0  0  0  0  0
   21.5454    9.3149   31.1475 H   0  0  0  0  0  0  0  0  0  0  0  0
   24.9571    8.5289   28.6561 H   0  0  0  0  0  0  0  0  0  0  0  0
   25.2312    9.3701   30.1714 H   0  0  0  0  0  0  0  0  0  0  0  0
   23.6428   10.4049   27.7728 H   0  0  0  0  0  0  0  0  0  0  0  0
   23.3642    8.6331   32.7266 H   0  0  0  0  0  0  0  0  0  0  0  0
   22.8713   10.2971   32.9996 H   0  0  0  0  0  0  0  0  0  0  0  0
   24.3759    9.9748   32.1520 H   0  0  0  0  0  0  0  0  0  0  0  0
   21.2147   11.5408   32.0122 H   0  0  0  0  0  0  0  0  0  0  0  0
   21.9714   12.9022   31.1968 H   0  0  0  0  0  0  0  0  0  0  0  0
   25.5034   12.2336   28.5013 H   0  0  0  0  0  0  0  0  0  0  0  0
   27.2949   10.8627   24.7205 H   0  0  0  0  0  0  0  0  0  0  0  0
   27.7020   12.6365   28.6389 H   0  0  0  0  0  0  0  0  0  0  0  0
   29.7077   11.4932   23.2741 H   0  0  0  0  0  0  0  0  0  0  0  0
   28.7427   12.9678   22.9891 H   0  0  0  0  0  0  0  0  0  0  0  0
   31.3740   14.0528   25.9487 H   0  0  0  0  0  0  0  0  0  0  0  0
   30.1207   15.0868   25.2086 H   0  0  0  0  0  0  0  0  0  0  0  0
   33.7296   12.5270   22.8448 H   0  0  0  0  0  0  0  0  0  0  0  0
   29.3469   15.6255   22.6365 H   0  0  0  0  0  0  0  0  0  0  0  0
   30.4401   16.8725   20.7581 H   0  0  0  0  0  0  0  0  0  0  0  0
   32.7113   16.1686   20.0010 H   0  0  0  0  0  0  0  0  0  0  0  0
  1  2  2  0
  2  3  1  0
  3  4  2  0
  4  5  1  0
  5  6  2  0
  1  6  1  0
  1  7  1  0
  4  8  1  0
  5  9  1  0
 10  6  1  0
 11 12  1  0
 13 14  1  0
 14 15  1  0
 11 15  1  0
 12 10  1  0
 10 13  1  0
 12 16  1  0
 11 17  1  0
 17 18  1  0
 18 19  1  0
 18 20  1  0
 18 21  1  0
 15 22  2  0
 14 23  1  0
 23 24  1  0
 24 25  2  0
 24 26  1  0
 28 29  1  0
 29 30  2  0
 30 31  1  0
 27 31  2  0
 27 26  1  0
 26 28  2  0
 31 32  1  0
 30 33  1  0
 34 32  1  1
 34 33  1  0
 34 35  1  0
 35 36  2  0
 36 37  1  0
 37 38  1  0
 38 34  1  0
 38 39  2  0
 36 40  1  0
 35 41  1  0
 41 42  2  0
 40 43  2  0
 43 42  1  0
  2 44  1  0
  3 45  1  0
 10 46  1  1
 12 47  1  1
 13 48  1  0
 13 49  1  0
 14 50  1  1
 16 51  1  0
 16 52  1  0
 16 53  1  0
 17 54  1  0
 17 55  1  0
 23 56  1  0
 27 57  1  0
 28 58  1  0
 32 59  1  0
 32 60  1  0
 33 61  1  0
 33 62  1  0
 37 63  1  0
 41 64  1  0
 42 65  1  0
 43 66  1  0
M  END
> <Uni-Dock RESULT> 
ENERGY=   -4.498  LOWER_BOUND=    5.199  UPPER_BOUND=   11.014
INTER + INTRA:          -4.498
INTER:                  -4.498
INTRA:                   0.000
UNBOUND:                 0.000

$$$$

     RDKit          3D

 66 71  0  0  0  0  0  0  0  0999 V2000
   30.7742   12.9692   20.8008 C   0  0  0  0  0  0  0  0  0  0  0  0
   30.5120   13.5284   19.5494 C   0  0  0  0  0  0  0  0  0  0  0  0
   29.5822   14.5580   19.4364 C   0  0  0  0  0  0  0  0  0  0  0  0
   28.9371   15.0146   20.5798 C   0  0  0  0  0  0  0  0  0  0  0  0
   29.2050   14.4488   21.8273 C   0  0  0  0  0  0  0  0  0  0  0  0
   30.1241   13.4032   21.9661 C   0  0  0  0  0  0  0  0  0  0  0  0
   31.6878   11.9914   20.8806 F   0  0  0  0  0  0  0  0  0  0  0  0
   28.0580   16.0204   20.4757 F   0  0  0  0  0  0  0  0  0  0  0  0
   28.5853   14.9528   22.9030 F   0  0  0  0  0  0  0  0  0  0  0  0
   30.4675   12.7416   23.2882 C   0  0  1  0  0  0  0  0  0  0  0  0
   32.1075   12.5719   25.1693 N   0  0  0  0  0  0  0  0  0  0  0  0
   31.7676   13.2935   23.9280 C   0  0  2  0  0  0  0  0  0  0  0  0
   29.3484   12.7159   24.3396 C   0  0  0  0  0  0  0  0  0  0  0  0
   29.7505   11.7750   25.4708 C   0  0  1  0  0  0  0  0  0  0  0  0
   31.1511   12.0742   26.0423 C   0  0  0  0  0  0  0  0  0  0  0  0
   31.7114   14.8029   24.2145 C   0  0  0  0  0  0  0  0  0  0  0  0
   33.5190   12.5640   25.6100 C   0  0  0  0  0  0  0  0  0  0  0  0
   34.2611   11.2611   25.3039 C   0  0  0  0  0  0  0  0  0  0  0  0
   33.6707   10.1839   25.8612 F   0  0  0  0  0  0  0  0  0  0  0  0
   34.3246   11.0508   23.9671 F   0  0  0  0  0  0  0  0  0  0  0  0
   35.5332   11.3189   25.7616 F   0  0  0  0  0  0  0  0  0  0  0  0
   31.4257   11.7784   27.2089 O   0  0  0  0  0  0  0  0  0  0  0  0
   28.8000   11.7982   26.5809 N   0  0  0  0  0  0  0  0  0  0  0  0
   27.5680   11.1890   26.4697 C   0  0  0  0  0  0  0  0  0  0  0  0
   27.1547   10.7040   25.4222 O   0  0  0  0  0  0  0  0  0  0  0  0
   26.7524   11.0929   27.7043 C   0  0  0  0  0  0  0  0  0  0  0  0
   25.7756   10.0964   27.8038 C   0  0  0  0  0  0  0  0  0  0  0  0
   26.9080   11.9773   28.7745 C   0  0  0  0  0  0  0  0  0  0  0  0
   26.1950   11.9184   29.9306 N   0  0  0  0  0  0  0  0  0  0  0  0
   25.2678   10.9481   29.9812 C   0  0  0  0  0  0  0  0  0  0  0  0
   25.0284   10.0329   28.9665 C   0  0  0  0  0  0  0  0  0  0  0  0
   23.9636    9.0541   29.3380 C   0  0  0  0  0  0  0  0  0  0  0  0
   24.3963   10.6954   31.1785 C   0  0  0  0  0  0  0  0  0  0  0  0
   23.3813    9.6753   30.6271 C   0  0  2  0  0  0  0  0  0  0  0  0
   22.9444    8.6528   31.6430 C   0  0  0  0  0  0  0  0  0  0  0  0
   21.5795    8.7639   31.8640 C   0  0  0  0  0  0  0  0  0  0  0  0
   21.0606    9.7737   31.0838 N   0  0  0  0  0  0  0  0  0  0  0  0
   22.0368   10.3789   30.3139 C   0  0  0  0  0  0  0  0  0  0  0  0
   21.8504   11.2953   29.5319 O   0  0  0  0  0  0  0  0  0  0  0  0
   20.8626    8.0143   32.7015 N   0  0  0  0  0  0  0  0  0  0  0  0
   23.6595    7.6935   32.3347 C   0  0  0  0  0  0  0  0  0  0  0  0
   22.9532    6.8847   33.2238 C   0  0  0  0  0  0  0  0  0  0  0  0
   21.5780    7.0794   33.3709 C   0  0  0  0  0  0  0  0  0  0  0  0
   31.0372   13.1562   18.6743 H   0  0  0  0  0  0  0  0  0  0  0  0
   29.3620   15.0098   18.4741 H   0  0  0  0  0  0  0  0  0  0  0  0
   30.6551   11.6836   23.0449 H   0  0  0  0  0  0  0  0  0  0  0  0
   32.5939   13.1146   23.2272 H   0  0  0  0  0  0  0  0  0  0  0  0
   28.4117   12.3758   23.8814 H   0  0  0  0  0  0  0  0  0  0  0  0
   29.1479   13.7133   24.7462 H   0  0  0  0  0  0  0  0  0  0  0  0
   29.7881   10.7442   25.0938 H   0  0  0  0  0  0  0  0  0  0  0  0
   31.5342   15.3813   23.3035 H   0  0  0  0  0  0  0  0  0  0  0  0
   32.6595   15.1566   24.6339 H   0  0  0  0  0  0  0  0  0  0  0  0
   30.9331   15.0529   24.9420 H   0  0  0  0  0  0  0  0  0  0  0  0
   34.0452   13.3965   25.1314 H   0  0  0  0  0  0  0  0  0  0  0  0
   33.5568   12.7453   26.6897 H   0  0  0  0  0  0  0  0  0  0  0  0
   29.2289   11.8520   27.5014 H   0  0  0  0  0  0  0  0  0  0  0  0
   25.6120    9.3942   26.9915 H   0  0  0  0  0  0  0  0  0  0  0  0
   27.6198   12.7969   28.7396 H   0  0  0  0  0  0  0  0  0  0  0  0
   23.2191    8.9622   28.5403 H   0  0  0  0  0  0  0  0  0  0  0  0
   24.4229    8.0757   29.5159 H   0  0  0  0  0  0  0  0  0  0  0  0
   23.9302   11.6246   31.5215 H   0  0  0  0  0  0  0  0  0  0  0  0
   25.0151   10.2840   31.9833 H   0  0  0  0  0  0  0  0  0  0  0  0
   20.0863   10.0290   31.0851 H   0  0  0  0  0  0  0  0  0  0  0  0
   24.7290    7.5680   32.1995 H   0  0  0  0  0  0  0  0  0  0  0  0
   23.4593    6.1142   33.7972 H   0  0  0  0  0  0  0  0  0  0  0  0
   21.0022    6.4634   34.0572 H   0  0  0  0  0  0  0  0  0  0  0  0
  1  2  2  0
  2  3  1  0
  3  4  2  0
  4  5  1  0
  5  6  2  0
  1  6  1  0
  1  7  1  0
  4  8  1  0
  5  9  1  0
 10  6  1  0
 11 12  1  0
 13 14  1  0
 14 15  1  0
 11 15  1  0
 12 10  1  0
 10 13  1  0
 12 16  1  0
 11 17  1  0
 17 18  1  0
 18 19  1  0
 18 20  1  0
 18 21  1  0
 15 22  2  0
 14 23  1  0
 23 24  1  0
 24 25  2  0
 24 26  1  0
 28 29  1  0
 29 30  2  0
 30 31  1  0
 27 31  2  0
 27 26  1  0
 26 28  2  0
 31 32  1  0
 30 33  1  0
 34 32  1  1
 34 33  1  0
 34 35  1  0
 35 36  2  0
 36 37  1  0
 37 38  1  0
 38 34  1  0
 38 39  2  0
 36 40  1  0
 35 41  1  0
 41 42  2  0
 40 43  2  0
 43 42  1  0
  2 44  1  0
  3 45  1  0
 10 46  1  1
 12 47  1  1
 13 48  1  0
 13 49  1  0
 14 50  1  1
 16 51  1  0
 16 52  1  0
 16 53  1  0
 17 54  1  0
 17 55  1  0
 23 56  1  0
 27 57  1  0
 28 58  1  0
 32 59  1  0
 32 60  1  0
 33 61  1  0
 33 62  1  0
 37 63  1  0
 41 64  1  0
 42 65  1  0
 43 66  1  0
M  END
> <Uni-Dock RESULT> 
ENERGY=   -4.074  LOWER_BOUND=    3.436  UPPER_BOUND=    5.073
INTER + INTRA:          -4.074
INTER:                  -4.074
INTRA:                   0.000
UNBOUND:                 0.000

$$$$

     RDKit          3D

 66 71  0  0  0  0  0  0  0  0999 V2000
   25.1964   10.4838   19.1337 C   0  0  0  0  0  0  0  0  0  0  0  0
   23.9276   10.6218   18.5691 C   0  0  0  0  0  0  0  0  0  0  0  0
   23.2224   11.8092   18.7421 C   0  0  0  0  0  0  0  0  0  0  0  0
   23.8034   12.8403   19.4710 C   0  0  0  0  0  0  0  0  0  0  0  0
   25.0726   12.6932   20.0329 C   0  0  0  0  0  0  0  0  0  0  0  0
   25.7963   11.5050   19.8861 C   0  0  0  0  0  0  0  0  0  0  0  0
   25.8585    9.3353   18.9347 F   0  0  0  0  0  0  0  0  0  0  0  0
   23.1347   13.9919   19.6199 F   0  0  0  0  0  0  0  0  0  0  0  0
   25.6031   13.7321   20.6920 F   0  0  0  0  0  0  0  0  0  0  0  0
   27.1799   11.2739   20.4657 C   0  0  1  0  0  0  0  0  0  0  0  0
   29.6394   11.1897   20.0175 N   0  0  0  0  0  0  0  0  0  0  0  0
   28.3184   11.4996   19.4377 C   0  0  2  0  0  0  0  0  0  0  0  0
   27.5019   12.0300   21.7631 C   0  0  0  0  0  0  0  0  0  0  0  0
   28.7895   11.4696   22.3586 C   0  0  1  0  0  0  0  0  0  0  0  0
   29.9542   11.4168   21.3493 C   0  0  0  0  0  0  0  0  0  0  0  0
   28.3384   12.9219   18.8544 C   0  0  0  0  0  0  0  0  0  0  0  0
   30.7381   10.8221   19.0987 C   0  0  0  0  0  0  0  0  0  0  0  0
   31.0266    9.3203   19.0399 C   0  0  0  0  0  0  0  0  0  0  0  0
   31.3358    8.8034   20.2468 F   0  0  0  0  0  0  0  0  0  0  0  0
   29.9515    8.6461   18.5658 F   0  0  0  0  0  0  0  0  0  0  0  0
   32.0599    9.0664   18.2039 F   0  0  0  0  0  0  0  0  0  0  0  0
   31.1234   11.4716   21.7417 O   0  0  0  0  0  0  0  0  0  0  0  0
   29.2416   12.2271   23.5241 N   0  0  0  0  0  0  0  0  0  0  0  0
   28.5941   12.1129   24.7361 C   0  0  0  0  0  0  0  0  0  0  0  0
   27.5555   11.4776   24.8814 O   0  0  0  0  0  0  0  0  0  0  0  0
   29.2363   12.7618   25.9044 C   0  0  0  0  0  0  0  0  0  0  0  0
   28.9483   12.2947   27.1912 C   0  0  0  0  0  0  0  0  0  0  0  0
   30.1106   13.8435   25.7725 C   0  0  0  0  0  0  0  0  0  0  0  0
   30.7339   14.4595   26.8120 N   0  0  0  0  0  0  0  0  0  0  0  0
   30.4266   13.9796   28.0280 C   0  0  0  0  0  0  0  0  0  0  0  0
   29.5604   12.9215   28.2621 C   0  0  0  0  0  0  0  0  0  0  0  0
   29.4560   12.5974   29.7160 C   0  0  0  0  0  0  0  0  0  0  0  0
   31.0287   14.5009   29.3019 C   0  0  0  0  0  0  0  0  0  0  0  0
   30.1716   13.7986   30.3729 C   0  0  2  0  0  0  0  0  0  0  0  0
   30.9417   13.4338   31.6148 C   0  0  0  0  0  0  0  0  0  0  0  0
   30.4152   14.1059   32.7081 C   0  0  0  0  0  0  0  0  0  0  0  0
   29.3568   14.8917   32.3082 N   0  0  0  0  0  0  0  0  0  0  0  0
   29.1258   14.7861   30.9490 C   0  0  0  0  0  0  0  0  0  0  0  0
   28.2483   15.3693   30.3357 O   0  0  0  0  0  0  0  0  0  0  0  0
   30.8551   14.0159   33.9634 N   0  0  0  0  0  0  0  0  0  0  0  0
   32.0191   12.5888   31.8027 C   0  0  0  0  0  0  0  0  0  0  0  0
   32.5159   12.4622   33.0990 C   0  0  0  0  0  0  0  0  0  0  0  0
   31.9106   13.1840   34.1302 C   0  0  0  0  0  0  0  0  0  0  0  0
   23.5021    9.8016   17.9979 H   0  0  0  0  0  0  0  0  0  0  0  0
   22.2345   11.9409   18.3117 H   0  0  0  0  0  0  0  0  0  0  0  0
   27.2058   10.2078   20.7426 H   0  0  0  0  0  0  0  0  0  0  0  0
   28.1703   10.7972   18.6066 H   0  0  0  0  0  0  0  0  0  0  0  0
   26.6766   11.9180   22.4767 H   0  0  0  0  0  0  0  0  0  0  0  0
   27.6158   13.1060   21.5904 H   0  0  0  0  0  0  0  0  0  0  0  0
   28.6217   10.4349   22.6859 H   0  0  0  0  0  0  0  0  0  0  0  0
   27.3997   13.1650   18.3488 H   0  0  0  0  0  0  0  0  0  0  0  0
   29.1348   13.0279   18.1100 H   0  0  0  0  0  0  0  0  0  0  0  0
   28.5247   13.6774   19.6239 H   0  0  0  0  0  0  0  0  0  0  0  0
   30.4944   11.1793   18.0927 H   0  0  0  0  0  0  0  0  0  0  0  0
   31.6507   11.3440   19.4067 H   0  0  0  0  0  0  0  0  0  0  0  0
   30.2359   12.4403   23.5279 H   0  0  0  0  0  0  0  0  0  0  0  0
   28.2653   11.4637   27.3419 H   0  0  0  0  0  0  0  0  0  0  0  0
   30.3403   14.2777   24.8039 H   0  0  0  0  0  0  0  0  0  0  0  0
   28.4090   12.5097   30.0245 H   0  0  0  0  0  0  0  0  0  0  0  0
   29.9685   11.6487   29.9091 H   0  0  0  0  0  0  0  0  0  0  0  0
   30.9611   15.5928   29.3439 H   0  0  0  0  0  0  0  0  0  0  0  0
   32.0820   14.2031   29.3406 H   0  0  0  0  0  0  0  0  0  0  0  0
   28.8255   15.4681   32.9405 H   0  0  0  0  0  0  0  0  0  0  0  0
   32.4688   12.0424   30.9798 H   0  0  0  0  0  0  0  0  0  0  0  0
   33.3613   11.8146   33.3100 H   0  0  0  0  0  0  0  0  0  0  0  0
   32.2773   13.1046   35.1506 H   0  0  0  0  0  0  0  0  0  0  0  0
  1  2  2  0
  2  3  1  0
  3  4  2  0
  4  5  1  0
  5  6  2  0
  1  6  1  0
  1  7  1  0
  4  8  1  0
  5  9  1  0
 10  6  1  0
 11 12  1  0
 13 14  1  0
 14 15  1  0
 11 15  1  0
 12 10  1  0
 10 13  1  0
 12 16  1  0
 11 17  1  0
 17 18  1  0
 18 19  1  0
 18 20  1  0
 18 21  1  0
 15 22  2  0
 14 23  1  0
 23 24  1  0
 24 25  2  0
 24 26  1  0
 28 29  1  0
 29 30  2  0
 30 31  1  0
 27 31  2  0
 27 26  1  0
 26 28  2  0
 31 32  1  0
 30 33  1  0
 34 32  1  1
 34 33  1  0
 34 35  1  0
 35 36  2  0
 36 37  1  0
 37 38  1  0
 38 34  1  0
 38 39  2  0
 36 40  1  0
 35 41  1  0
 41 42  2  0
 40 43  2  0
 43 42  1  0
  2 44  1  0
  3 45  1  0
 10 46  1  1
 12 47  1  1
 13 48  1  0
 13 49  1  0
 14 50  1  1
 16 51  1  0
 16 52  1  0
 16 53  1  0
 17 54  1  0
 17 55  1  0
 23 56  1  0
 27 57  1  0
 28 58  1  0
 32 59  1  0
 32 60  1  0
 33 61  1  0
 33 62  1  0
 37 63  1  0
 41 64  1  0
 42 65  1  0
 43 66  1  0
M  END
> <Uni-Dock RESULT> 
ENERGY=   -3.996  LOWER_BOUND=    4.781  UPPER_BOUND=    6.772
INTER + INTRA:          -3.996
INTER:                  -3.996
INTRA:                   0.000
UNBOUND:                 0.000

$$$$

     RDKit          3D

 66 71  0  0  0  0  0  0  0  0999 V2000
   34.8066   12.2899   26.5577 C   0  0  0  0  0  0  0  0  0  0  0  0
   34.6234   13.3218   25.6362 C   0  0  0  0  0  0  0  0  0  0  0  0
   33.4833   14.1168   25.7102 C   0  0  0  0  0  0  0  0  0  0  0  0
   32.5504   13.8691   26.7104 C   0  0  0  0  0  0  0  0  0  0  0  0
   32.7414   12.8343   27.6273 C   0  0  0  0  0  0  0  0  0  0  0  0
   33.8713   12.0116   27.5661 C   0  0  0  0  0  0  0  0  0  0  0  0
   35.9231   11.5529   26.4723 F   0  0  0  0  0  0  0  0  0  0  0  0
   31.4631   14.6475   26.7962 F   0  0  0  0  0  0  0  0  0  0  0  0
   31.8315   12.6637   28.5959 F   0  0  0  0  0  0  0  0  0  0  0  0
   34.1468   10.8708   28.5285 C   0  0  1  0  0  0  0  0  0  0  0  0
   35.4194   10.1035   30.5406 N   0  0  0  0  0  0  0  0  0  0  0  0
   35.1169   11.2588   29.6741 C   0  0  2  0  0  0  0  0  0  0  0  0
   32.9121   10.1714   29.1157 C   0  0  0  0  0  0  0  0  0  0  0  0
   33.3521    8.8879   29.8126 C   0  0  1  0  0  0  0  0  0  0  0  0
   34.4979    9.1054   30.8215 C   0  0  0  0  0  0  0  0  0  0  0  0
   34.6043   12.4233   30.5372 C   0  0  0  0  0  0  0  0  0  0  0  0
   36.6815   10.1181   31.3111 C   0  0  0  0  0  0  0  0  0  0  0  0
   37.7908    9.2532   30.7082 C   0  0  0  0  0  0  0  0  0  0  0  0
   37.4277    7.9609   30.5758 F   0  0  0  0  0  0  0  0  0  0  0  0
   38.1397    9.7111   29.4819 F   0  0  0  0  0  0  0  0  0  0  0  0
   38.9000    9.2942   31.4821 F   0  0  0  0  0  0  0  0  0  0  0  0
   34.6358    8.3438   31.7832 O   0  0  0  0  0  0  0  0  0  0  0  0
   32.2535    8.2307   30.5180 N   0  0  0  0  0  0  0  0  0  0  0  0
   31.2718    7.5549   29.8244 C   0  0  0  0  0  0  0  0  0  0  0  0
   31.1938    7.5609   28.6008 O   0  0  0  0  0  0  0  0  0  0  0  0
   30.3118    6.7575   30.6250 C   0  0  0  0  0  0  0  0  0  0  0  0
   29.6403    5.6882   30.0229 C   0  0  0  0  0  0  0  0  0  0  0  0
   30.0336    7.0452   31.9635 C   0  0  0  0  0  0  0  0  0  0  0  0
   29.1741    6.3336   32.7404 N   0  0  0  0  0  0  0  0  0  0  0  0
   28.5510    5.3181   32.1207 C   0  0  0  0  0  0  0  0  0  0  0  0
   28.7486    4.9639   30.7940 C   0  0  0  0  0  0  0  0  0  0  0  0
   27.9419    3.7674   30.4100 C   0  0  0  0  0  0  0  0  0  0  0  0
   27.5870    4.3933   32.8081 C   0  0  0  0  0  0  0  0  0  0  0  0
   26.9985    3.6040   31.6225 C   0  0  2  0  0  0  0  0  0  0  0  0
   26.6864    2.1680   31.9521 C   0  0  0  0  0  0  0  0  0  0  0  0
   25.3257    1.9386   31.8100 C   0  0  0  0  0  0  0  0  0  0  0  0
   24.6956    3.0974   31.4130 N   0  0  0  0  0  0  0  0  0  0  0  0
   25.5890    4.1433   31.2717 C   0  0  0  0  0  0  0  0  0  0  0  0
   25.2993    5.2761   30.9265 O   0  0  0  0  0  0  0  0  0  0  0  0
   24.7054    0.7777   32.0215 N   0  0  0  0  0  0  0  0  0  0  0  0
   27.5039    1.1264   32.3484 C   0  0  0  0  0  0  0  0  0  0  0  0
   26.9007   -0.1084   32.5828 C   0  0  0  0  0  0  0  0  0  0  0  0
   25.5204   -0.2322   32.4087 C   0  0  0  0  0  0  0  0  0  0  0  0
   35.3734   13.4967   24.8700 H   0  0  0  0  0  0  0  0  0  0  0  0
   33.3190   14.9262   25.0056 H   0  0  0  0  0  0  0  0  0  0  0  0
   34.6538   10.0986   27.9280 H   0  0  0  0  0  0  0  0  0  0  0  0
   36.0693   11.5681   29.2232 H   0  0  0  0  0  0  0  0  0  0  0  0
   32.1971    9.9404   28.3167 H   0  0  0  0  0  0  0  0  0  0  0  0
   32.3810   10.8120   29.8284 H   0  0  0  0  0  0  0  0  0  0  0  0
   33.7329    8.1779   29.0662 H   0  0  0  0  0  0  0  0  0  0  0  0
   34.4375   13.3252   29.9417 H   0  0  0  0  0  0  0  0  0  0  0  0
   35.3332   12.6862   31.3114 H   0  0  0  0  0  0  0  0  0  0  0  0
   33.6735   12.1709   31.0543 H   0  0  0  0  0  0  0  0  0  0  0  0
   37.0366   11.1507   31.3915 H   0  0  0  0  0  0  0  0  0  0  0  0
   36.4809    9.7726   32.3312 H   0  0  0  0  0  0  0  0  0  0  0  0
   32.4855    7.9132   31.4558 H   0  0  0  0  0  0  0  0  0  0  0  0
   29.8168    5.4355   28.9814 H   0  0  0  0  0  0  0  0  0  0  0  0
   30.4910    7.8877   32.4740 H   0  0  0  0  0  0  0  0  0  0  0  0
   27.4003    3.9428   29.4746 H   0  0  0  0  0  0  0  0  0  0  0  0
   28.6115    2.9099   30.2827 H   0  0  0  0  0  0  0  0  0  0  0  0
   26.8340    4.9617   33.3634 H   0  0  0  0  0  0  0  0  0  0  0  0
   28.1450    3.7579   33.5042 H   0  0  0  0  0  0  0  0  0  0  0  0
   23.7037    3.1600   31.2498 H   0  0  0  0  0  0  0  0  0  0  0  0
   28.5739    1.2549   32.4765 H   0  0  0  0  0  0  0  0  0  0  0  0
   27.4896   -0.9644   32.8974 H   0  0  0  0  0  0  0  0  0  0  0  0
   25.0236   -1.1830   32.5846 H   0  0  0  0  0  0  0  0  0  0  0  0
  1  2  2  0
  2  3  1  0
  3  4  2  0
  4  5  1  0
  5  6  2  0
  1  6  1  0
  1  7  1  0
  4  8  1  0
  5  9  1  0
 10  6  1  0
 11 12  1  0
 13 14  1  0
 14 15  1  0
 11 15  1  0
 12 10  1  0
 10 13  1  0
 12 16  1  0
 11 17  1  0
 17 18  1  0
 18 19  1  0
 18 20  1  0
 18 21  1  0
 15 22  2  0
 14 23  1  0
 23 24  1  0
 24 25  2  0
 24 26  1  0
 28 29  1  0
 29 30  2  0
 30 31  1  0
 27 31  2  0
 27 26  1  0
 26 28  2  0
 31 32  1  0
 30 33  1  0
 34 32  1  1
 34 33  1  0
 34 35  1  0
 35 36  2  0
 36 37  1  0
 37 38  1  0
 38 34  1  0
 38 39  2  0
 36 40  1  0
 35 41  1  0
 41 42  2  0
 40 43  2  0
 43 42  1  0
  2 44  1  0
  3 45  1  0
 10 46  1  1
 12 47  1  1
 13 48  1  0
 13 49  1  0
 14 50  1  1
 16 51  1  0
 16 52  1  0
 16 53  1  0
 17 54  1  0
 17 55  1  0
 23 56  1  0
 27 57  1  0
 28 58  1  0
 32 59  1  0
 32 60  1  0
 33 61  1  0
 33 62  1  0
 37 63  1  0
 41 64  1  0
 42 65  1  0
 43 66  1  0
M  END
> <Uni-Dock RESULT> 
ENERGY=   -3.925  LOWER_BOUND=    6.815  UPPER_BOUND=    9.037
INTER + INTRA:          -3.925
INTER:                  -3.925
INTRA:                   0.000
UNBOUND:                 0.000

$$$$

     RDKit          3D

 66 71  0  0  0  0  0  0  0  0999 V2000
   32.4652   12.2193   23.9317 C   0  0  0  0  0  0  0  0  0  0  0  0
   32.0346   12.7592   22.7190 C   0  0  0  0  0  0  0  0  0  0  0  0
   30.6920   13.0839   22.5479 C   0  0  0  0  0  0  0  0  0  0  0  0
   29.8057   12.8694   23.5970 C   0  0  0  0  0  0  0  0  0  0  0  0
   30.2451   12.3281   24.8061 C   0  0  0  0  0  0  0  0  0  0  0  0
   31.5862   11.9796   24.9989 C   0  0  0  0  0  0  0  0  0  0  0  0
   33.7673   11.9333   24.0729 F   0  0  0  0  0  0  0  0  0  0  0  0
   28.5171   13.2019   23.4412 F   0  0  0  0  0  0  0  0  0  0  0  0
   29.3574   12.1789   25.7986 F   0  0  0  0  0  0  0  0  0  0  0  0
   32.1361   11.3897   26.2847 C   0  0  1  0  0  0  0  0  0  0  0  0
   33.3942   11.8197   28.4035 N   0  0  0  0  0  0  0  0  0  0  0  0
   32.8050   12.4444   27.2036 C   0  0  2  0  0  0  0  0  0  0  0  0
   31.1584   10.5378   27.1075 C   0  0  0  0  0  0  0  0  0  0  0  0
   31.9357    9.7929   28.1880 C   0  0  1  0  0  0  0  0  0  0  0  0
   32.8396   10.7143   29.0319 C   0  0  0  0  0  0  0  0  0  0  0  0
   31.8507   13.5712   27.6316 C   0  0  0  0  0  0  0  0  0  0  0  0
   34.4981   12.5252   29.0892 C   0  0  0  0  0  0  0  0  0  0  0  0
   35.8859   11.9548   28.7879 C   0  0  0  0  0  0  0  0  0  0  0  0
   35.9929   10.6502   29.1132 F   0  0  0  0  0  0  0  0  0  0  0  0
   36.1759   12.0763   27.4702 F   0  0  0  0  0  0  0  0  0  0  0  0
   36.8374   12.6314   29.4720 F   0  0  0  0  0  0  0  0  0  0  0  0
   33.1331   10.4092   30.1914 O   0  0  0  0  0  0  0  0  0  0  0  0
   31.0601    9.0643   29.1038 N   0  0  0  0  0  0  0  0  0  0  0  0
   30.4339    7.9013   28.7082 C   0  0  0  0  0  0  0  0  0  0  0  0
   30.4756    7.4780   27.5582 O   0  0  0  0  0  0  0  0  0  0  0  0
   29.7261    7.1291   29.7576 C   0  0  0  0  0  0  0  0  0  0  0  0
   29.5141    5.7586   29.5737 C   0  0  0  0  0  0  0  0  0  0  0  0
   29.2408    7.7238   30.9250 C   0  0  0  0  0  0  0  0  0  0  0  0
   28.6007    7.0543   31.9202 N   0  0  0  0  0  0  0  0  0  0  0  0
   28.4176    5.7421   31.7002 C   0  0  0  0  0  0  0  0  0  0  0  0
   28.8486    5.0648   30.5688 C   0  0  0  0  0  0  0  0  0  0  0  0
   28.5318    3.6072   30.6368 C   0  0  0  0  0  0  0  0  0  0  0  0
   27.7598    4.8196   32.6867 C   0  0  0  0  0  0  0  0  0  0  0  0
   27.5871    3.5326   31.8569 C   0  0  2  0  0  0  0  0  0  0  0  0
   27.7462    2.2711   32.6641 C   0  0  0  0  0  0  0  0  0  0  0  0
   26.5621    1.5487   32.6446 C   0  0  0  0  0  0  0  0  0  0  0  0
   25.6199    2.2163   31.8934 N   0  0  0  0  0  0  0  0  0  0  0  0
   26.1187    3.3996   31.3807 C   0  0  0  0  0  0  0  0  0  0  0  0
   25.4993    4.1799   30.6781 O   0  0  0  0  0  0  0  0  0  0  0  0
   26.3511    0.3826   33.2552 N   0  0  0  0  0  0  0  0  0  0  0  0
   28.8245    1.7715   33.3696 C   0  0  0  0  0  0  0  0  0  0  0  0
   28.6522    0.5540   34.0265 C   0  0  0  0  0  0  0  0  0  0  0  0
   27.4173   -0.0929   33.9416 C   0  0  0  0  0  0  0  0  0  0  0  0
   32.7516   12.9228   21.9195 H   0  0  0  0  0  0  0  0  0  0  0  0
   30.3332   13.5062   21.6143 H   0  0  0  0  0  0  0  0  0  0  0  0
   32.9281   10.6916   25.9700 H   0  0  0  0  0  0  0  0  0  0  0  0
   33.6363   12.9000   26.6492 H   0  0  0  0  0  0  0  0  0  0  0  0
   30.6425    9.8237   26.4542 H   0  0  0  0  0  0  0  0  0  0  0  0
   30.3773   11.1490   27.5731 H   0  0  0  0  0  0  0  0  0  0  0  0
   32.6025    9.0575   27.7183 H   0  0  0  0  0  0  0  0  0  0  0  0
   31.4480   14.1096   26.7692 H   0  0  0  0  0  0  0  0  0  0  0  0
   32.3712   14.3101   28.2504 H   0  0  0  0  0  0  0  0  0  0  0  0
   31.0141   13.1948   28.2282 H   0  0  0  0  0  0  0  0  0  0  0  0
   34.4759   13.5821   28.8037 H   0  0  0  0  0  0  0  0  0  0  0  0
   34.3289   12.4866   30.1709 H   0  0  0  0  0  0  0  0  0  0  0  0
   31.2946    9.1741   30.0873 H   0  0  0  0  0  0  0  0  0  0  0  0
   29.8639    5.2567   28.6762 H   0  0  0  0  0  0  0  0  0  0  0  0
   29.3372    8.7904   31.1056 H   0  0  0  0  0  0  0  0  0  0  0  0
   28.0548    3.2655   29.7122 H   0  0  0  0  0  0  0  0  0  0  0  0
   29.4597    3.0459   30.7915 H   0  0  0  0  0  0  0  0  0  0  0  0
   26.8100    5.2383   33.0349 H   0  0  0  0  0  0  0  0  0  0  0  0
   28.4297    4.6846   33.5426 H   0  0  0  0  0  0  0  0  0  0  0  0
   24.6852    1.8719   31.7449 H   0  0  0  0  0  0  0  0  0  0  0  0
   29.7715    2.2994   33.4179 H   0  0  0  0  0  0  0  0  0  0  0  0
   29.4618    0.1109   34.5982 H   0  0  0  0  0  0  0  0  0  0  0  0
   27.2548   -1.0432   34.4439 H   0  0  0  0  0  0  0  0  0  0  0  0
  1  2  2  0
  2  3  1  0
  3  4  2  0
  4  5  1  0
  5  6  2  0
  1  6  1  0
  1  7  1  0
  4  8  1  0
  5  9  1  0
 10  6  1  0
 11 12  1  0
 13 14  1  0
 14 15  1  0
 11 15  1  0
 12 10  1  0
 10 13  1  0
 12 16  1  0
 11 17  1  0
 17 18  1  0
 18 19  1  0
 18 20  1  0
 18 21  1  0
 15 22  2  0
 14 23  1  0
 23 24  1  0
 24 25  2  0
 24 26  1  0
 28 29  1  0
 29 30  2  0
 30 31  1  0
 27 31  2  0
 27 26  1  0
 26 28  2  0
 31 32  1  0
 30 33  1  0
 34 32  1  1
 34 33  1  0
 34 35  1  0
 35 36  2  0
 36 37  1  0
 37 38  1  0
 38 34  1  0
 38 39  2  0
 36 40  1  0
 35 41  1  0
 41 42  2  0
 40 43  2  0
 43 42  1  0
  2 44  1  0
  3 45  1  0
 10 46  1  1
 12 47  1  1
 13 48  1  0
 13 49  1  0
 14 50  1  1
 16 51  1  0
 16 52  1  0
 16 53  1  0
 17 54  1  0
 17 55  1  0
 23 56  1  0
 27 57  1  0
 28 58  1  0
 32 59  1  0
 32 60  1  0
 33 61  1  0
 33 62  1  0
 37 63  1  0
 41 64  1  0
 42 65  1  0
 43 66  1  0
M  END
> <Uni-Dock RESULT> 
ENERGY=   -3.870  LOWER_BOUND=    5.257  UPPER_BOUND=    6.945
INTER + INTRA:          -3.870
INTER:                  -3.870
INTRA:                   0.000
UNBOUND:                 0.000

$$$$

     RDKit          3D

 66 71  0  0  0  0  0  0  0  0999 V2000
   21.5186   12.3358   18.4455 C   0  0  0  0  0  0  0  0  0  0  0  0
   20.4932   13.2517   18.2069 C   0  0  0  0  0  0  0  0  0  0  0  0
   20.8074   14.5706   17.8921 C   0  0  0  0  0  0  0  0  0  0  0  0
   22.1432   14.9470   17.8143 C   0  0  0  0  0  0  0  0  0  0  0  0
   23.1623   14.0243   18.0554 C   0  0  0  0  0  0  0  0  0  0  0  0
   22.8734   12.6965   18.3879 C   0  0  0  0  0  0  0  0  0  0  0  0
   21.1851   11.0686   18.7288 F   0  0  0  0  0  0  0  0  0  0  0  0
   22.4474   16.2110   17.4899 F   0  0  0  0  0  0  0  0  0  0  0  0
   24.4331   14.4293   17.9282 F   0  0  0  0  0  0  0  0  0  0  0  0
   23.9271   11.6387   18.6607 C   0  0  1  0  0  0  0  0  0  0  0  0
   25.1887    9.6741   17.7631 N   0  0  0  0  0  0  0  0  0  0  0  0
   24.2185   10.7360   17.4343 C   0  0  2  0  0  0  0  0  0  0  0  0
   25.2511   12.1435   19.2532 C   0  0  0  0  0  0  0  0  0  0  0  0
   26.0683   10.9485   19.7338 C   0  0  1  0  0  0  0  0  0  0  0  0
   26.2301    9.8514   18.6623 C   0  0  0  0  0  0  0  0  0  0  0  0
   24.7150   11.5182   16.2073 C   0  0  0  0  0  0  0  0  0  0  0  0
   25.1812    8.4418   16.9459 C   0  0  0  0  0  0  0  0  0  0  0  0
   24.4896    7.2524   17.6162 C   0  0  0  0  0  0  0  0  0  0  0  0
   25.0432    6.9316   18.8036 F   0  0  0  0  0  0  0  0  0  0  0  0
   23.1794    7.5216   17.8314 F   0  0  0  0  0  0  0  0  0  0  0  0
   24.5490    6.1581   16.8226 F   0  0  0  0  0  0  0  0  0  0  0  0
   27.2083    9.0987   18.6822 O   0  0  0  0  0  0  0  0  0  0  0  0
   27.4040   11.3316   20.1872 N   0  0  0  0  0  0  0  0  0  0  0  0
   27.5833   11.9788   21.3915 C   0  0  0  0  0  0  0  0  0  0  0  0
   26.6509   12.3691   22.0854 O   0  0  0  0  0  0  0  0  0  0  0  0
   28.9795   12.1520   21.8594 C   0  0  0  0  0  0  0  0  0  0  0  0
   29.2278   12.3212   23.2257 C   0  0  0  0  0  0  0  0  0  0  0  0
   30.0659   12.1726   20.9812 C   0  0  0  0  0  0  0  0  0  0  0  0
   31.3625   12.3129   21.3652 N   0  0  0  0  0  0  0  0  0  0  0  0
   31.5533   12.4742   22.6848 C   0  0  0  0  0  0  0  0  0  0  0  0
   30.5403   12.4831   23.6325 C   0  0  0  0  0  0  0  0  0  0  0  0
   31.0740   12.6414   25.0180 C   0  0  0  0  0  0  0  0  0  0  0  0
   32.9095   12.6162   23.3154 C   0  0  0  0  0  0  0  0  0  0  0  0
   32.5514   13.0130   24.7608 C   0  0  2  0  0  0  0  0  0  0  0  0
   33.4994   12.4554   25.7897 C   0  0  0  0  0  0  0  0  0  0  0  0
   34.1320   13.4941   26.4571 C   0  0  0  0  0  0  0  0  0  0  0  0
   33.6907   14.7028   25.9653 N   0  0  0  0  0  0  0  0  0  0  0  0
   32.7556   14.5359   24.9605 C   0  0  0  0  0  0  0  0  0  0  0  0
   32.2000   15.4382   24.3576 O   0  0  0  0  0  0  0  0  0  0  0  0
   35.0333   13.3600   27.4302 N   0  0  0  0  0  0  0  0  0  0  0  0
   33.8056   11.1525   26.1342 C   0  0  0  0  0  0  0  0  0  0  0  0
   34.7443   10.9610   27.1470 C   0  0  0  0  0  0  0  0  0  0  0  0
   35.3216   12.0775   27.7558 C   0  0  0  0  0  0  0  0  0  0  0  0
   19.4583   12.9269   18.2673 H   0  0  0  0  0  0  0  0  0  0  0  0
   20.0275   15.3012   17.7011 H   0  0  0  0  0  0  0  0  0  0  0  0
   23.4947   10.9903   19.4394 H   0  0  0  0  0  0  0  0  0  0  0  0
   23.2848   10.2297   17.1552 H   0  0  0  0  0  0  0  0  0  0  0  0
   25.0517   12.8246   20.0893 H   0  0  0  0  0  0  0  0  0  0  0  0
   25.8331   12.7154   18.5221 H   0  0  0  0  0  0  0  0  0  0  0  0
   25.5583   10.4737   20.5827 H   0  0  0  0  0  0  0  0  0  0  0  0
   23.9881   12.2689   15.8850 H   0  0  0  0  0  0  0  0  0  0  0  0
   24.8762   10.8484   15.3558 H   0  0  0  0  0  0  0  0  0  0  0  0
   25.6694   12.0182   16.3992 H   0  0  0  0  0  0  0  0  0  0  0  0
   24.6873    8.6516   15.9914 H   0  0  0  0  0  0  0  0  0  0  0  0
   26.2143    8.1622   16.7122 H   0  0  0  0  0  0  0  0  0  0  0  0
   28.1521   10.7328   19.8466 H   0  0  0  0  0  0  0  0  0  0  0  0
   28.4126   12.3235   23.9435 H   0  0  0  0  0  0  0  0  0  0  0  0
   29.9335   12.0886   19.9065 H   0  0  0  0  0  0  0  0  0  0  0  0
   30.5310   13.4219   25.5613 H   0  0  0  0  0  0  0  0  0  0  0  0
   30.9690   11.6913   25.5530 H   0  0  0  0  0  0  0  0  0  0  0  0
   33.5015   13.3754   22.7944 H   0  0  0  0  0  0  0  0  0  0  0  0
   33.4270   11.6526   23.2570 H   0  0  0  0  0  0  0  0  0  0  0  0
   34.0188   15.5919   26.3060 H   0  0  0  0  0  0  0  0  0  0  0  0
   33.3404   10.3052   25.6407 H   0  0  0  0  0  0  0  0  0  0  0  0
   35.0273    9.9611   27.4613 H   0  0  0  0  0  0  0  0  0  0  0  0
   36.0565   11.9578   28.5479 H   0  0  0  0  0  0  0  0  0  0  0  0
  1  2  2  0
  2  3  1  0
  3  4  2  0
  4  5  1  0
  5  6  2  0
  1  6  1  0
  1  7  1  0
  4  8  1  0
  5  9  1  0
 10  6  1  0
 11 12  1  0
 13 14  1  0
 14 15  1  0
 11 15  1  0
 12 10  1  0
 10 13  1  0
 12 16  1  0
 11 17  1  0
 17 18  1  0
 18 19  1  0
 18 20  1  0
 18 21  1  0
 15 22  2  0
 14 23  1  0
 23 24  1  0
 24 25  2  0
 24 26  1  0
 28 29  1  0
 29 30  2  0
 30 31  1  0
 27 31  2  0
 27 26  1  0
 26 28  2  0
 31 32  1  0
 30 33  1  0
 34 32  1  1
 34 33  1  0
 34 35  1  0
 35 36  2  0
 36 37  1  0
 37 38  1  0
 38 34  1  0
 38 39  2  0
 36 40  1  0
 35 41  1  0
 41 42  2  0
 40 43  2  0
 43 42  1  0
  2 44  1  0
  3 45  1  0
 10 46  1  1
 12 47  1  1
 13 48  1  0
 13 49  1  0
 14 50  1  1
 16 51  1  0
 16 52  1  0
 16 53  1  0
 17 54  1  0
 17 55  1  0
 23 56  1  0
 27 57  1  0
 28 58  1  0
 32 59  1  0
 32 60  1  0
 33 61  1  0
 33 62  1  0
 37 63  1  0
 41 64  1  0
 42 65  1  0
 43 66  1  0
M  END
> <Uni-Dock RESULT> 
ENERGY=   -3.846  LOWER_BOUND=    7.242  UPPER_BOUND=    9.702
INTER + INTRA:          -3.846
INTER:                  -3.846
INTRA:                   0.000
UNBOUND:                 0.000

$$$$

     RDKit          3D

 66 71  0  0  0  0  0  0  0  0999 V2000
   29.2421    5.1522   31.0229 C   0  0  0  0  0  0  0  0  0  0  0  0
   28.9367    3.7905   31.0238 C   0  0  0  0  0  0  0  0  0  0  0  0
   29.0287    3.0633   29.8406 C   0  0  0  0  0  0  0  0  0  0  0  0
   29.4324    3.7111   28.6789 C   0  0  0  0  0  0  0  0  0  0  0  0
   29.7352    5.0735   28.6871 C   0  0  0  0  0  0  0  0  0  0  0  0
   29.6367    5.8304   29.8596 C   0  0  0  0  0  0  0  0  0  0  0  0
   29.1615    5.8220   32.1813 F   0  0  0  0  0  0  0  0  0  0  0  0
   29.5426    3.0075   27.5439 F   0  0  0  0  0  0  0  0  0  0  0  0
   30.1578    5.6402   27.5489 F   0  0  0  0  0  0  0  0  0  0  0  0
   29.9513    7.3128   29.9448 C   0  0  1  0  0  0  0  0  0  0  0  0
   31.6151    9.0543   30.6198 N   0  0  0  0  0  0  0  0  0  0  0  0
   31.3773    7.6050   30.4786 C   0  0  2  0  0  0  0  0  0  0  0  0
   29.7037    8.1287   28.6674 C   0  0  0  0  0  0  0  0  0  0  0  0
   29.7835    9.6144   29.0033 C   0  0  1  0  0  0  0  0  0  0  0  0
   31.0699    9.9985   29.7621 C   0  0  0  0  0  0  0  0  0  0  0  0
   32.4889    6.9877   29.6143 C   0  0  0  0  0  0  0  0  0  0  0  0
   32.6443    9.5042   31.5816 C   0  0  0  0  0  0  0  0  0  0  0  0
   32.0772   10.0290   32.9026 C   0  0  0  0  0  0  0  0  0  0  0  0
   31.2259   11.0607   32.7289 F   0  0  0  0  0  0  0  0  0  0  0  0
   31.4095    9.0493   33.5580 F   0  0  0  0  0  0  0  0  0  0  0  0
   33.0745   10.4478   33.7158 F   0  0  0  0  0  0  0  0  0  0  0  0
   31.5258   11.1427   29.6789 O   0  0  0  0  0  0  0  0  0  0  0  0
   29.6954   10.4610   27.8150 N   0  0  0  0  0  0  0  0  0  0  0  0
   28.4941   10.6408   27.1625 C   0  0  0  0  0  0  0  0  0  0  0  0
   27.4750   10.0265   27.4579 O   0  0  0  0  0  0  0  0  0  0  0  0
   28.4585   11.6649   26.0909 C   0  0  0  0  0  0  0  0  0  0  0  0
   27.2366   12.2513   25.7444 C   0  0  0  0  0  0  0  0  0  0  0  0
   29.6034   12.0580   25.3933 C   0  0  0  0  0  0  0  0  0  0  0  0
   29.6217   13.0025   24.4156 N   0  0  0  0  0  0  0  0  0  0  0  0
   28.4268   13.5368   24.1149 C   0  0  0  0  0  0  0  0  0  0  0  0
   27.2340   13.2020   24.7391 C   0  0  0  0  0  0  0  0  0  0  0  0
   26.0858   13.9975   24.2114 C   0  0  0  0  0  0  0  0  0  0  0  0
   28.2356   14.6152   23.0866 C   0  0  0  0  0  0  0  0  0  0  0  0
   26.7004   14.6762   22.9670 C   0  0  2  0  0  0  0  0  0  0  0  0
   26.1716   16.0639   22.7164 C   0  0  0  0  0  0  0  0  0  0  0  0
   25.5192   16.1041   21.4929 C   0  0  0  0  0  0  0  0  0  0  0  0
   25.5638   14.8620   20.8988 N   0  0  0  0  0  0  0  0  0  0  0  0
   26.2373   13.9435   21.6827 C   0  0  0  0  0  0  0  0  0  0  0  0
   26.4177   12.7718   21.3982 O   0  0  0  0  0  0  0  0  0  0  0  0
   24.9321   17.1748   20.9581 N   0  0  0  0  0  0  0  0  0  0  0  0
   26.2420   17.2161   23.4765 C   0  0  0  0  0  0  0  0  0  0  0  0
   25.6429   18.3633   22.9585 C   0  0  0  0  0  0  0  0  0  0  0  0
   25.0098   18.2948   21.7154 C   0  0  0  0  0  0  0  0  0  0  0  0
   28.6312    3.3095   31.9487 H   0  0  0  0  0  0  0  0  0  0  0  0
   28.7975    2.0029   29.8163 H   0  0  0  0  0  0  0  0  0  0  0  0
   29.2434    7.7191   30.6848 H   0  0  0  0  0  0  0  0  0  0  0  0
   31.4577    7.1762   31.4864 H   0  0  0  0  0  0  0  0  0  0  0  0
   28.7165    7.8880   28.2547 H   0  0  0  0  0  0  0  0  0  0  0  0
   30.4315    7.8903   27.8839 H   0  0  0  0  0  0  0  0  0  0  0  0
   28.9477    9.8865   29.6615 H   0  0  0  0  0  0  0  0  0  0  0  0
   32.3910    5.9007   29.5452 H   0  0  0  0  0  0  0  0  0  0  0  0
   33.4758    7.1893   30.0444 H   0  0  0  0  0  0  0  0  0  0  0  0
   32.4970    7.4012   28.6011 H   0  0  0  0  0  0  0  0  0  0  0  0
   33.3241    8.6715   31.7896 H   0  0  0  0  0  0  0  0  0  0  0  0
   33.2451   10.2943   31.1178 H   0  0  0  0  0  0  0  0  0  0  0  0
   30.3778   11.2144   27.7832 H   0  0  0  0  0  0  0  0  0  0  0  0
   26.3193   11.9678   26.2522 H   0  0  0  0  0  0  0  0  0  0  0  0
   30.5731   11.6090   25.5874 H   0  0  0  0  0  0  0  0  0  0  0  0
   25.2395   13.3484   23.9632 H   0  0  0  0  0  0  0  0  0  0  0  0
   25.7728   14.7220   24.9711 H   0  0  0  0  0  0  0  0  0  0  0  0
   28.7305   14.3473   22.1475 H   0  0  0  0  0  0  0  0  0  0  0  0
   28.6676   15.5463   23.4690 H   0  0  0  0  0  0  0  0  0  0  0  0
   25.1517   14.6625   20.0017 H   0  0  0  0  0  0  0  0  0  0  0  0
   26.7430   17.2376   24.4390 H   0  0  0  0  0  0  0  0  0  0  0  0
   25.6658   19.2994   23.5079 H   0  0  0  0  0  0  0  0  0  0  0  0
   24.5346   19.1739   21.2872 H   0  0  0  0  0  0  0  0  0  0  0  0
  1  2  2  0
  2  3  1  0
  3  4  2  0
  4  5  1  0
  5  6  2  0
  1  6  1  0
  1  7  1  0
  4  8  1  0
  5  9  1  0
 10  6  1  0
 11 12  1  0
 13 14  1  0
 14 15  1  0
 11 15  1  0
 12 10  1  0
 10 13  1  0
 12 16  1  0
 11 17  1  0
 17 18  1  0
 18 19  1  0
 18 20  1  0
 18 21  1  0
 15 22  2  0
 14 23  1  0
 23 24  1  0
 24 25  2  0
 24 26  1  0
 28 29  1  0
 29 30  2  0
 30 31  1  0
 27 31  2  0
 27 26  1  0
 26 28  2  0
 31 32  1  0
 30 33  1  0
 34 32  1  1
 34 33  1  0
 34 35  1  0
 35 36  2  0
 36 37  1  0
 37 38  1  0
 38 34  1  0
 38 39  2  0
 36 40  1  0
 35 41  1  0
 41 42  2  0
 40 43  2  0
 43 42  1  0
  2 44  1  0
  3 45  1  0
 10 46  1  1
 12 47  1  1
 13 48  1  0
 13 49  1  0
 14 50  1  1
 16 51  1  0
 16 52  1  0
 16 53  1  0
 17 54  1  0
 17 55  1  0
 23 56  1  0
 27 57  1  0
 28 58  1  0
 32 59  1  0
 32 60  1  0
 33 61  1  0
 33 62  1  0
 37 63  1  0
 41 64  1  0
 42 65  1  0
 43 66  1  0
M  END
> <Uni-Dock RESULT> 
ENERGY=   -3.795  LOWER_BOUND=    5.630  UPPER_BOUND=   10.955
INTER + INTRA:          -3.795
INTER:                  -3.795
INTRA:                   0.000
UNBOUND:                 0.000

$$$$

     RDKit          3D

 66 71  0  0  0  0  0  0  0  0999 V2000
   30.9165    8.4562   27.7179 C   0  0  0  0  0  0  0  0  0  0  0  0
   32.2268    7.9829   27.8001 C   0  0  0  0  0  0  0  0  0  0  0  0
   33.2885    8.8498   27.5584 C   0  0  0  0  0  0  0  0  0  0  0  0
   33.0195   10.1773   27.2461 C   0  0  0  0  0  0  0  0  0  0  0  0
   31.7058   10.6418   27.1653 C   0  0  0  0  0  0  0  0  0  0  0  0
   30.6205    9.7879   27.3893 C   0  0  0  0  0  0  0  0  0  0  0  0
   29.9155    7.6020   27.9736 F   0  0  0  0  0  0  0  0  0  0  0  0
   34.0411   11.0181   27.0347 F   0  0  0  0  0  0  0  0  0  0  0  0
   31.5029   11.9394   26.9002 F   0  0  0  0  0  0  0  0  0  0  0  0
   29.1677   10.2218   27.3212 C   0  0  1  0  0  0  0  0  0  0  0  0
   27.1259   10.8761   28.6096 N   0  0  0  0  0  0  0  0  0  0  0  0
   28.5577   10.5344   28.7119 C   0  0  2  0  0  0  0  0  0  0  0  0
   28.8523   11.3706   26.3519 C   0  0  0  0  0  0  0  0  0  0  0  0
   27.3399   11.4805   26.1867 C   0  0  1  0  0  0  0  0  0  0  0  0
   26.5851   11.5579   27.5293 C   0  0  0  0  0  0  0  0  0  0  0  0
   29.2968   11.6541   29.4628 C   0  0  0  0  0  0  0  0  0  0  0  0
   26.2714   10.6737   29.7993 C   0  0  0  0  0  0  0  0  0  0  0  0
   25.4072    9.4121   29.7397 C   0  0  0  0  0  0  0  0  0  0  0  0
   24.5930    9.3907   28.6645 F   0  0  0  0  0  0  0  0  0  0  0  0
   26.1841    8.3033   29.6907 F   0  0  0  0  0  0  0  0  0  0  0  0
   24.6345    9.3117   30.8460 F   0  0  0  0  0  0  0  0  0  0  0  0
   25.4891   12.1216   27.5977 O   0  0  0  0  0  0  0  0  0  0  0  0
   26.9485   12.6390   25.3860 N   0  0  0  0  0  0  0  0  0  0  0  0
   27.1301   12.6477   24.0192 C   0  0  0  0  0  0  0  0  0  0  0  0
   27.7227   11.7582   23.4184 O   0  0  0  0  0  0  0  0  0  0  0  0
   26.5278   13.7758   23.2688 C   0  0  0  0  0  0  0  0  0  0  0  0
   26.2296   13.6139   21.9116 C   0  0  0  0  0  0  0  0  0  0  0  0
   26.2612   15.0119   23.8628 C   0  0  0  0  0  0  0  0  0  0  0  0
   25.6965   16.0682   23.2195 N   0  0  0  0  0  0  0  0  0  0  0  0
   25.4290   15.8685   21.9187 C   0  0  0  0  0  0  0  0  0  0  0  0
   25.6706   14.6847   21.2369 C   0  0  0  0  0  0  0  0  0  0  0  0
   25.2280   14.7608   19.8129 C   0  0  0  0  0  0  0  0  0  0  0  0
   24.7790   16.8975   21.0381 C   0  0  0  0  0  0  0  0  0  0  0  0
   24.9336   16.2676   19.6402 C   0  0  2  0  0  0  0  0  0  0  0  0
   23.7748   16.5522   18.7211 C   0  0  0  0  0  0  0  0  0  0  0  0
   24.2142   17.2744   17.6213 C   0  0  0  0  0  0  0  0  0  0  0  0
   25.5694   17.5002   17.7218 N   0  0  0  0  0  0  0  0  0  0  0  0
   26.0961   16.9488   18.8752 C   0  0  0  0  0  0  0  0  0  0  0  0
   27.2679   16.9967   19.2081 O   0  0  0  0  0  0  0  0  0  0  0  0
   23.4530   17.6944   16.6107 N   0  0  0  0  0  0  0  0  0  0  0  0
   22.4362   16.2212   18.8143 C   0  0  0  0  0  0  0  0  0  0  0  0
   21.5991   16.6395   17.7810 C   0  0  0  0  0  0  0  0  0  0  0  0
   22.1445   17.3617   16.7172 C   0  0  0  0  0  0  0  0  0  0  0  0
   32.4067    6.9420   28.0537 H   0  0  0  0  0  0  0  0  0  0  0  0
   34.3164    8.5056   27.6174 H   0  0  0  0  0  0  0  0  0  0  0  0
   28.6221    9.3524   26.9209 H   0  0  0  0  0  0  0  0  0  0  0  0
   28.6179    9.6235   29.3223 H   0  0  0  0  0  0  0  0  0  0  0  0
   29.3248   11.1813   25.3804 H   0  0  0  0  0  0  0  0  0  0  0  0
   29.2526   12.3262   26.7082 H   0  0  0  0  0  0  0  0  0  0  0  0
   26.9614   10.5859   25.6745 H   0  0  0  0  0  0  0  0  0  0  0  0
   30.3494   11.4058   29.6250 H   0  0  0  0  0  0  0  0  0  0  0  0
   28.8551   11.8193   30.4514 H   0  0  0  0  0  0  0  0  0  0  0  0
   29.2427   12.6089   28.9307 H   0  0  0  0  0  0  0  0  0  0  0  0
   26.9070   10.6303   30.6899 H   0  0  0  0  0  0  0  0  0  0  0  0
   25.6166   11.5435   29.9206 H   0  0  0  0  0  0  0  0  0  0  0  0
   26.1763   13.1763   25.7723 H   0  0  0  0  0  0  0  0  0  0  0  0
   26.4307   12.6739   21.4058 H   0  0  0  0  0  0  0  0  0  0  0  0
   26.5091   15.2123   24.9010 H   0  0  0  0  0  0  0  0  0  0  0  0
   26.0132   14.4043   19.1380 H   0  0  0  0  0  0  0  0  0  0  0  0
   24.3333   14.1423   19.6824 H   0  0  0  0  0  0  0  0  0  0  0  0
   25.2844   17.8640   21.1333 H   0  0  0  0  0  0  0  0  0  0  0  0
   23.7317   17.0072   21.3394 H   0  0  0  0  0  0  0  0  0  0  0  0
   26.0987   18.0073   17.0311 H   0  0  0  0  0  0  0  0  0  0  0  0
   22.0422   15.6599   19.6555 H   0  0  0  0  0  0  0  0  0  0  0  0
   20.5379   16.4113   17.7979 H   0  0  0  0  0  0  0  0  0  0  0  0
   21.5153   17.7006   15.8981 H   0  0  0  0  0  0  0  0  0  0  0  0
  1  2  2  0
  2  3  1  0
  3  4  2  0
  4  5  1  0
  5  6  2  0
  1  6  1  0
  1  7  1  0
  4  8  1  0
  5  9  1  0
 10  6  1  0
 11 12  1  0
 13 14  1  0
 14 15  1  0
 11 15  1  0
 12 10  1  0
 10 13  1  0
 12 16  1  0
 11 17  1  0
 17 18  1  0
 18 19  1  0
 18 20  1  0
 18 21  1  0
 15 22  2  0
 14 23  1  0
 23 24  1  0
 24 25  2  0
 24 26  1  0
 28 29  1  0
 29 30  2  0
 30 31  1  0
 27 31  2  0
 27 26  1  0
 26 28  2  0
 31 32  1  0
 30 33  1  0
 34 32  1  1
 34 33  1  0
 34 35  1  0
 35 36  2  0
 36 37  1  0
 37 38  1  0
 38 34  1  0
 38 39  2  0
 36 40  1  0
 35 41  1  0
 41 42  2  0
 40 43  2  0
 43 42  1  0
  2 44  1  0
  3 45  1  0
 10 46  1  1
 12 47  1  1
 13 48  1  0
 13 49  1  0
 14 50  1  1
 16 51  1  0
 16 52  1  0
 16 53  1  0
 17 54  1  0
 17 55  1  0
 23 56  1  0
 27 57  1  0
 28 58  1  0
 32 59  1  0
 32 60  1  0
 33 61  1  0
 33 62  1  0
 37 63  1  0
 41 64  1  0
 42 65  1  0
 43 66  1  0
M  END
> <Uni-Dock RESULT> 
ENERGY=   -3.743  LOWER_BOUND=    4.716  UPPER_BOUND=   11.297
INTER + INTRA:          -3.743
INTER:                  -3.743
INTRA:                   0.000
UNBOUND:                 0.000

$$$$
