
     RDKit          3D

 66 71  0  0  0  0  0  0  0  0999 V2000
   30.2701   10.8053   21.0292 C   0  0  0  0  0  0  0  0  0  0  0  0
   30.3391    9.8097   20.0533 C   0  0  0  0  0  0  0  0  0  0  0  0
   29.1728    9.3630   19.4373 C   0  0  0  0  0  0  0  0  0  0  0  0
   27.9551    9.9219   19.8071 C   0  0  0  0  0  0  0  0  0  0  0  0
   27.8946   10.9167   20.7826 C   0  0  0  0  0  0  0  0  0  0  0  0
   29.0528   11.3804   21.4181 C   0  0  0  0  0  0  0  0  0  0  0  0
   31.4136   11.2188   21.5938 F   0  0  0  0  0  0  0  0  0  0  0  0
   26.8320    9.4942   19.2137 F   0  0  0  0  0  0  0  0  0  0  0  0
   26.6999   11.4285   21.1097 F   0  0  0  0  0  0  0  0  0  0  0  0
   29.0243   12.4620   22.4876 C   0  0  1  0  0  0  0  0  0  0  0  0
   27.0831   14.0265   22.1969 N   0  0  0  0  0  0  0  0  0  0  0  0
   28.5360   13.8720   22.0058 C   0  0  2  0  0  0  0  0  0  0  0  0
   28.2636   11.9576   23.7368 C   0  0  0  0  0  0  0  0  0  0  0  0
   27.5221   13.0845   24.4488 C   0  0  1  0  0  0  0  0  0  0  0  0
   26.5458   13.7399   23.4549 C   0  0  0  0  0  0  0  0  0  0  0  0
   29.0678   14.2200   20.6093 C   0  0  0  0  0  0  0  0  0  0  0  0
   26.2678   14.8868   21.3137 C   0  0  0  0  0  0  0  0  0  0  0  0
   26.3211   16.3891   21.6174 C   0  0  0  0  0  0  0  0  0  0  0  0
   27.5885   16.8593   21.5351 F   0  0  0  0  0  0  0  0  0  0  0  0
   25.5816   17.0791   20.7182 F   0  0  0  0  0  0  0  0  0  0  0  0
   25.8577   16.6915   22.8468 F   0  0  0  0  0  0  0  0  0  0  0  0
   25.3874   14.0142   23.7700 O   0  0  0  0  0  0  0  0  0  0  0  0
   26.7523   12.6065   25.5916 N   0  0  0  0  0  0  0  0  0  0  0  0
   27.3615   12.2542   26.7733 C   0  0  0  0  0  0  0  0  0  0  0  0
   28.5799   12.2203   26.9028 O   0  0  0  0  0  0  0  0  0  0  0  0
   26.4783   11.9280   27.9212 C   0  0  0  0  0  0  0  0  0  0  0  0
   25.1165   11.6309   27.7921 C   0  0  0  0  0  0  0  0  0  0  0  0
   27.0440   11.8986   29.2012 C   0  0  0  0  0  0  0  0  0  0  0  0
   26.3580   11.6199   30.3425 N   0  0  0  0  0  0  0  0  0  0  0  0
   25.0540   11.3562   30.1738 C   0  0  0  0  0  0  0  0  0  0  0  0
   24.4064   11.3413   28.9454 C   0  0  0  0  0  0  0  0  0  0  0  0
   22.9541   11.0188   29.0970 C   0  0  0  0  0  0  0  0  0  0  0  0
   24.1078   11.0577   31.3034 C   0  0  0  0  0  0  0  0  0  0  0  0
   22.8975   10.4801   30.5450 C   0  0  2  0  0  0  0  0  0  0  0  0
   22.8080    8.9746   30.6172 C   0  0  0  0  0  0  0  0  0  0  0  0
   21.6179    8.6131   31.2329 C   0  0  0  0  0  0  0  0  0  0  0  0
   20.9093    9.7434   31.5806 N   0  0  0  0  0  0  0  0  0  0  0  0
   21.5794   10.8983   31.2228 C   0  0  0  0  0  0  0  0  0  0  0  0
   21.1828   12.0364   31.4090 O   0  0  0  0  0  0  0  0  0  0  0  0
   21.2067    7.3659   31.4629 N   0  0  0  0  0  0  0  0  0  0  0  0
   23.6734    7.9835   30.1959 C   0  0  0  0  0  0  0  0  0  0  0  0
   23.2879    6.6618   30.4164 C   0  0  0  0  0  0  0  0  0  0  0  0
   22.0652    6.4066   31.0427 C   0  0  0  0  0  0  0  0  0  0  0  0
   31.3042    9.3910   19.7826 H   0  0  0  0  0  0  0  0  0  0  0  0
   29.2036    8.5892   18.6765 H   0  0  0  0  0  0  0  0  0  0  0  0
   30.0625   12.6263   22.8101 H   0  0  0  0  0  0  0  0  0  0  0  0
   28.9796   14.6104   22.6899 H   0  0  0  0  0  0  0  0  0  0  0  0
   28.9762   11.4691   24.4136 H   0  0  0  0  0  0  0  0  0  0  0  0
   27.5395   11.1747   23.4752 H   0  0  0  0  0  0  0  0  0  0  0  0
   28.2180   13.8505   24.8118 H   0  0  0  0  0  0  0  0  0  0  0  0
   28.5819   13.6311   19.8253 H   0  0  0  0  0  0  0  0  0  0  0  0
   30.1485   14.0464   20.5522 H   0  0  0  0  0  0  0  0  0  0  0  0
   28.9036   15.2748   20.3718 H   0  0  0  0  0  0  0  0  0  0  0  0
   25.2231   14.5636   21.3996 H   0  0  0  0  0  0  0  0  0  0  0  0
   26.5528   14.6977   20.2748 H   0  0  0  0  0  0  0  0  0  0  0  0
   25.7695   12.8659   25.5831 H   0  0  0  0  0  0  0  0  0  0  0  0
   24.6171   11.6075   26.8306 H   0  0  0  0  0  0  0  0  0  0  0  0
   28.1005   12.1126   29.3513 H   0  0  0  0  0  0  0  0  0  0  0  0
   22.6333   10.2783   28.3563 H   0  0  0  0  0  0  0  0  0  0  0  0
   22.3650   11.9337   28.9693 H   0  0  0  0  0  0  0  0  0  0  0  0
   24.5541   10.3529   32.0123 H   0  0  0  0  0  0  0  0  0  0  0  0
   23.8705   11.9911   31.8253 H   0  0  0  0  0  0  0  0  0  0  0  0
   20.0156    9.7130   32.0443 H   0  0  0  0  0  0  0  0  0  0  0  0
   24.6202    8.2121   29.7165 H   0  0  0  0  0  0  0  0  0  0  0  0
   23.9269    5.8396   30.1092 H   0  0  0  0  0  0  0  0  0  0  0  0
   21.7400    5.3854   31.2262 H   0  0  0  0  0  0  0  0  0  0  0  0
  1  2  2  0
  2  3  1  0
  3  4  2  0
  4  5  1  0
  5  6  2  0
  1  6  1  0
  1  7  1  0
  4  8  1  0
  5  9  1  0
 10  6  1  0
 11 12  1  0
 13 14  1  0
 14 15  1  0
 11 15  1  0
 12 10  1  0
 10 13  1  0
 12 16  1  0
 11 17  1  0
 17 18  1  0
 18 19  1  0
 18 20  1  0
 18 21  1  0
 15 22  2  0
 14 23  1  0
 23 24  1  0
 24 25  2  0
 24 26  1  0
 28 29  1  0
 29 30  2  0
 30 31  1  0
 27 31  2  0
 27 26  1  0
 26 28  2  0
 31 32  1  0
 30 33  1  0
 34 32  1  1
 34 33  1  0
 34 35  1  0
 35 36  2  0
 36 37  1  0
 37 38  1  0
 38 34  1  0
 38 39  2  0
 36 40  1  0
 35 41  1  0
 41 42  2  0
 40 43  2  0
 43 42  1  0
  2 44  1  0
  3 45  1  0
 10 46  1  6
 12 47  1  6
 13 48  1  0
 13 49  1  0
 14 50  1  6
 16 51  1  0
 16 52  1  0
 16 53  1  0
 17 54  1  0
 17 55  1  0
 23 56  1  0
 27 57  1  0
 28 58  1  0
 32 59  1  0
 32 60  1  0
 33 61  1  0
 33 62  1  0
 37 63  1  0
 41 64  1  0
 42 65  1  0
 43 66  1  0
M  END
> <Uni-Dock RESULT> 
ENERGY=   -4.731  LOWER_BOUND=    0.000  UPPER_BOUND=    0.000
INTER + INTRA:          -4.731
INTER:                  -4.731
INTRA:                   0.000
UNBOUND:                 0.000

$$$$

     RDKit          3D

 66 71  0  0  0  0  0  0  0  0999 V2000
   20.9088    8.2112   30.4468 C   0  0  0  0  0  0  0  0  0  0  0  0
   20.3183    6.9618   30.2499 C   0  0  0  0  0  0  0  0  0  0  0  0
   21.1187    5.8267   30.1486 C   0  0  0  0  0  0  0  0  0  0  0  0
   22.4986    5.9603   30.2482 C   0  0  0  0  0  0  0  0  0  0  0  0
   23.0809    7.2120   30.4456 C   0  0  0  0  0  0  0  0  0  0  0  0
   22.2976    8.3681   30.5478 C   0  0  0  0  0  0  0  0  0  0  0  0
   20.1074    9.2809   30.5502 F   0  0  0  0  0  0  0  0  0  0  0  0
   23.2700    4.8684   30.1528 F   0  0  0  0  0  0  0  0  0  0  0  0
   24.4154    7.2964   30.5357 F   0  0  0  0  0  0  0  0  0  0  0  0
   22.8984    9.7495   30.7609 C   0  0  1  0  0  0  0  0  0  0  0  0
   25.0888    9.6485   31.9824 N   0  0  0  0  0  0  0  0  0  0  0  0
   23.6535    9.9525   32.1200 C   0  0  2  0  0  0  0  0  0  0  0  0
   23.7491   10.1566   29.5345 C   0  0  0  0  0  0  0  0  0  0  0  0
   24.9380   11.0279   29.9268 C   0  0  1  0  0  0  0  0  0  0  0  0
   25.7995   10.2600   30.9460 C   0  0  0  0  0  0  0  0  0  0  0  0
   22.9332    9.2660   33.2878 C   0  0  0  0  0  0  0  0  0  0  0  0
   25.8883    9.1329   33.1138 C   0  0  0  0  0  0  0  0  0  0  0  0
   26.3562   10.1832   34.1286 C   0  0  0  0  0  0  0  0  0  0  0  0
   25.3035   10.8346   34.6779 F   0  0  0  0  0  0  0  0  0  0  0  0
   27.0314    9.5927   35.1420 F   0  0  0  0  0  0  0  0  0  0  0  0
   27.1663   11.1131   33.5840 F   0  0  0  0  0  0  0  0  0  0  0  0
   27.0273   10.2222   30.8585 O   0  0  0  0  0  0  0  0  0  0  0  0
   25.7798   11.3645   28.7844 N   0  0  0  0  0  0  0  0  0  0  0  0
   25.3924   12.3026   27.8563 C   0  0  0  0  0  0  0  0  0  0  0  0
   24.2859   12.8297   27.8735 O   0  0  0  0  0  0  0  0  0  0  0  0
   26.3852   12.6823   26.8199 C   0  0  0  0  0  0  0  0  0  0  0  0
   27.5264   11.9270   26.5254 C   0  0  0  0  0  0  0  0  0  0  0  0
   26.1570   13.8512   26.0846 C   0  0  0  0  0  0  0  0  0  0  0  0
   26.9800   14.3234   25.1095 N   0  0  0  0  0  0  0  0  0  0  0  0
   28.0682   13.5767   24.8711 C   0  0  0  0  0  0  0  0  0  0  0  0
   28.3713   12.3936   25.5321 C   0  0  0  0  0  0  0  0  0  0  0  0
   29.6552   11.8059   25.0399 C   0  0  0  0  0  0  0  0  0  0  0  0
   29.1232   13.9340   23.8614 C   0  0  0  0  0  0  0  0  0  0  0  0
   29.8918   12.6046   23.7374 C   0  0  2  0  0  0  0  0  0  0  0  0
   29.5456   11.8263   22.4907 C   0  0  0  0  0  0  0  0  0  0  0  0
   30.6856   11.6684   21.7151 C   0  0  0  0  0  0  0  0  0  0  0  0
   31.7586   12.2755   22.3322 N   0  0  0  0  0  0  0  0  0  0  0  0
   31.3960   12.8618   23.5303 C   0  0  0  0  0  0  0  0  0  0  0  0
   32.1442   13.4638   24.2819 O   0  0  0  0  0  0  0  0  0  0  0  0
   30.7510   11.0302   20.5464 N   0  0  0  0  0  0  0  0  0  0  0  0
   28.3513   11.2946   22.0439 C   0  0  0  0  0  0  0  0  0  0  0  0
   28.3686   10.6190   20.8244 C   0  0  0  0  0  0  0  0  0  0  0  0
   29.5729   10.5136   20.1235 C   0  0  0  0  0  0  0  0  0  0  0  0
   19.2372    6.8859   30.1767 H   0  0  0  0  0  0  0  0  0  0  0  0
   20.6803    4.8456   29.9946 H   0  0  0  0  0  0  0  0  0  0  0  0
   22.0631   10.4633   30.8015 H   0  0  0  0  0  0  0  0  0  0  0  0
   23.6243   11.0300   32.3394 H   0  0  0  0  0  0  0  0  0  0  0  0
   23.1058   10.6746   28.8119 H   0  0  0  0  0  0  0  0  0  0  0  0
   24.1250    9.2753   28.9980 H   0  0  0  0  0  0  0  0  0  0  0  0
   24.6074   11.9673   30.3862 H   0  0  0  0  0  0  0  0  0  0  0  0
   23.0221    8.1762   33.2428 H   0  0  0  0  0  0  0  0  0  0  0  0
   21.8684    9.5258   33.2925 H   0  0  0  0  0  0  0  0  0  0  0  0
   23.3413    9.5854   34.2508 H   0  0  0  0  0  0  0  0  0  0  0  0
   26.7794    8.6441   32.7012 H   0  0  0  0  0  0  0  0  0  0  0  0
   25.3220    8.3434   33.6160 H   0  0  0  0  0  0  0  0  0  0  0  0
   26.7639   11.1360   28.8969 H   0  0  0  0  0  0  0  0  0  0  0  0
   27.7533   10.9974   27.0343 H   0  0  0  0  0  0  0  0  0  0  0  0
   25.2787   14.4666   26.2699 H   0  0  0  0  0  0  0  0  0  0  0  0
   29.5568   10.7291   24.8651 H   0  0  0  0  0  0  0  0  0  0  0  0
   30.4410   11.9792   25.7836 H   0  0  0  0  0  0  0  0  0  0  0  0
   28.6697   14.2640   22.9211 H   0  0  0  0  0  0  0  0  0  0  0  0
   29.7432   14.7420   24.2648 H   0  0  0  0  0  0  0  0  0  0  0  0
   32.6864   12.2861   21.9403 H   0  0  0  0  0  0  0  0  0  0  0  0
   27.4294   11.3968   22.6079 H   0  0  0  0  0  0  0  0  0  0  0  0
   27.4610   10.1811   20.4204 H   0  0  0  0  0  0  0  0  0  0  0  0
   29.6147    9.9917   19.1706 H   0  0  0  0  0  0  0  0  0  0  0  0
  1  2  2  0
  2  3  1  0
  3  4  2  0
  4  5  1  0
  5  6  2  0
  1  6  1  0
  1  7  1  0
  4  8  1  0
  5  9  1  0
 10  6  1  0
 11 12  1  0
 13 14  1  0
 14 15  1  0
 11 15  1  0
 12 10  1  0
 10 13  1  0
 12 16  1  0
 11 17  1  0
 17 18  1  0
 18 19  1  0
 18 20  1  0
 18 21  1  0
 15 22  2  0
 14 23  1  0
 23 24  1  0
 24 25  2  0
 24 26  1  0
 28 29  1  0
 29 30  2  0
 30 31  1  0
 27 31  2  0
 27 26  1  0
 26 28  2  0
 31 32  1  0
 30 33  1  0
 34 32  1  1
 34 33  1  0
 34 35  1  0
 35 36  2  0
 36 37  1  0
 37 38  1  0
 38 34  1  0
 38 39  2  0
 36 40  1  0
 35 41  1  0
 41 42  2  0
 40 43  2  0
 43 42  1  0
  2 44  1  0
  3 45  1  0
 10 46  1  6
 12 47  1  6
 13 48  1  0
 13 49  1  0
 14 50  1  6
 16 51  1  0
 16 52  1  0
 16 53  1  0
 17 54  1  0
 17 55  1  0
 23 56  1  0
 27 57  1  0
 28 58  1  0
 32 59  1  0
 32 60  1  0
 33 61  1  0
 33 62  1  0
 37 63  1  0
 41 64  1  0
 42 65  1  0
 43 66  1  0
M  END
> <Uni-Dock RESULT> 
ENERGY=   -4.617  LOWER_BOUND=    5.085  UPPER_BOUND=   11.022
INTER + INTRA:          -4.617
INTER:                  -4.617
INTRA:                   0.000
UNBOUND:                 0.000

$$$$

     RDKit          3D

 66 71  0  0  0  0  0  0  0  0999 V2000
   31.6738    1.4257   33.8555 C   0  0  0  0  0  0  0  0  0  0  0  0
   30.5553    0.5949   33.7714 C   0  0  0  0  0  0  0  0  0  0  0  0
   30.1909    0.0477   32.5437 C   0  0  0  0  0  0  0  0  0  0  0  0
   30.9538    0.3397   31.4192 C   0  0  0  0  0  0  0  0  0  0  0  0
   32.0703    1.1702   31.5116 C   0  0  0  0  0  0  0  0  0  0  0  0
   32.4551    1.7344   32.7340 C   0  0  0  0  0  0  0  0  0  0  0  0
   32.0017    1.9264   35.0551 F   0  0  0  0  0  0  0  0  0  0  0  0
   30.6052   -0.1877   30.2374 F   0  0  0  0  0  0  0  0  0  0  0  0
   32.7781    1.4263   30.4028 F   0  0  0  0  0  0  0  0  0  0  0  0
   33.6653    2.6460   32.8715 C   0  0  1  0  0  0  0  0  0  0  0  0
   35.4236    2.1475   31.1510 N   0  0  0  0  0  0  0  0  0  0  0  0
   35.0501    1.9768   32.5662 C   0  0  2  0  0  0  0  0  0  0  0  0
   33.4418    3.9538   32.0757 C   0  0  0  0  0  0  0  0  0  0  0  0
   34.7442    4.5063   31.5056 C   0  0  1  0  0  0  0  0  0  0  0  0
   35.3849    3.4338   30.6057 C   0  0  0  0  0  0  0  0  0  0  0  0
   35.1311    0.5450   33.1114 C   0  0  0  0  0  0  0  0  0  0  0  0
   36.2587    1.1564   30.4402 C   0  0  0  0  0  0  0  0  0  0  0  0
   37.7671    1.2518   30.6996 C   0  0  0  0  0  0  0  0  0  0  0  0
   38.0466    1.1038   32.0164 F   0  0  0  0  0  0  0  0  0  0  0  0
   38.4227    0.2679   30.0408 F   0  0  0  0  0  0  0  0  0  0  0  0
   38.2928    2.4291   30.3056 F   0  0  0  0  0  0  0  0  0  0  0  0
   35.8531    3.7104   29.5009 O   0  0  0  0  0  0  0  0  0  0  0  0
   34.5334    5.7051   30.7021 N   0  0  0  0  0  0  0  0  0  0  0  0
   34.2652    6.9228   31.2825 C   0  0  0  0  0  0  0  0  0  0  0  0
   34.0850    7.0535   32.4878 O   0  0  0  0  0  0  0  0  0  0  0  0
   34.2195    8.1060   30.3870 C   0  0  0  0  0  0  0  0  0  0  0  0
   34.0941    8.0210   28.9954 C   0  0  0  0  0  0  0  0  0  0  0  0
   34.2873    9.3770   30.9694 C   0  0  0  0  0  0  0  0  0  0  0  0
   34.2607   10.5469   30.2754 N   0  0  0  0  0  0  0  0  0  0  0  0
   34.1549   10.4180   28.9447 C   0  0  0  0  0  0  0  0  0  0  0  0
   34.0616    9.2043   28.2764 C   0  0  0  0  0  0  0  0  0  0  0  0
   33.9614    9.4010   26.7974 C   0  0  0  0  0  0  0  0  0  0  0  0
   34.1423   11.5794   27.9901 C   0  0  0  0  0  0  0  0  0  0  0  0
   33.6362   10.9093   26.6985 C   0  0  2  0  0  0  0  0  0  0  0  0
   32.1802   11.1867   26.4104 C   0  0  0  0  0  0  0  0  0  0  0  0
   32.0692   11.8481   25.1954 C   0  0  0  0  0  0  0  0  0  0  0  0
   33.3213   12.0393   24.6511 N   0  0  0  0  0  0  0  0  0  0  0  0
   34.3162   11.5258   25.4619 C   0  0  0  0  0  0  0  0  0  0  0  0
   35.5120   11.5552   25.2246 O   0  0  0  0  0  0  0  0  0  0  0  0
   30.9316   12.2471   24.6262 N   0  0  0  0  0  0  0  0  0  0  0  0
   31.0336   10.9034   27.1272 C   0  0  0  0  0  0  0  0  0  0  0  0
   29.8181   11.3032   26.5733 C   0  0  0  0  0  0  0  0  0  0  0  0
   29.8172   11.9605   25.3403 C   0  0  0  0  0  0  0  0  0  0  0  0
   29.9774    0.3823   34.6663 H   0  0  0  0  0  0  0  0  0  0  0  0
   29.3243   -0.6002   32.4557 H   0  0  0  0  0  0  0  0  0  0  0  0
   33.7301    2.9412   33.9287 H   0  0  0  0  0  0  0  0  0  0  0  0
   35.8075    2.5528   33.1180 H   0  0  0  0  0  0  0  0  0  0  0  0
   32.9576    4.6897   32.7302 H   0  0  0  0  0  0  0  0  0  0  0  0
   32.7356    3.8029   31.2484 H   0  0  0  0  0  0  0  0  0  0  0  0
   35.4513    4.7600   32.3047 H   0  0  0  0  0  0  0  0  0  0  0  0
   34.5126   -0.1503   32.5357 H   0  0  0  0  0  0  0  0  0  0  0  0
   34.8071    0.5103   34.1579 H   0  0  0  0  0  0  0  0  0  0  0  0
   36.1565    0.1658   33.0847 H   0  0  0  0  0  0  0  0  0  0  0  0
   36.0940    1.2875   29.3636 H   0  0  0  0  0  0  0  0  0  0  0  0
   35.8940    0.1526   30.6764 H   0  0  0  0  0  0  0  0  0  0  0  0
   34.9195    5.6628   29.7627 H   0  0  0  0  0  0  0  0  0  0  0  0
   34.0085    7.0726   28.4781 H   0  0  0  0  0  0  0  0  0  0  0  0
   34.3751    9.4946   32.0477 H   0  0  0  0  0  0  0  0  0  0  0  0
   33.1777    8.7691   26.3658 H   0  0  0  0  0  0  0  0  0  0  0  0
   34.9218    9.1505   26.3332 H   0  0  0  0  0  0  0  0  0  0  0  0
   33.4861   12.3773   28.3526 H   0  0  0  0  0  0  0  0  0  0  0  0
   35.1612   11.9693   27.8900 H   0  0  0  0  0  0  0  0  0  0  0  0
   33.4748   12.5042   23.7709 H   0  0  0  0  0  0  0  0  0  0  0  0
   31.0655   10.3956   28.0861 H   0  0  0  0  0  0  0  0  0  0  0  0
   28.8832   11.1101   27.0905 H   0  0  0  0  0  0  0  0  0  0  0  0
   28.8836   12.2824   24.8855 H   0  0  0  0  0  0  0  0  0  0  0  0
  1  2  2  0
  2  3  1  0
  3  4  2  0
  4  5  1  0
  5  6  2  0
  1  6  1  0
  1  7  1  0
  4  8  1  0
  5  9  1  0
 10  6  1  0
 11 12  1  0
 13 14  1  0
 14 15  1  0
 11 15  1  0
 12 10  1  0
 10 13  1  0
 12 16  1  0
 11 17  1  0
 17 18  1  0
 18 19  1  0
 18 20  1  0
 18 21  1  0
 15 22  2  0
 14 23  1  0
 23 24  1  0
 24 25  2  0
 24 26  1  0
 28 29  1  0
 29 30  2  0
 30 31  1  0
 27 31  2  0
 27 26  1  0
 26 28  2  0
 31 32  1  0
 30 33  1  0
 34 32  1  1
 34 33  1  0
 34 35  1  0
 35 36  2  0
 36 37  1  0
 37 38  1  0
 38 34  1  0
 38 39  2  0
 36 40  1  0
 35 41  1  0
 41 42  2  0
 40 43  2  0
 43 42  1  0
  2 44  1  0
  3 45  1  0
 10 46  1  6
 12 47  1  6
 13 48  1  0
 13 49  1  0
 14 50  1  6
 16 51  1  0
 16 52  1  0
 16 53  1  0
 17 54  1  0
 17 55  1  0
 23 56  1  0
 27 57  1  0
 28 58  1  0
 32 59  1  0
 32 60  1  0
 33 61  1  0
 33 62  1  0
 37 63  1  0
 41 64  1  0
 42 65  1  0
 43 66  1  0
M  END
> <Uni-Dock RESULT> 
ENERGY=   -4.031  LOWER_BOUND=   10.289  UPPER_BOUND=   14.446
INTER + INTRA:          -4.031
INTER:                  -4.031
INTRA:                   0.000
UNBOUND:                 0.000

$$$$

     RDKit          3D

 66 71  0  0  0  0  0  0  0  0999 V2000
   25.8098    7.4805   31.3402 C   0  0  0  0  0  0  0  0  0  0  0  0
   25.8296    6.1135   31.6222 C   0  0  0  0  0  0  0  0  0  0  0  0
   27.0256    5.4058   31.5310 C   0  0  0  0  0  0  0  0  0  0  0  0
   28.1839    6.0788   31.1606 C   0  0  0  0  0  0  0  0  0  0  0  0
   28.1559    7.4448   30.8811 C   0  0  0  0  0  0  0  0  0  0  0  0
   26.9655    8.1774   30.9631 C   0  0  0  0  0  0  0  0  0  0  0  0
   24.6433    8.1323   31.4483 F   0  0  0  0  0  0  0  0  0  0  0  0
   29.3359    5.3992   31.0743 F   0  0  0  0  0  0  0  0  0  0  0  0
   29.2955    8.0550   30.5271 F   0  0  0  0  0  0  0  0  0  0  0  0
   26.8974    9.6674   30.6633 C   0  0  1  0  0  0  0  0  0  0  0  0
   29.0760   10.8246   31.1268 N   0  0  0  0  0  0  0  0  0  0  0  0
   27.7136   10.5875   31.6359 C   0  0  2  0  0  0  0  0  0  0  0  0
   27.2247    9.9279   29.1739 C   0  0  0  0  0  0  0  0  0  0  0  0
   27.9344   11.2624   28.9690 C   0  0  1  0  0  0  0  0  0  0  0  0
   29.2234   11.2719   29.8110 C   0  0  0  0  0  0  0  0  0  0  0  0
   27.6164   10.1161   33.0927 C   0  0  0  0  0  0  0  0  0  0  0  0
   30.2167   11.0657   32.0355 C   0  0  0  0  0  0  0  0  0  0  0  0
   30.3325   12.4903   32.5913 C   0  0  0  0  0  0  0  0  0  0  0  0
   29.2208   12.8366   33.2829 F   0  0  0  0  0  0  0  0  0  0  0  0
   31.3773   12.5799   33.4468 F   0  0  0  0  0  0  0  0  0  0  0  0
   30.5122   13.4155   31.6272 F   0  0  0  0  0  0  0  0  0  0  0  0
   30.2929   11.6763   29.3538 O   0  0  0  0  0  0  0  0  0  0  0  0
   28.3017   11.4870   27.5755 N   0  0  0  0  0  0  0  0  0  0  0  0
   27.3644   11.8349   26.6311 C   0  0  0  0  0  0  0  0  0  0  0  0
   26.1641   11.8742   26.8763 O   0  0  0  0  0  0  0  0  0  0  0  0
   27.8632   12.1897   25.2786 C   0  0  0  0  0  0  0  0  0  0  0  0
   29.1465   11.8735   24.8175 C   0  0  0  0  0  0  0  0  0  0  0  0
   26.9948   12.8620   24.4107 C   0  0  0  0  0  0  0  0  0  0  0  0
   27.3149   13.2526   23.1474 N   0  0  0  0  0  0  0  0  0  0  0  0
   28.5586   12.9425   22.7527 C   0  0  0  0  0  0  0  0  0  0  0  0
   29.4848   12.2615   23.5318 C   0  0  0  0  0  0  0  0  0  0  0  0
   30.7792   12.0772   22.8061 C   0  0  0  0  0  0  0  0  0  0  0  0
   29.1266   13.3107   21.4103 C   0  0  0  0  0  0  0  0  0  0  0  0
   30.3793   12.4158   21.3515 C   0  0  2  0  0  0  0  0  0  0  0  0
   30.2023   11.1936   20.4828 C   0  0  0  0  0  0  0  0  0  0  0  0
   31.1228   11.2292   19.4448 C   0  0  0  0  0  0  0  0  0  0  0  0
   31.8938   12.3679   19.5427 N   0  0  0  0  0  0  0  0  0  0  0  0
   31.5326   13.1391   20.6315 C   0  0  0  0  0  0  0  0  0  0  0  0
   32.0482   14.1954   20.9564 O   0  0  0  0  0  0  0  0  0  0  0  0
   31.2545   10.3103   18.4879 N   0  0  0  0  0  0  0  0  0  0  0  0
   29.3228   10.1311   20.5634 C   0  0  0  0  0  0  0  0  0  0  0  0
   29.4203    9.1446   19.5830 C   0  0  0  0  0  0  0  0  0  0  0  0
   30.3866    9.2751   18.5820 C   0  0  0  0  0  0  0  0  0  0  0  0
   24.9099    5.6127   31.9105 H   0  0  0  0  0  0  0  0  0  0  0  0
   27.0633    4.3422   31.7451 H   0  0  0  0  0  0  0  0  0  0  0  0
   25.8521    9.9786   30.8034 H   0  0  0  0  0  0  0  0  0  0  0  0
   27.2370   11.5784   31.6072 H   0  0  0  0  0  0  0  0  0  0  0  0
   26.2946    9.8859   28.5930 H   0  0  0  0  0  0  0  0  0  0  0  0
   27.8547    9.1307   28.7574 H   0  0  0  0  0  0  0  0  0  0  0  0
   27.3030   12.1008   29.2871 H   0  0  0  0  0  0  0  0  0  0  0  0
   28.1828    9.1961   33.2663 H   0  0  0  0  0  0  0  0  0  0  0  0
   26.5720    9.9370   33.3728 H   0  0  0  0  0  0  0  0  0  0  0  0
   28.0042   10.8711   33.7825 H   0  0  0  0  0  0  0  0  0  0  0  0
   31.1389   10.8442   31.4844 H   0  0  0  0  0  0  0  0  0  0  0  0
   30.1772   10.3398   32.8527 H   0  0  0  0  0  0  0  0  0  0  0  0
   29.2832   11.7020   27.4220 H   0  0  0  0  0  0  0  0  0  0  0  0
   29.8625   11.3305   25.4234 H   0  0  0  0  0  0  0  0  0  0  0  0
   25.9839   13.1207   24.7198 H   0  0  0  0  0  0  0  0  0  0  0  0
   31.1526   11.0533   22.9157 H   0  0  0  0  0  0  0  0  0  0  0  0
   31.5217   12.7758   23.2075 H   0  0  0  0  0  0  0  0  0  0  0  0
   28.4072   13.1057   20.6110 H   0  0  0  0  0  0  0  0  0  0  0  0
   29.3721   14.3783   21.4081 H   0  0  0  0  0  0  0  0  0  0  0  0
   32.6238   12.5974   18.8877 H   0  0  0  0  0  0  0  0  0  0  0  0
   28.5783   10.0590   21.3502 H   0  0  0  0  0  0  0  0  0  0  0  0
   28.7555    8.2863   19.5923 H   0  0  0  0  0  0  0  0  0  0  0  0
   30.4847    8.5201   17.8058 H   0  0  0  0  0  0  0  0  0  0  0  0
  1  2  2  0
  2  3  1  0
  3  4  2  0
  4  5  1  0
  5  6  2  0
  1  6  1  0
  1  7  1  0
  4  8  1  0
  5  9  1  0
 10  6  1  0
 11 12  1  0
 13 14  1  0
 14 15  1  0
 11 15  1  0
 12 10  1  0
 10 13  1  0
 12 16  1  0
 11 17  1  0
 17 18  1  0
 18 19  1  0
 18 20  1  0
 18 21  1  0
 15 22  2  0
 14 23  1  0
 23 24  1  0
 24 25  2  0
 24 26  1  0
 28 29  1  0
 29 30  2  0
 30 31  1  0
 27 31  2  0
 27 26  1  0
 26 28  2  0
 31 32  1  0
 30 33  1  0
 34 32  1  1
 34 33  1  0
 34 35  1  0
 35 36  2  0
 36 37  1  0
 37 38  1  0
 38 34  1  0
 38 39  2  0
 36 40  1  0
 35 41  1  0
 41 42  2  0
 40 43  2  0
 43 42  1  0
  2 44  1  0
  3 45  1  0
 10 46  1  6
 12 47  1  6
 13 48  1  0
 13 49  1  0
 14 50  1  6
 16 51  1  0
 16 52  1  0
 16 53  1  0
 17 54  1  0
 17 55  1  0
 23 56  1  0
 27 57  1  0
 28 58  1  0
 32 59  1  0
 32 60  1  0
 33 61  1  0
 33 62  1  0
 37 63  1  0
 41 64  1  0
 42 65  1  0
 43 66  1  0
M  END
> <Uni-Dock RESULT> 
ENERGY=   -3.955  LOWER_BOUND=    5.187  UPPER_BOUND=   11.007
INTER + INTRA:          -3.955
INTER:                  -3.955
INTRA:                   0.000
UNBOUND:                 0.000

$$$$

     RDKit          3D

 66 71  0  0  0  0  0  0  0  0999 V2000
   21.8767    9.8011   30.4928 C   0  0  0  0  0  0  0  0  0  0  0  0
   21.1473    8.6139   30.5751 C   0  0  0  0  0  0  0  0  0  0  0  0
   21.8052    7.3900   30.4809 C   0  0  0  0  0  0  0  0  0  0  0  0
   23.1841    7.3742   30.3075 C   0  0  0  0  0  0  0  0  0  0  0  0
   23.9058    8.5649   30.2268 C   0  0  0  0  0  0  0  0  0  0  0  0
   23.2668    9.8075   30.3160 C   0  0  0  0  0  0  0  0  0  0  0  0
   21.2124   10.9608   30.5980 F   0  0  0  0  0  0  0  0  0  0  0  0
   23.8187    6.1971   30.2186 F   0  0  0  0  0  0  0  0  0  0  0  0
   25.2341    8.5047   30.0591 F   0  0  0  0  0  0  0  0  0  0  0  0
   24.0215   11.1257   30.2300 C   0  0  1  0  0  0  0  0  0  0  0  0
   26.3902   10.9120   31.0324 N   0  0  0  0  0  0  0  0  0  0  0  0
   25.0436   11.3928   31.3887 C   0  0  2  0  0  0  0  0  0  0  0  0
   24.6490   11.2909   28.8256 C   0  0  0  0  0  0  0  0  0  0  0  0
   25.9664   12.0583   28.8743 C   0  0  1  0  0  0  0  0  0  0  0  0
   26.9369   11.3164   29.8114 C   0  0  0  0  0  0  0  0  0  0  0  0
   24.5063   10.9302   32.7493 C   0  0  0  0  0  0  0  0  0  0  0  0
   27.3453   10.4390   32.0566 C   0  0  0  0  0  0  0  0  0  0  0  0
   28.0970   11.5364   32.8198 C   0  0  0  0  0  0  0  0  0  0  0  0
   27.2365   12.3625   33.4609 F   0  0  0  0  0  0  0  0  0  0  0  0
   28.9008   10.9904   33.7619 F   0  0  0  0  0  0  0  0  0  0  0  0
   28.8663   12.2993   32.0174 F   0  0  0  0  0  0  0  0  0  0  0  0
   28.1150   11.1279   29.5065 O   0  0  0  0  0  0  0  0  0  0  0  0
   26.5951   12.1644   27.5626 N   0  0  0  0  0  0  0  0  0  0  0  0
   26.1208   13.0299   26.6048 C   0  0  0  0  0  0  0  0  0  0  0  0
   25.0920   13.6794   26.7540 O   0  0  0  0  0  0  0  0  0  0  0  0
   26.9218   13.1731   25.3631 C   0  0  0  0  0  0  0  0  0  0  0  0
   27.9092   12.2630   24.9677 C   0  0  0  0  0  0  0  0  0  0  0  0
   26.6618   14.2698   24.5332 C   0  0  0  0  0  0  0  0  0  0  0  0
   27.3174   14.5308   23.3700 N   0  0  0  0  0  0  0  0  0  0  0  0
   28.2649   13.6417   23.0378 C   0  0  0  0  0  0  0  0  0  0  0  0
   28.5821   12.5139   23.7835 C   0  0  0  0  0  0  0  0  0  0  0  0
   29.6855   11.7305   23.1472 C   0  0  0  0  0  0  0  0  0  0  0  0
   29.1297   13.7586   21.8137 C   0  0  0  0  0  0  0  0  0  0  0  0
   29.7343   12.3441   21.7290 C   0  0  2  0  0  0  0  0  0  0  0  0
   29.0808   11.4750   20.6814 C   0  0  0  0  0  0  0  0  0  0  0  0
   30.0274   11.1002   19.7382 C   0  0  0  0  0  0  0  0  0  0  0  0
   31.2515   11.6455   20.0622 N   0  0  0  0  0  0  0  0  0  0  0  0
   31.1858   12.4013   21.2177 C   0  0  0  0  0  0  0  0  0  0  0  0
   32.1187   12.9943   21.7328 O   0  0  0  0  0  0  0  0  0  0  0  0
   29.8039   10.3307   18.6727 N   0  0  0  0  0  0  0  0  0  0  0  0
   27.7786   11.0372   20.5355 C   0  0  0  0  0  0  0  0  0  0  0  0
   27.4948   10.2306   19.4342 C   0  0  0  0  0  0  0  0  0  0  0  0
   28.5235    9.9087   18.5451 C   0  0  0  0  0  0  0  0  0  0  0  0
   20.0705    8.6551   30.7119 H   0  0  0  0  0  0  0  0  0  0  0  0
   21.2572    6.4548   30.5415 H   0  0  0  0  0  0  0  0  0  0  0  0
   23.2792   11.9310   30.3275 H   0  0  0  0  0  0  0  0  0  0  0  0
   25.1566   12.4844   31.4645 H   0  0  0  0  0  0  0  0  0  0  0  0
   23.9267   11.7945   28.1706 H   0  0  0  0  0  0  0  0  0  0  0  0
   24.8303   10.3173   28.3513 H   0  0  0  0  0  0  0  0  0  0  0  0
   25.8195   13.0754   29.2573 H   0  0  0  0  0  0  0  0  0  0  0  0
   24.4847    9.8394   32.8340 H   0  0  0  0  0  0  0  0  0  0  0  0
   23.4915   11.3098   32.9142 H   0  0  0  0  0  0  0  0  0  0  0  0
   25.1227   11.3073   33.5702 H   0  0  0  0  0  0  0  0  0  0  0  0
   28.0898    9.8073   31.5566 H   0  0  0  0  0  0  0  0  0  0  0  0
   26.8186    9.7818   32.7544 H   0  0  0  0  0  0  0  0  0  0  0  0
   27.5571   11.8383   27.5225 H   0  0  0  0  0  0  0  0  0  0  0  0
   28.1454   11.3770   25.5455 H   0  0  0  0  0  0  0  0  0  0  0  0
   25.8968   14.9992   24.7926 H   0  0  0  0  0  0  0  0  0  0  0  0
   29.4567   10.6593   23.1380 H   0  0  0  0  0  0  0  0  0  0  0  0
   30.6143   11.8951   23.7047 H   0  0  0  0  0  0  0  0  0  0  0  0
   28.5330   14.0303   20.9369 H   0  0  0  0  0  0  0  0  0  0  0  0
   29.8880   14.5303   21.9857 H   0  0  0  0  0  0  0  0  0  0  0  0
   32.0815   11.5048   19.5092 H   0  0  0  0  0  0  0  0  0  0  0  0
   26.9983   11.3080   21.2400 H   0  0  0  0  0  0  0  0  0  0  0  0
   26.4894    9.8573   19.2651 H   0  0  0  0  0  0  0  0  0  0  0  0
   28.3299    9.2810   17.6787 H   0  0  0  0  0  0  0  0  0  0  0  0
  1  2  2  0
  2  3  1  0
  3  4  2  0
  4  5  1  0
  5  6  2  0
  1  6  1  0
  1  7  1  0
  4  8  1  0
  5  9  1  0
 10  6  1  0
 11 12  1  0
 13 14  1  0
 14 15  1  0
 11 15  1  0
 12 10  1  0
 10 13  1  0
 12 16  1  0
 11 17  1  0
 17 18  1  0
 18 19  1  0
 18 20  1  0
 18 21  1  0
 15 22  2  0
 14 23  1  0
 23 24  1  0
 24 25  2  0
 24 26  1  0
 28 29  1  0
 29 30  2  0
 30 31  1  0
 27 31  2  0
 27 26  1  0
 26 28  2  0
 31 32  1  0
 30 33  1  0
 34 32  1  1
 34 33  1  0
 34 35  1  0
 35 36  2  0
 36 37  1  0
 37 38  1  0
 38 34  1  0
 38 39  2  0
 36 40  1  0
 35 41  1  0
 41 42  2  0
 40 43  2  0
 43 42  1  0
  2 44  1  0
  3 45  1  0
 10 46  1  6
 12 47  1  6
 13 48  1  0
 13 49  1  0
 14 50  1  6
 16 51  1  0
 16 52  1  0
 16 53  1  0
 17 54  1  0
 17 55  1  0
 23 56  1  0
 27 57  1  0
 28 58  1  0
 32 59  1  0
 32 60  1  0
 33 61  1  0
 33 62  1  0
 37 63  1  0
 41 64  1  0
 42 65  1  0
 43 66  1  0
M  END
> <Uni-Dock RESULT> 
ENERGY=   -3.892  LOWER_BOUND=    4.607  UPPER_BOUND=   10.812
INTER + INTRA:          -3.892
INTER:                  -3.892
INTRA:                   0.000
UNBOUND:                 0.000

$$$$

     RDKit          3D

 66 71  0  0  0  0  0  0  0  0999 V2000
   22.9074   11.0288   30.3899 C   0  0  0  0  0  0  0  0  0  0  0  0
   21.8982   10.1185   30.7084 C   0  0  0  0  0  0  0  0  0  0  0  0
   22.1164    8.7544   30.5325 C   0  0  0  0  0  0  0  0  0  0  0  0
   23.3432    8.3228   30.0420 C   0  0  0  0  0  0  0  0  0  0  0  0
   24.3466    9.2385   29.7267 C   0  0  0  0  0  0  0  0  0  0  0  0
   24.1502   10.6149   29.8922 C   0  0  0  0  0  0  0  0  0  0  0  0
   22.6666   12.3336   30.5816 F   0  0  0  0  0  0  0  0  0  0  0  0
   23.5552    7.0101   29.8740 F   0  0  0  0  0  0  0  0  0  0  0  0
   25.5147    8.7799   29.2560 F   0  0  0  0  0  0  0  0  0  0  0  0
   25.2211   11.6422   29.5567 C   0  0  1  0  0  0  0  0  0  0  0  0
   27.5371   10.7037   29.7925 N   0  0  0  0  0  0  0  0  0  0  0  0
   26.5235   11.5652   30.4265 C   0  0  2  0  0  0  0  0  0  0  0  0
   25.5121   11.6333   28.0373 C   0  0  0  0  0  0  0  0  0  0  0  0
   26.9699   11.9623   27.7321 C   0  0  1  0  0  0  0  0  0  0  0  0
   27.8693   10.9440   28.4564 C   0  0  0  0  0  0  0  0  0  0  0  0
   26.2162   11.2642   31.8992 C   0  0  0  0  0  0  0  0  0  0  0  0
   28.5237    9.9446   30.5896 C   0  0  0  0  0  0  0  0  0  0  0  0
   29.7299   10.7475   31.0915 C   0  0  0  0  0  0  0  0  0  0  0  0
   29.3370   11.7850   31.8684 F   0  0  0  0  0  0  0  0  0  0  0  0
   30.5352    9.9664   31.8486 F   0  0  0  0  0  0  0  0  0  0  0  0
   30.4756   11.2541   30.0891 F   0  0  0  0  0  0  0  0  0  0  0  0
   28.8272   10.4112   27.8951 O   0  0  0  0  0  0  0  0  0  0  0  0
   27.2667   11.8951   26.3058 N   0  0  0  0  0  0  0  0  0  0  0  0
   26.8575   12.8806   25.4380 C   0  0  0  0  0  0  0  0  0  0  0  0
   26.1381   13.8096   25.7870 O   0  0  0  0  0  0  0  0  0  0  0  0
   27.3413   12.7951   24.0371 C   0  0  0  0  0  0  0  0  0  0  0  0
   27.8852   11.6348   23.4739 C   0  0  0  0  0  0  0  0  0  0  0  0
   27.2300   13.9333   23.2302 C   0  0  0  0  0  0  0  0  0  0  0  0
   27.6337   14.0028   21.9328 N   0  0  0  0  0  0  0  0  0  0  0  0
   28.1623   12.8735   21.4391 C   0  0  0  0  0  0  0  0  0  0  0  0
   28.2968   11.6897   22.1527 C   0  0  0  0  0  0  0  0  0  0  0  0
   28.9279   10.6190   21.3211 C   0  0  0  0  0  0  0  0  0  0  0  0
   28.7013   12.7432   20.0417 C   0  0  0  0  0  0  0  0  0  0  0  0
   28.8155   11.2135   19.8984 C   0  0  2  0  0  0  0  0  0  0  0  0
   27.7000   10.6031   19.0844 C   0  0  0  0  0  0  0  0  0  0  0  0
   28.2348    9.9746   17.9686 C   0  0  0  0  0  0  0  0  0  0  0  0
   29.6062   10.1158   17.9651 N   0  0  0  0  0  0  0  0  0  0  0  0
   30.0499   10.8353   19.0588 C   0  0  0  0  0  0  0  0  0  0  0  0
   31.2127   11.1071   19.3062 O   0  0  0  0  0  0  0  0  0  0  0  0
   27.5417    9.3285   17.0308 N   0  0  0  0  0  0  0  0  0  0  0  0
   26.3314   10.5850   19.2729 C   0  0  0  0  0  0  0  0  0  0  0  0
   25.5629    9.9225   18.3167 C   0  0  0  0  0  0  0  0  0  0  0  0
   26.2025    9.3185   17.2310 C   0  0  0  0  0  0  0  0  0  0  0  0
   20.9492   10.4831   31.0911 H   0  0  0  0  0  0  0  0  0  0  0  0
   21.3451    8.0294   30.7731 H   0  0  0  0  0  0  0  0  0  0  0  0
   24.8003   12.6334   29.7795 H   0  0  0  0  0  0  0  0  0  0  0  0
   26.9729   12.5690   30.4114 H   0  0  0  0  0  0  0  0  0  0  0  0
   24.8384   12.3442   27.5422 H   0  0  0  0  0  0  0  0  0  0  0  0
   25.2738   10.6591   27.5901 H   0  0  0  0  0  0  0  0  0  0  0  0
   27.2310   12.9690   28.0803 H   0  0  0  0  0  0  0  0  0  0  0  0
   25.8899   10.2304   32.0487 H   0  0  0  0  0  0  0  0  0  0  0  0
   25.4325   11.9316   32.2755 H   0  0  0  0  0  0  0  0  0  0  0  0
   27.0957   11.4213   32.5299 H   0  0  0  0  0  0  0  0  0  0  0  0
   28.9016    9.1251   29.9659 H   0  0  0  0  0  0  0  0  0  0  0  0
   28.0084    9.4666   31.4277 H   0  0  0  0  0  0  0  0  0  0  0  0
   28.0475   11.2925   26.0600 H   0  0  0  0  0  0  0  0  0  0  0  0
   27.9770   10.7089   24.0297 H   0  0  0  0  0  0  0  0  0  0  0  0
   26.8045   14.8562   23.6197 H   0  0  0  0  0  0  0  0  0  0  0  0
   28.3936    9.6686   21.4269 H   0  0  0  0  0  0  0  0  0  0  0  0
   29.9688   10.4833   21.6351 H   0  0  0  0  0  0  0  0  0  0  0  0
   28.0208   13.1990   19.3152 H   0  0  0  0  0  0  0  0  0  0  0  0
   29.6739   13.2444   19.9869 H   0  0  0  0  0  0  0  0  0  0  0  0
   30.1974    9.7389   17.2419 H   0  0  0  0  0  0  0  0  0  0  0  0
   25.8616   11.0679   20.1241 H   0  0  0  0  0  0  0  0  0  0  0  0
   24.4822    9.8759   18.4095 H   0  0  0  0  0  0  0  0  0  0  0  0
   25.6273    8.7948   16.4713 H   0  0  0  0  0  0  0  0  0  0  0  0
  1  2  2  0
  2  3  1  0
  3  4  2  0
  4  5  1  0
  5  6  2  0
  1  6  1  0
  1  7  1  0
  4  8  1  0
  5  9  1  0
 10  6  1  0
 11 12  1  0
 13 14  1  0
 14 15  1  0
 11 15  1  0
 12 10  1  0
 10 13  1  0
 12 16  1  0
 11 17  1  0
 17 18  1  0
 18 19  1  0
 18 20  1  0
 18 21  1  0
 15 22  2  0
 14 23  1  0
 23 24  1  0
 24 25  2  0
 24 26  1  0
 28 29  1  0
 29 30  2  0
 30 31  1  0
 27 31  2  0
 27 26  1  0
 26 28  2  0
 31 32  1  0
 30 33  1  0
 34 32  1  1
 34 33  1  0
 34 35  1  0
 35 36  2  0
 36 37  1  0
 37 38  1  0
 38 34  1  0
 38 39  2  0
 36 40  1  0
 35 41  1  0
 41 42  2  0
 40 43  2  0
 43 42  1  0
  2 44  1  0
  3 45  1  0
 10 46  1  6
 12 47  1  6
 13 48  1  0
 13 49  1  0
 14 50  1  6
 16 51  1  0
 16 52  1  0
 16 53  1  0
 17 54  1  0
 17 55  1  0
 23 56  1  0
 27 57  1  0
 28 58  1  0
 32 59  1  0
 32 60  1  0
 33 61  1  0
 33 62  1  0
 37 63  1  0
 41 64  1  0
 42 65  1  0
 43 66  1  0
M  END
> <Uni-Dock RESULT> 
ENERGY=   -3.889  LOWER_BOUND=    4.335  UPPER_BOUND=   10.717
INTER + INTRA:          -3.889
INTER:                  -3.889
INTRA:                   0.000
UNBOUND:                 0.000

$$$$

     RDKit          3D

 66 71  0  0  0  0  0  0  0  0999 V2000
   21.1953    6.8108   32.3420 C   0  0  0  0  0  0  0  0  0  0  0  0
   20.0265    7.1128   31.6413 C   0  0  0  0  0  0  0  0  0  0  0  0
   19.8833    6.6928   30.3213 C   0  0  0  0  0  0  0  0  0  0  0  0
   20.9125    5.9748   29.7239 C   0  0  0  0  0  0  0  0  0  0  0  0
   22.0770    5.6765   30.4309 C   0  0  0  0  0  0  0  0  0  0  0  0
   22.2456    6.0901   31.7579 C   0  0  0  0  0  0  0  0  0  0  0  0
   21.2949    7.2216   33.6142 F   0  0  0  0  0  0  0  0  0  0  0  0
   20.7752    5.5684   28.4541 F   0  0  0  0  0  0  0  0  0  0  0  0
   23.0452    4.9822   29.8170 F   0  0  0  0  0  0  0  0  0  0  0  0
   23.5027    5.7846   32.5586 C   0  0  1  0  0  0  0  0  0  0  0  0
   24.6255    3.6768   31.7861 N   0  0  0  0  0  0  0  0  0  0  0  0
   23.7723    4.2647   32.8339 C   0  0  2  0  0  0  0  0  0  0  0  0
   24.7207    6.5077   31.9366 C   0  0  0  0  0  0  0  0  0  0  0  0
   26.0091    5.7096   32.1091 C   0  0  1  0  0  0  0  0  0  0  0  0
   25.8225    4.3233   31.4659 C   0  0  0  0  0  0  0  0  0  0  0  0
   22.4818    3.4990   33.1536 C   0  0  0  0  0  0  0  0  0  0  0  0
   24.5264    2.2510   31.4092 C   0  0  0  0  0  0  0  0  0  0  0  0
   25.2430    1.2669   32.3418 C   0  0  0  0  0  0  0  0  0  0  0  0
   24.7652    1.3559   33.6059 F   0  0  0  0  0  0  0  0  0  0  0  0
   25.0419   -0.0063   31.9292 F   0  0  0  0  0  0  0  0  0  0  0  0
   26.5741    1.4736   32.3983 F   0  0  0  0  0  0  0  0  0  0  0  0
   26.6877    3.8202   30.7484 O   0  0  0  0  0  0  0  0  0  0  0  0
   27.1509    6.3552   31.4712 N   0  0  0  0  0  0  0  0  0  0  0  0
   27.7552    7.4597   32.0246 C   0  0  0  0  0  0  0  0  0  0  0  0
   27.3129    8.0251   33.0182 O   0  0  0  0  0  0  0  0  0  0  0  0
   29.0005    7.9466   31.3796 C   0  0  0  0  0  0  0  0  0  0  0  0
   29.3994    7.5808   30.0886 C   0  0  0  0  0  0  0  0  0  0  0  0
   29.8108    8.8349   32.0962 C   0  0  0  0  0  0  0  0  0  0  0  0
   30.9787    9.3586   31.6350 N   0  0  0  0  0  0  0  0  0  0  0  0
   31.3297    8.9696   30.4005 C   0  0  0  0  0  0  0  0  0  0  0  0
   30.5844    8.1095   29.6045 C   0  0  0  0  0  0  0  0  0  0  0  0
   31.2498    7.8697   28.2870 C   0  0  0  0  0  0  0  0  0  0  0  0
   32.5965    9.4014   29.7157 C   0  0  0  0  0  0  0  0  0  0  0  0
   32.3114    8.9933   28.2577 C   0  0  2  0  0  0  0  0  0  0  0  0
   31.9241   10.1555   27.3751 C   0  0  0  0  0  0  0  0  0  0  0  0
   32.8489   10.2818   26.3479 C   0  0  0  0  0  0  0  0  0  0  0  0
   33.8192    9.3102   26.4706 N   0  0  0  0  0  0  0  0  0  0  0  0
   33.5972    8.5001   27.5683 C   0  0  0  0  0  0  0  0  0  0  0  0
   34.2968    7.5623   27.9125 O   0  0  0  0  0  0  0  0  0  0  0  0
   32.8195   11.1993   25.3811 N   0  0  0  0  0  0  0  0  0  0  0  0
   30.8678   11.0437   27.4397 C   0  0  0  0  0  0  0  0  0  0  0  0
   30.7951   12.0238   26.4507 C   0  0  0  0  0  0  0  0  0  0  0  0
   31.7776   12.0608   25.4578 C   0  0  0  0  0  0  0  0  0  0  0  0
   19.2373    7.6745   32.1329 H   0  0  0  0  0  0  0  0  0  0  0  0
   18.9830    6.9176   29.7578 H   0  0  0  0  0  0  0  0  0  0  0  0
   23.3657    6.2245   33.5570 H   0  0  0  0  0  0  0  0  0  0  0  0
   24.3869    4.2132   33.7447 H   0  0  0  0  0  0  0  0  0  0  0  0
   24.8129    7.5028   32.3900 H   0  0  0  0  0  0  0  0  0  0  0  0
   24.5692    6.6976   30.8657 H   0  0  0  0  0  0  0  0  0  0  0  0
   26.2525    5.5730   33.1697 H   0  0  0  0  0  0  0  0  0  0  0  0
   21.8508    3.3685   32.2691 H   0  0  0  0  0  0  0  0  0  0  0  0
   21.8994    4.0243   33.9191 H   0  0  0  0  0  0  0  0  0  0  0  0
   22.6974    2.5021   33.5484 H   0  0  0  0  0  0  0  0  0  0  0  0
   24.9563    2.1371   30.4064 H   0  0  0  0  0  0  0  0  0  0  0  0
   23.4703    1.9837   31.3118 H   0  0  0  0  0  0  0  0  0  0  0  0
   27.6629    5.7686   30.8177 H   0  0  0  0  0  0  0  0  0  0  0  0
   28.8090    6.9196   29.4652 H   0  0  0  0  0  0  0  0  0  0  0  0
   29.5377    9.1567   33.0994 H   0  0  0  0  0  0  0  0  0  0  0  0
   30.5329    7.9422   27.4620 H   0  0  0  0  0  0  0  0  0  0  0  0
   31.7001    6.8708   28.2856 H   0  0  0  0  0  0  0  0  0  0  0  0
   32.7636   10.4759   29.8423 H   0  0  0  0  0  0  0  0  0  0  0  0
   33.4402    8.8528   30.1485 H   0  0  0  0  0  0  0  0  0  0  0  0
   34.5928    9.2199   25.8318 H   0  0  0  0  0  0  0  0  0  0  0  0
   30.1217   10.9939   28.2267 H   0  0  0  0  0  0  0  0  0  0  0  0
   29.9891   12.7512   26.4496 H   0  0  0  0  0  0  0  0  0  0  0  0
   31.7445   12.8141   24.6744 H   0  0  0  0  0  0  0  0  0  0  0  0
  1  2  2  0
  2  3  1  0
  3  4  2  0
  4  5  1  0
  5  6  2  0
  1  6  1  0
  1  7  1  0
  4  8  1  0
  5  9  1  0
 10  6  1  0
 11 12  1  0
 13 14  1  0
 14 15  1  0
 11 15  1  0
 12 10  1  0
 10 13  1  0
 12 16  1  0
 11 17  1  0
 17 18  1  0
 18 19  1  0
 18 20  1  0
 18 21  1  0
 15 22  2  0
 14 23  1  0
 23 24  1  0
 24 25  2  0
 24 26  1  0
 28 29  1  0
 29 30  2  0
 30 31  1  0
 27 31  2  0
 27 26  1  0
 26 28  2  0
 31 32  1  0
 30 33  1  0
 34 32  1  1
 34 33  1  0
 34 35  1  0
 35 36  2  0
 36 37  1  0
 37 38  1  0
 38 34  1  0
 38 39  2  0
 36 40  1  0
 35 41  1  0
 41 42  2  0
 40 43  2  0
 43 42  1  0
  2 44  1  0
  3 45  1  0
 10 46  1  6
 12 47  1  6
 13 48  1  0
 13 49  1  0
 14 50  1  6
 16 51  1  0
 16 52  1  0
 16 53  1  0
 17 54  1  0
 17 55  1  0
 23 56  1  0
 27 57  1  0
 28 58  1  0
 32 59  1  0
 32 60  1  0
 33 61  1  0
 33 62  1  0
 37 63  1  0
 41 64  1  0
 42 65  1  0
 43 66  1  0
M  END
> <Uni-Dock RESULT> 
ENERGY=   -3.886  LOWER_BOUND=    7.184  UPPER_BOUND=   12.668
INTER + INTRA:          -3.886
INTER:                  -3.886
INTRA:                   0.000
UNBOUND:                 0.000

$$$$

     RDKit          3D

 66 71  0  0  0  0  0  0  0  0999 V2000
   29.9555    2.0061   30.0306 C   0  0  0  0  0  0  0  0  0  0  0  0
   30.6141    0.9313   30.6301 C   0  0  0  0  0  0  0  0  0  0  0  0
   31.1036    1.0568   31.9278 C   0  0  0  0  0  0  0  0  0  0  0  0
   30.9240    2.2567   32.6060 C   0  0  0  0  0  0  0  0  0  0  0  0
   30.2642    3.3257   32.0003 C   0  0  0  0  0  0  0  0  0  0  0  0
   29.7657    3.2247   30.6958 C   0  0  0  0  0  0  0  0  0  0  0  0
   29.4880    1.8467   28.7843 F   0  0  0  0  0  0  0  0  0  0  0  0
   31.3929    2.3782   33.8557 F   0  0  0  0  0  0  0  0  0  0  0  0
   30.1127    4.4651   32.6895 F   0  0  0  0  0  0  0  0  0  0  0  0
   29.0432    4.3706   30.0031 C   0  0  1  0  0  0  0  0  0  0  0  0
   27.8846    5.8823   31.6380 N   0  0  0  0  0  0  0  0  0  0  0  0
   27.6844    4.8019   30.6560 C   0  0  2  0  0  0  0  0  0  0  0  0
   30.0101    5.5589   29.7878 C   0  0  0  0  0  0  0  0  0  0  0  0
   29.2924    6.9024   29.8692 C   0  0  1  0  0  0  0  0  0  0  0  0
   28.6037    7.0133   31.2418 C   0  0  0  0  0  0  0  0  0  0  0  0
   26.8712    3.5961   31.1445 C   0  0  0  0  0  0  0  0  0  0  0  0
   27.0005    6.0424   32.8118 C   0  0  0  0  0  0  0  0  0  0  0  0
   25.6582    6.7332   32.5420 C   0  0  0  0  0  0  0  0  0  0  0  0
   24.9371    6.0552   31.6177 F   0  0  0  0  0  0  0  0  0  0  0  0
   24.9147    6.7780   33.6720 F   0  0  0  0  0  0  0  0  0  0  0  0
   25.8003    7.9972   32.0949 F   0  0  0  0  0  0  0  0  0  0  0  0
   28.6652    8.0417   31.9163 O   0  0  0  0  0  0  0  0  0  0  0  0
   30.2074    8.0294   29.7290 N   0  0  0  0  0  0  0  0  0  0  0  0
   30.7359    8.3801   28.5086 C   0  0  0  0  0  0  0  0  0  0  0  0
   30.5565    7.7132   27.4959 O   0  0  0  0  0  0  0  0  0  0  0  0
   31.5323    9.6315   28.4483 C   0  0  0  0  0  0  0  0  0  0  0  0
   32.0524   10.2750   29.5774 C   0  0  0  0  0  0  0  0  0  0  0  0
   31.7923   10.1880   27.1906 C   0  0  0  0  0  0  0  0  0  0  0  0
   32.5025   11.3297   26.9830 N   0  0  0  0  0  0  0  0  0  0  0  0
   32.9687   11.9207   28.0929 C   0  0  0  0  0  0  0  0  0  0  0  0
   32.7809   11.4364   29.3809 C   0  0  0  0  0  0  0  0  0  0  0  0
   33.4192   12.3272   30.3983 C   0  0  0  0  0  0  0  0  0  0  0  0
   33.7470   13.2071   28.0920 C   0  0  0  0  0  0  0  0  0  0  0  0
   34.3298   13.2139   29.5181 C   0  0  2  0  0  0  0  0  0  0  0  0
   35.7844   12.8125   29.5727 C   0  0  0  0  0  0  0  0  0  0  0  0
   36.5321   13.8605   30.0912 C   0  0  0  0  0  0  0  0  0  0  0  0
   35.7057   14.9249   30.3826 N   0  0  0  0  0  0  0  0  0  0  0  0
   34.3864   14.6477   30.0770 C   0  0  0  0  0  0  0  0  0  0  0  0
   33.4459   15.4079   30.2345 O   0  0  0  0  0  0  0  0  0  0  0  0
   37.8513   13.8563   30.2838 N   0  0  0  0  0  0  0  0  0  0  0  0
   36.4281   11.6463   29.2061 C   0  0  0  0  0  0  0  0  0  0  0  0
   37.8096   11.5945   29.3868 C   0  0  0  0  0  0  0  0  0  0  0  0
   38.4667   12.7059   29.9211 C   0  0  0  0  0  0  0  0  0  0  0  0
   30.7398    0.0045   30.0776 H   0  0  0  0  0  0  0  0  0  0  0  0
   31.6195    0.2338   32.4126 H   0  0  0  0  0  0  0  0  0  0  0  0
   28.7660    4.0189   28.9989 H   0  0  0  0  0  0  0  0  0  0  0  0
   27.0851    5.2670   29.8595 H   0  0  0  0  0  0  0  0  0  0  0  0
   30.5091    5.4398   28.8177 H   0  0  0  0  0  0  0  0  0  0  0  0
   30.8225    5.5526   30.5266 H   0  0  0  0  0  0  0  0  0  0  0  0
   28.5291    6.9928   29.0869 H   0  0  0  0  0  0  0  0  0  0  0  0
   27.3112    3.1361   32.0346 H   0  0  0  0  0  0  0  0  0  0  0  0
   26.8005    2.8335   30.3605 H   0  0  0  0  0  0  0  0  0  0  0  0
   25.8473    3.8832   31.4001 H   0  0  0  0  0  0  0  0  0  0  0  0
   27.5393    6.6360   33.5606 H   0  0  0  0  0  0  0  0  0  0  0  0
   26.8396    5.0621   33.2694 H   0  0  0  0  0  0  0  0  0  0  0  0
   30.1598    8.7140   30.4788 H   0  0  0  0  0  0  0  0  0  0  0  0
   31.9150    9.8873   30.5801 H   0  0  0  0  0  0  0  0  0  0  0  0
   31.4180    9.7189   26.2827 H   0  0  0  0  0  0  0  0  0  0  0  0
   33.9804   11.7456   31.1377 H   0  0  0  0  0  0  0  0  0  0  0  0
   32.6427   12.9062   30.9103 H   0  0  0  0  0  0  0  0  0  0  0  0
   34.5121   13.2014   27.3089 H   0  0  0  0  0  0  0  0  0  0  0  0
   33.0578   14.0402   27.9155 H   0  0  0  0  0  0  0  0  0  0  0  0
   36.0407   15.7941   30.7658 H   0  0  0  0  0  0  0  0  0  0  0  0
   35.8916   10.8001   28.7882 H   0  0  0  0  0  0  0  0  0  0  0  0
   38.3710   10.7056   29.1157 H   0  0  0  0  0  0  0  0  0  0  0  0
   39.5432   12.6920   30.0731 H   0  0  0  0  0  0  0  0  0  0  0  0
  1  2  2  0
  2  3  1  0
  3  4  2  0
  4  5  1  0
  5  6  2  0
  1  6  1  0
  1  7  1  0
  4  8  1  0
  5  9  1  0
 10  6  1  0
 11 12  1  0
 13 14  1  0
 14 15  1  0
 11 15  1  0
 12 10  1  0
 10 13  1  0
 12 16  1  0
 11 17  1  0
 17 18  1  0
 18 19  1  0
 18 20  1  0
 18 21  1  0
 15 22  2  0
 14 23  1  0
 23 24  1  0
 24 25  2  0
 24 26  1  0
 28 29  1  0
 29 30  2  0
 30 31  1  0
 27 31  2  0
 27 26  1  0
 26 28  2  0
 31 32  1  0
 30 33  1  0
 34 32  1  1
 34 33  1  0
 34 35  1  0
 35 36  2  0
 36 37  1  0
 37 38  1  0
 38 34  1  0
 38 39  2  0
 36 40  1  0
 35 41  1  0
 41 42  2  0
 40 43  2  0
 43 42  1  0
  2 44  1  0
  3 45  1  0
 10 46  1  6
 12 47  1  6
 13 48  1  0
 13 49  1  0
 14 50  1  6
 16 51  1  0
 16 52  1  0
 16 53  1  0
 17 54  1  0
 17 55  1  0
 23 56  1  0
 27 57  1  0
 28 58  1  0
 32 59  1  0
 32 60  1  0
 33 61  1  0
 33 62  1  0
 37 63  1  0
 41 64  1  0
 42 65  1  0
 43 66  1  0
M  END
> <Uni-Dock RESULT> 
ENERGY=   -3.876  LOWER_BOUND=    8.345  UPPER_BOUND=   12.512
INTER + INTRA:          -3.876
INTER:                  -3.876
INTRA:                   0.000
UNBOUND:                 0.000

$$$$

     RDKit          3D

 66 71  0  0  0  0  0  0  0  0999 V2000
   28.9968    9.3122   30.1238 C   0  0  0  0  0  0  0  0  0  0  0  0
   28.8896    8.0290   30.6627 C   0  0  0  0  0  0  0  0  0  0  0  0
   29.4577    6.9481   29.9932 C   0  0  0  0  0  0  0  0  0  0  0  0
   30.1262    7.1693   28.7949 C   0  0  0  0  0  0  0  0  0  0  0  0
   30.2295    8.4546   28.2634 C   0  0  0  0  0  0  0  0  0  0  0  0
   29.6644    9.5567   28.9163 C   0  0  0  0  0  0  0  0  0  0  0  0
   28.4473   10.3309   30.8003 F   0  0  0  0  0  0  0  0  0  0  0  0
   30.6750    6.1301   28.1505 F   0  0  0  0  0  0  0  0  0  0  0  0
   30.8824    8.6238   27.1052 F   0  0  0  0  0  0  0  0  0  0  0  0
   29.7556   10.9718   28.3649 C   0  0  1  0  0  0  0  0  0  0  0  0
   31.8079   11.3072   26.9592 N   0  0  0  0  0  0  0  0  0  0  0  0
   31.2032   11.5680   28.2775 C   0  0  2  0  0  0  0  0  0  0  0  0
   28.9818   11.0751   27.0292 C   0  0  0  0  0  0  0  0  0  0  0  0
   29.6228   12.0756   26.0727 C   0  0  1  0  0  0  0  0  0  0  0  0
   31.0805   11.6514   25.8166 C   0  0  0  0  0  0  0  0  0  0  0  0
   32.0581   11.1863   29.4930 C   0  0  0  0  0  0  0  0  0  0  0  0
   33.2680   11.1530   26.7882 C   0  0  0  0  0  0  0  0  0  0  0  0
   34.0715   12.4582   26.7373 C   0  0  0  0  0  0  0  0  0  0  0  0
   33.8997   13.1820   27.8690 F   0  0  0  0  0  0  0  0  0  0  0  0
   35.3947   12.1943   26.6308 F   0  0  0  0  0  0  0  0  0  0  0  0
   33.7262   13.2456   25.6987 F   0  0  0  0  0  0  0  0  0  0  0  0
   31.5656   11.6503   24.6847 O   0  0  0  0  0  0  0  0  0  0  0  0
   28.9351   12.1332   24.7878 N   0  0  0  0  0  0  0  0  0  0  0  0
   27.7232   12.7682   24.6477 C   0  0  0  0  0  0  0  0  0  0  0  0
   27.1048   13.2269   25.6014 O   0  0  0  0  0  0  0  0  0  0  0  0
   27.1828   12.9029   23.2715 C   0  0  0  0  0  0  0  0  0  0  0  0
   27.6392   12.1518   22.1821 C   0  0  0  0  0  0  0  0  0  0  0  0
   26.1469   13.8193   23.0565 C   0  0  0  0  0  0  0  0  0  0  0  0
   25.5587   14.0513   21.8518 N   0  0  0  0  0  0  0  0  0  0  0  0
   26.0370   13.3210   20.8338 C   0  0  0  0  0  0  0  0  0  0  0  0
   27.0466   12.3746   20.9502 C   0  0  0  0  0  0  0  0  0  0  0  0
   27.3542   11.7386   19.6323 C   0  0  0  0  0  0  0  0  0  0  0  0
   25.5530   13.4443   19.4158 C   0  0  0  0  0  0  0  0  0  0  0  0
   26.1381   12.1687   18.7801 C   0  0  2  0  0  0  0  0  0  0  0  0
   25.1198   11.0689   18.5979 C   0  0  0  0  0  0  0  0  0  0  0  0
   25.0085   10.7634   17.2487 C   0  0  0  0  0  0  0  0  0  0  0  0
   25.8586   11.5644   16.5163 N   0  0  0  0  0  0  0  0  0  0  0  0
   26.5678   12.4326   17.3250 C   0  0  0  0  0  0  0  0  0  0  0  0
   27.3887   13.2494   16.9425 O   0  0  0  0  0  0  0  0  0  0  0  0
   24.2048    9.8389   16.7225 N   0  0  0  0  0  0  0  0  0  0  0  0
   24.3413   10.3802   19.5081 C   0  0  0  0  0  0  0  0  0  0  0  0
   23.4824    9.4038   19.0053 C   0  0  0  0  0  0  0  0  0  0  0  0
   23.4500    9.1720   17.6277 C   0  0  0  0  0  0  0  0  0  0  0  0
   28.3625    7.8846   31.6015 H   0  0  0  0  0  0  0  0  0  0  0  0
   29.3854    5.9418   30.3941 H   0  0  0  0  0  0  0  0  0  0  0  0
   29.2299   11.6295   29.0720 H   0  0  0  0  0  0  0  0  0  0  0  0
   31.0967   12.6621   28.3155 H   0  0  0  0  0  0  0  0  0  0  0  0
   27.9406   11.3488   27.2419 H   0  0  0  0  0  0  0  0  0  0  0  0
   28.9212   10.1012   26.5256 H   0  0  0  0  0  0  0  0  0  0  0  0
   29.6224   13.0869   26.4971 H   0  0  0  0  0  0  0  0  0  0  0  0
   32.3436   10.1300   29.4800 H   0  0  0  0  0  0  0  0  0  0  0  0
   31.5173   11.3866   30.4250 H   0  0  0  0  0  0  0  0  0  0  0  0
   32.9812   11.7716   29.5304 H   0  0  0  0  0  0  0  0  0  0  0  0
   33.4419   10.6146   25.8484 H   0  0  0  0  0  0  0  0  0  0  0  0
   33.6497   10.5010   27.5791 H   0  0  0  0  0  0  0  0  0  0  0  0
   29.5319   11.9906   23.9773 H   0  0  0  0  0  0  0  0  0  0  0  0
   28.4184   11.4048   22.2789 H   0  0  0  0  0  0  0  0  0  0  0  0
   25.7514   14.4191   23.8740 H   0  0  0  0  0  0  0  0  0  0  0  0
   27.4414   10.6509   19.7280 H   0  0  0  0  0  0  0  0  0  0  0  0
   28.2970   12.1424   19.2468 H   0  0  0  0  0  0  0  0  0  0  0  0
   24.4598   13.4879   19.3774 H   0  0  0  0  0  0  0  0  0  0  0  0
   25.9651   14.3597   18.9771 H   0  0  0  0  0  0  0  0  0  0  0  0
   25.9363   11.5138   15.5133 H   0  0  0  0  0  0  0  0  0  0  0  0
   24.3839   10.5858   20.5732 H   0  0  0  0  0  0  0  0  0  0  0  0
   22.8445    8.8307   19.6712 H   0  0  0  0  0  0  0  0  0  0  0  0
   22.7901    8.4161   17.2091 H   0  0  0  0  0  0  0  0  0  0  0  0
  1  2  2  0
  2  3  1  0
  3  4  2  0
  4  5  1  0
  5  6  2  0
  1  6  1  0
  1  7  1  0
  4  8  1  0
  5  9  1  0
 10  6  1  0
 11 12  1  0
 13 14  1  0
 14 15  1  0
 11 15  1  0
 12 10  1  0
 10 13  1  0
 12 16  1  0
 11 17  1  0
 17 18  1  0
 18 19  1  0
 18 20  1  0
 18 21  1  0
 15 22  2  0
 14 23  1  0
 23 24  1  0
 24 25  2  0
 24 26  1  0
 28 29  1  0
 29 30  2  0
 30 31  1  0
 27 31  2  0
 27 26  1  0
 26 28  2  0
 31 32  1  0
 30 33  1  0
 34 32  1  1
 34 33  1  0
 34 35  1  0
 35 36  2  0
 36 37  1  0
 37 38  1  0
 38 34  1  0
 38 39  2  0
 36 40  1  0
 35 41  1  0
 41 42  2  0
 40 43  2  0
 43 42  1  0
  2 44  1  0
  3 45  1  0
 10 46  1  6
 12 47  1  6
 13 48  1  0
 13 49  1  0
 14 50  1  6
 16 51  1  0
 16 52  1  0
 16 53  1  0
 17 54  1  0
 17 55  1  0
 23 56  1  0
 27 57  1  0
 28 58  1  0
 32 59  1  0
 32 60  1  0
 33 61  1  0
 33 62  1  0
 37 63  1  0
 41 64  1  0
 42 65  1  0
 43 66  1  0
M  END
> <Uni-Dock RESULT> 
ENERGY=   -3.831  LOWER_BOUND=    5.522  UPPER_BOUND=    9.889
INTER + INTRA:          -3.831
INTER:                  -3.831
INTRA:                   0.000
UNBOUND:                 0.000

$$$$
