
     RDKit          3D

 66 71  0  0  0  0  0  0  0  0999 V2000
   30.4659   12.2665   19.9541 C   0  0  0  0  0  0  0  0  0  0  0  0
   31.2655   11.6278   19.0053 C   0  0  0  0  0  0  0  0  0  0  0  0
   31.1361   10.2564   18.8054 C   0  0  0  0  0  0  0  0  0  0  0  0
   30.2019    9.5502   19.5539 C   0  0  0  0  0  0  0  0  0  0  0  0
   29.4070   10.1972   20.5013 C   0  0  0  0  0  0  0  0  0  0  0  0
   29.5283   11.5717   20.7324 C   0  0  0  0  0  0  0  0  0  0  0  0
   30.6017   13.5909   20.1104 F   0  0  0  0  0  0  0  0  0  0  0  0
   30.0602    8.2337   19.3485 F   0  0  0  0  0  0  0  0  0  0  0  0
   28.4944    9.4765   21.1672 F   0  0  0  0  0  0  0  0  0  0  0  0
   28.6998   12.3406   21.7455 C   0  0  1  0  0  0  0  0  0  0  0  0
   26.7419   13.8495   22.1247 N   0  0  0  0  0  0  0  0  0  0  0  0
   27.4758   13.0562   21.1196 C   0  0  2  0  0  0  0  0  0  0  0  0
   28.2543   11.5505   22.9842 C   0  0  0  0  0  0  0  0  0  0  0  0
   27.7002   12.5209   24.0226 C   0  0  1  0  0  0  0  0  0  0  0  0
   26.6215   13.4651   23.4527 C   0  0  0  0  0  0  0  0  0  0  0  0
   26.5018   12.0953   20.4181 C   0  0  0  0  0  0  0  0  0  0  0  0
   25.9205   14.9863   21.6545 C   0  0  0  0  0  0  0  0  0  0  0  0
   26.5761   16.3550   21.8526 C   0  0  0  0  0  0  0  0  0  0  0  0
   25.7575   17.3416   21.4203 F   0  0  0  0  0  0  0  0  0  0  0  0
   27.7226   16.4423   21.1367 F   0  0  0  0  0  0  0  0  0  0  0  0
   26.8777   16.6042   23.1429 F   0  0  0  0  0  0  0  0  0  0  0  0
   25.7479   13.9327   24.1884 O   0  0  0  0  0  0  0  0  0  0  0  0
   27.1268   11.8349   25.1784 N   0  0  0  0  0  0  0  0  0  0  0  0
   27.9293   11.1986   26.1006 C   0  0  0  0  0  0  0  0  0  0  0  0
   29.1394   11.0672   25.9568 O   0  0  0  0  0  0  0  0  0  0  0  0
   27.2636   10.6824   27.3212 C   0  0  0  0  0  0  0  0  0  0  0  0
   25.8901   10.4225   27.3932 C   0  0  0  0  0  0  0  0  0  0  0  0
   28.0523   10.4053   28.4422 C   0  0  0  0  0  0  0  0  0  0  0  0
   27.5735    9.9171   29.6177 N   0  0  0  0  0  0  0  0  0  0  0  0
   26.2486    9.7093   29.6523 C   0  0  0  0  0  0  0  0  0  0  0  0
   25.3876    9.9320   28.5867 C   0  0  0  0  0  0  0  0  0  0  0  0
   23.9845    9.5390   28.9168 C   0  0  0  0  0  0  0  0  0  0  0  0
   25.5308    9.1399   30.8429 C   0  0  0  0  0  0  0  0  0  0  0  0
   24.0542    9.3293   30.4457 C   0  0  2  0  0  0  0  0  0  0  0  0
   23.1530    8.2324   30.9475 C   0  0  0  0  0  0  0  0  0  0  0  0
   22.2142    8.7592   31.8217 C   0  0  0  0  0  0  0  0  0  0  0  0
   22.4043   10.1174   31.9478 N   0  0  0  0  0  0  0  0  0  0  0  0
   23.4602   10.5610   31.1735 C   0  0  0  0  0  0  0  0  0  0  0  0
   23.8334   11.7183   31.0839 O   0  0  0  0  0  0  0  0  0  0  0  0
   21.2618    8.0699   32.4501 N   0  0  0  0  0  0  0  0  0  0  0  0
   23.1339    6.8768   30.6812 C   0  0  0  0  0  0  0  0  0  0  0  0
   22.1564    6.1125   31.3166 C   0  0  0  0  0  0  0  0  0  0  0  0
   21.2570    6.7434   32.1791 C   0  0  0  0  0  0  0  0  0  0  0  0
   31.9817   12.2088   18.4309 H   0  0  0  0  0  0  0  0  0  0  0  0
   31.7467    9.7369   18.0734 H   0  0  0  0  0  0  0  0  0  0  0  0
   29.3663   13.1277   22.1326 H   0  0  0  0  0  0  0  0  0  0  0  0
   27.8456   13.7671   20.3687 H   0  0  0  0  0  0  0  0  0  0  0  0
   27.4924   10.8026   22.7386 H   0  0  0  0  0  0  0  0  0  0  0  0
   29.1059   10.9983   23.3988 H   0  0  0  0  0  0  0  0  0  0  0  0
   28.5095   13.1636   24.3934 H   0  0  0  0  0  0  0  0  0  0  0  0
   25.6728   12.6451   19.9608 H   0  0  0  0  0  0  0  0  0  0  0  0
   26.9913   11.5382   19.6145 H   0  0  0  0  0  0  0  0  0  0  0  0
   26.0573   11.3800   21.1167 H   0  0  0  0  0  0  0  0  0  0  0  0
   24.9601   14.9764   22.1818 H   0  0  0  0  0  0  0  0  0  0  0  0
   25.6972   14.8462   20.5920 H   0  0  0  0  0  0  0  0  0  0  0  0
   26.2420   12.2177   25.5016 H   0  0  0  0  0  0  0  0  0  0  0  0
   25.2310   10.5736   26.5458 H   0  0  0  0  0  0  0  0  0  0  0  0
   29.1278   10.5731   28.4258 H   0  0  0  0  0  0  0  0  0  0  0  0
   23.7339    8.6178   28.3791 H   0  0  0  0  0  0  0  0  0  0  0  0
   23.2785   10.3253   28.6302 H   0  0  0  0  0  0  0  0  0  0  0  0
   25.8064    8.0847   30.9507 H   0  0  0  0  0  0  0  0  0  0  0  0
   25.8064    9.6804   31.7550 H   0  0  0  0  0  0  0  0  0  0  0  0
   21.8298   10.7040   32.5312 H   0  0  0  0  0  0  0  0  0  0  0  0
   23.8490    6.4154   30.0081 H   0  0  0  0  0  0  0  0  0  0  0  0
   22.0911    5.0423   31.1484 H   0  0  0  0  0  0  0  0  0  0  0  0
   20.4848    6.1726   32.6890 H   0  0  0  0  0  0  0  0  0  0  0  0
  1  2  2  0
  2  3  1  0
  3  4  2  0
  4  5  1  0
  5  6  2  0
  1  6  1  0
  1  7  1  0
  4  8  1  0
  5  9  1  0
 10  6  1  0
 11 12  1  0
 13 14  1  0
 14 15  1  0
 11 15  1  0
 12 10  1  0
 10 13  1  0
 12 16  1  0
 11 17  1  0
 17 18  1  0
 18 19  1  0
 18 20  1  0
 18 21  1  0
 15 22  2  0
 14 23  1  0
 23 24  1  0
 24 25  2  0
 24 26  1  0
 28 29  1  0
 29 30  2  0
 30 31  1  0
 27 31  2  0
 27 26  1  0
 26 28  2  0
 31 32  1  0
 30 33  1  0
 34 32  1  6
 34 33  1  0
 34 35  1  0
 35 36  2  0
 36 37  1  0
 37 38  1  0
 38 34  1  0
 38 39  2  0
 36 40  1  0
 35 41  1  0
 41 42  2  0
 40 43  2  0
 43 42  1  0
  2 44  1  0
  3 45  1  0
 10 46  1  1
 12 47  1  1
 13 48  1  0
 13 49  1  0
 14 50  1  1
 16 51  1  0
 16 52  1  0
 16 53  1  0
 17 54  1  0
 17 55  1  0
 23 56  1  0
 27 57  1  0
 28 58  1  0
 32 59  1  0
 32 60  1  0
 33 61  1  0
 33 62  1  0
 37 63  1  0
 41 64  1  0
 42 65  1  0
 43 66  1  0
M  END
> <Uni-Dock RESULT> 
ENERGY=   -5.674  LOWER_BOUND=    0.000  UPPER_BOUND=    0.000
INTER + INTRA:          -5.674
INTER:                  -5.674
INTRA:                   0.000
UNBOUND:                 0.000

$$$$

     RDKit          3D

 66 71  0  0  0  0  0  0  0  0999 V2000
   30.4585   12.7135   20.2717 C   0  0  0  0  0  0  0  0  0  0  0  0
   31.2888   12.1479   19.3032 C   0  0  0  0  0  0  0  0  0  0  0  0
   31.2032   10.7853   19.0322 C   0  0  0  0  0  0  0  0  0  0  0  0
   30.2812   10.0147   19.7305 C   0  0  0  0  0  0  0  0  0  0  0  0
   29.4553   10.5887   20.6981 C   0  0  0  0  0  0  0  0  0  0  0  0
   29.5323   11.9526   21.0004 C   0  0  0  0  0  0  0  0  0  0  0  0
   30.5524   14.0316   20.4970 F   0  0  0  0  0  0  0  0  0  0  0  0
   30.1817    8.7068   19.4566 F   0  0  0  0  0  0  0  0  0  0  0  0
   28.5564    9.8084   21.3136 F   0  0  0  0  0  0  0  0  0  0  0  0
   28.6684   12.6440   22.0394 C   0  0  1  0  0  0  0  0  0  0  0  0
   26.6614   14.0735   22.4669 N   0  0  0  0  0  0  0  0  0  0  0  0
   27.4314   13.3545   21.4333 C   0  0  2  0  0  0  0  0  0  0  0  0
   28.2312   11.7788   23.2299 C   0  0  0  0  0  0  0  0  0  0  0  0
   27.6351   12.6783   24.3083 C   0  0  1  0  0  0  0  0  0  0  0  0
   26.5358   13.6183   23.7718 C   0  0  0  0  0  0  0  0  0  0  0  0
   26.4958   12.4026   20.6702 C   0  0  0  0  0  0  0  0  0  0  0  0
   25.8123   15.2083   22.0434 C   0  0  0  0  0  0  0  0  0  0  0  0
   26.4239   16.5837   22.3199 C   0  0  0  0  0  0  0  0  0  0  0  0
   25.5817   17.5667   21.9267 F   0  0  0  0  0  0  0  0  0  0  0  0
   27.5762   16.7411   21.6257 F   0  0  0  0  0  0  0  0  0  0  0  0
   26.7016   16.7753   23.6254 F   0  0  0  0  0  0  0  0  0  0  0  0
   25.6393   14.0218   24.5179 O   0  0  0  0  0  0  0  0  0  0  0  0
   27.0679   11.9174   25.4195 N   0  0  0  0  0  0  0  0  0  0  0  0
   27.8774   11.2587   26.3196 C   0  0  0  0  0  0  0  0  0  0  0  0
   29.0926   11.1703   26.1864 O   0  0  0  0  0  0  0  0  0  0  0  0
   27.2121   10.6613   27.5028 C   0  0  0  0  0  0  0  0  0  0  0  0
   25.8462   10.3580   27.5420 C   0  0  0  0  0  0  0  0  0  0  0  0
   27.9945   10.3505   28.6194 C   0  0  0  0  0  0  0  0  0  0  0  0
   27.5157    9.7890   29.7616 N   0  0  0  0  0  0  0  0  0  0  0  0
   26.1973    9.5410   29.7669 C   0  0  0  0  0  0  0  0  0  0  0  0
   25.3435    9.7925   28.7018 C   0  0  0  0  0  0  0  0  0  0  0  0
   23.9489    9.3422   28.9917 C   0  0  0  0  0  0  0  0  0  0  0  0
   25.4820    8.8906   30.9167 C   0  0  0  0  0  0  0  0  0  0  0  0
   24.0055    9.0566   30.5088 C   0  0  2  0  0  0  0  0  0  0  0  0
   23.1313    7.9095   30.9414 C   0  0  0  0  0  0  0  0  0  0  0  0
   22.1661    8.3632   31.8279 C   0  0  0  0  0  0  0  0  0  0  0  0
   22.3137    9.7182   32.0254 N   0  0  0  0  0  0  0  0  0  0  0  0
   23.3656   10.2316   31.2897 C   0  0  0  0  0  0  0  0  0  0  0  0
   23.7050   11.4023   31.2642 O   0  0  0  0  0  0  0  0  0  0  0  0
   21.2269    7.6150   32.4069 N   0  0  0  0  0  0  0  0  0  0  0  0
   23.1563    6.5694   30.6064 C   0  0  0  0  0  0  0  0  0  0  0  0
   22.1941    5.7452   31.1883 C   0  0  0  0  0  0  0  0  0  0  0  0
   21.2653    6.3046   32.0688 C   0  0  0  0  0  0  0  0  0  0  0  0
   31.9945   12.7783   18.7693 H   0  0  0  0  0  0  0  0  0  0  0  0
   31.8383   10.3220   18.2834 H   0  0  0  0  0  0  0  0  0  0  0  0
   29.3060   13.4295   22.4754 H   0  0  0  0  0  0  0  0  0  0  0  0
   27.7892   14.1134   20.7248 H   0  0  0  0  0  0  0  0  0  0  0  0
   27.4952   11.0225   22.9359 H   0  0  0  0  0  0  0  0  0  0  0  0
   29.0936   11.2314   23.6280 H   0  0  0  0  0  0  0  0  0  0  0  0
   28.4199   13.3245   24.7226 H   0  0  0  0  0  0  0  0  0  0  0  0
   25.6565   12.9505   20.2297 H   0  0  0  0  0  0  0  0  0  0  0  0
   27.0119   11.9019   19.8463 H   0  0  0  0  0  0  0  0  0  0  0  0
   26.0641   11.6398   21.3252 H   0  0  0  0  0  0  0  0  0  0  0  0
   24.8460   15.1433   22.5558 H   0  0  0  0  0  0  0  0  0  0  0  0
   25.6068   15.1162   20.9721 H   0  0  0  0  0  0  0  0  0  0  0  0
   26.1680   12.2571   25.7492 H   0  0  0  0  0  0  0  0  0  0  0  0
   25.1936   10.5328   26.6941 H   0  0  0  0  0  0  0  0  0  0  0  0
   29.0646   10.5505   28.6267 H   0  0  0  0  0  0  0  0  0  0  0  0
   23.7329    8.4428   28.4044 H   0  0  0  0  0  0  0  0  0  0  0  0
   23.2233   10.1210   28.7353 H   0  0  0  0  0  0  0  0  0  0  0  0
   25.7876    7.8398   30.9747 H   0  0  0  0  0  0  0  0  0  0  0  0
   25.7296    9.3916   31.8589 H   0  0  0  0  0  0  0  0  0  0  0  0
   21.7146   10.2570   32.6296 H   0  0  0  0  0  0  0  0  0  0  0  0
   23.8934    6.1642   29.9210 H   0  0  0  0  0  0  0  0  0  0  0  0
   22.1632    4.6835   30.9651 H   0  0  0  0  0  0  0  0  0  0  0  0
   20.5043    5.6860   32.5381 H   0  0  0  0  0  0  0  0  0  0  0  0
  1  2  2  0
  2  3  1  0
  3  4  2  0
  4  5  1  0
  5  6  2  0
  1  6  1  0
  1  7  1  0
  4  8  1  0
  5  9  1  0
 10  6  1  0
 11 12  1  0
 13 14  1  0
 14 15  1  0
 11 15  1  0
 12 10  1  0
 10 13  1  0
 12 16  1  0
 11 17  1  0
 17 18  1  0
 18 19  1  0
 18 20  1  0
 18 21  1  0
 15 22  2  0
 14 23  1  0
 23 24  1  0
 24 25  2  0
 24 26  1  0
 28 29  1  0
 29 30  2  0
 30 31  1  0
 27 31  2  0
 27 26  1  0
 26 28  2  0
 31 32  1  0
 30 33  1  0
 34 32  1  6
 34 33  1  0
 34 35  1  0
 35 36  2  0
 36 37  1  0
 37 38  1  0
 38 34  1  0
 38 39  2  0
 36 40  1  0
 35 41  1  0
 41 42  2  0
 40 43  2  0
 43 42  1  0
  2 44  1  0
  3 45  1  0
 10 46  1  1
 12 47  1  1
 13 48  1  0
 13 49  1  0
 14 50  1  1
 16 51  1  0
 16 52  1  0
 16 53  1  0
 17 54  1  0
 17 55  1  0
 23 56  1  0
 27 57  1  0
 28 58  1  0
 32 59  1  0
 32 60  1  0
 33 61  1  0
 33 62  1  0
 37 63  1  0
 41 64  1  0
 42 65  1  0
 43 66  1  0
M  END
> <Uni-Dock RESULT> 
ENERGY=   -5.417  LOWER_BOUND=    0.405  UPPER_BOUND=    0.405
INTER + INTRA:          -5.417
INTER:                  -5.417
INTRA:                   0.000
UNBOUND:                 0.000

$$$$

     RDKit          3D

 66 71  0  0  0  0  0  0  0  0999 V2000
   37.2567   12.7463   30.0489 C   0  0  0  0  0  0  0  0  0  0  0  0
   37.9890   13.7089   30.7451 C   0  0  0  0  0  0  0  0  0  0  0  0
   37.4626   14.9862   30.9146 C   0  0  0  0  0  0  0  0  0  0  0  0
   36.2080   15.2745   30.3906 C   0  0  0  0  0  0  0  0  0  0  0  0
   35.4831   14.3057   29.6949 C   0  0  0  0  0  0  0  0  0  0  0  0
   35.9962   13.0191   29.4973 C   0  0  0  0  0  0  0  0  0  0  0  0
   37.7830   11.5204   29.9182 F   0  0  0  0  0  0  0  0  0  0  0  0
   35.6896   16.4969   30.5706 F   0  0  0  0  0  0  0  0  0  0  0  0
   34.2616   14.6241   29.2449 F   0  0  0  0  0  0  0  0  0  0  0  0
   35.2661   11.9172   28.7512 C   0  0  1  0  0  0  0  0  0  0  0  0
   33.8813    9.8422   28.9269 N   0  0  0  0  0  0  0  0  0  0  0  0
   34.5146   10.9370   29.6874 C   0  0  2  0  0  0  0  0  0  0  0  0
   34.3253   12.3780   27.6288 C   0  0  0  0  0  0  0  0  0  0  0  0
   33.9080   11.1679   26.7990 C   0  0  1  0  0  0  0  0  0  0  0  0
   33.3530   10.0104   27.6547 C   0  0  0  0  0  0  0  0  0  0  0  0
   33.4577   11.6248   30.5670 C   0  0  0  0  0  0  0  0  0  0  0  0
   33.6041    8.5710   29.6305 C   0  0  0  0  0  0  0  0  0  0  0  0
   34.6133    7.4594   29.3334 C   0  0  0  0  0  0  0  0  0  0  0  0
   34.2809    6.3263   29.9935 F   0  0  0  0  0  0  0  0  0  0  0  0
   35.8520    7.8169   29.7484 F   0  0  0  0  0  0  0  0  0  0  0  0
   34.6894    7.1650   28.0197 F   0  0  0  0  0  0  0  0  0  0  0  0
   32.5432    9.2115   27.1760 O   0  0  0  0  0  0  0  0  0  0  0  0
   32.9022   11.5007   25.7927 N   0  0  0  0  0  0  0  0  0  0  0  0
   33.2275   12.2403   24.6763 C   0  0  0  0  0  0  0  0  0  0  0  0
   34.3273   12.7562   24.5128 O   0  0  0  0  0  0  0  0  0  0  0  0
   32.1786   12.3766   23.6369 C   0  0  0  0  0  0  0  0  0  0  0  0
   30.8157   12.1877   23.8942 C   0  0  0  0  0  0  0  0  0  0  0  0
   32.5660   12.7497   22.3460 C   0  0  0  0  0  0  0  0  0  0  0  0
   31.7078   12.9228   21.3054 N   0  0  0  0  0  0  0  0  0  0  0  0
   30.4149   12.7042   21.5891 C   0  0  0  0  0  0  0  0  0  0  0  0
   29.9310   12.3536   22.8419 C   0  0  0  0  0  0  0  0  0  0  0  0
   28.4406   12.2506   22.8510 C   0  0  0  0  0  0  0  0  0  0  0  0
   29.3072   12.8781   20.5893 C   0  0  0  0  0  0  0  0  0  0  0  0
   28.1004   12.2891   21.3447 C   0  0  2  0  0  0  0  0  0  0  0  0
   26.8016   12.9853   21.0356 C   0  0  0  0  0  0  0  0  0  0  0  0
   25.9210   12.0940   20.4412 C   0  0  0  0  0  0  0  0  0  0  0  0
   26.5150   10.8566   20.3277 N   0  0  0  0  0  0  0  0  0  0  0  0
   27.8006   10.8569   20.8361 C   0  0  0  0  0  0  0  0  0  0  0  0
   28.5439    9.8913   20.8783 O   0  0  0  0  0  0  0  0  0  0  0  0
   24.6816   12.3749   20.0386 N   0  0  0  0  0  0  0  0  0  0  0  0
   26.3963   14.2898   21.2428 C   0  0  0  0  0  0  0  0  0  0  0  0
   25.1076   14.6327   20.8366 C   0  0  0  0  0  0  0  0  0  0  0  0
   24.3000   13.6568   20.2482 C   0  0  0  0  0  0  0  0  0  0  0  0
   38.9640   13.4506   31.1490 H   0  0  0  0  0  0  0  0  0  0  0  0
   38.0129   15.7522   31.4522 H   0  0  0  0  0  0  0  0  0  0  0  0
   36.0524   11.3353   28.2446 H   0  0  0  0  0  0  0  0  0  0  0  0
   35.2529   10.4698   30.3528 H   0  0  0  0  0  0  0  0  0  0  0  0
   33.4332   12.8765   28.0235 H   0  0  0  0  0  0  0  0  0  0  0  0
   34.8348   13.1137   26.9955 H   0  0  0  0  0  0  0  0  0  0  0  0
   34.7815   10.7684   26.2672 H   0  0  0  0  0  0  0  0  0  0  0  0
   32.9775   10.9035   31.2362 H   0  0  0  0  0  0  0  0  0  0  0  0
   33.9001   12.3972   31.2023 H   0  0  0  0  0  0  0  0  0  0  0  0
   32.6608   12.0793   29.9706 H   0  0  0  0  0  0  0  0  0  0  0  0
   32.6031    8.2204   29.3556 H   0  0  0  0  0  0  0  0  0  0  0  0
   33.5859    8.7598   30.7087 H   0  0  0  0  0  0  0  0  0  0  0  0
   32.1445   10.8271   25.7128 H   0  0  0  0  0  0  0  0  0  0  0  0
   30.4459   11.9414   24.8831 H   0  0  0  0  0  0  0  0  0  0  0  0
   33.6127   12.9264   22.1044 H   0  0  0  0  0  0  0  0  0  0  0  0
   28.0252   13.1056   23.3958 H   0  0  0  0  0  0  0  0  0  0  0  0
   28.1139   11.3240   23.3343 H   0  0  0  0  0  0  0  0  0  0  0  0
   29.1893   13.9462   20.3741 H   0  0  0  0  0  0  0  0  0  0  0  0
   29.5382   12.3456   19.6603 H   0  0  0  0  0  0  0  0  0  0  0  0
   26.0525   10.0562   19.9279 H   0  0  0  0  0  0  0  0  0  0  0  0
   27.0488   15.0263   21.7001 H   0  0  0  0  0  0  0  0  0  0  0  0
   24.7323   15.6421   20.9718 H   0  0  0  0  0  0  0  0  0  0  0  0
   23.2911   13.8958   19.9209 H   0  0  0  0  0  0  0  0  0  0  0  0
  1  2  2  0
  2  3  1  0
  3  4  2  0
  4  5  1  0
  5  6  2  0
  1  6  1  0
  1  7  1  0
  4  8  1  0
  5  9  1  0
 10  6  1  0
 11 12  1  0
 13 14  1  0
 14 15  1  0
 11 15  1  0
 12 10  1  0
 10 13  1  0
 12 16  1  0
 11 17  1  0
 17 18  1  0
 18 19  1  0
 18 20  1  0
 18 21  1  0
 15 22  2  0
 14 23  1  0
 23 24  1  0
 24 25  2  0
 24 26  1  0
 28 29  1  0
 29 30  2  0
 30 31  1  0
 27 31  2  0
 27 26  1  0
 26 28  2  0
 31 32  1  0
 30 33  1  0
 34 32  1  6
 34 33  1  0
 34 35  1  0
 35 36  2  0
 36 37  1  0
 37 38  1  0
 38 34  1  0
 38 39  2  0
 36 40  1  0
 35 41  1  0
 41 42  2  0
 40 43  2  0
 43 42  1  0
  2 44  1  0
  3 45  1  0
 10 46  1  1
 12 47  1  1
 13 48  1  0
 13 49  1  0
 14 50  1  1
 16 51  1  0
 16 52  1  0
 16 53  1  0
 17 54  1  0
 17 55  1  0
 23 56  1  0
 27 57  1  0
 28 58  1  0
 32 59  1  0
 32 60  1  0
 33 61  1  0
 33 62  1  0
 37 63  1  0
 41 64  1  0
 42 65  1  0
 43 66  1  0
M  END
> <Uni-Dock RESULT> 
ENERGY=   -4.301  LOWER_BOUND=    7.463  UPPER_BOUND=   11.283
INTER + INTRA:          -4.301
INTER:                  -4.301
INTRA:                   0.000
UNBOUND:                 0.000

$$$$

     RDKit          3D

 66 71  0  0  0  0  0  0  0  0999 V2000
   35.4293    3.3074   31.9356 C   0  0  0  0  0  0  0  0  0  0  0  0
   36.7071    3.3921   32.4901 C   0  0  0  0  0  0  0  0  0  0  0  0
   37.0465    4.4902   33.2752 C   0  0  0  0  0  0  0  0  0  0  0  0
   36.0970    5.4804   33.4978 C   0  0  0  0  0  0  0  0  0  0  0  0
   34.8217    5.3878   32.9384 C   0  0  0  0  0  0  0  0  0  0  0  0
   34.4603    4.3024   32.1330 C   0  0  0  0  0  0  0  0  0  0  0  0
   35.1271    2.2289   31.1991 F   0  0  0  0  0  0  0  0  0  0  0  0
   36.4141    6.5281   34.2706 F   0  0  0  0  0  0  0  0  0  0  0  0
   33.9317    6.3500   33.2172 F   0  0  0  0  0  0  0  0  0  0  0  0
   33.0947    4.1361   31.4916 C   0  0  1  0  0  0  0  0  0  0  0  0
   30.8580    3.0233   31.6055 N   0  0  0  0  0  0  0  0  0  0  0  0
   32.1457    3.2157   32.3004 C   0  0  2  0  0  0  0  0  0  0  0  0
   32.3627    5.4359   31.1284 C   0  0  0  0  0  0  0  0  0  0  0  0
   31.1668    5.1041   30.2414 C   0  0  1  0  0  0  0  0  0  0  0  0
   30.2565    4.0107   30.8379 C   0  0  0  0  0  0  0  0  0  0  0  0
   31.8838    3.7170   33.7301 C   0  0  0  0  0  0  0  0  0  0  0  0
   30.0716    1.8089   31.9135 C   0  0  0  0  0  0  0  0  0  0  0  0
   30.1825    0.7079   30.8562 C   0  0  0  0  0  0  0  0  0  0  0  0
   29.4209   -0.3571   31.1968 F   0  0  0  0  0  0  0  0  0  0  0  0
   31.4606    0.2712   30.7551 F   0  0  0  0  0  0  0  0  0  0  0  0
   29.7918    1.1211   29.6336 F   0  0  0  0  0  0  0  0  0  0  0  0
   29.0567    3.9713   30.5517 O   0  0  0  0  0  0  0  0  0  0  0  0
   30.3358    6.2735   29.9636 N   0  0  0  0  0  0  0  0  0  0  0  0
   30.7706    7.2736   29.1211 C   0  0  0  0  0  0  0  0  0  0  0  0
   31.9021    7.3076   28.6510 O   0  0  0  0  0  0  0  0  0  0  0  0
   29.7872    8.3277   28.7728 C   0  0  0  0  0  0  0  0  0  0  0  0
   28.6514    8.6008   29.5439 C   0  0  0  0  0  0  0  0  0  0  0  0
   30.0264    9.1124   27.6404 C   0  0  0  0  0  0  0  0  0  0  0  0
   29.2153   10.1184   27.2166 N   0  0  0  0  0  0  0  0  0  0  0  0
   28.1242   10.3273   27.9686 C   0  0  0  0  0  0  0  0  0  0  0  0
   27.8126    9.6178   29.1201 C   0  0  0  0  0  0  0  0  0  0  0  0
   26.5699   10.1338   29.7693 C   0  0  0  0  0  0  0  0  0  0  0  0
   27.1238   11.4134   27.6919 C   0  0  0  0  0  0  0  0  0  0  0  0
   25.9941   11.0658   28.6803 C   0  0  2  0  0  0  0  0  0  0  0  0
   25.2865   12.2752   29.2316 C   0  0  0  0  0  0  0  0  0  0  0  0
   23.9529   12.2527   28.8516 C   0  0  0  0  0  0  0  0  0  0  0  0
   23.7020   11.1294   28.0952 N   0  0  0  0  0  0  0  0  0  0  0  0
   24.8359   10.3543   27.9373 C   0  0  0  0  0  0  0  0  0  0  0  0
   24.8912    9.2988   27.3295 O   0  0  0  0  0  0  0  0  0  0  0  0
   23.0377   13.1694   29.1662 N   0  0  0  0  0  0  0  0  0  0  0  0
   25.7459   13.3260   30.0020 C   0  0  0  0  0  0  0  0  0  0  0  0
   24.8257   14.3118   30.3555 C   0  0  0  0  0  0  0  0  0  0  0  0
   23.5038   14.1924   29.9207 C   0  0  0  0  0  0  0  0  0  0  0  0
   37.4249    2.5981   32.3035 H   0  0  0  0  0  0  0  0  0  0  0  0
   38.0340    4.5788   33.7175 H   0  0  0  0  0  0  0  0  0  0  0  0
   33.2820    3.6346   30.5288 H   0  0  0  0  0  0  0  0  0  0  0  0
   32.6138    2.2248   32.3724 H   0  0  0  0  0  0  0  0  0  0  0  0
   32.0199    5.9734   32.0193 H   0  0  0  0  0  0  0  0  0  0  0  0
   33.0466    6.1134   30.6037 H   0  0  0  0  0  0  0  0  0  0  0  0
   31.5211    4.7192   29.2761 H   0  0  0  0  0  0  0  0  0  0  0  0
   31.2390    3.0204   34.2759 H   0  0  0  0  0  0  0  0  0  0  0  0
   32.8102    3.8043   34.3046 H   0  0  0  0  0  0  0  0  0  0  0  0
   31.3768    4.6866   33.7380 H   0  0  0  0  0  0  0  0  0  0  0  0
   29.0171    2.0841   32.0260 H   0  0  0  0  0  0  0  0  0  0  0  0
   30.3977    1.4117   32.8801 H   0  0  0  0  0  0  0  0  0  0  0  0
   29.3348    6.1058   30.0259 H   0  0  0  0  0  0  0  0  0  0  0  0
   28.4323    8.0590   30.4571 H   0  0  0  0  0  0  0  0  0  0  0  0
   30.9071    8.9492   27.0215 H   0  0  0  0  0  0  0  0  0  0  0  0
   26.8405   10.6748   30.6829 H   0  0  0  0  0  0  0  0  0  0  0  0
   25.8911    9.3138   30.0256 H   0  0  0  0  0  0  0  0  0  0  0  0
   27.5868   12.3836   27.9052 H   0  0  0  0  0  0  0  0  0  0  0  0
   26.8052   11.3875   26.6441 H   0  0  0  0  0  0  0  0  0  0  0  0
   22.7949   10.9091   27.7172 H   0  0  0  0  0  0  0  0  0  0  0  0
   26.7807   13.3921   30.3217 H   0  0  0  0  0  0  0  0  0  0  0  0
   25.1266   15.1625   30.9586 H   0  0  0  0  0  0  0  0  0  0  0  0
   22.7647   14.9464   30.1803 H   0  0  0  0  0  0  0  0  0  0  0  0
  1  2  2  0
  2  3  1  0
  3  4  2  0
  4  5  1  0
  5  6  2  0
  1  6  1  0
  1  7  1  0
  4  8  1  0
  5  9  1  0
 10  6  1  0
 11 12  1  0
 13 14  1  0
 14 15  1  0
 11 15  1  0
 12 10  1  0
 10 13  1  0
 12 16  1  0
 11 17  1  0
 17 18  1  0
 18 19  1  0
 18 20  1  0
 18 21  1  0
 15 22  2  0
 14 23  1  0
 23 24  1  0
 24 25  2  0
 24 26  1  0
 28 29  1  0
 29 30  2  0
 30 31  1  0
 27 31  2  0
 27 26  1  0
 26 28  2  0
 31 32  1  0
 30 33  1  0
 34 32  1  6
 34 33  1  0
 34 35  1  0
 35 36  2  0
 36 37  1  0
 37 38  1  0
 38 34  1  0
 38 39  2  0
 36 40  1  0
 35 41  1  0
 41 42  2  0
 40 43  2  0
 43 42  1  0
  2 44  1  0
  3 45  1  0
 10 46  1  1
 12 47  1  1
 13 48  1  0
 13 49  1  0
 14 50  1  1
 16 51  1  0
 16 52  1  0
 16 53  1  0
 17 54  1  0
 17 55  1  0
 23 56  1  0
 27 57  1  0
 28 58  1  0
 32 59  1  0
 32 60  1  0
 33 61  1  0
 33 62  1  0
 37 63  1  0
 41 64  1  0
 42 65  1  0
 43 66  1  0
M  END
> <Uni-Dock RESULT> 
ENERGY=   -4.150  LOWER_BOUND=    7.968  UPPER_BOUND=   11.724
INTER + INTRA:          -4.150
INTER:                  -4.150
INTRA:                   0.000
UNBOUND:                 0.000

$$$$

     RDKit          3D

 66 71  0  0  0  0  0  0  0  0999 V2000
   25.2365   10.8885   19.4841 C   0  0  0  0  0  0  0  0  0  0  0  0
   23.9322   11.1207   19.0454 C   0  0  0  0  0  0  0  0  0  0  0  0
   23.3327   12.3533   19.2874 C   0  0  0  0  0  0  0  0  0  0  0  0
   24.0534   13.3347   19.9574 C   0  0  0  0  0  0  0  0  0  0  0  0
   25.3572   13.0933   20.3933 C   0  0  0  0  0  0  0  0  0  0  0  0
   25.9770   11.8579   20.1764 C   0  0  0  0  0  0  0  0  0  0  0  0
   25.7924    9.6976   19.2199 F   0  0  0  0  0  0  0  0  0  0  0  0
   23.4864   14.5295   20.1730 F   0  0  0  0  0  0  0  0  0  0  0  0
   26.0214   14.0872   20.9990 F   0  0  0  0  0  0  0  0  0  0  0  0
   27.3890   11.5245   20.6225 C   0  0  1  0  0  0  0  0  0  0  0  0
   29.7870   11.2874   19.9533 N   0  0  0  0  0  0  0  0  0  0  0  0
   28.4425   11.6914   19.4981 C   0  0  2  0  0  0  0  0  0  0  0  0
   27.8762   12.2371   21.8921 C   0  0  0  0  0  0  0  0  0  0  0  0
   29.1710   11.5841   22.3654 C   0  0  1  0  0  0  0  0  0  0  0  0
   30.2347   11.4750   21.2534 C   0  0  0  0  0  0  0  0  0  0  0  0
   28.5042   13.1182   18.9287 C   0  0  0  0  0  0  0  0  0  0  0  0
   30.7725   10.8645   18.9346 C   0  0  0  0  0  0  0  0  0  0  0  0
   30.9504    9.3481   18.8289 C   0  0  0  0  0  0  0  0  0  0  0  0
   31.8805    9.0421   17.8953 F   0  0  0  0  0  0  0  0  0  0  0  0
   29.7919    8.7576   18.4499 F   0  0  0  0  0  0  0  0  0  0  0  0
   31.3348    8.7882   19.9938 F   0  0  0  0  0  0  0  0  0  0  0  0
   31.4357   11.4557   21.5367 O   0  0  0  0  0  0  0  0  0  0  0  0
   29.7746   12.2927   23.4919 N   0  0  0  0  0  0  0  0  0  0  0  0
   29.2110   12.2459   24.7486 C   0  0  0  0  0  0  0  0  0  0  0  0
   28.1291   11.7173   24.9774 O   0  0  0  0  0  0  0  0  0  0  0  0
   29.9911   12.8549   25.8531 C   0  0  0  0  0  0  0  0  0  0  0  0
   30.9970   13.8062   25.6471 C   0  0  0  0  0  0  0  0  0  0  0  0
   29.6805   12.4896   27.1668 C   0  0  0  0  0  0  0  0  0  0  0  0
   30.3065   12.9804   28.2698 N   0  0  0  0  0  0  0  0  0  0  0  0
   31.2824   13.8678   28.0252 C   0  0  0  0  0  0  0  0  0  0  0  0
   31.6479   14.3091   26.7610 C   0  0  0  0  0  0  0  0  0  0  0  0
   32.7192   15.3485   26.8255 C   0  0  0  0  0  0  0  0  0  0  0  0
   32.0680   14.5533   29.1067 C   0  0  0  0  0  0  0  0  0  0  0  0
   33.1744   15.2587   28.2989 C   0  0  2  0  0  0  0  0  0  0  0  0
   33.5934   16.5813   28.8842 C   0  0  0  0  0  0  0  0  0  0  0  0
   34.9283   16.5282   29.2563 C   0  0  0  0  0  0  0  0  0  0  0  0
   35.4442   15.2842   28.9677 N   0  0  0  0  0  0  0  0  0  0  0  0
   34.4967   14.4573   28.3934 C   0  0  0  0  0  0  0  0  0  0  0  0
   34.6897   13.3116   28.0240 O   0  0  0  0  0  0  0  0  0  0  0  0
   35.6236   17.5233   29.8071 N   0  0  0  0  0  0  0  0  0  0  0  0
   32.8867   17.7506   29.0895 C   0  0  0  0  0  0  0  0  0  0  0  0
   33.5708   18.8203   29.6651 C   0  0  0  0  0  0  0  0  0  0  0  0
   34.9169   18.6615   30.0021 C   0  0  0  0  0  0  0  0  0  0  0  0
   23.3975   10.3356   18.5180 H   0  0  0  0  0  0  0  0  0  0  0  0
   22.3193   12.5580   18.9562 H   0  0  0  0  0  0  0  0  0  0  0  0
   27.3688   10.4547   20.8848 H   0  0  0  0  0  0  0  0  0  0  0  0
   28.1730   11.0135   18.6772 H   0  0  0  0  0  0  0  0  0  0  0  0
   28.0465   13.3056   21.7201 H   0  0  0  0  0  0  0  0  0  0  0  0
   27.1103   12.1689   22.6736 H   0  0  0  0  0  0  0  0  0  0  0  0
   28.9648   10.5584   22.6982 H   0  0  0  0  0  0  0  0  0  0  0  0
   29.2341   13.1825   18.1151 H   0  0  0  0  0  0  0  0  0  0  0  0
   27.5419   13.4305   18.5135 H   0  0  0  0  0  0  0  0  0  0  0  0
   28.8105   13.8481   19.6841 H   0  0  0  0  0  0  0  0  0  0  0  0
   31.7430   11.3176   19.1654 H   0  0  0  0  0  0  0  0  0  0  0  0
   30.4656   11.2581   17.9602 H   0  0  0  0  0  0  0  0  0  0  0  0
   30.7826   12.4103   23.4267 H   0  0  0  0  0  0  0  0  0  0  0  0
   31.2554   14.1647   24.6571 H   0  0  0  0  0  0  0  0  0  0  0  0
   28.8926   11.7682   27.3762 H   0  0  0  0  0  0  0  0  0  0  0  0
   32.2870   16.3249   26.5798 H   0  0  0  0  0  0  0  0  0  0  0  0
   33.5261   15.1253   26.1199 H   0  0  0  0  0  0  0  0  0  0  0  0
   31.4113   15.2592   29.6277 H   0  0  0  0  0  0  0  0  0  0  0  0
   32.4557   13.8227   29.8250 H   0  0  0  0  0  0  0  0  0  0  0  0
   36.4003   15.0264   29.1512 H   0  0  0  0  0  0  0  0  0  0  0  0
   31.8397   17.8418   28.8195 H   0  0  0  0  0  0  0  0  0  0  0  0
   33.0695   19.7646   29.8522 H   0  0  0  0  0  0  0  0  0  0  0  0
   35.4753   19.4781   30.4532 H   0  0  0  0  0  0  0  0  0  0  0  0
  1  2  2  0
  2  3  1  0
  3  4  2  0
  4  5  1  0
  5  6  2  0
  1  6  1  0
  1  7  1  0
  4  8  1  0
  5  9  1  0
 10  6  1  0
 11 12  1  0
 13 14  1  0
 14 15  1  0
 11 15  1  0
 12 10  1  0
 10 13  1  0
 12 16  1  0
 11 17  1  0
 17 18  1  0
 18 19  1  0
 18 20  1  0
 18 21  1  0
 15 22  2  0
 14 23  1  0
 23 24  1  0
 24 25  2  0
 24 26  1  0
 28 29  1  0
 29 30  2  0
 30 31  1  0
 27 31  2  0
 27 26  1  0
 26 28  2  0
 31 32  1  0
 30 33  1  0
 34 32  1  6
 34 33  1  0
 34 35  1  0
 35 36  2  0
 36 37  1  0
 37 38  1  0
 38 34  1  0
 38 39  2  0
 36 40  1  0
 35 41  1  0
 41 42  2  0
 40 43  2  0
 43 42  1  0
  2 44  1  0
  3 45  1  0
 10 46  1  1
 12 47  1  1
 13 48  1  0
 13 49  1  0
 14 50  1  1
 16 51  1  0
 16 52  1  0
 16 53  1  0
 17 54  1  0
 17 55  1  0
 23 56  1  0
 27 57  1  0
 28 58  1  0
 32 59  1  0
 32 60  1  0
 33 61  1  0
 33 62  1  0
 37 63  1  0
 41 64  1  0
 42 65  1  0
 43 66  1  0
M  END
> <Uni-Dock RESULT> 
ENERGY=   -4.123  LOWER_BOUND=    5.306  UPPER_BOUND=    8.974
INTER + INTRA:          -4.123
INTER:                  -4.123
INTRA:                   0.000
UNBOUND:                 0.000

$$$$

     RDKit          3D

 66 71  0  0  0  0  0  0  0  0999 V2000
   21.9135    6.3743   30.2412 C   0  0  0  0  0  0  0  0  0  0  0  0
   21.8585    5.0265   30.5984 C   0  0  0  0  0  0  0  0  0  0  0  0
   23.0007    4.3941   31.0811 C   0  0  0  0  0  0  0  0  0  0  0  0
   24.1760    5.1254   31.2051 C   0  0  0  0  0  0  0  0  0  0  0  0
   24.2220    6.4729   30.8446 C   0  0  0  0  0  0  0  0  0  0  0  0
   23.0923    7.1279   30.3423 C   0  0  0  0  0  0  0  0  0  0  0  0
   20.7923    6.9594   29.7968 F   0  0  0  0  0  0  0  0  0  0  0  0
   25.2715    4.5247   31.6895 F   0  0  0  0  0  0  0  0  0  0  0  0
   25.3697    7.1417   31.0216 F   0  0  0  0  0  0  0  0  0  0  0  0
   23.0688    8.5884   29.9295 C   0  0  1  0  0  0  0  0  0  0  0  0
   22.4393   10.9249   30.5611 N   0  0  0  0  0  0  0  0  0  0  0  0
   22.5127    9.5274   31.0300 C   0  0  2  0  0  0  0  0  0  0  0  0
   24.3912    9.1539   29.3924 C   0  0  0  0  0  0  0  0  0  0  0  0
   24.1299   10.5153   28.7556 C   0  0  1  0  0  0  0  0  0  0  0  0
   23.3599   11.4785   29.6825 C   0  0  0  0  0  0  0  0  0  0  0  0
   23.3143    9.4708   32.3408 C   0  0  0  0  0  0  0  0  0  0  0  0
   21.4749   11.8335   31.2187 C   0  0  0  0  0  0  0  0  0  0  0  0
   20.1938   12.0720   30.4160 C   0  0  0  0  0  0  0  0  0  0  0  0
   19.3750   12.9275   31.0700 F   0  0  0  0  0  0  0  0  0  0  0  0
   19.5130   10.9130   30.2496 F   0  0  0  0  0  0  0  0  0  0  0  0
   20.4357   12.5854   29.1929 F   0  0  0  0  0  0  0  0  0  0  0  0
   23.4942   12.6997   29.5657 O   0  0  0  0  0  0  0  0  0  0  0  0
   25.3615   11.1839   28.3417 N   0  0  0  0  0  0  0  0  0  0  0  0
   26.0850   10.7385   27.2566 C   0  0  0  0  0  0  0  0  0  0  0  0
   25.8160    9.7075   26.6508 O   0  0  0  0  0  0  0  0  0  0  0  0
   27.2208   11.5854   26.8185 C   0  0  0  0  0  0  0  0  0  0  0  0
   27.8433   12.5231   27.6508 C   0  0  0  0  0  0  0  0  0  0  0  0
   27.7191   11.4118   25.5234 C   0  0  0  0  0  0  0  0  0  0  0  0
   28.7618   12.1108   25.0005 N   0  0  0  0  0  0  0  0  0  0  0  0
   29.3104   13.0181   25.8224 C   0  0  0  0  0  0  0  0  0  0  0  0
   28.9019   13.2473   27.1289 C   0  0  0  0  0  0  0  0  0  0  0  0
   29.7557   14.2701   27.8048 C   0  0  0  0  0  0  0  0  0  0  0  0
   30.4937   13.8649   25.4488 C   0  0  0  0  0  0  0  0  0  0  0  0
   30.5577   14.8598   26.6235 C   0  0  2  0  0  0  0  0  0  0  0  0
   31.9605   15.2673   26.9884 C   0  0  0  0  0  0  0  0  0  0  0  0
   32.1187   16.6313   26.7941 C   0  0  0  0  0  0  0  0  0  0  0  0
   30.9409   17.1768   26.3335 N   0  0  0  0  0  0  0  0  0  0  0  0
   29.9504   16.2213   26.2026 C   0  0  0  0  0  0  0  0  0  0  0  0
   28.8083   16.4337   25.8326 O   0  0  0  0  0  0  0  0  0  0  0  0
   33.2341   17.3260   27.0187 N   0  0  0  0  0  0  0  0  0  0  0  0
   33.0318   14.5280   27.4518 C   0  0  0  0  0  0  0  0  0  0  0  0
   34.2219   15.2103   27.6999 C   0  0  0  0  0  0  0  0  0  0  0  0
   34.2742   16.5872   27.4716 C   0  0  0  0  0  0  0  0  0  0  0  0
   20.9228    4.4838   30.4965 H   0  0  0  0  0  0  0  0  0  0  0  0
   22.9832    3.3464   31.3655 H   0  0  0  0  0  0  0  0  0  0  0  0
   22.3689    8.6420   29.0805 H   0  0  0  0  0  0  0  0  0  0  0  0
   21.4829    9.2172   31.2523 H   0  0  0  0  0  0  0  0  0  0  0  0
   25.1416    9.2578   30.1838 H   0  0  0  0  0  0  0  0  0  0  0  0
   24.8166    8.4655   28.6527 H   0  0  0  0  0  0  0  0  0  0  0  0
   23.5106   10.3881   27.8581 H   0  0  0  0  0  0  0  0  0  0  0  0
   22.8671   10.1207   33.1000 H   0  0  0  0  0  0  0  0  0  0  0  0
   23.3319    8.4615   32.7613 H   0  0  0  0  0  0  0  0  0  0  0  0
   24.3459    9.8093   32.2053 H   0  0  0  0  0  0  0  0  0  0  0  0
   21.9601   12.7985   31.4023 H   0  0  0  0  0  0  0  0  0  0  0  0
   21.2125   11.4220   32.1986 H   0  0  0  0  0  0  0  0  0  0  0  0
   25.4003   12.1753   28.5647 H   0  0  0  0  0  0  0  0  0  0  0  0
   27.5342   12.6742   28.6789 H   0  0  0  0  0  0  0  0  0  0  0  0
   27.2793   10.6805   24.8474 H   0  0  0  0  0  0  0  0  0  0  0  0
   30.3981   13.7724   28.5397 H   0  0  0  0  0  0  0  0  0  0  0  0
   29.1415   15.0198   28.3143 H   0  0  0  0  0  0  0  0  0  0  0  0
   31.3817   13.2253   25.3892 H   0  0  0  0  0  0  0  0  0  0  0  0
   30.3317   14.3493   24.4797 H   0  0  0  0  0  0  0  0  0  0  0  0
   30.8285   18.1566   26.1292 H   0  0  0  0  0  0  0  0  0  0  0  0
   32.9605   13.4578   27.6163 H   0  0  0  0  0  0  0  0  0  0  0  0
   35.0986   14.6842   28.0641 H   0  0  0  0  0  0  0  0  0  0  0  0
   35.1891   17.1451   27.6555 H   0  0  0  0  0  0  0  0  0  0  0  0
  1  2  2  0
  2  3  1  0
  3  4  2  0
  4  5  1  0
  5  6  2  0
  1  6  1  0
  1  7  1  0
  4  8  1  0
  5  9  1  0
 10  6  1  0
 11 12  1  0
 13 14  1  0
 14 15  1  0
 11 15  1  0
 12 10  1  0
 10 13  1  0
 12 16  1  0
 11 17  1  0
 17 18  1  0
 18 19  1  0
 18 20  1  0
 18 21  1  0
 15 22  2  0
 14 23  1  0
 23 24  1  0
 24 25  2  0
 24 26  1  0
 28 29  1  0
 29 30  2  0
 30 31  1  0
 27 31  2  0
 27 26  1  0
 26 28  2  0
 31 32  1  0
 30 33  1  0
 34 32  1  6
 34 33  1  0
 34 35  1  0
 35 36  2  0
 36 37  1  0
 37 38  1  0
 38 34  1  0
 38 39  2  0
 36 40  1  0
 35 41  1  0
 41 42  2  0
 40 43  2  0
 43 42  1  0
  2 44  1  0
  3 45  1  0
 10 46  1  1
 12 47  1  1
 13 48  1  0
 13 49  1  0
 14 50  1  1
 16 51  1  0
 16 52  1  0
 16 53  1  0
 17 54  1  0
 17 55  1  0
 23 56  1  0
 27 57  1  0
 28 58  1  0
 32 59  1  0
 32 60  1  0
 33 61  1  0
 33 62  1  0
 37 63  1  0
 41 64  1  0
 42 65  1  0
 43 66  1  0
M  END
> <Uni-Dock RESULT> 
ENERGY=   -4.049  LOWER_BOUND=    5.501  UPPER_BOUND=   10.899
INTER + INTRA:          -4.049
INTER:                  -4.049
INTRA:                   0.000
UNBOUND:                 0.000

$$$$

     RDKit          3D

 66 71  0  0  0  0  0  0  0  0999 V2000
   20.3463    6.9223   30.3524 C   0  0  0  0  0  0  0  0  0  0  0  0
   19.7910    5.6425   30.3186 C   0  0  0  0  0  0  0  0  0  0  0  0
   20.6251    4.5284   30.3367 C   0  0  0  0  0  0  0  0  0  0  0  0
   22.0009    4.7159   30.3966 C   0  0  0  0  0  0  0  0  0  0  0  0
   22.5476    5.9997   30.4293 C   0  0  0  0  0  0  0  0  0  0  0  0
   21.7320    7.1360   30.3965 C   0  0  0  0  0  0  0  0  0  0  0  0
   19.5160    7.9747   30.3520 F   0  0  0  0  0  0  0  0  0  0  0  0
   22.8054    3.6451   30.4356 F   0  0  0  0  0  0  0  0  0  0  0  0
   23.8783    6.1239   30.5271 F   0  0  0  0  0  0  0  0  0  0  0  0
   22.2555    8.5604   30.4276 C   0  0  1  0  0  0  0  0  0  0  0  0
   22.6786   10.5976   31.8150 N   0  0  0  0  0  0  0  0  0  0  0  0
   22.2312    9.1915   31.8429 C   0  0  2  0  0  0  0  0  0  0  0  0
   23.6351    8.7809   29.7910 C   0  0  0  0  0  0  0  0  0  0  0  0
   23.8806   10.2787   29.6381 C   0  0  1  0  0  0  0  0  0  0  0  0
   23.6543   11.0650   30.9459 C   0  0  0  0  0  0  0  0  0  0  0  0
   23.0656    8.4112   32.8719 C   0  0  0  0  0  0  0  0  0  0  0  0
   22.2273   11.4968   32.8994 C   0  0  0  0  0  0  0  0  0  0  0  0
   21.0779   12.4262   32.5026 C   0  0  0  0  0  0  0  0  0  0  0  0
   20.7376   13.2299   33.5363 F   0  0  0  0  0  0  0  0  0  0  0  0
   19.9773   11.7091   32.1727 F   0  0  0  0  0  0  0  0  0  0  0  0
   21.3857   13.2129   31.4517 F   0  0  0  0  0  0  0  0  0  0  0  0
   24.2544   12.1238   31.1507 O   0  0  0  0  0  0  0  0  0  0  0  0
   25.2307   10.5780   29.1658 N   0  0  0  0  0  0  0  0  0  0  0  0
   25.6067   10.3140   27.8665 C   0  0  0  0  0  0  0  0  0  0  0  0
   24.8902    9.7176   27.0707 O   0  0  0  0  0  0  0  0  0  0  0  0
   26.9385   10.8104   27.4430 C   0  0  0  0  0  0  0  0  0  0  0  0
   27.9615   11.1245   28.3452 C   0  0  0  0  0  0  0  0  0  0  0  0
   27.1978   10.9340   26.0744 C   0  0  0  0  0  0  0  0  0  0  0  0
   28.3773   11.3630   25.5509 N   0  0  0  0  0  0  0  0  0  0  0  0
   29.3200   11.6799   26.4513 C   0  0  0  0  0  0  0  0  0  0  0  0
   29.1657   11.5696   27.8262 C   0  0  0  0  0  0  0  0  0  0  0  0
   30.4186   11.9320   28.5549 C   0  0  0  0  0  0  0  0  0  0  0  0
   30.7012   12.1373   26.0774 C   0  0  0  0  0  0  0  0  0  0  0  0
   31.2714   12.5766   27.4397 C   0  0  2  0  0  0  0  0  0  0  0  0
   32.7482   12.3196   27.5826 C   0  0  0  0  0  0  0  0  0  0  0  0
   33.4197   13.5214   27.7500 C   0  0  0  0  0  0  0  0  0  0  0  0
   32.5205   14.5645   27.7360 N   0  0  0  0  0  0  0  0  0  0  0  0
   31.2226   14.1198   27.5654 C   0  0  0  0  0  0  0  0  0  0  0  0
   30.2312   14.8288   27.5343 O   0  0  0  0  0  0  0  0  0  0  0  0
   34.7359   13.6630   27.9068 N   0  0  0  0  0  0  0  0  0  0  0  0
   33.4730   11.1435   27.5684 C   0  0  0  0  0  0  0  0  0  0  0  0
   34.8546   11.2402   27.7270 C   0  0  0  0  0  0  0  0  0  0  0  0
   35.4316   12.5017   27.8899 C   0  0  0  0  0  0  0  0  0  0  0  0
   18.7112    5.5288   30.2792 H   0  0  0  0  0  0  0  0  0  0  0  0
   20.2171    3.5226   30.3111 H   0  0  0  0  0  0  0  0  0  0  0  0
   21.5572    9.1432   29.8061 H   0  0  0  0  0  0  0  0  0  0  0  0
   21.1901    9.2010   32.1924 H   0  0  0  0  0  0  0  0  0  0  0  0
   24.4369    8.3378   30.3918 H   0  0  0  0  0  0  0  0  0  0  0  0
   23.6755    8.2889   28.8121 H   0  0  0  0  0  0  0  0  0  0  0  0
   23.1786   10.6927   28.9025 H   0  0  0  0  0  0  0  0  0  0  0  0
   22.9918    8.8703   33.8631 H   0  0  0  0  0  0  0  0  0  0  0  0
   22.7181    7.3795   32.9763 H   0  0  0  0  0  0  0  0  0  0  0  0
   24.1281    8.3956   32.6109 H   0  0  0  0  0  0  0  0  0  0  0  0
   23.0736   12.1067   33.2344 H   0  0  0  0  0  0  0  0  0  0  0  0
   21.9181   10.8901   33.7566 H   0  0  0  0  0  0  0  0  0  0  0  0
   25.6845   11.3520   29.6443 H   0  0  0  0  0  0  0  0  0  0  0  0
   27.8397   11.0080   29.4161 H   0  0  0  0  0  0  0  0  0  0  0  0
   26.4389   10.6825   25.3355 H   0  0  0  0  0  0  0  0  0  0  0  0
   30.8757   11.0212   28.9576 H   0  0  0  0  0  0  0  0  0  0  0  0
   30.2085   12.6224   29.3783 H   0  0  0  0  0  0  0  0  0  0  0  0
   31.2485   11.2924   25.6440 H   0  0  0  0  0  0  0  0  0  0  0  0
   30.6539   12.9510   25.3454 H   0  0  0  0  0  0  0  0  0  0  0  0
   32.7906   15.5284   27.8462 H   0  0  0  0  0  0  0  0  0  0  0  0
   32.9954   10.1782   27.4365 H   0  0  0  0  0  0  0  0  0  0  0  0
   35.4780   10.3517   27.7236 H   0  0  0  0  0  0  0  0  0  0  0  0
   36.5065   12.6075   28.0148 H   0  0  0  0  0  0  0  0  0  0  0  0
  1  2  2  0
  2  3  1  0
  3  4  2  0
  4  5  1  0
  5  6  2  0
  1  6  1  0
  1  7  1  0
  4  8  1  0
  5  9  1  0
 10  6  1  0
 11 12  1  0
 13 14  1  0
 14 15  1  0
 11 15  1  0
 12 10  1  0
 10 13  1  0
 12 16  1  0
 11 17  1  0
 17 18  1  0
 18 19  1  0
 18 20  1  0
 18 21  1  0
 15 22  2  0
 14 23  1  0
 23 24  1  0
 24 25  2  0
 24 26  1  0
 28 29  1  0
 29 30  2  0
 30 31  1  0
 27 31  2  0
 27 26  1  0
 26 28  2  0
 31 32  1  0
 30 33  1  0
 34 32  1  6
 34 33  1  0
 34 35  1  0
 35 36  2  0
 36 37  1  0
 37 38  1  0
 38 34  1  0
 38 39  2  0
 36 40  1  0
 35 41  1  0
 41 42  2  0
 40 43  2  0
 43 42  1  0
  2 44  1  0
  3 45  1  0
 10 46  1  1
 12 47  1  1
 13 48  1  0
 13 49  1  0
 14 50  1  1
 16 51  1  0
 16 52  1  0
 16 53  1  0
 17 54  1  0
 17 55  1  0
 23 56  1  0
 27 57  1  0
 28 58  1  0
 32 59  1  0
 32 60  1  0
 33 61  1  0
 33 62  1  0
 37 63  1  0
 41 64  1  0
 42 65  1  0
 43 66  1  0
M  END
> <Uni-Dock RESULT> 
ENERGY=   -3.882  LOWER_BOUND=    5.844  UPPER_BOUND=   11.087
INTER + INTRA:          -3.882
INTER:                  -3.882
INTRA:                   0.000
UNBOUND:                 0.000

$$$$

     RDKit          3D

 66 71  0  0  0  0  0  0  0  0999 V2000
   31.6103    7.8365   30.5444 C   0  0  0  0  0  0  0  0  0  0  0  0
   31.3358    6.6832   31.2805 C   0  0  0  0  0  0  0  0  0  0  0  0
   30.6525    5.6290   30.6810 C   0  0  0  0  0  0  0  0  0  0  0  0
   30.2633    5.7456   29.3520 C   0  0  0  0  0  0  0  0  0  0  0  0
   30.5413    6.9033   28.6236 C   0  0  0  0  0  0  0  0  0  0  0  0
   31.2129    7.9831   29.2071 C   0  0  0  0  0  0  0  0  0  0  0  0
   32.2857    8.8268   31.1445 F   0  0  0  0  0  0  0  0  0  0  0  0
   29.6242    4.7240   28.7660 F   0  0  0  0  0  0  0  0  0  0  0  0
   30.1791    6.9479   27.3342 F   0  0  0  0  0  0  0  0  0  0  0  0
   31.5476    9.2715   28.4778 C   0  0  1  0  0  0  0  0  0  0  0  0
   33.3020   10.6027   27.2929 N   0  0  0  0  0  0  0  0  0  0  0  0
   32.9965    9.3065   27.9289 C   0  0  2  0  0  0  0  0  0  0  0  0
   30.5690    9.6878   27.3704 C   0  0  0  0  0  0  0  0  0  0  0  0
   30.8735   11.1218   26.9484 C   0  0  1  0  0  0  0  0  0  0  0  0
   32.3589   11.3463   26.5976 C   0  0  0  0  0  0  0  0  0  0  0  0
   33.3005    8.1691   26.9401 C   0  0  0  0  0  0  0  0  0  0  0  0
   34.7176   11.0231   27.2066 C   0  0  0  0  0  0  0  0  0  0  0  0
   35.1261   12.0610   28.2546 C   0  0  0  0  0  0  0  0  0  0  0  0
   36.4237   12.4103   28.0975 F   0  0  0  0  0  0  0  0  0  0  0  0
   34.9954   11.5540   29.5037 F   0  0  0  0  0  0  0  0  0  0  0  0
   34.3848   13.1854   28.1880 F   0  0  0  0  0  0  0  0  0  0  0  0
   32.6863   12.2287   25.7992 O   0  0  0  0  0  0  0  0  0  0  0  0
   30.0749   11.5480   25.8013 N   0  0  0  0  0  0  0  0  0  0  0  0
   28.7254   11.7981   25.9250 C   0  0  0  0  0  0  0  0  0  0  0  0
   28.0947   11.5734   26.9517 O   0  0  0  0  0  0  0  0  0  0  0  0
   28.0448   12.3875   24.7465 C   0  0  0  0  0  0  0  0  0  0  0  0
   28.5550   12.3035   23.4457 C   0  0  0  0  0  0  0  0  0  0  0  0
   26.8149   13.0245   24.9384 C   0  0  0  0  0  0  0  0  0  0  0  0
   26.0806   13.5941   23.9455 N   0  0  0  0  0  0  0  0  0  0  0  0
   26.6198   13.5153   22.7196 C   0  0  0  0  0  0  0  0  0  0  0  0
   27.8212   12.8855   22.4257 C   0  0  0  0  0  0  0  0  0  0  0  0
   28.1143   12.9076   20.9610 C   0  0  0  0  0  0  0  0  0  0  0  0
   25.9501   14.0483   21.4850 C   0  0  0  0  0  0  0  0  0  0  0  0
   27.0670   13.9126   20.4324 C   0  0  2  0  0  0  0  0  0  0  0  0
   26.5558   13.5850   19.0545 C   0  0  0  0  0  0  0  0  0  0  0  0
   26.8750   14.6119   18.1789 C   0  0  0  0  0  0  0  0  0  0  0  0
   27.5607   15.6006   18.8491 N   0  0  0  0  0  0  0  0  0  0  0  0
   27.7356   15.2878   20.1843 C   0  0  0  0  0  0  0  0  0  0  0  0
   28.3232   15.9773   21.0004 O   0  0  0  0  0  0  0  0  0  0  0  0
   26.5749   14.6501   16.8806 N   0  0  0  0  0  0  0  0  0  0  0  0
   25.8632   12.4889   18.5775 C   0  0  0  0  0  0  0  0  0  0  0  0
   25.5248   12.4834   17.2251 C   0  0  0  0  0  0  0  0  0  0  0  0
   25.8960   13.5694   16.4291 C   0  0  0  0  0  0  0  0  0  0  0  0
   31.6596    6.6196   32.3157 H   0  0  0  0  0  0  0  0  0  0  0  0
   30.4272    4.7216   31.2328 H   0  0  0  0  0  0  0  0  0  0  0  0
   31.4747   10.0660   29.2375 H   0  0  0  0  0  0  0  0  0  0  0  0
   33.6841    9.2051   28.7792 H   0  0  0  0  0  0  0  0  0  0  0  0
   30.6351    9.0278   26.4986 H   0  0  0  0  0  0  0  0  0  0  0  0
   29.5386    9.6120   27.7372 H   0  0  0  0  0  0  0  0  0  0  0  0
   30.6445   11.8049   27.7769 H   0  0  0  0  0  0  0  0  0  0  0  0
   34.3422    8.2108   26.6056 H   0  0  0  0  0  0  0  0  0  0  0  0
   33.1557    7.1861   27.3968 H   0  0  0  0  0  0  0  0  0  0  0  0
   32.6791    8.2301   26.0415 H   0  0  0  0  0  0  0  0  0  0  0  0
   34.9086   11.4354   26.2097 H   0  0  0  0  0  0  0  0  0  0  0  0
   35.3560   10.1398   27.3092 H   0  0  0  0  0  0  0  0  0  0  0  0
   30.5917   12.0655   25.0948 H   0  0  0  0  0  0  0  0  0  0  0  0
   29.4806   11.7848   23.2234 H   0  0  0  0  0  0  0  0  0  0  0  0
   26.3700   13.0967   25.9294 H   0  0  0  0  0  0  0  0  0  0  0  0
   27.9725   11.9013   20.5515 H   0  0  0  0  0  0  0  0  0  0  0  0
   29.1431   13.2306   20.7710 H   0  0  0  0  0  0  0  0  0  0  0  0
   25.0785   13.4240   21.2577 H   0  0  0  0  0  0  0  0  0  0  0  0
   25.6235   15.0827   21.6386 H   0  0  0  0  0  0  0  0  0  0  0  0
   27.8950   16.4401   18.4042 H   0  0  0  0  0  0  0  0  0  0  0  0
   25.5863   11.6614   19.2225 H   0  0  0  0  0  0  0  0  0  0  0  0
   24.9799   11.6507   16.7918 H   0  0  0  0  0  0  0  0  0  0  0  0
   25.6448   13.5928   15.3715 H   0  0  0  0  0  0  0  0  0  0  0  0
  1  2  2  0
  2  3  1  0
  3  4  2  0
  4  5  1  0
  5  6  2  0
  1  6  1  0
  1  7  1  0
  4  8  1  0
  5  9  1  0
 10  6  1  0
 11 12  1  0
 13 14  1  0
 14 15  1  0
 11 15  1  0
 12 10  1  0
 10 13  1  0
 12 16  1  0
 11 17  1  0
 17 18  1  0
 18 19  1  0
 18 20  1  0
 18 21  1  0
 15 22  2  0
 14 23  1  0
 23 24  1  0
 24 25  2  0
 24 26  1  0
 28 29  1  0
 29 30  2  0
 30 31  1  0
 27 31  2  0
 27 26  1  0
 26 28  2  0
 31 32  1  0
 30 33  1  0
 34 32  1  6
 34 33  1  0
 34 35  1  0
 35 36  2  0
 36 37  1  0
 37 38  1  0
 38 34  1  0
 38 39  2  0
 36 40  1  0
 35 41  1  0
 41 42  2  0
 40 43  2  0
 43 42  1  0
  2 44  1  0
  3 45  1  0
 10 46  1  1
 12 47  1  1
 13 48  1  0
 13 49  1  0
 14 50  1  1
 16 51  1  0
 16 52  1  0
 16 53  1  0
 17 54  1  0
 17 55  1  0
 23 56  1  0
 27 57  1  0
 28 58  1  0
 32 59  1  0
 32 60  1  0
 33 61  1  0
 33 62  1  0
 37 63  1  0
 41 64  1  0
 42 65  1  0
 43 66  1  0
M  END
> <Uni-Dock RESULT> 
ENERGY=   -3.795  LOWER_BOUND=    5.948  UPPER_BOUND=   10.561
INTER + INTRA:          -3.795
INTER:                  -3.795
INTRA:                   0.000
UNBOUND:                 0.000

$$$$

     RDKit          3D

 66 71  0  0  0  0  0  0  0  0999 V2000
   29.8662   12.3439   18.1344 C   0  0  0  0  0  0  0  0  0  0  0  0
   30.0995   11.9025   16.8313 C   0  0  0  0  0  0  0  0  0  0  0  0
   30.6973   10.6634   16.6198 C   0  0  0  0  0  0  0  0  0  0  0  0
   31.0435    9.8846   17.7175 C   0  0  0  0  0  0  0  0  0  0  0  0
   30.8072   10.3345   19.0174 C   0  0  0  0  0  0  0  0  0  0  0  0
   30.2220   11.5825   19.2575 C   0  0  0  0  0  0  0  0  0  0  0  0
   29.2726   13.5337   18.3049 F   0  0  0  0  0  0  0  0  0  0  0  0
   31.5996    8.6822   17.5165 F   0  0  0  0  0  0  0  0  0  0  0  0
   31.1237    9.5272   20.0391 F   0  0  0  0  0  0  0  0  0  0  0  0
   29.9369   12.1364   20.6416 C   0  0  1  0  0  0  0  0  0  0  0  0
   28.2212   12.5322   22.4175 N   0  0  0  0  0  0  0  0  0  0  0  0
   28.4733   11.9151   21.1008 C   0  0  2  0  0  0  0  0  0  0  0  0
   30.8968   11.6885   21.7530 C   0  0  0  0  0  0  0  0  0  0  0  0
   30.6616   12.5473   22.9917 C   0  0  1  0  0  0  0  0  0  0  0  0
   29.1801   12.6001   23.4184 C   0  0  0  0  0  0  0  0  0  0  0  0
   28.0669   10.4330   21.1460 C   0  0  0  0  0  0  0  0  0  0  0  0
   26.8304   12.8988   22.7633 C   0  0  0  0  0  0  0  0  0  0  0  0
   26.5223   14.3906   22.6156 C   0  0  0  0  0  0  0  0  0  0  0  0
   25.2426   14.6494   22.9700 F   0  0  0  0  0  0  0  0  0  0  0  0
   26.6689   14.7822   21.3273 F   0  0  0  0  0  0  0  0  0  0  0  0
   27.3254   15.1640   23.3738 F   0  0  0  0  0  0  0  0  0  0  0  0
   28.8758   12.7968   24.5982 O   0  0  0  0  0  0  0  0  0  0  0  0
   31.4410   12.0942   24.1417 N   0  0  0  0  0  0  0  0  0  0  0  0
   32.8066   12.2727   24.1929 C   0  0  0  0  0  0  0  0  0  0  0  0
   33.4603   12.7066   23.2512 O   0  0  0  0  0  0  0  0  0  0  0  0
   33.4767   11.9336   25.4717 C   0  0  0  0  0  0  0  0  0  0  0  0
   32.9150   11.0799   26.4282 C   0  0  0  0  0  0  0  0  0  0  0  0
   34.7481   12.4617   25.7167 C   0  0  0  0  0  0  0  0  0  0  0  0
   35.4775   12.2212   26.8391 N   0  0  0  0  0  0  0  0  0  0  0  0
   34.8899   11.4209   27.7413 C   0  0  0  0  0  0  0  0  0  0  0  0
   33.6436   10.8319   27.5794 C   0  0  0  0  0  0  0  0  0  0  0  0
   33.2986    9.9411   28.7281 C   0  0  0  0  0  0  0  0  0  0  0  0
   35.5438   11.0037   29.0278 C   0  0  0  0  0  0  0  0  0  0  0  0
   34.3829   10.3089   29.7650 C   0  0  2  0  0  0  0  0  0  0  0  0
   34.8229    9.1484   30.6176 C   0  0  0  0  0  0  0  0  0  0  0  0
   34.5325    9.4071   31.9487 C   0  0  0  0  0  0  0  0  0  0  0  0
   33.9311   10.6407   32.0641 N   0  0  0  0  0  0  0  0  0  0  0  0
   33.7874   11.2575   30.8352 C   0  0  0  0  0  0  0  0  0  0  0  0
   33.2717   12.3462   30.6471 O   0  0  0  0  0  0  0  0  0  0  0  0
   34.7864    8.5935   32.9737 N   0  0  0  0  0  0  0  0  0  0  0  0
   35.4321    7.9539   30.2847 C   0  0  0  0  0  0  0  0  0  0  0  0
   35.7195    7.0697   31.3235 C   0  0  0  0  0  0  0  0  0  0  0  0
   35.3837    7.4279   32.6310 C   0  0  0  0  0  0  0  0  0  0  0  0
   29.8109   12.5315   15.9938 H   0  0  0  0  0  0  0  0  0  0  0  0
   30.8891   10.2982   15.6156 H   0  0  0  0  0  0  0  0  0  0  0  0
   30.0842   13.2250   20.5579 H   0  0  0  0  0  0  0  0  0  0  0  0
   27.8127   12.4229   20.3854 H   0  0  0  0  0  0  0  0  0  0  0  0
   30.7601   10.6321   22.0086 H   0  0  0  0  0  0  0  0  0  0  0  0
   31.9337   11.7917   21.4123 H   0  0  0  0  0  0  0  0  0  0  0  0
   30.9606   13.5828   22.7828 H   0  0  0  0  0  0  0  0  0  0  0  0
   27.0179   10.3248   21.4401 H   0  0  0  0  0  0  0  0  0  0  0  0
   28.1705    9.9548   20.1680 H   0  0  0  0  0  0  0  0  0  0  0  0
   28.6573    9.8681   21.8737 H   0  0  0  0  0  0  0  0  0  0  0  0
   26.6273   12.5980   23.7971 H   0  0  0  0  0  0  0  0  0  0  0  0
   26.1455   12.3268   22.1292 H   0  0  0  0  0  0  0  0  0  0  0  0
   30.9298   12.0809   25.0206 H   0  0  0  0  0  0  0  0  0  0  0  0
   31.9529   10.6028   26.2791 H   0  0  0  0  0  0  0  0  0  0  0  0
   35.2326   13.1146   24.9927 H   0  0  0  0  0  0  0  0  0  0  0  0
   33.3660    8.8964   28.4048 H   0  0  0  0  0  0  0  0  0  0  0  0
   32.2842   10.1404   29.0889 H   0  0  0  0  0  0  0  0  0  0  0  0
   36.3683   10.3186   28.7996 H   0  0  0  0  0  0  0  0  0  0  0  0
   35.9359   11.8757   29.5625 H   0  0  0  0  0  0  0  0  0  0  0  0
   33.6305   11.0288   32.9435 H   0  0  0  0  0  0  0  0  0  0  0  0
   35.6836    7.7058   29.2587 H   0  0  0  0  0  0  0  0  0  0  0  0
   36.1983    6.1161   31.1252 H   0  0  0  0  0  0  0  0  0  0  0  0
   35.5967    6.7587   33.4610 H   0  0  0  0  0  0  0  0  0  0  0  0
  1  2  2  0
  2  3  1  0
  3  4  2  0
  4  5  1  0
  5  6  2  0
  1  6  1  0
  1  7  1  0
  4  8  1  0
  5  9  1  0
 10  6  1  0
 11 12  1  0
 13 14  1  0
 14 15  1  0
 11 15  1  0
 12 10  1  0
 10 13  1  0
 12 16  1  0
 11 17  1  0
 17 18  1  0
 18 19  1  0
 18 20  1  0
 18 21  1  0
 15 22  2  0
 14 23  1  0
 23 24  1  0
 24 25  2  0
 24 26  1  0
 28 29  1  0
 29 30  2  0
 30 31  1  0
 27 31  2  0
 27 26  1  0
 26 28  2  0
 31 32  1  0
 30 33  1  0
 34 32  1  6
 34 33  1  0
 34 35  1  0
 35 36  2  0
 36 37  1  0
 37 38  1  0
 38 34  1  0
 38 39  2  0
 36 40  1  0
 35 41  1  0
 41 42  2  0
 40 43  2  0
 43 42  1  0
  2 44  1  0
  3 45  1  0
 10 46  1  1
 12 47  1  1
 13 48  1  0
 13 49  1  0
 14 50  1  1
 16 51  1  0
 16 52  1  0
 16 53  1  0
 17 54  1  0
 17 55  1  0
 23 56  1  0
 27 57  1  0
 28 58  1  0
 32 59  1  0
 32 60  1  0
 33 61  1  0
 33 62  1  0
 37 63  1  0
 41 64  1  0
 42 65  1  0
 43 66  1  0
M  END
> <Uni-Dock RESULT> 
ENERGY=   -3.720  LOWER_BOUND=    6.113  UPPER_BOUND=    7.187
INTER + INTRA:          -3.720
INTER:                  -3.720
INTRA:                   0.000
UNBOUND:                 0.000

$$$$
