
     RDKit          3D

 66 71  0  0  0  0  0  0  0  0999 V2000
   29.0960   10.4962   21.0153 C   0  0  0  0  0  0  0  0  0  0  0  0
   29.8455    9.8893   20.0037 C   0  0  0  0  0  0  0  0  0  0  0  0
   30.8819   10.5882   19.3893 C   0  0  0  0  0  0  0  0  0  0  0  0
   31.1488   11.8904   19.7916 C   0  0  0  0  0  0  0  0  0  0  0  0
   30.3964   12.4882   20.8012 C   0  0  0  0  0  0  0  0  0  0  0  0
   29.3574   11.8018   21.4469 C   0  0  0  0  0  0  0  0  0  0  0  0
   28.0869    9.7941   21.5461 F   0  0  0  0  0  0  0  0  0  0  0  0
   32.1342   12.5736   19.1941 F   0  0  0  0  0  0  0  0  0  0  0  0
   30.6683   13.7541   21.1542 F   0  0  0  0  0  0  0  0  0  0  0  0
   28.5777   12.5097   22.5404 C   0  0  1  0  0  0  0  0  0  0  0  0
   26.8017   14.1890   23.0835 N   0  0  0  0  0  0  0  0  0  0  0  0
   27.4910   13.4718   21.9929 C   0  0  2  0  0  0  0  0  0  0  0  0
   27.9660   11.6064   23.6214 C   0  0  0  0  0  0  0  0  0  0  0  0
   27.4804   12.4727   24.7785 C   0  0  1  0  0  0  0  0  0  0  0  0
   26.5617   13.6261   24.3283 C   0  0  0  0  0  0  0  0  0  0  0  0
   26.4501   12.7682   21.1065 C   0  0  0  0  0  0  0  0  0  0  0  0
   26.1569   15.4832   22.7720 C   0  0  0  0  0  0  0  0  0  0  0  0
   26.9751   16.7057   23.1936 C   0  0  0  0  0  0  0  0  0  0  0  0
   27.2641   16.7051   24.5116 F   0  0  0  0  0  0  0  0  0  0  0  0
   26.3031   17.8472   22.9173 F   0  0  0  0  0  0  0  0  0  0  0  0
   28.1460   16.7536   22.5143 F   0  0  0  0  0  0  0  0  0  0  0  0
   25.7137   14.0845   25.0985 O   0  0  0  0  0  0  0  0  0  0  0  0
   26.7607   11.7005   25.7898 N   0  0  0  0  0  0  0  0  0  0  0  0
   27.4332   10.8671   26.6571 C   0  0  0  0  0  0  0  0  0  0  0  0
   28.6319   10.6289   26.5649 O   0  0  0  0  0  0  0  0  0  0  0  0
   26.6458   10.2848   27.7693 C   0  0  0  0  0  0  0  0  0  0  0  0
   27.2993    9.9010   28.9450 C   0  0  0  0  0  0  0  0  0  0  0  0
   25.2668   10.0773   27.6763 C   0  0  0  0  0  0  0  0  0  0  0  0
   24.5002    9.5490   28.6670 N   0  0  0  0  0  0  0  0  0  0  0  0
   25.1655    9.2083   29.7821 C   0  0  0  0  0  0  0  0  0  0  0  0
   26.5335    9.3662   29.9647 C   0  0  0  0  0  0  0  0  0  0  0  0
   26.9669    8.8746   31.3081 C   0  0  0  0  0  0  0  0  0  0  0  0
   24.5181    8.5813   30.9866 C   0  0  0  0  0  0  0  0  0  0  0  0
   25.6162    8.7664   32.0518 C   0  0  2  0  0  0  0  0  0  0  0  0
   25.3553    9.9257   32.9843 C   0  0  0  0  0  0  0  0  0  0  0  0
   25.2554    9.4551   34.2857 C   0  0  0  0  0  0  0  0  0  0  0  0
   25.4206    8.0862   34.3023 N   0  0  0  0  0  0  0  0  0  0  0  0
   25.6336    7.5802   33.0334 C   0  0  0  0  0  0  0  0  0  0  0  0
   25.8083    6.4051   32.7573 O   0  0  0  0  0  0  0  0  0  0  0  0
   25.0306   10.2001   35.3681 N   0  0  0  0  0  0  0  0  0  0  0  0
   25.2101   11.2792   32.7471 C   0  0  0  0  0  0  0  0  0  0  0  0
   24.9719   12.0998   33.8486 C   0  0  0  0  0  0  0  0  0  0  0  0
   24.8925   11.5241   35.1187 C   0  0  0  0  0  0  0  0  0  0  0  0
   29.6084    8.8728   19.7010 H   0  0  0  0  0  0  0  0  0  0  0  0
   31.4738   10.1326   18.6017 H   0  0  0  0  0  0  0  0  0  0  0  0
   29.3173   13.1307   23.0708 H   0  0  0  0  0  0  0  0  0  0  0  0
   27.9902   14.2366   21.3835 H   0  0  0  0  0  0  0  0  0  0  0  0
   27.1308   11.0139   23.2318 H   0  0  0  0  0  0  0  0  0  0  0  0
   28.7148   10.8884   23.9768 H   0  0  0  0  0  0  0  0  0  0  0  0
   28.3414   12.9401   25.2748 H   0  0  0  0  0  0  0  0  0  0  0  0
   25.8793   12.0177   21.6620 H   0  0  0  0  0  0  0  0  0  0  0  0
   25.7241   13.4862   20.7103 H   0  0  0  0  0  0  0  0  0  0  0  0
   26.9157   12.2820   20.2445 H   0  0  0  0  0  0  0  0  0  0  0  0
   25.1823   15.5258   23.2709 H   0  0  0  0  0  0  0  0  0  0  0  0
   25.9620   15.5338   21.6956 H   0  0  0  0  0  0  0  0  0  0  0  0
   25.8945   12.1285   26.1072 H   0  0  0  0  0  0  0  0  0  0  0  0
   28.3734   10.0234   29.0515 H   0  0  0  0  0  0  0  0  0  0  0  0
   24.7139   10.3157   26.7719 H   0  0  0  0  0  0  0  0  0  0  0  0
   27.4607    7.9026   31.1970 H   0  0  0  0  0  0  0  0  0  0  0  0
   27.6586    9.5775   31.7847 H   0  0  0  0  0  0  0  0  0  0  0  0
   24.3136    7.5265   30.7731 H   0  0  0  0  0  0  0  0  0  0  0  0
   23.5800    9.0878   31.2363 H   0  0  0  0  0  0  0  0  0  0  0  0
   25.3804    7.5364   35.1453 H   0  0  0  0  0  0  0  0  0  0  0  0
   25.2732   11.6976   31.7476 H   0  0  0  0  0  0  0  0  0  0  0  0
   24.8481   13.1714   33.7260 H   0  0  0  0  0  0  0  0  0  0  0  0
   24.7080   12.1409   35.9949 H   0  0  0  0  0  0  0  0  0  0  0  0
  1  2  2  0
  2  3  1  0
  3  4  2  0
  4  5  1  0
  5  6  2  0
  1  6  1  0
  1  7  1  0
  4  8  1  0
  5  9  1  0
 10  6  1  0
 11 12  1  0
 13 14  1  0
 14 15  1  0
 11 15  1  0
 12 10  1  0
 10 13  1  0
 12 16  1  0
 11 17  1  0
 17 18  1  0
 18 19  1  0
 18 20  1  0
 18 21  1  0
 15 22  2  0
 14 23  1  0
 23 24  1  0
 24 25  2  0
 24 26  1  0
 28 29  1  0
 29 30  2  0
 30 31  1  0
 27 31  2  0
 27 26  1  0
 26 28  2  0
 31 32  1  0
 30 33  1  0
 34 32  1  1
 34 33  1  0
 34 35  1  0
 35 36  2  0
 36 37  1  0
 37 38  1  0
 38 34  1  0
 38 39  2  0
 36 40  1  0
 35 41  1  0
 41 42  2  0
 40 43  2  0
 43 42  1  0
  2 44  1  0
  3 45  1  0
 10 46  1  1
 12 47  1  1
 13 48  1  0
 13 49  1  0
 14 50  1  1
 16 51  1  0
 16 52  1  0
 16 53  1  0
 17 54  1  0
 17 55  1  0
 23 56  1  0
 27 57  1  0
 28 58  1  0
 32 59  1  0
 32 60  1  0
 33 61  1  0
 33 62  1  0
 37 63  1  0
 41 64  1  0
 42 65  1  0
 43 66  1  0
M  END
> <Uni-Dock RESULT> 
ENERGY=   -4.655  LOWER_BOUND=    0.000  UPPER_BOUND=    0.000
INTER + INTRA:          -4.655
INTER:                  -4.655
INTRA:                   0.000
UNBOUND:                 0.000

$$$$

     RDKit          3D

 66 71  0  0  0  0  0  0  0  0999 V2000
   29.0908   10.5013   21.0256 C   0  0  0  0  0  0  0  0  0  0  0  0
   29.8401    9.8952   20.0134 C   0  0  0  0  0  0  0  0  0  0  0  0
   30.8778   10.5939   19.4008 C   0  0  0  0  0  0  0  0  0  0  0  0
   31.1462   11.8950   19.8055 C   0  0  0  0  0  0  0  0  0  0  0  0
   30.3940   12.4920   20.8157 C   0  0  0  0  0  0  0  0  0  0  0  0
   29.3537   11.8059   21.4597 C   0  0  0  0  0  0  0  0  0  0  0  0
   28.0805    9.7996   21.5546 F   0  0  0  0  0  0  0  0  0  0  0  0
   32.1328   12.5779   19.2098 F   0  0  0  0  0  0  0  0  0  0  0  0
   30.6673   13.7569   21.1711 F   0  0  0  0  0  0  0  0  0  0  0  0
   28.5743   12.5128   22.5540 C   0  0  1  0  0  0  0  0  0  0  0  0
   26.8002   14.1935   23.0990 N   0  0  0  0  0  0  0  0  0  0  0  0
   27.4892   13.4773   22.0075 C   0  0  2  0  0  0  0  0  0  0  0  0
   27.9609   11.6084   23.6330 C   0  0  0  0  0  0  0  0  0  0  0  0
   27.4757   12.4734   24.7914 C   0  0  1  0  0  0  0  0  0  0  0  0
   26.5588   13.6287   24.3427 C   0  0  0  0  0  0  0  0  0  0  0  0
   26.4479   12.7767   21.1194 C   0  0  0  0  0  0  0  0  0  0  0  0
   26.1573   15.4891   22.7894 C   0  0  0  0  0  0  0  0  0  0  0  0
   26.9769   16.7097   23.2136 C   0  0  0  0  0  0  0  0  0  0  0  0
   27.2652   16.7065   24.5317 F   0  0  0  0  0  0  0  0  0  0  0  0
   26.3066   17.8526   22.9389 F   0  0  0  0  0  0  0  0  0  0  0  0
   28.1482   16.7573   22.5350 F   0  0  0  0  0  0  0  0  0  0  0  0
   25.7110   14.0869   25.1132 O   0  0  0  0  0  0  0  0  0  0  0  0
   26.7544   11.7003   25.8009 N   0  0  0  0  0  0  0  0  0  0  0  0
   27.4253   10.8645   26.6671 C   0  0  0  0  0  0  0  0  0  0  0  0
   28.6238   10.6249   26.5752 O   0  0  0  0  0  0  0  0  0  0  0  0
   26.6365   10.2813   27.7778 C   0  0  0  0  0  0  0  0  0  0  0  0
   27.2888    9.8946   28.9533 C   0  0  0  0  0  0  0  0  0  0  0  0
   25.2573   10.0758   27.6837 C   0  0  0  0  0  0  0  0  0  0  0  0
   24.4895    9.5467   28.6731 N   0  0  0  0  0  0  0  0  0  0  0  0
   25.1536    9.2032   29.7879 C   0  0  0  0  0  0  0  0  0  0  0  0
   26.5218    9.3590   29.9716 C   0  0  0  0  0  0  0  0  0  0  0  0
   26.9538    8.8644   31.3144 C   0  0  0  0  0  0  0  0  0  0  0  0
   24.5048    8.5750   30.9910 C   0  0  0  0  0  0  0  0  0  0  0  0
   25.6025    8.7567   32.0571 C   0  0  2  0  0  0  0  0  0  0  0  0
   25.3426    9.9147   32.9915 C   0  0  0  0  0  0  0  0  0  0  0  0
   25.2414    9.4420   34.2921 C   0  0  0  0  0  0  0  0  0  0  0  0
   25.4048    8.0729   34.3063 N   0  0  0  0  0  0  0  0  0  0  0  0
   25.6178    7.5688   33.0367 C   0  0  0  0  0  0  0  0  0  0  0  0
   25.7912    6.3940   32.7586 O   0  0  0  0  0  0  0  0  0  0  0  0
   25.0169   10.1854   35.3756 N   0  0  0  0  0  0  0  0  0  0  0  0
   25.1993   11.2688   32.7566 C   0  0  0  0  0  0  0  0  0  0  0  0
   24.9615   12.0879   33.8594 C   0  0  0  0  0  0  0  0  0  0  0  0
   24.8807   11.5100   35.1285 C   0  0  0  0  0  0  0  0  0  0  0  0
   29.6019    8.8796   19.7087 H   0  0  0  0  0  0  0  0  0  0  0  0
   31.4696   10.1389   18.6128 H   0  0  0  0  0  0  0  0  0  0  0  0
   29.3145   13.1319   23.0859 H   0  0  0  0  0  0  0  0  0  0  0  0
   27.9897   14.2425   21.3998 H   0  0  0  0  0  0  0  0  0  0  0  0
   27.1251   11.0177   23.2419 H   0  0  0  0  0  0  0  0  0  0  0  0
   28.7085   10.8888   23.9876 H   0  0  0  0  0  0  0  0  0  0  0  0
   28.3371   12.9387   25.2890 H   0  0  0  0  0  0  0  0  0  0  0  0
   25.8758   12.0259   21.6731 H   0  0  0  0  0  0  0  0  0  0  0  0
   25.7230   13.4963   20.7240 H   0  0  0  0  0  0  0  0  0  0  0  0
   26.9133   12.2913   20.2567 H   0  0  0  0  0  0  0  0  0  0  0  0
   25.1825   15.5321   23.2879 H   0  0  0  0  0  0  0  0  0  0  0  0
   25.9631   15.5418   21.7130 H   0  0  0  0  0  0  0  0  0  0  0  0
   25.8886   12.1289   26.1186 H   0  0  0  0  0  0  0  0  0  0  0  0
   28.3631   10.0154   29.0606 H   0  0  0  0  0  0  0  0  0  0  0  0
   24.7052   10.3165   26.7794 H   0  0  0  0  0  0  0  0  0  0  0  0
   27.4464    7.8921   31.2019 H   0  0  0  0  0  0  0  0  0  0  0  0
   27.6461    9.5656   31.7926 H   0  0  0  0  0  0  0  0  0  0  0  0
   24.2991    7.5208   30.7755 H   0  0  0  0  0  0  0  0  0  0  0  0
   23.5672    9.0823   31.2410 H   0  0  0  0  0  0  0  0  0  0  0  0
   25.3634    7.5217   35.1484 H   0  0  0  0  0  0  0  0  0  0  0  0
   25.2635   11.6889   31.7579 H   0  0  0  0  0  0  0  0  0  0  0  0
   24.8392   13.1598   33.7387 H   0  0  0  0  0  0  0  0  0  0  0  0
   24.6965   12.1255   36.0057 H   0  0  0  0  0  0  0  0  0  0  0  0
  1  2  2  0
  2  3  1  0
  3  4  2  0
  4  5  1  0
  5  6  2  0
  1  6  1  0
  1  7  1  0
  4  8  1  0
  5  9  1  0
 10  6  1  0
 11 12  1  0
 13 14  1  0
 14 15  1  0
 11 15  1  0
 12 10  1  0
 10 13  1  0
 12 16  1  0
 11 17  1  0
 17 18  1  0
 18 19  1  0
 18 20  1  0
 18 21  1  0
 15 22  2  0
 14 23  1  0
 23 24  1  0
 24 25  2  0
 24 26  1  0
 28 29  1  0
 29 30  2  0
 30 31  1  0
 27 31  2  0
 27 26  1  0
 26 28  2  0
 31 32  1  0
 30 33  1  0
 34 32  1  1
 34 33  1  0
 34 35  1  0
 35 36  2  0
 36 37  1  0
 37 38  1  0
 38 34  1  0
 38 39  2  0
 36 40  1  0
 35 41  1  0
 41 42  2  0
 40 43  2  0
 43 42  1  0
  2 44  1  0
  3 45  1  0
 10 46  1  1
 12 47  1  1
 13 48  1  0
 13 49  1  0
 14 50  1  1
 16 51  1  0
 16 52  1  0
 16 53  1  0
 17 54  1  0
 17 55  1  0
 23 56  1  0
 27 57  1  0
 28 58  1  0
 32 59  1  0
 32 60  1  0
 33 61  1  0
 33 62  1  0
 37 63  1  0
 41 64  1  0
 42 65  1  0
 43 66  1  0
M  END
> <Uni-Dock RESULT> 
ENERGY=   -4.651  LOWER_BOUND=    0.017  UPPER_BOUND=    0.017
INTER + INTRA:          -4.651
INTER:                  -4.651
INTRA:                   0.000
UNBOUND:                 0.000

$$$$

     RDKit          3D

 66 71  0  0  0  0  0  0  0  0999 V2000
   29.0896   10.5009   21.0266 C   0  0  0  0  0  0  0  0  0  0  0  0
   29.8387    9.8947   20.0143 C   0  0  0  0  0  0  0  0  0  0  0  0
   30.8765   10.5930   19.4017 C   0  0  0  0  0  0  0  0  0  0  0  0
   31.1453   11.8940   19.8065 C   0  0  0  0  0  0  0  0  0  0  0  0
   30.3933   12.4911   20.8168 C   0  0  0  0  0  0  0  0  0  0  0  0
   29.3529   11.8053   21.4607 C   0  0  0  0  0  0  0  0  0  0  0  0
   28.0790    9.7994   21.5555 F   0  0  0  0  0  0  0  0  0  0  0  0
   32.1320   12.5767   19.2108 F   0  0  0  0  0  0  0  0  0  0  0  0
   30.6671   13.7559   21.1723 F   0  0  0  0  0  0  0  0  0  0  0  0
   28.5737   12.5124   22.5551 C   0  0  1  0  0  0  0  0  0  0  0  0
   26.8002   14.1935   23.1004 N   0  0  0  0  0  0  0  0  0  0  0  0
   27.4889   13.4772   22.0088 C   0  0  2  0  0  0  0  0  0  0  0  0
   27.9601   11.6081   23.6341 C   0  0  0  0  0  0  0  0  0  0  0  0
   27.4752   12.4730   24.7926 C   0  0  1  0  0  0  0  0  0  0  0  0
   26.5586   13.6287   24.3440 C   0  0  0  0  0  0  0  0  0  0  0  0
   26.4473   12.7770   21.1206 C   0  0  0  0  0  0  0  0  0  0  0  0
   26.1576   15.4893   22.7910 C   0  0  0  0  0  0  0  0  0  0  0  0
   26.9776   16.7097   23.2152 C   0  0  0  0  0  0  0  0  0  0  0  0
   27.2659   16.7062   24.5334 F   0  0  0  0  0  0  0  0  0  0  0  0
   26.3076   17.8528   22.9407 F   0  0  0  0  0  0  0  0  0  0  0  0
   28.1489   16.7570   22.5366 F   0  0  0  0  0  0  0  0  0  0  0  0
   25.7110   14.0870   25.1146 O   0  0  0  0  0  0  0  0  0  0  0  0
   26.7538   11.7000   25.8021 N   0  0  0  0  0  0  0  0  0  0  0  0
   27.4244   10.8640   26.6681 C   0  0  0  0  0  0  0  0  0  0  0  0
   28.6228   10.6240   26.5761 O   0  0  0  0  0  0  0  0  0  0  0  0
   26.6355   10.2809   27.7789 C   0  0  0  0  0  0  0  0  0  0  0  0
   27.2878    9.8939   28.9543 C   0  0  0  0  0  0  0  0  0  0  0  0
   25.2563   10.0758   27.6848 C   0  0  0  0  0  0  0  0  0  0  0  0
   24.4883    9.5469   28.6741 N   0  0  0  0  0  0  0  0  0  0  0  0
   25.1524    9.2031   29.7889 C   0  0  0  0  0  0  0  0  0  0  0  0
   26.5206    9.3585   29.9725 C   0  0  0  0  0  0  0  0  0  0  0  0
   26.9525    8.8636   31.3152 C   0  0  0  0  0  0  0  0  0  0  0  0
   24.5035    8.5749   30.9919 C   0  0  0  0  0  0  0  0  0  0  0  0
   25.6012    8.7562   32.0580 C   0  0  2  0  0  0  0  0  0  0  0  0
   25.3418    9.9142   32.9925 C   0  0  0  0  0  0  0  0  0  0  0  0
   25.2405    9.4414   34.2931 C   0  0  0  0  0  0  0  0  0  0  0  0
   25.4034    8.0722   34.3072 N   0  0  0  0  0  0  0  0  0  0  0  0
   25.6163    7.5682   33.0375 C   0  0  0  0  0  0  0  0  0  0  0  0
   25.7893    6.3934   32.7593 O   0  0  0  0  0  0  0  0  0  0  0  0
   25.0163   10.1848   35.3767 N   0  0  0  0  0  0  0  0  0  0  0  0
   25.1989   11.2684   32.7577 C   0  0  0  0  0  0  0  0  0  0  0  0
   24.9614   12.0874   33.8607 C   0  0  0  0  0  0  0  0  0  0  0  0
   24.8804   11.5094   35.1297 C   0  0  0  0  0  0  0  0  0  0  0  0
   29.6001    8.8791   19.7095 H   0  0  0  0  0  0  0  0  0  0  0  0
   31.4681   10.1379   18.6136 H   0  0  0  0  0  0  0  0  0  0  0  0
   29.3141   13.1312   23.0871 H   0  0  0  0  0  0  0  0  0  0  0  0
   27.9896   14.2424   21.4012 H   0  0  0  0  0  0  0  0  0  0  0  0
   27.1241   11.0176   23.2430 H   0  0  0  0  0  0  0  0  0  0  0  0
   28.7075   10.8882   23.9886 H   0  0  0  0  0  0  0  0  0  0  0  0
   28.3367   12.9381   25.2902 H   0  0  0  0  0  0  0  0  0  0  0  0
   25.8750   12.0263   21.6744 H   0  0  0  0  0  0  0  0  0  0  0  0
   25.7226   13.4969   20.7254 H   0  0  0  0  0  0  0  0  0  0  0  0
   26.9125   12.2916   20.2579 H   0  0  0  0  0  0  0  0  0  0  0  0
   25.1828   15.5325   23.2895 H   0  0  0  0  0  0  0  0  0  0  0  0
   25.9634   15.5422   21.7145 H   0  0  0  0  0  0  0  0  0  0  0  0
   25.8881   12.1289   26.1199 H   0  0  0  0  0  0  0  0  0  0  0  0
   28.3621   10.0144   29.0615 H   0  0  0  0  0  0  0  0  0  0  0  0
   24.7042   10.3167   26.7805 H   0  0  0  0  0  0  0  0  0  0  0  0
   27.4449    7.8911   31.2026 H   0  0  0  0  0  0  0  0  0  0  0  0
   27.6451    9.5646   31.7935 H   0  0  0  0  0  0  0  0  0  0  0  0
   24.2974    7.5208   30.7764 H   0  0  0  0  0  0  0  0  0  0  0  0
   23.5661    9.0825   31.2421 H   0  0  0  0  0  0  0  0  0  0  0  0
   25.3619    7.5210   35.1492 H   0  0  0  0  0  0  0  0  0  0  0  0
   25.2631   11.6886   31.7591 H   0  0  0  0  0  0  0  0  0  0  0  0
   24.8394   13.1594   33.7401 H   0  0  0  0  0  0  0  0  0  0  0  0
   24.6965   12.1249   36.0069 H   0  0  0  0  0  0  0  0  0  0  0  0
  1  2  2  0
  2  3  1  0
  3  4  2  0
  4  5  1  0
  5  6  2  0
  1  6  1  0
  1  7  1  0
  4  8  1  0
  5  9  1  0
 10  6  1  0
 11 12  1  0
 13 14  1  0
 14 15  1  0
 11 15  1  0
 12 10  1  0
 10 13  1  0
 12 16  1  0
 11 17  1  0
 17 18  1  0
 18 19  1  0
 18 20  1  0
 18 21  1  0
 15 22  2  0
 14 23  1  0
 23 24  1  0
 24 25  2  0
 24 26  1  0
 28 29  1  0
 29 30  2  0
 30 31  1  0
 27 31  2  0
 27 26  1  0
 26 28  2  0
 31 32  1  0
 30 33  1  0
 34 32  1  1
 34 33  1  0
 34 35  1  0
 35 36  2  0
 36 37  1  0
 37 38  1  0
 38 34  1  0
 38 39  2  0
 36 40  1  0
 35 41  1  0
 41 42  2  0
 40 43  2  0
 43 42  1  0
  2 44  1  0
  3 45  1  0
 10 46  1  1
 12 47  1  1
 13 48  1  0
 13 49  1  0
 14 50  1  1
 16 51  1  0
 16 52  1  0
 16 53  1  0
 17 54  1  0
 17 55  1  0
 23 56  1  0
 27 57  1  0
 28 58  1  0
 32 59  1  0
 32 60  1  0
 33 61  1  0
 33 62  1  0
 37 63  1  0
 41 64  1  0
 42 65  1  0
 43 66  1  0
M  END
> <Uni-Dock RESULT> 
ENERGY=   -4.649  LOWER_BOUND=    0.018  UPPER_BOUND=    0.018
INTER + INTRA:          -4.649
INTER:                  -4.649
INTRA:                   0.000
UNBOUND:                 0.000

$$$$

     RDKit          3D

 66 71  0  0  0  0  0  0  0  0999 V2000
   24.0421    6.4266   30.8607 C   0  0  0  0  0  0  0  0  0  0  0  0
   23.9634    5.0835   31.2392 C   0  0  0  0  0  0  0  0  0  0  0  0
   22.7576    4.3960   31.1224 C   0  0  0  0  0  0  0  0  0  0  0  0
   21.6434    5.0663   30.6347 C   0  0  0  0  0  0  0  0  0  0  0  0
   21.7306    6.4058   30.2595 C   0  0  0  0  0  0  0  0  0  0  0  0
   22.9358    7.1174   30.3525 C   0  0  0  0  0  0  0  0  0  0  0  0
   25.2146    7.0510   31.0290 F   0  0  0  0  0  0  0  0  0  0  0  0
   20.4770    4.4152   30.5344 F   0  0  0  0  0  0  0  0  0  0  0  0
   20.6310    7.0294   29.8089 F   0  0  0  0  0  0  0  0  0  0  0  0
   22.9638    8.5739   29.9251 C   0  0  1  0  0  0  0  0  0  0  0  0
   22.3887   10.9357   30.5253 N   0  0  0  0  0  0  0  0  0  0  0  0
   22.4061    9.5393   31.0036 C   0  0  2  0  0  0  0  0  0  0  0  0
   24.3142    9.0984   29.4156 C   0  0  0  0  0  0  0  0  0  0  0  0
   24.1056   10.4607   28.7629 C   0  0  1  0  0  0  0  0  0  0  0  0
   23.3437   11.4538   29.6631 C   0  0  0  0  0  0  0  0  0  0  0  0
   23.1701    9.4654   32.3359 C   0  0  0  0  0  0  0  0  0  0  0  0
   21.4360   11.8780   31.1515 C   0  0  0  0  0  0  0  0  0  0  0  0
   20.1742   12.1320   30.3238 C   0  0  0  0  0  0  0  0  0  0  0  0
   20.4513   12.5987   29.0885 F   0  0  0  0  0  0  0  0  0  0  0  0
   19.3751   13.0347   30.9381 F   0  0  0  0  0  0  0  0  0  0  0  0
   19.4582   10.9909   30.1830 F   0  0  0  0  0  0  0  0  0  0  0  0
   23.5186   12.6688   29.5382 O   0  0  0  0  0  0  0  0  0  0  0  0
   25.3654   11.0912   28.3728 N   0  0  0  0  0  0  0  0  0  0  0  0
   26.0740   10.6429   27.2793 C   0  0  0  0  0  0  0  0  0  0  0  0
   25.7694    9.6370   26.6487 O   0  0  0  0  0  0  0  0  0  0  0  0
   27.2269   11.4673   26.8467 C   0  0  0  0  0  0  0  0  0  0  0  0
   27.6462   11.4144   25.5131 C   0  0  0  0  0  0  0  0  0  0  0  0
   27.9346   12.2819   27.7349 C   0  0  0  0  0  0  0  0  0  0  0  0
   28.9961   13.0572   27.3879 N   0  0  0  0  0  0  0  0  0  0  0  0
   29.3553   12.9868   26.0964 C   0  0  0  0  0  0  0  0  0  0  0  0
   28.7216   12.2005   25.1424 C   0  0  0  0  0  0  0  0  0  0  0  0
   29.3730   12.3328   23.8035 C   0  0  0  0  0  0  0  0  0  0  0  0
   30.5179   13.7376   25.5069 C   0  0  0  0  0  0  0  0  0  0  0  0
   30.2328   13.6023   23.9986 C   0  0  2  0  0  0  0  0  0  0  0  0
   29.6131   14.8399   23.3938 C   0  0  0  0  0  0  0  0  0  0  0  0
   30.4486   15.3350   22.4028 C   0  0  0  0  0  0  0  0  0  0  0  0
   31.5713   14.5414   22.2978 N   0  0  0  0  0  0  0  0  0  0  0  0
   31.5448   13.4939   23.1999 C   0  0  0  0  0  0  0  0  0  0  0  0
   32.4088   12.6421   23.3250 O   0  0  0  0  0  0  0  0  0  0  0  0
   30.2174   16.4158   21.6575 N   0  0  0  0  0  0  0  0  0  0  0  0
   28.4298   15.4998   23.6654 C   0  0  0  0  0  0  0  0  0  0  0  0
   28.1443   16.6377   22.9121 C   0  0  0  0  0  0  0  0  0  0  0  0
   29.0533   17.0497   21.9349 C   0  0  0  0  0  0  0  0  0  0  0  0
   24.8481    4.5861   31.6277 H   0  0  0  0  0  0  0  0  0  0  0  0
   22.6783    3.3529   31.4121 H   0  0  0  0  0  0  0  0  0  0  0  0
   22.2866    8.6366   29.0583 H   0  0  0  0  0  0  0  0  0  0  0  0
   21.3614    9.2637   31.1989 H   0  0  0  0  0  0  0  0  0  0  0  0
   25.0474    9.1884   30.2248 H   0  0  0  0  0  0  0  0  0  0  0  0
   24.7396    8.3945   28.6903 H   0  0  0  0  0  0  0  0  0  0  0  0
   23.5021   10.3440   27.8528 H   0  0  0  0  0  0  0  0  0  0  0  0
   24.2152    9.7710   32.2264 H   0  0  0  0  0  0  0  0  0  0  0  0
   22.7234   10.1327   33.0808 H   0  0  0  0  0  0  0  0  0  0  0  0
   23.1461    8.4577   32.7604 H   0  0  0  0  0  0  0  0  0  0  0  0
   21.9408   12.8354   31.3222 H   0  0  0  0  0  0  0  0  0  0  0  0
   21.1498   11.4932   32.1359 H   0  0  0  0  0  0  0  0  0  0  0  0
   25.4389   12.0738   28.6246 H   0  0  0  0  0  0  0  0  0  0  0  0
   27.1390   10.7774   24.7939 H   0  0  0  0  0  0  0  0  0  0  0  0
   27.6815   12.3294   28.7904 H   0  0  0  0  0  0  0  0  0  0  0  0
   29.9817   11.4431   23.6065 H   0  0  0  0  0  0  0  0  0  0  0  0
   28.6281   12.4428   23.0080 H   0  0  0  0  0  0  0  0  0  0  0  0
   31.4493   13.2435   25.8042 H   0  0  0  0  0  0  0  0  0  0  0  0
   30.5323   14.7754   25.8555 H   0  0  0  0  0  0  0  0  0  0  0  0
   32.3146   14.7220   21.6425 H   0  0  0  0  0  0  0  0  0  0  0  0
   27.7443   15.1578   24.4342 H   0  0  0  0  0  0  0  0  0  0  0  0
   27.2306   17.1995   23.0797 H   0  0  0  0  0  0  0  0  0  0  0  0
   28.8552   17.9333   21.3329 H   0  0  0  0  0  0  0  0  0  0  0  0
  1  2  2  0
  2  3  1  0
  3  4  2  0
  4  5  1  0
  5  6  2  0
  1  6  1  0
  1  7  1  0
  4  8  1  0
  5  9  1  0
 10  6  1  0
 11 12  1  0
 13 14  1  0
 14 15  1  0
 11 15  1  0
 12 10  1  0
 10 13  1  0
 12 16  1  0
 11 17  1  0
 17 18  1  0
 18 19  1  0
 18 20  1  0
 18 21  1  0
 15 22  2  0
 14 23  1  0
 23 24  1  0
 24 25  2  0
 24 26  1  0
 28 29  1  0
 29 30  2  0
 30 31  1  0
 27 31  2  0
 27 26  1  0
 26 28  2  0
 31 32  1  0
 30 33  1  0
 34 32  1  1
 34 33  1  0
 34 35  1  0
 35 36  2  0
 36 37  1  0
 37 38  1  0
 38 34  1  0
 38 39  2  0
 36 40  1  0
 35 41  1  0
 41 42  2  0
 40 43  2  0
 43 42  1  0
  2 44  1  0
  3 45  1  0
 10 46  1  1
 12 47  1  1
 13 48  1  0
 13 49  1  0
 14 50  1  1
 16 51  1  0
 16 52  1  0
 16 53  1  0
 17 54  1  0
 17 55  1  0
 23 56  1  0
 27 57  1  0
 28 58  1  0
 32 59  1  0
 32 60  1  0
 33 61  1  0
 33 62  1  0
 37 63  1  0
 41 64  1  0
 42 65  1  0
 43 66  1  0
M  END
> <Uni-Dock RESULT> 
ENERGY=   -4.213  LOWER_BOUND=    5.255  UPPER_BOUND=   10.911
INTER + INTRA:          -4.213
INTER:                  -4.213
INTRA:                   0.000
UNBOUND:                 0.000

$$$$

     RDKit          3D

 66 71  0  0  0  0  0  0  0  0999 V2000
   28.2792   11.9608   25.7097 C   0  0  0  0  0  0  0  0  0  0  0  0
   27.3588   12.5762   24.8568 C   0  0  0  0  0  0  0  0  0  0  0  0
   27.7897   13.1475   23.6618 C   0  0  0  0  0  0  0  0  0  0  0  0
   29.1400   13.1015   23.3405 C   0  0  0  0  0  0  0  0  0  0  0  0
   30.0513   12.4858   24.1967 C   0  0  0  0  0  0  0  0  0  0  0  0
   29.6421   11.8895   25.3986 C   0  0  0  0  0  0  0  0  0  0  0  0
   27.8183   11.4612   26.8634 F   0  0  0  0  0  0  0  0  0  0  0  0
   29.5633   13.6625   22.2001 F   0  0  0  0  0  0  0  0  0  0  0  0
   31.3517   12.4741   23.8654 F   0  0  0  0  0  0  0  0  0  0  0  0
   30.6851   11.2333   26.2855 C   0  0  1  0  0  0  0  0  0  0  0  0
   32.5231   11.5780   27.9504 N   0  0  0  0  0  0  0  0  0  0  0  0
   31.4760   12.2469   27.1534 C   0  0  2  0  0  0  0  0  0  0  0  0
   30.1860   10.0805   27.1690 C   0  0  0  0  0  0  0  0  0  0  0  0
   31.3868    9.3524   27.7634 C   0  0  1  0  0  0  0  0  0  0  0  0
   32.3825   10.2976   28.4649 C   0  0  0  0  0  0  0  0  0  0  0  0
   30.5776   13.0772   28.0849 C   0  0  0  0  0  0  0  0  0  0  0  0
   33.6838   12.3799   28.3944 C   0  0  0  0  0  0  0  0  0  0  0  0
   34.9412   12.1815   27.5451 C   0  0  0  0  0  0  0  0  0  0  0  0
   35.3353   10.8919   27.4981 F   0  0  0  0  0  0  0  0  0  0  0  0
   35.9689   12.9110   28.0376 F   0  0  0  0  0  0  0  0  0  0  0  0
   34.7278   12.5946   26.2729 F   0  0  0  0  0  0  0  0  0  0  0  0
   33.0915    9.8837   29.3861 O   0  0  0  0  0  0  0  0  0  0  0  0
   30.9954    8.3250   28.7268 N   0  0  0  0  0  0  0  0  0  0  0  0
   30.4429    7.1340   28.3084 C   0  0  0  0  0  0  0  0  0  0  0  0
   30.1376    6.9087   27.1429 O   0  0  0  0  0  0  0  0  0  0  0  0
   30.2660    6.0820   29.3369 C   0  0  0  0  0  0  0  0  0  0  0  0
   30.2367    4.7390   28.9466 C   0  0  0  0  0  0  0  0  0  0  0  0
   30.0981    6.3852   30.6908 C   0  0  0  0  0  0  0  0  0  0  0  0
   29.9341    5.4583   31.6718 N   0  0  0  0  0  0  0  0  0  0  0  0
   29.9265    4.1824   31.2547 C   0  0  0  0  0  0  0  0  0  0  0  0
   30.0754    3.7830   29.9326 C   0  0  0  0  0  0  0  0  0  0  0  0
   30.0046    2.2960   29.7985 C   0  0  0  0  0  0  0  0  0  0  0  0
   29.7297    3.0028   32.1672 C   0  0  0  0  0  0  0  0  0  0  0  0
   30.1882    1.8412   31.2644 C   0  0  2  0  0  0  0  0  0  0  0  0
   31.5886    1.3639   31.5689 C   0  0  0  0  0  0  0  0  0  0  0  0
   31.5473    0.0296   31.9471 C   0  0  0  0  0  0  0  0  0  0  0  0
   30.2447   -0.4223   31.9272 N   0  0  0  0  0  0  0  0  0  0  0  0
   29.3633    0.5712   31.5431 C   0  0  0  0  0  0  0  0  0  0  0  0
   28.1541    0.4479   31.4419 O   0  0  0  0  0  0  0  0  0  0  0  0
   32.5988   -0.7168   32.2851 N   0  0  0  0  0  0  0  0  0  0  0  0
   32.8076    2.0134   31.5313 C   0  0  0  0  0  0  0  0  0  0  0  0
   33.9375    1.2740   31.8783 C   0  0  0  0  0  0  0  0  0  0  0  0
   33.7857   -0.0661   32.2415 C   0  0  0  0  0  0  0  0  0  0  0  0
   26.3094   12.6074   25.1377 H   0  0  0  0  0  0  0  0  0  0  0  0
   27.0888   13.6299   22.9878 H   0  0  0  0  0  0  0  0  0  0  0  0
   31.4077   10.7719   25.5936 H   0  0  0  0  0  0  0  0  0  0  0  0
   31.9937   12.9410   26.4784 H   0  0  0  0  0  0  0  0  0  0  0  0
   29.5379   10.4380   27.9768 H   0  0  0  0  0  0  0  0  0  0  0  0
   29.5820    9.3863   26.5726 H   0  0  0  0  0  0  0  0  0  0  0  0
   31.9479    8.8531   26.9621 H   0  0  0  0  0  0  0  0  0  0  0  0
   30.0598   12.4521   28.8190 H   0  0  0  0  0  0  0  0  0  0  0  0
   31.1682   13.8049   28.6518 H   0  0  0  0  0  0  0  0  0  0  0  0
   29.8299   13.6456   27.5245 H   0  0  0  0  0  0  0  0  0  0  0  0
   33.9193   12.1225   29.4332 H   0  0  0  0  0  0  0  0  0  0  0  0
   33.4079   13.4397   28.3875 H   0  0  0  0  0  0  0  0  0  0  0  0
   31.5366    8.3289   29.5879 H   0  0  0  0  0  0  0  0  0  0  0  0
   30.3407    4.4594   27.9020 H   0  0  0  0  0  0  0  0  0  0  0  0
   30.0687    7.4116   31.0460 H   0  0  0  0  0  0  0  0  0  0  0  0
   29.0260    2.0141   29.3939 H   0  0  0  0  0  0  0  0  0  0  0  0
   30.7906    1.9185   29.1356 H   0  0  0  0  0  0  0  0  0  0  0  0
   28.6701    2.9327   32.4361 H   0  0  0  0  0  0  0  0  0  0  0  0
   30.3276    3.1075   33.0786 H   0  0  0  0  0  0  0  0  0  0  0  0
   29.9842   -1.3637   32.1731 H   0  0  0  0  0  0  0  0  0  0  0  0
   32.8941    3.0577   31.2484 H   0  0  0  0  0  0  0  0  0  0  0  0
   34.9231    1.7290   31.8688 H   0  0  0  0  0  0  0  0  0  0  0  0
   34.6500   -0.6659   32.5162 H   0  0  0  0  0  0  0  0  0  0  0  0
  1  2  2  0
  2  3  1  0
  3  4  2  0
  4  5  1  0
  5  6  2  0
  1  6  1  0
  1  7  1  0
  4  8  1  0
  5  9  1  0
 10  6  1  0
 11 12  1  0
 13 14  1  0
 14 15  1  0
 11 15  1  0
 12 10  1  0
 10 13  1  0
 12 16  1  0
 11 17  1  0
 17 18  1  0
 18 19  1  0
 18 20  1  0
 18 21  1  0
 15 22  2  0
 14 23  1  0
 23 24  1  0
 24 25  2  0
 24 26  1  0
 28 29  1  0
 29 30  2  0
 30 31  1  0
 27 31  2  0
 27 26  1  0
 26 28  2  0
 31 32  1  0
 30 33  1  0
 34 32  1  1
 34 33  1  0
 34 35  1  0
 35 36  2  0
 36 37  1  0
 37 38  1  0
 38 34  1  0
 38 39  2  0
 36 40  1  0
 35 41  1  0
 41 42  2  0
 40 43  2  0
 43 42  1  0
  2 44  1  0
  3 45  1  0
 10 46  1  1
 12 47  1  1
 13 48  1  0
 13 49  1  0
 14 50  1  1
 16 51  1  0
 16 52  1  0
 16 53  1  0
 17 54  1  0
 17 55  1  0
 23 56  1  0
 27 57  1  0
 28 58  1  0
 32 59  1  0
 32 60  1  0
 33 61  1  0
 33 62  1  0
 37 63  1  0
 41 64  1  0
 42 65  1  0
 43 66  1  0
M  END
> <Uni-Dock RESULT> 
ENERGY=   -4.109  LOWER_BOUND=    6.361  UPPER_BOUND=    8.163
INTER + INTRA:          -4.109
INTER:                  -4.109
INTRA:                   0.000
UNBOUND:                 0.000

$$$$

     RDKit          3D

 66 71  0  0  0  0  0  0  0  0999 V2000
   25.0732   12.6603   20.0231 C   0  0  0  0  0  0  0  0  0  0  0  0
   23.8007   12.8167   19.4666 C   0  0  0  0  0  0  0  0  0  0  0  0
   23.2322   11.7834   18.7255 C   0  0  0  0  0  0  0  0  0  0  0  0
   23.9504   10.6086   18.5449 C   0  0  0  0  0  0  0  0  0  0  0  0
   25.2189   10.4608   19.1033 C   0  0  0  0  0  0  0  0  0  0  0  0
   25.8083   11.4794   19.8665 C   0  0  0  0  0  0  0  0  0  0  0  0
   25.5889   13.6981   20.6939 F   0  0  0  0  0  0  0  0  0  0  0  0
   23.4159    9.6167   17.8202 F   0  0  0  0  0  0  0  0  0  0  0  0
   25.8939    9.3198   18.8950 F   0  0  0  0  0  0  0  0  0  0  0  0
   27.1922   11.2540   20.4488 C   0  0  1  0  0  0  0  0  0  0  0  0
   29.6556   11.1842   20.0067 N   0  0  0  0  0  0  0  0  0  0  0  0
   28.3326   11.4771   19.4213 C   0  0  2  0  0  0  0  0  0  0  0  0
   27.5094   12.0191   21.7420 C   0  0  0  0  0  0  0  0  0  0  0  0
   28.7976   11.4680   22.3439 C   0  0  1  0  0  0  0  0  0  0  0  0
   29.9650   11.4207   21.3380 C   0  0  0  0  0  0  0  0  0  0  0  0
   28.3409   12.8938   18.8239 C   0  0  0  0  0  0  0  0  0  0  0  0
   30.7596   10.8182   19.0929 C   0  0  0  0  0  0  0  0  0  0  0  0
   31.0411    9.3156   19.0244 C   0  0  0  0  0  0  0  0  0  0  0  0
   31.3248    8.7869   20.2329 F   0  0  0  0  0  0  0  0  0  0  0  0
   32.0888    9.0640   18.2058 F   0  0  0  0  0  0  0  0  0  0  0  0
   29.9714    8.6521   18.5244 F   0  0  0  0  0  0  0  0  0  0  0  0
   31.1315   11.4940   21.7331 O   0  0  0  0  0  0  0  0  0  0  0  0
   29.2432   12.2349   23.5059 N   0  0  0  0  0  0  0  0  0  0  0  0
   28.5959   12.1269   24.7176 C   0  0  0  0  0  0  0  0  0  0  0  0
   27.5583   11.4925   24.8699 O   0  0  0  0  0  0  0  0  0  0  0  0
   29.2389   12.7848   25.8793 C   0  0  0  0  0  0  0  0  0  0  0  0
   28.9831   12.3046   27.1680 C   0  0  0  0  0  0  0  0  0  0  0  0
   30.0770   13.8941   25.7368 C   0  0  0  0  0  0  0  0  0  0  0  0
   30.6912   14.5314   26.7688 N   0  0  0  0  0  0  0  0  0  0  0  0
   30.4293   14.0289   27.9857 C   0  0  0  0  0  0  0  0  0  0  0  0
   29.6037   12.9384   28.2287 C   0  0  0  0  0  0  0  0  0  0  0  0
   29.5061   12.6406   29.6902 C   0  0  0  0  0  0  0  0  0  0  0  0
   30.9798   14.5983   29.2646 C   0  0  0  0  0  0  0  0  0  0  0  0
   30.6943   13.4523   30.2544 C   0  0  2  0  0  0  0  0  0  0  0  0
   31.9076   12.6032   30.5522 C   0  0  0  0  0  0  0  0  0  0  0  0
   32.1910   12.6666   31.9090 C   0  0  0  0  0  0  0  0  0  0  0  0
   31.2789   13.4860   32.5398 N   0  0  0  0  0  0  0  0  0  0  0  0
   30.3559   14.0053   31.6511 C   0  0  0  0  0  0  0  0  0  0  0  0
   29.4407   14.7592   31.9369 O   0  0  0  0  0  0  0  0  0  0  0  0
   33.1924   12.0386   32.5255 N   0  0  0  0  0  0  0  0  0  0  0  0
   32.7139   11.8361   29.7333 C   0  0  0  0  0  0  0  0  0  0  0  0
   33.7763   11.1608   30.3324 C   0  0  0  0  0  0  0  0  0  0  0  0
   33.9718   11.2899   31.7094 C   0  0  0  0  0  0  0  0  0  0  0  0
   23.2650   13.7507   19.6145 H   0  0  0  0  0  0  0  0  0  0  0  0
   22.2453   11.8879   18.2857 H   0  0  0  0  0  0  0  0  0  0  0  0
   27.2197   10.1895   20.7317 H   0  0  0  0  0  0  0  0  0  0  0  0
   28.1917   10.7652   18.5974 H   0  0  0  0  0  0  0  0  0  0  0  0
   27.6199   13.0942   21.5621 H   0  0  0  0  0  0  0  0  0  0  0  0
   26.6833   11.9086   22.4546 H   0  0  0  0  0  0  0  0  0  0  0  0
   28.6352   10.4340   22.6766 H   0  0  0  0  0  0  0  0  0  0  0  0
   28.5217   13.6586   19.5856 H   0  0  0  0  0  0  0  0  0  0  0  0
   29.1355   12.9991   18.0773 H   0  0  0  0  0  0  0  0  0  0  0  0
   27.3995   13.1246   18.3173 H   0  0  0  0  0  0  0  0  0  0  0  0
   31.6734   11.3309   19.4137 H   0  0  0  0  0  0  0  0  0  0  0  0
   30.5275   11.1875   18.0885 H   0  0  0  0  0  0  0  0  0  0  0  0
   30.2361   12.4552   23.5080 H   0  0  0  0  0  0  0  0  0  0  0  0
   28.3200   11.4587   27.3265 H   0  0  0  0  0  0  0  0  0  0  0  0
   30.2769   14.3368   24.7649 H   0  0  0  0  0  0  0  0  0  0  0  0
   28.5412   12.9955   30.0694 H   0  0  0  0  0  0  0  0  0  0  0  0
   29.5960   11.5663   29.8840 H   0  0  0  0  0  0  0  0  0  0  0  0
   30.4316   15.5137   29.5125 H   0  0  0  0  0  0  0  0  0  0  0  0
   32.0450   14.8311   29.1641 H   0  0  0  0  0  0  0  0  0  0  0  0
   31.3018   13.6778   33.5284 H   0  0  0  0  0  0  0  0  0  0  0  0
   32.5394   11.7578   28.6649 H   0  0  0  0  0  0  0  0  0  0  0  0
   34.4454   10.5431   29.7413 H   0  0  0  0  0  0  0  0  0  0  0  0
   34.7922   10.7738   32.2022 H   0  0  0  0  0  0  0  0  0  0  0  0
  1  2  2  0
  2  3  1  0
  3  4  2  0
  4  5  1  0
  5  6  2  0
  1  6  1  0
  1  7  1  0
  4  8  1  0
  5  9  1  0
 10  6  1  0
 11 12  1  0
 13 14  1  0
 14 15  1  0
 11 15  1  0
 12 10  1  0
 10 13  1  0
 12 16  1  0
 11 17  1  0
 17 18  1  0
 18 19  1  0
 18 20  1  0
 18 21  1  0
 15 22  2  0
 14 23  1  0
 23 24  1  0
 24 25  2  0
 24 26  1  0
 28 29  1  0
 29 30  2  0
 30 31  1  0
 27 31  2  0
 27 26  1  0
 26 28  2  0
 31 32  1  0
 30 33  1  0
 34 32  1  1
 34 33  1  0
 34 35  1  0
 35 36  2  0
 36 37  1  0
 37 38  1  0
 38 34  1  0
 38 39  2  0
 36 40  1  0
 35 41  1  0
 41 42  2  0
 40 43  2  0
 43 42  1  0
  2 44  1  0
  3 45  1  0
 10 46  1  1
 12 47  1  1
 13 48  1  0
 13 49  1  0
 14 50  1  1
 16 51  1  0
 16 52  1  0
 16 53  1  0
 17 54  1  0
 17 55  1  0
 23 56  1  0
 27 57  1  0
 28 58  1  0
 32 59  1  0
 32 60  1  0
 33 61  1  0
 33 62  1  0
 37 63  1  0
 41 64  1  0
 42 65  1  0
 43 66  1  0
M  END
> <Uni-Dock RESULT> 
ENERGY=   -3.989  LOWER_BOUND=    4.657  UPPER_BOUND=    6.899
INTER + INTRA:          -3.989
INTER:                  -3.989
INTRA:                   0.000
UNBOUND:                 0.000

$$$$

     RDKit          3D

 66 71  0  0  0  0  0  0  0  0999 V2000
   30.5351    6.9508   28.6256 C   0  0  0  0  0  0  0  0  0  0  0  0
   30.2496    5.7946   29.3571 C   0  0  0  0  0  0  0  0  0  0  0  0
   30.6321    5.7029   30.6933 C   0  0  0  0  0  0  0  0  0  0  0  0
   31.3035    6.7691   31.2774 C   0  0  0  0  0  0  0  0  0  0  0  0
   31.5844    7.9185   30.5407 C   0  0  0  0  0  0  0  0  0  0  0  0
   31.1972    8.0431   29.1983 C   0  0  0  0  0  0  0  0  0  0  0  0
   30.1796    6.9720   27.3348 F   0  0  0  0  0  0  0  0  0  0  0  0
   31.6878    6.6813   32.5577 F   0  0  0  0  0  0  0  0  0  0  0  0
   32.2505    8.9237   31.1297 F   0  0  0  0  0  0  0  0  0  0  0  0
   31.5318    9.3226   28.4529 C   0  0  1  0  0  0  0  0  0  0  0  0
   33.3020   10.6568   27.2888 N   0  0  0  0  0  0  0  0  0  0  0  0
   32.9980    9.3719   27.9487 C   0  0  2  0  0  0  0  0  0  0  0  0
   30.5819    9.7002   27.3068 C   0  0  0  0  0  0  0  0  0  0  0  0
   30.8780   11.1292   26.8644 C   0  0  1  0  0  0  0  0  0  0  0  0
   32.3683   11.3706   26.5521 C   0  0  0  0  0  0  0  0  0  0  0  0
   33.3516    8.2145   27.0003 C   0  0  0  0  0  0  0  0  0  0  0  0
   34.7123   11.0996   27.2355 C   0  0  0  0  0  0  0  0  0  0  0  0
   35.0757   12.1533   28.2840 C   0  0  0  0  0  0  0  0  0  0  0  0
   34.3026   13.2559   28.1988 F   0  0  0  0  0  0  0  0  0  0  0  0
   36.3650   12.5396   28.1443 F   0  0  0  0  0  0  0  0  0  0  0  0
   34.9398   11.6495   29.5339 F   0  0  0  0  0  0  0  0  0  0  0  0
   32.7028   12.2408   25.7439 O   0  0  0  0  0  0  0  0  0  0  0  0
   30.1081   11.5187   25.6844 N   0  0  0  0  0  0  0  0  0  0  0  0
   28.7611   11.7946   25.7758 C   0  0  0  0  0  0  0  0  0  0  0  0
   28.1082   11.6200   26.7982 O   0  0  0  0  0  0  0  0  0  0  0  0
   28.1145   12.3717   24.5737 C   0  0  0  0  0  0  0  0  0  0  0  0
   26.9639   13.1534   24.7221 C   0  0  0  0  0  0  0  0  0  0  0  0
   28.5993   12.1394   23.2836 C   0  0  0  0  0  0  0  0  0  0  0  0
   28.0441   12.6462   22.1508 N   0  0  0  0  0  0  0  0  0  0  0  0
   26.9510   13.4019   22.3406 C   0  0  0  0  0  0  0  0  0  0  0  0
   26.3894   13.6807   23.5803 C   0  0  0  0  0  0  0  0  0  0  0  0
   25.1700   14.5352   23.4492 C   0  0  0  0  0  0  0  0  0  0  0  0
   26.1647   14.0348   21.2252 C   0  0  0  0  0  0  0  0  0  0  0  0
   25.3065   15.0538   21.9995 C   0  0  2  0  0  0  0  0  0  0  0  0
   25.8373   16.4657   21.9196 C   0  0  0  0  0  0  0  0  0  0  0  0
   24.8850   17.2818   21.3261 C   0  0  0  0  0  0  0  0  0  0  0  0
   23.7705   16.5388   20.9987 N   0  0  0  0  0  0  0  0  0  0  0  0
   23.9196   15.2097   21.3489 C   0  0  0  0  0  0  0  0  0  0  0  0
   23.0914   14.3316   21.1736 O   0  0  0  0  0  0  0  0  0  0  0  0
   25.0134   18.5887   21.0967 N   0  0  0  0  0  0  0  0  0  0  0  0
   27.0400   17.0175   22.3176 C   0  0  0  0  0  0  0  0  0  0  0  0
   27.2220   18.3820   22.0970 C   0  0  0  0  0  0  0  0  0  0  0  0
   26.1967   19.1142   21.4940 C   0  0  0  0  0  0  0  0  0  0  0  0
   29.7324    4.9708   28.8723 H   0  0  0  0  0  0  0  0  0  0  0  0
   30.4190    4.8124   31.2762 H   0  0  0  0  0  0  0  0  0  0  0  0
   31.4209   10.1298   29.1946 H   0  0  0  0  0  0  0  0  0  0  0  0
   33.6600    9.3057   28.8221 H   0  0  0  0  0  0  0  0  0  0  0  0
   30.6863    9.0230   26.4518 H   0  0  0  0  0  0  0  0  0  0  0  0
   29.5408    9.6174   27.6409 H   0  0  0  0  0  0  0  0  0  0  0  0
   30.6153   11.8261   27.6715 H   0  0  0  0  0  0  0  0  0  0  0  0
   32.7578    8.2418   26.0814 H   0  0  0  0  0  0  0  0  0  0  0  0
   34.4030    8.2641   26.6973 H   0  0  0  0  0  0  0  0  0  0  0  0
   33.2065    7.2415   27.4782 H   0  0  0  0  0  0  0  0  0  0  0  0
   34.9205   11.5096   26.2409 H   0  0  0  0  0  0  0  0  0  0  0  0
   35.3639   10.2283   27.3595 H   0  0  0  0  0  0  0  0  0  0  0  0
   30.6501   11.9956   24.9680 H   0  0  0  0  0  0  0  0  0  0  0  0
   26.5399   13.3407   25.7046 H   0  0  0  0  0  0  0  0  0  0  0  0
   29.4630   11.5051   23.1046 H   0  0  0  0  0  0  0  0  0  0  0  0
   24.2764   13.9164   23.5883 H   0  0  0  0  0  0  0  0  0  0  0  0
   25.1683   15.3420   24.1900 H   0  0  0  0  0  0  0  0  0  0  0  0
   25.5605   13.2647   20.7332 H   0  0  0  0  0  0  0  0  0  0  0  0
   26.8303   14.4969   20.4889 H   0  0  0  0  0  0  0  0  0  0  0  0
   22.9578   16.9319   20.5519 H   0  0  0  0  0  0  0  0  0  0  0  0
   27.8203   16.4221   22.7807 H   0  0  0  0  0  0  0  0  0  0  0  0
   28.1458   18.8728   22.3871 H   0  0  0  0  0  0  0  0  0  0  0  0
   26.3121   20.1798   21.3107 H   0  0  0  0  0  0  0  0  0  0  0  0
  1  2  2  0
  2  3  1  0
  3  4  2  0
  4  5  1  0
  5  6  2  0
  1  6  1  0
  1  7  1  0
  4  8  1  0
  5  9  1  0
 10  6  1  0
 11 12  1  0
 13 14  1  0
 14 15  1  0
 11 15  1  0
 12 10  1  0
 10 13  1  0
 12 16  1  0
 11 17  1  0
 17 18  1  0
 18 19  1  0
 18 20  1  0
 18 21  1  0
 15 22  2  0
 14 23  1  0
 23 24  1  0
 24 25  2  0
 24 26  1  0
 28 29  1  0
 29 30  2  0
 30 31  1  0
 27 31  2  0
 27 26  1  0
 26 28  2  0
 31 32  1  0
 30 33  1  0
 34 32  1  1
 34 33  1  0
 34 35  1  0
 35 36  2  0
 36 37  1  0
 37 38  1  0
 38 34  1  0
 38 39  2  0
 36 40  1  0
 35 41  1  0
 41 42  2  0
 40 43  2  0
 43 42  1  0
  2 44  1  0
  3 45  1  0
 10 46  1  1
 12 47  1  1
 13 48  1  0
 13 49  1  0
 14 50  1  1
 16 51  1  0
 16 52  1  0
 16 53  1  0
 17 54  1  0
 17 55  1  0
 23 56  1  0
 27 57  1  0
 28 58  1  0
 32 59  1  0
 32 60  1  0
 33 61  1  0
 33 62  1  0
 37 63  1  0
 41 64  1  0
 42 65  1  0
 43 66  1  0
M  END
> <Uni-Dock RESULT> 
ENERGY=   -3.941  LOWER_BOUND=    5.861  UPPER_BOUND=   10.399
INTER + INTRA:          -3.941
INTER:                  -3.941
INTRA:                   0.000
UNBOUND:                 0.000

$$$$

     RDKit          3D

 66 71  0  0  0  0  0  0  0  0999 V2000
   26.5895   14.1026   32.2938 C   0  0  0  0  0  0  0  0  0  0  0  0
   26.9066   14.8175   33.4521 C   0  0  0  0  0  0  0  0  0  0  0  0
   27.0626   14.1481   34.6636 C   0  0  0  0  0  0  0  0  0  0  0  0
   26.8908   12.7705   34.7000 C   0  0  0  0  0  0  0  0  0  0  0  0
   26.5746   12.0652   33.5402 C   0  0  0  0  0  0  0  0  0  0  0  0
   26.4268   12.7124   32.3045 C   0  0  0  0  0  0  0  0  0  0  0  0
   26.4132   14.7989   31.1636 F   0  0  0  0  0  0  0  0  0  0  0  0
   27.0242   12.1225   35.8648 F   0  0  0  0  0  0  0  0  0  0  0  0
   26.3977   10.7369   33.6128 F   0  0  0  0  0  0  0  0  0  0  0  0
   26.0839   11.8854   31.0784 C   0  0  1  0  0  0  0  0  0  0  0  0
   24.2957   10.6731   29.8129 N   0  0  0  0  0  0  0  0  0  0  0  0
   24.5768   11.5318   30.9802 C   0  0  2  0  0  0  0  0  0  0  0  0
   26.5684   12.4461   29.7332 C   0  0  0  0  0  0  0  0  0  0  0  0
   26.4068   11.3752   28.6597 C   0  0  1  0  0  0  0  0  0  0  0  0
   24.9895   10.7700   28.6157 C   0  0  0  0  0  0  0  0  0  0  0  0
   23.6660   12.7697   30.9347 C   0  0  0  0  0  0  0  0  0  0  0  0
   23.0901    9.8170   29.8481 C   0  0  0  0  0  0  0  0  0  0  0  0
   23.3736    8.3537   30.1944 C   0  0  0  0  0  0  0  0  0  0  0  0
   24.2508    7.7814   29.3438 F   0  0  0  0  0  0  0  0  0  0  0  0
   22.2325    7.6270   30.1636 F   0  0  0  0  0  0  0  0  0  0  0  0
   23.8834    8.2494   31.4450 F   0  0  0  0  0  0  0  0  0  0  0  0
   24.5432   10.3039   27.5640 O   0  0  0  0  0  0  0  0  0  0  0  0
   26.7182   11.8750   27.3218 N   0  0  0  0  0  0  0  0  0  0  0  0
   28.0209   12.1066   26.9366 C   0  0  0  0  0  0  0  0  0  0  0  0
   28.9720   12.0281   27.7056 O   0  0  0  0  0  0  0  0  0  0  0  0
   28.2489   12.4184   25.5060 C   0  0  0  0  0  0  0  0  0  0  0  0
   29.4947   12.1407   24.9335 C   0  0  0  0  0  0  0  0  0  0  0  0
   27.2666   13.0103   24.7073 C   0  0  0  0  0  0  0  0  0  0  0  0
   27.4255   13.3142   23.3917 N   0  0  0  0  0  0  0  0  0  0  0  0
   28.6305   13.0179   22.8798 C   0  0  0  0  0  0  0  0  0  0  0  0
   29.6715   12.4394   23.5949 C   0  0  0  0  0  0  0  0  0  0  0  0
   30.8850   12.2540   22.7420 C   0  0  0  0  0  0  0  0  0  0  0  0
   29.0289   13.2969   21.4563 C   0  0  0  0  0  0  0  0  0  0  0  0
   30.3001   12.4361   21.3229 C   0  0  2  0  0  0  0  0  0  0  0  0
   30.0643   11.1290   20.6037 C   0  0  0  0  0  0  0  0  0  0  0  0
   30.8503   11.0849   19.4611 C   0  0  0  0  0  0  0  0  0  0  0  0
   31.5835   12.2476   19.3524 N   0  0  0  0  0  0  0  0  0  0  0  0
   31.3275   13.1147   20.3983 C   0  0  0  0  0  0  0  0  0  0  0  0
   31.8357   14.2129   20.5513 O   0  0  0  0  0  0  0  0  0  0  0  0
   30.8987   10.0790   18.5877 N   0  0  0  0  0  0  0  0  0  0  0  0
   29.2419   10.0573   20.8943 C   0  0  0  0  0  0  0  0  0  0  0  0
   29.2568    8.9808   20.0086 C   0  0  0  0  0  0  0  0  0  0  0  0
   30.0885    9.0361   18.8878 C   0  0  0  0  0  0  0  0  0  0  0  0
   27.0250   15.8965   33.3973 H   0  0  0  0  0  0  0  0  0  0  0  0
   27.3083   14.6875   35.5729 H   0  0  0  0  0  0  0  0  0  0  0  0
   26.6280   10.9358   31.2056 H   0  0  0  0  0  0  0  0  0  0  0  0
   24.3063   10.9473   31.8694 H   0  0  0  0  0  0  0  0  0  0  0  0
   26.0114   13.3435   29.4421 H   0  0  0  0  0  0  0  0  0  0  0  0
   27.6201   12.7467   29.8100 H   0  0  0  0  0  0  0  0  0  0  0  0
   27.0917   10.5417   28.8656 H   0  0  0  0  0  0  0  0  0  0  0  0
   23.8498   13.3811   30.0458 H   0  0  0  0  0  0  0  0  0  0  0  0
   22.6106   12.4781   30.9035 H   0  0  0  0  0  0  0  0  0  0  0  0
   23.7936   13.3983   31.8205 H   0  0  0  0  0  0  0  0  0  0  0  0
   22.5961    9.8556   28.8708 H   0  0  0  0  0  0  0  0  0  0  0  0
   22.3822   10.2287   30.5751 H   0  0  0  0  0  0  0  0  0  0  0  0
   26.0443   11.6107   26.6074 H   0  0  0  0  0  0  0  0  0  0  0  0
   30.2943   11.7017   25.5235 H   0  0  0  0  0  0  0  0  0  0  0  0
   26.2959   13.2878   25.1088 H   0  0  0  0  0  0  0  0  0  0  0  0
   31.6243   13.0238   22.9903 H   0  0  0  0  0  0  0  0  0  0  0  0
   31.3303   11.2648   22.8937 H   0  0  0  0  0  0  0  0  0  0  0  0
   29.2332   14.3675   21.3464 H   0  0  0  0  0  0  0  0  0  0  0  0
   28.2330   13.0079   20.7622 H   0  0  0  0  0  0  0  0  0  0  0  0
   32.2186   12.4295   18.5920 H   0  0  0  0  0  0  0  0  0  0  0  0
   28.6031   10.0443   21.7716 H   0  0  0  0  0  0  0  0  0  0  0  0
   28.6319    8.1102   20.1824 H   0  0  0  0  0  0  0  0  0  0  0  0
   30.1199    8.2103   18.1812 H   0  0  0  0  0  0  0  0  0  0  0  0
  1  2  2  0
  2  3  1  0
  3  4  2  0
  4  5  1  0
  5  6  2  0
  1  6  1  0
  1  7  1  0
  4  8  1  0
  5  9  1  0
 10  6  1  0
 11 12  1  0
 13 14  1  0
 14 15  1  0
 11 15  1  0
 12 10  1  0
 10 13  1  0
 12 16  1  0
 11 17  1  0
 17 18  1  0
 18 19  1  0
 18 20  1  0
 18 21  1  0
 15 22  2  0
 14 23  1  0
 23 24  1  0
 24 25  2  0
 24 26  1  0
 28 29  1  0
 29 30  2  0
 30 31  1  0
 27 31  2  0
 27 26  1  0
 26 28  2  0
 31 32  1  0
 30 33  1  0
 34 32  1  1
 34 33  1  0
 34 35  1  0
 35 36  2  0
 36 37  1  0
 37 38  1  0
 38 34  1  0
 38 39  2  0
 36 40  1  0
 35 41  1  0
 41 42  2  0
 40 43  2  0
 43 42  1  0
  2 44  1  0
  3 45  1  0
 10 46  1  1
 12 47  1  1
 13 48  1  0
 13 49  1  0
 14 50  1  1
 16 51  1  0
 16 52  1  0
 16 53  1  0
 17 54  1  0
 17 55  1  0
 23 56  1  0
 27 57  1  0
 28 58  1  0
 32 59  1  0
 32 60  1  0
 33 61  1  0
 33 62  1  0
 37 63  1  0
 41 64  1  0
 42 65  1  0
 43 66  1  0
M  END
> <Uni-Dock RESULT> 
ENERGY=   -3.938  LOWER_BOUND=    4.590  UPPER_BOUND=   11.520
INTER + INTRA:          -3.938
INTER:                  -3.938
INTRA:                   0.000
UNBOUND:                 0.000

$$$$

     RDKit          3D

 66 71  0  0  0  0  0  0  0  0999 V2000
   29.2691   14.5284   21.8643 C   0  0  0  0  0  0  0  0  0  0  0  0
   29.0042   15.1328   20.6323 C   0  0  0  0  0  0  0  0  0  0  0  0
   29.6711   14.7032   19.4874 C   0  0  0  0  0  0  0  0  0  0  0  0
   30.6016   13.6778   19.5936 C   0  0  0  0  0  0  0  0  0  0  0  0
   30.8599   13.0805   20.8262 C   0  0  0  0  0  0  0  0  0  0  0  0
   30.1916   13.4834   21.9917 C   0  0  0  0  0  0  0  0  0  0  0  0
   28.6290   15.0048   22.9396 F   0  0  0  0  0  0  0  0  0  0  0  0
   31.2578   13.2702   18.4991 F   0  0  0  0  0  0  0  0  0  0  0  0
   31.7780   12.1042   20.8978 F   0  0  0  0  0  0  0  0  0  0  0  0
   30.5178   12.7901   23.3024 C   0  0  1  0  0  0  0  0  0  0  0  0
   32.1356   12.5716   25.2008 N   0  0  0  0  0  0  0  0  0  0  0  0
   31.8182   13.3148   23.9656 C   0  0  2  0  0  0  0  0  0  0  0  0
   29.3888   12.7556   24.3430 C   0  0  0  0  0  0  0  0  0  0  0  0
   29.7692   11.7888   25.4592 C   0  0  1  0  0  0  0  0  0  0  0  0
   31.1644   12.0674   26.0532 C   0  0  0  0  0  0  0  0  0  0  0  0
   31.7766   14.8209   24.2722 C   0  0  0  0  0  0  0  0  0  0  0  0
   33.5420   12.5418   25.6577 C   0  0  0  0  0  0  0  0  0  0  0  0
   34.2827   11.2475   25.3140 C   0  0  0  0  0  0  0  0  0  0  0  0
   33.6719   10.1535   25.8148 F   0  0  0  0  0  0  0  0  0  0  0  0
   35.5447   11.2769   25.8013 F   0  0  0  0  0  0  0  0  0  0  0  0
   34.3732   11.0916   23.9716 F   0  0  0  0  0  0  0  0  0  0  0  0
   31.4189   11.7556   27.2195 O   0  0  0  0  0  0  0  0  0  0  0  0
   28.8073   11.8011   26.5598 N   0  0  0  0  0  0  0  0  0  0  0  0
   27.5705   11.2080   26.4274 C   0  0  0  0  0  0  0  0  0  0  0  0
   27.1562   10.7491   25.3691 O   0  0  0  0  0  0  0  0  0  0  0  0
   26.7481   11.0969   27.6551 C   0  0  0  0  0  0  0  0  0  0  0  0
   25.7840   10.0874   27.7461 C   0  0  0  0  0  0  0  0  0  0  0  0
   26.8817   11.9877   28.7238 C   0  0  0  0  0  0  0  0  0  0  0  0
   26.1538   11.9276   29.8704 N   0  0  0  0  0  0  0  0  0  0  0  0
   25.2509   10.9355   29.9210 C   0  0  0  0  0  0  0  0  0  0  0  0
   25.0381   10.0092   28.9078 C   0  0  0  0  0  0  0  0  0  0  0  0
   23.9527    9.0459   29.2658 C   0  0  0  0  0  0  0  0  0  0  0  0
   24.3221   10.7049   31.0816 C   0  0  0  0  0  0  0  0  0  0  0  0
   23.8182    9.2786   30.7880 C   0  0  2  0  0  0  0  0  0  0  0  0
   24.5067    8.2190   31.6155 C   0  0  0  0  0  0  0  0  0  0  0  0
   23.5652    7.5580   32.3913 C   0  0  0  0  0  0  0  0  0  0  0  0
   22.3130    8.0863   32.1586 N   0  0  0  0  0  0  0  0  0  0  0  0
   22.3534    9.1120   31.2324 C   0  0  0  0  0  0  0  0  0  0  0  0
   21.3933    9.7555   30.8427 O   0  0  0  0  0  0  0  0  0  0  0  0
   23.8170    6.5623   33.2411 N   0  0  0  0  0  0  0  0  0  0  0  0
   25.8337    7.8448   31.7068 C   0  0  0  0  0  0  0  0  0  0  0  0
   26.1471    6.8078   32.5843 C   0  0  0  0  0  0  0  0  0  0  0  0
   25.1214    6.2065   33.3175 C   0  0  0  0  0  0  0  0  0  0  0  0
   28.2789   15.9404   20.5794 H   0  0  0  0  0  0  0  0  0  0  0  0
   29.4780   15.1616   18.5226 H   0  0  0  0  0  0  0  0  0  0  0  0
   30.6961   11.7354   23.0381 H   0  0  0  0  0  0  0  0  0  0  0  0
   32.6498   13.1355   23.2715 H   0  0  0  0  0  0  0  0  0  0  0  0
   29.1959   13.7472   24.7673 H   0  0  0  0  0  0  0  0  0  0  0  0
   28.4531   12.4349   23.8695 H   0  0  0  0  0  0  0  0  0  0  0  0
   29.8014   10.7647   25.0638 H   0  0  0  0  0  0  0  0  0  0  0  0
   30.9947   15.0701   24.9963 H   0  0  0  0  0  0  0  0  0  0  0  0
   32.7248   15.1587   24.7041 H   0  0  0  0  0  0  0  0  0  0  0  0
   31.6131   15.4134   23.3675 H   0  0  0  0  0  0  0  0  0  0  0  0
   33.5676   12.6813   26.7442 H   0  0  0  0  0  0  0  0  0  0  0  0
   34.0770   13.3905   25.2187 H   0  0  0  0  0  0  0  0  0  0  0  0
   29.2282   11.8361   27.4850 H   0  0  0  0  0  0  0  0  0  0  0  0
   25.6310    9.3872   26.9297 H   0  0  0  0  0  0  0  0  0  0  0  0
   27.5832   12.8168   28.6909 H   0  0  0  0  0  0  0  0  0  0  0  0
   23.0391    9.3096   28.7213 H   0  0  0  0  0  0  0  0  0  0  0  0
   24.2359    8.0174   29.0172 H   0  0  0  0  0  0  0  0  0  0  0  0
   23.5188   11.4492   31.0489 H   0  0  0  0  0  0  0  0  0  0  0  0
   24.8553   10.7905   32.0340 H   0  0  0  0  0  0  0  0  0  0  0  0
   21.4813    7.7575   32.6220 H   0  0  0  0  0  0  0  0  0  0  0  0
   26.6100    8.3335   31.1267 H   0  0  0  0  0  0  0  0  0  0  0  0
   27.1721    6.4695   32.7004 H   0  0  0  0  0  0  0  0  0  0  0  0
   25.3379    5.3954   34.0085 H   0  0  0  0  0  0  0  0  0  0  0  0
  1  2  2  0
  2  3  1  0
  3  4  2  0
  4  5  1  0
  5  6  2  0
  1  6  1  0
  1  7  1  0
  4  8  1  0
  5  9  1  0
 10  6  1  0
 11 12  1  0
 13 14  1  0
 14 15  1  0
 11 15  1  0
 12 10  1  0
 10 13  1  0
 12 16  1  0
 11 17  1  0
 17 18  1  0
 18 19  1  0
 18 20  1  0
 18 21  1  0
 15 22  2  0
 14 23  1  0
 23 24  1  0
 24 25  2  0
 24 26  1  0
 28 29  1  0
 29 30  2  0
 30 31  1  0
 27 31  2  0
 27 26  1  0
 26 28  2  0
 31 32  1  0
 30 33  1  0
 34 32  1  1
 34 33  1  0
 34 35  1  0
 35 36  2  0
 36 37  1  0
 37 38  1  0
 38 34  1  0
 38 39  2  0
 36 40  1  0
 35 41  1  0
 41 42  2  0
 40 43  2  0
 43 42  1  0
  2 44  1  0
  3 45  1  0
 10 46  1  1
 12 47  1  1
 13 48  1  0
 13 49  1  0
 14 50  1  1
 16 51  1  0
 16 52  1  0
 16 53  1  0
 17 54  1  0
 17 55  1  0
 23 56  1  0
 27 57  1  0
 28 58  1  0
 32 59  1  0
 32 60  1  0
 33 61  1  0
 33 62  1  0
 37 63  1  0
 41 64  1  0
 42 65  1  0
 43 66  1  0
M  END
> <Uni-Dock RESULT> 
ENERGY=   -3.933  LOWER_BOUND=    3.164  UPPER_BOUND=    4.778
INTER + INTRA:          -3.933
INTER:                  -3.933
INTRA:                   0.000
UNBOUND:                 0.000

$$$$
