
     RDKit          3D

 66 71  0  0  0  0  0  0  0  0999 V2000
   25.1898   12.6891   29.0767 C   0  0  0  0  0  0  0  0  0  0  0  0
   24.0551   11.8921   29.2409 C   0  0  0  0  0  0  0  0  0  0  0  0
   23.9695   10.6695   28.5817 C   0  0  0  0  0  0  0  0  0  0  0  0
   25.0219   10.2648   27.7701 C   0  0  0  0  0  0  0  0  0  0  0  0
   26.1530   11.0670   27.6143 C   0  0  0  0  0  0  0  0  0  0  0  0
   26.2655   12.3023   28.2630 C   0  0  0  0  0  0  0  0  0  0  0  0
   25.2410   13.8575   29.7326 F   0  0  0  0  0  0  0  0  0  0  0  0
   24.9395    9.0908   27.1298 F   0  0  0  0  0  0  0  0  0  0  0  0
   27.1407   10.6316   26.8205 F   0  0  0  0  0  0  0  0  0  0  0  0
   27.4779   13.2162   28.1327 C   0  0  1  0  0  0  0  0  0  0  0  0
   29.3772   11.6900   28.6776 N   0  0  0  0  0  0  0  0  0  0  0  0
   28.6356   12.8821   29.1205 C   0  0  2  0  0  0  0  0  0  0  0  0
   27.9991   13.3319   26.6787 C   0  0  0  0  0  0  0  0  0  0  0  0
   29.4306   12.8194   26.4734 C   0  0  1  0  0  0  0  0  0  0  0  0
   29.7581   11.5909   27.3426 C   0  0  0  0  0  0  0  0  0  0  0  0
   28.1958   12.8984   30.5873 C   0  0  0  0  0  0  0  0  0  0  0  0
   29.7273   10.5734   29.5818 C   0  0  0  0  0  0  0  0  0  0  0  0
   28.7401    9.4034   29.6284 C   0  0  0  0  0  0  0  0  0  0  0  0
   28.5691    8.8118   28.4307 F   0  0  0  0  0  0  0  0  0  0  0  0
   29.1802    8.4567   30.4925 F   0  0  0  0  0  0  0  0  0  0  0  0
   27.5250    9.8037   30.0705 F   0  0  0  0  0  0  0  0  0  0  0  0
   30.3713   10.6222   26.8926 O   0  0  0  0  0  0  0  0  0  0  0  0
   29.6875   12.4720   25.0797 N   0  0  0  0  0  0  0  0  0  0  0  0
   29.8414   13.4326   24.1080 C   0  0  0  0  0  0  0  0  0  0  0  0
   29.7033   14.6306   24.3300 O   0  0  0  0  0  0  0  0  0  0  0  0
   30.2097   12.9610   22.7507 C   0  0  0  0  0  0  0  0  0  0  0  0
   30.0130   11.6463   22.3132 C   0  0  0  0  0  0  0  0  0  0  0  0
   30.7576   13.8847   21.8542 C   0  0  0  0  0  0  0  0  0  0  0  0
   31.1403   13.5911   20.5822 N   0  0  0  0  0  0  0  0  0  0  0  0
   30.9469   12.3178   20.2092 C   0  0  0  0  0  0  0  0  0  0  0  0
   30.3891   11.3357   21.0176 C   0  0  0  0  0  0  0  0  0  0  0  0
   30.3046   10.0243   20.3041 C   0  0  0  0  0  0  0  0  0  0  0  0
   31.3201   11.7744   18.8574 C   0  0  0  0  0  0  0  0  0  0  0  0
   30.5364   10.4485   18.8360 C   0  0  2  0  0  0  0  0  0  0  0  0
   29.2625   10.5196   18.0282 C   0  0  0  0  0  0  0  0  0  0  0  0
   29.3257    9.6032   16.9882 C   0  0  0  0  0  0  0  0  0  0  0  0
   30.5293    8.9320   17.0287 N   0  0  0  0  0  0  0  0  0  0  0  0
   31.3201    9.3610   18.0782 C   0  0  0  0  0  0  0  0  0  0  0  0
   32.4329    8.9409   18.3476 O   0  0  0  0  0  0  0  0  0  0  0  0
   28.3765    9.3935   16.0759 N   0  0  0  0  0  0  0  0  0  0  0  0
   28.1349   11.3073   18.1612 C   0  0  0  0  0  0  0  0  0  0  0  0
   27.1146   11.1261   17.2285 C   0  0  0  0  0  0  0  0  0  0  0  0
   27.2781   10.1726   16.2207 C   0  0  0  0  0  0  0  0  0  0  0  0
   23.2485   12.2334   29.8836 H   0  0  0  0  0  0  0  0  0  0  0  0
   23.0982   10.0320   28.6935 H   0  0  0  0  0  0  0  0  0  0  0  0
   27.1276   14.2268   28.3905 H   0  0  0  0  0  0  0  0  0  0  0  0
   29.3636   13.7018   29.0308 H   0  0  0  0  0  0  0  0  0  0  0  0
   27.9864   14.3952   26.3995 H   0  0  0  0  0  0  0  0  0  0  0  0
   27.3121   12.8631   25.9631 H   0  0  0  0  0  0  0  0  0  0  0  0
   30.1475   13.6034   26.7505 H   0  0  0  0  0  0  0  0  0  0  0  0
   27.5517   12.0527   30.8411 H   0  0  0  0  0  0  0  0  0  0  0  0
   29.0634   12.8697   31.2554 H   0  0  0  0  0  0  0  0  0  0  0  0
   27.6521   13.8213   30.8166 H   0  0  0  0  0  0  0  0  0  0  0  0
   30.6956   10.1728   29.2574 H   0  0  0  0  0  0  0  0  0  0  0  0
   29.8975   10.9637   30.5883 H   0  0  0  0  0  0  0  0  0  0  0  0
   30.0428   11.5317   24.9304 H   0  0  0  0  0  0  0  0  0  0  0  0
   29.5638   10.8881   22.9444 H   0  0  0  0  0  0  0  0  0  0  0  0
   30.9157   14.9209   22.1456 H   0  0  0  0  0  0  0  0  0  0  0  0
   31.0922    9.3588   20.6749 H   0  0  0  0  0  0  0  0  0  0  0  0
   29.3298    9.5501   20.4601 H   0  0  0  0  0  0  0  0  0  0  0  0
   31.0268   12.4659   18.0613 H   0  0  0  0  0  0  0  0  0  0  0  0
   32.4042   11.6220   18.8214 H   0  0  0  0  0  0  0  0  0  0  0  0
   30.7882    8.2244   16.3603 H   0  0  0  0  0  0  0  0  0  0  0  0
   28.0387   12.0448   18.9520 H   0  0  0  0  0  0  0  0  0  0  0  0
   26.2053   11.7173   17.2787 H   0  0  0  0  0  0  0  0  0  0  0  0
   26.4987   10.0116   15.4799 H   0  0  0  0  0  0  0  0  0  0  0  0
  1  2  2  0
  2  3  1  0
  3  4  2  0
  4  5  1  0
  5  6  2  0
  1  6  1  0
  1  7  1  0
  4  8  1  0
  5  9  1  0
 10  6  1  0
 11 12  1  0
 13 14  1  0
 14 15  1  0
 11 15  1  0
 12 10  1  0
 10 13  1  0
 12 16  1  0
 11 17  1  0
 17 18  1  0
 18 19  1  0
 18 20  1  0
 18 21  1  0
 15 22  2  0
 14 23  1  0
 23 24  1  0
 24 25  2  0
 24 26  1  0
 28 29  1  0
 29 30  2  0
 30 31  1  0
 27 31  2  0
 27 26  1  0
 26 28  2  0
 31 32  1  0
 30 33  1  0
 34 32  1  1
 34 33  1  0
 34 35  1  0
 35 36  2  0
 36 37  1  0
 37 38  1  0
 38 34  1  0
 38 39  2  0
 36 40  1  0
 35 41  1  0
 41 42  2  0
 40 43  2  0
 43 42  1  0
  2 44  1  0
  3 45  1  0
 10 46  1  6
 12 47  1  6
 13 48  1  0
 13 49  1  0
 14 50  1  6
 16 51  1  0
 16 52  1  0
 16 53  1  0
 17 54  1  0
 17 55  1  0
 23 56  1  0
 27 57  1  0
 28 58  1  0
 32 59  1  0
 32 60  1  0
 33 61  1  0
 33 62  1  0
 37 63  1  0
 41 64  1  0
 42 65  1  0
 43 66  1  0
M  END
> <Uni-Dock RESULT> 
ENERGY=   -4.905  LOWER_BOUND=    0.000  UPPER_BOUND=    0.000
INTER + INTRA:          -4.905
INTER:                  -4.905
INTRA:                   0.000
UNBOUND:                 0.000

$$$$

     RDKit          3D

 66 71  0  0  0  0  0  0  0  0999 V2000
   31.3220   11.5053   18.7553 C   0  0  0  0  0  0  0  0  0  0  0  0
   31.7192   10.2727   18.2332 C   0  0  0  0  0  0  0  0  0  0  0  0
   31.0383    9.1160   18.6009 C   0  0  0  0  0  0  0  0  0  0  0  0
   29.9705    9.2130   19.4844 C   0  0  0  0  0  0  0  0  0  0  0  0
   29.5793   10.4497   19.9988 C   0  0  0  0  0  0  0  0  0  0  0  0
   30.2468   11.6291   19.6485 C   0  0  0  0  0  0  0  0  0  0  0  0
   31.9963   12.5996   18.3735 F   0  0  0  0  0  0  0  0  0  0  0  0
   29.3169    8.1003   19.8444 F   0  0  0  0  0  0  0  0  0  0  0  0
   28.5430   10.4899   20.8472 F   0  0  0  0  0  0  0  0  0  0  0  0
   29.8605   13.0056   20.1757 C   0  0  1  0  0  0  0  0  0  0  0  0
   27.4180   13.1211   19.6717 N   0  0  0  0  0  0  0  0  0  0  0  0
   28.7326   13.7057   19.3601 C   0  0  2  0  0  0  0  0  0  0  0  0
   29.5394   13.0086   21.6909 C   0  0  0  0  0  0  0  0  0  0  0  0
   28.0999   13.4127   22.0354 C   0  0  1  0  0  0  0  0  0  0  0  0
   27.0729   12.9102   21.0035 C   0  0  0  0  0  0  0  0  0  0  0  0
   29.0712   13.8546   17.8741 C   0  0  0  0  0  0  0  0  0  0  0  0
   26.4419   12.7263   18.6331 C   0  0  0  0  0  0  0  0  0  0  0  0
   26.4940   11.2664   18.1735 C   0  0  0  0  0  0  0  0  0  0  0  0
   26.2766   10.3920   19.1744 F   0  0  0  0  0  0  0  0  0  0  0  0
   25.5528   11.0430   17.2244 F   0  0  0  0  0  0  0  0  0  0  0  0
   27.6913   10.9695   17.6161 F   0  0  0  0  0  0  0  0  0  0  0  0
   25.9974   12.4169   21.3453 O   0  0  0  0  0  0  0  0  0  0  0  0
   27.6995   12.9241   23.3507 N   0  0  0  0  0  0  0  0  0  0  0  0
   28.1837   13.4809   24.5109 C   0  0  0  0  0  0  0  0  0  0  0  0
   29.0303   14.3679   24.5195 O   0  0  0  0  0  0  0  0  0  0  0  0
   27.6185   12.9739   25.7852 C   0  0  0  0  0  0  0  0  0  0  0  0
   26.9654   11.7416   25.9009 C   0  0  0  0  0  0  0  0  0  0  0  0
   27.7694   13.7566   26.9349 C   0  0  0  0  0  0  0  0  0  0  0  0
   27.3019   13.4163   28.1663 N   0  0  0  0  0  0  0  0  0  0  0  0
   26.6712   12.2348   28.2291 C   0  0  0  0  0  0  0  0  0  0  0  0
   26.4930   11.3780   27.1504 C   0  0  0  0  0  0  0  0  0  0  0  0
   25.7570   10.1400   27.5524 C   0  0  0  0  0  0  0  0  0  0  0  0
   26.0577   11.6778   29.4842 C   0  0  0  0  0  0  0  0  0  0  0  0
   25.8542   10.2017   29.0937 C   0  0  2  0  0  0  0  0  0  0  0  0
   26.9088    9.2819   29.6614 C   0  0  0  0  0  0  0  0  0  0  0  0
   26.3047    8.3426   30.4850 C   0  0  0  0  0  0  0  0  0  0  0  0
   24.9433    8.5578   30.5199 N   0  0  0  0  0  0  0  0  0  0  0  0
   24.5748    9.6360   29.7373 C   0  0  0  0  0  0  0  0  0  0  0  0
   23.4374   10.0498   29.5876 O   0  0  0  0  0  0  0  0  0  0  0  0
   26.9317    7.3740   31.1527 N   0  0  0  0  0  0  0  0  0  0  0  0
   28.2804    9.2472   29.4968 C   0  0  0  0  0  0  0  0  0  0  0  0
   28.9811    8.2525   30.1775 C   0  0  0  0  0  0  0  0  0  0  0  0
   28.2750    7.3532   30.9802 C   0  0  0  0  0  0  0  0  0  0  0  0
   32.5565   10.2276   17.5426 H   0  0  0  0  0  0  0  0  0  0  0  0
   31.3276    8.1463   18.2085 H   0  0  0  0  0  0  0  0  0  0  0  0
   30.7576   13.6344   20.0739 H   0  0  0  0  0  0  0  0  0  0  0  0
   28.6682   14.7347   19.7436 H   0  0  0  0  0  0  0  0  0  0  0  0
   30.2099   13.7321   22.1764 H   0  0  0  0  0  0  0  0  0  0  0  0
   29.7978   12.0521   22.1622 H   0  0  0  0  0  0  0  0  0  0  0  0
   28.0179   14.5073   22.0564 H   0  0  0  0  0  0  0  0  0  0  0  0
   29.0516   12.9001   17.3421 H   0  0  0  0  0  0  0  0  0  0  0  0
   28.3638   14.5279   17.3780 H   0  0  0  0  0  0  0  0  0  0  0  0
   30.0664   14.2945   17.7475 H   0  0  0  0  0  0  0  0  0  0  0  0
   25.4371   12.9085   19.0336 H   0  0  0  0  0  0  0  0  0  0  0  0
   26.5377   13.3958   17.7746 H   0  0  0  0  0  0  0  0  0  0  0  0
   26.8407   12.3809   23.3633 H   0  0  0  0  0  0  0  0  0  0  0  0
   26.8425   11.0711   25.0581 H   0  0  0  0  0  0  0  0  0  0  0  0
   28.2823   14.7152   26.8955 H   0  0  0  0  0  0  0  0  0  0  0  0
   24.7223   10.2024   27.1972 H   0  0  0  0  0  0  0  0  0  0  0  0
   26.2282    9.2448   27.1328 H   0  0  0  0  0  0  0  0  0  0  0  0
   26.7250   11.8130   30.3412 H   0  0  0  0  0  0  0  0  0  0  0  0
   25.1119   12.1949   29.6785 H   0  0  0  0  0  0  0  0  0  0  0  0
   24.3102    7.9935   31.0632 H   0  0  0  0  0  0  0  0  0  0  0  0
   28.8027    9.9637   28.8705 H   0  0  0  0  0  0  0  0  0  0  0  0
   30.0607    8.1757   30.0906 H   0  0  0  0  0  0  0  0  0  0  0  0
   28.7967    6.5686   31.5227 H   0  0  0  0  0  0  0  0  0  0  0  0
  1  2  2  0
  2  3  1  0
  3  4  2  0
  4  5  1  0
  5  6  2  0
  1  6  1  0
  1  7  1  0
  4  8  1  0
  5  9  1  0
 10  6  1  0
 11 12  1  0
 13 14  1  0
 14 15  1  0
 11 15  1  0
 12 10  1  0
 10 13  1  0
 12 16  1  0
 11 17  1  0
 17 18  1  0
 18 19  1  0
 18 20  1  0
 18 21  1  0
 15 22  2  0
 14 23  1  0
 23 24  1  0
 24 25  2  0
 24 26  1  0
 28 29  1  0
 29 30  2  0
 30 31  1  0
 27 31  2  0
 27 26  1  0
 26 28  2  0
 31 32  1  0
 30 33  1  0
 34 32  1  1
 34 33  1  0
 34 35  1  0
 35 36  2  0
 36 37  1  0
 37 38  1  0
 38 34  1  0
 38 39  2  0
 36 40  1  0
 35 41  1  0
 41 42  2  0
 40 43  2  0
 43 42  1  0
  2 44  1  0
  3 45  1  0
 10 46  1  6
 12 47  1  6
 13 48  1  0
 13 49  1  0
 14 50  1  6
 16 51  1  0
 16 52  1  0
 16 53  1  0
 17 54  1  0
 17 55  1  0
 23 56  1  0
 27 57  1  0
 28 58  1  0
 32 59  1  0
 32 60  1  0
 33 61  1  0
 33 62  1  0
 37 63  1  0
 41 64  1  0
 42 65  1  0
 43 66  1  0
M  END
> <Uni-Dock RESULT> 
ENERGY=   -4.354  LOWER_BOUND=    4.020  UPPER_BOUND=   10.402
INTER + INTRA:          -4.354
INTER:                  -4.354
INTRA:                   0.000
UNBOUND:                 0.000

$$$$

     RDKit          3D

 66 71  0  0  0  0  0  0  0  0999 V2000
   31.4010   11.4630   18.5112 C   0  0  0  0  0  0  0  0  0  0  0  0
   31.8621   10.2348   18.0332 C   0  0  0  0  0  0  0  0  0  0  0  0
   31.2475    9.0577   18.4497 C   0  0  0  0  0  0  0  0  0  0  0  0
   30.1808    9.1303   19.3368 C   0  0  0  0  0  0  0  0  0  0  0  0
   29.7254   10.3626   19.8070 C   0  0  0  0  0  0  0  0  0  0  0  0
   30.3256   11.5623   19.4072 C   0  0  0  0  0  0  0  0  0  0  0  0
   32.0124   12.5770   18.0831 F   0  0  0  0  0  0  0  0  0  0  0  0
   29.5910    7.9982   19.7437 F   0  0  0  0  0  0  0  0  0  0  0  0
   28.6932   10.3788   20.6611 F   0  0  0  0  0  0  0  0  0  0  0  0
   29.8676   12.9349   19.8848 C   0  0  1  0  0  0  0  0  0  0  0  0
   27.4196   12.8980   19.3952 N   0  0  0  0  0  0  0  0  0  0  0  0
   28.6986   13.5409   19.0518 C   0  0  2  0  0  0  0  0  0  0  0  0
   29.5551   12.9784   21.4012 C   0  0  0  0  0  0  0  0  0  0  0  0
   28.0976   13.3164   21.7409 C   0  0  1  0  0  0  0  0  0  0  0  0
   27.0939   12.7197   20.7366 C   0  0  0  0  0  0  0  0  0  0  0  0
   29.0204   13.6510   17.5586 C   0  0  0  0  0  0  0  0  0  0  0  0
   26.4609   12.4113   18.3798 C   0  0  0  0  0  0  0  0  0  0  0  0
   26.5902   10.9398   17.9754 C   0  0  0  0  0  0  0  0  0  0  0  0
   26.4264   10.0938   19.0104 F   0  0  0  0  0  0  0  0  0  0  0  0
   25.6574   10.6294   17.0426 F   0  0  0  0  0  0  0  0  0  0  0  0
   27.7988   10.6874   17.4207 F   0  0  0  0  0  0  0  0  0  0  0  0
   26.0489   12.1821   21.1050 O   0  0  0  0  0  0  0  0  0  0  0  0
   27.7317   12.8575   23.0768 N   0  0  0  0  0  0  0  0  0  0  0  0
   28.1911   13.4838   24.2114 C   0  0  0  0  0  0  0  0  0  0  0  0
   28.9880   14.4152   24.1799 O   0  0  0  0  0  0  0  0  0  0  0  0
   27.6615   12.9959   25.5082 C   0  0  0  0  0  0  0  0  0  0  0  0
   27.0774   11.7352   25.6756 C   0  0  0  0  0  0  0  0  0  0  0  0
   27.7758   13.8291   26.6263 C   0  0  0  0  0  0  0  0  0  0  0  0
   27.3343   13.5113   27.8732 N   0  0  0  0  0  0  0  0  0  0  0  0
   26.7694   12.3004   27.9855 C   0  0  0  0  0  0  0  0  0  0  0  0
   26.6324   11.3946   26.9415 C   0  0  0  0  0  0  0  0  0  0  0  0
   25.9673   10.1347   27.3956 C   0  0  0  0  0  0  0  0  0  0  0  0
   26.1942   11.7593   29.2654 C   0  0  0  0  0  0  0  0  0  0  0  0
   26.0695   10.2605   28.9327 C   0  0  2  0  0  0  0  0  0  0  0  0
   27.1759    9.4218   29.5268 C   0  0  0  0  0  0  0  0  0  0  0  0
   26.6286    8.4832   30.3900 C   0  0  0  0  0  0  0  0  0  0  0  0
   25.2577    8.6252   30.4271 N   0  0  0  0  0  0  0  0  0  0  0  0
   24.8265    9.6511   29.6070 C   0  0  0  0  0  0  0  0  0  0  0  0
   23.6674    9.9963   29.4504 O   0  0  0  0  0  0  0  0  0  0  0  0
   27.3112    7.5764   31.0891 N   0  0  0  0  0  0  0  0  0  0  0  0
   28.5464    9.4555   29.3533 C   0  0  0  0  0  0  0  0  0  0  0  0
   29.3042    8.5271   30.0659 C   0  0  0  0  0  0  0  0  0  0  0  0
   28.6527    7.6222   30.9074 C   0  0  0  0  0  0  0  0  0  0  0  0
   32.6968   10.2089   17.3385 H   0  0  0  0  0  0  0  0  0  0  0  0
   31.5872    8.0909   18.0920 H   0  0  0  0  0  0  0  0  0  0  0  0
   30.7283   13.6072   19.7524 H   0  0  0  0  0  0  0  0  0  0  0  0
   28.5802   14.5788   19.3964 H   0  0  0  0  0  0  0  0  0  0  0  0
   30.1877   13.7553   21.8537 H   0  0  0  0  0  0  0  0  0  0  0  0
   29.8680   12.0561   21.9063 H   0  0  0  0  0  0  0  0  0  0  0  0
   27.9560   14.4050   21.7211 H   0  0  0  0  0  0  0  0  0  0  0  0
   29.0501   12.6772   17.0634 H   0  0  0  0  0  0  0  0  0  0  0  0
   28.2746   14.2654   17.0427 H   0  0  0  0  0  0  0  0  0  0  0  0
   29.9893   14.1393   17.4080 H   0  0  0  0  0  0  0  0  0  0  0  0
   25.4499   12.5537   18.7806 H   0  0  0  0  0  0  0  0  0  0  0  0
   26.5153   13.0516   17.4958 H   0  0  0  0  0  0  0  0  0  0  0  0
   26.9039   12.2692   23.1165 H   0  0  0  0  0  0  0  0  0  0  0  0
   26.9866   11.0273   24.8597 H   0  0  0  0  0  0  0  0  0  0  0  0
   28.2353   14.8120   26.5467 H   0  0  0  0  0  0  0  0  0  0  0  0
   24.9289   10.1270   27.0462 H   0  0  0  0  0  0  0  0  0  0  0  0
   26.4844    9.2510   27.0067 H   0  0  0  0  0  0  0  0  0  0  0  0
   26.8578   11.9633   30.1116 H   0  0  0  0  0  0  0  0  0  0  0  0
   25.2226   12.2313   29.4472 H   0  0  0  0  0  0  0  0  0  0  0  0
   24.6593    8.0485   30.9962 H   0  0  0  0  0  0  0  0  0  0  0  0
   29.0254   10.1748   28.6964 H   0  0  0  0  0  0  0  0  0  0  0  0
   30.3858    8.5059   29.9738 H   0  0  0  0  0  0  0  0  0  0  0  0
   29.2194    6.8884   31.4753 H   0  0  0  0  0  0  0  0  0  0  0  0
  1  2  2  0
  2  3  1  0
  3  4  2  0
  4  5  1  0
  5  6  2  0
  1  6  1  0
  1  7  1  0
  4  8  1  0
  5  9  1  0
 10  6  1  0
 11 12  1  0
 13 14  1  0
 14 15  1  0
 11 15  1  0
 12 10  1  0
 10 13  1  0
 12 16  1  0
 11 17  1  0
 17 18  1  0
 18 19  1  0
 18 20  1  0
 18 21  1  0
 15 22  2  0
 14 23  1  0
 23 24  1  0
 24 25  2  0
 24 26  1  0
 28 29  1  0
 29 30  2  0
 30 31  1  0
 27 31  2  0
 27 26  1  0
 26 28  2  0
 31 32  1  0
 30 33  1  0
 34 32  1  1
 34 33  1  0
 34 35  1  0
 35 36  2  0
 36 37  1  0
 37 38  1  0
 38 34  1  0
 38 39  2  0
 36 40  1  0
 35 41  1  0
 41 42  2  0
 40 43  2  0
 43 42  1  0
  2 44  1  0
  3 45  1  0
 10 46  1  6
 12 47  1  6
 13 48  1  0
 13 49  1  0
 14 50  1  6
 16 51  1  0
 16 52  1  0
 16 53  1  0
 17 54  1  0
 17 55  1  0
 23 56  1  0
 27 57  1  0
 28 58  1  0
 32 59  1  0
 32 60  1  0
 33 61  1  0
 33 62  1  0
 37 63  1  0
 41 64  1  0
 42 65  1  0
 43 66  1  0
M  END
> <Uni-Dock RESULT> 
ENERGY=   -4.344  LOWER_BOUND=    4.046  UPPER_BOUND=   10.422
INTER + INTRA:          -4.344
INTER:                  -4.344
INTRA:                   0.000
UNBOUND:                 0.000

$$$$

     RDKit          3D

 66 71  0  0  0  0  0  0  0  0999 V2000
   20.9473    9.5001   30.6791 C   0  0  0  0  0  0  0  0  0  0  0  0
   20.8436    8.1097   30.7530 C   0  0  0  0  0  0  0  0  0  0  0  0
   21.9631    7.3203   30.5072 C   0  0  0  0  0  0  0  0  0  0  0  0
   23.1678    7.9365   30.1926 C   0  0  0  0  0  0  0  0  0  0  0  0
   23.2622    9.3270   30.1237 C   0  0  0  0  0  0  0  0  0  0  0  0
   22.1526   10.1457   30.3637 C   0  0  0  0  0  0  0  0  0  0  0  0
   19.8500   10.2293   30.9290 F   0  0  0  0  0  0  0  0  0  0  0  0
   24.2457    7.1787   29.9499 F   0  0  0  0  0  0  0  0  0  0  0  0
   24.4468    9.8725   29.8165 F   0  0  0  0  0  0  0  0  0  0  0  0
   22.1990   11.6677   30.3064 C   0  0  1  0  0  0  0  0  0  0  0  0
   24.1160   12.2155   31.8093 N   0  0  0  0  0  0  0  0  0  0  0  0
   22.6597   12.3406   31.6341 C   0  0  2  0  0  0  0  0  0  0  0  0
   23.0037   12.2069   29.0977 C   0  0  0  0  0  0  0  0  0  0  0  0
   24.2402   13.0333   29.4742 C   0  0  1  0  0  0  0  0  0  0  0  0
   24.9514   12.5078   30.7352 C   0  0  0  0  0  0  0  0  0  0  0  0
   21.7977   11.9461   32.8368 C   0  0  0  0  0  0  0  0  0  0  0  0
   24.7433   11.7749   33.0740 C   0  0  0  0  0  0  0  0  0  0  0  0
   25.0407   10.2777   33.1979 C   0  0  0  0  0  0  0  0  0  0  0  0
   25.8781    9.8273   32.2443 F   0  0  0  0  0  0  0  0  0  0  0  0
   25.6097   10.0136   34.3991 F   0  0  0  0  0  0  0  0  0  0  0  0
   23.9047    9.5445   33.1322 F   0  0  0  0  0  0  0  0  0  0  0  0
   26.1781   12.4180   30.7987 O   0  0  0  0  0  0  0  0  0  0  0  0
   25.2138   13.0781   28.3883 N   0  0  0  0  0  0  0  0  0  0  0  0
   25.0021   13.8245   27.2530 C   0  0  0  0  0  0  0  0  0  0  0  0
   23.9612   14.4388   27.0461 O   0  0  0  0  0  0  0  0  0  0  0  0
   26.1115   13.8800   26.2700 C   0  0  0  0  0  0  0  0  0  0  0  0
   27.1453   12.9380   26.2225 C   0  0  0  0  0  0  0  0  0  0  0  0
   26.1092   14.9123   25.3259 C   0  0  0  0  0  0  0  0  0  0  0  0
   27.0612   15.0848   24.3694 N   0  0  0  0  0  0  0  0  0  0  0  0
   28.0398   14.1681   24.3687 C   0  0  0  0  0  0  0  0  0  0  0  0
   28.1159   13.0957   25.2480 C   0  0  0  0  0  0  0  0  0  0  0  0
   29.3234   12.2551   24.9806 C   0  0  0  0  0  0  0  0  0  0  0  0
   29.2019   14.1835   23.4142 C   0  0  0  0  0  0  0  0  0  0  0  0
   29.7518   12.7544   23.5820 C   0  0  2  0  0  0  0  0  0  0  0  0
   29.3447   11.8220   22.4660 C   0  0  0  0  0  0  0  0  0  0  0  0
   30.4804   11.3522   21.8220 C   0  0  0  0  0  0  0  0  0  0  0  0
   31.6066   11.8921   22.4063 N   0  0  0  0  0  0  0  0  0  0  0  0
   31.2859   12.7388   23.4509 C   0  0  0  0  0  0  0  0  0  0  0  0
   32.0842   13.3513   24.1399 O   0  0  0  0  0  0  0  0  0  0  0  0
   30.4981   10.5090   20.7896 N   0  0  0  0  0  0  0  0  0  0  0  0
   28.1027   11.4068   22.0249 C   0  0  0  0  0  0  0  0  0  0  0  0
   28.0694   10.5255   20.9450 C   0  0  0  0  0  0  0  0  0  0  0  0
   29.2732   10.1111   20.3700 C   0  0  0  0  0  0  0  0  0  0  0  0
   19.8889    7.6557   31.0033 H   0  0  0  0  0  0  0  0  0  0  0  0
   21.9080    6.2376   30.5589 H   0  0  0  0  0  0  0  0  0  0  0  0
   21.1647   11.9984   30.1298 H   0  0  0  0  0  0  0  0  0  0  0  0
   22.4949   13.4206   31.5058 H   0  0  0  0  0  0  0  0  0  0  0  0
   22.3380   12.8574   28.5126 H   0  0  0  0  0  0  0  0  0  0  0  0
   23.2705   11.4049   28.3980 H   0  0  0  0  0  0  0  0  0  0  0  0
   23.9426   14.0685   29.6869 H   0  0  0  0  0  0  0  0  0  0  0  0
   21.9587   10.9102   33.1460 H   0  0  0  0  0  0  0  0  0  0  0  0
   22.0114   12.5886   33.6979 H   0  0  0  0  0  0  0  0  0  0  0  0
   20.7341   12.0713   32.6067 H   0  0  0  0  0  0  0  0  0  0  0  0
   25.6963   12.3082   33.1768 H   0  0  0  0  0  0  0  0  0  0  0  0
   24.1318   12.1090   33.9159 H   0  0  0  0  0  0  0  0  0  0  0  0
   26.1544   12.7901   28.6433 H   0  0  0  0  0  0  0  0  0  0  0  0
   27.1910   12.0950   26.9026 H   0  0  0  0  0  0  0  0  0  0  0  0
   25.3183   15.6593   25.3157 H   0  0  0  0  0  0  0  0  0  0  0  0
   30.0816   12.4567   25.7454 H   0  0  0  0  0  0  0  0  0  0  0  0
   29.0746   11.1886   24.9927 H   0  0  0  0  0  0  0  0  0  0  0  0
   28.8703   14.4050   22.3949 H   0  0  0  0  0  0  0  0  0  0  0  0
   29.9167   14.9488   23.7352 H   0  0  0  0  0  0  0  0  0  0  0  0
   32.5415   11.6902   22.0907 H   0  0  0  0  0  0  0  0  0  0  0  0
   27.1833   11.7508   22.4884 H   0  0  0  0  0  0  0  0  0  0  0  0
   27.1236   10.1660   20.5511 H   0  0  0  0  0  0  0  0  0  0  0  0
   29.2760    9.4252   19.5264 H   0  0  0  0  0  0  0  0  0  0  0  0
  1  2  2  0
  2  3  1  0
  3  4  2  0
  4  5  1  0
  5  6  2  0
  1  6  1  0
  1  7  1  0
  4  8  1  0
  5  9  1  0
 10  6  1  0
 11 12  1  0
 13 14  1  0
 14 15  1  0
 11 15  1  0
 12 10  1  0
 10 13  1  0
 12 16  1  0
 11 17  1  0
 17 18  1  0
 18 19  1  0
 18 20  1  0
 18 21  1  0
 15 22  2  0
 14 23  1  0
 23 24  1  0
 24 25  2  0
 24 26  1  0
 28 29  1  0
 29 30  2  0
 30 31  1  0
 27 31  2  0
 27 26  1  0
 26 28  2  0
 31 32  1  0
 30 33  1  0
 34 32  1  1
 34 33  1  0
 34 35  1  0
 35 36  2  0
 36 37  1  0
 37 38  1  0
 38 34  1  0
 38 39  2  0
 36 40  1  0
 35 41  1  0
 41 42  2  0
 40 43  2  0
 43 42  1  0
  2 44  1  0
  3 45  1  0
 10 46  1  6
 12 47  1  6
 13 48  1  0
 13 49  1  0
 14 50  1  6
 16 51  1  0
 16 52  1  0
 16 53  1  0
 17 54  1  0
 17 55  1  0
 23 56  1  0
 27 57  1  0
 28 58  1  0
 32 59  1  0
 32 60  1  0
 33 61  1  0
 33 62  1  0
 37 63  1  0
 41 64  1  0
 42 65  1  0
 43 66  1  0
M  END
> <Uni-Dock RESULT> 
ENERGY=   -4.119  LOWER_BOUND=    3.322  UPPER_BOUND=    5.460
INTER + INTRA:          -4.119
INTER:                  -4.119
INTRA:                   0.000
UNBOUND:                 0.000

$$$$

     RDKit          3D

 66 71  0  0  0  0  0  0  0  0999 V2000
   31.5204   11.8399   18.3626 C   0  0  0  0  0  0  0  0  0  0  0  0
   31.7666   10.7126   17.5764 C   0  0  0  0  0  0  0  0  0  0  0  0
   31.4145    9.4517   18.0487 C   0  0  0  0  0  0  0  0  0  0  0  0
   30.8208    9.3410   19.2999 C   0  0  0  0  0  0  0  0  0  0  0  0
   30.5764   10.4736   20.0772 C   0  0  0  0  0  0  0  0  0  0  0  0
   30.9219   11.7539   19.6289 C   0  0  0  0  0  0  0  0  0  0  0  0
   31.8662   13.0392   17.8727 F   0  0  0  0  0  0  0  0  0  0  0  0
   30.4861    8.1277   19.7593 F   0  0  0  0  0  0  0  0  0  0  0  0
   30.0014   10.3134   21.2768 F   0  0  0  0  0  0  0  0  0  0  0  0
   30.6748   13.0245   20.4329 C   0  0  1  0  0  0  0  0  0  0  0  0
   28.2508   12.8496   21.0050 N   0  0  0  0  0  0  0  0  0  0  0  0
   29.2488   13.6255   20.2506 C   0  0  2  0  0  0  0  0  0  0  0  0
   31.0309   12.8744   21.9328 C   0  0  0  0  0  0  0  0  0  0  0  0
   29.8454   13.0567   22.8895 C   0  0  1  0  0  0  0  0  0  0  0  0
   28.5265   12.4982   22.3232 C   0  0  0  0  0  0  0  0  0  0  0  0
   28.9072   13.9259   18.7884 C   0  0  0  0  0  0  0  0  0  0  0  0
   26.9652   12.4049   20.4247 C   0  0  0  0  0  0  0  0  0  0  0  0
   26.9478   11.0023   19.8100 C   0  0  0  0  0  0  0  0  0  0  0  0
   27.2573   10.0362   20.6957 F   0  0  0  0  0  0  0  0  0  0  0  0
   25.7163   10.7250   19.3169 F   0  0  0  0  0  0  0  0  0  0  0  0
   27.8149   10.9091   18.7748 F   0  0  0  0  0  0  0  0  0  0  0  0
   27.7484   11.8424   23.0169 O   0  0  0  0  0  0  0  0  0  0  0  0
   30.0892   12.4246   24.1818 N   0  0  0  0  0  0  0  0  0  0  0  0
   30.9692   12.9551   25.0955 C   0  0  0  0  0  0  0  0  0  0  0  0
   31.6551   13.9441   24.8609 O   0  0  0  0  0  0  0  0  0  0  0  0
   31.0490   12.2859   26.4169 C   0  0  0  0  0  0  0  0  0  0  0  0
   30.6214   10.9723   26.6412 C   0  0  0  0  0  0  0  0  0  0  0  0
   31.6041   12.9959   27.4869 C   0  0  0  0  0  0  0  0  0  0  0  0
   31.7385   12.5076   28.7495 N   0  0  0  0  0  0  0  0  0  0  0  0
   31.3039   11.2511   28.9230 C   0  0  0  0  0  0  0  0  0  0  0  0
   30.7611   10.4591   27.9194 C   0  0  0  0  0  0  0  0  0  0  0  0
   30.3813    9.1080   28.4355 C   0  0  0  0  0  0  0  0  0  0  0  0
   31.3365   10.5274   30.2410 C   0  0  0  0  0  0  0  0  0  0  0  0
   31.1199    9.0697   29.7926 C   0  0  2  0  0  0  0  0  0  0  0  0
   32.3940    8.2599   29.7549 C   0  0  0  0  0  0  0  0  0  0  0  0
   32.2857    7.1910   30.6331 C   0  0  0  0  0  0  0  0  0  0  0  0
   31.0556    7.2196   31.2552 N   0  0  0  0  0  0  0  0  0  0  0  0
   30.2933    8.2932   30.8342 C   0  0  0  0  0  0  0  0  0  0  0  0
   29.1684    8.5613   31.2213 O   0  0  0  0  0  0  0  0  0  0  0  0
   33.2218    6.2686   30.8568 N   0  0  0  0  0  0  0  0  0  0  0  0
   33.5618    8.4205   29.0337 C   0  0  0  0  0  0  0  0  0  0  0  0
   34.5722    7.4813   29.2354 C   0  0  0  0  0  0  0  0  0  0  0  0
   34.3594    6.4398   30.1419 C   0  0  0  0  0  0  0  0  0  0  0  0
   32.2303   10.8299   16.6010 H   0  0  0  0  0  0  0  0  0  0  0  0
   31.5951    8.5605   17.4562 H   0  0  0  0  0  0  0  0  0  0  0  0
   31.3823   13.7731   20.0461 H   0  0  0  0  0  0  0  0  0  0  0  0
   29.2615   14.6060   20.7489 H   0  0  0  0  0  0  0  0  0  0  0  0
   31.7761   13.6435   22.1811 H   0  0  0  0  0  0  0  0  0  0  0  0
   31.5505   11.9291   22.1336 H   0  0  0  0  0  0  0  0  0  0  0  0
   29.6819   14.1262   23.0764 H   0  0  0  0  0  0  0  0  0  0  0  0
   28.7489   13.0186   18.2000 H   0  0  0  0  0  0  0  0  0  0  0  0
   27.9984   14.5332   18.7166 H   0  0  0  0  0  0  0  0  0  0  0  0
   29.7095   14.5027   18.3156 H   0  0  0  0  0  0  0  0  0  0  0  0
   26.2149   12.4218   21.2246 H   0  0  0  0  0  0  0  0  0  0  0  0
   26.6254   13.1418   19.6927 H   0  0  0  0  0  0  0  0  0  0  0  0
   29.3704   11.7723   24.4828 H   0  0  0  0  0  0  0  0  0  0  0  0
   30.2120   10.3546   25.8501 H   0  0  0  0  0  0  0  0  0  0  0  0
   31.9627   14.0147   27.3560 H   0  0  0  0  0  0  0  0  0  0  0  0
   29.2930    9.0575   28.5517 H   0  0  0  0  0  0  0  0  0  0  0  0
   30.7074    8.3165   27.7522 H   0  0  0  0  0  0  0  0  0  0  0  0
   32.2901   10.6876   30.7538 H   0  0  0  0  0  0  0  0  0  0  0  0
   30.5213   10.8983   30.8715 H   0  0  0  0  0  0  0  0  0  0  0  0
   30.7679    6.5379   31.9386 H   0  0  0  0  0  0  0  0  0  0  0  0
   33.7006    9.2439   28.3401 H   0  0  0  0  0  0  0  0  0  0  0  0
   35.5139    7.5556   28.7002 H   0  0  0  0  0  0  0  0  0  0  0  0
   35.1309    5.6944   30.3189 H   0  0  0  0  0  0  0  0  0  0  0  0
  1  2  2  0
  2  3  1  0
  3  4  2  0
  4  5  1  0
  5  6  2  0
  1  6  1  0
  1  7  1  0
  4  8  1  0
  5  9  1  0
 10  6  1  0
 11 12  1  0
 13 14  1  0
 14 15  1  0
 11 15  1  0
 12 10  1  0
 10 13  1  0
 12 16  1  0
 11 17  1  0
 17 18  1  0
 18 19  1  0
 18 20  1  0
 18 21  1  0
 15 22  2  0
 14 23  1  0
 23 24  1  0
 24 25  2  0
 24 26  1  0
 28 29  1  0
 29 30  2  0
 30 31  1  0
 27 31  2  0
 27 26  1  0
 26 28  2  0
 31 32  1  0
 30 33  1  0
 34 32  1  1
 34 33  1  0
 34 35  1  0
 35 36  2  0
 36 37  1  0
 37 38  1  0
 38 34  1  0
 38 39  2  0
 36 40  1  0
 35 41  1  0
 41 42  2  0
 40 43  2  0
 43 42  1  0
  2 44  1  0
  3 45  1  0
 10 46  1  6
 12 47  1  6
 13 48  1  0
 13 49  1  0
 14 50  1  6
 16 51  1  0
 16 52  1  0
 16 53  1  0
 17 54  1  0
 17 55  1  0
 23 56  1  0
 27 57  1  0
 28 58  1  0
 32 59  1  0
 32 60  1  0
 33 61  1  0
 33 62  1  0
 37 63  1  0
 41 64  1  0
 42 65  1  0
 43 66  1  0
M  END
> <Uni-Dock RESULT> 
ENERGY=   -4.070  LOWER_BOUND=    4.549  UPPER_BOUND=   10.181
INTER + INTRA:          -4.070
INTER:                  -4.070
INTRA:                   0.000
UNBOUND:                 0.000

$$$$

     RDKit          3D

 66 71  0  0  0  0  0  0  0  0999 V2000
   31.2917   11.0608   18.8661 C   0  0  0  0  0  0  0  0  0  0  0  0
   30.9650    9.9717   18.0557 C   0  0  0  0  0  0  0  0  0  0  0  0
   29.9572    9.0965   18.4495 C   0  0  0  0  0  0  0  0  0  0  0  0
   29.2926    9.3272   19.6476 C   0  0  0  0  0  0  0  0  0  0  0  0
   29.6244   10.4199   20.4494 C   0  0  0  0  0  0  0  0  0  0  0  0
   30.6350   11.3151   20.0798 C   0  0  0  0  0  0  0  0  0  0  0  0
   32.2630   11.8872   18.4517 F   0  0  0  0  0  0  0  0  0  0  0  0
   28.3258    8.4829   20.0317 F   0  0  0  0  0  0  0  0  0  0  0  0
   28.9536   10.5985   21.5954 F   0  0  0  0  0  0  0  0  0  0  0  0
   31.0357   12.5260   20.9135 C   0  0  1  0  0  0  0  0  0  0  0  0
   28.8529   13.6760   21.2961 N   0  0  0  0  0  0  0  0  0  0  0  0
   30.1703   13.7946   20.6498 C   0  0  2  0  0  0  0  0  0  0  0  0
   31.1291   12.2177   22.4285 C   0  0  0  0  0  0  0  0  0  0  0  0
   30.1471   13.0105   23.3009 C   0  0  1  0  0  0  0  0  0  0  0  0
   28.7867   13.2394   22.6160 C   0  0  0  0  0  0  0  0  0  0  0  0
   30.1660   14.2225   19.1795 C   0  0  0  0  0  0  0  0  0  0  0  0
   27.5824   13.9832   20.6043 C   0  0  0  0  0  0  0  0  0  0  0  0
   26.8726   12.8031   19.9342 C   0  0  0  0  0  0  0  0  0  0  0  0
   26.5440   11.8262   20.8010 F   0  0  0  0  0  0  0  0  0  0  0  0
   25.7294   13.2235   19.3401 F   0  0  0  0  0  0  0  0  0  0  0  0
   27.6406   12.2552   18.9635 F   0  0  0  0  0  0  0  0  0  0  0  0
   27.7236   13.1045   23.2229 O   0  0  0  0  0  0  0  0  0  0  0  0
   29.9069   12.3535   24.5814 N   0  0  0  0  0  0  0  0  0  0  0  0
   30.8534   12.3373   25.5786 C   0  0  0  0  0  0  0  0  0  0  0  0
   31.9775   12.8058   25.4355 O   0  0  0  0  0  0  0  0  0  0  0  0
   30.4526   11.7367   26.8743 C   0  0  0  0  0  0  0  0  0  0  0  0
   29.3741   10.8558   27.0132 C   0  0  0  0  0  0  0  0  0  0  0  0
   31.2080   12.0467   28.0102 C   0  0  0  0  0  0  0  0  0  0  0  0
   30.9547   11.5695   29.2587 N   0  0  0  0  0  0  0  0  0  0  0  0
   29.9048   10.7403   29.3489 C   0  0  0  0  0  0  0  0  0  0  0  0
   29.1106   10.3547   28.2766 C   0  0  0  0  0  0  0  0  0  0  0  0
   28.0276    9.4183   28.7083 C   0  0  0  0  0  0  0  0  0  0  0  0
   29.4356   10.1187   30.6355 C   0  0  0  0  0  0  0  0  0  0  0  0
   28.5147    8.9994   30.1141 C   0  0  2  0  0  0  0  0  0  0  0  0
   29.1596    7.6342   30.1388 C   0  0  0  0  0  0  0  0  0  0  0  0
   28.4251    6.7934   30.9629 C   0  0  0  0  0  0  0  0  0  0  0  0
   27.3519    7.4782   31.4924 N   0  0  0  0  0  0  0  0  0  0  0  0
   27.3172    8.7904   31.0592 C   0  0  0  0  0  0  0  0  0  0  0  0
   26.4799    9.6202   31.3719 O   0  0  0  0  0  0  0  0  0  0  0  0
   28.7033    5.5150   31.2185 N   0  0  0  0  0  0  0  0  0  0  0  0
   30.2895    7.1421   29.5136 C   0  0  0  0  0  0  0  0  0  0  0  0
   30.6232    5.8096   29.7521 C   0  0  0  0  0  0  0  0  0  0  0  0
   29.8129    5.0480   30.5977 C   0  0  0  0  0  0  0  0  0  0  0  0
   31.5003    9.8176   17.1231 H   0  0  0  0  0  0  0  0  0  0  0  0
   29.6846    8.2431   17.8368 H   0  0  0  0  0  0  0  0  0  0  0  0
   32.0629   12.7788   20.6109 H   0  0  0  0  0  0  0  0  0  0  0  0
   30.6612   14.6197   21.1867 H   0  0  0  0  0  0  0  0  0  0  0  0
   32.1455   12.4714   22.7623 H   0  0  0  0  0  0  0  0  0  0  0  0
   31.0464   11.1422   22.6293 H   0  0  0  0  0  0  0  0  0  0  0  0
   30.5632   14.0031   23.5178 H   0  0  0  0  0  0  0  0  0  0  0  0
   29.5991   13.5365   18.5450 H   0  0  0  0  0  0  0  0  0  0  0  0
   29.7301   15.2209   19.0647 H   0  0  0  0  0  0  0  0  0  0  0  0
   31.1887   14.2789   18.7912 H   0  0  0  0  0  0  0  0  0  0  0  0
   26.8920   14.4029   21.3462 H   0  0  0  0  0  0  0  0  0  0  0  0
   27.7505   14.7835   19.8792 H   0  0  0  0  0  0  0  0  0  0  0  0
   28.9287   12.1876   24.8015 H   0  0  0  0  0  0  0  0  0  0  0  0
   28.7671   10.5475   26.1697 H   0  0  0  0  0  0  0  0  0  0  0  0
   32.0636   12.7158   27.9475 H   0  0  0  0  0  0  0  0  0  0  0  0
   27.0744    9.9575   28.7411 H   0  0  0  0  0  0  0  0  0  0  0  0
   27.9384    8.5710   28.0201 H   0  0  0  0  0  0  0  0  0  0  0  0
   30.2808    9.7479   31.2238 H   0  0  0  0  0  0  0  0  0  0  0  0
   28.8934   10.8713   31.2180 H   0  0  0  0  0  0  0  0  0  0  0  0
   26.6889    7.0594   32.1245 H   0  0  0  0  0  0  0  0  0  0  0  0
   30.9035    7.7600   28.8658 H   0  0  0  0  0  0  0  0  0  0  0  0
   31.5010    5.3664   29.2918 H   0  0  0  0  0  0  0  0  0  0  0  0
   30.0507    4.0068   30.8016 H   0  0  0  0  0  0  0  0  0  0  0  0
  1  2  2  0
  2  3  1  0
  3  4  2  0
  4  5  1  0
  5  6  2  0
  1  6  1  0
  1  7  1  0
  4  8  1  0
  5  9  1  0
 10  6  1  0
 11 12  1  0
 13 14  1  0
 14 15  1  0
 11 15  1  0
 12 10  1  0
 10 13  1  0
 12 16  1  0
 11 17  1  0
 17 18  1  0
 18 19  1  0
 18 20  1  0
 18 21  1  0
 15 22  2  0
 14 23  1  0
 23 24  1  0
 24 25  2  0
 24 26  1  0
 28 29  1  0
 29 30  2  0
 30 31  1  0
 27 31  2  0
 27 26  1  0
 26 28  2  0
 31 32  1  0
 30 33  1  0
 34 32  1  1
 34 33  1  0
 34 35  1  0
 35 36  2  0
 36 37  1  0
 37 38  1  0
 38 34  1  0
 38 39  2  0
 36 40  1  0
 35 41  1  0
 41 42  2  0
 40 43  2  0
 43 42  1  0
  2 44  1  0
  3 45  1  0
 10 46  1  6
 12 47  1  6
 13 48  1  0
 13 49  1  0
 14 50  1  6
 16 51  1  0
 16 52  1  0
 16 53  1  0
 17 54  1  0
 17 55  1  0
 23 56  1  0
 27 57  1  0
 28 58  1  0
 32 59  1  0
 32 60  1  0
 33 61  1  0
 33 62  1  0
 37 63  1  0
 41 64  1  0
 42 65  1  0
 43 66  1  0
M  END
> <Uni-Dock RESULT> 
ENERGY=   -4.069  LOWER_BOUND=    4.101  UPPER_BOUND=   10.162
INTER + INTRA:          -4.069
INTER:                  -4.069
INTRA:                   0.000
UNBOUND:                 0.000

$$$$

     RDKit          3D

 66 71  0  0  0  0  0  0  0  0999 V2000
   34.6188    2.1998   33.6755 C   0  0  0  0  0  0  0  0  0  0  0  0
   34.0480    0.9413   33.4758 C   0  0  0  0  0  0  0  0  0  0  0  0
   33.2988    0.6978   32.3287 C   0  0  0  0  0  0  0  0  0  0  0  0
   33.1346    1.7181   31.4002 C   0  0  0  0  0  0  0  0  0  0  0  0
   33.7111    2.9718   31.6073 C   0  0  0  0  0  0  0  0  0  0  0  0
   34.4676    3.2460   32.7526 C   0  0  0  0  0  0  0  0  0  0  0  0
   35.3402    2.3965   34.7886 F   0  0  0  0  0  0  0  0  0  0  0  0
   32.4089    1.4879   30.2977 F   0  0  0  0  0  0  0  0  0  0  0  0
   33.5233    3.9222   30.6817 F   0  0  0  0  0  0  0  0  0  0  0  0
   35.1230    4.5938   33.0281 C   0  0  1  0  0  0  0  0  0  0  0  0
   36.4049    5.0204   30.9286 N   0  0  0  0  0  0  0  0  0  0  0  0
   36.5264    4.7645   32.3732 C   0  0  2  0  0  0  0  0  0  0  0  0
   34.2029    5.7960   32.7006 C   0  0  0  0  0  0  0  0  0  0  0  0
   34.7346    6.7225   31.5993 C   0  0  1  0  0  0  0  0  0  0  0  0
   35.4820    5.9639   30.4867 C   0  0  0  0  0  0  0  0  0  0  0  0
   37.5174    3.6722   32.7853 C   0  0  0  0  0  0  0  0  0  0  0  0
   37.2078    4.3084   29.9110 C   0  0  0  0  0  0  0  0  0  0  0  0
   36.5711    3.0573   29.2986 C   0  0  0  0  0  0  0  0  0  0  0  0
   35.4055    3.3125   28.6742 F   0  0  0  0  0  0  0  0  0  0  0  0
   37.4099    2.5059   28.3881 F   0  0  0  0  0  0  0  0  0  0  0  0
   36.3391    2.1133   30.2405 F   0  0  0  0  0  0  0  0  0  0  0  0
   35.3138    6.2275   29.2955 O   0  0  0  0  0  0  0  0  0  0  0  0
   33.6652    7.4991   30.9810 N   0  0  0  0  0  0  0  0  0  0  0  0
   33.0566    8.5455   31.6332 C   0  0  0  0  0  0  0  0  0  0  0  0
   33.3179    8.8481   32.7924 O   0  0  0  0  0  0  0  0  0  0  0  0
   32.0618    9.3296   30.8614 C   0  0  0  0  0  0  0  0  0  0  0  0
   31.4266    8.8474   29.7114 C   0  0  0  0  0  0  0  0  0  0  0  0
   31.7225   10.6062   31.3222 C   0  0  0  0  0  0  0  0  0  0  0  0
   30.8289   11.4330   30.7151 N   0  0  0  0  0  0  0  0  0  0  0  0
   30.2544   10.9369   29.6098 C   0  0  0  0  0  0  0  0  0  0  0  0
   30.5075    9.6745   29.0886 C   0  0  0  0  0  0  0  0  0  0  0  0
   29.7024    9.4221   27.8541 C   0  0  0  0  0  0  0  0  0  0  0  0
   29.2578   11.6905   28.7726 C   0  0  0  0  0  0  0  0  0  0  0  0
   28.6540   10.5556   27.9240 C   0  0  2  0  0  0  0  0  0  0  0  0
   27.3057   10.0902   28.4200 C   0  0  0  0  0  0  0  0  0  0  0  0
   26.3565   10.2906   27.4278 C   0  0  0  0  0  0  0  0  0  0  0  0
   26.9515   10.8518   26.3178 N   0  0  0  0  0  0  0  0  0  0  0  0
   28.3053   11.0550   26.5098 C   0  0  0  0  0  0  0  0  0  0  0  0
   29.0740   11.5377   25.6953 O   0  0  0  0  0  0  0  0  0  0  0  0
   25.0599    9.9946   27.5189 N   0  0  0  0  0  0  0  0  0  0  0  0
   26.9110    9.5428   29.6259 C   0  0  0  0  0  0  0  0  0  0  0  0
   25.5627    9.2185   29.7701 C   0  0  0  0  0  0  0  0  0  0  0  0
   24.6895    9.4584   28.7063 C   0  0  0  0  0  0  0  0  0  0  0  0
   34.1951    0.1619   34.2181 H   0  0  0  0  0  0  0  0  0  0  0  0
   32.8454   -0.2722   32.1505 H   0  0  0  0  0  0  0  0  0  0  0  0
   35.2770    4.6417   34.1164 H   0  0  0  0  0  0  0  0  0  0  0  0
   36.9443    5.6979   32.7786 H   0  0  0  0  0  0  0  0  0  0  0  0
   34.0961    6.3977   33.6145 H   0  0  0  0  0  0  0  0  0  0  0  0
   33.1786    5.4732   32.4760 H   0  0  0  0  0  0  0  0  0  0  0  0
   35.4483    7.4372   32.0297 H   0  0  0  0  0  0  0  0  0  0  0  0
   37.2783    2.7013   32.3440 H   0  0  0  0  0  0  0  0  0  0  0  0
   38.5366    3.9349   32.4819 H   0  0  0  0  0  0  0  0  0  0  0  0
   37.5329    3.5565   33.8744 H   0  0  0  0  0  0  0  0  0  0  0  0
   37.4057    5.0102   29.0916 H   0  0  0  0  0  0  0  0  0  0  0  0
   38.1882    4.0666   30.3290 H   0  0  0  0  0  0  0  0  0  0  0  0
   33.6133    7.4276   29.9686 H   0  0  0  0  0  0  0  0  0  0  0  0
   31.6179    7.8555   29.3182 H   0  0  0  0  0  0  0  0  0  0  0  0
   32.1803   11.0169   32.2197 H   0  0  0  0  0  0  0  0  0  0  0  0
   30.3508    9.5078   26.9750 H   0  0  0  0  0  0  0  0  0  0  0  0
   29.2508    8.4244   27.8723 H   0  0  0  0  0  0  0  0  0  0  0  0
   28.5225   12.2014   29.4021 H   0  0  0  0  0  0  0  0  0  0  0  0
   29.7897   12.4311   28.1658 H   0  0  0  0  0  0  0  0  0  0  0  0
   26.4436   11.0875   25.4806 H   0  0  0  0  0  0  0  0  0  0  0  0
   27.6119    9.3732   30.4372 H   0  0  0  0  0  0  0  0  0  0  0  0
   25.1913    8.7881   30.6951 H   0  0  0  0  0  0  0  0  0  0  0  0
   23.6332    9.2158   28.7924 H   0  0  0  0  0  0  0  0  0  0  0  0
  1  2  2  0
  2  3  1  0
  3  4  2  0
  4  5  1  0
  5  6  2  0
  1  6  1  0
  1  7  1  0
  4  8  1  0
  5  9  1  0
 10  6  1  0
 11 12  1  0
 13 14  1  0
 14 15  1  0
 11 15  1  0
 12 10  1  0
 10 13  1  0
 12 16  1  0
 11 17  1  0
 17 18  1  0
 18 19  1  0
 18 20  1  0
 18 21  1  0
 15 22  2  0
 14 23  1  0
 23 24  1  0
 24 25  2  0
 24 26  1  0
 28 29  1  0
 29 30  2  0
 30 31  1  0
 27 31  2  0
 27 26  1  0
 26 28  2  0
 31 32  1  0
 30 33  1  0
 34 32  1  1
 34 33  1  0
 34 35  1  0
 35 36  2  0
 36 37  1  0
 37 38  1  0
 38 34  1  0
 38 39  2  0
 36 40  1  0
 35 41  1  0
 41 42  2  0
 40 43  2  0
 43 42  1  0
  2 44  1  0
  3 45  1  0
 10 46  1  6
 12 47  1  6
 13 48  1  0
 13 49  1  0
 14 50  1  6
 16 51  1  0
 16 52  1  0
 16 53  1  0
 17 54  1  0
 17 55  1  0
 23 56  1  0
 27 57  1  0
 28 58  1  0
 32 59  1  0
 32 60  1  0
 33 61  1  0
 33 62  1  0
 37 63  1  0
 41 64  1  0
 42 65  1  0
 43 66  1  0
M  END
> <Uni-Dock RESULT> 
ENERGY=   -3.950  LOWER_BOUND=    6.807  UPPER_BOUND=   10.972
INTER + INTRA:          -3.950
INTER:                  -3.950
INTRA:                   0.000
UNBOUND:                 0.000

$$$$

     RDKit          3D

 66 71  0  0  0  0  0  0  0  0999 V2000
   27.4369    6.9044   31.4113 C   0  0  0  0  0  0  0  0  0  0  0  0
   28.0701    5.6638   31.5092 C   0  0  0  0  0  0  0  0  0  0  0  0
   29.2646    5.4435   30.8300 C   0  0  0  0  0  0  0  0  0  0  0  0
   29.8056    6.4693   30.0652 C   0  0  0  0  0  0  0  0  0  0  0  0
   29.1668    7.7066   29.9756 C   0  0  0  0  0  0  0  0  0  0  0  0
   27.9635    7.9560   30.6458 C   0  0  0  0  0  0  0  0  0  0  0  0
   26.2913    7.0835   32.0849 F   0  0  0  0  0  0  0  0  0  0  0  0
   30.9526    6.2579   29.4057 F   0  0  0  0  0  0  0  0  0  0  0  0
   29.7295    8.6634   29.2251 F   0  0  0  0  0  0  0  0  0  0  0  0
   27.2255    9.2878   30.5872 C   0  0  1  0  0  0  0  0  0  0  0  0
   29.0037   10.9286   31.2032 N   0  0  0  0  0  0  0  0  0  0  0  0
   27.7234   10.3373   31.6256 C   0  0  2  0  0  0  0  0  0  0  0  0
   27.1733    9.8923   29.1621 C   0  0  0  0  0  0  0  0  0  0  0  0
   27.8777   11.2478   29.0198 C   0  0  1  0  0  0  0  0  0  0  0  0
   29.1456   11.3586   29.8871 C   0  0  0  0  0  0  0  0  0  0  0  0
   27.6562    9.8311   33.0693 C   0  0  0  0  0  0  0  0  0  0  0  0
   30.1642   11.0755   32.1081 C   0  0  0  0  0  0  0  0  0  0  0  0
   31.1863    9.9352   32.0905 C   0  0  0  0  0  0  0  0  0  0  0  0
   31.7405    9.7444   30.8780 F   0  0  0  0  0  0  0  0  0  0  0  0
   32.1907   10.1964   32.9620 F   0  0  0  0  0  0  0  0  0  0  0  0
   30.6247    8.7662   32.4784 F   0  0  0  0  0  0  0  0  0  0  0  0
   30.1868   11.8540   29.4543 O   0  0  0  0  0  0  0  0  0  0  0  0
   28.2479   11.5239   27.6356 N   0  0  0  0  0  0  0  0  0  0  0  0
   27.3114   11.8575   26.6858 C   0  0  0  0  0  0  0  0  0  0  0  0
   26.1073   11.8751   26.9171 O   0  0  0  0  0  0  0  0  0  0  0  0
   27.8203   12.2247   25.3418 C   0  0  0  0  0  0  0  0  0  0  0  0
   29.0921   11.8706   24.8773 C   0  0  0  0  0  0  0  0  0  0  0  0
   26.9753   12.9391   24.4856 C   0  0  0  0  0  0  0  0  0  0  0  0
   27.3105   13.3409   23.2299 N   0  0  0  0  0  0  0  0  0  0  0  0
   28.5422   12.9925   22.8306 C   0  0  0  0  0  0  0  0  0  0  0  0
   29.4430   12.2647   23.5974 C   0  0  0  0  0  0  0  0  0  0  0  0
   30.7252   12.0360   22.8628 C   0  0  0  0  0  0  0  0  0  0  0  0
   29.1229   13.3545   21.4914 C   0  0  0  0  0  0  0  0  0  0  0  0
   30.3273   12.3974   21.4137 C   0  0  2  0  0  0  0  0  0  0  0  0
   30.0750   11.1875   20.5459 C   0  0  0  0  0  0  0  0  0  0  0  0
   30.9842   11.1757   19.4978 C   0  0  0  0  0  0  0  0  0  0  0  0
   31.8160   12.2717   19.5877 N   0  0  0  0  0  0  0  0  0  0  0  0
   31.5077   13.0605   20.6803 C   0  0  0  0  0  0  0  0  0  0  0  0
   32.0798   14.0897   20.9978 O   0  0  0  0  0  0  0  0  0  0  0  0
   31.0543   10.2537   18.5375 N   0  0  0  0  0  0  0  0  0  0  0  0
   29.1395   10.1743   20.6345 C   0  0  0  0  0  0  0  0  0  0  0  0
   29.1714    9.1868   19.6508 C   0  0  0  0  0  0  0  0  0  0  0  0
   30.1314    9.2674   18.6392 C   0  0  0  0  0  0  0  0  0  0  0  0
   27.6247    4.8809   32.1165 H   0  0  0  0  0  0  0  0  0  0  0  0
   29.7760    4.4880   30.8905 H   0  0  0  0  0  0  0  0  0  0  0  0
   26.1779    9.0679   30.8414 H   0  0  0  0  0  0  0  0  0  0  0  0
   27.0118   11.1751   31.5826 H   0  0  0  0  0  0  0  0  0  0  0  0
   26.1166   10.0405   28.8971 H   0  0  0  0  0  0  0  0  0  0  0  0
   27.5376    9.1839   28.4075 H   0  0  0  0  0  0  0  0  0  0  0  0
   27.2025   12.0513   29.3421 H   0  0  0  0  0  0  0  0  0  0  0  0
   28.4063    9.0645   33.2799 H   0  0  0  0  0  0  0  0  0  0  0  0
   27.8094   10.6518   33.7784 H   0  0  0  0  0  0  0  0  0  0  0  0
   26.6685    9.4091   33.2844 H   0  0  0  0  0  0  0  0  0  0  0  0
   30.6928   11.9942   31.8258 H   0  0  0  0  0  0  0  0  0  0  0  0
   29.8080   11.2472   33.1269 H   0  0  0  0  0  0  0  0  0  0  0  0
   29.2274   11.7530   27.4911 H   0  0  0  0  0  0  0  0  0  0  0  0
   29.7850   11.2899   25.4755 H   0  0  0  0  0  0  0  0  0  0  0  0
   25.9730   13.2239   24.7986 H   0  0  0  0  0  0  0  0  0  0  0  0
   31.4959   12.7045   23.2625 H   0  0  0  0  0  0  0  0  0  0  0  0
   31.0608   10.9984   22.9647 H   0  0  0  0  0  0  0  0  0  0  0  0
   28.3921   13.1998   20.6914 H   0  0  0  0  0  0  0  0  0  0  0  0
   29.4238   14.4076   21.5061 H   0  0  0  0  0  0  0  0  0  0  0  0
   32.5481   12.4636   18.9231 H   0  0  0  0  0  0  0  0  0  0  0  0
   28.4012   10.1412   21.4296 H   0  0  0  0  0  0  0  0  0  0  0  0
   28.4602    8.3664   19.6647 H   0  0  0  0  0  0  0  0  0  0  0  0
   30.1779    8.5114   17.8592 H   0  0  0  0  0  0  0  0  0  0  0  0
  1  2  2  0
  2  3  1  0
  3  4  2  0
  4  5  1  0
  5  6  2  0
  1  6  1  0
  1  7  1  0
  4  8  1  0
  5  9  1  0
 10  6  1  0
 11 12  1  0
 13 14  1  0
 14 15  1  0
 11 15  1  0
 12 10  1  0
 10 13  1  0
 12 16  1  0
 11 17  1  0
 17 18  1  0
 18 19  1  0
 18 20  1  0
 18 21  1  0
 15 22  2  0
 14 23  1  0
 23 24  1  0
 24 25  2  0
 24 26  1  0
 28 29  1  0
 29 30  2  0
 30 31  1  0
 27 31  2  0
 27 26  1  0
 26 28  2  0
 31 32  1  0
 30 33  1  0
 34 32  1  1
 34 33  1  0
 34 35  1  0
 35 36  2  0
 36 37  1  0
 37 38  1  0
 38 34  1  0
 38 39  2  0
 36 40  1  0
 35 41  1  0
 41 42  2  0
 40 43  2  0
 43 42  1  0
  2 44  1  0
  3 45  1  0
 10 46  1  6
 12 47  1  6
 13 48  1  0
 13 49  1  0
 14 50  1  6
 16 51  1  0
 16 52  1  0
 16 53  1  0
 17 54  1  0
 17 55  1  0
 23 56  1  0
 27 57  1  0
 28 58  1  0
 32 59  1  0
 32 60  1  0
 33 61  1  0
 33 62  1  0
 37 63  1  0
 41 64  1  0
 42 65  1  0
 43 66  1  0
M  END
> <Uni-Dock RESULT> 
ENERGY=   -3.934  LOWER_BOUND=    2.750  UPPER_BOUND=    4.497
INTER + INTRA:          -3.934
INTER:                  -3.934
INTRA:                   0.000
UNBOUND:                 0.000

$$$$

     RDKit          3D

 66 71  0  0  0  0  0  0  0  0999 V2000
   30.7827   11.8074   21.6991 C   0  0  0  0  0  0  0  0  0  0  0  0
   30.5909   10.8616   20.6900 C   0  0  0  0  0  0  0  0  0  0  0  0
   29.3222   10.3329   20.4720 C   0  0  0  0  0  0  0  0  0  0  0  0
   28.2665   10.7610   21.2673 C   0  0  0  0  0  0  0  0  0  0  0  0
   28.4675   11.7087   22.2716 C   0  0  0  0  0  0  0  0  0  0  0  0
   29.7327   12.2558   22.5150 C   0  0  0  0  0  0  0  0  0  0  0  0
   32.0171   12.3004   21.8761 F   0  0  0  0  0  0  0  0  0  0  0  0
   27.0452   10.2494   21.0632 F   0  0  0  0  0  0  0  0  0  0  0  0
   27.4168   12.0886   23.0111 F   0  0  0  0  0  0  0  0  0  0  0  0
   30.0089   13.2956   23.5940 C   0  0  1  0  0  0  0  0  0  0  0  0
   28.3001   15.0517   23.1145 N   0  0  0  0  0  0  0  0  0  0  0  0
   29.7435   14.7639   23.1454 C   0  0  2  0  0  0  0  0  0  0  0  0
   29.2996   12.9838   24.9352 C   0  0  0  0  0  0  0  0  0  0  0  0
   28.2792   14.0412   25.3763 C   0  0  1  0  0  0  0  0  0  0  0  0
   27.5125   14.6642   24.1947 C   0  0  0  0  0  0  0  0  0  0  0  0
   30.5393   15.1634   21.8995 C   0  0  0  0  0  0  0  0  0  0  0  0
   27.6335   15.7222   21.9774 C   0  0  0  0  0  0  0  0  0  0  0  0
   27.0289   14.8059   20.9095 C   0  0  0  0  0  0  0  0  0  0  0  0
   26.0854   13.9790   21.3992 F   0  0  0  0  0  0  0  0  0  0  0  0
   26.4547   15.5467   19.9308 F   0  0  0  0  0  0  0  0  0  0  0  0
   27.9806   14.0457   20.3189 F   0  0  0  0  0  0  0  0  0  0  0  0
   26.2974   14.8596   24.2401 O   0  0  0  0  0  0  0  0  0  0  0  0
   27.3039   13.4956   26.3144 N   0  0  0  0  0  0  0  0  0  0  0  0
   27.6336   13.2022   27.6166 C   0  0  0  0  0  0  0  0  0  0  0  0
   28.7742   13.3097   28.0537 O   0  0  0  0  0  0  0  0  0  0  0  0
   26.5310   12.7587   28.5042 C   0  0  0  0  0  0  0  0  0  0  0  0
   25.3197   12.2442   28.0284 C   0  0  0  0  0  0  0  0  0  0  0  0
   26.7229   12.8348   29.8879 C   0  0  0  0  0  0  0  0  0  0  0  0
   25.7998   12.4644   30.8160 N   0  0  0  0  0  0  0  0  0  0  0  0
   24.6493   11.9902   30.3167 C   0  0  0  0  0  0  0  0  0  0  0  0
   24.3747   11.8542   28.9619 C   0  0  0  0  0  0  0  0  0  0  0  0
   23.0085   11.2900   28.7358 C   0  0  0  0  0  0  0  0  0  0  0  0
   23.4876   11.5474   31.1630 C   0  0  0  0  0  0  0  0  0  0  0  0
   22.6523   10.7535   30.1408 C   0  0  2  0  0  0  0  0  0  0  0  0
   22.8168    9.2577   30.2668 C   0  0  0  0  0  0  0  0  0  0  0  0
   21.5875    8.6826   30.5560 C   0  0  0  0  0  0  0  0  0  0  0  0
   20.6207    9.6620   30.6384 N   0  0  0  0  0  0  0  0  0  0  0  0
   21.1464   10.9210   30.4158 C   0  0  0  0  0  0  0  0  0  0  0  0
   20.5185   11.9663   30.4310 O   0  0  0  0  0  0  0  0  0  0  0  0
   21.3589    7.3814   30.7345 N   0  0  0  0  0  0  0  0  0  0  0  0
   23.9278    8.4442   30.1507 C   0  0  0  0  0  0  0  0  0  0  0  0
   23.7393    7.0747   30.3315 C   0  0  0  0  0  0  0  0  0  0  0  0
   22.4575    6.5980   30.6167 C   0  0  0  0  0  0  0  0  0  0  0  0
   31.4348   10.5473   20.0823 H   0  0  0  0  0  0  0  0  0  0  0  0
   29.1476    9.5969   19.6937 H   0  0  0  0  0  0  0  0  0  0  0  0
   31.0838   13.2256   23.8177 H   0  0  0  0  0  0  0  0  0  0  0  0
   30.1299   15.4068   23.9501 H   0  0  0  0  0  0  0  0  0  0  0  0
   30.0696   12.9222   25.7176 H   0  0  0  0  0  0  0  0  0  0  0  0
   28.8467   11.9844   24.9316 H   0  0  0  0  0  0  0  0  0  0  0  0
   28.7965   14.8641   25.8870 H   0  0  0  0  0  0  0  0  0  0  0  0
   30.1717   14.6755   20.9932 H   0  0  0  0  0  0  0  0  0  0  0  0
   30.4941   16.2458   21.7377 H   0  0  0  0  0  0  0  0  0  0  0  0
   31.5975   14.9068   22.0191 H   0  0  0  0  0  0  0  0  0  0  0  0
   26.8192   16.3352   22.3827 H   0  0  0  0  0  0  0  0  0  0  0  0
   28.3281   16.4299   21.5179 H   0  0  0  0  0  0  0  0  0  0  0  0
   26.3320   13.6332   26.0511 H   0  0  0  0  0  0  0  0  0  0  0  0
   25.1173   12.1271   26.9699 H   0  0  0  0  0  0  0  0  0  0  0  0
   27.6537   13.2150   30.3034 H   0  0  0  0  0  0  0  0  0  0  0  0
   22.3347   12.0913   28.4125 H   0  0  0  0  0  0  0  0  0  0  0  0
   23.0253   10.5042   27.9731 H   0  0  0  0  0  0  0  0  0  0  0  0
   23.8266   10.9435   32.0105 H   0  0  0  0  0  0  0  0  0  0  0  0
   22.9621   12.4322   31.5380 H   0  0  0  0  0  0  0  0  0  0  0  0
   19.6547    9.4665   30.8463 H   0  0  0  0  0  0  0  0  0  0  0  0
   24.9133    8.8444   29.9339 H   0  0  0  0  0  0  0  0  0  0  0  0
   24.5743    6.3848   30.2558 H   0  0  0  0  0  0  0  0  0  0  0  0
   22.2827    5.5349   30.7633 H   0  0  0  0  0  0  0  0  0  0  0  0
  1  2  2  0
  2  3  1  0
  3  4  2  0
  4  5  1  0
  5  6  2  0
  1  6  1  0
  1  7  1  0
  4  8  1  0
  5  9  1  0
 10  6  1  0
 11 12  1  0
 13 14  1  0
 14 15  1  0
 11 15  1  0
 12 10  1  0
 10 13  1  0
 12 16  1  0
 11 17  1  0
 17 18  1  0
 18 19  1  0
 18 20  1  0
 18 21  1  0
 15 22  2  0
 14 23  1  0
 23 24  1  0
 24 25  2  0
 24 26  1  0
 28 29  1  0
 29 30  2  0
 30 31  1  0
 27 31  2  0
 27 26  1  0
 26 28  2  0
 31 32  1  0
 30 33  1  0
 34 32  1  1
 34 33  1  0
 34 35  1  0
 35 36  2  0
 36 37  1  0
 37 38  1  0
 38 34  1  0
 38 39  2  0
 36 40  1  0
 35 41  1  0
 41 42  2  0
 40 43  2  0
 43 42  1  0
  2 44  1  0
  3 45  1  0
 10 46  1  6
 12 47  1  6
 13 48  1  0
 13 49  1  0
 14 50  1  6
 16 51  1  0
 16 52  1  0
 16 53  1  0
 17 54  1  0
 17 55  1  0
 23 56  1  0
 27 57  1  0
 28 58  1  0
 32 59  1  0
 32 60  1  0
 33 61  1  0
 33 62  1  0
 37 63  1  0
 41 64  1  0
 42 65  1  0
 43 66  1  0
M  END
> <Uni-Dock RESULT> 
ENERGY=   -3.904  LOWER_BOUND=    4.205  UPPER_BOUND=   10.478
INTER + INTRA:          -3.904
INTER:                  -3.904
INTRA:                   0.000
UNBOUND:                 0.000

$$$$
