
     RDKit          3D

 66 71  0  0  0  0  0  0  0  0999 V2000
   29.2282   10.4030   20.9356 C   0  0  0  0  0  0  0  0  0  0  0  0
   29.9701    9.7750   19.9312 C   0  0  0  0  0  0  0  0  0  0  0  0
   30.9271   10.4933   19.2183 C   0  0  0  0  0  0  0  0  0  0  0  0
   31.1251   11.8343   19.5181 C   0  0  0  0  0  0  0  0  0  0  0  0
   30.3816   12.4527   20.5217 C   0  0  0  0  0  0  0  0  0  0  0  0
   29.4188   11.7506   21.2622 C   0  0  0  0  0  0  0  0  0  0  0  0
   28.3004    9.6737   21.5673 F   0  0  0  0  0  0  0  0  0  0  0  0
   32.0353   12.5347   18.8285 F   0  0  0  0  0  0  0  0  0  0  0  0
   30.5877   13.7539   20.7781 F   0  0  0  0  0  0  0  0  0  0  0  0
   28.6467   12.4880   22.3421 C   0  0  1  0  0  0  0  0  0  0  0  0
   26.9488   14.2316   22.8543 N   0  0  0  0  0  0  0  0  0  0  0  0
   27.5278   13.4043   21.7757 C   0  0  2  0  0  0  0  0  0  0  0  0
   28.0660   11.6274   23.4738 C   0  0  0  0  0  0  0  0  0  0  0  0
   27.5612   12.5322   24.5945 C   0  0  1  0  0  0  0  0  0  0  0  0
   26.6674   13.6920   24.1054 C   0  0  0  0  0  0  0  0  0  0  0  0
   26.4352   12.6153   21.0384 C   0  0  0  0  0  0  0  0  0  0  0  0
   26.2712   15.4997   22.5064 C   0  0  0  0  0  0  0  0  0  0  0  0
   24.8077   15.4276   22.0510 C   0  0  0  0  0  0  0  0  0  0  0  0
   24.1488   16.5655   22.3719 F   0  0  0  0  0  0  0  0  0  0  0  0
   24.7376   15.3030   20.7032 F   0  0  0  0  0  0  0  0  0  0  0  0
   24.1321   14.3915   22.5876 F   0  0  0  0  0  0  0  0  0  0  0  0
   25.8256   14.1929   24.8561 O   0  0  0  0  0  0  0  0  0  0  0  0
   26.8139   11.7934   25.6106 N   0  0  0  0  0  0  0  0  0  0  0  0
   27.4556   10.9616   26.5021 C   0  0  0  0  0  0  0  0  0  0  0  0
   28.6558   10.7178   26.4422 O   0  0  0  0  0  0  0  0  0  0  0  0
   26.6359   10.3806   27.5932 C   0  0  0  0  0  0  0  0  0  0  0  0
   27.2686    9.9246   28.7551 C   0  0  0  0  0  0  0  0  0  0  0  0
   25.2495   10.2340   27.4928 C   0  0  0  0  0  0  0  0  0  0  0  0
   24.4600    9.7001   28.4626 N   0  0  0  0  0  0  0  0  0  0  0  0
   25.1074    9.2868   29.5632 C   0  0  0  0  0  0  0  0  0  0  0  0
   26.4800    9.3795   29.7520 C   0  0  0  0  0  0  0  0  0  0  0  0
   26.8922    8.8071   31.0696 C   0  0  0  0  0  0  0  0  0  0  0  0
   24.4323    8.6315   30.7366 C   0  0  0  0  0  0  0  0  0  0  0  0
   25.5377    8.7087   31.8074 C   0  0  2  0  0  0  0  0  0  0  0  0
   25.3233    9.8183   32.8090 C   0  0  0  0  0  0  0  0  0  0  0  0
   25.1973    9.2734   34.0791 C   0  0  0  0  0  0  0  0  0  0  0  0
   25.3054    7.9005   34.0120 N   0  0  0  0  0  0  0  0  0  0  0  0
   25.5059    7.4652   32.7153 C   0  0  0  0  0  0  0  0  0  0  0  0
   25.6376    6.3032   32.3681 O   0  0  0  0  0  0  0  0  0  0  0  0
   25.0006    9.9596   35.2048 N   0  0  0  0  0  0  0  0  0  0  0  0
   25.2394   11.1887   32.6553 C   0  0  0  0  0  0  0  0  0  0  0  0
   25.0331   11.9497   33.8050 C   0  0  0  0  0  0  0  0  0  0  0  0
   24.9221   11.3009   35.0371 C   0  0  0  0  0  0  0  0  0  0  0  0
   29.7896    8.7261   19.7117 H   0  0  0  0  0  0  0  0  0  0  0  0
   31.5113   10.0211   18.4346 H   0  0  0  0  0  0  0  0  0  0  0  0
   29.3875   13.1431   22.8281 H   0  0  0  0  0  0  0  0  0  0  0  0
   27.9841   14.1002   21.0598 H   0  0  0  0  0  0  0  0  0  0  0  0
   27.2470   10.9916   23.1191 H   0  0  0  0  0  0  0  0  0  0  0  0
   28.8356   10.9481   23.8598 H   0  0  0  0  0  0  0  0  0  0  0  0
   28.4191   13.0011   25.0951 H   0  0  0  0  0  0  0  0  0  0  0  0
   25.8123   12.0338   21.7251 H   0  0  0  0  0  0  0  0  0  0  0  0
   25.7681   13.2885   20.4968 H   0  0  0  0  0  0  0  0  0  0  0  0
   26.8543   11.9363   20.2908 H   0  0  0  0  0  0  0  0  0  0  0  0
   26.3082   16.1327   23.4018 H   0  0  0  0  0  0  0  0  0  0  0  0
   26.8751   16.0124   21.7493 H   0  0  0  0  0  0  0  0  0  0  0  0
   25.9401   12.2298   25.8938 H   0  0  0  0  0  0  0  0  0  0  0  0
   28.3470    9.9947   28.8668 H   0  0  0  0  0  0  0  0  0  0  0  0
   24.7063   10.5268   26.5989 H   0  0  0  0  0  0  0  0  0  0  0  0
   27.6076    9.4609   31.5799 H   0  0  0  0  0  0  0  0  0  0  0  0
   27.3521    7.8253   30.9104 H   0  0  0  0  0  0  0  0  0  0  0  0
   24.1767    7.6000   30.4704 H   0  0  0  0  0  0  0  0  0  0  0  0
   23.5199    9.1689   31.0141 H   0  0  0  0  0  0  0  0  0  0  0  0
   25.2412    7.3023   34.8199 H   0  0  0  0  0  0  0  0  0  0  0  0
   25.3259   11.6641   31.6834 H   0  0  0  0  0  0  0  0  0  0  0  0
   24.9579   13.0310   33.7487 H   0  0  0  0  0  0  0  0  0  0  0  0
   24.7609   11.8701   35.9491 H   0  0  0  0  0  0  0  0  0  0  0  0
  1  2  2  0
  2  3  1  0
  3  4  2  0
  4  5  1  0
  5  6  2  0
  1  6  1  0
  1  7  1  0
  4  8  1  0
  5  9  1  0
 10  6  1  0
 11 12  1  0
 13 14  1  0
 14 15  1  0
 11 15  1  0
 12 10  1  0
 10 13  1  0
 12 16  1  0
 11 17  1  0
 17 18  1  0
 18 19  1  0
 18 20  1  0
 18 21  1  0
 15 22  2  0
 14 23  1  0
 23 24  1  0
 24 25  2  0
 24 26  1  0
 28 29  1  0
 29 30  2  0
 30 31  1  0
 27 31  2  0
 27 26  1  0
 26 28  2  0
 31 32  1  0
 30 33  1  0
 34 32  1  1
 34 33  1  0
 34 35  1  0
 35 36  2  0
 36 37  1  0
 37 38  1  0
 38 34  1  0
 38 39  2  0
 36 40  1  0
 35 41  1  0
 41 42  2  0
 40 43  2  0
 43 42  1  0
  2 44  1  0
  3 45  1  0
 10 46  1  1
 12 47  1  1
 13 48  1  0
 13 49  1  0
 14 50  1  1
 16 51  1  0
 16 52  1  0
 16 53  1  0
 17 54  1  0
 17 55  1  0
 23 56  1  0
 27 57  1  0
 28 58  1  0
 32 59  1  0
 32 60  1  0
 33 61  1  0
 33 62  1  0
 37 63  1  0
 41 64  1  0
 42 65  1  0
 43 66  1  0
M  END
> <Uni-Dock RESULT> 
ENERGY=   -4.984  LOWER_BOUND=    0.000  UPPER_BOUND=    0.000
INTER + INTRA:          -4.984
INTER:                  -4.984
INTRA:                   0.000
UNBOUND:                 0.000

$$$$

     RDKit          3D

 66 71  0  0  0  0  0  0  0  0999 V2000
   29.2297   10.4001   20.9325 C   0  0  0  0  0  0  0  0  0  0  0  0
   29.9716    9.7717   19.9283 C   0  0  0  0  0  0  0  0  0  0  0  0
   30.9283   10.4896   19.2148 C   0  0  0  0  0  0  0  0  0  0  0  0
   31.1261   11.8309   19.5137 C   0  0  0  0  0  0  0  0  0  0  0  0
   30.3826   12.4498   20.5170 C   0  0  0  0  0  0  0  0  0  0  0  0
   29.4201   11.7479   21.2582 C   0  0  0  0  0  0  0  0  0  0  0  0
   28.3022    9.6710   21.5648 F   0  0  0  0  0  0  0  0  0  0  0  0
   32.0360   12.5310   18.8235 F   0  0  0  0  0  0  0  0  0  0  0  0
   30.5885   13.7512   20.7725 F   0  0  0  0  0  0  0  0  0  0  0  0
   28.6481   12.4860   22.3377 C   0  0  1  0  0  0  0  0  0  0  0  0
   26.9499   14.2296   22.8491 N   0  0  0  0  0  0  0  0  0  0  0  0
   27.5289   13.4017   21.7709 C   0  0  2  0  0  0  0  0  0  0  0  0
   28.0677   11.6260   23.4701 C   0  0  0  0  0  0  0  0  0  0  0  0
   27.5630   12.5314   24.5903 C   0  0  1  0  0  0  0  0  0  0  0  0
   26.6688   13.6907   24.1006 C   0  0  0  0  0  0  0  0  0  0  0  0
   26.4362   12.6119   21.0343 C   0  0  0  0  0  0  0  0  0  0  0  0
   26.2720   15.4973   22.5005 C   0  0  0  0  0  0  0  0  0  0  0  0
   24.8084   15.4246   22.0454 C   0  0  0  0  0  0  0  0  0  0  0  0
   24.1494   16.5625   22.3657 F   0  0  0  0  0  0  0  0  0  0  0  0
   24.7381   15.2991   20.6977 F   0  0  0  0  0  0  0  0  0  0  0  0
   24.1332   14.3887   22.5827 F   0  0  0  0  0  0  0  0  0  0  0  0
   25.8270   14.1919   24.8511 O   0  0  0  0  0  0  0  0  0  0  0  0
   26.8159   11.7931   25.6070 N   0  0  0  0  0  0  0  0  0  0  0  0
   27.4580   10.9619   26.4989 C   0  0  0  0  0  0  0  0  0  0  0  0
   28.6583   10.7184   26.4389 O   0  0  0  0  0  0  0  0  0  0  0  0
   26.6386   10.3816   27.5905 C   0  0  0  0  0  0  0  0  0  0  0  0
   27.2716    9.9264   28.7526 C   0  0  0  0  0  0  0  0  0  0  0  0
   25.2522   10.2346   27.4904 C   0  0  0  0  0  0  0  0  0  0  0  0
   24.4630    9.7012   28.4608 N   0  0  0  0  0  0  0  0  0  0  0  0
   25.1107    9.2887   29.5615 C   0  0  0  0  0  0  0  0  0  0  0  0
   26.4832    9.3818   29.7500 C   0  0  0  0  0  0  0  0  0  0  0  0
   26.8958    8.8103   31.0678 C   0  0  0  0  0  0  0  0  0  0  0  0
   24.4359    8.6340   30.7355 C   0  0  0  0  0  0  0  0  0  0  0  0
   25.5415    8.7121   31.8060 C   0  0  2  0  0  0  0  0  0  0  0  0
   25.3270    9.8223   32.8070 C   0  0  0  0  0  0  0  0  0  0  0  0
   25.2013    9.2782   34.0774 C   0  0  0  0  0  0  0  0  0  0  0  0
   25.3097    7.9053   34.0112 N   0  0  0  0  0  0  0  0  0  0  0  0
   25.5101    7.4692   32.7147 C   0  0  0  0  0  0  0  0  0  0  0  0
   25.6419    6.3071   32.3682 O   0  0  0  0  0  0  0  0  0  0  0  0
   25.0047    9.9651   35.2027 N   0  0  0  0  0  0  0  0  0  0  0  0
   25.2428   11.1927   32.6523 C   0  0  0  0  0  0  0  0  0  0  0  0
   25.0366   11.9543   33.8015 C   0  0  0  0  0  0  0  0  0  0  0  0
   24.9259   11.3063   35.0341 C   0  0  0  0  0  0  0  0  0  0  0  0
   29.7912    8.7226   19.7095 H   0  0  0  0  0  0  0  0  0  0  0  0
   31.5124   10.0170   18.4313 H   0  0  0  0  0  0  0  0  0  0  0  0
   29.3888   13.1415   22.8232 H   0  0  0  0  0  0  0  0  0  0  0  0
   27.9849   14.0972   21.0545 H   0  0  0  0  0  0  0  0  0  0  0  0
   27.2488   10.9897   23.1159 H   0  0  0  0  0  0  0  0  0  0  0  0
   28.8375   10.9471   23.8563 H   0  0  0  0  0  0  0  0  0  0  0  0
   28.4208   13.0008   25.0904 H   0  0  0  0  0  0  0  0  0  0  0  0
   25.8136   12.0308   21.7215 H   0  0  0  0  0  0  0  0  0  0  0  0
   25.7690   13.2847   20.4924 H   0  0  0  0  0  0  0  0  0  0  0  0
   26.8553   11.9326   20.2871 H   0  0  0  0  0  0  0  0  0  0  0  0
   26.3090   16.1309   23.3955 H   0  0  0  0  0  0  0  0  0  0  0  0
   26.8756   16.0096   21.7429 H   0  0  0  0  0  0  0  0  0  0  0  0
   25.9421   12.2295   25.8900 H   0  0  0  0  0  0  0  0  0  0  0  0
   28.3500    9.9967   28.8640 H   0  0  0  0  0  0  0  0  0  0  0  0
   24.7087   10.5268   26.5965 H   0  0  0  0  0  0  0  0  0  0  0  0
   27.6112    9.4646   31.5777 H   0  0  0  0  0  0  0  0  0  0  0  0
   27.3559    7.8285   30.9093 H   0  0  0  0  0  0  0  0  0  0  0  0
   24.1804    7.6023   30.4699 H   0  0  0  0  0  0  0  0  0  0  0  0
   23.5234    9.1715   31.0128 H   0  0  0  0  0  0  0  0  0  0  0  0
   25.2458    7.3076   34.8194 H   0  0  0  0  0  0  0  0  0  0  0  0
   25.3291   11.6674   31.6801 H   0  0  0  0  0  0  0  0  0  0  0  0
   24.9612   13.0356   33.7446 H   0  0  0  0  0  0  0  0  0  0  0  0
   24.7648   11.8760   35.9458 H   0  0  0  0  0  0  0  0  0  0  0  0
  1  2  2  0
  2  3  1  0
  3  4  2  0
  4  5  1  0
  5  6  2  0
  1  6  1  0
  1  7  1  0
  4  8  1  0
  5  9  1  0
 10  6  1  0
 11 12  1  0
 13 14  1  0
 14 15  1  0
 11 15  1  0
 12 10  1  0
 10 13  1  0
 12 16  1  0
 11 17  1  0
 17 18  1  0
 18 19  1  0
 18 20  1  0
 18 21  1  0
 15 22  2  0
 14 23  1  0
 23 24  1  0
 24 25  2  0
 24 26  1  0
 28 29  1  0
 29 30  2  0
 30 31  1  0
 27 31  2  0
 27 26  1  0
 26 28  2  0
 31 32  1  0
 30 33  1  0
 34 32  1  1
 34 33  1  0
 34 35  1  0
 35 36  2  0
 36 37  1  0
 37 38  1  0
 38 34  1  0
 38 39  2  0
 36 40  1  0
 35 41  1  0
 41 42  2  0
 40 43  2  0
 43 42  1  0
  2 44  1  0
  3 45  1  0
 10 46  1  1
 12 47  1  1
 13 48  1  0
 13 49  1  0
 14 50  1  1
 16 51  1  0
 16 52  1  0
 16 53  1  0
 17 54  1  0
 17 55  1  0
 23 56  1  0
 27 57  1  0
 28 58  1  0
 32 59  1  0
 32 60  1  0
 33 61  1  0
 33 62  1  0
 37 63  1  0
 41 64  1  0
 42 65  1  0
 43 66  1  0
M  END
> <Uni-Dock RESULT> 
ENERGY=   -4.982  LOWER_BOUND=    0.005  UPPER_BOUND=    0.005
INTER + INTRA:          -4.982
INTER:                  -4.982
INTRA:                   0.000
UNBOUND:                 0.000

$$$$

     RDKit          3D

 66 71  0  0  0  0  0  0  0  0999 V2000
   31.7743   14.0487   26.2313 C   0  0  0  0  0  0  0  0  0  0  0  0
   32.1861   15.2713   25.6935 C   0  0  0  0  0  0  0  0  0  0  0  0
   32.9351   15.3002   24.5196 C   0  0  0  0  0  0  0  0  0  0  0  0
   33.2665   14.1019   23.9017 C   0  0  0  0  0  0  0  0  0  0  0  0
   32.8513   12.8870   24.4442 C   0  0  0  0  0  0  0  0  0  0  0  0
   32.0873   12.8294   25.6195 C   0  0  0  0  0  0  0  0  0  0  0  0
   31.0836   14.0781   27.3775 F   0  0  0  0  0  0  0  0  0  0  0  0
   33.9969   14.1211   22.7790 F   0  0  0  0  0  0  0  0  0  0  0  0
   33.1995   11.7457   23.8298 F   0  0  0  0  0  0  0  0  0  0  0  0
   31.6686   11.4706   26.1529 C   0  0  1  0  0  0  0  0  0  0  0  0
   32.4026    9.3362   27.1973 N   0  0  0  0  0  0  0  0  0  0  0  0
   32.8184   10.7170   26.8757 C   0  0  2  0  0  0  0  0  0  0  0  0
   30.4149   11.4427   27.0395 C   0  0  0  0  0  0  0  0  0  0  0  0
   29.9839    9.9964   27.2674 C   0  0  1  0  0  0  0  0  0  0  0  0
   31.1348    9.0633   27.7009 C   0  0  0  0  0  0  0  0  0  0  0  0
   33.3084   11.4527   28.1322 C   0  0  0  0  0  0  0  0  0  0  0  0
   33.4382    8.2990   27.3978 C   0  0  0  0  0  0  0  0  0  0  0  0
   34.1005    8.2065   28.7788 C   0  0  0  0  0  0  0  0  0  0  0  0
   34.4972    6.9385   29.0366 F   0  0  0  0  0  0  0  0  0  0  0  0
   35.2127    8.9798   28.8224 F   0  0  0  0  0  0  0  0  0  0  0  0
   33.2946    8.6019   29.7849 F   0  0  0  0  0  0  0  0  0  0  0  0
   30.9019    8.0482   28.3631 O   0  0  0  0  0  0  0  0  0  0  0  0
   28.9213    9.8843   28.2651 N   0  0  0  0  0  0  0  0  0  0  0  0
   27.6319   10.2771   27.9791 C   0  0  0  0  0  0  0  0  0  0  0  0
   27.3183   10.8224   26.9266 O   0  0  0  0  0  0  0  0  0  0  0  0
   26.5942    9.9784   28.9960 C   0  0  0  0  0  0  0  0  0  0  0  0
   25.2512    9.9230   28.6065 C   0  0  0  0  0  0  0  0  0  0  0  0
   26.9010    9.7855   30.3459 C   0  0  0  0  0  0  0  0  0  0  0  0
   25.9831    9.5183   31.3130 N   0  0  0  0  0  0  0  0  0  0  0  0
   24.7097    9.4632   30.8925 C   0  0  0  0  0  0  0  0  0  0  0  0
   24.3048    9.6513   29.5777 C   0  0  0  0  0  0  0  0  0  0  0  0
   22.8197    9.5535   29.4420 C   0  0  0  0  0  0  0  0  0  0  0  0
   23.5364    9.2212   31.8018 C   0  0  0  0  0  0  0  0  0  0  0  0
   22.4234    8.9005   30.7855 C   0  0  2  0  0  0  0  0  0  0  0  0
   22.1301    7.4239   30.6663 C   0  0  0  0  0  0  0  0  0  0  0  0
   20.8110    7.1864   31.0262 C   0  0  0  0  0  0  0  0  0  0  0  0
   20.2011    8.3721   31.3773 N   0  0  0  0  0  0  0  0  0  0  0  0
   21.0671    9.4446   31.2717 C   0  0  0  0  0  0  0  0  0  0  0  0
   20.7917   10.6072   31.5172 O   0  0  0  0  0  0  0  0  0  0  0  0
   20.2087    5.9973   31.0369 N   0  0  0  0  0  0  0  0  0  0  0  0
   22.9232    6.3596   30.2827 C   0  0  0  0  0  0  0  0  0  0  0  0
   22.3375    5.0946   30.2787 C   0  0  0  0  0  0  0  0  0  0  0  0
   20.9990    4.9655   30.6572 C   0  0  0  0  0  0  0  0  0  0  0  0
   31.9194   16.1941   26.2017 H   0  0  0  0  0  0  0  0  0  0  0  0
   33.2636   16.2410   24.0891 H   0  0  0  0  0  0  0  0  0  0  0  0
   31.4047   10.8807   25.2605 H   0  0  0  0  0  0  0  0  0  0  0  0
   33.6641   10.6342   26.1807 H   0  0  0  0  0  0  0  0  0  0  0  0
   30.5914   11.9292   28.0054 H   0  0  0  0  0  0  0  0  0  0  0  0
   29.6040   12.0030   26.5585 H   0  0  0  0  0  0  0  0  0  0  0  0
   29.5956    9.5821   26.3273 H   0  0  0  0  0  0  0  0  0  0  0  0
   32.5763   11.4132   28.9447 H   0  0  0  0  0  0  0  0  0  0  0  0
   34.2284   11.0040   28.5113 H   0  0  0  0  0  0  0  0  0  0  0  0
   33.5433   12.5008   27.9276 H   0  0  0  0  0  0  0  0  0  0  0  0
   32.9597    7.3327   27.1951 H   0  0  0  0  0  0  0  0  0  0  0  0
   34.2024    8.4258   26.6228 H   0  0  0  0  0  0  0  0  0  0  0  0
   29.0658    9.1528   28.9566 H   0  0  0  0  0  0  0  0  0  0  0  0
   24.9633   10.0918   27.5727 H   0  0  0  0  0  0  0  0  0  0  0  0
   27.9187    9.8606   30.7181 H   0  0  0  0  0  0  0  0  0  0  0  0
   22.5396    8.9455   28.5750 H   0  0  0  0  0  0  0  0  0  0  0  0
   22.3990   10.5588   29.3274 H   0  0  0  0  0  0  0  0  0  0  0  0
   23.3336   10.1340   32.3727 H   0  0  0  0  0  0  0  0  0  0  0  0
   23.7413    8.3998   32.4959 H   0  0  0  0  0  0  0  0  0  0  0  0
   19.2406    8.4311   31.6748 H   0  0  0  0  0  0  0  0  0  0  0  0
   23.9620    6.4909   29.9973 H   0  0  0  0  0  0  0  0  0  0  0  0
   22.9093    4.2192   29.9876 H   0  0  0  0  0  0  0  0  0  0  0  0
   20.5177    3.9908   30.6631 H   0  0  0  0  0  0  0  0  0  0  0  0
  1  2  2  0
  2  3  1  0
  3  4  2  0
  4  5  1  0
  5  6  2  0
  1  6  1  0
  1  7  1  0
  4  8  1  0
  5  9  1  0
 10  6  1  0
 11 12  1  0
 13 14  1  0
 14 15  1  0
 11 15  1  0
 12 10  1  0
 10 13  1  0
 12 16  1  0
 11 17  1  0
 17 18  1  0
 18 19  1  0
 18 20  1  0
 18 21  1  0
 15 22  2  0
 14 23  1  0
 23 24  1  0
 24 25  2  0
 24 26  1  0
 28 29  1  0
 29 30  2  0
 30 31  1  0
 27 31  2  0
 27 26  1  0
 26 28  2  0
 31 32  1  0
 30 33  1  0
 34 32  1  1
 34 33  1  0
 34 35  1  0
 35 36  2  0
 36 37  1  0
 37 38  1  0
 38 34  1  0
 38 39  2  0
 36 40  1  0
 35 41  1  0
 41 42  2  0
 40 43  2  0
 43 42  1  0
  2 44  1  0
  3 45  1  0
 10 46  1  1
 12 47  1  1
 13 48  1  0
 13 49  1  0
 14 50  1  1
 16 51  1  0
 16 52  1  0
 16 53  1  0
 17 54  1  0
 17 55  1  0
 23 56  1  0
 27 57  1  0
 28 58  1  0
 32 59  1  0
 32 60  1  0
 33 61  1  0
 33 62  1  0
 37 63  1  0
 41 64  1  0
 42 65  1  0
 43 66  1  0
M  END
> <Uni-Dock RESULT> 
ENERGY=   -4.144  LOWER_BOUND=    4.892  UPPER_BOUND=    7.139
INTER + INTRA:          -4.144
INTER:                  -4.144
INTRA:                   0.000
UNBOUND:                 0.000

$$$$

     RDKit          3D

 66 71  0  0  0  0  0  0  0  0999 V2000
   32.0806   11.3344   27.0851 C   0  0  0  0  0  0  0  0  0  0  0  0
   33.4732   11.2310   27.1455 C   0  0  0  0  0  0  0  0  0  0  0  0
   34.0728    9.9887   27.3379 C   0  0  0  0  0  0  0  0  0  0  0  0
   33.2682    8.8653   27.4724 C   0  0  0  0  0  0  0  0  0  0  0  0
   31.8803    8.9769   27.4103 C   0  0  0  0  0  0  0  0  0  0  0  0
   31.2505   10.2140   27.2070 C   0  0  0  0  0  0  0  0  0  0  0  0
   31.5570   12.5564   26.9299 F   0  0  0  0  0  0  0  0  0  0  0  0
   33.8373    7.6688   27.6698 F   0  0  0  0  0  0  0  0  0  0  0  0
   31.1303    7.8737   27.5573 F   0  0  0  0  0  0  0  0  0  0  0  0
   29.7338   10.2609   27.1487 C   0  0  1  0  0  0  0  0  0  0  0  0
   27.6012   10.0201   28.4054 N   0  0  0  0  0  0  0  0  0  0  0  0
   29.0651   10.1619   28.5470 C   0  0  2  0  0  0  0  0  0  0  0  0
   29.1169   11.4385   26.3794 C   0  0  0  0  0  0  0  0  0  0  0  0
   27.6219   11.1963   26.1902 C   0  0  1  0  0  0  0  0  0  0  0  0
   26.8886   10.7800   27.4832 C   0  0  0  0  0  0  0  0  0  0  0  0
   29.4192   11.3485   29.4563 C   0  0  0  0  0  0  0  0  0  0  0  0
   26.8261    9.4055   29.5052 C   0  0  0  0  0  0  0  0  0  0  0  0
   26.4227   10.3011   30.6841 C   0  0  0  0  0  0  0  0  0  0  0  0
   25.2705    9.8657   31.2450 F   0  0  0  0  0  0  0  0  0  0  0  0
   27.3686   10.2605   31.6539 F   0  0  0  0  0  0  0  0  0  0  0  0
   26.2539   11.5935   30.3391 F   0  0  0  0  0  0  0  0  0  0  0  0
   25.6839   11.0095   27.6212 O   0  0  0  0  0  0  0  0  0  0  0  0
   26.9344   12.3663   25.6465 N   0  0  0  0  0  0  0  0  0  0  0  0
   27.0930   12.7369   24.3290 C   0  0  0  0  0  0  0  0  0  0  0  0
   27.8772   12.1796   23.5687 O   0  0  0  0  0  0  0  0  0  0  0  0
   26.2347   13.8387   23.8298 C   0  0  0  0  0  0  0  0  0  0  0  0
   26.0079   13.9593   22.4542 C   0  0  0  0  0  0  0  0  0  0  0  0
   25.6686   14.7924   24.6806 C   0  0  0  0  0  0  0  0  0  0  0  0
   24.8835   15.8228   24.2672 N   0  0  0  0  0  0  0  0  0  0  0  0
   24.6836   15.8929   22.9419 C   0  0  0  0  0  0  0  0  0  0  0  0
   25.2108   15.0015   22.0169 C   0  0  0  0  0  0  0  0  0  0  0  0
   24.8261   15.3689   20.6203 C   0  0  0  0  0  0  0  0  0  0  0  0
   23.8825   16.9746   22.2709 C   0  0  0  0  0  0  0  0  0  0  0  0
   23.6809   16.3777   20.8646 C   0  0  2  0  0  0  0  0  0  0  0  0
   22.3086   15.7820   20.6591 C   0  0  0  0  0  0  0  0  0  0  0  0
   21.6656   16.4529   19.6285 C   0  0  0  0  0  0  0  0  0  0  0  0
   22.4857   17.4438   19.1318 N   0  0  0  0  0  0  0  0  0  0  0  0
   23.6984   17.4849   19.7943 C   0  0  0  0  0  0  0  0  0  0  0  0
   24.6106   18.2598   19.5593 O   0  0  0  0  0  0  0  0  0  0  0  0
   20.4397   16.1918   19.1748 N   0  0  0  0  0  0  0  0  0  0  0  0
   21.6524   14.7485   21.2995 C   0  0  0  0  0  0  0  0  0  0  0  0
   20.3661   14.4383   20.8604 C   0  0  0  0  0  0  0  0  0  0  0  0
   19.8110   15.1757   19.8118 C   0  0  0  0  0  0  0  0  0  0  0  0
   34.0792   12.1274   27.0449 H   0  0  0  0  0  0  0  0  0  0  0  0
   35.1528    9.8910   27.3880 H   0  0  0  0  0  0  0  0  0  0  0  0
   29.4402    9.3614   26.5841 H   0  0  0  0  0  0  0  0  0  0  0  0
   29.4216    9.2447   29.0334 H   0  0  0  0  0  0  0  0  0  0  0  0
   29.2710   12.3888   26.9028 H   0  0  0  0  0  0  0  0  0  0  0  0
   29.6050   11.5442   25.4031 H   0  0  0  0  0  0  0  0  0  0  0  0
   27.4760   10.3713   25.4800 H   0  0  0  0  0  0  0  0  0  0  0  0
   28.9371   12.2755   29.1307 H   0  0  0  0  0  0  0  0  0  0  0  0
   29.0927   11.1635   30.4813 H   0  0  0  0  0  0  0  0  0  0  0  0
   30.4982   11.5178   29.5069 H   0  0  0  0  0  0  0  0  0  0  0  0
   25.9045    9.0110   29.0591 H   0  0  0  0  0  0  0  0  0  0  0  0
   27.3822    8.5342   29.8690 H   0  0  0  0  0  0  0  0  0  0  0  0
   26.0650   12.6029   26.1180 H   0  0  0  0  0  0  0  0  0  0  0  0
   26.4486   13.2562   21.7529 H   0  0  0  0  0  0  0  0  0  0  0  0
   25.8443   14.7795   25.7524 H   0  0  0  0  0  0  0  0  0  0  0  0
   24.5036   14.4892   20.0531 H   0  0  0  0  0  0  0  0  0  0  0  0
   25.6844   15.8272   20.1164 H   0  0  0  0  0  0  0  0  0  0  0  0
   24.4726   17.8974   22.2550 H   0  0  0  0  0  0  0  0  0  0  0  0
   22.9442   17.1557   22.8049 H   0  0  0  0  0  0  0  0  0  0  0  0
   22.2166   18.0562   18.3787 H   0  0  0  0  0  0  0  0  0  0  0  0
   22.1087   14.1958   22.1145 H   0  0  0  0  0  0  0  0  0  0  0  0
   19.7995   13.6372   21.3242 H   0  0  0  0  0  0  0  0  0  0  0  0
   18.8100   14.9549   19.4500 H   0  0  0  0  0  0  0  0  0  0  0  0
  1  2  2  0
  2  3  1  0
  3  4  2  0
  4  5  1  0
  5  6  2  0
  1  6  1  0
  1  7  1  0
  4  8  1  0
  5  9  1  0
 10  6  1  0
 11 12  1  0
 13 14  1  0
 14 15  1  0
 11 15  1  0
 12 10  1  0
 10 13  1  0
 12 16  1  0
 11 17  1  0
 17 18  1  0
 18 19  1  0
 18 20  1  0
 18 21  1  0
 15 22  2  0
 14 23  1  0
 23 24  1  0
 24 25  2  0
 24 26  1  0
 28 29  1  0
 29 30  2  0
 30 31  1  0
 27 31  2  0
 27 26  1  0
 26 28  2  0
 31 32  1  0
 30 33  1  0
 34 32  1  1
 34 33  1  0
 34 35  1  0
 35 36  2  0
 36 37  1  0
 37 38  1  0
 38 34  1  0
 38 39  2  0
 36 40  1  0
 35 41  1  0
 41 42  2  0
 40 43  2  0
 43 42  1  0
  2 44  1  0
  3 45  1  0
 10 46  1  1
 12 47  1  1
 13 48  1  0
 13 49  1  0
 14 50  1  1
 16 51  1  0
 16 52  1  0
 16 53  1  0
 17 54  1  0
 17 55  1  0
 23 56  1  0
 27 57  1  0
 28 58  1  0
 32 59  1  0
 32 60  1  0
 33 61  1  0
 33 62  1  0
 37 63  1  0
 41 64  1  0
 42 65  1  0
 43 66  1  0
M  END
> <Uni-Dock RESULT> 
ENERGY=   -3.935  LOWER_BOUND=    4.674  UPPER_BOUND=   10.302
INTER + INTRA:          -3.935
INTER:                  -3.935
INTRA:                   0.000
UNBOUND:                 0.000

$$$$

     RDKit          3D

 66 71  0  0  0  0  0  0  0  0999 V2000
   29.7786   15.9490   20.3707 C   0  0  0  0  0  0  0  0  0  0  0  0
   30.1407   17.1788   19.8138 C   0  0  0  0  0  0  0  0  0  0  0  0
   29.6790   17.5348   18.5489 C   0  0  0  0  0  0  0  0  0  0  0  0
   28.8635   16.6508   17.8554 C   0  0  0  0  0  0  0  0  0  0  0  0
   28.5065   15.4267   18.4182 C   0  0  0  0  0  0  0  0  0  0  0  0
   28.9487   15.0473   19.6945 C   0  0  0  0  0  0  0  0  0  0  0  0
   30.2760   15.6449   21.5756 F   0  0  0  0  0  0  0  0  0  0  0  0
   28.4254   16.9811   16.6334 F   0  0  0  0  0  0  0  0  0  0  0  0
   27.7276   14.5888   17.7164 F   0  0  0  0  0  0  0  0  0  0  0  0
   28.5192   13.6991   20.2457 C   0  0  1  0  0  0  0  0  0  0  0  0
   28.7122   11.2263   20.0625 N   0  0  0  0  0  0  0  0  0  0  0  0
   29.3053   12.5089   19.6309 C   0  0  2  0  0  0  0  0  0  0  0  0
   28.5110   13.5587   21.7751 C   0  0  0  0  0  0  0  0  0  0  0  0
   27.8124   12.2587   22.1639 C   0  0  1  0  0  0  0  0  0  0  0  0
   28.3071   11.0253   21.3782 C   0  0  0  0  0  0  0  0  0  0  0  0
   30.8056   12.5608   19.9570 C   0  0  0  0  0  0  0  0  0  0  0  0
   28.9305   10.0170   19.2390 C   0  0  0  0  0  0  0  0  0  0  0  0
   30.2422    9.2452   19.4345 C   0  0  0  0  0  0  0  0  0  0  0  0
   30.0709    7.9309   19.1604 F   0  0  0  0  0  0  0  0  0  0  0  0
   31.1909    9.7014   18.5808 F   0  0  0  0  0  0  0  0  0  0  0  0
   30.7405    9.3472   20.6832 F   0  0  0  0  0  0  0  0  0  0  0  0
   28.2206    9.8956   21.8674 O   0  0  0  0  0  0  0  0  0  0  0  0
   27.9465   11.9609   23.5888 N   0  0  0  0  0  0  0  0  0  0  0  0
   27.2481   12.6788   24.5350 C   0  0  0  0  0  0  0  0  0  0  0  0
   26.5582   13.6538   24.2578 O   0  0  0  0  0  0  0  0  0  0  0  0
   27.3260   12.2017   25.9372 C   0  0  0  0  0  0  0  0  0  0  0  0
   26.3247   12.5718   26.8420 C   0  0  0  0  0  0  0  0  0  0  0  0
   28.3872   11.4221   26.4060 C   0  0  0  0  0  0  0  0  0  0  0  0
   28.5043   10.9700   27.6831 N   0  0  0  0  0  0  0  0  0  0  0  0
   27.5162   11.3394   28.5129 C   0  0  0  0  0  0  0  0  0  0  0  0
   26.4282   12.1197   28.1449 C   0  0  0  0  0  0  0  0  0  0  0  0
   25.5207   12.3767   29.3042 C   0  0  0  0  0  0  0  0  0  0  0  0
   27.4708   10.9831   29.9734 C   0  0  0  0  0  0  0  0  0  0  0  0
   26.0104   11.3257   30.3261 C   0  0  2  0  0  0  0  0  0  0  0  0
   25.1148   10.1126   30.4083 C   0  0  0  0  0  0  0  0  0  0  0  0
   24.5938   10.0115   31.6905 C   0  0  0  0  0  0  0  0  0  0  0  0
   25.0649   11.0467   32.4699 N   0  0  0  0  0  0  0  0  0  0  0  0
   25.9107   11.8786   31.7600 C   0  0  0  0  0  0  0  0  0  0  0  0
   26.4663   12.8709   32.2010 O   0  0  0  0  0  0  0  0  0  0  0  0
   23.7623    9.0626   32.1206 N   0  0  0  0  0  0  0  0  0  0  0  0
   24.7683    9.1632   29.4662 C   0  0  0  0  0  0  0  0  0  0  0  0
   23.9007    8.1493   29.8694 C   0  0  0  0  0  0  0  0  0  0  0  0
   23.4316    8.1412   31.1852 C   0  0  0  0  0  0  0  0  0  0  0  0
   30.7866   17.8487   20.3751 H   0  0  0  0  0  0  0  0  0  0  0  0
   29.9515   18.4856   18.1016 H   0  0  0  0  0  0  0  0  0  0  0  0
   27.4668   13.5857   19.9395 H   0  0  0  0  0  0  0  0  0  0  0  0
   29.1945   12.5521   18.5397 H   0  0  0  0  0  0  0  0  0  0  0  0
   29.5262   13.5669   22.1876 H   0  0  0  0  0  0  0  0  0  0  0  0
   27.9906   14.4122   22.2263 H   0  0  0  0  0  0  0  0  0  0  0  0
   26.7393   12.3457   21.9470 H   0  0  0  0  0  0  0  0  0  0  0  0
   31.0065   12.3385   21.0096 H   0  0  0  0  0  0  0  0  0  0  0  0
   31.3572   11.8270   19.3663 H   0  0  0  0  0  0  0  0  0  0  0  0
   31.2431   13.5339   19.7184 H   0  0  0  0  0  0  0  0  0  0  0  0
   28.1056    9.3295   19.4639 H   0  0  0  0  0  0  0  0  0  0  0  0
   28.8125   10.2958   18.1858 H   0  0  0  0  0  0  0  0  0  0  0  0
   28.2020   10.9990   23.7976 H   0  0  0  0  0  0  0  0  0  0  0  0
   25.4941   13.1981   26.5287 H   0  0  0  0  0  0  0  0  0  0  0  0
   29.2172   11.1400   25.7647 H   0  0  0  0  0  0  0  0  0  0  0  0
   24.4706   12.2399   29.0241 H   0  0  0  0  0  0  0  0  0  0  0  0
   25.6677   13.4029   29.6593 H   0  0  0  0  0  0  0  0  0  0  0  0
   28.1910   11.6061   30.5149 H   0  0  0  0  0  0  0  0  0  0  0  0
   27.7192    9.9281   30.1273 H   0  0  0  0  0  0  0  0  0  0  0  0
   24.8147   11.1658   33.4383 H   0  0  0  0  0  0  0  0  0  0  0  0
   25.1524    9.1939   28.4515 H   0  0  0  0  0  0  0  0  0  0  0  0
   23.5922    7.3742   29.1751 H   0  0  0  0  0  0  0  0  0  0  0  0
   22.7543    7.3621   31.5258 H   0  0  0  0  0  0  0  0  0  0  0  0
  1  2  2  0
  2  3  1  0
  3  4  2  0
  4  5  1  0
  5  6  2  0
  1  6  1  0
  1  7  1  0
  4  8  1  0
  5  9  1  0
 10  6  1  0
 11 12  1  0
 13 14  1  0
 14 15  1  0
 11 15  1  0
 12 10  1  0
 10 13  1  0
 12 16  1  0
 11 17  1  0
 17 18  1  0
 18 19  1  0
 18 20  1  0
 18 21  1  0
 15 22  2  0
 14 23  1  0
 23 24  1  0
 24 25  2  0
 24 26  1  0
 28 29  1  0
 29 30  2  0
 30 31  1  0
 27 31  2  0
 27 26  1  0
 26 28  2  0
 31 32  1  0
 30 33  1  0
 34 32  1  1
 34 33  1  0
 34 35  1  0
 35 36  2  0
 36 37  1  0
 37 38  1  0
 38 34  1  0
 38 39  2  0
 36 40  1  0
 35 41  1  0
 41 42  2  0
 40 43  2  0
 43 42  1  0
  2 44  1  0
  3 45  1  0
 10 46  1  1
 12 47  1  1
 13 48  1  0
 13 49  1  0
 14 50  1  1
 16 51  1  0
 16 52  1  0
 16 53  1  0
 17 54  1  0
 17 55  1  0
 23 56  1  0
 27 57  1  0
 28 58  1  0
 32 59  1  0
 32 60  1  0
 33 61  1  0
 33 62  1  0
 37 63  1  0
 41 64  1  0
 42 65  1  0
 43 66  1  0
M  END
> <Uni-Dock RESULT> 
ENERGY=   -3.907  LOWER_BOUND=    2.901  UPPER_BOUND=    5.108
INTER + INTRA:          -3.907
INTER:                  -3.907
INTRA:                   0.000
UNBOUND:                 0.000

$$$$

     RDKit          3D

 66 71  0  0  0  0  0  0  0  0999 V2000
   23.7755    6.2429   30.7060 C   0  0  0  0  0  0  0  0  0  0  0  0
   23.5799    4.8879   30.9877 C   0  0  0  0  0  0  0  0  0  0  0  0
   22.2905    4.3629   31.0288 C   0  0  0  0  0  0  0  0  0  0  0  0
   21.2121    5.2046   30.7918 C   0  0  0  0  0  0  0  0  0  0  0  0
   21.4157    6.5544   30.5109 C   0  0  0  0  0  0  0  0  0  0  0  0
   22.7040    7.1072   30.4529 C   0  0  0  0  0  0  0  0  0  0  0  0
   25.0333    6.7004   30.7099 F   0  0  0  0  0  0  0  0  0  0  0  0
   19.9683    4.7094   30.8416 F   0  0  0  0  0  0  0  0  0  0  0  0
   20.3514    7.3443   30.2995 F   0  0  0  0  0  0  0  0  0  0  0  0
   22.8512    8.5858   30.1401 C   0  0  1  0  0  0  0  0  0  0  0  0
   22.4991   10.9180   30.9289 N   0  0  0  0  0  0  0  0  0  0  0  0
   22.5237    9.5022   31.3506 C   0  0  2  0  0  0  0  0  0  0  0  0
   24.1897    9.0233   29.5269 C   0  0  0  0  0  0  0  0  0  0  0  0
   24.0779   10.4633   29.0336 C   0  0  1  0  0  0  0  0  0  0  0  0
   23.4638   11.4312   30.0677 C   0  0  0  0  0  0  0  0  0  0  0  0
   23.4891    9.2935   32.5274 C   0  0  0  0  0  0  0  0  0  0  0  0
   21.7307   11.8961   31.7296 C   0  0  0  0  0  0  0  0  0  0  0  0
   22.4040   12.4882   32.9748 C   0  0  0  0  0  0  0  0  0  0  0  0
   21.9376   13.7336   33.2259 F   0  0  0  0  0  0  0  0  0  0  0  0
   22.1207   11.7377   34.0673 F   0  0  0  0  0  0  0  0  0  0  0  0
   23.7464   12.5606   32.8722 F   0  0  0  0  0  0  0  0  0  0  0  0
   23.7335   12.6351   30.0354 O   0  0  0  0  0  0  0  0  0  0  0  0
   25.3695   11.0118   28.6240 N   0  0  0  0  0  0  0  0  0  0  0  0
   25.9776   10.6052   27.4564 C   0  0  0  0  0  0  0  0  0  0  0  0
   25.5322    9.7080   26.7493 O   0  0  0  0  0  0  0  0  0  0  0  0
   27.2041   11.3313   27.0460 C   0  0  0  0  0  0  0  0  0  0  0  0
   27.6015   11.2987   25.7045 C   0  0  0  0  0  0  0  0  0  0  0  0
   28.0073   12.0217   27.9581 C   0  0  0  0  0  0  0  0  0  0  0  0
   29.1430   12.6932   27.6289 N   0  0  0  0  0  0  0  0  0  0  0  0
   29.4795   12.6446   26.3305 C   0  0  0  0  0  0  0  0  0  0  0  0
   28.7539   11.9773   25.3526 C   0  0  0  0  0  0  0  0  0  0  0  0
   29.4065   12.0903   24.0128 C   0  0  0  0  0  0  0  0  0  0  0  0
   30.7161   13.2834   25.7605 C   0  0  0  0  0  0  0  0  0  0  0  0
   30.4152   13.2370   24.2499 C   0  0  2  0  0  0  0  0  0  0  0  0
   29.9530   14.5618   23.6915 C   0  0  0  0  0  0  0  0  0  0  0  0
   30.8473   14.9887   22.7201 C   0  0  0  0  0  0  0  0  0  0  0  0
   31.8651   14.0684   22.5843 N   0  0  0  0  0  0  0  0  0  0  0  0
   31.7053   12.9974   23.4437 C   0  0  0  0  0  0  0  0  0  0  0  0
   32.4555   12.0397   23.5328 O   0  0  0  0  0  0  0  0  0  0  0  0
   30.7520   16.1161   22.0154 N   0  0  0  0  0  0  0  0  0  0  0  0
   28.8560   15.3483   23.9861 C   0  0  0  0  0  0  0  0  0  0  0  0
   28.7135   16.5389   23.2751 C   0  0  0  0  0  0  0  0  0  0  0  0
   29.6712   16.8746   22.3151 C   0  0  0  0  0  0  0  0  0  0  0  0
   24.4413    4.2530   31.1770 H   0  0  0  0  0  0  0  0  0  0  0  0
   22.1210    3.3131   31.2470 H   0  0  0  0  0  0  0  0  0  0  0  0
   22.0967    8.7916   29.3639 H   0  0  0  0  0  0  0  0  0  0  0  0
   21.5104    9.2625   31.6977 H   0  0  0  0  0  0  0  0  0  0  0  0
   25.0102    8.9458   30.2491 H   0  0  0  0  0  0  0  0  0  0  0  0
   24.4529    8.3618   28.6927 H   0  0  0  0  0  0  0  0  0  0  0  0
   23.4158   10.4954   28.1579 H   0  0  0  0  0  0  0  0  0  0  0  0
   24.4885    9.6858   32.3151 H   0  0  0  0  0  0  0  0  0  0  0  0
   23.1293    9.8070   33.4209 H   0  0  0  0  0  0  0  0  0  0  0  0
   23.5811    8.2386   32.7993 H   0  0  0  0  0  0  0  0  0  0  0  0
   21.4852   12.7290   31.0587 H   0  0  0  0  0  0  0  0  0  0  0  0
   20.7741   11.4367   32.0027 H   0  0  0  0  0  0  0  0  0  0  0  0
   25.5618   11.9472   28.9734 H   0  0  0  0  0  0  0  0  0  0  0  0
   27.0222   10.7532   24.9648 H   0  0  0  0  0  0  0  0  0  0  0  0
   27.7772   12.0462   29.0193 H   0  0  0  0  0  0  0  0  0  0  0  0
   28.6737   12.3236   23.2328 H   0  0  0  0  0  0  0  0  0  0  0  0
   29.9018   11.1435   23.7697 H   0  0  0  0  0  0  0  0  0  0  0  0
   31.5879   12.6790   26.0340 H   0  0  0  0  0  0  0  0  0  0  0  0
   30.8460   14.2993   26.1470 H   0  0  0  0  0  0  0  0  0  0  0  0
   32.6263   14.1802   21.9342 H   0  0  0  0  0  0  0  0  0  0  0  0
   28.1302   15.0625   24.7407 H   0  0  0  0  0  0  0  0  0  0  0  0
   27.8729   17.1996   23.4618 H   0  0  0  0  0  0  0  0  0  0  0  0
   29.5843   17.7970   21.7465 H   0  0  0  0  0  0  0  0  0  0  0  0
  1  2  2  0
  2  3  1  0
  3  4  2  0
  4  5  1  0
  5  6  2  0
  1  6  1  0
  1  7  1  0
  4  8  1  0
  5  9  1  0
 10  6  1  0
 11 12  1  0
 13 14  1  0
 14 15  1  0
 11 15  1  0
 12 10  1  0
 10 13  1  0
 12 16  1  0
 11 17  1  0
 17 18  1  0
 18 19  1  0
 18 20  1  0
 18 21  1  0
 15 22  2  0
 14 23  1  0
 23 24  1  0
 24 25  2  0
 24 26  1  0
 28 29  1  0
 29 30  2  0
 30 31  1  0
 27 31  2  0
 27 26  1  0
 26 28  2  0
 31 32  1  0
 30 33  1  0
 34 32  1  1
 34 33  1  0
 34 35  1  0
 35 36  2  0
 36 37  1  0
 37 38  1  0
 38 34  1  0
 38 39  2  0
 36 40  1  0
 35 41  1  0
 41 42  2  0
 40 43  2  0
 43 42  1  0
  2 44  1  0
  3 45  1  0
 10 46  1  1
 12 47  1  1
 13 48  1  0
 13 49  1  0
 14 50  1  1
 16 51  1  0
 16 52  1  0
 16 53  1  0
 17 54  1  0
 17 55  1  0
 23 56  1  0
 27 57  1  0
 28 58  1  0
 32 59  1  0
 32 60  1  0
 33 61  1  0
 33 62  1  0
 37 63  1  0
 41 64  1  0
 42 65  1  0
 43 66  1  0
M  END
> <Uni-Dock RESULT> 
ENERGY=   -3.899  LOWER_BOUND=    5.490  UPPER_BOUND=   11.029
INTER + INTRA:          -3.899
INTER:                  -3.899
INTRA:                   0.000
UNBOUND:                 0.000

$$$$

     RDKit          3D

 66 71  0  0  0  0  0  0  0  0999 V2000
   34.0922   11.7670   28.2187 C   0  0  0  0  0  0  0  0  0  0  0  0
   35.3171   12.4345   28.1306 C   0  0  0  0  0  0  0  0  0  0  0  0
   35.4438   13.7286   28.6296 C   0  0  0  0  0  0  0  0  0  0  0  0
   34.3389   14.3399   29.2067 C   0  0  0  0  0  0  0  0  0  0  0  0
   33.1212   13.6671   29.2912 C   0  0  0  0  0  0  0  0  0  0  0  0
   32.9684   12.3595   28.8062 C   0  0  0  0  0  0  0  0  0  0  0  0
   34.0185   10.5373   27.6952 F   0  0  0  0  0  0  0  0  0  0  0  0
   34.4499   15.5889   29.6779 F   0  0  0  0  0  0  0  0  0  0  0  0
   32.0686   14.2908   29.8428 F   0  0  0  0  0  0  0  0  0  0  0  0
   31.6128   11.6869   28.9330 C   0  0  1  0  0  0  0  0  0  0  0  0
   29.2427   11.6389   28.1810 N   0  0  0  0  0  0  0  0  0  0  0  0
   30.5826   12.1857   27.8831 C   0  0  2  0  0  0  0  0  0  0  0  0
   31.6120   10.1511   28.9468 C   0  0  0  0  0  0  0  0  0  0  0  0
   30.2273    9.6457   29.3425 C   0  0  1  0  0  0  0  0  0  0  0  0
   29.0735   10.3116   28.5624 C   0  0  0  0  0  0  0  0  0  0  0  0
   31.0035   11.8604   26.4419 C   0  0  0  0  0  0  0  0  0  0  0  0
   28.0459   12.3457   27.6746 C   0  0  0  0  0  0  0  0  0  0  0  0
   27.6136   12.0747   26.2275 C   0  0  0  0  0  0  0  0  0  0  0  0
   26.2756   12.2261   26.0902 F   0  0  0  0  0  0  0  0  0  0  0  0
   28.1952   12.9636   25.3859 F   0  0  0  0  0  0  0  0  0  0  0  0
   27.9378   10.8390   25.7961 F   0  0  0  0  0  0  0  0  0  0  0  0
   28.0023    9.7200   28.4031 O   0  0  0  0  0  0  0  0  0  0  0  0
   30.0968    8.1989   29.1797 N   0  0  0  0  0  0  0  0  0  0  0  0
   30.7188    7.3260   30.0455 C   0  0  0  0  0  0  0  0  0  0  0  0
   31.4824    7.6950   30.9310 O   0  0  0  0  0  0  0  0  0  0  0  0
   30.3997    5.8852   29.8961 C   0  0  0  0  0  0  0  0  0  0  0  0
   30.6119    5.0223   30.9772 C   0  0  0  0  0  0  0  0  0  0  0  0
   29.9273    5.3422   28.6980 C   0  0  0  0  0  0  0  0  0  0  0  0
   29.6301    4.0283   28.5130 N   0  0  0  0  0  0  0  0  0  0  0  0
   29.8378    3.2399   29.5792 C   0  0  0  0  0  0  0  0  0  0  0  0
   30.3138    3.6827   30.8062 C   0  0  0  0  0  0  0  0  0  0  0  0
   30.4605    2.5555   31.7766 C   0  0  0  0  0  0  0  0  0  0  0  0
   29.6129    1.7528   29.5788 C   0  0  0  0  0  0  0  0  0  0  0  0
   29.6445    1.4387   31.0870 C   0  0  2  0  0  0  0  0  0  0  0  0
   28.2718    1.2473   31.6867 C   0  0  0  0  0  0  0  0  0  0  0  0
   28.1702   -0.0369   32.2027 C   0  0  0  0  0  0  0  0  0  0  0  0
   29.3511   -0.7184   31.9974 N   0  0  0  0  0  0  0  0  0  0  0  0
   30.2864    0.0627   31.3445 C   0  0  0  0  0  0  0  0  0  0  0  0
   31.4146   -0.2861   31.0389 O   0  0  0  0  0  0  0  0  0  0  0  0
   27.0994   -0.5503   32.8083 N   0  0  0  0  0  0  0  0  0  0  0  0
   27.1880    2.0984   31.7861 C   0  0  0  0  0  0  0  0  0  0  0  0
   26.0435    1.6058   32.4114 C   0  0  0  0  0  0  0  0  0  0  0  0
   26.0469    0.2967   32.8988 C   0  0  0  0  0  0  0  0  0  0  0  0
   36.1639   11.9355   27.6671 H   0  0  0  0  0  0  0  0  0  0  0  0
   36.3876   14.2614   28.5685 H   0  0  0  0  0  0  0  0  0  0  0  0
   31.2359   11.9851   29.9245 H   0  0  0  0  0  0  0  0  0  0  0  0
   30.5014   13.2766   27.9739 H   0  0  0  0  0  0  0  0  0  0  0  0
   31.8879    9.7375   27.9703 H   0  0  0  0  0  0  0  0  0  0  0  0
   32.3616    9.7831   29.6578 H   0  0  0  0  0  0  0  0  0  0  0  0
   30.0480    9.8736   30.4019 H   0  0  0  0  0  0  0  0  0  0  0  0
   30.9280   10.7910   26.2219 H   0  0  0  0  0  0  0  0  0  0  0  0
   30.3646   12.3784   25.7242 H   0  0  0  0  0  0  0  0  0  0  0  0
   32.0252   12.1869   26.2302 H   0  0  0  0  0  0  0  0  0  0  0  0
   27.2117   12.0609   28.3279 H   0  0  0  0  0  0  0  0  0  0  0  0
   28.1949   13.4206   27.8266 H   0  0  0  0  0  0  0  0  0  0  0  0
   29.2410    7.9007   28.7184 H   0  0  0  0  0  0  0  0  0  0  0  0
   31.0020    5.3954   31.9200 H   0  0  0  0  0  0  0  0  0  0  0  0
   29.7851    5.9516   27.8101 H   0  0  0  0  0  0  0  0  0  0  0  0
   30.0638    2.8254   32.7612 H   0  0  0  0  0  0  0  0  0  0  0  0
   31.5208    2.2968   31.8743 H   0  0  0  0  0  0  0  0  0  0  0  0
   30.4295    1.2689   29.0317 H   0  0  0  0  0  0  0  0  0  0  0  0
   28.6603    1.5007   29.1020 H   0  0  0  0  0  0  0  0  0  0  0  0
   29.4964   -1.6706   32.2918 H   0  0  0  0  0  0  0  0  0  0  0  0
   27.2141    3.1101   31.3941 H   0  0  0  0  0  0  0  0  0  0  0  0
   25.1595    2.2262   32.5195 H   0  0  0  0  0  0  0  0  0  0  0  0
   25.1679   -0.1125   33.3905 H   0  0  0  0  0  0  0  0  0  0  0  0
  1  2  2  0
  2  3  1  0
  3  4  2  0
  4  5  1  0
  5  6  2  0
  1  6  1  0
  1  7  1  0
  4  8  1  0
  5  9  1  0
 10  6  1  0
 11 12  1  0
 13 14  1  0
 14 15  1  0
 11 15  1  0
 12 10  1  0
 10 13  1  0
 12 16  1  0
 11 17  1  0
 17 18  1  0
 18 19  1  0
 18 20  1  0
 18 21  1  0
 15 22  2  0
 14 23  1  0
 23 24  1  0
 24 25  2  0
 24 26  1  0
 28 29  1  0
 29 30  2  0
 30 31  1  0
 27 31  2  0
 27 26  1  0
 26 28  2  0
 31 32  1  0
 30 33  1  0
 34 32  1  1
 34 33  1  0
 34 35  1  0
 35 36  2  0
 36 37  1  0
 37 38  1  0
 38 34  1  0
 38 39  2  0
 36 40  1  0
 35 41  1  0
 41 42  2  0
 40 43  2  0
 43 42  1  0
  2 44  1  0
  3 45  1  0
 10 46  1  1
 12 47  1  1
 13 48  1  0
 13 49  1  0
 14 50  1  1
 16 51  1  0
 16 52  1  0
 16 53  1  0
 17 54  1  0
 17 55  1  0
 23 56  1  0
 27 57  1  0
 28 58  1  0
 32 59  1  0
 32 60  1  0
 33 61  1  0
 33 62  1  0
 37 63  1  0
 41 64  1  0
 42 65  1  0
 43 66  1  0
M  END
> <Uni-Dock RESULT> 
ENERGY=   -3.890  LOWER_BOUND=    6.456  UPPER_BOUND=    8.179
INTER + INTRA:          -3.890
INTER:                  -3.890
INTRA:                   0.000
UNBOUND:                 0.000

$$$$

     RDKit          3D

 66 71  0  0  0  0  0  0  0  0999 V2000
   35.6613   13.7959   29.7937 C   0  0  0  0  0  0  0  0  0  0  0  0
   36.4248   14.7555   30.4645 C   0  0  0  0  0  0  0  0  0  0  0  0
   37.7705   14.5146   30.7312 C   0  0  0  0  0  0  0  0  0  0  0  0
   38.3332   13.3118   30.3261 C   0  0  0  0  0  0  0  0  0  0  0  0
   37.5651   12.3605   29.6571 C   0  0  0  0  0  0  0  0  0  0  0  0
   36.2104   12.5814   29.3665 C   0  0  0  0  0  0  0  0  0  0  0  0
   34.3661   14.0664   29.5915 F   0  0  0  0  0  0  0  0  0  0  0  0
   39.6237   13.0680   30.5897 F   0  0  0  0  0  0  0  0  0  0  0  0
   38.1356   11.2023   29.2906 F   0  0  0  0  0  0  0  0  0  0  0  0
   35.4348   11.5012   28.6332 C   0  0  1  0  0  0  0  0  0  0  0  0
   34.4571    9.2168   28.7368 N   0  0  0  0  0  0  0  0  0  0  0  0
   35.0341   10.3101   29.5459 C   0  0  2  0  0  0  0  0  0  0  0  0
   34.2025   11.9642   27.8421 C   0  0  0  0  0  0  0  0  0  0  0  0
   33.7024   10.8213   26.9627 C   0  0  1  0  0  0  0  0  0  0  0  0
   33.5565    9.4778   27.7089 C   0  0  0  0  0  0  0  0  0  0  0  0
   34.0775   10.7262   30.6738 C   0  0  0  0  0  0  0  0  0  0  0  0
   34.4843    7.8357   29.2661 C   0  0  0  0  0  0  0  0  0  0  0  0
   33.3782    7.4229   30.2462 C   0  0  0  0  0  0  0  0  0  0  0  0
   33.1274    6.0960   30.1554 F   0  0  0  0  0  0  0  0  0  0  0  0
   33.7653    7.6604   31.5232 F   0  0  0  0  0  0  0  0  0  0  0  0
   32.2172    8.0792   30.0480 F   0  0  0  0  0  0  0  0  0  0  0  0
   32.7532    8.6274   27.3157 O   0  0  0  0  0  0  0  0  0  0  0  0
   32.4164   11.1239   26.3370 N   0  0  0  0  0  0  0  0  0  0  0  0
   32.3236   12.0286   25.3020 C   0  0  0  0  0  0  0  0  0  0  0  0
   33.2756   12.6949   24.9106 O   0  0  0  0  0  0  0  0  0  0  0  0
   31.0079   12.1507   24.6283 C   0  0  0  0  0  0  0  0  0  0  0  0
   30.9495   12.6746   23.3320 C   0  0  0  0  0  0  0  0  0  0  0  0
   29.8094   11.7960   25.2540 C   0  0  0  0  0  0  0  0  0  0  0  0
   28.5814   11.8986   24.6790 N   0  0  0  0  0  0  0  0  0  0  0  0
   28.5741   12.3951   23.4320 C   0  0  0  0  0  0  0  0  0  0  0  0
   29.7082   12.7850   22.7321 C   0  0  0  0  0  0  0  0  0  0  0  0
   29.3615   13.3199   21.3804 C   0  0  0  0  0  0  0  0  0  0  0  0
   27.3234   12.6293   22.6302 C   0  0  0  0  0  0  0  0  0  0  0  0
   27.9012   12.8405   21.2174 C   0  0  2  0  0  0  0  0  0  0  0  0
   27.7688   11.6260   20.3297 C   0  0  0  0  0  0  0  0  0  0  0  0
   26.9916   11.9460   19.2255 C   0  0  0  0  0  0  0  0  0  0  0  0
   26.5923   13.2636   19.3003 N   0  0  0  0  0  0  0  0  0  0  0  0
   27.0743   13.8810   20.4395 C   0  0  0  0  0  0  0  0  0  0  0  0
   26.8769   15.0424   20.7559 O   0  0  0  0  0  0  0  0  0  0  0  0
   26.6697   11.1164   18.2331 N   0  0  0  0  0  0  0  0  0  0  0  0
   28.2687   10.3436   20.4498 C   0  0  0  0  0  0  0  0  0  0  0  0
   27.9580    9.4387   19.4359 C   0  0  0  0  0  0  0  0  0  0  0  0
   27.1684    9.8645   18.3651 C   0  0  0  0  0  0  0  0  0  0  0  0
   35.9573   15.6853   30.7773 H   0  0  0  0  0  0  0  0  0  0  0  0
   38.3773   15.2488   31.2518 H   0  0  0  0  0  0  0  0  0  0  0  0
   36.1336   11.1095   27.8766 H   0  0  0  0  0  0  0  0  0  0  0  0
   35.9463    9.9092   30.0066 H   0  0  0  0  0  0  0  0  0  0  0  0
   33.3963   12.2955   28.5062 H   0  0  0  0  0  0  0  0  0  0  0  0
   34.4610   12.8293   27.2195 H   0  0  0  0  0  0  0  0  0  0  0  0
   34.4255   10.6427   26.1556 H   0  0  0  0  0  0  0  0  0  0  0  0
   33.0772   10.9641   30.2989 H   0  0  0  0  0  0  0  0  0  0  0  0
   33.9610    9.9209   31.4013 H   0  0  0  0  0  0  0  0  0  0  0  0
   34.4529   11.5881   31.2319 H   0  0  0  0  0  0  0  0  0  0  0  0
   34.4257    7.1650   28.3997 H   0  0  0  0  0  0  0  0  0  0  0  0
   35.4683    7.6622   29.7159 H   0  0  0  0  0  0  0  0  0  0  0  0
   31.7329   10.3728   26.3905 H   0  0  0  0  0  0  0  0  0  0  0  0
   31.8529   12.9876   22.8160 H   0  0  0  0  0  0  0  0  0  0  0  0
   29.7843   11.4262   26.2750 H   0  0  0  0  0  0  0  0  0  0  0  0
   30.0292   12.9175   20.6110 H   0  0  0  0  0  0  0  0  0  0  0  0
   29.4423   14.4127   21.3912 H   0  0  0  0  0  0  0  0  0  0  0  0
   26.8157   13.5210   23.0140 H   0  0  0  0  0  0  0  0  0  0  0  0
   26.6470   11.7713   22.6996 H   0  0  0  0  0  0  0  0  0  0  0  0
   26.0169   13.7058   18.6018 H   0  0  0  0  0  0  0  0  0  0  0  0
   28.8770   10.0411   21.2963 H   0  0  0  0  0  0  0  0  0  0  0  0
   28.3210    8.4165   19.4740 H   0  0  0  0  0  0  0  0  0  0  0  0
   26.9111    9.1794   17.5613 H   0  0  0  0  0  0  0  0  0  0  0  0
  1  2  2  0
  2  3  1  0
  3  4  2  0
  4  5  1  0
  5  6  2  0
  1  6  1  0
  1  7  1  0
  4  8  1  0
  5  9  1  0
 10  6  1  0
 11 12  1  0
 13 14  1  0
 14 15  1  0
 11 15  1  0
 12 10  1  0
 10 13  1  0
 12 16  1  0
 11 17  1  0
 17 18  1  0
 18 19  1  0
 18 20  1  0
 18 21  1  0
 15 22  2  0
 14 23  1  0
 23 24  1  0
 24 25  2  0
 24 26  1  0
 28 29  1  0
 29 30  2  0
 30 31  1  0
 27 31  2  0
 27 26  1  0
 26 28  2  0
 31 32  1  0
 30 33  1  0
 34 32  1  1
 34 33  1  0
 34 35  1  0
 35 36  2  0
 36 37  1  0
 37 38  1  0
 38 34  1  0
 38 39  2  0
 36 40  1  0
 35 41  1  0
 41 42  2  0
 40 43  2  0
 43 42  1  0
  2 44  1  0
  3 45  1  0
 10 46  1  1
 12 47  1  1
 13 48  1  0
 13 49  1  0
 14 50  1  1
 16 51  1  0
 16 52  1  0
 16 53  1  0
 17 54  1  0
 17 55  1  0
 23 56  1  0
 27 57  1  0
 28 58  1  0
 32 59  1  0
 32 60  1  0
 33 61  1  0
 33 62  1  0
 37 63  1  0
 41 64  1  0
 42 65  1  0
 43 66  1  0
M  END
> <Uni-Dock RESULT> 
ENERGY=   -3.879  LOWER_BOUND=    7.017  UPPER_BOUND=   11.700
INTER + INTRA:          -3.879
INTER:                  -3.879
INTRA:                   0.000
UNBOUND:                 0.000

$$$$

     RDKit          3D

 66 71  0  0  0  0  0  0  0  0999 V2000
   35.8981   14.5210   30.1715 C   0  0  0  0  0  0  0  0  0  0  0  0
   36.4918   15.5614   30.8919 C   0  0  0  0  0  0  0  0  0  0  0  0
   37.7579   15.3918   31.4469 C   0  0  0  0  0  0  0  0  0  0  0  0
   38.4115   14.1788   31.2770 C   0  0  0  0  0  0  0  0  0  0  0  0
   37.8129   13.1467   30.5566 C   0  0  0  0  0  0  0  0  0  0  0  0
   36.5431   13.2940   29.9782 C   0  0  0  0  0  0  0  0  0  0  0  0
   34.6676   14.7275   29.6868 F   0  0  0  0  0  0  0  0  0  0  0  0
   39.6244   14.0041   31.8181 F   0  0  0  0  0  0  0  0  0  0  0  0
   38.4655   11.9817   30.4218 F   0  0  0  0  0  0  0  0  0  0  0  0
   35.9525   12.1277   29.2056 C   0  0  1  0  0  0  0  0  0  0  0  0
   35.0122    9.8281   29.3189 N   0  0  0  0  0  0  0  0  0  0  0  0
   35.3928   11.0071   30.1239 C   0  0  2  0  0  0  0  0  0  0  0  0
   34.9011   12.4768   28.1418 C   0  0  0  0  0  0  0  0  0  0  0  0
   34.6110   11.2451   27.2885 C   0  0  1  0  0  0  0  0  0  0  0  0
   34.3374    9.9671   28.1101 C   0  0  0  0  0  0  0  0  0  0  0  0
   34.2184   11.4857   30.9911 C   0  0  0  0  0  0  0  0  0  0  0  0
   34.9530    8.4999   29.9676 C   0  0  0  0  0  0  0  0  0  0  0  0
   33.6764    8.1354   30.7368 C   0  0  0  0  0  0  0  0  0  0  0  0
   33.4715    6.7977   30.7197 F   0  0  0  0  0  0  0  0  0  0  0  0
   33.7893    8.4962   32.0383 F   0  0  0  0  0  0  0  0  0  0  0  0
   32.5700    8.7309   30.2476 F   0  0  0  0  0  0  0  0  0  0  0  0
   33.6460    9.0582   27.6422 O   0  0  0  0  0  0  0  0  0  0  0  0
   33.4759   11.4470   26.3898 N   0  0  0  0  0  0  0  0  0  0  0  0
   33.5825   12.2547   25.2786 C   0  0  0  0  0  0  0  0  0  0  0  0
   34.5834   12.9174   25.0287 O   0  0  0  0  0  0  0  0  0  0  0  0
   32.4311   12.2716   24.3437 C   0  0  0  0  0  0  0  0  0  0  0  0
   32.6312   12.6787   23.0198 C   0  0  0  0  0  0  0  0  0  0  0  0
   31.1358   11.9309   24.7433 C   0  0  0  0  0  0  0  0  0  0  0  0
   30.0504   11.9401   23.9242 N   0  0  0  0  0  0  0  0  0  0  0  0
   30.2908   12.3259   22.6614 C   0  0  0  0  0  0  0  0  0  0  0  0
   31.5378   12.6930   22.1731 C   0  0  0  0  0  0  0  0  0  0  0  0
   31.4669   13.0961   20.7357 C   0  0  0  0  0  0  0  0  0  0  0  0
   29.2274   12.4456   21.6045 C   0  0  0  0  0  0  0  0  0  0  0  0
   30.0793   12.5534   20.3250 C   0  0  2  0  0  0  0  0  0  0  0  0
   30.1519   11.2626   19.5446 C   0  0  0  0  0  0  0  0  0  0  0  0
   29.6125   11.4581   18.2810 C   0  0  0  0  0  0  0  0  0  0  0  0
   29.1846   12.7624   18.1516 N   0  0  0  0  0  0  0  0  0  0  0  0
   29.4124   13.4929   19.3030 C   0  0  0  0  0  0  0  0  0  0  0  0
   29.1352   14.6697   19.4644 O   0  0  0  0  0  0  0  0  0  0  0  0
   29.5148   10.5347   17.3247 N   0  0  0  0  0  0  0  0  0  0  0  0
   30.6376   10.0138   19.8812 C   0  0  0  0  0  0  0  0  0  0  0  0
   30.5565    9.0139   18.9132 C   0  0  0  0  0  0  0  0  0  0  0  0
   29.9964    9.3172   17.6699 C   0  0  0  0  0  0  0  0  0  0  0  0
   35.9548   16.4979   31.0163 H   0  0  0  0  0  0  0  0  0  0  0  0
   38.2328   16.1892   32.0098 H   0  0  0  0  0  0  0  0  0  0  0  0
   36.7979   11.6965   28.6458 H   0  0  0  0  0  0  0  0  0  0  0  0
   36.1975   10.6799   30.7949 H   0  0  0  0  0  0  0  0  0  0  0  0
   33.9705   12.8361   28.5953 H   0  0  0  0  0  0  0  0  0  0  0  0
   35.2675   13.2931   27.5076 H   0  0  0  0  0  0  0  0  0  0  0  0
   35.4872   11.0225   26.6647 H   0  0  0  0  0  0  0  0  0  0  0  0
   33.3125   11.6551   30.4008 H   0  0  0  0  0  0  0  0  0  0  0  0
   33.9685   10.7431   31.7510 H   0  0  0  0  0  0  0  0  0  0  0  0
   34.4570   12.4055   31.5319 H   0  0  0  0  0  0  0  0  0  0  0  0
   35.0844    7.7549   29.1729 H   0  0  0  0  0  0  0  0  0  0  0  0
   35.8265    8.4007   30.6217 H   0  0  0  0  0  0  0  0  0  0  0  0
   32.8085   10.6800   26.3725 H   0  0  0  0  0  0  0  0  0  0  0  0
   33.6160   12.9771   22.6712 H   0  0  0  0  0  0  0  0  0  0  0  0
   30.9079   11.6504   25.7676 H   0  0  0  0  0  0  0  0  0  0  0  0
   32.2848   12.6520   20.1583 H   0  0  0  0  0  0  0  0  0  0  0  0
   31.5257   14.1878   20.6620 H   0  0  0  0  0  0  0  0  0  0  0  0
   28.6371   13.3490   21.7935 H   0  0  0  0  0  0  0  0  0  0  0  0
   28.5655   11.5738   21.6140 H   0  0  0  0  0  0  0  0  0  0  0  0
   28.7575   13.1219   17.3132 H   0  0  0  0  0  0  0  0  0  0  0  0
   31.0642    9.8074   20.8576 H   0  0  0  0  0  0  0  0  0  0  0  0
   30.9208    8.0123   19.1181 H   0  0  0  0  0  0  0  0  0  0  0  0
   29.9208    8.5564   16.8972 H   0  0  0  0  0  0  0  0  0  0  0  0
  1  2  2  0
  2  3  1  0
  3  4  2  0
  4  5  1  0
  5  6  2  0
  1  6  1  0
  1  7  1  0
  4  8  1  0
  5  9  1  0
 10  6  1  0
 11 12  1  0
 13 14  1  0
 14 15  1  0
 11 15  1  0
 12 10  1  0
 10 13  1  0
 12 16  1  0
 11 17  1  0
 17 18  1  0
 18 19  1  0
 18 20  1  0
 18 21  1  0
 15 22  2  0
 14 23  1  0
 23 24  1  0
 24 25  2  0
 24 26  1  0
 28 29  1  0
 29 30  2  0
 30 31  1  0
 27 31  2  0
 27 26  1  0
 26 28  2  0
 31 32  1  0
 30 33  1  0
 34 32  1  1
 34 33  1  0
 34 35  1  0
 35 36  2  0
 36 37  1  0
 37 38  1  0
 38 34  1  0
 38 39  2  0
 36 40  1  0
 35 41  1  0
 41 42  2  0
 40 43  2  0
 43 42  1  0
  2 44  1  0
  3 45  1  0
 10 46  1  1
 12 47  1  1
 13 48  1  0
 13 49  1  0
 14 50  1  1
 16 51  1  0
 16 52  1  0
 16 53  1  0
 17 54  1  0
 17 55  1  0
 23 56  1  0
 27 57  1  0
 28 58  1  0
 32 59  1  0
 32 60  1  0
 33 61  1  0
 33 62  1  0
 37 63  1  0
 41 64  1  0
 42 65  1  0
 43 66  1  0
M  END
> <Uni-Dock RESULT> 
ENERGY=   -3.815  LOWER_BOUND=    7.566  UPPER_BOUND=   12.566
INTER + INTRA:          -3.815
INTER:                  -3.815
INTRA:                   0.000
UNBOUND:                 0.000

$$$$
