
     RDKit          3D

 22 22  0  0  0  0  0  0  0  0999 V2000
   43.8489    2.8067   11.6536 N   0  0  0  0  0  0  0  0  0  0  0  0
   42.8745    3.8621   11.4591 N   0  0  0  0  0  0  0  0  0  0  0  0
   45.5632    2.4320    8.2385 C   0  0  0  0  0  0  0  0  0  0  0  0
   44.9014    2.9060   10.6227 C   0  0  0  0  0  0  0  0  0  0  0  0
   44.4368    2.4149    9.2451 C   0  0  0  0  0  0  0  0  0  0  0  0
   45.8796    3.6102    7.5486 C   0  0  0  0  0  0  0  0  0  0  0  0
   46.3234    1.2791    8.0015 C   0  0  0  0  0  0  0  0  0  0  0  0
   47.3750    1.3025    7.0841 C   0  0  0  0  0  0  0  0  0  0  0  0
   46.9317    3.6314    6.6318 C   0  0  0  0  0  0  0  0  0  0  0  0
   47.6785    2.4779    6.3993 C   0  0  0  0  0  0  0  0  0  0  0  0
   44.3119    2.9192   12.5633 H   0  0  0  0  0  0  0  0  0  0  0  0
   42.1951    3.8692   12.2267 H   0  0  0  0  0  0  0  0  0  0  0  0
   42.3061    3.6837   10.6251 H   0  0  0  0  0  0  0  0  0  0  0  0
   45.7393    2.2786   10.9529 H   0  0  0  0  0  0  0  0  0  0  0  0
   45.2923    3.9306   10.5676 H   0  0  0  0  0  0  0  0  0  0  0  0
   43.6154    3.0343    8.8639 H   0  0  0  0  0  0  0  0  0  0  0  0
   44.0348    1.3964    9.3242 H   0  0  0  0  0  0  0  0  0  0  0  0
   45.3072    4.5187    7.7229 H   0  0  0  0  0  0  0  0  0  0  0  0
   46.1003    0.3552    8.5304 H   0  0  0  0  0  0  0  0  0  0  0  0
   47.9581    0.4033    6.9042 H   0  0  0  0  0  0  0  0  0  0  0  0
   47.1690    4.5488    6.0996 H   0  0  0  0  0  0  0  0  0  0  0  0
   48.4974    2.4952    5.6852 H   0  0  0  0  0  0  0  0  0  0  0  0
  2  1  1  0
  3  5  1  0
  4  1  1  0
  5  4  1  0
  6  3  2  0
  7  3  1  0
  8  7  2  0
  9  6  1  0
 10  9  2  0
 10  8  1  0
  1 11  1  0
  2 12  1  0
  2 13  1  0
  4 14  1  0
  4 15  1  0
  5 16  1  0
  5 17  1  0
  6 18  1  0
  7 19  1  0
  8 20  1  0
  9 21  1  0
 10 22  1  0
M  END
> <Uni-Dock RESULT> 
ENERGY=   -5.928  LOWER_BOUND=    0.000  UPPER_BOUND=    0.000
INTER + INTRA:          -5.928
INTER:                  -5.928
INTRA:                   0.000
UNBOUND:                 0.000

$$$$

     RDKit          3D

 22 22  0  0  0  0  0  0  0  0999 V2000
   43.4598    4.8949    9.9238 N   0  0  0  0  0  0  0  0  0  0  0  0
   43.4969    4.2508   11.2218 N   0  0  0  0  0  0  0  0  0  0  0  0
   46.2887    3.2262    7.9351 C   0  0  0  0  0  0  0  0  0  0  0  0
   44.1144    4.0307    8.9213 C   0  0  0  0  0  0  0  0  0  0  0  0
   45.6447    4.0358    9.0361 C   0  0  0  0  0  0  0  0  0  0  0  0
   46.4304    1.8380    8.0659 C   0  0  0  0  0  0  0  0  0  0  0  0
   46.7273    3.8475    6.7583 C   0  0  0  0  0  0  0  0  0  0  0  0
   47.3056    3.0945    5.7351 C   0  0  0  0  0  0  0  0  0  0  0  0
   47.0087    1.0871    7.0415 C   0  0  0  0  0  0  0  0  0  0  0  0
   47.4467    1.7152    5.8771 C   0  0  0  0  0  0  0  0  0  0  0  0
   42.4865    5.0179    9.6203 H   0  0  0  0  0  0  0  0  0  0  0  0
   42.9568    4.7904   11.9058 H   0  0  0  0  0  0  0  0  0  0  0  0
   44.4491    4.2502   11.6010 H   0  0  0  0  0  0  0  0  0  0  0  0
   43.8370    4.4146    7.9312 H   0  0  0  0  0  0  0  0  0  0  0  0
   43.7160    3.0088    8.9736 H   0  0  0  0  0  0  0  0  0  0  0  0
   45.9673    3.6320   10.0038 H   0  0  0  0  0  0  0  0  0  0  0  0
   46.0217    5.0661    8.9984 H   0  0  0  0  0  0  0  0  0  0  0  0
   46.0898    1.3343    8.9680 H   0  0  0  0  0  0  0  0  0  0  0  0
   46.6212    4.9226    6.6318 H   0  0  0  0  0  0  0  0  0  0  0  0
   47.6455    3.5845    4.8266 H   0  0  0  0  0  0  0  0  0  0  0  0
   47.1167    0.0113    7.1522 H   0  0  0  0  0  0  0  0  0  0  0  0
   47.8970    1.1298    5.0800 H   0  0  0  0  0  0  0  0  0  0  0  0
  2  1  1  0
  3  5  1  0
  4  1  1  0
  5  4  1  0
  6  3  2  0
  7  3  1  0
  8  7  2  0
  9  6  1  0
 10  9  2  0
 10  8  1  0
  1 11  1  0
  2 12  1  0
  2 13  1  0
  4 14  1  0
  4 15  1  0
  5 16  1  0
  5 17  1  0
  6 18  1  0
  7 19  1  0
  8 20  1  0
  9 21  1  0
 10 22  1  0
M  END
> <Uni-Dock RESULT> 
ENERGY=   -4.409  LOWER_BOUND=    1.152  UPPER_BOUND=    2.070
INTER + INTRA:          -4.409
INTER:                  -4.409
INTRA:                   0.000
UNBOUND:                 0.000

$$$$

     RDKit          3D

 22 22  0  0  0  0  0  0  0  0999 V2000
   42.7659    6.0314   11.9367 N   0  0  0  0  0  0  0  0  0  0  0  0
   42.6744    5.2625   13.1620 N   0  0  0  0  0  0  0  0  0  0  0  0
   45.1662    4.0233    9.7121 C   0  0  0  0  0  0  0  0  0  0  0  0
   43.2171    5.1583   10.8347 C   0  0  0  0  0  0  0  0  0  0  0  0
   44.7146    4.8309   10.9064 C   0  0  0  0  0  0  0  0  0  0  0  0
   45.0124    2.6303    9.6991 C   0  0  0  0  0  0  0  0  0  0  0  0
   45.7187    4.6578    8.5917 C   0  0  0  0  0  0  0  0  0  0  0  0
   46.1185    3.9109    7.4825 C   0  0  0  0  0  0  0  0  0  0  0  0
   45.4126    1.8855    8.5888 C   0  0  0  0  0  0  0  0  0  0  0  0
   45.9661    2.5255    7.4815 C   0  0  0  0  0  0  0  0  0  0  0  0
   41.8387    6.3864   11.6744 H   0  0  0  0  0  0  0  0  0  0  0  0
   42.2647    5.8292   13.9116 H   0  0  0  0  0  0  0  0  0  0  0  0
   43.6073    5.0231   13.5123 H   0  0  0  0  0  0  0  0  0  0  0  0
   43.0208    5.6925    9.8961 H   0  0  0  0  0  0  0  0  0  0  0  0
   42.6122    4.2427   10.7953 H   0  0  0  0  0  0  0  0  0  0  0  0
   44.9507    4.2702   11.8193 H   0  0  0  0  0  0  0  0  0  0  0  0
   45.3004    5.7576   10.9616 H   0  0  0  0  0  0  0  0  0  0  0  0
   44.5787    2.1181   10.5553 H   0  0  0  0  0  0  0  0  0  0  0  0
   45.8413    5.7384    8.5767 H   0  0  0  0  0  0  0  0  0  0  0  0
   46.5485    4.4106    6.6185 H   0  0  0  0  0  0  0  0  0  0  0  0
   45.2917    0.8055    8.5880 H   0  0  0  0  0  0  0  0  0  0  0  0
   46.2777    1.9449    6.6173 H   0  0  0  0  0  0  0  0  0  0  0  0
  2  1  1  0
  3  5  1  0
  4  1  1  0
  5  4  1  0
  6  3  2  0
  7  3  1  0
  8  7  2  0
  9  6  1  0
 10  9  2  0
 10  8  1  0
  1 11  1  0
  2 12  1  0
  2 13  1  0
  4 14  1  0
  4 15  1  0
  5 16  1  0
  5 17  1  0
  6 18  1  0
  7 19  1  0
  8 20  1  0
  9 21  1  0
 10 22  1  0
M  END
> <Uni-Dock RESULT> 
ENERGY=   -4.242  LOWER_BOUND=    1.671  UPPER_BOUND=    2.799
INTER + INTRA:          -4.242
INTER:                  -4.242
INTRA:                   0.000
UNBOUND:                 0.000

$$$$

     RDKit          3D

 22 22  0  0  0  0  0  0  0  0999 V2000
   46.5065    4.0861    6.8433 N   0  0  0  0  0  0  0  0  0  0  0  0
   46.5446    2.7194    6.3616 N   0  0  0  0  0  0  0  0  0  0  0  0
   44.1718    3.9729    9.8893 C   0  0  0  0  0  0  0  0  0  0  0  0
   46.0884    4.1024    8.2594 C   0  0  0  0  0  0  0  0  0  0  0  0
   44.5861    3.8479    8.4419 C   0  0  0  0  0  0  0  0  0  0  0  0
   44.3124    2.8864   10.7634 C   0  0  0  0  0  0  0  0  0  0  0  0
   43.6678    5.1833   10.3834 C   0  0  0  0  0  0  0  0  0  0  0  0
   43.3025    5.3013   11.7253 C   0  0  0  0  0  0  0  0  0  0  0  0
   43.9467    3.0067   12.1049 C   0  0  0  0  0  0  0  0  0  0  0  0
   43.4413    4.2133   12.5853 C   0  0  0  0  0  0  0  0  0  0  0  0
   47.4463    4.4983    6.8058 H   0  0  0  0  0  0  0  0  0  0  0  0
   46.9315    2.6839    5.4130 H   0  0  0  0  0  0  0  0  0  0  0  0
   45.5969    2.3431    6.2584 H   0  0  0  0  0  0  0  0  0  0  0  0
   46.3249    5.0981    8.6561 H   0  0  0  0  0  0  0  0  0  0  0  0
   46.6854    3.3918    8.8462 H   0  0  0  0  0  0  0  0  0  0  0  0
   44.3106    2.8486    8.0826 H   0  0  0  0  0  0  0  0  0  0  0  0
   44.0077    4.5568    7.8353 H   0  0  0  0  0  0  0  0  0  0  0  0
   44.7086    1.9397   10.4026 H   0  0  0  0  0  0  0  0  0  0  0  0
   43.5564    6.0419    9.7250 H   0  0  0  0  0  0  0  0  0  0  0  0
   42.9100    6.2430   12.0999 H   0  0  0  0  0  0  0  0  0  0  0  0
   44.0571    2.1584   12.7753 H   0  0  0  0  0  0  0  0  0  0  0  0
   43.1567    4.3062   13.6299 H   0  0  0  0  0  0  0  0  0  0  0  0
  2  1  1  0
  3  5  1  0
  4  1  1  0
  5  4  1  0
  6  3  2  0
  7  3  1  0
  8  7  2  0
  9  6  1  0
 10  9  2  0
 10  8  1  0
  1 11  1  0
  2 12  1  0
  2 13  1  0
  4 14  1  0
  4 15  1  0
  5 16  1  0
  5 17  1  0
  6 18  1  0
  7 19  1  0
  8 20  1  0
  9 21  1  0
 10 22  1  0
M  END
> <Uni-Dock RESULT> 
ENERGY=   -3.976  LOWER_BOUND=    3.229  UPPER_BOUND=    5.335
INTER + INTRA:          -3.976
INTER:                  -3.976
INTRA:                   0.000
UNBOUND:                 0.000

$$$$

     RDKit          3D

 22 22  0  0  0  0  0  0  0  0999 V2000
   47.0878    3.5783   18.0181 N   0  0  0  0  0  0  0  0  0  0  0  0
   47.0010    5.0098   17.8066 N   0  0  0  0  0  0  0  0  0  0  0  0
   50.8104    2.7573   17.5601 C   0  0  0  0  0  0  0  0  0  0  0  0
   48.4720    3.2125   18.3794 C   0  0  0  0  0  0  0  0  0  0  0  0
   49.4285    3.2347   17.1797 C   0  0  0  0  0  0  0  0  0  0  0  0
   51.7359    3.6441   18.1269 C   0  0  0  0  0  0  0  0  0  0  0  0
   51.1758    1.4171   17.3770 C   0  0  0  0  0  0  0  0  0  0  0  0
   52.4472    0.9747   17.7460 C   0  0  0  0  0  0  0  0  0  0  0  0
   53.0065    3.1996   18.4953 C   0  0  0  0  0  0  0  0  0  0  0  0
   53.3621    1.8658   18.3042 C   0  0  0  0  0  0  0  0  0  0  0  0
   46.4915    3.3030   18.8075 H   0  0  0  0  0  0  0  0  0  0  0  0
   46.0270    5.2920   17.6565 H   0  0  0  0  0  0  0  0  0  0  0  0
   47.4749    5.2790   16.9386 H   0  0  0  0  0  0  0  0  0  0  0  0
   48.4429    2.1927   18.7843 H   0  0  0  0  0  0  0  0  0  0  0  0
   48.8404    3.8519   19.1926 H   0  0  0  0  0  0  0  0  0  0  0  0
   49.5090    4.2452   16.7602 H   0  0  0  0  0  0  0  0  0  0  0  0
   49.0348    2.6035   16.3724 H   0  0  0  0  0  0  0  0  0  0  0  0
   51.4704    4.6872   18.2849 H   0  0  0  0  0  0  0  0  0  0  0  0
   50.4717    0.7094   16.9453 H   0  0  0  0  0  0  0  0  0  0  0  0
   52.7235   -0.0659   17.5983 H   0  0  0  0  0  0  0  0  0  0  0  0
   53.7187    3.8946   18.9323 H   0  0  0  0  0  0  0  0  0  0  0  0
   54.3516    1.5204   18.5911 H   0  0  0  0  0  0  0  0  0  0  0  0
  2  1  1  0
  3  5  1  0
  4  1  1  0
  5  4  1  0
  6  3  2  0
  7  3  1  0
  8  7  2  0
  9  6  1  0
 10  9  2  0
 10  8  1  0
  1 11  1  0
  2 12  1  0
  2 13  1  0
  4 14  1  0
  4 15  1  0
  5 16  1  0
  5 17  1  0
  6 18  1  0
  7 19  1  0
  8 20  1  0
  9 21  1  0
 10 22  1  0
M  END
> <Uni-Dock RESULT> 
ENERGY=   -3.336  LOWER_BOUND=    9.531  UPPER_BOUND=   10.657
INTER + INTRA:          -3.336
INTER:                  -3.336
INTRA:                   0.000
UNBOUND:                 0.000

$$$$

     RDKit          3D

 22 22  0  0  0  0  0  0  0  0999 V2000
   46.0744    8.9172   12.8701 N   0  0  0  0  0  0  0  0  0  0  0  0
   46.8595    8.7465   14.0766 N   0  0  0  0  0  0  0  0  0  0  0  0
   45.5025    5.3479   11.5757 C   0  0  0  0  0  0  0  0  0  0  0  0
   45.3601    7.6625   12.5604 C   0  0  0  0  0  0  0  0  0  0  0  0
   46.2787    6.5802   11.9774 C   0  0  0  0  0  0  0  0  0  0  0  0
   45.1917    4.3649   12.5252 C   0  0  0  0  0  0  0  0  0  0  0  0
   45.0598    5.1843   10.2565 C   0  0  0  0  0  0  0  0  0  0  0  0
   44.3274    4.0534    9.8922 C   0  0  0  0  0  0  0  0  0  0  0  0
   44.4591    3.2350   12.1588 C   0  0  0  0  0  0  0  0  0  0  0  0
   44.0279    3.0791   10.8428 C   0  0  0  0  0  0  0  0  0  0  0  0
   45.3585    9.6388   13.0158 H   0  0  0  0  0  0  0  0  0  0  0  0
   47.2787    9.6377   14.3611 H   0  0  0  0  0  0  0  0  0  0  0  0
   47.6647    8.1364   13.9039 H   0  0  0  0  0  0  0  0  0  0  0  0
   44.5886    7.9030   11.8178 H   0  0  0  0  0  0  0  0  0  0  0  0
   44.8253    7.2942   13.4459 H   0  0  0  0  0  0  0  0  0  0  0  0
   47.0506    6.2890   12.7006 H   0  0  0  0  0  0  0  0  0  0  0  0
   46.8160    6.9726   11.1043 H   0  0  0  0  0  0  0  0  0  0  0  0
   45.5191    4.4755   13.5568 H   0  0  0  0  0  0  0  0  0  0  0  0
   45.2833    5.9375    9.5043 H   0  0  0  0  0  0  0  0  0  0  0  0
   43.9899    3.9330    8.8662 H   0  0  0  0  0  0  0  0  0  0  0  0
   44.2243    2.4766   12.9010 H   0  0  0  0  0  0  0  0  0  0  0  0
   43.4576    2.1989   10.5581 H   0  0  0  0  0  0  0  0  0  0  0  0
  2  1  1  0
  3  5  1  0
  4  1  1  0
  5  4  1  0
  6  3  2  0
  7  3  1  0
  8  7  2  0
  9  6  1  0
 10  9  2  0
 10  8  1  0
  1 11  1  0
  2 12  1  0
  2 13  1  0
  4 14  1  0
  4 15  1  0
  5 16  1  0
  5 17  1  0
  6 18  1  0
  7 19  1  0
  8 20  1  0
  9 21  1  0
 10 22  1  0
M  END
> <Uni-Dock RESULT> 
ENERGY=   -3.212  LOWER_BOUND=    4.290  UPPER_BOUND=    5.546
INTER + INTRA:          -3.212
INTER:                  -3.212
INTRA:                   0.000
UNBOUND:                 0.000

$$$$

     RDKit          3D

 22 22  0  0  0  0  0  0  0  0999 V2000
   42.9781    4.8198   12.3153 N   0  0  0  0  0  0  0  0  0  0  0  0
   42.0306    5.7134   11.6789 N   0  0  0  0  0  0  0  0  0  0  0  0
   46.2155    6.8679   12.5735 C   0  0  0  0  0  0  0  0  0  0  0  0
   44.0649    5.6059   12.9329 C   0  0  0  0  0  0  0  0  0  0  0  0
   45.0619    6.1576   11.9050 C   0  0  0  0  0  0  0  0  0  0  0  0
   46.0947    8.2102   12.9581 C   0  0  0  0  0  0  0  0  0  0  0  0
   47.4104    6.1875   12.8426 C   0  0  0  0  0  0  0  0  0  0  0  0
   48.4683    6.8412   13.4765 C   0  0  0  0  0  0  0  0  0  0  0  0
   47.1536    8.8617   13.5921 C   0  0  0  0  0  0  0  0  0  0  0  0
   48.3400    8.1777   13.8504 C   0  0  0  0  0  0  0  0  0  0  0  0
   42.5180    4.3017   13.0731 H   0  0  0  0  0  0  0  0  0  0  0  0
   41.2187    5.1903   11.3357 H   0  0  0  0  0  0  0  0  0  0  0  0
   42.4340    6.1300   10.8338 H   0  0  0  0  0  0  0  0  0  0  0  0
   44.6023    4.9357   13.6161 H   0  0  0  0  0  0  0  0  0  0  0  0
   43.6530    6.4098   13.5573 H   0  0  0  0  0  0  0  0  0  0  0  0
   44.5702    6.8565   11.2169 H   0  0  0  0  0  0  0  0  0  0  0  0
   45.4492    5.3420   11.2807 H   0  0  0  0  0  0  0  0  0  0  0  0
   45.1731    8.7552   12.7657 H   0  0  0  0  0  0  0  0  0  0  0  0
   47.5243    5.1435   12.5593 H   0  0  0  0  0  0  0  0  0  0  0  0
   49.3927    6.3069   13.6793 H   0  0  0  0  0  0  0  0  0  0  0  0
   47.0521    9.9034   13.8850 H   0  0  0  0  0  0  0  0  0  0  0  0
   49.1641    8.6857   14.3439 H   0  0  0  0  0  0  0  0  0  0  0  0
  2  1  1  0
  3  5  1  0
  4  1  1  0
  5  4  1  0
  6  3  2  0
  7  3  1  0
  8  7  2  0
  9  6  1  0
 10  9  2  0
 10  8  1  0
  1 11  1  0
  2 12  1  0
  2 13  1  0
  4 14  1  0
  4 15  1  0
  5 16  1  0
  5 17  1  0
  6 18  1  0
  7 19  1  0
  8 20  1  0
  9 21  1  0
 10 22  1  0
M  END
> <Uni-Dock RESULT> 
ENERGY=   -3.005  LOWER_BOUND=    5.249  UPPER_BOUND=    6.476
INTER + INTRA:          -3.005
INTER:                  -3.005
INTRA:                   0.000
UNBOUND:                 0.000

$$$$

     RDKit          3D

 22 22  0  0  0  0  0  0  0  0999 V2000
   44.3766    2.9400   12.3870 N   0  0  0  0  0  0  0  0  0  0  0  0
   43.1394    2.9962   11.6337 N   0  0  0  0  0  0  0  0  0  0  0  0
   45.8757    6.4585   12.0478 C   0  0  0  0  0  0  0  0  0  0  0  0
   44.7863    4.3054   12.7720 C   0  0  0  0  0  0  0  0  0  0  0  0
   45.3719    5.1061   11.6011 C   0  0  0  0  0  0  0  0  0  0  0  0
   44.9943    7.5428   12.1566 C   0  0  0  0  0  0  0  0  0  0  0  0
   47.2233    6.6400   12.3852 C   0  0  0  0  0  0  0  0  0  0  0  0
   47.6825    7.8862   12.8147 C   0  0  0  0  0  0  0  0  0  0  0  0
   45.4555    8.7879   12.5865 C   0  0  0  0  0  0  0  0  0  0  0  0
   46.7990    8.9595   12.9146 C   0  0  0  0  0  0  0  0  0  0  0  0
   44.2340    2.4154   13.2582 H   0  0  0  0  0  0  0  0  0  0  0  0
   42.7888    2.0509   11.4485 H   0  0  0  0  0  0  0  0  0  0  0  0
   43.2985    3.3900   10.7010 H   0  0  0  0  0  0  0  0  0  0  0  0
   45.5567    4.2065   13.5476 H   0  0  0  0  0  0  0  0  0  0  0  0
   43.9504    4.8415   13.2407 H   0  0  0  0  0  0  0  0  0  0  0  0
   44.6234    5.2528   10.8125 H   0  0  0  0  0  0  0  0  0  0  0  0
   46.1941    4.5467   11.1363 H   0  0  0  0  0  0  0  0  0  0  0  0
   43.9424    7.4221   11.9069 H   0  0  0  0  0  0  0  0  0  0  0  0
   47.9240    5.8110   12.3150 H   0  0  0  0  0  0  0  0  0  0  0  0
   48.7299    8.0191   13.0721 H   0  0  0  0  0  0  0  0  0  0  0  0
   44.7657    9.6239   12.6659 H   0  0  0  0  0  0  0  0  0  0  0  0
   47.1574    9.9293   13.2492 H   0  0  0  0  0  0  0  0  0  0  0  0
  2  1  1  0
  3  5  1  0
  4  1  1  0
  5  4  1  0
  6  3  2  0
  7  3  1  0
  8  7  2  0
  9  6  1  0
 10  9  2  0
 10  8  1  0
  1 11  1  0
  2 12  1  0
  2 13  1  0
  4 14  1  0
  4 15  1  0
  5 16  1  0
  5 17  1  0
  6 18  1  0
  7 19  1  0
  8 20  1  0
  9 21  1  0
 10 22  1  0
M  END
> <Uni-Dock RESULT> 
ENERGY=   -2.940  LOWER_BOUND=    4.444  UPPER_BOUND=    6.039
INTER + INTRA:          -2.940
INTER:                  -2.940
INTRA:                   0.000
UNBOUND:                 0.000

$$$$
