
     RDKit          3D

 22 22  0  0  0  0  0  0  0  0999 V2000
   44.0213    5.3938   10.4523 N   0  0  0  0  0  0  0  0  0  0  0  0
   44.4802    5.9919   11.6804 N   0  0  0  0  0  0  0  0  0  0  0  0
   45.6656    3.1142    7.8831 C   0  0  0  0  0  0  0  0  0  0  0  0
   45.0935    4.5998    9.8335 C   0  0  0  0  0  0  0  0  0  0  0  0
   44.5861    3.9331    8.5489 C   0  0  0  0  0  0  0  0  0  0  0  0
   46.5104    3.6932    6.9267 C   0  0  0  0  0  0  0  0  0  0  0  0
   45.8554    1.7710    8.2350 C   0  0  0  0  0  0  0  0  0  0  0  0
   46.8662    1.0191    7.6345 C   0  0  0  0  0  0  0  0  0  0  0  0
   47.5206    2.9393    6.3274 C   0  0  0  0  0  0  0  0  0  0  0  0
   47.6980    1.6029    6.6810 C   0  0  0  0  0  0  0  0  0  0  0  0
   43.6896    6.1042    9.7913 H   0  0  0  0  0  0  0  0  0  0  0  0
   45.3787    6.4716   11.5831 H   0  0  0  0  0  0  0  0  0  0  0  0
   44.6042    5.2878   12.4133 H   0  0  0  0  0  0  0  0  0  0  0  0
   45.9521    5.2437    9.6028 H   0  0  0  0  0  0  0  0  0  0  0  0
   45.4377    3.8288   10.5349 H   0  0  0  0  0  0  0  0  0  0  0  0
   44.2214    4.6916    7.8438 H   0  0  0  0  0  0  0  0  0  0  0  0
   43.7255    3.2878    8.7691 H   0  0  0  0  0  0  0  0  0  0  0  0
   46.3860    4.7353    6.6408 H   0  0  0  0  0  0  0  0  0  0  0  0
   45.2149    1.3022    8.9791 H   0  0  0  0  0  0  0  0  0  0  0  0
   47.0043   -0.0229    7.9110 H   0  0  0  0  0  0  0  0  0  0  0  0
   48.1696    3.3946    5.5839 H   0  0  0  0  0  0  0  0  0  0  0  0
   48.4842    1.0164    6.2132 H   0  0  0  0  0  0  0  0  0  0  0  0
  2  1  1  0
  3  5  1  0
  4  1  1  0
  5  4  1  0
  6  3  2  0
  7  3  1  0
  8  7  2  0
  9  6  1  0
 10  9  2  0
 10  8  1  0
  1 11  1  0
  2 12  1  0
  2 13  1  0
  4 14  1  0
  4 15  1  0
  5 16  1  0
  5 17  1  0
  6 18  1  0
  7 19  1  0
  8 20  1  0
  9 21  1  0
 10 22  1  0
M  END
> <Uni-Dock RESULT> 
ENERGY=   -5.787  LOWER_BOUND=    0.000  UPPER_BOUND=    0.000
INTER + INTRA:          -5.787
INTER:                  -5.787
INTRA:                   0.000
UNBOUND:                 0.000

$$$$

     RDKit          3D

 22 22  0  0  0  0  0  0  0  0999 V2000
   46.9522    2.5870    5.7894 N   0  0  0  0  0  0  0  0  0  0  0  0
   48.3028    2.1319    5.5765 N   0  0  0  0  0  0  0  0  0  0  0  0
   45.0423    3.7471    8.8729 C   0  0  0  0  0  0  0  0  0  0  0  0
   46.7316    2.8997    7.2095 C   0  0  0  0  0  0  0  0  0  0  0  0
   45.3054    3.4223    7.4221 C   0  0  0  0  0  0  0  0  0  0  0  0
   44.5244    2.7737    9.7377 C   0  0  0  0  0  0  0  0  0  0  0  0
   45.3406    5.0190    9.3801 C   0  0  0  0  0  0  0  0  0  0  0  0
   45.1165    5.3137   10.7257 C   0  0  0  0  0  0  0  0  0  0  0  0
   44.3011    3.0706   11.0830 C   0  0  0  0  0  0  0  0  0  0  0  0
   44.5966    4.3401   11.5765 C   0  0  0  0  0  0  0  0  0  0  0  0
   46.2687    1.8892    5.4773 H   0  0  0  0  0  0  0  0  0  0  0  0
   48.5900    1.4028    6.2343 H   0  0  0  0  0  0  0  0  0  0  0  0
   48.9741    2.8980    5.6800 H   0  0  0  0  0  0  0  0  0  0  0  0
   46.8927    2.0024    7.8209 H   0  0  0  0  0  0  0  0  0  0  0  0
   47.4526    3.6586    7.5397 H   0  0  0  0  0  0  0  0  0  0  0  0
   44.5721    2.6804    7.0794 H   0  0  0  0  0  0  0  0  0  0  0  0
   45.1337    4.3194    6.8130 H   0  0  0  0  0  0  0  0  0  0  0  0
   44.2898    1.7778    9.3685 H   0  0  0  0  0  0  0  0  0  0  0  0
   45.7485    5.7887    8.7283 H   0  0  0  0  0  0  0  0  0  0  0  0
   45.3476    6.3037   11.1100 H   0  0  0  0  0  0  0  0  0  0  0  0
   43.8959    2.3113   11.7467 H   0  0  0  0  0  0  0  0  0  0  0  0
   44.4216    4.5708   12.6239 H   0  0  0  0  0  0  0  0  0  0  0  0
  2  1  1  0
  3  5  1  0
  4  1  1  0
  5  4  1  0
  6  3  2  0
  7  3  1  0
  8  7  2  0
  9  6  1  0
 10  9  2  0
 10  8  1  0
  1 11  1  0
  2 12  1  0
  2 13  1  0
  4 14  1  0
  4 15  1  0
  5 16  1  0
  5 17  1  0
  6 18  1  0
  7 19  1  0
  8 20  1  0
  9 21  1  0
 10 22  1  0
M  END
> <Uni-Dock RESULT> 
ENERGY=   -4.288  LOWER_BOUND=    3.239  UPPER_BOUND=    5.012
INTER + INTRA:          -4.288
INTER:                  -4.288
INTRA:                   0.000
UNBOUND:                 0.000

$$$$

     RDKit          3D

 22 22  0  0  0  0  0  0  0  0999 V2000
   46.1220    3.2474    6.5446 N   0  0  0  0  0  0  0  0  0  0  0  0
   47.4306    2.7880    6.1534 N   0  0  0  0  0  0  0  0  0  0  0  0
   44.5140    3.9899    9.9156 C   0  0  0  0  0  0  0  0  0  0  0  0
   46.0282    3.3501    8.0087 C   0  0  0  0  0  0  0  0  0  0  0  0
   44.6472    3.8785    8.4159 C   0  0  0  0  0  0  0  0  0  0  0  0
   44.0248    2.9142   10.6687 C   0  0  0  0  0  0  0  0  0  0  0  0
   44.9060    5.1616   10.5772 C   0  0  0  0  0  0  0  0  0  0  0  0
   44.8021    5.2578   11.9656 C   0  0  0  0  0  0  0  0  0  0  0  0
   43.9217    3.0126   12.0571 C   0  0  0  0  0  0  0  0  0  0  0  0
   44.3098    4.1840   12.7050 C   0  0  0  0  0  0  0  0  0  0  0  0
   45.3865    2.6257    6.1923 H   0  0  0  0  0  0  0  0  0  0  0  0
   47.7374    1.9600    6.6702 H   0  0  0  0  0  0  0  0  0  0  0  0
   48.1404    3.5089    6.3111 H   0  0  0  0  0  0  0  0  0  0  0  0
   46.1984    2.3667    8.4657 H   0  0  0  0  0  0  0  0  0  0  0  0
   46.8051    4.0283    8.3846 H   0  0  0  0  0  0  0  0  0  0  0  0
   43.8578    3.2194    8.0312 H   0  0  0  0  0  0  0  0  0  0  0  0
   44.4666    4.8618    7.9620 H   0  0  0  0  0  0  0  0  0  0  0  0
   43.7191    1.9926   10.1784 H   0  0  0  0  0  0  0  0  0  0  0  0
   45.2938    6.0074   10.0134 H   0  0  0  0  0  0  0  0  0  0  0  0
   45.1052    6.1713   12.4703 H   0  0  0  0  0  0  0  0  0  0  0  0
   43.5381    2.1751   12.6339 H   0  0  0  0  0  0  0  0  0  0  0  0
   44.2283    4.2601   13.7860 H   0  0  0  0  0  0  0  0  0  0  0  0
  2  1  1  0
  3  5  1  0
  4  1  1  0
  5  4  1  0
  6  3  2  0
  7  3  1  0
  8  7  2  0
  9  6  1  0
 10  9  2  0
 10  8  1  0
  1 11  1  0
  2 12  1  0
  2 13  1  0
  4 14  1  0
  4 15  1  0
  5 16  1  0
  5 17  1  0
  6 18  1  0
  7 19  1  0
  8 20  1  0
  9 21  1  0
 10 22  1  0
M  END
> <Uni-Dock RESULT> 
ENERGY=   -3.885  LOWER_BOUND=    3.011  UPPER_BOUND=    5.155
INTER + INTRA:          -3.885
INTER:                  -3.885
INTRA:                   0.000
UNBOUND:                 0.000

$$$$

     RDKit          3D

 22 22  0  0  0  0  0  0  0  0999 V2000
   45.1842    8.3614   12.8050 N   0  0  0  0  0  0  0  0  0  0  0  0
   46.3120    8.6947   13.6377 N   0  0  0  0  0  0  0  0  0  0  0  0
   44.1825    5.2207   10.8985 C   0  0  0  0  0  0  0  0  0  0  0  0
   45.3078    6.9872   12.2957 C   0  0  0  0  0  0  0  0  0  0  0  0
   44.0847    6.6251   11.4441 C   0  0  0  0  0  0  0  0  0  0  0  0
   44.7814    4.9803    9.6547 C   0  0  0  0  0  0  0  0  0  0  0  0
   43.7013    4.1356   11.6435 C   0  0  0  0  0  0  0  0  0  0  0  0
   43.8096    2.8351   11.1488 C   0  0  0  0  0  0  0  0  0  0  0  0
   44.8886    3.6789    9.1619 C   0  0  0  0  0  0  0  0  0  0  0  0
   44.4025    2.6071    9.9085 C   0  0  0  0  0  0  0  0  0  0  0  0
   45.0920    9.0154   12.0206 H   0  0  0  0  0  0  0  0  0  0  0  0
   47.2116    8.4677   13.2063 H   0  0  0  0  0  0  0  0  0  0  0  0
   46.2799    8.1886   14.5272 H   0  0  0  0  0  0  0  0  0  0  0  0
   46.2205    6.8907   11.6934 H   0  0  0  0  0  0  0  0  0  0  0  0
   45.3901    6.2851   13.1354 H   0  0  0  0  0  0  0  0  0  0  0  0
   43.9788    7.3303   10.6092 H   0  0  0  0  0  0  0  0  0  0  0  0
   43.1659    6.7203   12.0374 H   0  0  0  0  0  0  0  0  0  0  0  0
   45.1669    5.8058    9.0604 H   0  0  0  0  0  0  0  0  0  0  0  0
   43.2376    4.2980   12.6142 H   0  0  0  0  0  0  0  0  0  0  0  0
   43.4307    1.9997   11.7316 H   0  0  0  0  0  0  0  0  0  0  0  0
   45.3513    3.5010    8.1947 H   0  0  0  0  0  0  0  0  0  0  0  0
   44.4856    1.5942    9.5236 H   0  0  0  0  0  0  0  0  0  0  0  0
  2  1  1  0
  3  5  1  0
  4  1  1  0
  5  4  1  0
  6  3  2  0
  7  3  1  0
  8  7  2  0
  9  6  1  0
 10  9  2  0
 10  8  1  0
  1 11  1  0
  2 12  1  0
  2 13  1  0
  4 14  1  0
  4 15  1  0
  5 16  1  0
  5 17  1  0
  6 18  1  0
  7 19  1  0
  8 20  1  0
  9 21  1  0
 10 22  1  0
M  END
> <Uni-Dock RESULT> 
ENERGY=   -3.595  LOWER_BOUND=    2.944  UPPER_BOUND=    4.127
INTER + INTRA:          -3.595
INTER:                  -3.595
INTRA:                   0.000
UNBOUND:                 0.000

$$$$

     RDKit          3D

 22 22  0  0  0  0  0  0  0  0999 V2000
   46.2665    4.1756    7.3646 N   0  0  0  0  0  0  0  0  0  0  0  0
   46.1124    3.0519    6.4758 N   0  0  0  0  0  0  0  0  0  0  0  0
   44.7159    5.0819   10.7226 C   0  0  0  0  0  0  0  0  0  0  0  0
   45.3989    4.0239    8.5425 C   0  0  0  0  0  0  0  0  0  0  0  0
   45.5983    5.2024    9.5035 C   0  0  0  0  0  0  0  0  0  0  0  0
   43.4322    5.6436   10.7306 C   0  0  0  0  0  0  0  0  0  0  0  0
   45.1591    4.3805   11.8521 C   0  0  0  0  0  0  0  0  0  0  0  0
   44.3361    4.2513   12.9717 C   0  0  0  0  0  0  0  0  0  0  0  0
   42.6109    5.5133   11.8515 C   0  0  0  0  0  0  0  0  0  0  0  0
   43.0630    4.8179   12.9715 C   0  0  0  0  0  0  0  0  0  0  0  0
   46.0559    5.0598    6.8898 H   0  0  0  0  0  0  0  0  0  0  0  0
   45.1342    2.8309    6.2726 H   0  0  0  0  0  0  0  0  0  0  0  0
   46.5257    2.2037    6.8735 H   0  0  0  0  0  0  0  0  0  0  0  0
   44.3477    3.9737    8.2304 H   0  0  0  0  0  0  0  0  0  0  0  0
   45.6352    3.0853    9.0602 H   0  0  0  0  0  0  0  0  0  0  0  0
   45.3827    6.1509    8.9940 H   0  0  0  0  0  0  0  0  0  0  0  0
   46.6478    5.2622    9.8202 H   0  0  0  0  0  0  0  0  0  0  0  0
   43.0641    6.1883    9.8640 H   0  0  0  0  0  0  0  0  0  0  0  0
   46.1499    3.9313   11.8661 H   0  0  0  0  0  0  0  0  0  0  0  0
   44.6890    3.7085   13.8447 H   0  0  0  0  0  0  0  0  0  0  0  0
   41.6178    5.9549   11.8513 H   0  0  0  0  0  0  0  0  0  0  0  0
   42.4231    4.7176   13.8442 H   0  0  0  0  0  0  0  0  0  0  0  0
  2  1  1  0
  3  5  1  0
  4  1  1  0
  5  4  1  0
  6  3  2  0
  7  3  1  0
  8  7  2  0
  9  6  1  0
 10  9  2  0
 10  8  1  0
  1 11  1  0
  2 12  1  0
  2 13  1  0
  4 14  1  0
  4 15  1  0
  5 16  1  0
  5 17  1  0
  6 18  1  0
  7 19  1  0
  8 20  1  0
  9 21  1  0
 10 22  1  0
M  END
> <Uni-Dock RESULT> 
ENERGY=   -3.526  LOWER_BOUND=    3.007  UPPER_BOUND=    5.468
INTER + INTRA:          -3.526
INTER:                  -3.526
INTRA:                   0.000
UNBOUND:                 0.000

$$$$

     RDKit          3D

 22 22  0  0  0  0  0  0  0  0999 V2000
   48.6389    6.5611   13.6281 N   0  0  0  0  0  0  0  0  0  0  0  0
   49.5964    7.1905   12.7543 N   0  0  0  0  0  0  0  0  0  0  0  0
   45.2875    4.8535   13.0335 C   0  0  0  0  0  0  0  0  0  0  0  0
   47.4851    6.0698   12.8598 C   0  0  0  0  0  0  0  0  0  0  0  0
   46.4898    5.3651   13.7899 C   0  0  0  0  0  0  0  0  0  0  0  0
   44.1519    5.6586   12.8732 C   0  0  0  0  0  0  0  0  0  0  0  0
   45.3036    3.5765   12.4564 C   0  0  0  0  0  0  0  0  0  0  0  0
   44.2003    3.1108   11.7397 C   0  0  0  0  0  0  0  0  0  0  0  0
   43.0496    5.1908   12.1562 C   0  0  0  0  0  0  0  0  0  0  0  0
   43.0738    3.9174   11.5902 C   0  0  0  0  0  0  0  0  0  0  0  0
   48.3202    7.2051   14.3597 H   0  0  0  0  0  0  0  0  0  0  0  0
   49.1736    7.8707   12.1176 H   0  0  0  0  0  0  0  0  0  0  0  0
   50.0741    6.5007   12.1675 H   0  0  0  0  0  0  0  0  0  0  0  0
   46.9887    6.9066   12.3515 H   0  0  0  0  0  0  0  0  0  0  0  0
   47.8242    5.3678   12.0872 H   0  0  0  0  0  0  0  0  0  0  0  0
   46.1548    6.0502   14.5798 H   0  0  0  0  0  0  0  0  0  0  0  0
   46.9775    4.5270   14.3048 H   0  0  0  0  0  0  0  0  0  0  0  0
   44.1177    6.6553   13.3076 H   0  0  0  0  0  0  0  0  0  0  0  0
   46.1767    2.9362   12.5633 H   0  0  0  0  0  0  0  0  0  0  0  0
   44.2200    2.1179   11.2983 H   0  0  0  0  0  0  0  0  0  0  0  0
   42.1711    5.8200   12.0393 H   0  0  0  0  0  0  0  0  0  0  0  0
   42.2148    3.5537   11.0328 H   0  0  0  0  0  0  0  0  0  0  0  0
  2  1  1  0
  3  5  1  0
  4  1  1  0
  5  4  1  0
  6  3  2  0
  7  3  1  0
  8  7  2  0
  9  6  1  0
 10  9  2  0
 10  8  1  0
  1 11  1  0
  2 12  1  0
  2 13  1  0
  4 14  1  0
  4 15  1  0
  5 16  1  0
  5 17  1  0
  6 18  1  0
  7 19  1  0
  8 20  1  0
  9 21  1  0
 10 22  1  0
M  END
> <Uni-Dock RESULT> 
ENERGY=   -3.143  LOWER_BOUND=    4.933  UPPER_BOUND=    5.880
INTER + INTRA:          -3.143
INTER:                  -3.143
INTRA:                   0.000
UNBOUND:                 0.000

$$$$

     RDKit          3D

 22 22  0  0  0  0  0  0  0  0999 V2000
   45.6051    9.9868   12.4107 N   0  0  0  0  0  0  0  0  0  0  0  0
   44.9750   11.1785   11.9015 N   0  0  0  0  0  0  0  0  0  0  0  0
   44.9156    6.2693   11.9562 C   0  0  0  0  0  0  0  0  0  0  0  0
   44.9092    8.7868   11.9221 C   0  0  0  0  0  0  0  0  0  0  0  0
   45.6095    7.5221   12.4343 C   0  0  0  0  0  0  0  0  0  0  0  0
   43.8949    5.6858   12.7187 C   0  0  0  0  0  0  0  0  0  0  0  0
   45.2639    5.6905   10.7283 C   0  0  0  0  0  0  0  0  0  0  0  0
   44.6088    4.5441   10.2763 C   0  0  0  0  0  0  0  0  0  0  0  0
   43.2413    4.5393   12.2647 C   0  0  0  0  0  0  0  0  0  0  0  0
   43.5985    3.9686   11.0444 C   0  0  0  0  0  0  0  0  0  0  0  0
   45.6253    9.9832   13.4360 H   0  0  0  0  0  0  0  0  0  0  0  0
   43.9594   11.1811   12.0259 H   0  0  0  0  0  0  0  0  0  0  0  0
   45.1454   11.2895   10.8980 H   0  0  0  0  0  0  0  0  0  0  0  0
   43.8648    8.7948   12.2599 H   0  0  0  0  0  0  0  0  0  0  0  0
   44.9017    8.7821   10.8245 H   0  0  0  0  0  0  0  0  0  0  0  0
   45.6407    7.5211   13.5318 H   0  0  0  0  0  0  0  0  0  0  0  0
   46.6561    7.5055   12.1029 H   0  0  0  0  0  0  0  0  0  0  0  0
   43.6035    6.1197   13.6726 H   0  0  0  0  0  0  0  0  0  0  0  0
   46.0495    6.1296   10.1170 H   0  0  0  0  0  0  0  0  0  0  0  0
   44.8875    4.0997    9.3244 H   0  0  0  0  0  0  0  0  0  0  0  0
   42.4530    4.0906   12.8635 H   0  0  0  0  0  0  0  0  0  0  0  0
   43.0895    3.0754   10.6920 H   0  0  0  0  0  0  0  0  0  0  0  0
  2  1  1  0
  3  5  1  0
  4  1  1  0
  5  4  1  0
  6  3  2  0
  7  3  1  0
  8  7  2  0
  9  6  1  0
 10  9  2  0
 10  8  1  0
  1 11  1  0
  2 12  1  0
  2 13  1  0
  4 14  1  0
  4 15  1  0
  5 16  1  0
  5 17  1  0
  6 18  1  0
  7 19  1  0
  8 20  1  0
  9 21  1  0
 10 22  1  0
M  END
> <Uni-Dock RESULT> 
ENERGY=   -3.052  LOWER_BOUND=    4.112  UPPER_BOUND=    5.666
INTER + INTRA:          -3.052
INTER:                  -3.052
INTRA:                   0.000
UNBOUND:                 0.000

$$$$

     RDKit          3D

 22 22  0  0  0  0  0  0  0  0999 V2000
   43.5135   10.4493    8.8576 N   0  0  0  0  0  0  0  0  0  0  0  0
   43.7549   11.1353    7.6135 N   0  0  0  0  0  0  0  0  0  0  0  0
   40.8020   10.7372   11.5158 C   0  0  0  0  0  0  0  0  0  0  0  0
   42.3065   10.9772    9.5114 C   0  0  0  0  0  0  0  0  0  0  0  0
   42.0326   10.2151   10.8139 C   0  0  0  0  0  0  0  0  0  0  0  0
   40.9041   11.7688   12.4586 C   0  0  0  0  0  0  0  0  0  0  0  0
   39.5373   10.2159   11.2113 C   0  0  0  0  0  0  0  0  0  0  0  0
   38.3971   10.7120   11.8450 C   0  0  0  0  0  0  0  0  0  0  0  0
   39.7625   12.2634   13.0912 C   0  0  0  0  0  0  0  0  0  0  0  0
   38.5098   11.7348   12.7847 C   0  0  0  0  0  0  0  0  0  0  0  0
   44.3155   10.5306    9.4913 H   0  0  0  0  0  0  0  0  0  0  0  0
   43.7156   12.1539    7.7016 H   0  0  0  0  0  0  0  0  0  0  0  0
   43.0612   10.8775    6.9059 H   0  0  0  0  0  0  0  0  0  0  0  0
   42.4334   12.0461    9.7270 H   0  0  0  0  0  0  0  0  0  0  0  0
   41.4446   10.8755    8.8395 H   0  0  0  0  0  0  0  0  0  0  0  0
   42.8942   10.2929   11.4900 H   0  0  0  0  0  0  0  0  0  0  0  0
   41.9059    9.1440   10.6090 H   0  0  0  0  0  0  0  0  0  0  0  0
   41.8742   12.1930   12.7079 H   0  0  0  0  0  0  0  0  0  0  0  0
   39.4335    9.4185   10.4785 H   0  0  0  0  0  0  0  0  0  0  0  0
   37.4205   10.2997   11.6053 H   0  0  0  0  0  0  0  0  0  0  0  0
   39.8503   13.0613   13.8239 H   0  0  0  0  0  0  0  0  0  0  0  0
   37.6215   12.1199   13.2783 H   0  0  0  0  0  0  0  0  0  0  0  0
  2  1  1  0
  3  5  1  0
  4  1  1  0
  5  4  1  0
  6  3  2  0
  7  3  1  0
  8  7  2  0
  9  6  1  0
 10  9  2  0
 10  8  1  0
  1 11  1  0
  2 12  1  0
  2 13  1  0
  4 14  1  0
  4 15  1  0
  5 16  1  0
  5 17  1  0
  6 18  1  0
  7 19  1  0
  8 20  1  0
  9 21  1  0
 10 22  1  0
M  END
> <Uni-Dock RESULT> 
ENERGY=   -3.045  LOWER_BOUND=    8.577  UPPER_BOUND=   10.557
INTER + INTRA:          -3.045
INTER:                  -3.045
INTRA:                   0.000
UNBOUND:                 0.000

$$$$

     RDKit          3D

 22 22  0  0  0  0  0  0  0  0999 V2000
   47.7371    3.0627   16.3237 N   0  0  0  0  0  0  0  0  0  0  0  0
   47.8056    3.2883   17.7453 N   0  0  0  0  0  0  0  0  0  0  0  0
   46.5824    5.2013   13.3921 C   0  0  0  0  0  0  0  0  0  0  0  0
   47.1840    4.2419   15.6407 C   0  0  0  0  0  0  0  0  0  0  0  0
   47.1522    4.0107   14.1249 C   0  0  0  0  0  0  0  0  0  0  0  0
   45.2077    5.2876   13.1347 C   0  0  0  0  0  0  0  0  0  0  0  0
   47.4183    6.2502   12.9856 C   0  0  0  0  0  0  0  0  0  0  0  0
   46.8892    7.3606   12.3261 C   0  0  0  0  0  0  0  0  0  0  0  0
   44.6808    6.3990   12.4750 C   0  0  0  0  0  0  0  0  0  0  0  0
   45.5213    7.4345   12.0706 C   0  0  0  0  0  0  0  0  0  0  0  0
   47.1714    2.2364   16.1028 H   0  0  0  0  0  0  0  0  0  0  0  0
   46.9330    3.6512   18.1374 H   0  0  0  0  0  0  0  0  0  0  0  0
   48.5347    3.9680   17.9793 H   0  0  0  0  0  0  0  0  0  0  0  0
   46.1690    4.4456   16.0060 H   0  0  0  0  0  0  0  0  0  0  0  0
   47.7987    5.1235   15.8638 H   0  0  0  0  0  0  0  0  0  0  0  0
   46.5550    3.1206   13.8871 H   0  0  0  0  0  0  0  0  0  0  0  0
   48.1633    3.8042   13.7499 H   0  0  0  0  0  0  0  0  0  0  0  0
   44.5381    4.4885   13.4450 H   0  0  0  0  0  0  0  0  0  0  0  0
   48.4879    6.2072   13.1797 H   0  0  0  0  0  0  0  0  0  0  0  0
   47.5451    8.1680   12.0114 H   0  0  0  0  0  0  0  0  0  0  0  0
   43.6139    6.4569   12.2759 H   0  0  0  0  0  0  0  0  0  0  0  0
   45.1103    8.2991   11.5562 H   0  0  0  0  0  0  0  0  0  0  0  0
  2  1  1  0
  3  5  1  0
  4  1  1  0
  5  4  1  0
  6  3  2  0
  7  3  1  0
  8  7  2  0
  9  6  1  0
 10  9  2  0
 10  8  1  0
  1 11  1  0
  2 12  1  0
  2 13  1  0
  4 14  1  0
  4 15  1  0
  5 16  1  0
  5 17  1  0
  6 18  1  0
  7 19  1  0
  8 20  1  0
  9 21  1  0
 10 22  1  0
M  END
> <Uni-Dock RESULT> 
ENERGY=   -2.957  LOWER_BOUND=    6.343  UPPER_BOUND=    7.043
INTER + INTRA:          -2.957
INTER:                  -2.957
INTRA:                   0.000
UNBOUND:                 0.000

$$$$
