
     RDKit          3D

 22 22  0  0  0  0  0  0  0  0999 V2000
   47.7329    1.2471    6.5807 N   0  0  0  0  0  0  0  0  0  0  0  0
   47.1802    0.6332    7.7583 N   0  0  0  0  0  0  0  0  0  0  0  0
   45.6382    3.6610    7.9443 C   0  0  0  0  0  0  0  0  0  0  0  0
   47.6493    2.7168    6.6811 C   0  0  0  0  0  0  0  0  0  0  0  0
   46.2210    3.2850    6.6014 C   0  0  0  0  0  0  0  0  0  0  0  0
   44.7415    2.8055    8.5964 C   0  0  0  0  0  0  0  0  0  0  0  0
   45.9934    4.8691    8.5611 C   0  0  0  0  0  0  0  0  0  0  0  0
   45.4581    5.2141    9.8033 C   0  0  0  0  0  0  0  0  0  0  0  0
   44.2075    3.1511    9.8388 C   0  0  0  0  0  0  0  0  0  0  0  0
   44.5651    4.3554   10.4416 C   0  0  0  0  0  0  0  0  0  0  0  0
   48.7140    0.9879    6.4364 H   0  0  0  0  0  0  0  0  0  0  0  0
   47.6917    0.8695    8.6125 H   0  0  0  0  0  0  0  0  0  0  0  0
   47.1743   -0.3869    7.6874 H   0  0  0  0  0  0  0  0  0  0  0  0
   48.1960    3.1024    5.8113 H   0  0  0  0  0  0  0  0  0  0  0  0
   48.1911    3.0768    7.5650 H   0  0  0  0  0  0  0  0  0  0  0  0
   46.2374    4.1922    5.9818 H   0  0  0  0  0  0  0  0  0  0  0  0
   45.5501    2.5955    6.0725 H   0  0  0  0  0  0  0  0  0  0  0  0
   44.4633    1.8584    8.1384 H   0  0  0  0  0  0  0  0  0  0  0  0
   46.6871    5.5502    8.0743 H   0  0  0  0  0  0  0  0  0  0  0  0
   45.7367    6.1539   10.2723 H   0  0  0  0  0  0  0  0  0  0  0  0
   43.5138    2.4779   10.3349 H   0  0  0  0  0  0  0  0  0  0  0  0
   44.1479    4.6240   11.4082 H   0  0  0  0  0  0  0  0  0  0  0  0
  2  1  1  0
  3  5  1  0
  4  1  1  0
  5  4  1  0
  6  3  2  0
  7  3  1  0
  8  7  2  0
  9  6  1  0
 10  9  2  0
 10  8  1  0
  1 11  1  0
  2 12  1  0
  2 13  1  0
  4 14  1  0
  4 15  1  0
  5 16  1  0
  5 17  1  0
  6 18  1  0
  7 19  1  0
  8 20  1  0
  9 21  1  0
 10 22  1  0
M  END
> <Uni-Dock RESULT> 
ENERGY=   -4.822  LOWER_BOUND=    0.000  UPPER_BOUND=    0.000
INTER + INTRA:          -4.822
INTER:                  -4.822
INTRA:                   0.000
UNBOUND:                 0.000

$$$$

     RDKit          3D

 22 22  0  0  0  0  0  0  0  0999 V2000
   42.7839    6.3325   12.1602 N   0  0  0  0  0  0  0  0  0  0  0  0
   42.1198    5.1234   11.7528 N   0  0  0  0  0  0  0  0  0  0  0  0
   45.1362    4.6207   10.2602 C   0  0  0  0  0  0  0  0  0  0  0  0
   43.9087    6.6304   11.2531 C   0  0  0  0  0  0  0  0  0  0  0  0
   45.0952    5.6558   11.3608 C   0  0  0  0  0  0  0  0  0  0  0  0
   44.6722    3.3192   10.4885 C   0  0  0  0  0  0  0  0  0  0  0  0
   45.6323    4.9510    8.9909 C   0  0  0  0  0  0  0  0  0  0  0  0
   45.6662    3.9958    7.9734 C   0  0  0  0  0  0  0  0  0  0  0  0
   44.7058    2.3653    9.4703 C   0  0  0  0  0  0  0  0  0  0  0  0
   45.2035    2.7033    8.2133 C   0  0  0  0  0  0  0  0  0  0  0  0
   42.1492    7.1373   12.1638 H   0  0  0  0  0  0  0  0  0  0  0  0
   41.6988    5.1899   10.8224 H   0  0  0  0  0  0  0  0  0  0  0  0
   41.3717    4.8645   12.4002 H   0  0  0  0  0  0  0  0  0  0  0  0
   44.2777    7.6183   11.5569 H   0  0  0  0  0  0  0  0  0  0  0  0
   43.5552    6.7423   10.2202 H   0  0  0  0  0  0  0  0  0  0  0  0
   46.0294    6.2317   11.3087 H   0  0  0  0  0  0  0  0  0  0  0  0
   45.1193    5.1694   12.3447 H   0  0  0  0  0  0  0  0  0  0  0  0
   44.2730    3.0480   11.4638 H   0  0  0  0  0  0  0  0  0  0  0  0
   45.9988    5.9546    8.7894 H   0  0  0  0  0  0  0  0  0  0  0  0
   46.0552    4.2600    6.9937 H   0  0  0  0  0  0  0  0  0  0  0  0
   44.3416    1.3594    9.6600 H   0  0  0  0  0  0  0  0  0  0  0  0
   45.2302    1.9597    7.4216 H   0  0  0  0  0  0  0  0  0  0  0  0
  2  1  1  0
  3  5  1  0
  4  1  1  0
  5  4  1  0
  6  3  2  0
  7  3  1  0
  8  7  2  0
  9  6  1  0
 10  9  2  0
 10  8  1  0
  1 11  1  0
  2 12  1  0
  2 13  1  0
  4 14  1  0
  4 15  1  0
  5 16  1  0
  5 17  1  0
  6 18  1  0
  7 19  1  0
  8 20  1  0
  9 21  1  0
 10 22  1  0
M  END
> <Uni-Dock RESULT> 
ENERGY=   -3.774  LOWER_BOUND=    3.841  UPPER_BOUND=    4.976
INTER + INTRA:          -3.774
INTER:                  -3.774
INTRA:                   0.000
UNBOUND:                 0.000

$$$$

     RDKit          3D

 22 22  0  0  0  0  0  0  0  0999 V2000
   43.0425    3.2525   11.3683 N   0  0  0  0  0  0  0  0  0  0  0  0
   44.4047    2.7908   11.3715 N   0  0  0  0  0  0  0  0  0  0  0  0
   44.8388    5.7879   12.9233 C   0  0  0  0  0  0  0  0  0  0  0  0
   42.9982    4.7207   11.5075 C   0  0  0  0  0  0  0  0  0  0  0  0
   43.4278    5.2473   12.8885 C   0  0  0  0  0  0  0  0  0  0  0  0
   45.8872    5.0107   13.4313 C   0  0  0  0  0  0  0  0  0  0  0  0
   45.1203    7.0736   12.4396 C   0  0  0  0  0  0  0  0  0  0  0  0
   46.4244    7.5711   12.4681 C   0  0  0  0  0  0  0  0  0  0  0  0
   47.1907    5.5087   13.4585 C   0  0  0  0  0  0  0  0  0  0  0  0
   47.4590    6.7889   12.9778 C   0  0  0  0  0  0  0  0  0  0  0  0
   42.5510    2.9942   10.5066 H   0  0  0  0  0  0  0  0  0  0  0  0
   44.9520    3.1478   10.5840 H   0  0  0  0  0  0  0  0  0  0  0  0
   44.4598    1.7703   11.3340 H   0  0  0  0  0  0  0  0  0  0  0  0
   41.9446    4.9970   11.3733 H   0  0  0  0  0  0  0  0  0  0  0  0
   43.5461    5.2049   10.6892 H   0  0  0  0  0  0  0  0  0  0  0  0
   42.7529    6.0642   13.1790 H   0  0  0  0  0  0  0  0  0  0  0  0
   43.2921    4.4816   13.6634 H   0  0  0  0  0  0  0  0  0  0  0  0
   45.6895    4.0063   13.8003 H   0  0  0  0  0  0  0  0  0  0  0  0
   44.3231    7.6964   12.0410 H   0  0  0  0  0  0  0  0  0  0  0  0
   46.6326    8.5698   12.0938 H   0  0  0  0  0  0  0  0  0  0  0  0
   47.9954    4.8951   13.8540 H   0  0  0  0  0  0  0  0  0  0  0  0
   48.4739    7.1761   13.0005 H   0  0  0  0  0  0  0  0  0  0  0  0
  2  1  1  0
  3  5  1  0
  4  1  1  0
  5  4  1  0
  6  3  2  0
  7  3  1  0
  8  7  2  0
  9  6  1  0
 10  9  2  0
 10  8  1  0
  1 11  1  0
  2 12  1  0
  2 13  1  0
  4 14  1  0
  4 15  1  0
  5 16  1  0
  5 17  1  0
  6 18  1  0
  7 19  1  0
  8 20  1  0
  9 21  1  0
 10 22  1  0
M  END
> <Uni-Dock RESULT> 
ENERGY=   -3.328  LOWER_BOUND=    4.696  UPPER_BOUND=    5.626
INTER + INTRA:          -3.328
INTER:                  -3.328
INTRA:                   0.000
UNBOUND:                 0.000

$$$$

     RDKit          3D

 22 22  0  0  0  0  0  0  0  0999 V2000
   45.8005    3.7665    7.7429 N   0  0  0  0  0  0  0  0  0  0  0  0
   46.3156    4.9903    8.2960 N   0  0  0  0  0  0  0  0  0  0  0  0
   44.4610    3.9303   10.9449 C   0  0  0  0  0  0  0  0  0  0  0  0
   44.5765    3.3560    8.4572 C   0  0  0  0  0  0  0  0  0  0  0  0
   44.8054    2.8883    9.9057 C   0  0  0  0  0  0  0  0  0  0  0  0
   45.4672    4.6967   11.5460 C   0  0  0  0  0  0  0  0  0  0  0  0
   43.1270    4.1508   11.3166 C   0  0  0  0  0  0  0  0  0  0  0  0
   42.8089    5.1163   12.2735 C   0  0  0  0  0  0  0  0  0  0  0  0
   45.1479    5.6622   12.5020 C   0  0  0  0  0  0  0  0  0  0  0  0
   43.8193    5.8713   12.8662 C   0  0  0  0  0  0  0  0  0  0  0  0
   45.5782    3.8585    6.7465 H   0  0  0  0  0  0  0  0  0  0  0  0
   45.6724    5.7797    8.1938 H   0  0  0  0  0  0  0  0  0  0  0  0
   47.1964    5.2650    7.8551 H   0  0  0  0  0  0  0  0  0  0  0  0
   44.1863    2.4944    7.9007 H   0  0  0  0  0  0  0  0  0  0  0  0
   43.8073    4.1358    8.3890 H   0  0  0  0  0  0  0  0  0  0  0  0
   44.1735    2.0097   10.0956 H   0  0  0  0  0  0  0  0  0  0  0  0
   45.8336    2.5310   10.0480 H   0  0  0  0  0  0  0  0  0  0  0  0
   46.5069    4.5476   11.2616 H   0  0  0  0  0  0  0  0  0  0  0  0
   42.3282    3.5680   10.8646 H   0  0  0  0  0  0  0  0  0  0  0  0
   41.7726    5.2780   12.5575 H   0  0  0  0  0  0  0  0  0  0  0  0
   45.9379    6.2510   12.9600 H   0  0  0  0  0  0  0  0  0  0  0  0
   43.5719    6.6224   13.6113 H   0  0  0  0  0  0  0  0  0  0  0  0
  2  1  1  0
  3  5  1  0
  4  1  1  0
  5  4  1  0
  6  3  2  0
  7  3  1  0
  8  7  2  0
  9  6  1  0
 10  9  2  0
 10  8  1  0
  1 11  1  0
  2 12  1  0
  2 13  1  0
  4 14  1  0
  4 15  1  0
  5 16  1  0
  5 17  1  0
  6 18  1  0
  7 19  1  0
  8 20  1  0
  9 21  1  0
 10 22  1  0
M  END
> <Uni-Dock RESULT> 
ENERGY=   -3.295  LOWER_BOUND=    2.423  UPPER_BOUND=    3.651
INTER + INTRA:          -3.295
INTER:                  -3.295
INTRA:                   0.000
UNBOUND:                 0.000

$$$$

     RDKit          3D

 22 22  0  0  0  0  0  0  0  0999 V2000
   44.4158    2.8565    8.5854 N   0  0  0  0  0  0  0  0  0  0  0  0
   45.2677    2.0571    9.4245 N   0  0  0  0  0  0  0  0  0  0  0  0
   44.9291    4.7858   11.4293 C   0  0  0  0  0  0  0  0  0  0  0  0
   44.5189    4.2804    8.9579 C   0  0  0  0  0  0  0  0  0  0  0  0
   43.9075    4.6314   10.3261 C   0  0  0  0  0  0  0  0  0  0  0  0
   45.1564    3.7467   12.3402 C   0  0  0  0  0  0  0  0  0  0  0  0
   45.6706    5.9696   11.5520 C   0  0  0  0  0  0  0  0  0  0  0  0
   46.6170    6.1101   12.5685 C   0  0  0  0  0  0  0  0  0  0  0  0
   46.1034    3.8880   13.3556 C   0  0  0  0  0  0  0  0  0  0  0  0
   46.8329    5.0697   13.4702 C   0  0  0  0  0  0  0  0  0  0  0  0
   44.6562    2.7634    7.5933 H   0  0  0  0  0  0  0  0  0  0  0  0
   46.2601    2.2857    9.3237 H   0  0  0  0  0  0  0  0  0  0  0  0
   45.1701    1.0592    9.2236 H   0  0  0  0  0  0  0  0  0  0  0  0
   43.9414    4.8251    8.2002 H   0  0  0  0  0  0  0  0  0  0  0  0
   45.5540    4.6325    8.8625 H   0  0  0  0  0  0  0  0  0  0  0  0
   43.3699    5.5855   10.2368 H   0  0  0  0  0  0  0  0  0  0  0  0
   43.1396    3.9021   10.6149 H   0  0  0  0  0  0  0  0  0  0  0  0
   44.5986    2.8163   12.2534 H   0  0  0  0  0  0  0  0  0  0  0  0
   45.5116    6.7908   10.8573 H   0  0  0  0  0  0  0  0  0  0  0  0
   47.1848    7.0324   12.6577 H   0  0  0  0  0  0  0  0  0  0  0  0
   46.2712    3.0737   14.0552 H   0  0  0  0  0  0  0  0  0  0  0  0
   47.5691    5.1792   14.2617 H   0  0  0  0  0  0  0  0  0  0  0  0
  2  1  1  0
  3  5  1  0
  4  1  1  0
  5  4  1  0
  6  3  2  0
  7  3  1  0
  8  7  2  0
  9  6  1  0
 10  9  2  0
 10  8  1  0
  1 11  1  0
  2 12  1  0
  2 13  1  0
  4 14  1  0
  4 15  1  0
  5 16  1  0
  5 17  1  0
  6 18  1  0
  7 19  1  0
  8 20  1  0
  9 21  1  0
 10 22  1  0
M  END
> <Uni-Dock RESULT> 
ENERGY=   -3.283  LOWER_BOUND=    2.634  UPPER_BOUND=    3.807
INTER + INTRA:          -3.283
INTER:                  -3.283
INTRA:                   0.000
UNBOUND:                 0.000

$$$$

     RDKit          3D

 22 22  0  0  0  0  0  0  0  0999 V2000
   42.8201    4.4276   11.3899 N   0  0  0  0  0  0  0  0  0  0  0  0
   42.3453    5.5801   12.1077 N   0  0  0  0  0  0  0  0  0  0  0  0
   45.5700    6.5412   11.6008 C   0  0  0  0  0  0  0  0  0  0  0  0
   44.2893    4.3325   11.4866 C   0  0  0  0  0  0  0  0  0  0  0  0
   45.0548    5.4261   10.7202 C   0  0  0  0  0  0  0  0  0  0  0  0
   44.8833    7.7589   11.6834 C   0  0  0  0  0  0  0  0  0  0  0  0
   46.7398    6.3697   12.3548 C   0  0  0  0  0  0  0  0  0  0  0  0
   47.2131    7.3984   13.1713 C   0  0  0  0  0  0  0  0  0  0  0  0
   45.3570    8.7864   12.5006 C   0  0  0  0  0  0  0  0  0  0  0  0
   46.5220    8.6065   13.2436 C   0  0  0  0  0  0  0  0  0  0  0  0
   42.4152    3.5572   11.7490 H   0  0  0  0  0  0  0  0  0  0  0  0
   42.5422    5.5378   13.1111 H   0  0  0  0  0  0  0  0  0  0  0  0
   41.3347    5.7000   12.0074 H   0  0  0  0  0  0  0  0  0  0  0  0
   44.5529    3.3732   11.0235 H   0  0  0  0  0  0  0  0  0  0  0  0
   44.6054    4.2611   12.5351 H   0  0  0  0  0  0  0  0  0  0  0  0
   45.9219    4.9674   10.2253 H   0  0  0  0  0  0  0  0  0  0  0  0
   44.4475    5.8342    9.9018 H   0  0  0  0  0  0  0  0  0  0  0  0
   43.9674    7.9058   11.1144 H   0  0  0  0  0  0  0  0  0  0  0  0
   47.2909    5.4337   12.3069 H   0  0  0  0  0  0  0  0  0  0  0  0
   48.1222    7.2576   13.7497 H   0  0  0  0  0  0  0  0  0  0  0  0
   44.8141    9.7259   12.5568 H   0  0  0  0  0  0  0  0  0  0  0  0
   46.8905    9.4074   13.8786 H   0  0  0  0  0  0  0  0  0  0  0  0
  2  1  1  0
  3  5  1  0
  4  1  1  0
  5  4  1  0
  6  3  2  0
  7  3  1  0
  8  7  2  0
  9  6  1  0
 10  9  2  0
 10  8  1  0
  1 11  1  0
  2 12  1  0
  2 13  1  0
  4 14  1  0
  4 15  1  0
  5 16  1  0
  5 17  1  0
  6 18  1  0
  7 19  1  0
  8 20  1  0
  9 21  1  0
 10 22  1  0
M  END
> <Uni-Dock RESULT> 
ENERGY=   -3.253  LOWER_BOUND=    4.518  UPPER_BOUND=    5.883
INTER + INTRA:          -3.253
INTER:                  -3.253
INTRA:                   0.000
UNBOUND:                 0.000

$$$$

     RDKit          3D

 22 22  0  0  0  0  0  0  0  0999 V2000
   55.7027    0.5485   16.5614 N   0  0  0  0  0  0  0  0  0  0  0  0
   55.6499    1.9771   16.4026 N   0  0  0  0  0  0  0  0  0  0  0  0
   52.6368    1.4814   17.9043 C   0  0  0  0  0  0  0  0  0  0  0  0
   54.3419   -0.0016   16.7106 C   0  0  0  0  0  0  0  0  0  0  0  0
   53.6443    0.3622   18.0335 C   0  0  0  0  0  0  0  0  0  0  0  0
   52.9707    2.7878   18.2824 C   0  0  0  0  0  0  0  0  0  0  0  0
   51.3545    1.2293   17.3958 C   0  0  0  0  0  0  0  0  0  0  0  0
   50.4256    2.2640   17.2727 C   0  0  0  0  0  0  0  0  0  0  0  0
   52.0415    3.8217   18.1581 C   0  0  0  0  0  0  0  0  0  0  0  0
   50.7690    3.5597   17.6542 C   0  0  0  0  0  0  0  0  0  0  0  0
   56.1516    0.0892   15.7625 H   0  0  0  0  0  0  0  0  0  0  0  0
   55.1522    2.2695   15.5575 H   0  0  0  0  0  0  0  0  0  0  0  0
   56.5848    2.3886   16.3549 H   0  0  0  0  0  0  0  0  0  0  0  0
   54.4632   -1.0923   16.7023 H   0  0  0  0  0  0  0  0  0  0  0  0
   53.7264    0.2425   15.8354 H   0  0  0  0  0  0  0  0  0  0  0  0
   53.1100   -0.5232   18.4046 H   0  0  0  0  0  0  0  0  0  0  0  0
   54.3779    0.5961   18.8160 H   0  0  0  0  0  0  0  0  0  0  0  0
   53.9649    3.0044   18.6681 H   0  0  0  0  0  0  0  0  0  0  0  0
   51.0714    0.2232   17.0962 H   0  0  0  0  0  0  0  0  0  0  0  0
   49.4332    2.0586   16.8804 H   0  0  0  0  0  0  0  0  0  0  0  0
   52.3135    4.8312   18.4538 H   0  0  0  0  0  0  0  0  0  0  0  0
   50.0459    4.3650   17.5589 H   0  0  0  0  0  0  0  0  0  0  0  0
  2  1  1  0
  3  5  1  0
  4  1  1  0
  5  4  1  0
  6  3  2  0
  7  3  1  0
  8  7  2  0
  9  6  1  0
 10  9  2  0
 10  8  1  0
  1 11  1  0
  2 12  1  0
  2 13  1  0
  4 14  1  0
  4 15  1  0
  5 16  1  0
  5 17  1  0
  6 18  1  0
  7 19  1  0
  8 20  1  0
  9 21  1  0
 10 22  1  0
M  END
> <Uni-Dock RESULT> 
ENERGY=   -3.031  LOWER_BOUND=   11.253  UPPER_BOUND=   11.853
INTER + INTRA:          -3.031
INTER:                  -3.031
INTRA:                   0.000
UNBOUND:                 0.000

$$$$

     RDKit          3D

 22 22  0  0  0  0  0  0  0  0999 V2000
   49.2366    2.0206   16.2811 N   0  0  0  0  0  0  0  0  0  0  0  0
   50.2605    2.3154   17.2473 N   0  0  0  0  0  0  0  0  0  0  0  0
   47.7042    4.1139   18.5926 C   0  0  0  0  0  0  0  0  0  0  0  0
   48.1845    3.0544   16.3171 C   0  0  0  0  0  0  0  0  0  0  0  0
   47.3220    3.0477   17.5919 C   0  0  0  0  0  0  0  0  0  0  0  0
   48.4916    3.7963   19.7063 C   0  0  0  0  0  0  0  0  0  0  0  0
   47.2824    5.4395   18.4161 C   0  0  0  0  0  0  0  0  0  0  0  0
   47.6391    6.4249   19.3384 C   0  0  0  0  0  0  0  0  0  0  0  0
   48.8483    4.7823   20.6273 C   0  0  0  0  0  0  0  0  0  0  0  0
   48.4215    6.0961   20.4439 C   0  0  0  0  0  0  0  0  0  0  0  0
   49.6100    1.9720   15.3278 H   0  0  0  0  0  0  0  0  0  0  0  0
   50.7480    3.1955   17.0606 H   0  0  0  0  0  0  0  0  0  0  0  0
   50.9725    1.5821   17.2816 H   0  0  0  0  0  0  0  0  0  0  0  0
   47.5165    2.8233   15.4776 H   0  0  0  0  0  0  0  0  0  0  0  0
   48.6066    4.0452   16.1060 H   0  0  0  0  0  0  0  0  0  0  0  0
   46.2744    3.2197   17.3087 H   0  0  0  0  0  0  0  0  0  0  0  0
   47.3259    2.0580   18.0668 H   0  0  0  0  0  0  0  0  0  0  0  0
   48.8379    2.7752   19.8534 H   0  0  0  0  0  0  0  0  0  0  0  0
   46.6697    5.7107   17.5598 H   0  0  0  0  0  0  0  0  0  0  0  0
   47.3051    7.4490   19.1951 H   0  0  0  0  0  0  0  0  0  0  0  0
   49.4608    4.5230   21.4865 H   0  0  0  0  0  0  0  0  0  0  0  0
   48.6988    6.8627   21.1621 H   0  0  0  0  0  0  0  0  0  0  0  0
  2  1  1  0
  3  5  1  0
  4  1  1  0
  5  4  1  0
  6  3  2  0
  7  3  1  0
  8  7  2  0
  9  6  1  0
 10  9  2  0
 10  8  1  0
  1 11  1  0
  2 12  1  0
  2 13  1  0
  4 14  1  0
  4 15  1  0
  5 16  1  0
  5 17  1  0
  6 18  1  0
  7 19  1  0
  8 20  1  0
  9 21  1  0
 10 22  1  0
M  END
> <Uni-Dock RESULT> 
ENERGY=   -2.923  LOWER_BOUND=    9.349  UPPER_BOUND=   10.610
INTER + INTRA:          -2.923
INTER:                  -2.923
INTRA:                   0.000
UNBOUND:                 0.000

$$$$

     RDKit          3D

 22 22  0  0  0  0  0  0  0  0999 V2000
   47.7069   13.7803   19.7160 N   0  0  0  0  0  0  0  0  0  0  0  0
   48.7125   13.0685   18.9736 N   0  0  0  0  0  0  0  0  0  0  0  0
   46.8778   10.4260   20.0829 C   0  0  0  0  0  0  0  0  0  0  0  0
   47.0843   12.8931   20.7171 C   0  0  0  0  0  0  0  0  0  0  0  0
   46.2033   11.7778   20.1261 C   0  0  0  0  0  0  0  0  0  0  0  0
   47.4391    9.9476   18.8924 C   0  0  0  0  0  0  0  0  0  0  0  0
   46.9588    9.6339   21.2372 C   0  0  0  0  0  0  0  0  0  0  0  0
   47.5856    8.3871   21.1978 C   0  0  0  0  0  0  0  0  0  0  0  0
   48.0662    8.7013   18.8544 C   0  0  0  0  0  0  0  0  0  0  0  0
   48.1386    7.9209   20.0066 C   0  0  0  0  0  0  0  0  0  0  0  0
   48.0931   14.5959   20.2021 H   0  0  0  0  0  0  0  0  0  0  0  0
   49.4877   12.7429   19.5570 H   0  0  0  0  0  0  0  0  0  0  0  0
   49.1187   13.6464   18.2342 H   0  0  0  0  0  0  0  0  0  0  0  0
   46.4265   13.5384   21.3131 H   0  0  0  0  0  0  0  0  0  0  0  0
   47.8385   12.5026   21.4121 H   0  0  0  0  0  0  0  0  0  0  0  0
   45.3006   11.6779   20.7444 H   0  0  0  0  0  0  0  0  0  0  0  0
   45.8327   12.0526   19.1300 H   0  0  0  0  0  0  0  0  0  0  0  0
   47.3960   10.5535   17.9895 H   0  0  0  0  0  0  0  0  0  0  0  0
   46.5300    9.9832   22.1733 H   0  0  0  0  0  0  0  0  0  0  0  0
   47.6408    7.7788   22.0966 H   0  0  0  0  0  0  0  0  0  0  0  0
   48.4988    8.3422   17.9246 H   0  0  0  0  0  0  0  0  0  0  0  0
   48.6260    6.9504   19.9757 H   0  0  0  0  0  0  0  0  0  0  0  0
  2  1  1  0
  3  5  1  0
  4  1  1  0
  5  4  1  0
  6  3  2  0
  7  3  1  0
  8  7  2  0
  9  6  1  0
 10  9  2  0
 10  8  1  0
  1 11  1  0
  2 12  1  0
  2 13  1  0
  4 14  1  0
  4 15  1  0
  5 16  1  0
  5 17  1  0
  6 18  1  0
  7 19  1  0
  8 20  1  0
  9 21  1  0
 10 22  1  0
M  END
> <Uni-Dock RESULT> 
ENERGY=   -2.708  LOWER_BOUND=   13.039  UPPER_BOUND=   14.491
INTER + INTRA:          -2.708
INTER:                  -2.708
INTRA:                   0.000
UNBOUND:                 0.000

$$$$
