
     RDKit          3D

 22 22  0  0  0  0  0  0  0  0999 V2000
   45.3429    3.2049   11.2042 N   0  0  0  0  0  0  0  0  0  0  0  0
   45.6428    3.9924   12.3805 N   0  0  0  0  0  0  0  0  0  0  0  0
   45.5182    2.8136    8.1475 C   0  0  0  0  0  0  0  0  0  0  0  0
   44.6795    4.0679   10.2093 C   0  0  0  0  0  0  0  0  0  0  0  0
   44.3187    3.2899    8.9337 C   0  0  0  0  0  0  0  0  0  0  0  0
   45.8939    1.4636    8.1733 C   0  0  0  0  0  0  0  0  0  0  0  0
   46.2807    3.7168    7.3944 C   0  0  0  0  0  0  0  0  0  0  0  0
   47.3961    3.2768    6.6800 C   0  0  0  0  0  0  0  0  0  0  0  0
   47.0096    1.0258    7.4584 C   0  0  0  0  0  0  0  0  0  0  0  0
   47.7602    1.9321    6.7120 C   0  0  0  0  0  0  0  0  0  0  0  0
   46.2049    2.8476   10.7712 H   0  0  0  0  0  0  0  0  0  0  0  0
   46.1529    3.4294   13.0680 H   0  0  0  0  0  0  0  0  0  0  0  0
   44.7798    4.2634   12.8622 H   0  0  0  0  0  0  0  0  0  0  0  0
   43.7508    4.4663   10.6370 H   0  0  0  0  0  0  0  0  0  0  0  0
   45.3235    4.9207    9.9592 H   0  0  0  0  0  0  0  0  0  0  0  0
   43.6737    2.4385    9.1874 H   0  0  0  0  0  0  0  0  0  0  0  0
   43.7139    3.9334    8.2816 H   0  0  0  0  0  0  0  0  0  0  0  0
   45.3200    0.7449    8.7545 H   0  0  0  0  0  0  0  0  0  0  0  0
   46.0102    4.7696    7.3598 H   0  0  0  0  0  0  0  0  0  0  0  0
   47.9814    3.9842    6.0983 H   0  0  0  0  0  0  0  0  0  0  0  0
   47.2930   -0.0231    7.4842 H   0  0  0  0  0  0  0  0  0  0  0  0
   48.6288    1.5905    6.1554 H   0  0  0  0  0  0  0  0  0  0  0  0
  2  1  1  0
  3  5  1  0
  4  1  1  0
  5  4  1  0
  6  3  2  0
  7  3  1  0
  8  7  2  0
  9  6  1  0
 10  9  2  0
 10  8  1  0
  1 11  1  0
  2 12  1  0
  2 13  1  0
  4 14  1  0
  4 15  1  0
  5 16  1  0
  5 17  1  0
  6 18  1  0
  7 19  1  0
  8 20  1  0
  9 21  1  0
 10 22  1  0
M  END
> <Uni-Dock RESULT> 
ENERGY=   -5.319  LOWER_BOUND=    0.000  UPPER_BOUND=    0.000
INTER + INTRA:          -5.319
INTER:                  -5.319
INTRA:                   0.000
UNBOUND:                 0.000

$$$$

     RDKit          3D

 22 22  0  0  0  0  0  0  0  0999 V2000
   46.6794    4.0341    7.6701 N   0  0  0  0  0  0  0  0  0  0  0  0
   47.5945    3.2446    6.8744 N   0  0  0  0  0  0  0  0  0  0  0  0
   44.7881    4.2731   10.0976 C   0  0  0  0  0  0  0  0  0  0  0  0
   45.4173    3.2874    7.8260 C   0  0  0  0  0  0  0  0  0  0  0  0
   44.3896    4.0763    8.6531 C   0  0  0  0  0  0  0  0  0  0  0  0
   45.2466    5.5199   10.5443 C   0  0  0  0  0  0  0  0  0  0  0  0
   44.7195    3.2088   11.0068 C   0  0  0  0  0  0  0  0  0  0  0  0
   45.1009    3.3895   12.3372 C   0  0  0  0  0  0  0  0  0  0  0  0
   45.6276    5.6985   11.8750 C   0  0  0  0  0  0  0  0  0  0  0  0
   45.5546    4.6337   12.7709 C   0  0  0  0  0  0  0  0  0  0  0  0
   47.0569    4.1949    8.6134 H   0  0  0  0  0  0  0  0  0  0  0  0
   48.5000    3.7176    6.7952 H   0  0  0  0  0  0  0  0  0  0  0  0
   47.2601    3.1702    5.9085 H   0  0  0  0  0  0  0  0  0  0  0  0
   44.9827    3.0996    6.8360 H   0  0  0  0  0  0  0  0  0  0  0  0
   45.6093    2.3142    8.2954 H   0  0  0  0  0  0  0  0  0  0  0  0
   44.1992    5.0486    8.1803 H   0  0  0  0  0  0  0  0  0  0  0  0
   43.4293    3.5449    8.6309 H   0  0  0  0  0  0  0  0  0  0  0  0
   45.3127    6.3597    9.8557 H   0  0  0  0  0  0  0  0  0  0  0  0
   44.3684    2.2314   10.6839 H   0  0  0  0  0  0  0  0  0  0  0  0
   45.0441    2.5586   13.0355 H   0  0  0  0  0  0  0  0  0  0  0  0
   45.9816    6.6692   12.2122 H   0  0  0  0  0  0  0  0  0  0  0  0
   45.8513    4.7735   13.8070 H   0  0  0  0  0  0  0  0  0  0  0  0
  2  1  1  0
  3  5  1  0
  4  1  1  0
  5  4  1  0
  6  3  2  0
  7  3  1  0
  8  7  2  0
  9  6  1  0
 10  9  2  0
 10  8  1  0
  1 11  1  0
  2 12  1  0
  2 13  1  0
  4 14  1  0
  4 15  1  0
  5 16  1  0
  5 17  1  0
  6 18  1  0
  7 19  1  0
  8 20  1  0
  9 21  1  0
 10 22  1  0
M  END
> <Uni-Dock RESULT> 
ENERGY=   -3.691  LOWER_BOUND=    2.563  UPPER_BOUND=    4.809
INTER + INTRA:          -3.691
INTER:                  -3.691
INTRA:                   0.000
UNBOUND:                 0.000

$$$$

     RDKit          3D

 22 22  0  0  0  0  0  0  0  0999 V2000
   45.5672    2.3846    9.2653 N   0  0  0  0  0  0  0  0  0  0  0  0
   45.2417    1.1723    8.5455 N   0  0  0  0  0  0  0  0  0  0  0  0
   44.6563    5.0202   10.5884 C   0  0  0  0  0  0  0  0  0  0  0  0
   45.0038    3.5368    8.5375 C   0  0  0  0  0  0  0  0  0  0  0  0
   45.3244    4.8649    9.2418 C   0  0  0  0  0  0  0  0  0  0  0  0
   45.3975    4.8789   11.7695 C   0  0  0  0  0  0  0  0  0  0  0  0
   43.2842    5.2922   10.6758 C   0  0  0  0  0  0  0  0  0  0  0  0
   42.6667    5.4218   11.9208 C   0  0  0  0  0  0  0  0  0  0  0  0
   44.7781    5.0088   13.0134 C   0  0  0  0  0  0  0  0  0  0  0  0
   43.4134    5.2802   13.0889 C   0  0  0  0  0  0  0  0  0  0  0  0
   45.1446    2.3802   10.2031 H   0  0  0  0  0  0  0  0  0  0  0  0
   45.5760    0.3506    9.0582 H   0  0  0  0  0  0  0  0  0  0  0  0
   45.7436    1.1377    7.6527 H   0  0  0  0  0  0  0  0  0  0  0  0
   45.4359    3.5753    7.5295 H   0  0  0  0  0  0  0  0  0  0  0  0
   43.9177    3.4217    8.4300 H   0  0  0  0  0  0  0  0  0  0  0  0
   46.4114    4.9772    9.3467 H   0  0  0  0  0  0  0  0  0  0  0  0
   45.0029    5.6961    8.6008 H   0  0  0  0  0  0  0  0  0  0  0  0
   46.4630    4.6632   11.7267 H   0  0  0  0  0  0  0  0  0  0  0  0
   42.6874    5.4048    9.7735 H   0  0  0  0  0  0  0  0  0  0  0  0
   41.6022    5.6332   11.9790 H   0  0  0  0  0  0  0  0  0  0  0  0
   45.3612    4.8978   13.9239 H   0  0  0  0  0  0  0  0  0  0  0  0
   42.9318    5.3813   14.0578 H   0  0  0  0  0  0  0  0  0  0  0  0
  2  1  1  0
  3  5  1  0
  4  1  1  0
  5  4  1  0
  6  3  2  0
  7  3  1  0
  8  7  2  0
  9  6  1  0
 10  9  2  0
 10  8  1  0
  1 11  1  0
  2 12  1  0
  2 13  1  0
  4 14  1  0
  4 15  1  0
  5 16  1  0
  5 17  1  0
  6 18  1  0
  7 19  1  0
  8 20  1  0
  9 21  1  0
 10 22  1  0
M  END
> <Uni-Dock RESULT> 
ENERGY=   -3.388  LOWER_BOUND=    2.488  UPPER_BOUND=    5.192
INTER + INTRA:          -3.388
INTER:                  -3.388
INTRA:                   0.000
UNBOUND:                 0.000

$$$$

     RDKit          3D

 22 22  0  0  0  0  0  0  0  0999 V2000
   44.0402    3.5150   10.3936 N   0  0  0  0  0  0  0  0  0  0  0  0
   44.2468    2.4312    9.4574 N   0  0  0  0  0  0  0  0  0  0  0  0
   44.8773    5.0104   12.9607 C   0  0  0  0  0  0  0  0  0  0  0  0
   43.9495    2.9573   11.7558 C   0  0  0  0  0  0  0  0  0  0  0  0
   43.7156    4.0563   12.8046 C   0  0  0  0  0  0  0  0  0  0  0  0
   44.8090    6.3055   12.4293 C   0  0  0  0  0  0  0  0  0  0  0  0
   46.0442    4.6092   13.6251 C   0  0  0  0  0  0  0  0  0  0  0  0
   47.1210    5.4876   13.7562 C   0  0  0  0  0  0  0  0  0  0  0  0
   45.8868    7.1822   12.5614 C   0  0  0  0  0  0  0  0  0  0  0  0
   47.0421    6.7734   13.2247 C   0  0  0  0  0  0  0  0  0  0  0  0
   44.8361    4.1666   10.3834 H   0  0  0  0  0  0  0  0  0  0  0  0
   44.3669    2.7963    8.5076 H   0  0  0  0  0  0  0  0  0  0  0  0
   43.4113    1.8405    9.4001 H   0  0  0  0  0  0  0  0  0  0  0  0
   43.1061    2.2571   11.8053 H   0  0  0  0  0  0  0  0  0  0  0  0
   44.8620    2.3970   11.9964 H   0  0  0  0  0  0  0  0  0  0  0  0
   42.8017    4.6140   12.5615 H   0  0  0  0  0  0  0  0  0  0  0  0
   43.5237    3.5865   13.7780 H   0  0  0  0  0  0  0  0  0  0  0  0
   43.9152    6.6378   11.9055 H   0  0  0  0  0  0  0  0  0  0  0  0
   46.1218    3.6089   14.0448 H   0  0  0  0  0  0  0  0  0  0  0  0
   48.0219    5.1681   14.2734 H   0  0  0  0  0  0  0  0  0  0  0  0
   45.8246    8.1847   12.1461 H   0  0  0  0  0  0  0  0  0  0  0  0
   47.8809    7.4566   13.3273 H   0  0  0  0  0  0  0  0  0  0  0  0
  2  1  1  0
  3  5  1  0
  4  1  1  0
  5  4  1  0
  6  3  2  0
  7  3  1  0
  8  7  2  0
  9  6  1  0
 10  9  2  0
 10  8  1  0
  1 11  1  0
  2 12  1  0
  2 13  1  0
  4 14  1  0
  4 15  1  0
  5 16  1  0
  5 17  1  0
  6 18  1  0
  7 19  1  0
  8 20  1  0
  9 21  1  0
 10 22  1  0
M  END
> <Uni-Dock RESULT> 
ENERGY=   -3.279  LOWER_BOUND=    4.373  UPPER_BOUND=    5.770
INTER + INTRA:          -3.279
INTER:                  -3.279
INTRA:                   0.000
UNBOUND:                 0.000

$$$$

     RDKit          3D

 22 22  0  0  0  0  0  0  0  0999 V2000
   48.7540    3.9591   19.8514 N   0  0  0  0  0  0  0  0  0  0  0  0
   48.3268    4.4244   21.1533 N   0  0  0  0  0  0  0  0  0  0  0  0
   51.0158    3.4819   17.8061 C   0  0  0  0  0  0  0  0  0  0  0  0
   49.5288    5.0279   19.1940 C   0  0  0  0  0  0  0  0  0  0  0  0
   50.0049    4.6053   17.7950 C   0  0  0  0  0  0  0  0  0  0  0  0
   50.6381    2.1829   17.4396 C   0  0  0  0  0  0  0  0  0  0  0  0
   52.3404    3.7194   18.1973 C   0  0  0  0  0  0  0  0  0  0  0  0
   53.2689    2.6775   18.2198 C   0  0  0  0  0  0  0  0  0  0  0  0
   51.5680    1.1425   17.4628 C   0  0  0  0  0  0  0  0  0  0  0  0
   52.8828    1.3899   17.8526 C   0  0  0  0  0  0  0  0  0  0  0  0
   49.3736    3.1426   19.9379 H   0  0  0  0  0  0  0  0  0  0  0  0
   47.8309    3.6809   21.6544 H   0  0  0  0  0  0  0  0  0  0  0  0
   47.6345    5.1741   21.0585 H   0  0  0  0  0  0  0  0  0  0  0  0
   48.8963    5.9175   19.0819 H   0  0  0  0  0  0  0  0  0  0  0  0
   50.3896    5.3074   19.8148 H   0  0  0  0  0  0  0  0  0  0  0  0
   49.1415    4.3274   17.1765 H   0  0  0  0  0  0  0  0  0  0  0  0
   50.4587    5.4709   17.2953 H   0  0  0  0  0  0  0  0  0  0  0  0
   49.6143    1.9736   17.1366 H   0  0  0  0  0  0  0  0  0  0  0  0
   52.6574    4.7185   18.4876 H   0  0  0  0  0  0  0  0  0  0  0  0
   54.2942    2.8710   18.5242 H   0  0  0  0  0  0  0  0  0  0  0  0
   51.2658    0.1385   17.1766 H   0  0  0  0  0  0  0  0  0  0  0  0
   53.6064    0.5793   17.8703 H   0  0  0  0  0  0  0  0  0  0  0  0
  2  1  1  0
  3  5  1  0
  4  1  1  0
  5  4  1  0
  6  3  2  0
  7  3  1  0
  8  7  2  0
  9  6  1  0
 10  9  2  0
 10  8  1  0
  1 11  1  0
  2 12  1  0
  2 13  1  0
  4 14  1  0
  4 15  1  0
  5 16  1  0
  5 17  1  0
  6 18  1  0
  7 19  1  0
  8 20  1  0
  9 21  1  0
 10 22  1  0
M  END
> <Uni-Dock RESULT> 
ENERGY=   -3.109  LOWER_BOUND=   10.297  UPPER_BOUND=   11.022
INTER + INTRA:          -3.109
INTER:                  -3.109
INTRA:                   0.000
UNBOUND:                 0.000

$$$$

     RDKit          3D

 22 22  0  0  0  0  0  0  0  0999 V2000
   49.4570    2.0850   16.6234 N   0  0  0  0  0  0  0  0  0  0  0  0
   50.7461    1.5206   16.9602 N   0  0  0  0  0  0  0  0  0  0  0  0
   47.7021    4.5590   16.0521 C   0  0  0  0  0  0  0  0  0  0  0  0
   49.1137    3.1171   17.6192 C   0  0  0  0  0  0  0  0  0  0  0  0
   47.7444    3.7523   17.3294 C   0  0  0  0  0  0  0  0  0  0  0  0
   47.0639    4.0514   14.9122 C   0  0  0  0  0  0  0  0  0  0  0  0
   48.3130    5.8185   15.9846 C   0  0  0  0  0  0  0  0  0  0  0  0
   48.2843    6.5559   14.7999 C   0  0  0  0  0  0  0  0  0  0  0  0
   47.0364    4.7903   13.7286 C   0  0  0  0  0  0  0  0  0  0  0  0
   47.6463    6.0420   13.6726 C   0  0  0  0  0  0  0  0  0  0  0  0
   49.4862    2.5460   15.7043 H   0  0  0  0  0  0  0  0  0  0  0  0
   51.0337    0.8371   16.2532 H   0  0  0  0  0  0  0  0  0  0  0  0
   50.6867    0.9799   17.8287 H   0  0  0  0  0  0  0  0  0  0  0  0
   49.0705    2.6592   18.6155 H   0  0  0  0  0  0  0  0  0  0  0  0
   49.8898    3.8928   17.6427 H   0  0  0  0  0  0  0  0  0  0  0  0
   46.9705    2.9739   17.3077 H   0  0  0  0  0  0  0  0  0  0  0  0
   47.4736    4.4136   18.1626 H   0  0  0  0  0  0  0  0  0  0  0  0
   46.5866    3.0741   14.9395 H   0  0  0  0  0  0  0  0  0  0  0  0
   48.8157    6.2333   16.8553 H   0  0  0  0  0  0  0  0  0  0  0  0
   48.7604    7.5320   14.7567 H   0  0  0  0  0  0  0  0  0  0  0  0
   46.5389    4.3884   12.8498 H   0  0  0  0  0  0  0  0  0  0  0  0
   47.6244    6.6168   12.7506 H   0  0  0  0  0  0  0  0  0  0  0  0
  2  1  1  0
  3  5  1  0
  4  1  1  0
  5  4  1  0
  6  3  2  0
  7  3  1  0
  8  7  2  0
  9  6  1  0
 10  9  2  0
 10  8  1  0
  1 11  1  0
  2 12  1  0
  2 13  1  0
  4 14  1  0
  4 15  1  0
  5 16  1  0
  5 17  1  0
  6 18  1  0
  7 19  1  0
  8 20  1  0
  9 21  1  0
 10 22  1  0
M  END
> <Uni-Dock RESULT> 
ENERGY=   -2.987  LOWER_BOUND=    6.552  UPPER_BOUND=    8.130
INTER + INTRA:          -2.987
INTER:                  -2.987
INTRA:                   0.000
UNBOUND:                 0.000

$$$$

     RDKit          3D

 22 22  0  0  0  0  0  0  0  0999 V2000
   44.6556    3.6450   12.0364 N   0  0  0  0  0  0  0  0  0  0  0  0
   43.6017    2.7588   12.4810 N   0  0  0  0  0  0  0  0  0  0  0  0
   45.6125    6.4883   11.3103 C   0  0  0  0  0  0  0  0  0  0  0  0
   44.1680    4.4246   10.8835 C   0  0  0  0  0  0  0  0  0  0  0  0
   45.2454    5.3816   10.3489 C   0  0  0  0  0  0  0  0  0  0  0  0
   46.8220    6.4429   12.0171 C   0  0  0  0  0  0  0  0  0  0  0  0
   44.7428    7.5670   11.5204 C   0  0  0  0  0  0  0  0  0  0  0  0
   45.0779    8.5810   12.4190 C   0  0  0  0  0  0  0  0  0  0  0  0
   47.1551    7.4579   12.9153 C   0  0  0  0  0  0  0  0  0  0  0  0
   46.2835    8.5264   13.1160 C   0  0  0  0  0  0  0  0  0  0  0  0
   44.9071    4.3165   12.7739 H   0  0  0  0  0  0  0  0  0  0  0  0
   43.8961    2.2427   13.3158 H   0  0  0  0  0  0  0  0  0  0  0  0
   43.4232    2.0318   11.7811 H   0  0  0  0  0  0  0  0  0  0  0  0
   43.8921    3.7386   10.0727 H   0  0  0  0  0  0  0  0  0  0  0  0
   43.2692    4.9895   11.1620 H   0  0  0  0  0  0  0  0  0  0  0  0
   46.1424    4.8133   10.0703 H   0  0  0  0  0  0  0  0  0  0  0  0
   44.8864    5.8400    9.4182 H   0  0  0  0  0  0  0  0  0  0  0  0
   47.5110    5.6132   11.8739 H   0  0  0  0  0  0  0  0  0  0  0  0
   43.7979    7.6239   10.9849 H   0  0  0  0  0  0  0  0  0  0  0  0
   44.3976    9.4141   12.5754 H   0  0  0  0  0  0  0  0  0  0  0  0
   48.0954    7.4142   13.4586 H   0  0  0  0  0  0  0  0  0  0  0  0
   46.5436    9.3164   13.8154 H   0  0  0  0  0  0  0  0  0  0  0  0
  2  1  1  0
  3  5  1  0
  4  1  1  0
  5  4  1  0
  6  3  2  0
  7  3  1  0
  8  7  2  0
  9  6  1  0
 10  9  2  0
 10  8  1  0
  1 11  1  0
  2 12  1  0
  2 13  1  0
  4 14  1  0
  4 15  1  0
  5 16  1  0
  5 17  1  0
  6 18  1  0
  7 19  1  0
  8 20  1  0
  9 21  1  0
 10 22  1  0
M  END
> <Uni-Dock RESULT> 
ENERGY=   -2.878  LOWER_BOUND=    3.689  UPPER_BOUND=    5.810
INTER + INTRA:          -2.878
INTER:                  -2.878
INTRA:                   0.000
UNBOUND:                 0.000

$$$$

     RDKit          3D

 22 22  0  0  0  0  0  0  0  0999 V2000
   44.0566   11.0318    8.8828 N   0  0  0  0  0  0  0  0  0  0  0  0
   43.5944   10.6238    7.5738 N   0  0  0  0  0  0  0  0  0  0  0  0
   44.9079   10.2899   11.7553 C   0  0  0  0  0  0  0  0  0  0  0  0
   43.1560   10.4656    9.9041 C   0  0  0  0  0  0  0  0  0  0  0  0
   43.5815   10.8717   11.3241 C   0  0  0  0  0  0  0  0  0  0  0  0
   46.0547   11.0943   11.8027 C   0  0  0  0  0  0  0  0  0  0  0  0
   45.0136    8.9353   12.0991 C   0  0  0  0  0  0  0  0  0  0  0  0
   46.2425    8.3971   12.4840 C   0  0  0  0  0  0  0  0  0  0  0  0
   47.2825   10.5542   12.1877 C   0  0  0  0  0  0  0  0  0  0  0  0
   47.3763    9.2062   12.5284 C   0  0  0  0  0  0  0  0  0  0  0  0
   44.9992   10.6654    9.0708 H   0  0  0  0  0  0  0  0  0  0  0  0
   44.2340   10.9599    6.8472 H   0  0  0  0  0  0  0  0  0  0  0  0
   42.6991   11.0707    7.3524 H   0  0  0  0  0  0  0  0  0  0  0  0
   42.1377   10.8385    9.7362 H   0  0  0  0  0  0  0  0  0  0  0  0
   43.1282    9.3718    9.8190 H   0  0  0  0  0  0  0  0  0  0  0  0
   43.6071   11.9662   11.4059 H   0  0  0  0  0  0  0  0  0  0  0  0
   42.8137   10.5412   12.0356 H   0  0  0  0  0  0  0  0  0  0  0  0
   45.9980   12.1476   11.5360 H   0  0  0  0  0  0  0  0  0  0  0  0
   44.1383    8.2904   12.0689 H   0  0  0  0  0  0  0  0  0  0  0  0
   46.3151    7.3456   12.7493 H   0  0  0  0  0  0  0  0  0  0  0  0
   48.1663   11.1860   12.2217 H   0  0  0  0  0  0  0  0  0  0  0  0
   48.3326    8.7863   12.8283 H   0  0  0  0  0  0  0  0  0  0  0  0
  2  1  1  0
  3  5  1  0
  4  1  1  0
  5  4  1  0
  6  3  2  0
  7  3  1  0
  8  7  2  0
  9  6  1  0
 10  9  2  0
 10  8  1  0
  1 11  1  0
  2 12  1  0
  2 13  1  0
  4 14  1  0
  4 15  1  0
  5 16  1  0
  5 17  1  0
  6 18  1  0
  7 19  1  0
  8 20  1  0
  9 21  1  0
 10 22  1  0
M  END
> <Uni-Dock RESULT> 
ENERGY=   -2.755  LOWER_BOUND=    7.650  UPPER_BOUND=    8.569
INTER + INTRA:          -2.755
INTER:                  -2.755
INTRA:                   0.000
UNBOUND:                 0.000

$$$$
