
     RDKit          3D

 22 22  0  0  0  0  0  0  0  0999 V2000
   44.8705    3.1094   11.0640 N   0  0  0  0  0  0  0  0  0  0  0  0
   43.5145    2.7281   11.4069 N   0  0  0  0  0  0  0  0  0  0  0  0
   45.6500    3.0434    7.9565 C   0  0  0  0  0  0  0  0  0  0  0  0
   44.8439    4.2104   10.0794 C   0  0  0  0  0  0  0  0  0  0  0  0
   44.5175    3.7724    8.6421 C   0  0  0  0  0  0  0  0  0  0  0  0
   46.5183    3.7277    7.0947 C   0  0  0  0  0  0  0  0  0  0  0  0
   45.8577    1.6762    8.1815 C   0  0  0  0  0  0  0  0  0  0  0  0
   46.9074    1.0051    7.5524 C   0  0  0  0  0  0  0  0  0  0  0  0
   47.5673    3.0551    6.4651 C   0  0  0  0  0  0  0  0  0  0  0  0
   47.7611    1.6942    6.6933 C   0  0  0  0  0  0  0  0  0  0  0  0
   45.3624    3.4595   11.8940 H   0  0  0  0  0  0  0  0  0  0  0  0
   43.5187    2.0248   12.1525 H   0  0  0  0  0  0  0  0  0  0  0  0
   43.0599    2.2557   10.6196 H   0  0  0  0  0  0  0  0  0  0  0  0
   44.1271    4.9769   10.4017 H   0  0  0  0  0  0  0  0  0  0  0  0
   45.8302    4.6913   10.0888 H   0  0  0  0  0  0  0  0  0  0  0  0
   43.6114    3.1552    8.6072 H   0  0  0  0  0  0  0  0  0  0  0  0
   44.2742    4.6692    8.0569 H   0  0  0  0  0  0  0  0  0  0  0  0
   46.3831    4.7903    6.9069 H   0  0  0  0  0  0  0  0  0  0  0  0
   45.2052    1.1294    8.8585 H   0  0  0  0  0  0  0  0  0  0  0  0
   47.0602   -0.0547    7.7369 H   0  0  0  0  0  0  0  0  0  0  0  0
   48.2342    3.5939    5.7975 H   0  0  0  0  0  0  0  0  0  0  0  0
   48.5786    1.1713    6.2046 H   0  0  0  0  0  0  0  0  0  0  0  0
  2  1  1  0
  3  5  1  0
  4  1  1  0
  5  4  1  0
  6  3  2  0
  7  3  1  0
  8  7  2  0
  9  6  1  0
 10  9  2  0
 10  8  1  0
  1 11  1  0
  2 12  1  0
  2 13  1  0
  4 14  1  0
  4 15  1  0
  5 16  1  0
  5 17  1  0
  6 18  1  0
  7 19  1  0
  8 20  1  0
  9 21  1  0
 10 22  1  0
M  END
> <Uni-Dock RESULT> 
ENERGY=   -6.071  LOWER_BOUND=    0.000  UPPER_BOUND=    0.000
INTER + INTRA:          -6.071
INTER:                  -6.071
INTRA:                   0.000
UNBOUND:                 0.000

$$$$

     RDKit          3D

 22 22  0  0  0  0  0  0  0  0999 V2000
   44.9072    1.9547    8.6691 N   0  0  0  0  0  0  0  0  0  0  0  0
   46.2768    1.6295    8.3230 N   0  0  0  0  0  0  0  0  0  0  0  0
   44.4561    4.5261   10.5274 C   0  0  0  0  0  0  0  0  0  0  0  0
   44.6096    3.3453    8.2690 C   0  0  0  0  0  0  0  0  0  0  0  0
   45.1869    4.4165    9.2091 C   0  0  0  0  0  0  0  0  0  0  0  0
   43.4701    5.5046   10.7153 C   0  0  0  0  0  0  0  0  0  0  0  0
   44.7432    3.6439   11.5773 C   0  0  0  0  0  0  0  0  0  0  0  0
   44.0637    3.7421   12.7925 C   0  0  0  0  0  0  0  0  0  0  0  0
   42.7919    5.6027   11.9317 C   0  0  0  0  0  0  0  0  0  0  0  0
   43.0894    4.7223   12.9701 C   0  0  0  0  0  0  0  0  0  0  0  0
   44.2568    1.3482    8.1565 H   0  0  0  0  0  0  0  0  0  0  0  0
   46.4694    0.6415    8.5167 H   0  0  0  0  0  0  0  0  0  0  0  0
   46.9335    2.1353    8.9250 H   0  0  0  0  0  0  0  0  0  0  0  0
   44.9700    3.5207    7.2469 H   0  0  0  0  0  0  0  0  0  0  0  0
   43.5186    3.4564    8.2315 H   0  0  0  0  0  0  0  0  0  0  0  0
   46.2552    4.2521    9.3959 H   0  0  0  0  0  0  0  0  0  0  0  0
   45.1329    5.3869    8.6979 H   0  0  0  0  0  0  0  0  0  0  0  0
   43.2238    6.1985    9.9150 H   0  0  0  0  0  0  0  0  0  0  0  0
   45.4936    2.8672   11.4476 H   0  0  0  0  0  0  0  0  0  0  0  0
   44.2931    3.0505   13.5985 H   0  0  0  0  0  0  0  0  0  0  0  0
   42.0303    6.3656   12.0682 H   0  0  0  0  0  0  0  0  0  0  0  0
   42.5602    4.7977   13.9160 H   0  0  0  0  0  0  0  0  0  0  0  0
  2  1  1  0
  3  5  1  0
  4  1  1  0
  5  4  1  0
  6  3  2  0
  7  3  1  0
  8  7  2  0
  9  6  1  0
 10  9  2  0
 10  8  1  0
  1 11  1  0
  2 12  1  0
  2 13  1  0
  4 14  1  0
  4 15  1  0
  5 16  1  0
  5 17  1  0
  6 18  1  0
  7 19  1  0
  8 20  1  0
  9 21  1  0
 10 22  1  0
M  END
> <Uni-Dock RESULT> 
ENERGY=   -3.989  LOWER_BOUND=    2.592  UPPER_BOUND=    5.057
INTER + INTRA:          -3.989
INTER:                  -3.989
INTRA:                   0.000
UNBOUND:                 0.000

$$$$

     RDKit          3D

 22 22  0  0  0  0  0  0  0  0999 V2000
   43.2056    4.5232   13.1168 N   0  0  0  0  0  0  0  0  0  0  0  0
   43.5120    3.2078   12.5903 N   0  0  0  0  0  0  0  0  0  0  0  0
   44.6175    7.0189   11.6863 C   0  0  0  0  0  0  0  0  0  0  0  0
   42.6874    5.3843   12.0341 C   0  0  0  0  0  0  0  0  0  0  0  0
   43.7648    5.9278   11.0811 C   0  0  0  0  0  0  0  0  0  0  0  0
   44.3273    8.3680   11.4398 C   0  0  0  0  0  0  0  0  0  0  0  0
   45.7026    6.6999   12.5131 C   0  0  0  0  0  0  0  0  0  0  0  0
   46.4860    7.7084   13.0764 C   0  0  0  0  0  0  0  0  0  0  0  0
   45.1123    9.3759   12.0028 C   0  0  0  0  0  0  0  0  0  0  0  0
   46.1918    9.0460   12.8200 C   0  0  0  0  0  0  0  0  0  0  0  0
   42.4692    4.4589   13.8289 H   0  0  0  0  0  0  0  0  0  0  0  0
   43.7907    2.5757   13.3476 H   0  0  0  0  0  0  0  0  0  0  0  0
   44.3333    3.2434   11.9789 H   0  0  0  0  0  0  0  0  0  0  0  0
   41.9294    4.8375   11.4581 H   0  0  0  0  0  0  0  0  0  0  0  0
   42.1659    6.2299   12.4999 H   0  0  0  0  0  0  0  0  0  0  0  0
   44.4109    5.1244   10.7066 H   0  0  0  0  0  0  0  0  0  0  0  0
   43.2639    6.3294   10.1901 H   0  0  0  0  0  0  0  0  0  0  0  0
   43.4875    8.6435   10.8062 H   0  0  0  0  0  0  0  0  0  0  0  0
   45.9360    5.6599   12.7301 H   0  0  0  0  0  0  0  0  0  0  0  0
   47.3233    7.4487   13.7183 H   0  0  0  0  0  0  0  0  0  0  0  0
   44.8804   10.4189   11.8045 H   0  0  0  0  0  0  0  0  0  0  0  0
   46.8015    9.8307   13.2594 H   0  0  0  0  0  0  0  0  0  0  0  0
  2  1  1  0
  3  5  1  0
  4  1  1  0
  5  4  1  0
  6  3  2  0
  7  3  1  0
  8  7  2  0
  9  6  1  0
 10  9  2  0
 10  8  1  0
  1 11  1  0
  2 12  1  0
  2 13  1  0
  4 14  1  0
  4 15  1  0
  5 16  1  0
  5 17  1  0
  6 18  1  0
  7 19  1  0
  8 20  1  0
  9 21  1  0
 10 22  1  0
M  END
> <Uni-Dock RESULT> 
ENERGY=   -3.447  LOWER_BOUND=    4.966  UPPER_BOUND=    6.308
INTER + INTRA:          -3.447
INTER:                  -3.447
INTRA:                   0.000
UNBOUND:                 0.000

$$$$

     RDKit          3D

 22 22  0  0  0  0  0  0  0  0999 V2000
   46.6640    3.3028    7.7596 N   0  0  0  0  0  0  0  0  0  0  0  0
   46.2887    3.3919    6.3622 N   0  0  0  0  0  0  0  0  0  0  0  0
   44.2770    3.1383    9.8911 C   0  0  0  0  0  0  0  0  0  0  0  0
   46.0451    2.1062    8.3658 C   0  0  0  0  0  0  0  0  0  0  0  0
   44.5505    2.2583    8.6933 C   0  0  0  0  0  0  0  0  0  0  0  0
   44.0577    2.5723   11.1547 C   0  0  0  0  0  0  0  0  0  0  0  0
   44.2512    4.5330    9.7603 C   0  0  0  0  0  0  0  0  0  0  0  0
   44.0043    5.3451   10.8682 C   0  0  0  0  0  0  0  0  0  0  0  0
   43.8096    3.3856   12.2620 C   0  0  0  0  0  0  0  0  0  0  0  0
   43.7821    4.7714   12.1184 C   0  0  0  0  0  0  0  0  0  0  0  0
   47.6807    3.1940    7.8488 H   0  0  0  0  0  0  0  0  0  0  0  0
   46.7802    4.1688    5.9090 H   0  0  0  0  0  0  0  0  0  0  0  0
   45.2975    3.6331    6.2670 H   0  0  0  0  0  0  0  0  0  0  0  0
   46.1905    1.2409    7.7060 H   0  0  0  0  0  0  0  0  0  0  0  0
   46.5902    1.8800    9.2908 H   0  0  0  0  0  0  0  0  0  0  0  0
   43.9868    2.6313    7.8294 H   0  0  0  0  0  0  0  0  0  0  0  0
   44.1394    1.2596    8.8922 H   0  0  0  0  0  0  0  0  0  0  0  0
   44.0777    1.4929   11.2852 H   0  0  0  0  0  0  0  0  0  0  0  0
   44.4342    4.9936    8.7920 H   0  0  0  0  0  0  0  0  0  0  0  0
   43.9895    6.4256   10.7549 H   0  0  0  0  0  0  0  0  0  0  0  0
   43.6392    2.9374   13.2371 H   0  0  0  0  0  0  0  0  0  0  0  0
   43.5908    5.4042   12.9807 H   0  0  0  0  0  0  0  0  0  0  0  0
  2  1  1  0
  3  5  1  0
  4  1  1  0
  5  4  1  0
  6  3  2  0
  7  3  1  0
  8  7  2  0
  9  6  1  0
 10  9  2  0
 10  8  1  0
  1 11  1  0
  2 12  1  0
  2 13  1  0
  4 14  1  0
  4 15  1  0
  5 16  1  0
  5 17  1  0
  6 18  1  0
  7 19  1  0
  8 20  1  0
  9 21  1  0
 10 22  1  0
M  END
> <Uni-Dock RESULT> 
ENERGY=   -3.344  LOWER_BOUND=    2.493  UPPER_BOUND=    4.924
INTER + INTRA:          -3.344
INTER:                  -3.344
INTRA:                   0.000
UNBOUND:                 0.000

$$$$

     RDKit          3D

 22 22  0  0  0  0  0  0  0  0999 V2000
   45.1540    9.5374   12.7173 N   0  0  0  0  0  0  0  0  0  0  0  0
   45.6749   10.3831   11.6614 N   0  0  0  0  0  0  0  0  0  0  0  0
   45.1517    6.3795   12.1729 C   0  0  0  0  0  0  0  0  0  0  0  0
   46.1681    8.5320   13.0956 C   0  0  0  0  0  0  0  0  0  0  0  0
   46.3011    7.3588   12.1107 C   0  0  0  0  0  0  0  0  0  0  0  0
   45.2604    5.2016   12.9251 C   0  0  0  0  0  0  0  0  0  0  0  0
   43.9557    6.6394   11.4910 C   0  0  0  0  0  0  0  0  0  0  0  0
   42.8926    5.7372   11.5537 C   0  0  0  0  0  0  0  0  0  0  0  0
   44.1967    4.2993   12.9862 C   0  0  0  0  0  0  0  0  0  0  0  0
   43.0138    4.5667   12.3000 C   0  0  0  0  0  0  0  0  0  0  0  0
   44.9560   10.0956   13.5555 H   0  0  0  0  0  0  0  0  0  0  0  0
   45.0147   11.1381   11.4497 H   0  0  0  0  0  0  0  0  0  0  0  0
   45.7500    9.8622   10.7824 H   0  0  0  0  0  0  0  0  0  0  0  0
   47.1437    9.0202   13.2195 H   0  0  0  0  0  0  0  0  0  0  0  0
   45.8963    8.1379   14.0829 H   0  0  0  0  0  0  0  0  0  0  0  0
   46.4242    7.7129   11.0798 H   0  0  0  0  0  0  0  0  0  0  0  0
   47.2308    6.8215   12.3404 H   0  0  0  0  0  0  0  0  0  0  0  0
   46.1754    4.9780   13.4685 H   0  0  0  0  0  0  0  0  0  0  0  0
   43.8444    7.5548   10.9141 H   0  0  0  0  0  0  0  0  0  0  0  0
   41.9690    5.9510   11.0229 H   0  0  0  0  0  0  0  0  0  0  0  0
   44.2911    3.3881   13.5707 H   0  0  0  0  0  0  0  0  0  0  0  0
   42.1855    3.8652   12.3492 H   0  0  0  0  0  0  0  0  0  0  0  0
  2  1  1  0
  3  5  1  0
  4  1  1  0
  5  4  1  0
  6  3  2  0
  7  3  1  0
  8  7  2  0
  9  6  1  0
 10  9  2  0
 10  8  1  0
  1 11  1  0
  2 12  1  0
  2 13  1  0
  4 14  1  0
  4 15  1  0
  5 16  1  0
  5 17  1  0
  6 18  1  0
  7 19  1  0
  8 20  1  0
  9 21  1  0
 10 22  1  0
M  END
> <Uni-Dock RESULT> 
ENERGY=   -3.136  LOWER_BOUND=    6.064  UPPER_BOUND=    6.658
INTER + INTRA:          -3.136
INTER:                  -3.136
INTRA:                   0.000
UNBOUND:                 0.000

$$$$
