
     RDKit          3D

 22 22  0  0  0  0  0  0  0  0999 V2000
   44.0201    5.3625   10.5875 N   0  0  0  0  0  0  0  0  0  0  0  0
   42.9824    4.5284   11.1444 N   0  0  0  0  0  0  0  0  0  0  0  0
   45.6311    3.1002    7.9448 C   0  0  0  0  0  0  0  0  0  0  0  0
   45.0390    4.5216    9.9364 C   0  0  0  0  0  0  0  0  0  0  0  0
   44.5399    3.8911    8.6286 C   0  0  0  0  0  0  0  0  0  0  0  0
   45.8326    1.7499    8.2609 C   0  0  0  0  0  0  0  0  0  0  0  0
   46.4741    3.7134    7.0084 C   0  0  0  0  0  0  0  0  0  0  0  0
   47.4945    2.9862    6.3936 C   0  0  0  0  0  0  0  0  0  0  0  0
   46.8535    1.0245    7.6450 C   0  0  0  0  0  0  0  0  0  0  0  0
   47.6837    1.6425    6.7115 C   0  0  0  0  0  0  0  0  0  0  0  0
   44.4772    5.9402   11.3004 H   0  0  0  0  0  0  0  0  0  0  0  0
   43.2673    4.0785   12.0182 H   0  0  0  0  0  0  0  0  0  0  0  0
   42.1475    5.0789   11.3639 H   0  0  0  0  0  0  0  0  0  0  0  0
   45.8991    5.1649    9.7113 H   0  0  0  0  0  0  0  0  0  0  0  0
   45.4060    3.7540   10.6305 H   0  0  0  0  0  0  0  0  0  0  0  0
   44.1767    4.6712    7.9470 H   0  0  0  0  0  0  0  0  0  0  0  0
   43.6840    3.2298    8.8139 H   0  0  0  0  0  0  0  0  0  0  0  0
   45.1917    1.2563    8.9883 H   0  0  0  0  0  0  0  0  0  0  0  0
   46.3383    4.7617    6.7519 H   0  0  0  0  0  0  0  0  0  0  0  0
   48.1414    3.4686    5.6658 H   0  0  0  0  0  0  0  0  0  0  0  0
   47.0000   -0.0233    7.8931 H   0  0  0  0  0  0  0  0  0  0  0  0
   48.4775    1.0768    6.2313 H   0  0  0  0  0  0  0  0  0  0  0  0
  2  1  1  0
  3  5  1  0
  4  1  1  0
  5  4  1  0
  6  3  2  0
  7  3  1  0
  8  7  2  0
  9  6  1  0
 10  9  2  0
 10  8  1  0
  1 11  1  0
  2 12  1  0
  2 13  1  0
  4 14  1  0
  4 15  1  0
  5 16  1  0
  5 17  1  0
  6 18  1  0
  7 19  1  0
  8 20  1  0
  9 21  1  0
 10 22  1  0
M  END
> <Uni-Dock RESULT> 
ENERGY=   -6.010  LOWER_BOUND=    0.000  UPPER_BOUND=    0.000
INTER + INTRA:          -6.010
INTER:                  -6.010
INTRA:                   0.000
UNBOUND:                 0.000

$$$$

     RDKit          3D

 22 22  0  0  0  0  0  0  0  0999 V2000
   44.1731    4.8825   10.9879 N   0  0  0  0  0  0  0  0  0  0  0  0
   43.2140    3.9481   11.5260 N   0  0  0  0  0  0  0  0  0  0  0  0
   45.6906    2.9680    8.0334 C   0  0  0  0  0  0  0  0  0  0  0  0
   45.1791    4.1599   10.1910 C   0  0  0  0  0  0  0  0  0  0  0  0
   44.6170    3.6341    8.8626 C   0  0  0  0  0  0  0  0  0  0  0  0
   45.9718    1.6052    8.1999 C   0  0  0  0  0  0  0  0  0  0  0  0
   46.4386    3.7097    7.1093 C   0  0  0  0  0  0  0  0  0  0  0  0
   47.4437    3.0967    6.3596 C   0  0  0  0  0  0  0  0  0  0  0  0
   46.9772    0.9942    7.4492 C   0  0  0  0  0  0  0  0  0  0  0  0
   47.7125    1.7397    6.5293 C   0  0  0  0  0  0  0  0  0  0  0  0
   44.6538    5.4109   11.7232 H   0  0  0  0  0  0  0  0  0  0  0  0
   43.5787    3.4310   12.3302 H   0  0  0  0  0  0  0  0  0  0  0  0
   42.3735    4.4326   11.8535 H   0  0  0  0  0  0  0  0  0  0  0  0
   45.9927    4.8639    9.9750 H   0  0  0  0  0  0  0  0  0  0  0  0
   45.6266    3.3483   10.7797 H   0  0  0  0  0  0  0  0  0  0  0  0
   44.1735    4.4572    8.2872 H   0  0  0  0  0  0  0  0  0  0  0  0
   43.8055    2.9163    9.0371 H   0  0  0  0  0  0  0  0  0  0  0  0
   45.4054    1.0127    8.9150 H   0  0  0  0  0  0  0  0  0  0  0  0
   46.2400    4.7697    6.9677 H   0  0  0  0  0  0  0  0  0  0  0  0
   48.0164    3.6786    5.6424 H   0  0  0  0  0  0  0  0  0  0  0  0
   47.1859   -0.0640    7.5817 H   0  0  0  0  0  0  0  0  0  0  0  0
   48.4943    1.2631    5.9441 H   0  0  0  0  0  0  0  0  0  0  0  0
  2  1  1  0
  3  5  1  0
  4  1  1  0
  5  4  1  0
  6  3  2  0
  7  3  1  0
  8  7  2  0
  9  6  1  0
 10  9  2  0
 10  8  1  0
  1 11  1  0
  2 12  1  0
  2 13  1  0
  4 14  1  0
  4 15  1  0
  5 16  1  0
  5 17  1  0
  6 18  1  0
  7 19  1  0
  8 20  1  0
  9 21  1  0
 10 22  1  0
M  END
> <Uni-Dock RESULT> 
ENERGY=   -5.654  LOWER_BOUND=    0.386  UPPER_BOUND=    0.386
INTER + INTRA:          -5.654
INTER:                  -5.654
INTRA:                   0.000
UNBOUND:                 0.000

$$$$

     RDKit          3D

 22 22  0  0  0  0  0  0  0  0999 V2000
   43.6049    2.5409   10.7731 N   0  0  0  0  0  0  0  0  0  0  0  0
   43.5095    3.9148   11.2043 N   0  0  0  0  0  0  0  0  0  0  0  0
   46.3427    2.6580    8.0920 C   0  0  0  0  0  0  0  0  0  0  0  0
   44.2223    2.4801    9.4373 C   0  0  0  0  0  0  0  0  0  0  0  0
   45.7223    2.8061    9.4621 C   0  0  0  0  0  0  0  0  0  0  0  0
   46.3483    3.7354    7.1959 C   0  0  0  0  0  0  0  0  0  0  0  0
   46.8935    1.4341    7.6890 C   0  0  0  0  0  0  0  0  0  0  0  0
   47.4473    1.2939    6.4155 C   0  0  0  0  0  0  0  0  0  0  0  0
   46.9026    3.5930    5.9230 C   0  0  0  0  0  0  0  0  0  0  0  0
   47.4520    2.3728    5.5332 C   0  0  0  0  0  0  0  0  0  0  0  0
   42.6887    2.0829   10.7329 H   0  0  0  0  0  0  0  0  0  0  0  0
   42.7406    4.4157   10.7514 H   0  0  0  0  0  0  0  0  0  0  0  0
   43.3355    3.9719   12.2116 H   0  0  0  0  0  0  0  0  0  0  0  0
   44.0905    1.4573    9.0621 H   0  0  0  0  0  0  0  0  0  0  0  0
   43.6874    3.1334    8.7354 H   0  0  0  0  0  0  0  0  0  0  0  0
   46.2415    2.1450   10.1681 H   0  0  0  0  0  0  0  0  0  0  0  0
   45.8955    3.8281    9.8224 H   0  0  0  0  0  0  0  0  0  0  0  0
   45.9220    4.6926    7.4879 H   0  0  0  0  0  0  0  0  0  0  0  0
   46.8954    0.5837    8.3671 H   0  0  0  0  0  0  0  0  0  0  0  0
   47.8756    0.3423    6.1124 H   0  0  0  0  0  0  0  0  0  0  0  0
   46.9063    4.4349    5.2359 H   0  0  0  0  0  0  0  0  0  0  0  0
   47.8846    2.2631    4.5425 H   0  0  0  0  0  0  0  0  0  0  0  0
  2  1  1  0
  3  5  1  0
  4  1  1  0
  5  4  1  0
  6  3  2  0
  7  3  1  0
  8  7  2  0
  9  6  1  0
 10  9  2  0
 10  8  1  0
  1 11  1  0
  2 12  1  0
  2 13  1  0
  4 14  1  0
  4 15  1  0
  5 16  1  0
  5 17  1  0
  6 18  1  0
  7 19  1  0
  8 20  1  0
  9 21  1  0
 10 22  1  0
M  END
> <Uni-Dock RESULT> 
ENERGY=   -3.993  LOWER_BOUND=    1.164  UPPER_BOUND=    2.085
INTER + INTRA:          -3.993
INTER:                  -3.993
INTRA:                   0.000
UNBOUND:                 0.000

$$$$

     RDKit          3D

 22 22  0  0  0  0  0  0  0  0999 V2000
   45.5145    3.4489    7.1137 N   0  0  0  0  0  0  0  0  0  0  0  0
   46.8648    2.9740    7.2969 N   0  0  0  0  0  0  0  0  0  0  0  0
   44.5476    4.6929   10.6087 C   0  0  0  0  0  0  0  0  0  0  0  0
   44.8217    3.4929    8.4127 C   0  0  0  0  0  0  0  0  0  0  0  0
   45.3304    4.6238    9.3178 C   0  0  0  0  0  0  0  0  0  0  0  0
   44.9382    3.9288   11.7166 C   0  0  0  0  0  0  0  0  0  0  0  0
   43.4049    5.4982   10.7056 C   0  0  0  0  0  0  0  0  0  0  0  0
   42.6716    5.5442   11.8923 C   0  0  0  0  0  0  0  0  0  0  0  0
   44.2036    3.9763   12.9023 C   0  0  0  0  0  0  0  0  0  0  0  0
   43.0711    4.7840   12.9901 C   0  0  0  0  0  0  0  0  0  0  0  0
   44.9776    2.8535    6.4748 H   0  0  0  0  0  0  0  0  0  0  0  0
   46.9094    1.9606    7.4317 H   0  0  0  0  0  0  0  0  0  0  0  0
   47.4408    3.1800    6.4757 H   0  0  0  0  0  0  0  0  0  0  0  0
   43.7558    3.6569    8.2097 H   0  0  0  0  0  0  0  0  0  0  0  0
   44.8896    2.5209    8.9186 H   0  0  0  0  0  0  0  0  0  0  0  0
   45.2561    5.5875    8.7973 H   0  0  0  0  0  0  0  0  0  0  0  0
   46.3937    4.4892    9.5534 H   0  0  0  0  0  0  0  0  0  0  0  0
   45.8198    3.2940   11.6606 H   0  0  0  0  0  0  0  0  0  0  0  0
   43.0814    6.0957    9.8562 H   0  0  0  0  0  0  0  0  0  0  0  0
   41.7889    6.1743   11.9600 H   0  0  0  0  0  0  0  0  0  0  0  0
   44.5159    3.3836   13.7579 H   0  0  0  0  0  0  0  0  0  0  0  0
   42.5004    4.8216   13.9140 H   0  0  0  0  0  0  0  0  0  0  0  0
  2  1  1  0
  3  5  1  0
  4  1  1  0
  5  4  1  0
  6  3  2  0
  7  3  1  0
  8  7  2  0
  9  6  1  0
 10  9  2  0
 10  8  1  0
  1 11  1  0
  2 12  1  0
  2 13  1  0
  4 14  1  0
  4 15  1  0
  5 16  1  0
  5 17  1  0
  6 18  1  0
  7 19  1  0
  8 20  1  0
  9 21  1  0
 10 22  1  0
M  END
> <Uni-Dock RESULT> 
ENERGY=   -3.810  LOWER_BOUND=    2.987  UPPER_BOUND=    5.328
INTER + INTRA:          -3.810
INTER:                  -3.810
INTRA:                   0.000
UNBOUND:                 0.000

$$$$

     RDKit          3D

 22 22  0  0  0  0  0  0  0  0999 V2000
   42.4996    4.9315   11.9458 N   0  0  0  0  0  0  0  0  0  0  0  0
   42.9205    3.6596   11.4094 N   0  0  0  0  0  0  0  0  0  0  0  0
   45.8095    6.7934   12.4703 C   0  0  0  0  0  0  0  0  0  0  0  0
   43.6201    5.5655   12.6611 C   0  0  0  0  0  0  0  0  0  0  0  0
   44.7137    6.0788   11.7137 C   0  0  0  0  0  0  0  0  0  0  0  0
   46.8992    6.0777   12.9842 C   0  0  0  0  0  0  0  0  0  0  0  0
   45.7358    8.1748   12.6935 C   0  0  0  0  0  0  0  0  0  0  0  0
   46.7388    8.8291   13.4105 C   0  0  0  0  0  0  0  0  0  0  0  0
   47.9011    6.7338   13.7009 C   0  0  0  0  0  0  0  0  0  0  0  0
   47.8208    8.1090   13.9135 C   0  0  0  0  0  0  0  0  0  0  0  0
   41.7088    4.8372   12.5913 H   0  0  0  0  0  0  0  0  0  0  0  0
   42.9670    2.9285   12.1238 H   0  0  0  0  0  0  0  0  0  0  0  0
   42.2631    3.3254   10.6990 H   0  0  0  0  0  0  0  0  0  0  0  0
   43.2115    6.4163   13.2209 H   0  0  0  0  0  0  0  0  0  0  0  0
   44.0365    4.8794   13.4104 H   0  0  0  0  0  0  0  0  0  0  0  0
   44.2810    6.7624   10.9716 H   0  0  0  0  0  0  0  0  0  0  0  0
   45.1561    5.2533   11.1419 H   0  0  0  0  0  0  0  0  0  0  0  0
   46.9730    5.0040   12.8255 H   0  0  0  0  0  0  0  0  0  0  0  0
   44.8964    8.7487   12.3074 H   0  0  0  0  0  0  0  0  0  0  0  0
   46.6756    9.9013   13.5758 H   0  0  0  0  0  0  0  0  0  0  0  0
   48.7447    6.1717   14.0923 H   0  0  0  0  0  0  0  0  0  0  0  0
   48.6019    8.6194   14.4704 H   0  0  0  0  0  0  0  0  0  0  0  0
  2  1  1  0
  3  5  1  0
  4  1  1  0
  5  4  1  0
  6  3  2  0
  7  3  1  0
  8  7  2  0
  9  6  1  0
 10  9  2  0
 10  8  1  0
  1 11  1  0
  2 12  1  0
  2 13  1  0
  4 14  1  0
  4 15  1  0
  5 16  1  0
  5 17  1  0
  6 18  1  0
  7 19  1  0
  8 20  1  0
  9 21  1  0
 10 22  1  0
M  END
> <Uni-Dock RESULT> 
ENERGY=   -3.161  LOWER_BOUND=    5.076  UPPER_BOUND=    6.381
INTER + INTRA:          -3.161
INTER:                  -3.161
INTRA:                   0.000
UNBOUND:                 0.000

$$$$

     RDKit          3D

 22 22  0  0  0  0  0  0  0  0999 V2000
   43.1870    5.1037   11.2041 N   0  0  0  0  0  0  0  0  0  0  0  0
   42.0234    5.6654   11.8468 N   0  0  0  0  0  0  0  0  0  0  0  0
   46.0397    7.3321   12.4667 C   0  0  0  0  0  0  0  0  0  0  0  0
   44.2672    6.1044   11.1674 C   0  0  0  0  0  0  0  0  0  0  0  0
   44.8838    6.3621   12.5495 C   0  0  0  0  0  0  0  0  0  0  0  0
   45.8146    8.7125   12.5539 C   0  0  0  0  0  0  0  0  0  0  0  0
   47.3469    6.8662   12.2723 C   0  0  0  0  0  0  0  0  0  0  0  0
   48.4101    7.7652   12.1753 C   0  0  0  0  0  0  0  0  0  0  0  0
   46.8792    9.6097   12.4567 C   0  0  0  0  0  0  0  0  0  0  0  0
   48.1763    9.1361   12.2679 C   0  0  0  0  0  0  0  0  0  0  0  0
   42.9903    4.7971   10.2459 H   0  0  0  0  0  0  0  0  0  0  0  0
   41.5057    6.3014   11.2347 H   0  0  0  0  0  0  0  0  0  0  0  0
   41.3648    4.9307   12.1203 H   0  0  0  0  0  0  0  0  0  0  0  0
   45.0481    5.7186   10.4998 H   0  0  0  0  0  0  0  0  0  0  0  0
   43.9118    7.0384   10.7127 H   0  0  0  0  0  0  0  0  0  0  0  0
   45.2332    5.4190   12.9897 H   0  0  0  0  0  0  0  0  0  0  0  0
   44.1342    6.7603   13.2451 H   0  0  0  0  0  0  0  0  0  0  0  0
   44.8068    9.0947   12.7006 H   0  0  0  0  0  0  0  0  0  0  0  0
   47.5433    5.7990   12.1972 H   0  0  0  0  0  0  0  0  0  0  0  0
   49.4212    7.3952   12.0282 H   0  0  0  0  0  0  0  0  0  0  0  0
   46.6961   10.6784   12.5295 H   0  0  0  0  0  0  0  0  0  0  0  0
   49.0050    9.8351   12.1937 H   0  0  0  0  0  0  0  0  0  0  0  0
  2  1  1  0
  3  5  1  0
  4  1  1  0
  5  4  1  0
  6  3  2  0
  7  3  1  0
  8  7  2  0
  9  6  1  0
 10  9  2  0
 10  8  1  0
  1 11  1  0
  2 12  1  0
  2 13  1  0
  4 14  1  0
  4 15  1  0
  5 16  1  0
  5 17  1  0
  6 18  1  0
  7 19  1  0
  8 20  1  0
  9 21  1  0
 10 22  1  0
M  END
> <Uni-Dock RESULT> 
ENERGY=   -3.050  LOWER_BOUND=    4.856  UPPER_BOUND=    6.443
INTER + INTRA:          -3.050
INTER:                  -3.050
INTRA:                   0.000
UNBOUND:                 0.000

$$$$
