
     RDKit          3D

 22 22  0  0  0  0  0  0  0  0999 V2000
   43.9341    5.2144   10.7449 N   0  0  0  0  0  0  0  0  0  0  0  0
   42.9383    4.3280   11.3046 N   0  0  0  0  0  0  0  0  0  0  0  0
   45.5988    3.0914    8.0088 C   0  0  0  0  0  0  0  0  0  0  0  0
   44.9707    4.4264   10.0516 C   0  0  0  0  0  0  0  0  0  0  0  0
   44.4903    3.8311    8.7196 C   0  0  0  0  0  0  0  0  0  0  0  0
   45.8225    1.7323    8.2670 C   0  0  0  0  0  0  0  0  0  0  0  0
   46.4357    3.7594    7.1048 C   0  0  0  0  0  0  0  0  0  0  0  0
   47.4712    3.0771    6.4643 C   0  0  0  0  0  0  0  0  0  0  0  0
   46.8586    1.0521    7.6253 C   0  0  0  0  0  0  0  0  0  0  0  0
   47.6820    1.7243    6.7240 C   0  0  0  0  0  0  0  0  0  0  0  0
   43.5170    5.8637   10.0689 H   0  0  0  0  0  0  0  0  0  0  0  0
   42.2136    4.8647   11.7921 H   0  0  0  0  0  0  0  0  0  0  0  0
   43.3510    3.7410   12.0372 H   0  0  0  0  0  0  0  0  0  0  0  0
   45.8137    5.1015    9.8587 H   0  0  0  0  0  0  0  0  0  0  0  0
   45.3618    3.6426   10.7137 H   0  0  0  0  0  0  0  0  0  0  0  0
   43.6490    3.1453    8.8808 H   0  0  0  0  0  0  0  0  0  0  0  0
   44.1098    4.6259    8.0649 H   0  0  0  0  0  0  0  0  0  0  0  0
   45.1888    1.1960    8.9700 H   0  0  0  0  0  0  0  0  0  0  0  0
   46.2857    4.8157    6.8938 H   0  0  0  0  0  0  0  0  0  0  0  0
   48.1143    3.6019    5.7627 H   0  0  0  0  0  0  0  0  0  0  0  0
   47.0233   -0.0026    7.8294 H   0  0  0  0  0  0  0  0  0  0  0  0
   48.4885    1.1939    6.2247 H   0  0  0  0  0  0  0  0  0  0  0  0
  2  1  1  0
  3  5  1  0
  4  1  1  0
  5  4  1  0
  6  3  2  0
  7  3  1  0
  8  7  2  0
  9  6  1  0
 10  9  2  0
 10  8  1  0
  1 11  1  0
  2 12  1  0
  2 13  1  0
  4 14  1  0
  4 15  1  0
  5 16  1  0
  5 17  1  0
  6 18  1  0
  7 19  1  0
  8 20  1  0
  9 21  1  0
 10 22  1  0
M  END
> <Uni-Dock RESULT> 
ENERGY=   -5.971  LOWER_BOUND=    0.000  UPPER_BOUND=    0.000
INTER + INTRA:          -5.971
INTER:                  -5.971
INTRA:                   0.000
UNBOUND:                 0.000

$$$$

     RDKit          3D

 22 22  0  0  0  0  0  0  0  0999 V2000
   45.5265    3.4366    7.1122 N   0  0  0  0  0  0  0  0  0  0  0  0
   46.8608    2.9119    7.2993 N   0  0  0  0  0  0  0  0  0  0  0  0
   44.5502    4.6924   10.6100 C   0  0  0  0  0  0  0  0  0  0  0  0
   44.8270    3.4959    8.4096 C   0  0  0  0  0  0  0  0  0  0  0  0
   45.3367    4.6211    9.3225 C   0  0  0  0  0  0  0  0  0  0  0  0
   44.9398    3.9324   11.7210 C   0  0  0  0  0  0  0  0  0  0  0  0
   43.4056    5.4957   10.7021 C   0  0  0  0  0  0  0  0  0  0  0  0
   42.6702    5.5442   11.8874 C   0  0  0  0  0  0  0  0  0  0  0  0
   44.2030    3.9825   12.9053 C   0  0  0  0  0  0  0  0  0  0  0  0
   43.0691    4.7886   12.9883 C   0  0  0  0  0  0  0  0  0  0  0  0
   45.5504    4.3823    6.7155 H   0  0  0  0  0  0  0  0  0  0  0  0
   47.3560    2.8630    6.4031 H   0  0  0  0  0  0  0  0  0  0  0  0
   46.8224    1.9379    7.6179 H   0  0  0  0  0  0  0  0  0  0  0  0
   43.7639    3.6625    8.1955 H   0  0  0  0  0  0  0  0  0  0  0  0
   44.8801    2.5238    8.9174 H   0  0  0  0  0  0  0  0  0  0  0  0
   46.3985    4.4788    9.5598 H   0  0  0  0  0  0  0  0  0  0  0  0
   45.2705    5.5874    8.8057 H   0  0  0  0  0  0  0  0  0  0  0  0
   45.8214    3.2972   11.6692 H   0  0  0  0  0  0  0  0  0  0  0  0
   43.0799    6.0889    9.8507 H   0  0  0  0  0  0  0  0  0  0  0  0
   41.7851    6.1716   11.9514 H   0  0  0  0  0  0  0  0  0  0  0  0
   44.5138    3.3919   13.7630 H   0  0  0  0  0  0  0  0  0  0  0  0
   42.4960    4.8272   13.9108 H   0  0  0  0  0  0  0  0  0  0  0  0
  2  1  1  0
  3  5  1  0
  4  1  1  0
  5  4  1  0
  6  3  2  0
  7  3  1  0
  8  7  2  0
  9  6  1  0
 10  9  2  0
 10  8  1  0
  1 11  1  0
  2 12  1  0
  2 13  1  0
  4 14  1  0
  4 15  1  0
  5 16  1  0
  5 17  1  0
  6 18  1  0
  7 19  1  0
  8 20  1  0
  9 21  1  0
 10 22  1  0
M  END
> <Uni-Dock RESULT> 
ENERGY=   -3.805  LOWER_BOUND=    3.001  UPPER_BOUND=    5.317
INTER + INTRA:          -3.805
INTER:                  -3.805
INTRA:                   0.000
UNBOUND:                 0.000

$$$$

     RDKit          3D

 22 22  0  0  0  0  0  0  0  0999 V2000
   42.5018    4.9482   11.9173 N   0  0  0  0  0  0  0  0  0  0  0  0
   42.9132    3.6581   11.4105 N   0  0  0  0  0  0  0  0  0  0  0  0
   45.8207    6.8077   12.4575 C   0  0  0  0  0  0  0  0  0  0  0  0
   43.6243    5.5849   12.6320 C   0  0  0  0  0  0  0  0  0  0  0  0
   44.7249    6.1026   11.6939 C   0  0  0  0  0  0  0  0  0  0  0  0
   46.9123    6.0859   12.9587 C   0  0  0  0  0  0  0  0  0  0  0  0
   45.7467    8.1860   12.7000 C   0  0  0  0  0  0  0  0  0  0  0  0
   46.7515    8.8309   13.4227 C   0  0  0  0  0  0  0  0  0  0  0  0
   47.9160    6.7329   13.6810 C   0  0  0  0  0  0  0  0  0  0  0  0
   47.8357    8.1049   13.9123 C   0  0  0  0  0  0  0  0  0  0  0  0
   42.2093    5.5712   11.1566 H   0  0  0  0  0  0  0  0  0  0  0  0
   42.1396    3.2042   10.9142 H   0  0  0  0  0  0  0  0  0  0  0  0
   43.1240    3.0188   12.1842 H   0  0  0  0  0  0  0  0  0  0  0  0
   43.2095    6.4289   13.1972 H   0  0  0  0  0  0  0  0  0  0  0  0
   44.0385    4.8984   13.3822 H   0  0  0  0  0  0  0  0  0  0  0  0
   45.1641    5.2786   11.1175 H   0  0  0  0  0  0  0  0  0  0  0  0
   44.2985    6.7933   10.9548 H   0  0  0  0  0  0  0  0  0  0  0  0
   46.9863    5.0142   12.7875 H   0  0  0  0  0  0  0  0  0  0  0  0
   44.9056    8.7658   12.3270 H   0  0  0  0  0  0  0  0  0  0  0  0
   46.6879    9.9006   13.6044 H   0  0  0  0  0  0  0  0  0  0  0  0
   48.7604    6.1658   14.0637 H   0  0  0  0  0  0  0  0  0  0  0  0
   48.6177    8.6080   14.4747 H   0  0  0  0  0  0  0  0  0  0  0  0
  2  1  1  0
  3  5  1  0
  4  1  1  0
  5  4  1  0
  6  3  2  0
  7  3  1  0
  8  7  2  0
  9  6  1  0
 10  9  2  0
 10  8  1  0
  1 11  1  0
  2 12  1  0
  2 13  1  0
  4 14  1  0
  4 15  1  0
  5 16  1  0
  5 17  1  0
  6 18  1  0
  7 19  1  0
  8 20  1  0
  9 21  1  0
 10 22  1  0
M  END
> <Uni-Dock RESULT> 
ENERGY=   -3.159  LOWER_BOUND=    5.018  UPPER_BOUND=    6.321
INTER + INTRA:          -3.159
INTER:                  -3.159
INTRA:                   0.000
UNBOUND:                 0.000

$$$$

     RDKit          3D

 22 22  0  0  0  0  0  0  0  0999 V2000
   45.8910    8.8519   13.1769 N   0  0  0  0  0  0  0  0  0  0  0  0
   46.5350    9.6404   12.1503 N   0  0  0  0  0  0  0  0  0  0  0  0
   45.5246    5.3861   11.5585 C   0  0  0  0  0  0  0  0  0  0  0  0
   45.2386    7.6771   12.5684 C   0  0  0  0  0  0  0  0  0  0  0  0
   46.2336    6.5998   12.1114 C   0  0  0  0  0  0  0  0  0  0  0  0
   45.1883    5.3201   10.1997 C   0  0  0  0  0  0  0  0  0  0  0  0
   45.1682    4.3242   12.4005 C   0  0  0  0  0  0  0  0  0  0  0  0
   44.4959    3.2128   11.8898 C   0  0  0  0  0  0  0  0  0  0  0  0
   44.5161    4.2077    9.6911 C   0  0  0  0  0  0  0  0  0  0  0  0
   44.1707    3.1544   10.5359 C   0  0  0  0  0  0  0  0  0  0  0  0
   46.5689    8.5201   13.8718 H   0  0  0  0  0  0  0  0  0  0  0  0
   46.9896   10.4622   12.5612 H   0  0  0  0  0  0  0  0  0  0  0  0
   45.8378   10.0340   11.5094 H   0  0  0  0  0  0  0  0  0  0  0  0
   44.5717    7.2494   13.3274 H   0  0  0  0  0  0  0  0  0  0  0  0
   44.5878    7.9873   11.7403 H   0  0  0  0  0  0  0  0  0  0  0  0
   46.9124    6.9967   11.3460 H   0  0  0  0  0  0  0  0  0  0  0  0
   46.8719    6.2934   12.9503 H   0  0  0  0  0  0  0  0  0  0  0  0
   45.4498    6.1362    9.5297 H   0  0  0  0  0  0  0  0  0  0  0  0
   45.4124    4.3562   13.4598 H   0  0  0  0  0  0  0  0  0  0  0  0
   44.2252    2.3922   12.5490 H   0  0  0  0  0  0  0  0  0  0  0  0
   44.2615    4.1636    8.6355 H   0  0  0  0  0  0  0  0  0  0  0  0
   43.6474    2.2886   10.1391 H   0  0  0  0  0  0  0  0  0  0  0  0
  2  1  1  0
  3  5  1  0
  4  1  1  0
  5  4  1  0
  6  3  2  0
  7  3  1  0
  8  7  2  0
  9  6  1  0
 10  9  2  0
 10  8  1  0
  1 11  1  0
  2 12  1  0
  2 13  1  0
  4 14  1  0
  4 15  1  0
  5 16  1  0
  5 17  1  0
  6 18  1  0
  7 19  1  0
  8 20  1  0
  9 21  1  0
 10 22  1  0
M  END
> <Uni-Dock RESULT> 
ENERGY=   -3.149  LOWER_BOUND=    3.846  UPPER_BOUND=    5.058
INTER + INTRA:          -3.149
INTER:                  -3.149
INTRA:                   0.000
UNBOUND:                 0.000

$$$$

     RDKit          3D

 22 22  0  0  0  0  0  0  0  0999 V2000
   47.8157    5.5176   19.4507 N   0  0  0  0  0  0  0  0  0  0  0  0
   46.7245    5.2618   18.5374 N   0  0  0  0  0  0  0  0  0  0  0  0
   50.7348    3.5160   17.9550 C   0  0  0  0  0  0  0  0  0  0  0  0
   48.8369    4.4616   19.3166 C   0  0  0  0  0  0  0  0  0  0  0  0
   49.6562    4.5712   18.0220 C   0  0  0  0  0  0  0  0  0  0  0  0
   50.4621    2.2585   17.3998 C   0  0  0  0  0  0  0  0  0  0  0  0
   52.0123    3.7692   18.4724 C   0  0  0  0  0  0  0  0  0  0  0  0
   53.0009    2.7851   18.4263 C   0  0  0  0  0  0  0  0  0  0  0  0
   51.4523    1.2760   17.3547 C   0  0  0  0  0  0  0  0  0  0  0  0
   52.7212    1.5396   17.8672 C   0  0  0  0  0  0  0  0  0  0  0  0
   48.2598    6.4218   19.2566 H   0  0  0  0  0  0  0  0  0  0  0  0
   46.0064    5.9882   18.6239 H   0  0  0  0  0  0  0  0  0  0  0  0
   46.2375    4.3962   18.7930 H   0  0  0  0  0  0  0  0  0  0  0  0
   49.5121    4.5548   20.1764 H   0  0  0  0  0  0  0  0  0  0  0  0
   48.3751    3.4695   19.4064 H   0  0  0  0  0  0  0  0  0  0  0  0
   49.0078    4.4757   17.1419 H   0  0  0  0  0  0  0  0  0  0  0  0
   50.1184    5.5643   17.9492 H   0  0  0  0  0  0  0  0  0  0  0  0
   49.4753    2.0386   16.9983 H   0  0  0  0  0  0  0  0  0  0  0  0
   52.2452    4.7352   18.9144 H   0  0  0  0  0  0  0  0  0  0  0  0
   53.9899    2.9903   18.8275 H   0  0  0  0  0  0  0  0  0  0  0  0
   51.2329    0.3044   16.9198 H   0  0  0  0  0  0  0  0  0  0  0  0
   53.4916    0.7740   17.8315 H   0  0  0  0  0  0  0  0  0  0  0  0
  2  1  1  0
  3  5  1  0
  4  1  1  0
  5  4  1  0
  6  3  2  0
  7  3  1  0
  8  7  2  0
  9  6  1  0
 10  9  2  0
 10  8  1  0
  1 11  1  0
  2 12  1  0
  2 13  1  0
  4 14  1  0
  4 15  1  0
  5 16  1  0
  5 17  1  0
  6 18  1  0
  7 19  1  0
  8 20  1  0
  9 21  1  0
 10 22  1  0
M  END
> <Uni-Dock RESULT> 
ENERGY=   -3.057  LOWER_BOUND=   10.190  UPPER_BOUND=   10.969
INTER + INTRA:          -3.057
INTER:                  -3.057
INTRA:                   0.000
UNBOUND:                 0.000

$$$$
