
     RDKit          3D

 22 22  0  0  0  0  0  0  0  0999 V2000
   43.7187    5.2263   10.5084 N   0  0  0  0  0  0  0  0  0  0  0  0
   44.0825    5.7814   11.7875 N   0  0  0  0  0  0  0  0  0  0  0  0
   45.5935    3.1268    7.9435 C   0  0  0  0  0  0  0  0  0  0  0  0
   44.8540    4.4995    9.9204 C   0  0  0  0  0  0  0  0  0  0  0  0
   44.4475    3.8765    8.5790 C   0  0  0  0  0  0  0  0  0  0  0  0
   45.8116    1.7760    8.2458 C   0  0  0  0  0  0  0  0  0  0  0  0
   46.4711    3.7785    7.0665 C   0  0  0  0  0  0  0  0  0  0  0  0
   47.5417    3.0882    6.4961 C   0  0  0  0  0  0  0  0  0  0  0  0
   46.8828    1.0878    7.6743 C   0  0  0  0  0  0  0  0  0  0  0  0
   47.7470    1.7436    6.7995 C   0  0  0  0  0  0  0  0  0  0  0  0
   43.4002    5.9551    9.8612 H   0  0  0  0  0  0  0  0  0  0  0  0
   44.1892    5.0485   12.4944 H   0  0  0  0  0  0  0  0  0  0  0  0
   44.9669    6.2955   11.7659 H   0  0  0  0  0  0  0  0  0  0  0  0
   45.1847    3.7086   10.6059 H   0  0  0  0  0  0  0  0  0  0  0  0
   45.7002    5.1824    9.7707 H   0  0  0  0  0  0  0  0  0  0  0  0
   43.5999    3.1926    8.7181 H   0  0  0  0  0  0  0  0  0  0  0  0
   44.0970    4.6542    7.8878 H   0  0  0  0  0  0  0  0  0  0  0  0
   45.1465    1.2513    8.9283 H   0  0  0  0  0  0  0  0  0  0  0  0
   46.3253    4.8278    6.8205 H   0  0  0  0  0  0  0  0  0  0  0  0
   48.2159    3.5997    5.8140 H   0  0  0  0  0  0  0  0  0  0  0  0
   47.0428    0.0393    7.9117 H   0  0  0  0  0  0  0  0  0  0  0  0
   48.5803    1.2067    6.3542 H   0  0  0  0  0  0  0  0  0  0  0  0
  2  1  1  0
  3  5  1  0
  4  1  1  0
  5  4  1  0
  6  3  2  0
  7  3  1  0
  8  7  2  0
  9  6  1  0
 10  9  2  0
 10  8  1  0
  1 11  1  0
  2 12  1  0
  2 13  1  0
  4 14  1  0
  4 15  1  0
  5 16  1  0
  5 17  1  0
  6 18  1  0
  7 19  1  0
  8 20  1  0
  9 21  1  0
 10 22  1  0
M  END
> <Uni-Dock RESULT> 
ENERGY=   -5.763  LOWER_BOUND=    0.000  UPPER_BOUND=    0.000
INTER + INTRA:          -5.763
INTER:                  -5.763
INTRA:                   0.000
UNBOUND:                 0.000

$$$$

     RDKit          3D

 22 22  0  0  0  0  0  0  0  0999 V2000
   46.9637    2.5881    5.7829 N   0  0  0  0  0  0  0  0  0  0  0  0
   48.3148    2.1331    5.5733 N   0  0  0  0  0  0  0  0  0  0  0  0
   45.0440    3.7418    8.8627 C   0  0  0  0  0  0  0  0  0  0  0  0
   46.7384    2.8973    7.2029 C   0  0  0  0  0  0  0  0  0  0  0  0
   45.3118    3.4201    7.4121 C   0  0  0  0  0  0  0  0  0  0  0  0
   45.3410    5.0124    9.3738 C   0  0  0  0  0  0  0  0  0  0  0  0
   44.5229    2.7666    9.7236 C   0  0  0  0  0  0  0  0  0  0  0  0
   44.2953    3.0607   11.0689 C   0  0  0  0  0  0  0  0  0  0  0  0
   45.1127    5.3042   10.7193 C   0  0  0  0  0  0  0  0  0  0  0  0
   44.5896    4.3289   11.5662 C   0  0  0  0  0  0  0  0  0  0  0  0
   46.2810    1.8913    5.4667 H   0  0  0  0  0  0  0  0  0  0  0  0
   48.9861    2.8987    5.6808 H   0  0  0  0  0  0  0  0  0  0  0  0
   48.5995    1.4023    6.2304 H   0  0  0  0  0  0  0  0  0  0  0  0
   47.4586    3.6551    7.5374 H   0  0  0  0  0  0  0  0  0  0  0  0
   46.8970    1.9985    7.8127 H   0  0  0  0  0  0  0  0  0  0  0  0
   45.1426    4.3188    6.8045 H   0  0  0  0  0  0  0  0  0  0  0  0
   44.5793    2.6794    7.0653 H   0  0  0  0  0  0  0  0  0  0  0  0
   45.7515    5.7833    8.7251 H   0  0  0  0  0  0  0  0  0  0  0  0
   44.2892    1.7717    9.3515 H   0  0  0  0  0  0  0  0  0  0  0  0
   43.8876    2.2999   11.7295 H   0  0  0  0  0  0  0  0  0  0  0  0
   45.3429    6.2932   11.1066 H   0  0  0  0  0  0  0  0  0  0  0  0
   44.4112    4.5573   12.6135 H   0  0  0  0  0  0  0  0  0  0  0  0
  2  1  1  0
  3  5  1  0
  4  1  1  0
  5  4  1  0
  6  3  2  0
  7  3  1  0
  8  7  2  0
  9  6  1  0
 10  9  2  0
 10  8  1  0
  1 11  1  0
  2 12  1  0
  2 13  1  0
  4 14  1  0
  4 15  1  0
  5 16  1  0
  5 17  1  0
  6 18  1  0
  7 19  1  0
  8 20  1  0
  9 21  1  0
 10 22  1  0
M  END
> <Uni-Dock RESULT> 
ENERGY=   -4.288  LOWER_BOUND=    3.284  UPPER_BOUND=    5.019
INTER + INTRA:          -4.288
INTER:                  -4.288
INTRA:                   0.000
UNBOUND:                 0.000

$$$$

     RDKit          3D

 22 22  0  0  0  0  0  0  0  0999 V2000
   45.0919    7.9275   12.4905 N   0  0  0  0  0  0  0  0  0  0  0  0
   46.1709    8.2903   13.3741 N   0  0  0  0  0  0  0  0  0  0  0  0
   44.3863    4.8559   10.3531 C   0  0  0  0  0  0  0  0  0  0  0  0
   45.3363    6.6055   11.8944 C   0  0  0  0  0  0  0  0  0  0  0  0
   44.1649    6.2077   10.9877 C   0  0  0  0  0  0  0  0  0  0  0  0
   43.9771    3.6881   11.0108 C   0  0  0  0  0  0  0  0  0  0  0  0
   45.0297    4.7487    9.1127 C   0  0  0  0  0  0  0  0  0  0  0  0
   45.2512    3.4963    8.5377 C   0  0  0  0  0  0  0  0  0  0  0  0
   44.1997    2.4370   10.4340 C   0  0  0  0  0  0  0  0  0  0  0  0
   44.8360    2.3413    9.1978 C   0  0  0  0  0  0  0  0  0  0  0  0
   44.9650    8.6246   11.7492 H   0  0  0  0  0  0  0  0  0  0  0  0
   46.1600    7.7237   14.2267 H   0  0  0  0  0  0  0  0  0  0  0  0
   47.0950    8.1644   12.9532 H   0  0  0  0  0  0  0  0  0  0  0  0
   45.4560    5.8562   12.6874 H   0  0  0  0  0  0  0  0  0  0  0  0
   46.2667    6.6222   11.3121 H   0  0  0  0  0  0  0  0  0  0  0  0
   43.2287    6.1899   11.5609 H   0  0  0  0  0  0  0  0  0  0  0  0
   44.0212    6.9578   10.1989 H   0  0  0  0  0  0  0  0  0  0  0  0
   43.4809    3.7470   11.9772 H   0  0  0  0  0  0  0  0  0  0  0  0
   45.3609    5.6403    8.5853 H   0  0  0  0  0  0  0  0  0  0  0  0
   45.7476    3.4217    7.5737 H   0  0  0  0  0  0  0  0  0  0  0  0
   43.8762    1.5366   10.9496 H   0  0  0  0  0  0  0  0  0  0  0  0
   45.0080    1.3667    8.7490 H   0  0  0  0  0  0  0  0  0  0  0  0
  2  1  1  0
  3  5  1  0
  4  1  1  0
  5  4  1  0
  6  3  2  0
  7  3  1  0
  8  7  2  0
  9  6  1  0
 10  9  2  0
 10  8  1  0
  1 11  1  0
  2 12  1  0
  2 13  1  0
  4 14  1  0
  4 15  1  0
  5 16  1  0
  5 17  1  0
  6 18  1  0
  7 19  1  0
  8 20  1  0
  9 21  1  0
 10 22  1  0
M  END
> <Uni-Dock RESULT> 
ENERGY=   -3.639  LOWER_BOUND=    2.389  UPPER_BOUND=    3.451
INTER + INTRA:          -3.639
INTER:                  -3.639
INTRA:                   0.000
UNBOUND:                 0.000

$$$$

     RDKit          3D

 22 22  0  0  0  0  0  0  0  0999 V2000
   43.0284    5.6938   11.9270 N   0  0  0  0  0  0  0  0  0  0  0  0
   41.6672    6.1537   11.8170 N   0  0  0  0  0  0  0  0  0  0  0  0
   45.3648    3.8553    9.5476 C   0  0  0  0  0  0  0  0  0  0  0  0
   43.4442    5.0140   10.6910 C   0  0  0  0  0  0  0  0  0  0  0  0
   44.9064    4.5639   10.7993 C   0  0  0  0  0  0  0  0  0  0  0  0
   45.9056    4.5825    8.4786 C   0  0  0  0  0  0  0  0  0  0  0  0
   45.2290    2.4658    9.4260 C   0  0  0  0  0  0  0  0  0  0  0  0
   45.6351    1.8156    8.2595 C   0  0  0  0  0  0  0  0  0  0  0  0
   46.3108    3.9303    7.3133 C   0  0  0  0  0  0  0  0  0  0  0  0
   46.1761    2.5475    7.2041 C   0  0  0  0  0  0  0  0  0  0  0  0
   43.1466    5.0631   12.7268 H   0  0  0  0  0  0  0  0  0  0  0  0
   41.5918    6.9405   11.1662 H   0  0  0  0  0  0  0  0  0  0  0  0
   41.0254    5.4329   11.4772 H   0  0  0  0  0  0  0  0  0  0  0  0
   43.3331    5.6943    9.8368 H   0  0  0  0  0  0  0  0  0  0  0  0
   42.8011    4.1438   10.5064 H   0  0  0  0  0  0  0  0  0  0  0  0
   45.5579    5.4277   10.9859 H   0  0  0  0  0  0  0  0  0  0  0  0
   45.0372    3.8960   11.6609 H   0  0  0  0  0  0  0  0  0  0  0  0
   46.0152    5.6626    8.5486 H   0  0  0  0  0  0  0  0  0  0  0  0
   44.8076    1.8804   10.2400 H   0  0  0  0  0  0  0  0  0  0  0  0
   45.5297    0.7372    8.1743 H   0  0  0  0  0  0  0  0  0  0  0  0
   46.7321    4.5017    6.4903 H   0  0  0  0  0  0  0  0  0  0  0  0
   46.4928    2.0405    6.2967 H   0  0  0  0  0  0  0  0  0  0  0  0
  2  1  1  0
  3  5  1  0
  4  1  1  0
  5  4  1  0
  6  3  2  0
  7  3  1  0
  8  7  2  0
  9  6  1  0
 10  9  2  0
 10  8  1  0
  1 11  1  0
  2 12  1  0
  2 13  1  0
  4 14  1  0
  4 15  1  0
  5 16  1  0
  5 17  1  0
  6 18  1  0
  7 19  1  0
  8 20  1  0
  9 21  1  0
 10 22  1  0
M  END
> <Uni-Dock RESULT> 
ENERGY=   -3.427  LOWER_BOUND=    1.328  UPPER_BOUND=    2.393
INTER + INTRA:          -3.427
INTER:                  -3.427
INTRA:                   0.000
UNBOUND:                 0.000

$$$$

     RDKit          3D

 22 22  0  0  0  0  0  0  0  0999 V2000
   45.4034    8.5825   12.3818 N   0  0  0  0  0  0  0  0  0  0  0  0
   44.4486    9.6611   12.4233 N   0  0  0  0  0  0  0  0  0  0  0  0
   45.4155    5.1680   10.6961 C   0  0  0  0  0  0  0  0  0  0  0  0
   44.8830    7.4641   11.5811 C   0  0  0  0  0  0  0  0  0  0  0  0
   45.9207    6.3370   11.5069 C   0  0  0  0  0  0  0  0  0  0  0  0
   45.6101    5.1303    9.3088 C   0  0  0  0  0  0  0  0  0  0  0  0
   44.7203    4.1202   11.3146 C   0  0  0  0  0  0  0  0  0  0  0  0
   44.2367    3.0504   10.5596 C   0  0  0  0  0  0  0  0  0  0  0  0
   45.1257    4.0597    8.5559 C   0  0  0  0  0  0  0  0  0  0  0  0
   44.4398    3.0201    9.1812 C   0  0  0  0  0  0  0  0  0  0  0  0
   45.6386    8.2547   13.3246 H   0  0  0  0  0  0  0  0  0  0  0  0
   44.3781   10.1305   11.5161 H   0  0  0  0  0  0  0  0  0  0  0  0
   43.5036    9.3525   12.6653 H   0  0  0  0  0  0  0  0  0  0  0  0
   44.6464    7.8110   10.5670 H   0  0  0  0  0  0  0  0  0  0  0  0
   43.9541    7.0841   12.0258 H   0  0  0  0  0  0  0  0  0  0  0  0
   46.8547    6.7079   11.0648 H   0  0  0  0  0  0  0  0  0  0  0  0
   46.1811    5.9911   12.5158 H   0  0  0  0  0  0  0  0  0  0  0  0
   46.1421    5.9355    8.8065 H   0  0  0  0  0  0  0  0  0  0  0  0
   44.5524    4.1294   12.3892 H   0  0  0  0  0  0  0  0  0  0  0  0
   43.7016    2.2398   11.0473 H   0  0  0  0  0  0  0  0  0  0  0  0
   45.2839    4.0369    7.4809 H   0  0  0  0  0  0  0  0  0  0  0  0
   44.0638    2.1865    8.5943 H   0  0  0  0  0  0  0  0  0  0  0  0
  2  1  1  0
  3  5  1  0
  4  1  1  0
  5  4  1  0
  6  3  2  0
  7  3  1  0
  8  7  2  0
  9  6  1  0
 10  9  2  0
 10  8  1  0
  1 11  1  0
  2 12  1  0
  2 13  1  0
  4 14  1  0
  4 15  1  0
  5 16  1  0
  5 17  1  0
  6 18  1  0
  7 19  1  0
  8 20  1  0
  9 21  1  0
 10 22  1  0
M  END
> <Uni-Dock RESULT> 
ENERGY=   -3.414  LOWER_BOUND=    2.785  UPPER_BOUND=    4.066
INTER + INTRA:          -3.414
INTER:                  -3.414
INTRA:                   0.000
UNBOUND:                 0.000

$$$$

     RDKit          3D

 22 22  0  0  0  0  0  0  0  0999 V2000
   44.1968    3.9342    9.4950 N   0  0  0  0  0  0  0  0  0  0  0  0
   44.5730    3.6949    8.1247 N   0  0  0  0  0  0  0  0  0  0  0  0
   45.3370    6.4513   12.1152 C   0  0  0  0  0  0  0  0  0  0  0  0
   44.9807    5.0438   10.0583 C   0  0  0  0  0  0  0  0  0  0  0  0
   44.5464    5.3201   11.5032 C   0  0  0  0  0  0  0  0  0  0  0  0
   44.9052    7.7768   11.9724 C   0  0  0  0  0  0  0  0  0  0  0  0
   46.5274    6.1942   12.8086 C   0  0  0  0  0  0  0  0  0  0  0  0
   47.2669    7.2437   13.3561 C   0  0  0  0  0  0  0  0  0  0  0  0
   45.6462    8.8246   12.5206 C   0  0  0  0  0  0  0  0  0  0  0  0
   46.8262    8.5580   13.2126 C   0  0  0  0  0  0  0  0  0  0  0  0
   44.3218    3.0941   10.0695 H   0  0  0  0  0  0  0  0  0  0  0  0
   44.2489    4.4491    7.5128 H   0  0  0  0  0  0  0  0  0  0  0  0
   45.5851    3.6270    7.9915 H   0  0  0  0  0  0  0  0  0  0  0  0
   44.8344    5.9476    9.4530 H   0  0  0  0  0  0  0  0  0  0  0  0
   46.0504    4.7986   10.0332 H   0  0  0  0  0  0  0  0  0  0  0  0
   43.4767    5.5648   11.5391 H   0  0  0  0  0  0  0  0  0  0  0  0
   44.6704    4.4189   12.1178 H   0  0  0  0  0  0  0  0  0  0  0  0
   43.9870    8.0005   11.4333 H   0  0  0  0  0  0  0  0  0  0  0  0
   46.8856    5.1742   12.9283 H   0  0  0  0  0  0  0  0  0  0  0  0
   48.1873    7.0358   13.8955 H   0  0  0  0  0  0  0  0  0  0  0  0
   45.3024    9.8495   12.4079 H   0  0  0  0  0  0  0  0  0  0  0  0
   47.4021    9.3744   13.6399 H   0  0  0  0  0  0  0  0  0  0  0  0
  2  1  1  0
  3  5  1  0
  4  1  1  0
  5  4  1  0
  6  3  2  0
  7  3  1  0
  8  7  2  0
  9  6  1  0
 10  9  2  0
 10  8  1  0
  1 11  1  0
  2 12  1  0
  2 13  1  0
  4 14  1  0
  4 15  1  0
  5 16  1  0
  5 17  1  0
  6 18  1  0
  7 19  1  0
  8 20  1  0
  9 21  1  0
 10 22  1  0
M  END
> <Uni-Dock RESULT> 
ENERGY=   -2.979  LOWER_BOUND=    3.682  UPPER_BOUND=    6.226
INTER + INTRA:          -2.979
INTER:                  -2.979
INTRA:                   0.000
UNBOUND:                 0.000

$$$$

     RDKit          3D

 22 22  0  0  0  0  0  0  0  0999 V2000
   46.0121    4.5706   14.4491 N   0  0  0  0  0  0  0  0  0  0  0  0
   46.0457    5.1117   13.1140 N   0  0  0  0  0  0  0  0  0  0  0  0
   48.7195    3.4710   16.8909 C   0  0  0  0  0  0  0  0  0  0  0  0
   47.3754    4.3013   14.9305 C   0  0  0  0  0  0  0  0  0  0  0  0
   47.3344    3.7648   16.3668 C   0  0  0  0  0  0  0  0  0  0  0  0
   49.4638    4.4728   17.5283 C   0  0  0  0  0  0  0  0  0  0  0  0
   49.2904    2.2025   16.7213 C   0  0  0  0  0  0  0  0  0  0  0  0
   50.5789    1.9395   17.1890 C   0  0  0  0  0  0  0  0  0  0  0  0
   50.7520    4.2076   17.9950 C   0  0  0  0  0  0  0  0  0  0  0  0
   51.3089    2.9413   17.8258 C   0  0  0  0  0  0  0  0  0  0  0  0
   45.4532    3.7119   14.4908 H   0  0  0  0  0  0  0  0  0  0  0  0
   46.4110    6.0681   13.1092 H   0  0  0  0  0  0  0  0  0  0  0  0
   46.6361    4.5718   12.4760 H   0  0  0  0  0  0  0  0  0  0  0  0
   47.9693    5.2239   14.9013 H   0  0  0  0  0  0  0  0  0  0  0  0
   47.8674    3.5705   14.2757 H   0  0  0  0  0  0  0  0  0  0  0  0
   46.8422    4.4884   17.0297 H   0  0  0  0  0  0  0  0  0  0  0  0
   46.7284    2.8505   16.4154 H   0  0  0  0  0  0  0  0  0  0  0  0
   49.0428    5.4665   17.6659 H   0  0  0  0  0  0  0  0  0  0  0  0
   48.7344    1.4102   16.2254 H   0  0  0  0  0  0  0  0  0  0  0  0
   51.0134    0.9520   17.0568 H   0  0  0  0  0  0  0  0  0  0  0  0
   51.3210    4.9894   18.4911 H   0  0  0  0  0  0  0  0  0  0  0  0
   52.3117    2.7355   18.1904 H   0  0  0  0  0  0  0  0  0  0  0  0
  2  1  1  0
  3  5  1  0
  4  1  1  0
  5  4  1  0
  6  3  2  0
  7  3  1  0
  8  7  2  0
  9  6  1  0
 10  9  2  0
 10  8  1  0
  1 11  1  0
  2 12  1  0
  2 13  1  0
  4 14  1  0
  4 15  1  0
  5 16  1  0
  5 17  1  0
  6 18  1  0
  7 19  1  0
  8 20  1  0
  9 21  1  0
 10 22  1  0
M  END
> <Uni-Dock RESULT> 
ENERGY=   -2.949  LOWER_BOUND=    7.822  UPPER_BOUND=    9.055
INTER + INTRA:          -2.949
INTER:                  -2.949
INTRA:                   0.000
UNBOUND:                 0.000

$$$$

     RDKit          3D

 22 22  0  0  0  0  0  0  0  0999 V2000
   54.8717    4.1683   10.6740 N   0  0  0  0  0  0  0  0  0  0  0  0
   55.3035    4.5323   11.9997 N   0  0  0  0  0  0  0  0  0  0  0  0
   54.1272    6.1768    7.5256 C   0  0  0  0  0  0  0  0  0  0  0  0
   54.7190    5.3661    9.8346 C   0  0  0  0  0  0  0  0  0  0  0  0
   54.2996    4.9684    8.4139 C   0  0  0  0  0  0  0  0  0  0  0  0
   55.2175    6.6951    6.8140 C   0  0  0  0  0  0  0  0  0  0  0  0
   52.8830    6.8136    7.4235 C   0  0  0  0  0  0  0  0  0  0  0  0
   52.7313    7.9427    6.6172 C   0  0  0  0  0  0  0  0  0  0  0  0
   55.0635    7.8243    6.0084 C   0  0  0  0  0  0  0  0  0  0  0  0
   53.8208    8.4474    5.9098 C   0  0  0  0  0  0  0  0  0  0  0  0
   53.9894    3.6464   10.6981 H   0  0  0  0  0  0  0  0  0  0  0  0
   56.2753    4.8545   11.9991 H   0  0  0  0  0  0  0  0  0  0  0  0
   54.7474    5.2864   12.4109 H   0  0  0  0  0  0  0  0  0  0  0  0
   55.6680    5.9164    9.7954 H   0  0  0  0  0  0  0  0  0  0  0  0
   53.9661    6.0361   10.2696 H   0  0  0  0  0  0  0  0  0  0  0  0
   55.0460    4.2963    7.9706 H   0  0  0  0  0  0  0  0  0  0  0  0
   53.3599    4.4011    8.4383 H   0  0  0  0  0  0  0  0  0  0  0  0
   56.1941    6.2205    6.8826 H   0  0  0  0  0  0  0  0  0  0  0  0
   52.0232    6.4330    7.9701 H   0  0  0  0  0  0  0  0  0  0  0  0
   51.7622    8.4288    6.5405 H   0  0  0  0  0  0  0  0  0  0  0  0
   55.9137    8.2177    5.4574 H   0  0  0  0  0  0  0  0  0  0  0  0
   53.7016    9.3260    5.2816 H   0  0  0  0  0  0  0  0  0  0  0  0
  2  1  1  0
  3  5  1  0
  4  1  1  0
  5  4  1  0
  6  3  2  0
  7  3  1  0
  8  7  2  0
  9  6  1  0
 10  9  2  0
 10  8  1  0
  1 11  1  0
  2 12  1  0
  2 13  1  0
  4 14  1  0
  4 15  1  0
  5 16  1  0
  5 17  1  0
  6 18  1  0
  7 19  1  0
  8 20  1  0
  9 21  1  0
 10 22  1  0
M  END
> <Uni-Dock RESULT> 
ENERGY=   -2.835  LOWER_BOUND=    8.724  UPPER_BOUND=    9.722
INTER + INTRA:          -2.835
INTER:                  -2.835
INTRA:                   0.000
UNBOUND:                 0.000

$$$$

     RDKit          3D

 22 22  0  0  0  0  0  0  0  0999 V2000
   48.1144    8.5018   13.3935 N   0  0  0  0  0  0  0  0  0  0  0  0
   48.1916    9.5234   14.4068 N   0  0  0  0  0  0  0  0  0  0  0  0
   45.3148    6.2130   12.1999 C   0  0  0  0  0  0  0  0  0  0  0  0
   46.7698    7.9069   13.3630 C   0  0  0  0  0  0  0  0  0  0  0  0
   46.6825    6.8498   12.2551 C   0  0  0  0  0  0  0  0  0  0  0  0
   44.2980    6.7832   11.4222 C   0  0  0  0  0  0  0  0  0  0  0  0
   45.0352    5.0612   12.9475 C   0  0  0  0  0  0  0  0  0  0  0  0
   43.7639    4.4861   12.9103 C   0  0  0  0  0  0  0  0  0  0  0  0
   43.0276    6.2066   11.3866 C   0  0  0  0  0  0  0  0  0  0  0  0
   42.7610    5.0583   12.1300 C   0  0  0  0  0  0  0  0  0  0  0  0
   48.8150    7.7689   13.5470 H   0  0  0  0  0  0  0  0  0  0  0  0
   47.6536   10.3529   14.1407 H   0  0  0  0  0  0  0  0  0  0  0  0
   47.8274    9.2191   15.3133 H   0  0  0  0  0  0  0  0  0  0  0  0
   46.0210    8.6889   13.1824 H   0  0  0  0  0  0  0  0  0  0  0  0
   46.5404    7.4471   14.3330 H   0  0  0  0  0  0  0  0  0  0  0  0
   46.9123    7.2999   11.2804 H   0  0  0  0  0  0  0  0  0  0  0  0
   47.4383    6.0691   12.4123 H   0  0  0  0  0  0  0  0  0  0  0  0
   44.4907    7.6806   10.8381 H   0  0  0  0  0  0  0  0  0  0  0  0
   45.8065    4.6032   13.5625 H   0  0  0  0  0  0  0  0  0  0  0  0
   43.5560    3.5907   13.4903 H   0  0  0  0  0  0  0  0  0  0  0  0
   42.2457    6.6536   10.7783 H   0  0  0  0  0  0  0  0  0  0  0  0
   41.7718    4.6094   12.1009 H   0  0  0  0  0  0  0  0  0  0  0  0
  2  1  1  0
  3  5  1  0
  4  1  1  0
  5  4  1  0
  6  3  2  0
  7  3  1  0
  8  7  2  0
  9  6  1  0
 10  9  2  0
 10  8  1  0
  1 11  1  0
  2 12  1  0
  2 13  1  0
  4 14  1  0
  4 15  1  0
  5 16  1  0
  5 17  1  0
  6 18  1  0
  7 19  1  0
  8 20  1  0
  9 21  1  0
 10 22  1  0
M  END
> <Uni-Dock RESULT> 
ENERGY=   -2.777  LOWER_BOUND=    5.746  UPPER_BOUND=    6.407
INTER + INTRA:          -2.777
INTER:                  -2.777
INTRA:                   0.000
UNBOUND:                 0.000

$$$$
