
     RDKit          3D

 22 22  0  0  0  0  0  0  0  0999 V2000
   45.8984    5.4385    9.9331 N   0  0  0  0  0  0  0  0  0  0  0  0
   46.1061    5.8638   11.3005 N   0  0  0  0  0  0  0  0  0  0  0  0
   45.5927    3.1620    7.8713 C   0  0  0  0  0  0  0  0  0  0  0  0
   44.7723    4.4871    9.8959 C   0  0  0  0  0  0  0  0  0  0  0  0
   44.4860    4.0022    8.4657 C   0  0  0  0  0  0  0  0  0  0  0  0
   45.7876    1.8395    8.2924 C   0  0  0  0  0  0  0  0  0  0  0  0
   46.4495    3.6994    6.9011 C   0  0  0  0  0  0  0  0  0  0  0  0
   47.4801    2.9281    6.3618 C   0  0  0  0  0  0  0  0  0  0  0  0
   46.8188    1.0699    7.7519 C   0  0  0  0  0  0  0  0  0  0  0  0
   47.6645    1.6140    6.7871 C   0  0  0  0  0  0  0  0  0  0  0  0
   46.7258    4.9458    9.5715 H   0  0  0  0  0  0  0  0  0  0  0  0
   45.3204    6.4374   11.6227 H   0  0  0  0  0  0  0  0  0  0  0  0
   46.9183    6.4854   11.3627 H   0  0  0  0  0  0  0  0  0  0  0  0
   44.9802    3.6294   10.5483 H   0  0  0  0  0  0  0  0  0  0  0  0
   43.8680    4.9809   10.2734 H   0  0  0  0  0  0  0  0  0  0  0  0
   44.2773    4.8624    7.8163 H   0  0  0  0  0  0  0  0  0  0  0  0
   43.5649    3.4050    8.4684 H   0  0  0  0  0  0  0  0  0  0  0  0
   45.1368    1.4005    9.0451 H   0  0  0  0  0  0  0  0  0  0  0  0
   46.3204    4.7251    6.5618 H   0  0  0  0  0  0  0  0  0  0  0  0
   48.1393    3.3535    5.6097 H   0  0  0  0  0  0  0  0  0  0  0  0
   46.9625    0.0451    8.0841 H   0  0  0  0  0  0  0  0  0  0  0  0
   48.4671    1.0139    6.3666 H   0  0  0  0  0  0  0  0  0  0  0  0
  2  1  1  0
  3  5  1  0
  4  1  1  0
  5  4  1  0
  6  3  2  0
  7  3  1  0
  8  7  2  0
  9  6  1  0
 10  9  2  0
 10  8  1  0
  1 11  1  0
  2 12  1  0
  2 13  1  0
  4 14  1  0
  4 15  1  0
  5 16  1  0
  5 17  1  0
  6 18  1  0
  7 19  1  0
  8 20  1  0
  9 21  1  0
 10 22  1  0
M  END
> <Uni-Dock RESULT> 
ENERGY=   -5.719  LOWER_BOUND=    0.000  UPPER_BOUND=    0.000
INTER + INTRA:          -5.719
INTER:                  -5.719
INTRA:                   0.000
UNBOUND:                 0.000

$$$$

     RDKit          3D

 22 22  0  0  0  0  0  0  0  0999 V2000
   45.4538    4.1084   10.9236 N   0  0  0  0  0  0  0  0  0  0  0  0
   45.6891    4.0776   12.3510 N   0  0  0  0  0  0  0  0  0  0  0  0
   45.5231    2.6891    8.1836 C   0  0  0  0  0  0  0  0  0  0  0  0
   44.6101    2.9565   10.5548 C   0  0  0  0  0  0  0  0  0  0  0  0
   44.3077    2.9337    9.0480 C   0  0  0  0  0  0  0  0  0  0  0  0
   46.0921    1.4110    8.0999 C   0  0  0  0  0  0  0  0  0  0  0  0
   46.1072    3.7414    7.4654 C   0  0  0  0  0  0  0  0  0  0  0  0
   47.2377    3.5186    6.6778 C   0  0  0  0  0  0  0  0  0  0  0  0
   47.2226    1.1905    7.3117 C   0  0  0  0  0  0  0  0  0  0  0  0
   47.7949    2.2438    6.6010 C   0  0  0  0  0  0  0  0  0  0  0  0
   46.3365    4.0188   10.4033 H   0  0  0  0  0  0  0  0  0  0  0  0
   44.8216    4.2651   12.8633 H   0  0  0  0  0  0  0  0  0  0  0  0
   46.3178    4.8383   12.6268 H   0  0  0  0  0  0  0  0  0  0  0  0
   45.0975    2.0197   10.8540 H   0  0  0  0  0  0  0  0  0  0  0  0
   43.6548    3.0206   11.0910 H   0  0  0  0  0  0  0  0  0  0  0  0
   43.8193    3.8715    8.7526 H   0  0  0  0  0  0  0  0  0  0  0  0
   43.5750    2.1426    8.8423 H   0  0  0  0  0  0  0  0  0  0  0  0
   45.6580    0.5787    8.6491 H   0  0  0  0  0  0  0  0  0  0  0  0
   45.6858    4.7430    7.5184 H   0  0  0  0  0  0  0  0  0  0  0  0
   47.6834    4.3408    6.1241 H   0  0  0  0  0  0  0  0  0  0  0  0
   47.6571    0.1960    7.2524 H   0  0  0  0  0  0  0  0  0  0  0  0
   48.6750    2.0710    5.9873 H   0  0  0  0  0  0  0  0  0  0  0  0
  2  1  1  0
  3  5  1  0
  4  1  1  0
  5  4  1  0
  6  3  2  0
  7  3  1  0
  8  7  2  0
  9  6  1  0
 10  9  2  0
 10  8  1  0
  1 11  1  0
  2 12  1  0
  2 13  1  0
  4 14  1  0
  4 15  1  0
  5 16  1  0
  5 17  1  0
  6 18  1  0
  7 19  1  0
  8 20  1  0
  9 21  1  0
 10 22  1  0
M  END
> <Uni-Dock RESULT> 
ENERGY=   -5.144  LOWER_BOUND=    1.189  UPPER_BOUND=    1.189
INTER + INTRA:          -5.144
INTER:                  -5.144
INTRA:                   0.000
UNBOUND:                 0.000

$$$$

     RDKit          3D

 22 22  0  0  0  0  0  0  0  0999 V2000
   45.3554    5.5845   12.0193 N   0  0  0  0  0  0  0  0  0  0  0  0
   45.7296    5.5886   13.4170 N   0  0  0  0  0  0  0  0  0  0  0  0
   44.5455    4.0189    9.4856 C   0  0  0  0  0  0  0  0  0  0  0  0
   44.0960    4.8329   11.8653 C   0  0  0  0  0  0  0  0  0  0  0  0
   43.6305    4.7994   10.4009 C   0  0  0  0  0  0  0  0  0  0  0  0
   44.5647    2.6181    9.5230 C   0  0  0  0  0  0  0  0  0  0  0  0
   45.3991    4.6867    8.5969 C   0  0  0  0  0  0  0  0  0  0  0  0
   46.2540    3.9666    7.7611 C   0  0  0  0  0  0  0  0  0  0  0  0
   45.4203    1.8999    8.6864 C   0  0  0  0  0  0  0  0  0  0  0  0
   46.2644    2.5739    7.8059 C   0  0  0  0  0  0  0  0  0  0  0  0
   46.0667    5.1076   11.4496 H   0  0  0  0  0  0  0  0  0  0  0  0
   45.0688    6.1482   13.9653 H   0  0  0  0  0  0  0  0  0  0  0  0
   46.6305    6.0595   13.5453 H   0  0  0  0  0  0  0  0  0  0  0  0
   44.2175    3.8100   12.2440 H   0  0  0  0  0  0  0  0  0  0  0  0
   43.3104    5.3166   12.4594 H   0  0  0  0  0  0  0  0  0  0  0  0
   43.5089    5.8240   10.0259 H   0  0  0  0  0  0  0  0  0  0  0  0
   42.6309    4.3480   10.3538 H   0  0  0  0  0  0  0  0  0  0  0  0
   43.9127    2.0772   10.2052 H   0  0  0  0  0  0  0  0  0  0  0  0
   45.4050    5.7738    8.5532 H   0  0  0  0  0  0  0  0  0  0  0  0
   46.9121    4.4932    7.0750 H   0  0  0  0  0  0  0  0  0  0  0  0
   45.4283    0.8137    8.7219 H   0  0  0  0  0  0  0  0  0  0  0  0
   46.9302    2.0138    7.1547 H   0  0  0  0  0  0  0  0  0  0  0  0
  2  1  1  0
  3  5  1  0
  4  1  1  0
  5  4  1  0
  6  3  2  0
  7  3  1  0
  8  7  2  0
  9  6  1  0
 10  9  2  0
 10  8  1  0
  1 11  1  0
  2 12  1  0
  2 13  1  0
  4 14  1  0
  4 15  1  0
  5 16  1  0
  5 17  1  0
  6 18  1  0
  7 19  1  0
  8 20  1  0
  9 21  1  0
 10 22  1  0
M  END
> <Uni-Dock RESULT> 
ENERGY=   -4.094  LOWER_BOUND=    1.394  UPPER_BOUND=    2.096
INTER + INTRA:          -4.094
INTER:                  -4.094
INTRA:                   0.000
UNBOUND:                 0.000

$$$$

     RDKit          3D

 22 22  0  0  0  0  0  0  0  0999 V2000
   45.9549    1.7328    8.3863 N   0  0  0  0  0  0  0  0  0  0  0  0
   47.1637    1.2674    7.7415 N   0  0  0  0  0  0  0  0  0  0  0  0
   44.4815    3.8744   10.0505 C   0  0  0  0  0  0  0  0  0  0  0  0
   45.6634    3.1016    7.9213 C   0  0  0  0  0  0  0  0  0  0  0  0
   44.3793    3.6561    8.5585 C   0  0  0  0  0  0  0  0  0  0  0  0
   45.2151    4.9526   10.5640 C   0  0  0  0  0  0  0  0  0  0  0  0
   43.8561    2.9920   10.9419 C   0  0  0  0  0  0  0  0  0  0  0  0
   43.9616    3.1856   12.3200 C   0  0  0  0  0  0  0  0  0  0  0  0
   45.3193    5.1444   11.9425 C   0  0  0  0  0  0  0  0  0  0  0  0
   44.6927    4.2613   12.8199 C   0  0  0  0  0  0  0  0  0  0  0  0
   46.0760    1.7769    9.4068 H   0  0  0  0  0  0  0  0  0  0  0  0
   47.0074    1.1320    6.7378 H   0  0  0  0  0  0  0  0  0  0  0  0
   47.4190    0.3374    8.0877 H   0  0  0  0  0  0  0  0  0  0  0  0
   46.5093    3.7646    8.1436 H   0  0  0  0  0  0  0  0  0  0  0  0
   45.5247    3.0926    6.8328 H   0  0  0  0  0  0  0  0  0  0  0  0
   43.5353    2.9913    8.3331 H   0  0  0  0  0  0  0  0  0  0  0  0
   44.1320    4.6161    8.0870 H   0  0  0  0  0  0  0  0  0  0  0  0
   45.7106    5.6501    9.8926 H   0  0  0  0  0  0  0  0  0  0  0  0
   43.2849    2.1454   10.5666 H   0  0  0  0  0  0  0  0  0  0  0  0
   43.4728    2.4962   13.0034 H   0  0  0  0  0  0  0  0  0  0  0  0
   45.8899    5.9833   12.3320 H   0  0  0  0  0  0  0  0  0  0  0  0
   44.7743    4.4116   13.8932 H   0  0  0  0  0  0  0  0  0  0  0  0
  2  1  1  0
  3  5  1  0
  4  1  1  0
  5  4  1  0
  6  3  2  0
  7  3  1  0
  8  7  2  0
  9  6  1  0
 10  9  2  0
 10  8  1  0
  1 11  1  0
  2 12  1  0
  2 13  1  0
  4 14  1  0
  4 15  1  0
  5 16  1  0
  5 17  1  0
  6 18  1  0
  7 19  1  0
  8 20  1  0
  9 21  1  0
 10 22  1  0
M  END
> <Uni-Dock RESULT> 
ENERGY=   -3.887  LOWER_BOUND=    2.595  UPPER_BOUND=    4.895
INTER + INTRA:          -3.887
INTER:                  -3.887
INTRA:                   0.000
UNBOUND:                 0.000

$$$$

     RDKit          3D

 22 22  0  0  0  0  0  0  0  0999 V2000
   42.6778    5.4966   11.7104 N   0  0  0  0  0  0  0  0  0  0  0  0
   41.6409    6.5047   11.7560 N   0  0  0  0  0  0  0  0  0  0  0  0
   45.1794    4.3115   10.3448 C   0  0  0  0  0  0  0  0  0  0  0  0
   43.9901    6.1656   11.6394 C   0  0  0  0  0  0  0  0  0  0  0  0
   45.1435    5.1503   11.6015 C   0  0  0  0  0  0  0  0  0  0  0  0
   45.6116    4.8643    9.1316 C   0  0  0  0  0  0  0  0  0  0  0  0
   44.7661    2.9726   10.3725 C   0  0  0  0  0  0  0  0  0  0  0  0
   44.7864    2.2017    9.2093 C   0  0  0  0  0  0  0  0  0  0  0  0
   45.6310    4.0916    7.9695 C   0  0  0  0  0  0  0  0  0  0  0  0
   45.2187    2.7610    8.0085 C   0  0  0  0  0  0  0  0  0  0  0  0
   42.5870    4.9134   10.8679 H   0  0  0  0  0  0  0  0  0  0  0  0
   41.6763    7.0181   12.6422 H   0  0  0  0  0  0  0  0  0  0  0  0
   40.7148    6.0664   11.7519 H   0  0  0  0  0  0  0  0  0  0  0  0
   44.0349    6.8175   10.7576 H   0  0  0  0  0  0  0  0  0  0  0  0
   44.1236    6.7967   12.5270 H   0  0  0  0  0  0  0  0  0  0  0  0
   45.0963    4.5008   12.4853 H   0  0  0  0  0  0  0  0  0  0  0  0
   46.0966    5.6889   11.6825 H   0  0  0  0  0  0  0  0  0  0  0  0
   45.9357    5.9014    9.0843 H   0  0  0  0  0  0  0  0  0  0  0  0
   44.4224    2.5230   11.3018 H   0  0  0  0  0  0  0  0  0  0  0  0
   44.4644    1.1641    9.2408 H   0  0  0  0  0  0  0  0  0  0  0  0
   45.9679    4.5284    7.0331 H   0  0  0  0  0  0  0  0  0  0  0  0
   45.2344    2.1600    7.1032 H   0  0  0  0  0  0  0  0  0  0  0  0
  2  1  1  0
  3  5  1  0
  4  1  1  0
  5  4  1  0
  6  3  2  0
  7  3  1  0
  8  7  2  0
  9  6  1  0
 10  9  2  0
 10  8  1  0
  1 11  1  0
  2 12  1  0
  2 13  1  0
  4 14  1  0
  4 15  1  0
  5 16  1  0
  5 17  1  0
  6 18  1  0
  7 19  1  0
  8 20  1  0
  9 21  1  0
 10 22  1  0
M  END
> <Uni-Dock RESULT> 
ENERGY=   -3.312  LOWER_BOUND=    2.296  UPPER_BOUND=    3.469
INTER + INTRA:          -3.312
INTER:                  -3.312
INTRA:                   0.000
UNBOUND:                 0.000

$$$$

     RDKit          3D

 22 22  0  0  0  0  0  0  0  0999 V2000
   44.3201    3.8787   10.1143 N   0  0  0  0  0  0  0  0  0  0  0  0
   44.2628    3.8632    8.6687 N   0  0  0  0  0  0  0  0  0  0  0  0
   44.9503    5.3792   12.7370 C   0  0  0  0  0  0  0  0  0  0  0  0
   43.5759    5.0522   10.6082 C   0  0  0  0  0  0  0  0  0  0  0  0
   43.5839    5.1244   12.1435 C   0  0  0  0  0  0  0  0  0  0  0  0
   45.5331    6.6516   12.6631 C   0  0  0  0  0  0  0  0  0  0  0  0
   45.6603    4.3416   13.3564 C   0  0  0  0  0  0  0  0  0  0  0  0
   46.9279    4.5732   13.8925 C   0  0  0  0  0  0  0  0  0  0  0  0
   46.8008    6.8812   13.1999 C   0  0  0  0  0  0  0  0  0  0  0  0
   47.4976    5.8425   13.8143 C   0  0  0  0  0  0  0  0  0  0  0  0
   45.2902    3.9725   10.4430 H   0  0  0  0  0  0  0  0  0  0  0  0
   43.3085    3.6717    8.3479 H   0  0  0  0  0  0  0  0  0  0  0  0
   44.8177    3.0864    8.2965 H   0  0  0  0  0  0  0  0  0  0  0  0
   43.9991    5.9730   10.1870 H   0  0  0  0  0  0  0  0  0  0  0  0
   42.5316    4.9844   10.2779 H   0  0  0  0  0  0  0  0  0  0  0  0
   43.1589    4.2025   12.5614 H   0  0  0  0  0  0  0  0  0  0  0  0
   42.9131    5.9309   12.4670 H   0  0  0  0  0  0  0  0  0  0  0  0
   45.0026    7.4725   12.1861 H   0  0  0  0  0  0  0  0  0  0  0  0
   45.2301    3.3443   13.4217 H   0  0  0  0  0  0  0  0  0  0  0  0
   47.4706    3.7624   14.3713 H   0  0  0  0  0  0  0  0  0  0  0  0
   47.2449    7.8712   13.1383 H   0  0  0  0  0  0  0  0  0  0  0  0
   48.4846    6.0222   14.2322 H   0  0  0  0  0  0  0  0  0  0  0  0
  2  1  1  0
  3  5  1  0
  4  1  1  0
  5  4  1  0
  6  3  2  0
  7  3  1  0
  8  7  2  0
  9  6  1  0
 10  9  2  0
 10  8  1  0
  1 11  1  0
  2 12  1  0
  2 13  1  0
  4 14  1  0
  4 15  1  0
  5 16  1  0
  5 17  1  0
  6 18  1  0
  7 19  1  0
  8 20  1  0
  9 21  1  0
 10 22  1  0
M  END
> <Uni-Dock RESULT> 
ENERGY=   -3.148  LOWER_BOUND=    4.442  UPPER_BOUND=    5.845
INTER + INTRA:          -3.148
INTER:                  -3.148
INTRA:                   0.000
UNBOUND:                 0.000

$$$$

     RDKit          3D

 22 22  0  0  0  0  0  0  0  0999 V2000
   52.1613    6.2666   16.3589 N   0  0  0  0  0  0  0  0  0  0  0  0
   52.9972    7.0860   15.5084 N   0  0  0  0  0  0  0  0  0  0  0  0
   51.8469    3.8380   18.2379 C   0  0  0  0  0  0  0  0  0  0  0  0
   52.8045    6.1401   17.6799 C   0  0  0  0  0  0  0  0  0  0  0  0
   51.9608    5.2896   18.6429 C   0  0  0  0  0  0  0  0  0  0  0  0
   52.9318    2.9658   18.4006 C   0  0  0  0  0  0  0  0  0  0  0  0
   50.6586    3.3477   17.6794 C   0  0  0  0  0  0  0  0  0  0  0  0
   50.5576    2.0105   17.2927 C   0  0  0  0  0  0  0  0  0  0  0  0
   52.8287    1.6290   18.0133 C   0  0  0  0  0  0  0  0  0  0  0  0
   51.6421    1.1517   17.4597 C   0  0  0  0  0  0  0  0  0  0  0  0
   52.0644    5.3172   15.9749 H   0  0  0  0  0  0  0  0  0  0  0  0
   53.0107    8.0548   15.8422 H   0  0  0  0  0  0  0  0  0  0  0  0
   52.5993    7.1462   14.5661 H   0  0  0  0  0  0  0  0  0  0  0  0
   53.8057    5.7036   17.5727 H   0  0  0  0  0  0  0  0  0  0  0  0
   52.9218    7.1372   18.1228 H   0  0  0  0  0  0  0  0  0  0  0  0
   50.9606    5.7297   18.7487 H   0  0  0  0  0  0  0  0  0  0  0  0
   52.4088    5.3328   19.6441 H   0  0  0  0  0  0  0  0  0  0  0  0
   53.8649    3.3230   18.8302 H   0  0  0  0  0  0  0  0  0  0  0  0
   49.8046    4.0071   17.5393 H   0  0  0  0  0  0  0  0  0  0  0  0
   49.6319    1.6393   16.8609 H   0  0  0  0  0  0  0  0  0  0  0  0
   53.6750    0.9596   18.1434 H   0  0  0  0  0  0  0  0  0  0  0  0
   51.5628    0.1105   17.1586 H   0  0  0  0  0  0  0  0  0  0  0  0
  2  1  1  0
  3  5  1  0
  4  1  1  0
  5  4  1  0
  6  3  2  0
  7  3  1  0
  8  7  2  0
  9  6  1  0
 10  9  2  0
 10  8  1  0
  1 11  1  0
  2 12  1  0
  2 13  1  0
  4 14  1  0
  4 15  1  0
  5 16  1  0
  5 17  1  0
  6 18  1  0
  7 19  1  0
  8 20  1  0
  9 21  1  0
 10 22  1  0
M  END
> <Uni-Dock RESULT> 
ENERGY=   -2.798  LOWER_BOUND=   10.452  UPPER_BOUND=   11.286
INTER + INTRA:          -2.798
INTER:                  -2.798
INTRA:                   0.000
UNBOUND:                 0.000

$$$$

     RDKit          3D

 22 22  0  0  0  0  0  0  0  0999 V2000
   43.7607    5.9441   12.6964 N   0  0  0  0  0  0  0  0  0  0  0  0
   42.7997    4.9813   13.1892 N   0  0  0  0  0  0  0  0  0  0  0  0
   46.6884    6.8844   12.4290 C   0  0  0  0  0  0  0  0  0  0  0  0
   44.8044    5.2301   11.9377 C   0  0  0  0  0  0  0  0  0  0  0  0
   45.8561    6.1972   11.3711 C   0  0  0  0  0  0  0  0  0  0  0  0
   47.6880    6.1824   13.1162 C   0  0  0  0  0  0  0  0  0  0  0  0
   46.4613    8.2301   12.7481 C   0  0  0  0  0  0  0  0  0  0  0  0
   47.2206    8.8612   13.7345 C   0  0  0  0  0  0  0  0  0  0  0  0
   48.4462    6.8155   14.1022 C   0  0  0  0  0  0  0  0  0  0  0  0
   48.2126    8.1542   14.4111 C   0  0  0  0  0  0  0  0  0  0  0  0
   44.2273    6.4292   13.4742 H   0  0  0  0  0  0  0  0  0  0  0  0
   42.2693    4.5722   12.4136 H   0  0  0  0  0  0  0  0  0  0  0  0
   42.0913    5.4454   13.7660 H   0  0  0  0  0  0  0  0  0  0  0  0
   45.2892    4.4800   12.5755 H   0  0  0  0  0  0  0  0  0  0  0  0
   44.3418    4.7011   11.0948 H   0  0  0  0  0  0  0  0  0  0  0  0
   45.3680    6.9451   10.7327 H   0  0  0  0  0  0  0  0  0  0  0  0
   46.5328    5.6415   10.7089 H   0  0  0  0  0  0  0  0  0  0  0  0
   47.8821    5.1370   12.8875 H   0  0  0  0  0  0  0  0  0  0  0  0
   45.6877    8.7941   12.2311 H   0  0  0  0  0  0  0  0  0  0  0  0
   47.0374    9.9052   13.9748 H   0  0  0  0  0  0  0  0  0  0  0  0
   49.2196    6.2635   14.6299 H   0  0  0  0  0  0  0  0  0  0  0  0
   48.8036    8.6463   15.1789 H   0  0  0  0  0  0  0  0  0  0  0  0
  2  1  1  0
  3  5  1  0
  4  1  1  0
  5  4  1  0
  6  3  2  0
  7  3  1  0
  8  7  2  0
  9  6  1  0
 10  9  2  0
 10  8  1  0
  1 11  1  0
  2 12  1  0
  2 13  1  0
  4 14  1  0
  4 15  1  0
  5 16  1  0
  5 17  1  0
  6 18  1  0
  7 19  1  0
  8 20  1  0
  9 21  1  0
 10 22  1  0
M  END
> <Uni-Dock RESULT> 
ENERGY=   -2.764  LOWER_BOUND=    4.844  UPPER_BOUND=    6.713
INTER + INTRA:          -2.764
INTER:                  -2.764
INTRA:                   0.000
UNBOUND:                 0.000

$$$$

     RDKit          3D

 22 22  0  0  0  0  0  0  0  0999 V2000
   54.1982    5.5174   10.3183 N   0  0  0  0  0  0  0  0  0  0  0  0
   54.9368    5.5302   11.5624 N   0  0  0  0  0  0  0  0  0  0  0  0
   54.0724    6.1094    7.2916 C   0  0  0  0  0  0  0  0  0  0  0  0
   55.0013    4.8235    9.2944 C   0  0  0  0  0  0  0  0  0  0  0  0
   54.2687    4.7607    7.9447 C   0  0  0  0  0  0  0  0  0  0  0  0
   55.1499    6.7723    6.6884 C   0  0  0  0  0  0  0  0  0  0  0  0
   52.8123    6.7230    7.2938 C   0  0  0  0  0  0  0  0  0  0  0  0
   52.6338    7.9746    6.7027 C   0  0  0  0  0  0  0  0  0  0  0  0
   54.9692    8.0239    6.0978 C   0  0  0  0  0  0  0  0  0  0  0  0
   53.7117    8.6246    6.1049 C   0  0  0  0  0  0  0  0  0  0  0  0
   54.0325    6.4742    9.9790 H   0  0  0  0  0  0  0  0  0  0  0  0
   55.0138    4.5828   11.9454 H   0  0  0  0  0  0  0  0  0  0  0  0
   54.4236    6.0539   12.2782 H   0  0  0  0  0  0  0  0  0  0  0  0
   55.9710    5.3227    9.1722 H   0  0  0  0  0  0  0  0  0  0  0  0
   55.1958    3.7945    9.6223 H   0  0  0  0  0  0  0  0  0  0  0  0
   53.2999    4.2598    8.0704 H   0  0  0  0  0  0  0  0  0  0  0  0
   54.8413    4.1257    7.2563 H   0  0  0  0  0  0  0  0  0  0  0  0
   56.1377    6.3174    6.6752 H   0  0  0  0  0  0  0  0  0  0  0  0
   51.9620    6.2296    7.7600 H   0  0  0  0  0  0  0  0  0  0  0  0
   51.6527    8.4423    6.7091 H   0  0  0  0  0  0  0  0  0  0  0  0
   55.8103    8.5306    5.6320 H   0  0  0  0  0  0  0  0  0  0  0  0
   53.5719    9.5991    5.6447 H   0  0  0  0  0  0  0  0  0  0  0  0
  2  1  1  0
  3  5  1  0
  4  1  1  0
  5  4  1  0
  6  3  2  0
  7  3  1  0
  8  7  2  0
  9  6  1  0
 10  9  2  0
 10  8  1  0
  1 11  1  0
  2 12  1  0
  2 13  1  0
  4 14  1  0
  4 15  1  0
  5 16  1  0
  5 17  1  0
  6 18  1  0
  7 19  1  0
  8 20  1  0
  9 21  1  0
 10 22  1  0
M  END
> <Uni-Dock RESULT> 
ENERGY=   -2.749  LOWER_BOUND=    8.024  UPPER_BOUND=    9.219
INTER + INTRA:          -2.749
INTER:                  -2.749
INTRA:                   0.000
UNBOUND:                 0.000

$$$$
