
     RDKit          3D

 22 22  0  0  0  0  0  0  0  0999 V2000
   44.9472    3.1302   11.0841 N   0  0  0  0  0  0  0  0  0  0  0  0
   43.6173    2.6683   11.4021 N   0  0  0  0  0  0  0  0  0  0  0  0
   45.6513    3.0406    7.9666 C   0  0  0  0  0  0  0  0  0  0  0  0
   44.8757    4.2185   10.0933 C   0  0  0  0  0  0  0  0  0  0  0  0
   44.5202    3.7548    8.6706 C   0  0  0  0  0  0  0  0  0  0  0  0
   45.8643    1.6721    8.1767 C   0  0  0  0  0  0  0  0  0  0  0  0
   46.5117    3.7373    7.1070 C   0  0  0  0  0  0  0  0  0  0  0  0
   47.5589    3.0743    6.4644 C   0  0  0  0  0  0  0  0  0  0  0  0
   46.9119    1.0106    7.5345 C   0  0  0  0  0  0  0  0  0  0  0  0
   47.7583    1.7114    6.6776 C   0  0  0  0  0  0  0  0  0  0  0  0
   45.4550    3.4644   11.9090 H   0  0  0  0  0  0  0  0  0  0  0  0
   43.1303    3.2937   12.0492 H   0  0  0  0  0  0  0  0  0  0  0  0
   43.6493    1.7530   11.8598 H   0  0  0  0  0  0  0  0  0  0  0  0
   44.1503    4.9726   10.4255 H   0  0  0  0  0  0  0  0  0  0  0  0
   45.8513    4.7201   10.0727 H   0  0  0  0  0  0  0  0  0  0  0  0
   43.6262    3.1186    8.6698 H   0  0  0  0  0  0  0  0  0  0  0  0
   44.2437    4.6376    8.0788 H   0  0  0  0  0  0  0  0  0  0  0  0
   45.2139    1.1197    8.8523 H   0  0  0  0  0  0  0  0  0  0  0  0
   46.3704    4.8008    6.9311 H   0  0  0  0  0  0  0  0  0  0  0  0
   48.2196    3.6216    5.7977 H   0  0  0  0  0  0  0  0  0  0  0  0
   47.0675   -0.0508    7.7070 H   0  0  0  0  0  0  0  0  0  0  0  0
   48.5739    1.1958    6.1781 H   0  0  0  0  0  0  0  0  0  0  0  0
  2  1  1  0
  3  5  1  0
  4  1  1  0
  5  4  1  0
  6  3  2  0
  7  3  1  0
  8  7  2  0
  9  6  1  0
 10  9  2  0
 10  8  1  0
  1 11  1  0
  2 12  1  0
  2 13  1  0
  4 14  1  0
  4 15  1  0
  5 16  1  0
  5 17  1  0
  6 18  1  0
  7 19  1  0
  8 20  1  0
  9 21  1  0
 10 22  1  0
M  END
> <Uni-Dock RESULT> 
ENERGY=   -6.039  LOWER_BOUND=    0.000  UPPER_BOUND=    0.000
INTER + INTRA:          -6.039
INTER:                  -6.039
INTRA:                   0.000
UNBOUND:                 0.000

$$$$

     RDKit          3D

 22 22  0  0  0  0  0  0  0  0999 V2000
   48.3343    2.4140    6.7140 N   0  0  0  0  0  0  0  0  0  0  0  0
   48.2845    2.6150    5.2856 N   0  0  0  0  0  0  0  0  0  0  0  0
   45.5253    2.8118    8.1883 C   0  0  0  0  0  0  0  0  0  0  0  0
   47.3504    1.3912    7.1102 C   0  0  0  0  0  0  0  0  0  0  0  0
   45.8893    1.8691    7.0642 C   0  0  0  0  0  0  0  0  0  0  0  0
   45.7988    4.1815    8.0805 C   0  0  0  0  0  0  0  0  0  0  0  0
   44.9242    2.3298    9.3592 C   0  0  0  0  0  0  0  0  0  0  0  0
   44.5960    3.2039   10.3973 C   0  0  0  0  0  0  0  0  0  0  0  0
   45.4712    5.0541    9.1191 C   0  0  0  0  0  0  0  0  0  0  0  0
   44.8687    4.5654   10.2768 C   0  0  0  0  0  0  0  0  0  0  0  0
   49.2626    2.1258    7.0383 H   0  0  0  0  0  0  0  0  0  0  0  0
   48.7692    1.8762    4.7695 H   0  0  0  0  0  0  0  0  0  0  0  0
   48.7429    3.4927    5.0250 H   0  0  0  0  0  0  0  0  0  0  0  0
   47.4662    0.5028    6.4757 H   0  0  0  0  0  0  0  0  0  0  0  0
   47.5901    1.0711    8.1320 H   0  0  0  0  0  0  0  0  0  0  0  0
   45.6526    2.3370    6.1003 H   0  0  0  0  0  0  0  0  0  0  0  0
   45.2361    0.9884    7.1228 H   0  0  0  0  0  0  0  0  0  0  0  0
   46.2783    4.5695    7.1838 H   0  0  0  0  0  0  0  0  0  0  0  0
   44.7060    1.2705    9.4693 H   0  0  0  0  0  0  0  0  0  0  0  0
   44.1279    2.8220   11.3004 H   0  0  0  0  0  0  0  0  0  0  0  0
   45.6898    6.1140    9.0238 H   0  0  0  0  0  0  0  0  0  0  0  0
   44.6141    5.2453   11.0852 H   0  0  0  0  0  0  0  0  0  0  0  0
  2  1  1  0
  3  5  1  0
  4  1  1  0
  5  4  1  0
  6  3  2  0
  7  3  1  0
  8  7  2  0
  9  6  1  0
 10  9  2  0
 10  8  1  0
  1 11  1  0
  2 12  1  0
  2 13  1  0
  4 14  1  0
  4 15  1  0
  5 16  1  0
  5 17  1  0
  6 18  1  0
  7 19  1  0
  8 20  1  0
  9 21  1  0
 10 22  1  0
M  END
> <Uni-Dock RESULT> 
ENERGY=   -4.066  LOWER_BOUND=    2.921  UPPER_BOUND=    4.604
INTER + INTRA:          -4.066
INTER:                  -4.066
INTRA:                   0.000
UNBOUND:                 0.000

$$$$

     RDKit          3D

 22 22  0  0  0  0  0  0  0  0999 V2000
   43.1015    6.9564   10.9166 N   0  0  0  0  0  0  0  0  0  0  0  0
   43.8395    8.0080   11.5742 N   0  0  0  0  0  0  0  0  0  0  0  0
   44.7610    4.2544   10.5070 C   0  0  0  0  0  0  0  0  0  0  0  0
   43.1054    5.7434   11.7533 C   0  0  0  0  0  0  0  0  0  0  0  0
   44.4524    5.0019   11.7840 C   0  0  0  0  0  0  0  0  0  0  0  0
   45.3448    4.9191    9.4207 C   0  0  0  0  0  0  0  0  0  0  0  0
   44.4549    2.8921   10.3841 C   0  0  0  0  0  0  0  0  0  0  0  0
   44.7359    2.2079    9.1999 C   0  0  0  0  0  0  0  0  0  0  0  0
   45.6244    4.2344    8.2373 C   0  0  0  0  0  0  0  0  0  0  0  0
   45.3211    2.8788    8.1275 C   0  0  0  0  0  0  0  0  0  0  0  0
   42.1314    7.2210   10.7192 H   0  0  0  0  0  0  0  0  0  0  0  0
   43.3001    8.4582   12.3181 H   0  0  0  0  0  0  0  0  0  0  0  0
   44.0858    8.7491   10.9120 H   0  0  0  0  0  0  0  0  0  0  0  0
   42.8046    6.0008   12.7772 H   0  0  0  0  0  0  0  0  0  0  0  0
   42.3328    5.0660   11.3682 H   0  0  0  0  0  0  0  0  0  0  0  0
   45.2785    5.6845   12.0197 H   0  0  0  0  0  0  0  0  0  0  0  0
   44.4311    4.2817   12.6128 H   0  0  0  0  0  0  0  0  0  0  0  0
   45.5754    5.9801    9.4950 H   0  0  0  0  0  0  0  0  0  0  0  0
   43.9972    2.3547   11.2109 H   0  0  0  0  0  0  0  0  0  0  0  0
   44.4976    1.1513    9.1142 H   0  0  0  0  0  0  0  0  0  0  0  0
   46.0759    4.7618    7.4016 H   0  0  0  0  0  0  0  0  0  0  0  0
   45.5388    2.3464    7.2057 H   0  0  0  0  0  0  0  0  0  0  0  0
  2  1  1  0
  3  5  1  0
  4  1  1  0
  5  4  1  0
  6  3  2  0
  7  3  1  0
  8  7  2  0
  9  6  1  0
 10  9  2  0
 10  8  1  0
  1 11  1  0
  2 12  1  0
  2 13  1  0
  4 14  1  0
  4 15  1  0
  5 16  1  0
  5 17  1  0
  6 18  1  0
  7 19  1  0
  8 20  1  0
  9 21  1  0
 10 22  1  0
M  END
> <Uni-Dock RESULT> 
ENERGY=   -3.874  LOWER_BOUND=    2.581  UPPER_BOUND=    3.756
INTER + INTRA:          -3.874
INTER:                  -3.874
INTRA:                   0.000
UNBOUND:                 0.000

$$$$

     RDKit          3D

 22 22  0  0  0  0  0  0  0  0999 V2000
   47.2086    3.1631    7.2758 N   0  0  0  0  0  0  0  0  0  0  0  0
   46.8773    3.5882    5.9368 N   0  0  0  0  0  0  0  0  0  0  0  0
   44.8883    3.6645    9.4176 C   0  0  0  0  0  0  0  0  0  0  0  0
   46.1905    2.2181    7.7673 C   0  0  0  0  0  0  0  0  0  0  0  0
   44.8465    2.8709    8.1318 C   0  0  0  0  0  0  0  0  0  0  0  0
   45.3390    4.9909    9.4168 C   0  0  0  0  0  0  0  0  0  0  0  0
   44.4926    3.0829   10.6300 C   0  0  0  0  0  0  0  0  0  0  0  0
   44.5395    3.8183   11.8159 C   0  0  0  0  0  0  0  0  0  0  0  0
   45.3863    5.7247   10.6029 C   0  0  0  0  0  0  0  0  0  0  0  0
   44.9854    5.1388   11.8020 C   0  0  0  0  0  0  0  0  0  0  0  0
   48.1297    2.7176    7.3302 H   0  0  0  0  0  0  0  0  0  0  0  0
   47.1169    2.8853    5.2328 H   0  0  0  0  0  0  0  0  0  0  0  0
   47.3967    4.4336    5.6841 H   0  0  0  0  0  0  0  0  0  0  0  0
   46.0255    1.4317    7.0192 H   0  0  0  0  0  0  0  0  0  0  0  0
   46.5968    1.7164    8.6545 H   0  0  0  0  0  0  0  0  0  0  0  0
   44.4785    3.5081    7.3179 H   0  0  0  0  0  0  0  0  0  0  0  0
   44.0945    2.0775    8.2364 H   0  0  0  0  0  0  0  0  0  0  0  0
   45.6634    5.4526    8.4861 H   0  0  0  0  0  0  0  0  0  0  0  0
   44.1435    2.0537   10.6579 H   0  0  0  0  0  0  0  0  0  0  0  0
   44.2285    3.3603   12.7508 H   0  0  0  0  0  0  0  0  0  0  0  0
   45.7392    6.7522   10.5892 H   0  0  0  0  0  0  0  0  0  0  0  0
   45.0227    5.7105   12.7252 H   0  0  0  0  0  0  0  0  0  0  0  0
  2  1  1  0
  3  5  1  0
  4  1  1  0
  5  4  1  0
  6  3  2  0
  7  3  1  0
  8  7  2  0
  9  6  1  0
 10  9  2  0
 10  8  1  0
  1 11  1  0
  2 12  1  0
  2 13  1  0
  4 14  1  0
  4 15  1  0
  5 16  1  0
  5 17  1  0
  6 18  1  0
  7 19  1  0
  8 20  1  0
  9 21  1  0
 10 22  1  0
M  END
> <Uni-Dock RESULT> 
ENERGY=   -3.483  LOWER_BOUND=    2.562  UPPER_BOUND=    4.734
INTER + INTRA:          -3.483
INTER:                  -3.483
INTRA:                   0.000
UNBOUND:                 0.000

$$$$

     RDKit          3D

 22 22  0  0  0  0  0  0  0  0999 V2000
   43.2317    4.5198   13.1550 N   0  0  0  0  0  0  0  0  0  0  0  0
   43.6263    3.2338   12.6319 N   0  0  0  0  0  0  0  0  0  0  0  0
   44.6216    7.0047   11.7004 C   0  0  0  0  0  0  0  0  0  0  0  0
   42.7036    5.3620   12.0673 C   0  0  0  0  0  0  0  0  0  0  0  0
   43.7778    5.8999   11.1069 C   0  0  0  0  0  0  0  0  0  0  0  0
   45.7311    6.6974   12.4986 C   0  0  0  0  0  0  0  0  0  0  0  0
   44.2994    8.3500   11.4750 C   0  0  0  0  0  0  0  0  0  0  0  0
   45.0782    9.3667   12.0310 C   0  0  0  0  0  0  0  0  0  0  0  0
   46.5083    7.7144   13.0545 C   0  0  0  0  0  0  0  0  0  0  0  0
   46.1826    9.0488   12.8197 C   0  0  0  0  0  0  0  0  0  0  0  0
   42.5227    4.4441   13.8910 H   0  0  0  0  0  0  0  0  0  0  0  0
   42.8275    2.6146   12.4721 H   0  0  0  0  0  0  0  0  0  0  0  0
   44.2387    2.7449   13.2910 H   0  0  0  0  0  0  0  0  0  0  0  0
   41.9508    4.8007   11.4986 H   0  0  0  0  0  0  0  0  0  0  0  0
   42.1749    6.2086   12.5230 H   0  0  0  0  0  0  0  0  0  0  0  0
   44.4285    5.0942   10.7442 H   0  0  0  0  0  0  0  0  0  0  0  0
   43.2761    6.2880   10.2104 H   0  0  0  0  0  0  0  0  0  0  0  0
   45.9862    5.6578   12.6950 H   0  0  0  0  0  0  0  0  0  0  0  0
   43.4406    8.6146   10.8631 H   0  0  0  0  0  0  0  0  0  0  0  0
   44.8227   10.4070   11.8490 H   0  0  0  0  0  0  0  0  0  0  0  0
   47.3654    7.4630   13.6730 H   0  0  0  0  0  0  0  0  0  0  0  0
   46.7879    9.8402   13.2531 H   0  0  0  0  0  0  0  0  0  0  0  0
  2  1  1  0
  3  5  1  0
  4  1  1  0
  5  4  1  0
  6  3  2  0
  7  3  1  0
  8  7  2  0
  9  6  1  0
 10  9  2  0
 10  8  1  0
  1 11  1  0
  2 12  1  0
  2 13  1  0
  4 14  1  0
  4 15  1  0
  5 16  1  0
  5 17  1  0
  6 18  1  0
  7 19  1  0
  8 20  1  0
  9 21  1  0
 10 22  1  0
M  END
> <Uni-Dock RESULT> 
ENERGY=   -3.442  LOWER_BOUND=    4.960  UPPER_BOUND=    6.311
INTER + INTRA:          -3.442
INTER:                  -3.442
INTRA:                   0.000
UNBOUND:                 0.000

$$$$

     RDKit          3D

 22 22  0  0  0  0  0  0  0  0999 V2000
   40.2238    9.9299   11.6069 N   0  0  0  0  0  0  0  0  0  0  0  0
   41.1806   10.3151   10.5973 N   0  0  0  0  0  0  0  0  0  0  0  0
   38.9993   12.3836   13.2507 C   0  0  0  0  0  0  0  0  0  0  0  0
   38.9516   10.6403   11.3879 C   0  0  0  0  0  0  0  0  0  0  0  0
   38.9892   12.1321   11.7603 C   0  0  0  0  0  0  0  0  0  0  0  0
   40.2029   12.3489   13.9666 C   0  0  0  0  0  0  0  0  0  0  0  0
   37.8064   12.6396   13.9407 C   0  0  0  0  0  0  0  0  0  0  0  0
   37.8205   12.8647   15.3186 C   0  0  0  0  0  0  0  0  0  0  0  0
   40.2158   12.5731   15.3439 C   0  0  0  0  0  0  0  0  0  0  0  0
   39.0248   12.8322   16.0195 C   0  0  0  0  0  0  0  0  0  0  0  0
   40.0444    8.9210   11.6140 H   0  0  0  0  0  0  0  0  0  0  0  0
   41.0150    9.8471    9.7025 H   0  0  0  0  0  0  0  0  0  0  0  0
   42.1312   10.0608   10.8804 H   0  0  0  0  0  0  0  0  0  0  0  0
   38.6441   10.5313   10.3397 H   0  0  0  0  0  0  0  0  0  0  0  0
   38.1796   10.1413   11.9870 H   0  0  0  0  0  0  0  0  0  0  0  0
   39.8449   12.6380   11.2958 H   0  0  0  0  0  0  0  0  0  0  0  0
   38.1024   12.6174   11.3311 H   0  0  0  0  0  0  0  0  0  0  0  0
   41.1361   12.1372   13.4480 H   0  0  0  0  0  0  0  0  0  0  0  0
   36.8587   12.6672   13.4088 H   0  0  0  0  0  0  0  0  0  0  0  0
   36.8914   13.0649   15.8451 H   0  0  0  0  0  0  0  0  0  0  0  0
   41.1557   12.5420   15.8879 H   0  0  0  0  0  0  0  0  0  0  0  0
   39.0354   13.0065   17.0919 H   0  0  0  0  0  0  0  0  0  0  0  0
  2  1  1  0
  3  5  1  0
  4  1  1  0
  5  4  1  0
  6  3  2  0
  7  3  1  0
  8  7  2  0
  9  6  1  0
 10  9  2  0
 10  8  1  0
  1 11  1  0
  2 12  1  0
  2 13  1  0
  4 14  1  0
  4 15  1  0
  5 16  1  0
  5 17  1  0
  6 18  1  0
  7 19  1  0
  8 20  1  0
  9 21  1  0
 10 22  1  0
M  END
> <Uni-Dock RESULT> 
ENERGY=   -3.271  LOWER_BOUND=   10.845  UPPER_BOUND=   12.879
INTER + INTRA:          -3.271
INTER:                  -3.271
INTRA:                   0.000
UNBOUND:                 0.000

$$$$
