
     RDKit          3D

 54 55  0  0  0  0  0  0  0  0999 V2000
   -0.3905   -1.1425    0.2752 N   0  0  0  0  0  0  0  0  0  0  0  0
   -1.1760   -0.0532   -0.0128 C   0  0  0  0  0  0  0  0  0  0  0  0
    1.5182    0.2739   -0.0427 N   0  0  0  0  0  0  0  0  0  0  0  0
    0.9995   -1.0019    0.2708 C   0  0  0  0  0  0  0  0  0  0  0  0
   -0.6334    1.1581   -0.3040 C   0  0  0  0  0  0  0  0  0  0  0  0
    0.7605    1.4096   -0.3387 C   0  0  0  0  0  0  0  0  0  0  0  0
   -2.5370   -0.0166   -0.0485 N   0  0  0  0  0  0  0  0  0  0  0  0
   -1.6924    1.9869   -0.5310 N   0  0  0  0  0  0  0  0  0  0  0  0
   -2.8243    1.2309   -0.3648 C   0  0  0  0  0  0  0  0  0  0  0  0
    1.7518   -1.9461    0.5293 O   0  0  0  0  0  0  0  0  0  0  0  0
    1.2193    2.5160   -0.6027 O   0  0  0  0  0  0  0  0  0  0  0  0
   -1.0041   -2.4205    0.5861 C   0  0  0  0  0  0  0  0  0  0  0  0
    2.9624    0.3976   -0.0423 C   0  0  0  0  0  0  0  0  0  0  0  0
    0.5131   -1.1176   -0.1447 N   0  0  0  0  0  0  0  0  0  0  0  0
    1.1714    0.0860   -0.0787 C   0  0  0  0  0  0  0  0  0  0  0  0
   -1.5350    0.1002    0.1242 N   0  0  0  0  0  0  0  0  0  0  0  0
   -0.8801   -1.1400   -0.0436 C   0  0  0  0  0  0  0  0  0  0  0  0
    0.5000    1.2563    0.0828 C   0  0  0  0  0  0  0  0  0  0  0  0
   -0.9094    1.3472    0.1965 C   0  0  0  0  0  0  0  0  0  0  0  0
    2.5163    0.2847   -0.1598 N   0  0  0  0  0  0  0  0  0  0  0  0
    1.4581    2.2266    0.1038 N   0  0  0  0  0  0  0  0  0  0  0  0
    2.6634    1.5903   -0.0465 C   0  0  0  0  0  0  0  0  0  0  0  0
   -1.5216   -2.1935   -0.0976 O   0  0  0  0  0  0  0  0  0  0  0  0
   -1.4862    2.4198    0.3419 O   0  0  0  0  0  0  0  0  0  0  0  0
    1.2624   -2.3486   -0.3173 C   0  0  0  0  0  0  0  0  0  0  0  0
   -2.9802    0.0542    0.2266 C   0  0  0  0  0  0  0  0  0  0  0  0
    1.8613   -0.2072    0.2837 N   0  0  0  0  0  0  0  0  0  0  0  0
   -1.8613    0.2070   -0.2840 N   0  0  0  0  0  0  0  0  0  0  0  0
   -0.4476    0.5749   -0.2486 C   0  0  0  0  0  0  0  0  0  0  0  0
    0.4475   -0.5748    0.2490 C   0  0  0  0  0  0  0  0  0  0  0  0
   -1.6443    2.9683   -0.7741 H   0  0  0  0  0  0  0  0  0  0  0  0
   -3.8183    1.6419   -0.4863 H   0  0  0  0  0  0  0  0  0  0  0  0
   -1.6301   -2.3084    1.4768 H   0  0  0  0  0  0  0  0  0  0  0  0
   -0.2572   -3.1948    0.7794 H   0  0  0  0  0  0  0  0  0  0  0  0
   -1.6226   -2.7357   -0.2603 H   0  0  0  0  0  0  0  0  0  0  0  0
    3.3380    0.1592    0.9582 H   0  0  0  0  0  0  0  0  0  0  0  0
    3.2974    1.4007   -0.3173 H   0  0  0  0  0  0  0  0  0  0  0  0
    3.3832   -0.3237   -0.7505 H   0  0  0  0  0  0  0  0  0  0  0  0
    1.3022    3.2210    0.2099 H   0  0  0  0  0  0  0  0  0  0  0  0
    3.6032    2.1270   -0.0655 H   0  0  0  0  0  0  0  0  0  0  0  0
    1.9553   -2.4655    0.5220 H   0  0  0  0  0  0  0  0  0  0  0  0
    1.8264   -2.2954   -1.2540 H   0  0  0  0  0  0  0  0  0  0  0  0
    0.6075   -3.2229   -0.3534 H   0  0  0  0  0  0  0  0  0  0  0  0
   -3.3867   -0.3944   -0.6857 H   0  0  0  0  0  0  0  0  0  0  0  0
   -3.2572   -0.5791    1.0759 H   0  0  0  0  0  0  0  0  0  0  0  0
   -3.4229    1.0439    0.3631 H   0  0  0  0  0  0  0  0  0  0  0  0
    2.1615    0.0819   -0.6472 H   0  0  0  0  0  0  0  0  0  0  0  0
    1.9870    0.6089    0.8824 H   0  0  0  0  0  0  0  0  0  0  0  0
   -2.1618   -0.0828    0.6465 H   0  0  0  0  0  0  0  0  0  0  0  0
   -1.9865   -0.6086   -0.8834 H   0  0  0  0  0  0  0  0  0  0  0  0
   -0.3299    1.4487    0.4023 H   0  0  0  0  0  0  0  0  0  0  0  0
   -0.1401    0.8790   -1.2555 H   0  0  0  0  0  0  0  0  0  0  0  0
    0.3294   -1.4488   -0.4015 H   0  0  0  0  0  0  0  0  0  0  0  0
    0.1404   -0.8785    1.2562 H   0  0  0  0  0  0  0  0  0  0  0  0
  2  1  1  0
  3  4  1  0
  4  1  1  0
  5  2  2  0
  6  3  1  0
  7  2  1  0
  8  5  1  0
  9  7  2  0
 10  4  2  0
 11  6  2  0
 12  1  1  0
 13  3  1  0
  5  6  1  0
  8  9  1  0
 15 14  1  0
 16 17  1  0
 17 14  1  0
 18 15  2  0
 19 16  1  0
 20 15  1  0
 21 18  1  0
 22 20  2  0
 23 17  2  0
 24 19  2  0
 25 14  1  0
 26 16  1  0
 18 19  1  0
 21 22  1  0
 28 29  1  0
 29 30  1  0
 30 27  1  0
  8 31  1  0
  9 32  1  0
 12 33  1  0
 12 34  1  0
 12 35  1  0
 13 36  1  0
 13 37  1  0
 13 38  1  0
 21 39  1  0
 22 40  1  0
 25 41  1  0
 25 42  1  0
 25 43  1  0
 26 44  1  0
 26 45  1  0
 26 46  1  0
 27 47  1  0
 27 48  1  0
 28 49  1  0
 28 50  1  0
 29 51  1  0
 29 52  1  0
 30 53  1  0
 30 54  1  0
M  END
$$$$
