
     RDKit          3D

 54 55  0  0  0  0  0  0  0  0999 V2000
   -0.6851   -1.0257    0.1175 N   0  0  0  0  0  0  0  0  0  0  0  0
   -1.1424    0.2692    0.0940 C   0  0  0  0  0  0  0  0  0  0  0  0
    1.5270   -0.1457   -0.1697 N   0  0  0  0  0  0  0  0  0  0  0  0
    0.6857   -1.2678   -0.0023 C   0  0  0  0  0  0  0  0  0  0  0  0
   -0.2935    1.3210   -0.0470 C   0  0  0  0  0  0  0  0  0  0  0  0
    1.1107    1.1879   -0.1817 C   0  0  0  0  0  0  0  0  0  0  0  0
   -2.4364    0.6788    0.2065 N   0  0  0  0  0  0  0  0  0  0  0  0
   -1.0828    2.4328   -0.0217 N   0  0  0  0  0  0  0  0  0  0  0  0
   -2.3728    1.9938    0.1325 C   0  0  0  0  0  0  0  0  0  0  0  0
    1.1523   -2.4101    0.0374 O   0  0  0  0  0  0  0  0  0  0  0  0
    1.8527    2.1585   -0.2899 O   0  0  0  0  0  0  0  0  0  0  0  0
   -1.6181   -2.1242    0.2890 C   0  0  0  0  0  0  0  0  0  0  0  0
    2.9456   -0.4171   -0.2930 C   0  0  0  0  0  0  0  0  0  0  0  0
   -0.6610   -1.0366    0.1487 N   0  0  0  0  0  0  0  0  0  0  0  0
   -1.1239    0.1749   -0.3039 C   0  0  0  0  0  0  0  0  0  0  0  0
    1.5035   -0.0238    0.3471 N   0  0  0  0  0  0  0  0  0  0  0  0
    0.6871   -1.1674    0.4911 C   0  0  0  0  0  0  0  0  0  0  0  0
   -0.3012    1.2492   -0.4288 C   0  0  0  0  0  0  0  0  0  0  0  0
    1.0796    1.2256   -0.1122 C   0  0  0  0  0  0  0  0  0  0  0  0
   -2.3998    0.4723   -0.6761 N   0  0  0  0  0  0  0  0  0  0  0  0
   -1.0889    2.2593   -0.8969 N   0  0  0  0  0  0  0  0  0  0  0  0
   -2.3517    1.7415   -1.0309 C   0  0  0  0  0  0  0  0  0  0  0  0
    1.1553   -2.2327    0.9034 O   0  0  0  0  0  0  0  0  0  0  0  0
    1.7969    2.2124   -0.2392 O   0  0  0  0  0  0  0  0  0  0  0  0
   -1.5681   -2.1628    0.2707 C   0  0  0  0  0  0  0  0  0  0  0  0
    2.8987   -0.1817    0.7070 C   0  0  0  0  0  0  0  0  0  0  0  0
    1.5831    0.0605    0.6290 N   0  0  0  0  0  0  0  0  0  0  0  0
   -1.1270    0.8571    0.4053 N   0  0  0  0  0  0  0  0  0  0  0  0
   -0.5651   -0.0303   -0.6209 C   0  0  0  0  0  0  0  0  0  0  0  0
    0.6479   -0.8155   -0.0860 C   0  0  0  0  0  0  0  0  0  0  0  0
   -0.7701    3.3922   -0.1022 H   0  0  0  0  0  0  0  0  0  0  0  0
   -3.2134    2.6736    0.1841 H   0  0  0  0  0  0  0  0  0  0  0  0
   -2.3730   -2.0817   -0.5025 H   0  0  0  0  0  0  0  0  0  0  0  0
   -2.1043   -2.0284    1.2651 H   0  0  0  0  0  0  0  0  0  0  0  0
   -1.1177   -3.0949    0.2416 H   0  0  0  0  0  0  0  0  0  0  0  0
    3.1066   -1.1657   -1.0757 H   0  0  0  0  0  0  0  0  0  0  0  0
    3.5220    0.4786   -0.5382 H   0  0  0  0  0  0  0  0  0  0  0  0
    3.3070   -0.8254    0.6564 H   0  0  0  0  0  0  0  0  0  0  0  0
   -0.7921    3.2049   -1.1027 H   0  0  0  0  0  0  0  0  0  0  0  0
   -3.1852    2.3326   -1.3882 H   0  0  0  0  0  0  0  0  0  0  0  0
   -2.3623   -1.9062    0.9785 H   0  0  0  0  0  0  0  0  0  0  0  0
   -1.0577   -3.0603    0.6294 H   0  0  0  0  0  0  0  0  0  0  0  0
   -2.0049   -2.3783   -0.7096 H   0  0  0  0  0  0  0  0  0  0  0  0
    3.4679    0.7447    0.5966 H   0  0  0  0  0  0  0  0  0  0  0  0
    2.9636   -0.5163    1.7477 H   0  0  0  0  0  0  0  0  0  0  0  0
    3.3443   -0.9514    0.0682 H   0  0  0  0  0  0  0  0  0  0  0  0
    1.0022    0.6625    1.2244 H   0  0  0  0  0  0  0  0  0  0  0  0
    1.9796    0.7193   -0.0416 H   0  0  0  0  0  0  0  0  0  0  0  0
   -1.4362    0.2936    1.1979 H   0  0  0  0  0  0  0  0  0  0  0  0
   -1.9636    1.3065    0.0341 H   0  0  0  0  0  0  0  0  0  0  0  0
   -1.3331   -0.7288   -0.9694 H   0  0  0  0  0  0  0  0  0  0  0  0
   -0.2565    0.5827   -1.4749 H   0  0  0  0  0  0  0  0  0  0  0  0
    1.1653   -1.3196   -0.9086 H   0  0  0  0  0  0  0  0  0  0  0  0
    0.3035   -1.5880    0.6107 H   0  0  0  0  0  0  0  0  0  0  0  0
  2  1  1  0
  3  4  1  0
  4  1  1  0
  5  2  2  0
  6  3  1  0
  7  2  1  0
  8  5  1  0
  9  7  2  0
 10  4  2  0
 11  6  2  0
 12  1  1  0
 13  3  1  0
  5  6  1  0
  8  9  1  0
 15 14  1  0
 16 17  1  0
 17 14  1  0
 18 15  2  0
 19 16  1  0
 20 15  1  0
 21 18  1  0
 22 20  2  0
 23 17  2  0
 24 19  2  0
 25 14  1  0
 26 16  1  0
 18 19  1  0
 21 22  1  0
 28 29  1  0
 29 30  1  0
 30 27  1  0
  8 31  1  0
  9 32  1  0
 12 33  1  0
 12 34  1  0
 12 35  1  0
 13 36  1  0
 13 37  1  0
 13 38  1  0
 21 39  1  0
 22 40  1  0
 25 41  1  0
 25 42  1  0
 25 43  1  0
 26 44  1  0
 26 45  1  0
 26 46  1  0
 27 47  1  0
 27 48  1  0
 28 49  1  0
 28 50  1  0
 29 51  1  0
 29 52  1  0
 30 53  1  0
 30 54  1  0
M  END
$$$$
