
     RDKit          3D

 54 55  0  0  0  0  0  0  0  0999 V2000
   -0.0161    1.2379   -0.0262 N   0  0  0  0  0  0  0  0  0  0  0  0
    1.0953    0.4310   -0.0179 C   0  0  0  0  0  0  0  0  0  0  0  0
   -1.3440   -0.7581    0.0268 N   0  0  0  0  0  0  0  0  0  0  0  0
   -1.2845    0.6527   -0.0037 C   0  0  0  0  0  0  0  0  0  0  0  0
    0.9910   -0.9235    0.0118 C   0  0  0  0  0  0  0  0  0  0  0  0
   -0.2435   -1.6186    0.0364 C   0  0  0  0  0  0  0  0  0  0  0  0
    2.3958    0.8351   -0.0368 N   0  0  0  0  0  0  0  0  0  0  0  0
    2.2731   -1.3881    0.0115 N   0  0  0  0  0  0  0  0  0  0  0  0
    3.0891   -0.2864   -0.0184 C   0  0  0  0  0  0  0  0  0  0  0  0
   -2.3164    1.3307   -0.0100 O   0  0  0  0  0  0  0  0  0  0  0  0
   -0.3042   -2.8433    0.0629 O   0  0  0  0  0  0  0  0  0  0  0  0
    0.1325    2.6812   -0.0581 C   0  0  0  0  0  0  0  0  0  0  0  0
   -2.6694   -1.3444    0.0498 C   0  0  0  0  0  0  0  0  0  0  0  0
   -0.7703   -0.9661    0.1589 N   0  0  0  0  0  0  0  0  0  0  0  0
   -1.1192    0.3619    0.1240 C   0  0  0  0  0  0  0  0  0  0  0  0
    1.5183   -0.2670    0.0037 N   0  0  0  0  0  0  0  0  0  0  0  0
    0.5802   -1.3187    0.0985 C   0  0  0  0  0  0  0  0  0  0  0  0
   -0.1821    1.3415    0.0321 C   0  0  0  0  0  0  0  0  0  0  0  0
    1.2116    1.0954   -0.0350 C   0  0  0  0  0  0  0  0  0  0  0  0
   -2.3800    0.8746    0.1728 N   0  0  0  0  0  0  0  0  0  0  0  0
   -0.8794    2.5135    0.0228 N   0  0  0  0  0  0  0  0  0  0  0  0
   -2.2068    2.1803    0.1099 C   0  0  0  0  0  0  0  0  0  0  0  0
    0.9491   -2.4966    0.1262 O   0  0  0  0  0  0  0  0  0  0  0  0
    2.0330    2.0025   -0.1175 O   0  0  0  0  0  0  0  0  0  0  0  0
   -1.7978   -1.9863    0.2574 C   0  0  0  0  0  0  0  0  0  0  0  0
    2.9135   -0.6549   -0.0577 C   0  0  0  0  0  0  0  0  0  0  0  0
    1.6152    0.4365    0.6944 N   0  0  0  0  0  0  0  0  0  0  0  0
   -1.6949   -0.6876   -0.7460 N   0  0  0  0  0  0  0  0  0  0  0  0
   -0.3644   -0.8045   -0.1480 C   0  0  0  0  0  0  0  0  0  0  0  0
    0.2864    0.5676    0.1033 C   0  0  0  0  0  0  0  0  0  0  0  0
    2.5591   -2.3589    0.0299 H   0  0  0  0  0  0  0  0  0  0  0  0
    4.1686   -0.3653   -0.0253 H   0  0  0  0  0  0  0  0  0  0  0  0
    0.6938    3.0022    0.8252 H   0  0  0  0  0  0  0  0  0  0  0  0
   -0.8345    3.1907   -0.0613 H   0  0  0  0  0  0  0  0  0  0  0  0
    0.6796    2.9641   -0.9631 H   0  0  0  0  0  0  0  0  0  0  0  0
   -3.2032   -0.9823    0.9346 H   0  0  0  0  0  0  0  0  0  0  0  0
   -3.2173   -1.0201   -0.8411 H   0  0  0  0  0  0  0  0  0  0  0  0
   -2.6447   -2.4367    0.0728 H   0  0  0  0  0  0  0  0  0  0  0  0
   -0.4867    3.4444   -0.0370 H   0  0  0  0  0  0  0  0  0  0  0  0
   -2.9914    2.9259    0.1228 H   0  0  0  0  0  0  0  0  0  0  0  0
   -1.3724   -2.9930    0.2750 H   0  0  0  0  0  0  0  0  0  0  0  0
   -2.3676   -1.8315    1.1791 H   0  0  0  0  0  0  0  0  0  0  0  0
   -2.4664   -1.9044   -0.6054 H   0  0  0  0  0  0  0  0  0  0  0  0
    3.1637   -1.2267    0.8420 H   0  0  0  0  0  0  0  0  0  0  0  0
    3.5850    0.2042   -0.1299 H   0  0  0  0  0  0  0  0  0  0  0  0
    3.0656   -1.2991   -0.9300 H   0  0  0  0  0  0  0  0  0  0  0  0
    2.2222   -0.0855    0.0629 H   0  0  0  0  0  0  0  0  0  0  0  0
    2.0338    1.3605    0.7940 H   0  0  0  0  0  0  0  0  0  0  0  0
   -2.3015   -0.1628   -0.1166 H   0  0  0  0  0  0  0  0  0  0  0  0
   -1.6386   -0.1439   -1.6058 H   0  0  0  0  0  0  0  0  0  0  0  0
    0.2662   -1.4005   -0.8174 H   0  0  0  0  0  0  0  0  0  0  0  0
   -0.4499   -1.3582    0.7939 H   0  0  0  0  0  0  0  0  0  0  0  0
    0.3682    1.1201   -0.8398 H   0  0  0  0  0  0  0  0  0  0  0  0
   -0.3427    1.1585    0.7783 H   0  0  0  0  0  0  0  0  0  0  0  0
  2  1  1  0
  3  4  1  0
  4  1  1  0
  5  2  2  0
  6  3  1  0
  7  2  1  0
  8  5  1  0
  9  7  2  0
 10  4  2  0
 11  6  2  0
 12  1  1  0
 13  3  1  0
  5  6  1  0
  8  9  1  0
 15 14  1  0
 16 17  1  0
 17 14  1  0
 18 15  2  0
 19 16  1  0
 20 15  1  0
 21 18  1  0
 22 20  2  0
 23 17  2  0
 24 19  2  0
 25 14  1  0
 26 16  1  0
 18 19  1  0
 21 22  1  0
 28 29  1  0
 29 30  1  0
 30 27  1  0
  8 31  1  0
  9 32  1  0
 12 33  1  0
 12 34  1  0
 12 35  1  0
 13 36  1  0
 13 37  1  0
 13 38  1  0
 21 39  1  0
 22 40  1  0
 25 41  1  0
 25 42  1  0
 25 43  1  0
 26 44  1  0
 26 45  1  0
 26 46  1  0
 27 47  1  0
 27 48  1  0
 28 49  1  0
 28 50  1  0
 29 51  1  0
 29 52  1  0
 30 53  1  0
 30 54  1  0
M  END
$$$$
