
     RDKit          3D

 54 55  0  0  0  0  0  0  0  0999 V2000
   -0.5932   -1.0869   -0.0163 N   0  0  0  0  0  0  0  0  0  0  0  0
   -1.1559    0.1533    0.1620 C   0  0  0  0  0  0  0  0  0  0  0  0
    1.5308    0.0117   -0.1958 N   0  0  0  0  0  0  0  0  0  0  0  0
    0.7876   -1.1894   -0.2029 C   0  0  0  0  0  0  0  0  0  0  0  0
   -0.4017    1.2836    0.1612 C   0  0  0  0  0  0  0  0  0  0  0  0
    1.0037    1.2933   -0.0190 C   0  0  0  0  0  0  0  0  0  0  0  0
   -2.4755    0.4291    0.3556 N   0  0  0  0  0  0  0  0  0  0  0  0
   -1.2795    2.3079    0.3616 N   0  0  0  0  0  0  0  0  0  0  0  0
   -2.5233    1.7416    0.4736 C   0  0  0  0  0  0  0  0  0  0  0  0
    1.3449   -2.2787   -0.3678 O   0  0  0  0  0  0  0  0  0  0  0  0
    1.6566    2.3316   -0.0150 O   0  0  0  0  0  0  0  0  0  0  0  0
   -1.4292   -2.2732   -0.0099 C   0  0  0  0  0  0  0  0  0  0  0  0
    2.9612   -0.1174   -0.3912 C   0  0  0  0  0  0  0  0  0  0  0  0
   -0.6757   -1.0296    0.1296 N   0  0  0  0  0  0  0  0  0  0  0  0
   -1.1501    0.2495   -0.0300 C   0  0  0  0  0  0  0  0  0  0  0  0
    1.5388   -0.1170    0.0137 N   0  0  0  0  0  0  0  0  0  0  0  0
    0.7040   -1.2476    0.1554 C   0  0  0  0  0  0  0  0  0  0  0  0
   -0.3094    1.3087   -0.1632 C   0  0  0  0  0  0  0  0  0  0  0  0
    1.1033    1.2001   -0.1509 C   0  0  0  0  0  0  0  0  0  0  0  0
   -2.4556    0.6344   -0.0771 N   0  0  0  0  0  0  0  0  0  0  0  0
   -1.1161    2.3998   -0.2991 N   0  0  0  0  0  0  0  0  0  0  0  0
   -2.4074    1.9420   -0.2407 C   0  0  0  0  0  0  0  0  0  0  0  0
    1.1840   -2.3764    0.2956 O   0  0  0  0  0  0  0  0  0  0  0  0
    1.8356    2.1764   -0.2738 O   0  0  0  0  0  0  0  0  0  0  0  0
   -1.6027   -2.1375    0.2685 C   0  0  0  0  0  0  0  0  0  0  0  0
    2.9665   -0.3656    0.0434 C   0  0  0  0  0  0  0  0  0  0  0  0
    1.5637    0.6429   -0.2164 N   0  0  0  0  0  0  0  0  0  0  0  0
   -1.2462    0.7753    0.1218 N   0  0  0  0  0  0  0  0  0  0  0  0
   -0.5659   -0.5035    0.3633 C   0  0  0  0  0  0  0  0  0  0  0  0
    0.7746   -0.5817   -0.3925 C   0  0  0  0  0  0  0  0  0  0  0  0
   -1.0500    3.2922    0.4160 H   0  0  0  0  0  0  0  0  0  0  0  0
   -3.4155    2.3317    0.6389 H   0  0  0  0  0  0  0  0  0  0  0  0
   -1.9405   -2.3446    0.9553 H   0  0  0  0  0  0  0  0  0  0  0  0
   -2.1694   -2.1929   -0.8122 H   0  0  0  0  0  0  0  0  0  0  0  0
   -0.8452   -3.1843   -0.1638 H   0  0  0  0  0  0  0  0  0  0  0  0
    3.1461   -0.6003   -1.3564 H   0  0  0  0  0  0  0  0  0  0  0  0
    3.4759    0.8465   -0.3725 H   0  0  0  0  0  0  0  0  0  0  0  0
    3.3722   -0.7549    0.3985 H   0  0  0  0  0  0  0  0  0  0  0  0
   -0.8133    3.3581   -0.4192 H   0  0  0  0  0  0  0  0  0  0  0  0
   -3.2605    2.6032   -0.3227 H   0  0  0  0  0  0  0  0  0  0  0  0
   -1.0828   -3.0914    0.3895 H   0  0  0  0  0  0  0  0  0  0  0  0
   -2.2302   -2.1926   -0.6267 H   0  0  0  0  0  0  0  0  0  0  0  0
   -2.2322   -1.9687    1.1479 H   0  0  0  0  0  0  0  0  0  0  0  0
    3.2242   -1.0556   -0.7668 H   0  0  0  0  0  0  0  0  0  0  0  0
    3.2255   -0.8391    0.9961 H   0  0  0  0  0  0  0  0  0  0  0  0
    3.5540    0.5489   -0.0694 H   0  0  0  0  0  0  0  0  0  0  0  0
    0.9025    1.4200   -0.3309 H   0  0  0  0  0  0  0  0  0  0  0  0
    1.8288    0.7133    0.7663 H   0  0  0  0  0  0  0  0  0  0  0  0
   -1.4384    0.8654   -0.8763 H   0  0  0  0  0  0  0  0  0  0  0  0
   -2.1546    0.7609    0.5846 H   0  0  0  0  0  0  0  0  0  0  0  0
   -0.3853   -0.5997    1.4396 H   0  0  0  0  0  0  0  0  0  0  0  0
   -1.2123   -1.3324    0.0562 H   0  0  0  0  0  0  0  0  0  0  0  0
    1.3511   -1.4479   -0.0524 H   0  0  0  0  0  0  0  0  0  0  0  0
    0.5820   -0.7125   -1.4633 H   0  0  0  0  0  0  0  0  0  0  0  0
  2  1  1  0
  3  4  1  0
  4  1  1  0
  5  2  2  0
  6  3  1  0
  7  2  1  0
  8  5  1  0
  9  7  2  0
 10  4  2  0
 11  6  2  0
 12  1  1  0
 13  3  1  0
  5  6  1  0
  8  9  1  0
 15 14  1  0
 16 17  1  0
 17 14  1  0
 18 15  2  0
 19 16  1  0
 20 15  1  0
 21 18  1  0
 22 20  2  0
 23 17  2  0
 24 19  2  0
 25 14  1  0
 26 16  1  0
 18 19  1  0
 21 22  1  0
 28 29  1  0
 29 30  1  0
 30 27  1  0
  8 31  1  0
  9 32  1  0
 12 33  1  0
 12 34  1  0
 12 35  1  0
 13 36  1  0
 13 37  1  0
 13 38  1  0
 21 39  1  0
 22 40  1  0
 25 41  1  0
 25 42  1  0
 25 43  1  0
 26 44  1  0
 26 45  1  0
 26 46  1  0
 27 47  1  0
 27 48  1  0
 28 49  1  0
 28 50  1  0
 29 51  1  0
 29 52  1  0
 30 53  1  0
 30 54  1  0
M  END
$$$$
