
     RDKit          3D

 54 55  0  0  0  0  0  0  0  0999 V2000
   -0.3930    1.1198   -0.3485 N   0  0  0  0  0  0  0  0  0  0  0  0
   -1.1651   -0.0010   -0.1635 C   0  0  0  0  0  0  0  0  0  0  0  0
    1.5051   -0.2051    0.2774 N   0  0  0  0  0  0  0  0  0  0  0  0
    0.9845    1.0435   -0.1287 C   0  0  0  0  0  0  0  0  0  0  0  0
   -0.6211   -1.1829    0.2283 C   0  0  0  0  0  0  0  0  0  0  0  0
    0.7610   -1.3702    0.4781 C   0  0  0  0  0  0  0  0  0  0  0  0
   -2.5129   -0.0990   -0.3328 N   0  0  0  0  0  0  0  0  0  0  0  0
   -1.6654   -2.0563    0.3083 N   0  0  0  0  0  0  0  0  0  0  0  0
   -2.7907   -1.3545   -0.0405 C   0  0  0  0  0  0  0  0  0  0  0  0
    1.7247    2.0200   -0.2801 O   0  0  0  0  0  0  0  0  0  0  0  0
    1.2215   -2.4509    0.8310 O   0  0  0  0  0  0  0  0  0  0  0  0
   -1.0077    2.3659   -0.7675 C   0  0  0  0  0  0  0  0  0  0  0  0
    2.9364   -0.2622    0.4998 C   0  0  0  0  0  0  0  0  0  0  0  0
   -0.1925    1.2214   -0.0668 N   0  0  0  0  0  0  0  0  0  0  0  0
   -1.1513    0.2380   -0.0620 C   0  0  0  0  0  0  0  0  0  0  0  0
    1.4512   -0.5176    0.0886 N   0  0  0  0  0  0  0  0  0  0  0  0
    1.1552    0.8612    0.0097 C   0  0  0  0  0  0  0  0  0  0  0  0
   -0.8205   -1.0777    0.0154 C   0  0  0  0  0  0  0  0  0  0  0  0
    0.5122   -1.5520    0.0966 C   0  0  0  0  0  0  0  0  0  0  0  0
   -2.5000    0.4145   -0.1298 N   0  0  0  0  0  0  0  0  0  0  0  0
   -2.0050   -1.7534   -0.0045 N   0  0  0  0  0  0  0  0  0  0  0  0
   -2.9940   -0.8076   -0.0932 C   0  0  0  0  0  0  0  0  0  0  0  0
    2.0572    1.7042    0.0091 O   0  0  0  0  0  0  0  0  0  0  0  0
    0.7782   -2.7474    0.1654 O   0  0  0  0  0  0  0  0  0  0  0  0
   -0.5819    2.6170   -0.1506 C   0  0  0  0  0  0  0  0  0  0  0  0
    2.8552   -0.8693    0.1671 C   0  0  0  0  0  0  0  0  0  0  0  0
   -1.5247    0.6985    0.3042 N   0  0  0  0  0  0  0  0  0  0  0  0
    1.2521    0.7313   -0.2574 N   0  0  0  0  0  0  0  0  0  0  0  0
    0.6302   -0.5340    0.1533 C   0  0  0  0  0  0  0  0  0  0  0  0
   -0.8819   -0.5424   -0.1431 C   0  0  0  0  0  0  0  0  0  0  0  0
   -1.6125   -3.0315    0.5742 H   0  0  0  0  0  0  0  0  0  0  0  0
   -3.7729   -1.8088   -0.0625 H   0  0  0  0  0  0  0  0  0  0  0  0
   -0.2724    3.1679   -0.8733 H   0  0  0  0  0  0  0  0  0  0  0  0
   -1.5007    2.2142   -1.7329 H   0  0  0  0  0  0  0  0  0  0  0  0
   -1.7488    2.6676   -0.0205 H   0  0  0  0  0  0  0  0  0  0  0  0
    3.2052    0.4639    1.2741 H   0  0  0  0  0  0  0  0  0  0  0  0
    3.4515    0.0135   -0.4262 H   0  0  0  0  0  0  0  0  0  0  0  0
    3.2733   -1.2539    0.8113 H   0  0  0  0  0  0  0  0  0  0  0  0
   -2.1231   -2.7577    0.0383 H   0  0  0  0  0  0  0  0  0  0  0  0
   -4.0438   -1.0690   -0.1269 H   0  0  0  0  0  0  0  0  0  0  0  0
    0.2848    3.2832   -0.1442 H   0  0  0  0  0  0  0  0  0  0  0  0
   -1.2177    2.8625    0.7060 H   0  0  0  0  0  0  0  0  0  0  0  0
   -1.1391    2.7773   -1.0790 H   0  0  0  0  0  0  0  0  0  0  0  0
    3.0147   -1.9488    0.2257 H   0  0  0  0  0  0  0  0  0  0  0  0
    3.3691   -0.4817   -0.7187 H   0  0  0  0  0  0  0  0  0  0  0  0
    3.2911   -0.3971    1.0537 H   0  0  0  0  0  0  0  0  0  0  0  0
   -0.9016    1.4586    0.0069 H   0  0  0  0  0  0  0  0  0  0  0  0
   -1.4645    0.7405    1.3218 H   0  0  0  0  0  0  0  0  0  0  0  0
    1.1245    0.8527   -1.2625 H   0  0  0  0  0  0  0  0  0  0  0  0
    2.2586    0.6716   -0.1052 H   0  0  0  0  0  0  0  0  0  0  0  0
    0.7930   -0.6647    1.2288 H   0  0  0  0  0  0  0  0  0  0  0  0
    1.1128   -1.3704   -0.3632 H   0  0  0  0  0  0  0  0  0  0  0  0
   -1.0410   -0.6392   -1.2229 H   0  0  0  0  0  0  0  0  0  0  0  0
   -1.3575   -1.4025    0.3392 H   0  0  0  0  0  0  0  0  0  0  0  0
  2  1  1  0
  3  4  1  0
  4  1  1  0
  5  2  2  0
  6  3  1  0
  7  2  1  0
  8  5  1  0
  9  7  2  0
 10  4  2  0
 11  6  2  0
 12  1  1  0
 13  3  1  0
  5  6  1  0
  8  9  1  0
 15 14  1  0
 16 17  1  0
 17 14  1  0
 18 15  2  0
 19 16  1  0
 20 15  1  0
 21 18  1  0
 22 20  2  0
 23 17  2  0
 24 19  2  0
 25 14  1  0
 26 16  1  0
 18 19  1  0
 21 22  1  0
 28 29  1  0
 29 30  1  0
 30 27  1  0
  8 31  1  0
  9 32  1  0
 12 33  1  0
 12 34  1  0
 12 35  1  0
 13 36  1  0
 13 37  1  0
 13 38  1  0
 21 39  1  0
 22 40  1  0
 25 41  1  0
 25 42  1  0
 25 43  1  0
 26 44  1  0
 26 45  1  0
 26 46  1  0
 27 47  1  0
 27 48  1  0
 28 49  1  0
 28 50  1  0
 29 51  1  0
 29 52  1  0
 30 53  1  0
 30 54  1  0
M  END
$$$$
