
     RDKit          2D

 30 31  0  0  0  0  0  0  0  0999 V2000
    1.6625    2.9122    0.0000 N   0  0  0  0  0  0  0  0  0  0  0  0
    0.9504    2.5149    0.0000 C   0  0  0  0  0  0  0  0  0  0  0  0
    2.3892    1.6817    0.0000 N   0  0  0  0  0  0  0  0  0  0  0  0
    2.3892    2.5149    0.0000 C   0  0  0  0  0  0  0  0  0  0  0  0
    0.9504    1.6817    0.0000 C   0  0  0  0  0  0  0  0  0  0  0  0
    1.6625    1.2651    0.0000 C   0  0  0  0  0  0  0  0  0  0  0  0
    0.1657    2.7474    0.0000 N   0  0  0  0  0  0  0  0  0  0  0  0
    0.1657    1.4249    0.0000 N   0  0  0  0  0  0  0  0  0  0  0  0
   -0.3285    2.0935    0.0000 C   0  0  0  0  0  0  0  0  0  0  0  0
    3.1013    2.9122    0.0000 O   0  0  0  0  0  0  0  0  0  0  0  0
    1.6625    0.4367    0.0000 O   0  0  0  0  0  0  0  0  0  0  0  0
    1.6625    3.7453    0.0000 C   0  0  0  0  0  0  0  0  0  0  0  0
    3.1013    1.2651    0.0000 C   0  0  0  0  0  0  0  0  0  0  0  0
   -3.0470    2.9986    0.0000 N   0  0  0  0  0  0  0  0  0  0  0  0
   -3.7591    2.6014    0.0000 C   0  0  0  0  0  0  0  0  0  0  0  0
   -2.3204    1.7681    0.0000 N   0  0  0  0  0  0  0  0  0  0  0  0
   -2.3204    2.6014    0.0000 C   0  0  0  0  0  0  0  0  0  0  0  0
   -3.7591    1.7681    0.0000 C   0  0  0  0  0  0  0  0  0  0  0  0
   -3.0470    1.3515    0.0000 C   0  0  0  0  0  0  0  0  0  0  0  0
   -4.5439    2.8339    0.0000 N   0  0  0  0  0  0  0  0  0  0  0  0
   -4.5439    1.5114    0.0000 N   0  0  0  0  0  0  0  0  0  0  0  0
   -5.0380    2.1799    0.0000 C   0  0  0  0  0  0  0  0  0  0  0  0
   -1.6083    2.9986    0.0000 O   0  0  0  0  0  0  0  0  0  0  0  0
   -3.0470    0.5232    0.0000 O   0  0  0  0  0  0  0  0  0  0  0  0
   -3.0470    3.8318    0.0000 C   0  0  0  0  0  0  0  0  0  0  0  0
   -1.6083    1.3515    0.0000 C   0  0  0  0  0  0  0  0  0  0  0  0
   -2.4173   -0.7170    0.0000 N   0  0  0  0  0  0  0  0  0  0  0  0
   -4.5584   -0.3101    0.0000 N   0  0  0  0  0  0  0  0  0  0  0  0
   -3.8463   -0.7170    0.0000 C   0  0  0  0  0  0  0  0  0  0  0  0
   -3.1342   -0.3101    0.0000 C   0  0  0  0  0  0  0  0  0  0  0  0
  2  1  1  0
  3  4  1  0
  4  1  1  0
  5  2  2  0
  6  3  1  0
  7  2  1  0
  8  5  1  0
  9  7  2  0
 10  4  2  0
 11  6  2  0
 12  1  1  0
 13  3  1  0
  5  6  1  0
  8  9  1  0
 15 14  1  0
 16 17  1  0
 17 14  1  0
 18 15  2  0
 19 16  1  0
 20 15  1  0
 21 18  1  0
 22 20  2  0
 23 17  2  0
 24 19  2  0
 25 14  1  0
 26 16  1  0
 18 19  1  0
 21 22  1  0
 28 29  1  0
 29 30  1  0
 30 27  1  0
M  END
> <chembl_id>
CHEMBL1370561

> <chembl_pref_name>
AMINOPHYLLINE
