
     RDKit          3D

 54 55  0  0  0  0  0  0  0  0999 V2000
   -0.4044    1.1697    0.0446 N   0  0  0  0  0  0  0  0  0  0  0  0
   -1.1685    0.0429   -0.1371 C   0  0  0  0  0  0  0  0  0  0  0  0
    1.5097   -0.2689    0.1741 N   0  0  0  0  0  0  0  0  0  0  0  0
    0.9778    1.0393    0.2011 C   0  0  0  0  0  0  0  0  0  0  0  0
   -0.6123   -1.1965   -0.1670 C   0  0  0  0  0  0  0  0  0  0  0  0
    0.7750   -1.4418   -0.0158 C   0  0  0  0  0  0  0  0  0  0  0  0
   -2.5187   -0.0072   -0.3081 N   0  0  0  0  0  0  0  0  0  0  0  0
   -1.6512   -2.0577   -0.3645 N   0  0  0  0  0  0  0  0  0  0  0  0
   -2.7856   -1.2915   -0.4435 C   0  0  0  0  0  0  0  0  0  0  0  0
    1.7125    2.0194    0.3559 O   0  0  0  0  0  0  0  0  0  0  0  0
    1.2474   -2.5731   -0.0543 O   0  0  0  0  0  0  0  0  0  0  0  0
   -1.0312    2.4786    0.0644 C   0  0  0  0  0  0  0  0  0  0  0  0
    2.9453   -0.3821    0.3391 C   0  0  0  0  0  0  0  0  0  0  0  0
   -0.3007    1.1859    0.1912 N   0  0  0  0  0  0  0  0  0  0  0  0
   -1.1679    0.1443   -0.0313 C   0  0  0  0  0  0  0  0  0  0  0  0
    1.4915   -0.3961    0.0037 N   0  0  0  0  0  0  0  0  0  0  0  0
    1.0737    0.9367    0.2139 C   0  0  0  0  0  0  0  0  0  0  0  0
   -0.7211   -1.1236   -0.2293 C   0  0  0  0  0  0  0  0  0  0  0  0
    0.6486   -1.4862   -0.2258 C   0  0  0  0  0  0  0  0  0  0  0  0
   -2.5270    0.2129   -0.0852 N   0  0  0  0  0  0  0  0  0  0  0  0
   -1.8406   -1.8801   -0.4144 N   0  0  0  0  0  0  0  0  0  0  0  0
   -2.9100   -1.0272   -0.3184 C   0  0  0  0  0  0  0  0  0  0  0  0
    1.8969    1.8359    0.4085 O   0  0  0  0  0  0  0  0  0  0  0  0
    1.0201   -2.6408   -0.4078 O   0  0  0  0  0  0  0  0  0  0  0  0
   -0.8130    2.5280    0.3979 C   0  0  0  0  0  0  0  0  0  0  0  0
    2.9213   -0.6326    0.0322 C   0  0  0  0  0  0  0  0  0  0  0  0
    1.8565   -0.0209   -0.5002 N   0  0  0  0  0  0  0  0  0  0  0  0
   -1.8140   -0.1615    0.3573 N   0  0  0  0  0  0  0  0  0  0  0  0
   -0.5727   -0.5021   -0.3377 C   0  0  0  0  0  0  0  0  0  0  0  0
    0.6287    0.2614    0.2434 C   0  0  0  0  0  0  0  0  0  0  0  0
   -1.5890   -3.0653   -0.4378 H   0  0  0  0  0  0  0  0  0  0  0  0
   -3.7661   -1.7228   -0.5992 H   0  0  0  0  0  0  0  0  0  0  0  0
   -0.3033    3.2767    0.2328 H   0  0  0  0  0  0  0  0  0  0  0  0
   -1.7731    2.5077    0.8686 H   0  0  0  0  0  0  0  0  0  0  0  0
   -1.5249    2.6523   -0.8970 H   0  0  0  0  0  0  0  0  0  0  0  0
    3.2832   -1.4211    0.3666 H   0  0  0  0  0  0  0  0  0  0  0  0
    3.2402    0.1110    1.2713 H   0  0  0  0  0  0  0  0  0  0  0  0
    3.4372    0.1304   -0.4942 H   0  0  0  0  0  0  0  0  0  0  0  0
   -1.8686   -2.8768   -0.5883 H   0  0  0  0  0  0  0  0  0  0  0  0
   -3.9323   -1.3659   -0.4265 H   0  0  0  0  0  0  0  0  0  0  0  0
   -1.4727    2.5283    1.2712 H   0  0  0  0  0  0  0  0  0  0  0  0
   -1.3770    2.8353   -0.4883 H   0  0  0  0  0  0  0  0  0  0  0  0
   -0.0095    3.2493    0.5675 H   0  0  0  0  0  0  0  0  0  0  0  0
    3.1766   -1.6815   -0.1381 H   0  0  0  0  0  0  0  0  0  0  0  0
    3.3131   -0.3254    1.0075 H   0  0  0  0  0  0  0  0  0  0  0  0
    3.3987   -0.0206   -0.7403 H   0  0  0  0  0  0  0  0  0  0  0  0
    1.7655    0.3262   -1.4539 H   0  0  0  0  0  0  0  0  0  0  0  0
    2.6253    0.4998   -0.0797 H   0  0  0  0  0  0  0  0  0  0  0  0
   -2.5806   -0.6920   -0.0551 H   0  0  0  0  0  0  0  0  0  0  0  0
   -2.0329    0.8217    0.2033 H   0  0  0  0  0  0  0  0  0  0  0  0
   -0.4021   -1.5811   -0.2516 H   0  0  0  0  0  0  0  0  0  0  0  0
   -0.6886   -0.2701   -1.4028 H   0  0  0  0  0  0  0  0  0  0  0  0
    0.4394    1.3407    0.2168 H   0  0  0  0  0  0  0  0  0  0  0  0
    0.7754   -0.0221    1.2917 H   0  0  0  0  0  0  0  0  0  0  0  0
  2  1  1  0
  3  4  1  0
  4  1  1  0
  5  2  2  0
  6  3  1  0
  7  2  1  0
  8  5  1  0
  9  7  2  0
 10  4  2  0
 11  6  2  0
 12  1  1  0
 13  3  1  0
  5  6  1  0
  8  9  1  0
 15 14  1  0
 16 17  1  0
 17 14  1  0
 18 15  2  0
 19 16  1  0
 20 15  1  0
 21 18  1  0
 22 20  2  0
 23 17  2  0
 24 19  2  0
 25 14  1  0
 26 16  1  0
 18 19  1  0
 21 22  1  0
 28 29  1  0
 29 30  1  0
 30 27  1  0
  8 31  1  0
  9 32  1  0
 12 33  1  0
 12 34  1  0
 12 35  1  0
 13 36  1  0
 13 37  1  0
 13 38  1  0
 21 39  1  0
 22 40  1  0
 25 41  1  0
 25 42  1  0
 25 43  1  0
 26 44  1  0
 26 45  1  0
 26 46  1  0
 27 47  1  0
 27 48  1  0
 28 49  1  0
 28 50  1  0
 29 51  1  0
 29 52  1  0
 30 53  1  0
 30 54  1  0
M  END
$$$$
