
     RDKit          3D

 73 81  0  0  0  0  0  0  0  0999 V2000
   -3.3635   -1.5553   -0.0231 C   0  0  0  0  0  0  0  0  0  0  0  0
   -2.3961   -0.6300   -0.3593 C   0  0  0  0  0  0  0  0  0  0  0  0
   -2.5244    0.8451    0.1276 C   0  0  0  0  0  0  0  0  0  0  0  0
   -3.5964    1.2699    0.8927 C   0  0  0  0  0  0  0  0  0  0  0  0
   -4.5513    0.2780    1.1581 C   0  0  0  0  0  0  0  0  0  0  0  0
   -4.4565   -1.0828    0.7249 C   0  0  0  0  0  0  0  0  0  0  0  0
   -1.4134   -1.2229   -1.1123 N   0  0  0  0  0  0  0  0  0  0  0  0
   -2.9236   -2.8048   -0.5398 C   0  0  0  0  0  0  0  0  0  0  0  0
   -1.6820   -2.5940   -1.1670 C   0  0  0  0  0  0  0  0  0  0  0  0
   -1.6799    1.8847   -0.0925 N   0  0  0  0  0  0  0  0  0  0  0  0
   -2.1482    3.0104    0.5651 C   0  0  0  0  0  0  0  0  0  0  0  0
   -3.3572    2.6504    1.1835 C   0  0  0  0  0  0  0  0  0  0  0  0
   -1.5120   -4.9677   -1.6203 C   0  0  0  0  0  0  0  0  0  0  0  0
   -0.9593   -3.6823   -1.6940 C   0  0  0  0  0  0  0  0  0  0  0  0
   -3.4570   -4.1132   -0.4830 C   0  0  0  0  0  0  0  0  0  0  0  0
   -2.7457   -5.1834   -1.0258 C   0  0  0  0  0  0  0  0  0  0  0  0
   -1.6133    4.3082    0.6683 C   0  0  0  0  0  0  0  0  0  0  0  0
   -2.3164    5.2582    1.4148 C   0  0  0  0  0  0  0  0  0  0  0  0
   -3.5141    4.9298    2.0361 C   0  0  0  0  0  0  0  0  0  0  0  0
   -4.0404    3.6385    1.9264 C   0  0  0  0  0  0  0  0  0  0  0  0
   -0.6222    0.8705   -1.9421 O   0  0  0  0  0  0  0  0  0  0  0  0
    0.8100    1.6817   -0.0765 C   0  0  0  0  0  0  0  0  0  0  0  0
    1.0655   -0.6751   -0.8638 C   0  0  2  0  0  0  0  0  0  0  0  0
    1.7647    0.7041   -0.7582 C   0  0  2  0  0  0  0  0  0  0  0  0
   -0.4688    1.8208   -0.8951 C   0  0  2  0  0  0  0  0  0  0  0  0
   -0.2572   -0.5105   -1.6974 C   0  0  1  0  0  0  0  0  0  0  0  0
    3.1050    0.6492   -0.1257 N   0  0  0  0  0  0  0  0  0  0  0  0
    4.1687    0.2096   -0.9234 C   0  0  0  0  0  0  0  0  0  0  0  0
    3.2302    0.8788    1.3174 C   0  0  0  0  0  0  0  0  0  0  0  0
    3.9920   -0.3430   -2.0075 O   0  0  0  0  0  0  0  0  0  0  0  0
    5.5618    0.4234   -0.4583 C   0  0  0  0  0  0  0  0  0  0  0  0
    5.9836    1.6855   -0.0152 C   0  0  0  0  0  0  0  0  0  0  0  0
    7.3076    1.8764    0.3793 C   0  0  0  0  0  0  0  0  0  0  0  0
    8.2113    0.8140    0.3157 C   0  0  0  0  0  0  0  0  0  0  0  0
    7.7975   -0.4351   -0.1502 C   0  0  0  0  0  0  0  0  0  0  0  0
    6.4723   -0.6343   -0.5414 C   0  0  0  0  0  0  0  0  0  0  0  0
    0.7823   -1.1327    0.4816 O   0  0  0  0  0  0  0  0  0  0  0  0
    1.5236   -2.2998    0.8323 C   0  0  0  0  0  0  0  0  0  0  0  0
   -5.8028    0.4046    1.9172 C   0  0  0  0  0  0  0  0  0  0  0  0
   -6.4075   -0.8348    1.9180 N   0  0  0  0  0  0  0  0  0  0  0  0
   -5.6602   -1.8367    1.2109 C   0  0  0  0  0  0  0  0  0  0  0  0
   -6.2504    1.3921    2.4639 O   0  0  0  0  0  0  0  0  0  0  0  0
   -0.0024   -0.9557   -3.1612 C   0  0  0  0  0  0  0  0  0  0  0  0
   -0.9644   -5.8130   -2.0317 H   0  0  0  0  0  0  0  0  0  0  0  0
    0.0216   -3.5683   -2.1406 H   0  0  0  0  0  0  0  0  0  0  0  0
   -4.4111   -4.3007    0.0016 H   0  0  0  0  0  0  0  0  0  0  0  0
   -3.1554   -6.1901   -0.9677 H   0  0  0  0  0  0  0  0  0  0  0  0
   -0.6775    4.5824    0.1916 H   0  0  0  0  0  0  0  0  0  0  0  0
   -1.9228    6.2658    1.5126 H   0  0  0  0  0  0  0  0  0  0  0  0
   -4.0477    5.6768    2.6205 H   0  0  0  0  0  0  0  0  0  0  0  0
   -4.9729    3.4024    2.4303 H   0  0  0  0  0  0  0  0  0  0  0  0
    0.5647    1.3539    0.9462 H   0  0  0  0  0  0  0  0  0  0  0  0
    1.2831    2.6704    0.0400 H   0  0  0  0  0  0  0  0  0  0  0  0
    1.7224   -1.4009   -1.3627 H   0  0  0  0  0  0  0  0  0  0  0  0
    1.9463    1.0629   -1.7844 H   0  0  0  0  0  0  0  0  0  0  0  0
   -0.4257    2.7833   -1.4212 H   0  0  0  0  0  0  0  0  0  0  0  0
    2.4204    0.3779    1.8538 H   0  0  0  0  0  0  0  0  0  0  0  0
    3.1855    1.9573    1.5015 H   0  0  0  0  0  0  0  0  0  0  0  0
    4.1680    0.4818    1.7133 H   0  0  0  0  0  0  0  0  0  0  0  0
    5.2903    2.5225    0.0046 H   0  0  0  0  0  0  0  0  0  0  0  0
    7.6389    2.8514    0.7321 H   0  0  0  0  0  0  0  0  0  0  0  0
    9.2432    0.9635    0.6198 H   0  0  0  0  0  0  0  0  0  0  0  0
    8.5127   -1.2526   -0.2080 H   0  0  0  0  0  0  0  0  0  0  0  0
    6.1445   -1.6053   -0.9118 H   0  0  0  0  0  0  0  0  0  0  0  0
    1.2706   -3.1293    0.1666 H   0  0  0  0  0  0  0  0  0  0  0  0
    1.2606   -2.5794    1.8593 H   0  0  0  0  0  0  0  0  0  0  0  0
    2.6017   -2.1078    0.7898 H   0  0  0  0  0  0  0  0  0  0  0  0
   -7.2783   -0.9864    2.4134 H   0  0  0  0  0  0  0  0  0  0  0  0
   -5.3927   -2.6379    1.9035 H   0  0  0  0  0  0  0  0  0  0  0  0
   -6.2668   -2.2127    0.3833 H   0  0  0  0  0  0  0  0  0  0  0  0
    0.4997   -1.9184   -3.2434 H   0  0  0  0  0  0  0  0  0  0  0  0
    0.6297   -0.2284   -3.6893 H   0  0  0  0  0  0  0  0  0  0  0  0
   -0.9425   -1.0106   -3.7238 H   0  0  0  0  0  0  0  0  0  0  0  0
  6  1  2  0
  2  3  2  0
  4  5  2  0
  1  8  1  0
  2  1  1  0
  7  2  1  0
  7  9  1  0
 10  3  1  0
  4  3  1  0
 12  4  1  0
 10 11  1  0
 14  9  1  0
  9  8  2  0
  8 15  1  0
 13 14  2  0
 16 13  1  0
 15 16  2  0
 11 17  1  0
 12 11  2  0
 20 12  1  0
 17 18  2  0
 18 19  1  0
 19 20  2  0
 10 25  1  0
 25 21  1  0
  7 26  1  0
 26 21  1  0
 25 22  1  0
 26 23  1  0
 22 24  1  0
 23 24  1  0
 24 27  1  0
 27 28  1  0
 27 29  1  0
 28 30  2  0
 28 31  1  0
 32 31  2  0
 36 31  1  0
 32 33  1  0
 33 34  2  0
 34 35  1  0
 35 36  2  0
 23 37  1  0
 37 38  1  0
  5 39  1  0
  6  5  1  0
  6 41  1  0
 39 40  1  0
 40 41  1  0
 39 42  2  0
 26 43  1  6
 13 44  1  0
 14 45  1  0
 15 46  1  0
 16 47  1  0
 17 48  1  0
 18 49  1  0
 19 50  1  0
 20 51  1  0
 22 52  1  0
 22 53  1  0
 23 54  1  6
 24 55  1  6
 25 56  1  6
 29 57  1  0
 29 58  1  0
 29 59  1  0
 32 60  1  0
 33 61  1  0
 34 62  1  0
 35 63  1  0
 36 64  1  0
 38 65  1  0
 38 66  1  0
 38 67  1  0
 40 68  1  0
 41 69  1  0
 41 70  1  0
 43 71  1  0
 43 72  1  0
 43 73  1  0
M  END
$$$$
