
     RDKit          3D

 73 81  0  0  0  0  0  0  0  0999 V2000
   -3.3832   -1.2430    0.1621 C   0  0  0  0  0  0  0  0  0  0  0  0
   -2.3425   -0.5505   -0.4186 C   0  0  0  0  0  0  0  0  0  0  0  0
   -2.2918    1.0062   -0.3539 C   0  0  0  0  0  0  0  0  0  0  0  0
   -3.2871    1.7296    0.2826 C   0  0  0  0  0  0  0  0  0  0  0  0
   -4.3245    0.9529    0.8214 C   0  0  0  0  0  0  0  0  0  0  0  0
   -4.3890   -0.4744    0.7712 C   0  0  0  0  0  0  0  0  0  0  0  0
   -1.4411   -1.4240   -0.9724 N   0  0  0  0  0  0  0  0  0  0  0  0
   -3.0889   -2.6238   -0.0055 C   0  0  0  0  0  0  0  0  0  0  0  0
   -1.8434   -2.7220   -0.6555 C   0  0  0  0  0  0  0  0  0  0  0  0
   -1.3550    1.8527   -0.8614 N   0  0  0  0  0  0  0  0  0  0  0  0
   -1.6973    3.1562   -0.5327 C   0  0  0  0  0  0  0  0  0  0  0  0
   -2.9079    3.1034    0.1782 C   0  0  0  0  0  0  0  0  0  0  0  0
   -1.9272   -5.1334   -0.4484 C   0  0  0  0  0  0  0  0  0  0  0  0
   -1.2447   -3.9812   -0.8539 C   0  0  0  0  0  0  0  0  0  0  0  0
   -3.7558   -3.8047    0.3898 C   0  0  0  0  0  0  0  0  0  0  0  0
   -3.1721   -5.0503    0.1566 C   0  0  0  0  0  0  0  0  0  0  0  0
   -1.0487    4.3737   -0.8092 C   0  0  0  0  0  0  0  0  0  0  0  0
   -1.6354    5.5576   -0.3569 C   0  0  0  0  0  0  0  0  0  0  0  0
   -2.8319    5.5338    0.3473 C   0  0  0  0  0  0  0  0  0  0  0  0
   -3.4726    4.3202    0.6185 C   0  0  0  0  0  0  0  0  0  0  0  0
   -0.5142    0.2424   -2.3910 O   0  0  0  0  0  0  0  0  0  0  0  0
    1.1599    1.5899   -1.1252 C   0  0  0  0  0  0  0  0  0  0  0  0
    1.0168   -0.8770   -0.7196 C   0  0  2  0  0  0  0  0  0  0  0  0
    1.9097    0.2617   -1.2600 C   0  0  2  0  0  0  0  0  0  0  0  0
   -0.2457    1.4823   -1.7318 C   0  0  2  0  0  0  0  0  0  0  0  0
   -0.2215   -0.9880   -1.6762 C   0  0  1  0  0  0  0  0  0  0  0  0
    3.3009    0.2558   -0.7384 N   0  0  0  0  0  0  0  0  0  0  0  0
    3.5919    0.6757    0.5641 C   0  0  0  0  0  0  0  0  0  0  0  0
    4.3135   -0.3128   -1.6266 C   0  0  0  0  0  0  0  0  0  0  0  0
    2.8134    1.2679    1.3026 O   0  0  0  0  0  0  0  0  0  0  0  0
    4.9348    0.4053    1.1212 C   0  0  0  0  0  0  0  0  0  0  0  0
    5.3644   -0.9098    1.3332 C   0  0  0  0  0  0  0  0  0  0  0  0
    6.6273   -1.1409    1.8796 C   0  0  0  0  0  0  0  0  0  0  0  0
    7.4467   -0.0634    2.2246 C   0  0  0  0  0  0  0  0  0  0  0  0
    7.0043    1.2477    2.0352 C   0  0  0  0  0  0  0  0  0  0  0  0
    5.7427    1.4853    1.4896 C   0  0  0  0  0  0  0  0  0  0  0  0
    0.6030   -0.5281    0.6098 O   0  0  0  0  0  0  0  0  0  0  0  0
    0.9395   -1.4957    1.5913 C   0  0  0  0  0  0  0  0  0  0  0  0
   -5.5225    1.4128    1.5404 C   0  0  0  0  0  0  0  0  0  0  0  0
   -6.2438    0.2927    1.8925 N   0  0  0  0  0  0  0  0  0  0  0  0
   -5.6295   -0.9362    1.4765 C   0  0  0  0  0  0  0  0  0  0  0  0
   -5.8546    2.5529    1.7940 O   0  0  0  0  0  0  0  0  0  0  0  0
    0.1283   -1.9074   -2.8716 C   0  0  0  0  0  0  0  0  0  0  0  0
   -1.4726   -6.1088   -0.6079 H   0  0  0  0  0  0  0  0  0  0  0  0
   -0.2661   -4.0976   -1.2992 H   0  0  0  0  0  0  0  0  0  0  0  0
   -4.7179   -3.7505    0.8901 H   0  0  0  0  0  0  0  0  0  0  0  0
   -3.6890   -5.9551    0.4659 H   0  0  0  0  0  0  0  0  0  0  0  0
   -0.1103    4.4093   -1.3523 H   0  0  0  0  0  0  0  0  0  0  0  0
   -1.1483    6.5090   -0.5561 H   0  0  0  0  0  0  0  0  0  0  0  0
   -3.2777    6.4618    0.6961 H   0  0  0  0  0  0  0  0  0  0  0  0
   -4.4060    4.3269    1.1738 H   0  0  0  0  0  0  0  0  0  0  0  0
    1.0879    1.9374   -0.0908 H   0  0  0  0  0  0  0  0  0  0  0  0
    1.7256    2.3713   -1.6497 H   0  0  0  0  0  0  0  0  0  0  0  0
    1.5674   -1.8264   -0.6993 H   0  0  0  0  0  0  0  0  0  0  0  0
    2.0345    0.0974   -2.3386 H   0  0  0  0  0  0  0  0  0  0  0  0
   -0.2959    2.2187   -2.5448 H   0  0  0  0  0  0  0  0  0  0  0  0
    4.1808    0.0940   -2.6336 H   0  0  0  0  0  0  0  0  0  0  0  0
    4.1830   -1.3983   -1.6509 H   0  0  0  0  0  0  0  0  0  0  0  0
    5.3303   -0.0720   -1.3115 H   0  0  0  0  0  0  0  0  0  0  0  0
    4.7171   -1.7466    1.0866 H   0  0  0  0  0  0  0  0  0  0  0  0
    6.9710   -2.1584    2.0497 H   0  0  0  0  0  0  0  0  0  0  0  0
    8.4282   -0.2455    2.6571 H   0  0  0  0  0  0  0  0  0  0  0  0
    7.6379    2.0837    2.3226 H   0  0  0  0  0  0  0  0  0  0  0  0
    5.3851    2.5037    1.3580 H   0  0  0  0  0  0  0  0  0  0  0  0
    0.5994   -1.1320    2.5641 H   0  0  0  0  0  0  0  0  0  0  0  0
    0.4430   -2.4465    1.3810 H   0  0  0  0  0  0  0  0  0  0  0  0
    2.0221   -1.6435    1.6323 H   0  0  0  0  0  0  0  0  0  0  0  0
   -7.1094    0.3766    2.4069 H   0  0  0  0  0  0  0  0  0  0  0  0
   -5.3994   -1.5362    2.3607 H   0  0  0  0  0  0  0  0  0  0  0  0
   -6.3102   -1.4658    0.8051 H   0  0  0  0  0  0  0  0  0  0  0  0
    0.6563   -2.8153   -2.5756 H   0  0  0  0  0  0  0  0  0  0  0  0
    0.7795   -1.3925   -3.5891 H   0  0  0  0  0  0  0  0  0  0  0  0
   -0.7719   -2.1908   -3.4304 H   0  0  0  0  0  0  0  0  0  0  0  0
  6  1  2  0
  2  3  2  0
  4  5  2  0
  1  8  1  0
  2  1  1  0
  7  2  1  0
  7  9  1  0
 10  3  1  0
  4  3  1  0
 12  4  1  0
 10 11  1  0
 14  9  1  0
  9  8  2  0
  8 15  1  0
 13 14  2  0
 16 13  1  0
 15 16  2  0
 11 17  1  0
 12 11  2  0
 20 12  1  0
 17 18  2  0
 18 19  1  0
 19 20  2  0
 10 25  1  0
 25 21  1  0
  7 26  1  0
 26 21  1  0
 25 22  1  0
 26 23  1  0
 22 24  1  0
 23 24  1  0
 24 27  1  0
 27 28  1  0
 27 29  1  0
 28 30  2  0
 28 31  1  0
 32 31  2  0
 36 31  1  0
 32 33  1  0
 33 34  2  0
 34 35  1  0
 35 36  2  0
 23 37  1  0
 37 38  1  0
  5 39  1  0
  6  5  1  0
  6 41  1  0
 39 40  1  0
 40 41  1  0
 39 42  2  0
 26 43  1  6
 13 44  1  0
 14 45  1  0
 15 46  1  0
 16 47  1  0
 17 48  1  0
 18 49  1  0
 19 50  1  0
 20 51  1  0
 22 52  1  0
 22 53  1  0
 23 54  1  1
 24 55  1  6
 25 56  1  6
 29 57  1  0
 29 58  1  0
 29 59  1  0
 32 60  1  0
 33 61  1  0
 34 62  1  0
 35 63  1  0
 36 64  1  0
 38 65  1  0
 38 66  1  0
 38 67  1  0
 40 68  1  0
 41 69  1  0
 41 70  1  0
 43 71  1  0
 43 72  1  0
 43 73  1  0
M  END
$$$$
