
     RDKit          3D

 43 51  0  0  0  0  0  0  0  0999 V2000
   -2.8958   -0.8537    1.0708 C   0  0  0  0  0  0  0  0  0  0  0  0
   -1.9051   -0.6743    0.1281 C   0  0  0  0  0  0  0  0  0  0  0  0
   -1.9839    0.3950   -0.7426 C   0  0  0  0  0  0  0  0  0  0  0  0
   -3.0090    1.3036   -0.7221 C   0  0  0  0  0  0  0  0  0  0  0  0
   -3.9990    1.1266    0.2182 C   0  0  0  0  0  0  0  0  0  0  0  0
   -3.9355    0.0521    1.1056 C   0  0  0  0  0  0  0  0  0  0  0  0
   -0.9712   -1.6381    0.2276 N   0  0  0  0  0  0  0  0  0  0  0  0
   -2.5341   -1.9848    1.7703 C   0  0  0  0  0  0  0  0  0  0  0  0
   -1.3334   -2.4509    1.2242 C   0  0  0  0  0  0  0  0  0  0  0  0
   -1.0989    0.7110   -1.7210 N   0  0  0  0  0  0  0  0  0  0  0  0
   -1.5473    1.8331   -2.3440 C   0  0  0  0  0  0  0  0  0  0  0  0
   -2.7368    2.2077   -1.7271 C   0  0  0  0  0  0  0  0  0  0  0  0
   -1.3747   -4.2197    2.8000 C   0  0  0  0  0  0  0  0  0  0  0  0
   -0.7637   -3.5705    1.7489 C   0  0  0  0  0  0  0  0  0  0  0  0
   -3.1412   -2.6360    2.8199 C   0  0  0  0  0  0  0  0  0  0  0  0
   -2.5581   -3.7650    3.3422 C   0  0  0  0  0  0  0  0  0  0  0  0
   -1.0617    2.5805   -3.3828 C   0  0  0  0  0  0  0  0  0  0  0  0
   -1.7412    3.7012   -3.8227 C   0  0  0  0  0  0  0  0  0  0  0  0
   -2.9192    4.0688   -3.2085 C   0  0  0  0  0  0  0  0  0  0  0  0
   -3.4044    3.3126   -2.1627 C   0  0  0  0  0  0  0  0  0  0  0  0
    0.0673   -1.3334   -1.8854 O   0  0  0  0  0  0  0  0  0  0  0  0
    1.3126    0.6923   -1.4706 C   0  0  0  0  0  0  0  0  0  0  0  0
    1.4303   -1.1460    0.1142 C   0  0  2  0  0  0  0  0  0  0  0  0
    2.1993   -0.3850   -0.9126 C   0  0  2  0  0  0  0  0  0  0  0  0
    0.1400    0.0175   -2.1016 C   0  0  2  0  0  0  0  0  0  0  0  0
    0.2331   -1.7774   -0.6055 C   0  0  1  0  0  0  0  0  0  0  0  0
    3.4799    0.0972   -0.4852 N   0  0  0  0  0  0  0  0  0  0  0  0
    4.4813   -0.7503    0.0755 C   0  0  0  0  0  0  0  0  0  0  0  0
    3.7399    1.5330   -0.6476 C   0  0  0  0  0  0  0  0  0  0  0  0
    4.2097   -1.9747    0.1926 O   0  0  0  0  0  0  0  0  0  0  0  0
    5.7584   -0.1761    0.4842 C   0  0  0  0  0  0  0  0  0  0  0  0
    5.8703    0.7020    1.5559 C   0  0  0  0  0  0  0  0  0  0  0  0
    7.0963    1.2242    1.9136 C   0  0  0  0  0  0  0  0  0  0  0  0
    8.2602    0.9133    1.2436 C   0  0  0  0  0  0  0  0  0  0  0  0
    8.1624    0.0435    0.1786 C   0  0  0  0  0  0  0  0  0  0  0  0
    6.9361   -0.4746   -0.1741 C   0  0  0  0  0  0  0  0  0  0  0  0
    0.8812   -0.2210    1.0223 O   0  0  0  0  0  0  0  0  0  0  0  0
    1.8447    0.5292    1.6579 C   0  0  0  0  0  0  0  0  0  0  0  0
   -5.1880    1.9153    0.4740 C   0  0  0  0  0  0  0  0  0  0  0  0
   -5.8571    1.2741    1.5663 N   0  0  0  0  0  0  0  0  0  0  0  0
   -5.1186    0.1140    1.9900 C   0  0  0  0  0  0  0  0  0  0  0  0
   -5.5559    2.9522   -0.1400 O   0  0  0  0  0  0  0  0  0  0  0  0
    0.5308   -3.2684   -0.6683 C   0  0  0  0  0  0  0  0  0  0  0  0
  6  1  2  0
  2  3  2  0
  4  5  2  0
  1  8  1  0
  2  1  1  0
  7  2  1  0
  7  9  1  0
 10  3  1  0
  4  3  1  0
 12  4  1  0
 10 11  1  0
 14  9  1  0
  9  8  2  0
  8 15  1  0
 13 14  2  0
 16 13  1  0
 15 16  2  0
 11 17  1  0
 12 11  2  0
 20 12  1  0
 17 18  2  0
 18 19  1  0
 19 20  2  0
 10 25  1  0
 25 21  1  0
  7 26  1  0
 26 21  1  0
 25 22  1  1
 26 23  1  0
 22 24  1  0
 23 24  1  0
 24 27  1  1
 27 28  1  0
 27 29  1  0
 28 30  2  0
 28 31  1  0
 32 31  2  0
 36 31  1  0
 32 33  1  0
 33 34  2  0
 34 35  1  0
 35 36  2  0
 23 37  1  1
 37 38  1  0
  5 39  1  0
  6  5  1  0
  6 41  1  0
 39 40  1  0
 40 41  1  0
 39 42  2  0
 26 43  1  6
M  END
