
     RDKit          3D

 73 81  0  0  0  0  0  0  0  0999 V2000
   -3.2996   -0.9033    0.2623 C   0  0  0  0  0  0  0  0  0  0  0  0
   -2.1077   -0.3048   -0.1033 C   0  0  0  0  0  0  0  0  0  0  0  0
   -2.0457    1.2423   -0.2374 C   0  0  0  0  0  0  0  0  0  0  0  0
   -3.1468    2.0521   -0.0383 C   0  0  0  0  0  0  0  0  0  0  0  0
   -4.3147    1.3632    0.3169 C   0  0  0  0  0  0  0  0  0  0  0  0
   -4.4047   -0.0551    0.4715 C   0  0  0  0  0  0  0  0  0  0  0  0
   -1.1311   -1.2507   -0.3114 N   0  0  0  0  0  0  0  0  0  0  0  0
   -3.0432   -2.2964    0.3335 C   0  0  0  0  0  0  0  0  0  0  0  0
   -1.6930   -2.5010   -0.0029 C   0  0  0  0  0  0  0  0  0  0  0  0
   -0.9614    2.0018   -0.5260 N   0  0  0  0  0  0  0  0  0  0  0  0
   -1.3234    3.3316   -0.5818 C   0  0  0  0  0  0  0  0  0  0  0  0
   -2.6959    3.3906   -0.2722 C   0  0  0  0  0  0  0  0  0  0  0  0
   -1.9737   -4.8860    0.3515 C   0  0  0  0  0  0  0  0  0  0  0  0
   -1.1527   -3.8026    0.0134 C   0  0  0  0  0  0  0  0  0  0  0  0
   -3.8524   -3.4090    0.6635 C   0  0  0  0  0  0  0  0  0  0  0  0
   -3.3108   -4.6954    0.6677 C   0  0  0  0  0  0  0  0  0  0  0  0
   -0.5694    4.4851   -0.8680 C   0  0  0  0  0  0  0  0  0  0  0  0
   -1.2182    5.7201   -0.8486 C   0  0  0  0  0  0  0  0  0  0  0  0
   -2.5723    5.8087   -0.5444 C   0  0  0  0  0  0  0  0  0  0  0  0
   -3.3158    4.6582   -0.2534 C   0  0  0  0  0  0  0  0  0  0  0  0
    0.3020    0.2951   -1.5034 O   0  0  0  0  0  0  0  0  0  0  0  0
    1.0303    1.1954    0.6940 C   0  0  0  0  0  0  0  0  0  0  0  0
    1.4440   -1.2237    0.1218 C   0  0  2  0  0  0  0  0  0  0  0  0
    2.1043    0.1379    0.5006 C   0  0  2  0  0  0  0  0  0  0  0  0
    0.3688    1.4436   -0.6564 C   0  0  2  0  0  0  0  0  0  0  0  0
    0.2266   -1.0098   -0.8735 C   0  0  1  0  0  0  0  0  0  0  0  0
    3.0692    0.0675    1.6331 N   0  0  0  0  0  0  0  0  0  0  0  0
    4.4570   -0.0381    1.4868 C   0  0  0  0  0  0  0  0  0  0  0  0
    2.5564    0.1941    2.9989 C   0  0  0  0  0  0  0  0  0  0  0  0
    5.2577   -0.0667    2.4164 O   0  0  0  0  0  0  0  0  0  0  0  0
    5.0250   -0.0689    0.1264 C   0  0  0  0  0  0  0  0  0  0  0  0
    5.0967   -1.2671   -0.5897 C   0  0  0  0  0  0  0  0  0  0  0  0
    5.6550   -1.2657   -1.8728 C   0  0  0  0  0  0  0  0  0  0  0  0
    6.1507   -0.0758   -2.4194 C   0  0  0  0  0  0  0  0  0  0  0  0
    6.0959    1.1144   -1.6902 C   0  0  0  0  0  0  0  0  0  0  0  0
    5.5342    1.1201   -0.4103 C   0  0  0  0  0  0  0  0  0  0  0  0
    1.0314   -1.9480    1.2950 O   0  0  0  0  0  0  0  0  0  0  0  0
    1.9317   -2.9872    1.6762 C   0  0  0  0  0  0  0  0  0  0  0  0
   -5.6395    1.9201    0.6237 C   0  0  0  0  0  0  0  0  0  0  0  0
   -6.4661    0.8601    0.9329 N   0  0  0  0  0  0  0  0  0  0  0  0
   -5.8055   -0.4144    0.8806 C   0  0  0  0  0  0  0  0  0  0  0  0
   -5.9764    3.0870    0.6223 O   0  0  0  0  0  0  0  0  0  0  0  0
    0.4375   -1.9185   -2.1133 C   0  0  0  0  0  0  0  0  0  0  0  0
   -1.5531   -5.8896    0.3718 H   0  0  0  0  0  0  0  0  0  0  0  0
   -0.1098   -3.9900   -0.2096 H   0  0  0  0  0  0  0  0  0  0  0  0
   -4.8985   -3.2696    0.9214 H   0  0  0  0  0  0  0  0  0  0  0  0
   -3.9369   -5.5466    0.9281 H   0  0  0  0  0  0  0  0  0  0  0  0
    0.4867    4.4333   -1.1116 H   0  0  0  0  0  0  0  0  0  0  0  0
   -0.6573    6.6254   -1.0751 H   0  0  0  0  0  0  0  0  0  0  0  0
   -3.0608    6.7799   -0.5362 H   0  0  0  0  0  0  0  0  0  0  0  0
   -4.3741    4.7502   -0.0222 H   0  0  0  0  0  0  0  0  0  0  0  0
    0.3038    0.8698    1.4479 H   0  0  0  0  0  0  0  0  0  0  0  0
    1.4502    2.1357    1.0665 H   0  0  0  0  0  0  0  0  0  0  0  0
    2.2135   -1.8125   -0.3970 H   0  0  0  0  0  0  0  0  0  0  0  0
    2.6768    0.4538   -0.3791 H   0  0  0  0  0  0  0  0  0  0  0  0
    0.9682    2.1691   -1.2182 H   0  0  0  0  0  0  0  0  0  0  0  0
    1.6260   -0.3663    3.1120 H   0  0  0  0  0  0  0  0  0  0  0  0
    2.3669    1.2525    3.1997 H   0  0  0  0  0  0  0  0  0  0  0  0
    3.2746   -0.1740    3.7375 H   0  0  0  0  0  0  0  0  0  0  0  0
    4.7433   -2.1979   -0.1513 H   0  0  0  0  0  0  0  0  0  0  0  0
    5.7231   -2.1925   -2.4383 H   0  0  0  0  0  0  0  0  0  0  0  0
    6.6035   -0.0787   -3.4127 H   0  0  0  0  0  0  0  0  0  0  0  0
    6.5050    2.0337   -2.1112 H   0  0  0  0  0  0  0  0  0  0  0  0
    5.5077    2.0388    0.1698 H   0  0  0  0  0  0  0  0  0  0  0  0
    2.9122   -2.5834    1.9376 H   0  0  0  0  0  0  0  0  0  0  0  0
    1.5150   -3.5022    2.5485 H   0  0  0  0  0  0  0  0  0  0  0  0
    2.0406   -3.7188    0.8700 H   0  0  0  0  0  0  0  0  0  0  0  0
   -7.4293    1.0161    1.2044 H   0  0  0  0  0  0  0  0  0  0  0  0
   -6.3025   -1.0461    0.1393 H   0  0  0  0  0  0  0  0  0  0  0  0
   -5.8349   -0.8687    1.8734 H   0  0  0  0  0  0  0  0  0  0  0  0
   -0.4516   -1.9213   -2.7573 H   0  0  0  0  0  0  0  0  0  0  0  0
    0.6700   -2.9514   -1.8559 H   0  0  0  0  0  0  0  0  0  0  0  0
    1.2675   -1.5493   -2.7342 H   0  0  0  0  0  0  0  0  0  0  0  0
  6  1  2  0
  2  3  2  0
  4  5  2  0
  1  8  1  0
  2  1  1  0
  7  2  1  0
  7  9  1  0
 10  3  1  0
  4  3  1  0
 12  4  1  0
 10 11  1  0
 14  9  1  0
  9  8  2  0
  8 15  1  0
 13 14  2  0
 16 13  1  0
 15 16  2  0
 11 17  1  0
 12 11  2  0
 20 12  1  0
 17 18  2  0
 18 19  1  0
 19 20  2  0
 10 25  1  0
 25 21  1  0
  7 26  1  0
 26 21  1  0
 25 22  1  0
 26 23  1  0
 22 24  1  0
 23 24  1  0
 24 27  1  0
 27 28  1  0
 27 29  1  0
 28 30  2  0
 28 31  1  0
 32 31  2  0
 36 31  1  0
 32 33  1  0
 33 34  2  0
 34 35  1  0
 35 36  2  0
 23 37  1  0
 37 38  1  0
  5 39  1  0
  6  5  1  0
  6 41  1  0
 39 40  1  0
 40 41  1  0
 39 42  2  0
 26 43  1  6
 13 44  1  0
 14 45  1  0
 15 46  1  0
 16 47  1  0
 17 48  1  0
 18 49  1  0
 19 50  1  0
 20 51  1  0
 22 52  1  0
 22 53  1  0
 23 54  1  6
 24 55  1  6
 25 56  1  6
 29 57  1  0
 29 58  1  0
 29 59  1  0
 32 60  1  0
 33 61  1  0
 34 62  1  0
 35 63  1  0
 36 64  1  0
 38 65  1  0
 38 66  1  0
 38 67  1  0
 40 68  1  0
 41 69  1  0
 41 70  1  0
 43 71  1  0
 43 72  1  0
 43 73  1  0
M  END
$$$$
