
     RDKit          3D

 73 81  0  0  0  0  0  0  0  0999 V2000
   -3.4977   -1.0413    0.5431 C   0  0  0  0  0  0  0  0  0  0  0  0
   -2.4508   -0.4880   -0.1627 C   0  0  0  0  0  0  0  0  0  0  0  0
   -2.2690    1.0587   -0.2287 C   0  0  0  0  0  0  0  0  0  0  0  0
   -3.1527    1.9123    0.4107 C   0  0  0  0  0  0  0  0  0  0  0  0
   -4.2069    1.2722    1.0802 C   0  0  0  0  0  0  0  0  0  0  0  0
   -4.3899   -0.1439    1.1530 C   0  0  0  0  0  0  0  0  0  0  0  0
   -1.6683   -1.4761   -0.7039 N   0  0  0  0  0  0  0  0  0  0  0  0
   -3.3259   -2.4512    0.4754 C   0  0  0  0  0  0  0  0  0  0  0  0
   -2.1421   -2.7052   -0.2440 C   0  0  0  0  0  0  0  0  0  0  0  0
   -1.3044    1.7788   -0.8629 N   0  0  0  0  0  0  0  0  0  0  0  0
   -1.5149    3.1284   -0.6222 C   0  0  0  0  0  0  0  0  0  0  0  0
   -2.6721    3.2358    0.1676 C   0  0  0  0  0  0  0  0  0  0  0  0
   -2.3900   -5.0752    0.1850 C   0  0  0  0  0  0  0  0  0  0  0  0
   -1.6537   -4.0205   -0.3654 C   0  0  0  0  0  0  0  0  0  0  0  0
   -4.0504   -3.5367    1.0165 C   0  0  0  0  0  0  0  0  0  0  0  0
   -3.5798   -4.8408    0.8580 C   0  0  0  0  0  0  0  0  0  0  0  0
   -0.7906    4.2598   -1.0399 C   0  0  0  0  0  0  0  0  0  0  0  0
   -1.2455    5.5213   -0.6502 C   0  0  0  0  0  0  0  0  0  0  0  0
   -2.3868    5.6561    0.1293 C   0  0  0  0  0  0  0  0  0  0  0  0
   -3.1034    4.5274    0.5410 C   0  0  0  0  0  0  0  0  0  0  0  0
   -0.7133   -0.0058   -2.3115 O   0  0  0  0  0  0  0  0  0  0  0  0
    1.1545    1.2638   -1.2511 C   0  0  0  0  0  0  0  0  0  0  0  0
    0.8385   -1.1521   -0.6794 C   0  0  2  0  0  0  0  0  0  0  0  0
    1.7800   -0.1306   -1.3541 C   0  0  2  0  0  0  0  0  0  0  0  0
   -0.2914    1.2457   -1.7650 C   0  0  2  0  0  0  0  0  0  0  0  0
   -0.4770   -1.2066   -1.5294 C   0  0  1  0  0  0  0  0  0  0  0  0
    3.2024   -0.2264   -0.9397 N   0  0  0  0  0  0  0  0  0  0  0  0
    3.6664    0.3667    0.2388 C   0  0  0  0  0  0  0  0  0  0  0  0
    4.0322   -1.1237   -1.7420 C   0  0  0  0  0  0  0  0  0  0  0  0
    2.9557    0.9027    1.0809 O   0  0  0  0  0  0  0  0  0  0  0  0
    5.1226    0.3865    0.5056 C   0  0  0  0  0  0  0  0  0  0  0  0
    6.0055    0.9864   -0.4004 C   0  0  0  0  0  0  0  0  0  0  0  0
    7.3707    1.0170   -0.1144 C   0  0  0  0  0  0  0  0  0  0  0  0
    7.8469    0.4646    1.0765 C   0  0  0  0  0  0  0  0  0  0  0  0
    6.9611   -0.1116    1.9899 C   0  0  0  0  0  0  0  0  0  0  0  0
    5.5951   -0.1441    1.7101 C   0  0  0  0  0  0  0  0  0  0  0  0
    0.5551   -0.6986    0.6527 O   0  0  0  0  0  0  0  0  0  0  0  0
    1.0084   -1.5836    1.6655 C   0  0  0  0  0  0  0  0  0  0  0  0
   -5.3052    1.8875    1.8407 C   0  0  0  0  0  0  0  0  0  0  0  0
   -6.0859    0.8644    2.3332 N   0  0  0  0  0  0  0  0  0  0  0  0
   -5.6053   -0.4412    1.9799 C   0  0  0  0  0  0  0  0  0  0  0  0
   -5.5232    3.0679    2.0236 O   0  0  0  0  0  0  0  0  0  0  0  0
   -0.3128   -2.2347   -2.6753 C   0  0  0  0  0  0  0  0  0  0  0  0
   -2.0216   -6.0941    0.0864 H   0  0  0  0  0  0  0  0  0  0  0  0
   -0.7184   -4.2506   -0.8574 H   0  0  0  0  0  0  0  0  0  0  0  0
   -4.9666   -3.3627    1.5724 H   0  0  0  0  0  0  0  0  0  0  0  0
   -4.1397   -5.6716    1.2800 H   0  0  0  0  0  0  0  0  0  0  0  0
    0.1062    4.1722   -1.6441 H   0  0  0  0  0  0  0  0  0  0  0  0
   -0.6978    6.4086   -0.9582 H   0  0  0  0  0  0  0  0  0  0  0  0
   -2.7297    6.6435    0.4272 H   0  0  0  0  0  0  0  0  0  0  0  0
   -3.9916    4.6583    1.1524 H   0  0  0  0  0  0  0  0  0  0  0  0
    1.7473    1.9657   -1.8522 H   0  0  0  0  0  0  0  0  0  0  0  0
    1.1794    1.6683   -0.2354 H   0  0  0  0  0  0  0  0  0  0  0  0
    1.2992   -2.1472   -0.6400 H   0  0  0  0  0  0  0  0  0  0  0  0
    1.8168   -0.3614   -2.4284 H   0  0  0  0  0  0  0  0  0  0  0  0
   -0.3275    1.9236   -2.6279 H   0  0  0  0  0  0  0  0  0  0  0  0
    4.2792   -0.6181   -2.6800 H   0  0  0  0  0  0  0  0  0  0  0  0
    4.9491   -1.4232   -1.2322 H   0  0  0  0  0  0  0  0  0  0  0  0
    3.4661   -2.0346   -1.9618 H   0  0  0  0  0  0  0  0  0  0  0  0
    5.6324    1.4412   -1.3141 H   0  0  0  0  0  0  0  0  0  0  0  0
    8.0636    1.4856   -0.8100 H   0  0  0  0  0  0  0  0  0  0  0  0
    8.9103    0.4983    1.3024 H   0  0  0  0  0  0  0  0  0  0  0  0
    7.3332   -0.5208    2.9255 H   0  0  0  0  0  0  0  0  0  0  0  0
    4.8992   -0.5697    2.4294 H   0  0  0  0  0  0  0  0  0  0  0  0
    0.4771   -2.5372    1.6022 H   0  0  0  0  0  0  0  0  0  0  0  0
    2.0861   -1.7524    1.5843 H   0  0  0  0  0  0  0  0  0  0  0  0
    0.7970   -1.1311    2.6378 H   0  0  0  0  0  0  0  0  0  0  0  0
   -6.8982    1.0614    2.9010 H   0  0  0  0  0  0  0  0  0  0  0  0
   -6.3753   -0.9610    1.4045 H   0  0  0  0  0  0  0  0  0  0  0  0
   -5.3567   -0.9879    2.8931 H   0  0  0  0  0  0  0  0  0  0  0  0
   -1.2773   -2.4575   -3.1475 H   0  0  0  0  0  0  0  0  0  0  0  0
    0.1416   -3.1725   -2.3524 H   0  0  0  0  0  0  0  0  0  0  0  0
    0.3301   -1.8390   -3.4717 H   0  0  0  0  0  0  0  0  0  0  0  0
  6  1  2  0
  2  3  2  0
  4  5  2  0
  1  8  1  0
  2  1  1  0
  7  2  1  0
  7  9  1  0
 10  3  1  0
  4  3  1  0
 12  4  1  0
 10 11  1  0
 14  9  1  0
  9  8  2  0
  8 15  1  0
 13 14  2  0
 16 13  1  0
 15 16  2  0
 11 17  1  0
 12 11  2  0
 20 12  1  0
 17 18  2  0
 18 19  1  0
 19 20  2  0
 10 25  1  0
 25 21  1  0
  7 26  1  0
 26 21  1  0
 25 22  1  0
 26 23  1  0
 22 24  1  0
 23 24  1  0
 24 27  1  0
 27 28  1  0
 27 29  1  0
 28 30  2  0
 28 31  1  0
 32 31  2  0
 36 31  1  0
 32 33  1  0
 33 34  2  0
 34 35  1  0
 35 36  2  0
 23 37  1  0
 37 38  1  0
  5 39  1  0
  6  5  1  0
  6 41  1  0
 39 40  1  0
 40 41  1  0
 39 42  2  0
 26 43  1  6
 13 44  1  0
 14 45  1  0
 15 46  1  0
 16 47  1  0
 17 48  1  0
 18 49  1  0
 19 50  1  0
 20 51  1  0
 22 52  1  0
 22 53  1  0
 23 54  1  1
 24 55  1  6
 25 56  1  6
 29 57  1  0
 29 58  1  0
 29 59  1  0
 32 60  1  0
 33 61  1  0
 34 62  1  0
 35 63  1  0
 36 64  1  0
 38 65  1  0
 38 66  1  0
 38 67  1  0
 40 68  1  0
 41 69  1  0
 41 70  1  0
 43 71  1  0
 43 72  1  0
 43 73  1  0
M  END
$$$$
