
     RDKit          3D

 73 81  0  0  0  0  0  0  0  0999 V2000
   -3.0224   -0.7257   -1.1075 C   0  0  0  0  0  0  0  0  0  0  0  0
   -1.8643   -0.0351   -0.8226 C   0  0  0  0  0  0  0  0  0  0  0  0
   -1.9209    1.3142   -0.0425 C   0  0  0  0  0  0  0  0  0  0  0  0
   -3.1268    1.8426    0.3900 C   0  0  0  0  0  0  0  0  0  0  0  0
   -4.2564    1.0774    0.0612 C   0  0  0  0  0  0  0  0  0  0  0  0
   -4.2261   -0.1550   -0.6611 C   0  0  0  0  0  0  0  0  0  0  0  0
   -0.7701   -0.7283   -1.2816 N   0  0  0  0  0  0  0  0  0  0  0  0
   -2.6276   -1.9051   -1.7955 C   0  0  0  0  0  0  0  0  0  0  0  0
   -1.2208   -1.9111   -1.8713 C   0  0  0  0  0  0  0  0  0  0  0  0
   -0.9004    2.1380    0.3175 N   0  0  0  0  0  0  0  0  0  0  0  0
   -1.4157    3.2281    1.0040 C   0  0  0  0  0  0  0  0  0  0  0  0
   -2.8091    3.0621    1.0639 C   0  0  0  0  0  0  0  0  0  0  0  0
   -1.3003   -4.0680   -2.9795 C   0  0  0  0  0  0  0  0  0  0  0  0
   -0.5534   -3.0079   -2.4516 C   0  0  0  0  0  0  0  0  0  0  0  0
   -3.3559   -2.9900   -2.3350 C   0  0  0  0  0  0  0  0  0  0  0  0
   -2.6845   -4.0595   -2.9278 C   0  0  0  0  0  0  0  0  0  0  0  0
   -0.7739    4.3457    1.5698 C   0  0  0  0  0  0  0  0  0  0  0  0
   -1.5574    5.3105    2.2073 C   0  0  0  0  0  0  0  0  0  0  0  0
   -2.9365    5.1703    2.2816 C   0  0  0  0  0  0  0  0  0  0  0  0
   -3.5688    4.0575    1.7169 C   0  0  0  0  0  0  0  0  0  0  0  0
    0.6542    1.1597   -1.1887 O   0  0  0  0  0  0  0  0  0  0  0  0
    1.4144    1.5735    1.1496 C   0  0  0  0  0  0  0  0  0  0  0  0
    1.1751   -0.7883    0.3464 C   0  0  2  0  0  0  0  0  0  0  0  0
    2.1746    0.2781    0.8522 C   0  0  2  0  0  0  0  0  0  0  0  0
    0.5077    1.9686   -0.0235 C   0  0  2  0  0  0  0  0  0  0  0  0
    0.6131   -0.2834   -1.0345 C   0  0  1  0  0  0  0  0  0  0  0  0
    3.0393   -0.1960    1.9718 N   0  0  0  0  0  0  0  0  0  0  0  0
    4.1474   -1.0311    1.7349 C   0  0  0  0  0  0  0  0  0  0  0  0
    2.4621   -0.3242    3.3064 C   0  0  0  0  0  0  0  0  0  0  0  0
    4.5704   -1.8509    2.5461 O   0  0  0  0  0  0  0  0  0  0  0  0
    4.8690   -0.9160    0.4473 C   0  0  0  0  0  0  0  0  0  0  0  0
    5.0413   -2.0555   -0.3449 C   0  0  0  0  0  0  0  0  0  0  0  0
    5.7284   -1.9546   -1.5572 C   0  0  0  0  0  0  0  0  0  0  0  0
    6.2522   -0.7232   -1.9623 C   0  0  0  0  0  0  0  0  0  0  0  0
    6.1017    0.4078   -1.1562 C   0  0  0  0  0  0  0  0  0  0  0  0
    5.4167    0.3123    0.0565 C   0  0  0  0  0  0  0  0  0  0  0  0
    0.1548   -0.9026    1.3588 O   0  0  0  0  0  0  0  0  0  0  0  0
   -0.2232   -2.2459    1.6354 C   0  0  0  0  0  0  0  0  0  0  0  0
   -5.6647    1.3536    0.3833 C   0  0  0  0  0  0  0  0  0  0  0  0
   -6.4143    0.3194   -0.1339 N   0  0  0  0  0  0  0  0  0  0  0  0
   -5.6259   -0.6775   -0.8024 C   0  0  0  0  0  0  0  0  0  0  0  0
   -6.1216    2.2997    0.9921 O   0  0  0  0  0  0  0  0  0  0  0  0
    1.5966   -0.6967   -2.1569 C   0  0  0  0  0  0  0  0  0  0  0  0
   -0.7855   -4.9112   -3.4356 H   0  0  0  0  0  0  0  0  0  0  0  0
    0.5240   -3.0742   -2.5114 H   0  0  0  0  0  0  0  0  0  0  0  0
   -4.4412   -3.0031   -2.2863 H   0  0  0  0  0  0  0  0  0  0  0  0
   -3.2501   -4.8910   -3.3397 H   0  0  0  0  0  0  0  0  0  0  0  0
    0.3028    4.4741    1.5224 H   0  0  0  0  0  0  0  0  0  0  0  0
   -1.0813    6.1815    2.6513 H   0  0  0  0  0  0  0  0  0  0  0  0
   -3.5343    5.9297    2.7802 H   0  0  0  0  0  0  0  0  0  0  0  0
   -4.6491    3.9728    1.7854 H   0  0  0  0  0  0  0  0  0  0  0  0
    0.8202    1.5065    2.0693 H   0  0  0  0  0  0  0  0  0  0  0  0
    2.1422    2.3768    1.3366 H   0  0  0  0  0  0  0  0  0  0  0  0
    1.6717   -1.7599    0.2273 H   0  0  0  0  0  0  0  0  0  0  0  0
    2.8516    0.5071    0.0263 H   0  0  0  0  0  0  0  0  0  0  0  0
    0.8226    2.9658   -0.3564 H   0  0  0  0  0  0  0  0  0  0  0  0
    1.8586   -1.2346    3.3598 H   0  0  0  0  0  0  0  0  0  0  0  0
    3.2644   -0.4037    4.0500 H   0  0  0  0  0  0  0  0  0  0  0  0
    1.8643    0.5498    3.5690 H   0  0  0  0  0  0  0  0  0  0  0  0
    4.6556   -3.0155   -0.0127 H   0  0  0  0  0  0  0  0  0  0  0  0
    5.8702   -2.8370   -2.1766 H   0  0  0  0  0  0  0  0  0  0  0  0
    6.7974   -0.6485   -2.9025 H   0  0  0  0  0  0  0  0  0  0  0  0
    6.5258    1.3601   -1.4658 H   0  0  0  0  0  0  0  0  0  0  0  0
    5.3163    1.1876    0.6952 H   0  0  0  0  0  0  0  0  0  0  0  0
   -0.6463   -2.7316    0.7537 H   0  0  0  0  0  0  0  0  0  0  0  0
   -0.9862   -2.2326    2.4217 H   0  0  0  0  0  0  0  0  0  0  0  0
    0.6359   -2.8198    1.9994 H   0  0  0  0  0  0  0  0  0  0  0  0
   -7.4177    0.2986   -0.0189 H   0  0  0  0  0  0  0  0  0  0  0  0
   -5.7565   -1.6357   -0.2922 H   0  0  0  0  0  0  0  0  0  0  0  0
   -5.9388   -0.7380   -1.8482 H   0  0  0  0  0  0  0  0  0  0  0  0
    1.1395   -0.5872   -3.1470 H   0  0  0  0  0  0  0  0  0  0  0  0
    1.9592   -1.7202   -2.0454 H   0  0  0  0  0  0  0  0  0  0  0  0
    2.4868   -0.0540   -2.1653 H   0  0  0  0  0  0  0  0  0  0  0  0
  6  1  2  0
  2  3  2  0
  4  5  2  0
  1  8  1  0
  2  1  1  0
  7  2  1  0
  7  9  1  0
 10  3  1  0
  4  3  1  0
 12  4  1  0
 10 11  1  0
 14  9  1  0
  9  8  2  0
  8 15  1  0
 13 14  2  0
 16 13  1  0
 15 16  2  0
 11 17  1  0
 12 11  2  0
 20 12  1  0
 17 18  2  0
 18 19  1  0
 19 20  2  0
 10 25  1  0
 25 21  1  0
  7 26  1  0
 26 21  1  0
 25 22  1  0
 26 23  1  0
 22 24  1  0
 23 24  1  0
 24 27  1  0
 27 28  1  0
 27 29  1  0
 28 30  2  0
 28 31  1  0
 32 31  2  0
 36 31  1  0
 32 33  1  0
 33 34  2  0
 34 35  1  0
 35 36  2  0
 23 37  1  0
 37 38  1  0
  5 39  1  0
  6  5  1  0
  6 41  1  0
 39 40  1  0
 40 41  1  0
 39 42  2  0
 26 43  1  6
 13 44  1  0
 14 45  1  0
 15 46  1  0
 16 47  1  0
 17 48  1  0
 18 49  1  0
 19 50  1  0
 20 51  1  0
 22 52  1  0
 22 53  1  0
 23 54  1  6
 24 55  1  6
 25 56  1  6
 29 57  1  0
 29 58  1  0
 29 59  1  0
 32 60  1  0
 33 61  1  0
 34 62  1  0
 35 63  1  0
 36 64  1  0
 38 65  1  0
 38 66  1  0
 38 67  1  0
 40 68  1  0
 41 69  1  0
 41 70  1  0
 43 71  1  0
 43 72  1  0
 43 73  1  0
M  END
$$$$
