
     RDKit          3D

 73 81  0  0  0  0  0  0  0  0999 V2000
   -3.2699   -1.6391    0.1556 C   0  0  0  0  0  0  0  0  0  0  0  0
   -2.2893   -0.7988   -0.3259 C   0  0  0  0  0  0  0  0  0  0  0  0
   -2.4570    0.7491   -0.2366 C   0  0  0  0  0  0  0  0  0  0  0  0
   -3.5852    1.3159    0.3329 C   0  0  0  0  0  0  0  0  0  0  0  0
   -4.5452    0.3932    0.7765 C   0  0  0  0  0  0  0  0  0  0  0  0
   -4.4140   -1.0280    0.6948 C   0  0  0  0  0  0  0  0  0  0  0  0
   -1.2332   -1.5289   -0.8125 N   0  0  0  0  0  0  0  0  0  0  0  0
   -2.7823   -2.9636   -0.0150 C   0  0  0  0  0  0  0  0  0  0  0  0
   -1.4882   -2.8781   -0.5645 C   0  0  0  0  0  0  0  0  0  0  0  0
   -1.6121    1.7261   -0.6637 N   0  0  0  0  0  0  0  0  0  0  0  0
   -2.1485    2.9634   -0.3386 C   0  0  0  0  0  0  0  0  0  0  0  0
   -3.3875    2.7304    0.2819 C   0  0  0  0  0  0  0  0  0  0  0  0
   -1.2715   -5.2863   -0.4196 C   0  0  0  0  0  0  0  0  0  0  0  0
   -0.7176   -4.0432   -0.7443 C   0  0  0  0  0  0  0  0  0  0  0  0
   -3.3163   -4.2332    0.3002 C   0  0  0  0  0  0  0  0  0  0  0  0
   -2.5583   -5.3848    0.0870 C   0  0  0  0  0  0  0  0  0  0  0  0
   -1.6537    4.2635   -0.5495 C   0  0  0  0  0  0  0  0  0  0  0  0
   -2.4245    5.3459   -0.1196 C   0  0  0  0  0  0  0  0  0  0  0  0
   -3.6522    5.1439    0.4974 C   0  0  0  0  0  0  0  0  0  0  0  0
   -4.1407    3.8490    0.7004 C   0  0  0  0  0  0  0  0  0  0  0  0
   -0.4234    0.2750   -2.1184 O   0  0  0  0  0  0  0  0  0  0  0  0
    0.9175    1.8333   -0.7103 C   0  0  0  0  0  0  0  0  0  0  0  0
    1.0651   -0.6276   -0.2849 C   0  0  2  0  0  0  0  0  0  0  0  0
    1.8554    0.6241   -0.7239 C   0  0  2  0  0  0  0  0  0  0  0  0
   -0.3948    1.5305   -1.4441 C   0  0  2  0  0  0  0  0  0  0  0  0
   -0.0213   -0.9082   -1.3783 C   0  0  1  0  0  0  0  0  0  0  0  0
    3.1165    0.8110    0.0327 N   0  0  0  0  0  0  0  0  0  0  0  0
    4.1836   -0.0243   -0.3222 C   0  0  0  0  0  0  0  0  0  0  0  0
    3.0968    1.6010    1.2638 C   0  0  0  0  0  0  0  0  0  0  0  0
    4.0582   -0.9514   -1.1220 O   0  0  0  0  0  0  0  0  0  0  0  0
    5.5254    0.2143    0.2567 C   0  0  0  0  0  0  0  0  0  0  0  0
    6.1102    1.4856    0.2123 C   0  0  0  0  0  0  0  0  0  0  0  0
    7.3866    1.6783    0.7423 C   0  0  0  0  0  0  0  0  0  0  0  0
    8.0813    0.6028    1.2983 C   0  0  0  0  0  0  0  0  0  0  0  0
    7.5091   -0.6707    1.3161 C   0  0  0  0  0  0  0  0  0  0  0  0
    6.2328   -0.8687    0.7885 C   0  0  0  0  0  0  0  0  0  0  0  0
    0.4812   -0.3143    0.9998 O   0  0  0  0  0  0  0  0  0  0  0  0
    0.7239   -1.3154    1.9803 C   0  0  0  0  0  0  0  0  0  0  0  0
   -5.8431    0.6699    1.4102 C   0  0  0  0  0  0  0  0  0  0  0  0
   -6.4322   -0.5449    1.6843 N   0  0  0  0  0  0  0  0  0  0  0  0
   -5.6332   -1.6700    1.2878 C   0  0  0  0  0  0  0  0  0  0  0  0
   -6.3387    1.7495    1.6623 O   0  0  0  0  0  0  0  0  0  0  0  0
    0.6004   -1.7406   -2.5243 C   0  0  0  0  0  0  0  0  0  0  0  0
   -0.6812   -6.1884   -0.5663 H   0  0  0  0  0  0  0  0  0  0  0  0
    0.2979   -4.0197   -1.1169 H   0  0  0  0  0  0  0  0  0  0  0  0
   -4.3129   -4.3210    0.7217 H   0  0  0  0  0  0  0  0  0  0  0  0
   -2.9730   -6.3590    0.3328 H   0  0  0  0  0  0  0  0  0  0  0  0
   -0.6983    4.4394   -1.0330 H   0  0  0  0  0  0  0  0  0  0  0  0
   -2.0612    6.3592   -0.2720 H   0  0  0  0  0  0  0  0  0  0  0  0
   -4.2448    5.9942    0.8250 H   0  0  0  0  0  0  0  0  0  0  0  0
   -5.1051    3.7168    1.1830 H   0  0  0  0  0  0  0  0  0  0  0  0
    1.4224    2.6752   -1.2022 H   0  0  0  0  0  0  0  0  0  0  0  0
    0.7085    2.1831    0.3073 H   0  0  0  0  0  0  0  0  0  0  0  0
    1.7207   -1.5001   -0.1767 H   0  0  0  0  0  0  0  0  0  0  0  0
    2.1777    0.4775   -1.7639 H   0  0  0  0  0  0  0  0  0  0  0  0
   -0.4844    2.2645   -2.2558 H   0  0  0  0  0  0  0  0  0  0  0  0
    3.0198    2.6588    0.9982 H   0  0  0  0  0  0  0  0  0  0  0  0
    3.9886    1.4478    1.8729 H   0  0  0  0  0  0  0  0  0  0  0  0
    2.2390    1.3121    1.8746 H   0  0  0  0  0  0  0  0  0  0  0  0
    5.5823    2.3206   -0.2405 H   0  0  0  0  0  0  0  0  0  0  0  0
    7.8443    2.6647    0.7159 H   0  0  0  0  0  0  0  0  0  0  0  0
    9.0780    0.7539    1.7067 H   0  0  0  0  0  0  0  0  0  0  0  0
    8.0608   -1.5094    1.7340 H   0  0  0  0  0  0  0  0  0  0  0  0
    5.7927   -1.8631    0.7876 H   0  0  0  0  0  0  0  0  0  0  0  0
    0.3327   -2.2838    1.6605 H   0  0  0  0  0  0  0  0  0  0  0  0
    0.2162   -1.0209    2.9024 H   0  0  0  0  0  0  0  0  0  0  0  0
    1.7966   -1.3930    2.1821 H   0  0  0  0  0  0  0  0  0  0  0  0
   -7.3414   -0.5918    2.1234 H   0  0  0  0  0  0  0  0  0  0  0  0
   -5.3943   -2.2662    2.1726 H   0  0  0  0  0  0  0  0  0  0  0  0
   -6.1861   -2.2588    0.5513 H   0  0  0  0  0  0  0  0  0  0  0  0
   -0.1742   -2.1535   -3.1812 H   0  0  0  0  0  0  0  0  0  0  0  0
    1.2304   -2.5571   -2.1673 H   0  0  0  0  0  0  0  0  0  0  0  0
    1.2380   -1.1176   -3.1642 H   0  0  0  0  0  0  0  0  0  0  0  0
  6  1  2  0
  2  3  2  0
  4  5  2  0
  1  8  1  0
  2  1  1  0
  7  2  1  0
  7  9  1  0
 10  3  1  0
  4  3  1  0
 12  4  1  0
 10 11  1  0
 14  9  1  0
  9  8  2  0
  8 15  1  0
 13 14  2  0
 16 13  1  0
 15 16  2  0
 11 17  1  0
 12 11  2  0
 20 12  1  0
 17 18  2  0
 18 19  1  0
 19 20  2  0
 10 25  1  0
 25 21  1  0
  7 26  1  0
 26 21  1  0
 25 22  1  0
 26 23  1  0
 22 24  1  0
 23 24  1  0
 24 27  1  0
 27 28  1  0
 27 29  1  0
 28 30  2  0
 28 31  1  0
 32 31  2  0
 36 31  1  0
 32 33  1  0
 33 34  2  0
 34 35  1  0
 35 36  2  0
 23 37  1  0
 37 38  1  0
  5 39  1  0
  6  5  1  0
  6 41  1  0
 39 40  1  0
 40 41  1  0
 39 42  2  0
 26 43  1  6
 13 44  1  0
 14 45  1  0
 15 46  1  0
 16 47  1  0
 17 48  1  0
 18 49  1  0
 19 50  1  0
 20 51  1  0
 22 52  1  0
 22 53  1  0
 23 54  1  1
 24 55  1  6
 25 56  1  6
 29 57  1  0
 29 58  1  0
 29 59  1  0
 32 60  1  0
 33 61  1  0
 34 62  1  0
 35 63  1  0
 36 64  1  0
 38 65  1  0
 38 66  1  0
 38 67  1  0
 40 68  1  0
 41 69  1  0
 41 70  1  0
 43 71  1  0
 43 72  1  0
 43 73  1  0
M  END
$$$$
