
     RDKit          3D

 73 81  0  0  0  0  0  0  0  0999 V2000
   -3.4014   -1.2971    0.5943 C   0  0  0  0  0  0  0  0  0  0  0  0
   -2.4038   -0.6524   -0.1080 C   0  0  0  0  0  0  0  0  0  0  0  0
   -2.4164    0.8981   -0.2511 C   0  0  0  0  0  0  0  0  0  0  0  0
   -3.4221    1.6672    0.3098 C   0  0  0  0  0  0  0  0  0  0  0  0
   -4.4184    0.9328    0.9712 C   0  0  0  0  0  0  0  0  0  0  0  0
   -4.4268   -0.4907    1.1170 C   0  0  0  0  0  0  0  0  0  0  0  0
   -1.4947   -1.5628   -0.5808 N   0  0  0  0  0  0  0  0  0  0  0  0
   -3.0480   -2.6744    0.6203 C   0  0  0  0  0  0  0  0  0  0  0  0
   -1.8141   -2.8105   -0.0416 C   0  0  0  0  0  0  0  0  0  0  0  0
   -1.5262    1.6989   -0.8930 N   0  0  0  0  0  0  0  0  0  0  0  0
   -1.8944    3.0224   -0.7178 C   0  0  0  0  0  0  0  0  0  0  0  0
   -3.0889    3.0277    0.0212 C   0  0  0  0  0  0  0  0  0  0  0  0
   -1.7530   -5.1567    0.5425 C   0  0  0  0  0  0  0  0  0  0  0  0
   -1.1435   -4.0481   -0.0539 C   0  0  0  0  0  0  0  0  0  0  0  0
   -3.6441   -3.8126    1.2051 C   0  0  0  0  0  0  0  0  0  0  0  0
   -2.9947   -5.0472    1.1497 C   0  0  0  0  0  0  0  0  0  0  0  0
   -1.2801    4.2100   -1.1492 C   0  0  0  0  0  0  0  0  0  0  0  0
   -1.8876    5.4263   -0.8301 C   0  0  0  0  0  0  0  0  0  0  0  0
   -3.0719    5.4598   -0.1054 C   0  0  0  0  0  0  0  0  0  0  0  0
   -3.6777    4.2746    0.3220 C   0  0  0  0  0  0  0  0  0  0  0  0
   -0.7036   -0.0557   -2.2514 O   0  0  0  0  0  0  0  0  0  0  0  0
    0.9726    1.3788   -1.0990 C   0  0  0  0  0  0  0  0  0  0  0  0
    1.0054   -1.0843   -0.6930 C   0  0  2  0  0  0  0  0  0  0  0  0
    1.7755    0.0963   -1.3302 C   0  0  2  0  0  0  0  0  0  0  0  0
   -0.4187    1.2382   -1.7171 C   0  0  2  0  0  0  0  0  0  0  0  0
   -0.3606   -1.2243   -1.4593 C   0  0  1  0  0  0  0  0  0  0  0  0
    3.2184    0.1762   -0.9870 N   0  0  0  0  0  0  0  0  0  0  0  0
    3.6539    0.7802    0.1967 C   0  0  0  0  0  0  0  0  0  0  0  0
    4.1287   -0.5202   -1.8973 C   0  0  0  0  0  0  0  0  0  0  0  0
    2.9343    1.3577    1.0029 O   0  0  0  0  0  0  0  0  0  0  0  0
    5.0960    0.7651    0.5099 C   0  0  0  0  0  0  0  0  0  0  0  0
    5.7036   -0.3970    0.9944 C   0  0  0  0  0  0  0  0  0  0  0  0
    7.0674   -0.3830    1.2916 C   0  0  0  0  0  0  0  0  0  0  0  0
    7.8112    0.7861    1.1134 C   0  0  0  0  0  0  0  0  0  0  0  0
    7.1937    1.9492    0.6493 C   0  0  0  0  0  0  0  0  0  0  0  0
    5.8308    1.9436    0.3514 C   0  0  0  0  0  0  0  0  0  0  0  0
    0.7696   -0.8010    0.6966 O   0  0  0  0  0  0  0  0  0  0  0  0
    1.4958   -1.6391    1.5834 C   0  0  0  0  0  0  0  0  0  0  0  0
   -5.6204    1.4424    1.6474 C   0  0  0  0  0  0  0  0  0  0  0  0
   -6.2903    0.3546    2.1635 N   0  0  0  0  0  0  0  0  0  0  0  0
   -5.6337   -0.8972    1.9096 C   0  0  0  0  0  0  0  0  0  0  0  0
   -5.9925    2.5939    1.7485 O   0  0  0  0  0  0  0  0  0  0  0  0
   -0.2007   -2.2568   -2.6026 C   0  0  0  0  0  0  0  0  0  0  0  0
   -1.2429   -6.1176    0.5331 H   0  0  0  0  0  0  0  0  0  0  0  0
   -0.1597   -4.1691   -0.4860 H   0  0  0  0  0  0  0  0  0  0  0  0
   -4.5963   -3.7306    1.7179 H   0  0  0  0  0  0  0  0  0  0  0  0
   -3.4544   -5.9193    1.6064 H   0  0  0  0  0  0  0  0  0  0  0  0
   -0.3502    4.2007   -1.7076 H   0  0  0  0  0  0  0  0  0  0  0  0
   -1.4274    6.3563   -1.1525 H   0  0  0  0  0  0  0  0  0  0  0  0
   -3.5368    6.4111    0.1386 H   0  0  0  0  0  0  0  0  0  0  0  0
   -4.6012    4.3272    0.8915 H   0  0  0  0  0  0  0  0  0  0  0  0
    0.8727    1.6216   -0.0347 H   0  0  0  0  0  0  0  0  0  0  0  0
    1.4914    2.2379   -1.5471 H   0  0  0  0  0  0  0  0  0  0  0  0
    1.5822   -2.0162   -0.7848 H   0  0  0  0  0  0  0  0  0  0  0  0
    1.7823   -0.0648   -2.4170 H   0  0  0  0  0  0  0  0  0  0  0  0
   -0.4467    1.8895   -2.6008 H   0  0  0  0  0  0  0  0  0  0  0  0
    3.8551   -0.2920   -2.9319 H   0  0  0  0  0  0  0  0  0  0  0  0
    5.1695   -0.2210   -1.7670 H   0  0  0  0  0  0  0  0  0  0  0  0
    4.0355   -1.5944   -1.7199 H   0  0  0  0  0  0  0  0  0  0  0  0
    5.1208   -1.2998    1.1507 H   0  0  0  0  0  0  0  0  0  0  0  0
    7.5501   -1.2804    1.6711 H   0  0  0  0  0  0  0  0  0  0  0  0
    8.8719    0.7969    1.3541 H   0  0  0  0  0  0  0  0  0  0  0  0
    7.7701    2.8618    0.5297 H   0  0  0  0  0  0  0  0  0  0  0  0
    5.3440    2.8520    0.0072 H   0  0  0  0  0  0  0  0  0  0  0  0
    2.5717   -1.5534    1.4077 H   0  0  0  0  0  0  0  0  0  0  0  0
    1.2789   -1.3296    2.6121 H   0  0  0  0  0  0  0  0  0  0  0  0
    1.1854   -2.6815    1.4636 H   0  0  0  0  0  0  0  0  0  0  0  0
   -7.1538    0.4747    2.6752 H   0  0  0  0  0  0  0  0  0  0  0  0
   -6.3026   -1.5418    1.3355 H   0  0  0  0  0  0  0  0  0  0  0  0
   -5.3642   -1.3556    2.8640 H   0  0  0  0  0  0  0  0  0  0  0  0
   -1.1577   -2.4372   -3.1074 H   0  0  0  0  0  0  0  0  0  0  0  0
    0.2006   -3.2177   -2.2772 H   0  0  0  0  0  0  0  0  0  0  0  0
    0.4837   -1.8766   -3.3687 H   0  0  0  0  0  0  0  0  0  0  0  0
  6  1  2  0
  2  3  2  0
  4  5  2  0
  1  8  1  0
  2  1  1  0
  7  2  1  0
  7  9  1  0
 10  3  1  0
  4  3  1  0
 12  4  1  0
 10 11  1  0
 14  9  1  0
  9  8  2  0
  8 15  1  0
 13 14  2  0
 16 13  1  0
 15 16  2  0
 11 17  1  0
 12 11  2  0
 20 12  1  0
 17 18  2  0
 18 19  1  0
 19 20  2  0
 10 25  1  0
 25 21  1  0
  7 26  1  0
 26 21  1  0
 25 22  1  0
 26 23  1  0
 22 24  1  0
 23 24  1  0
 24 27  1  0
 27 28  1  0
 27 29  1  0
 28 30  2  0
 28 31  1  0
 32 31  2  0
 36 31  1  0
 32 33  1  0
 33 34  2  0
 34 35  1  0
 35 36  2  0
 23 37  1  0
 37 38  1  0
  5 39  1  0
  6  5  1  0
  6 41  1  0
 39 40  1  0
 40 41  1  0
 39 42  2  0
 26 43  1  6
 13 44  1  0
 14 45  1  0
 15 46  1  0
 16 47  1  0
 17 48  1  0
 18 49  1  0
 19 50  1  0
 20 51  1  0
 22 52  1  0
 22 53  1  0
 23 54  1  1
 24 55  1  6
 25 56  1  6
 29 57  1  0
 29 58  1  0
 29 59  1  0
 32 60  1  0
 33 61  1  0
 34 62  1  0
 35 63  1  0
 36 64  1  0
 38 65  1  0
 38 66  1  0
 38 67  1  0
 40 68  1  0
 41 69  1  0
 41 70  1  0
 43 71  1  0
 43 72  1  0
 43 73  1  0
M  END
$$$$
