
     RDKit          3D

 22 12  0  0  0  0  0  0  0  0999 V2000
   46.8165    0.1995    7.6203 Cl  0  0  0  0  0  0  0  0  0  0  0  0
   46.7676   -0.1360    7.7427 O   0  0  0  0  0  0  0  0  0  0  0  0
   46.7642   -0.1592    7.7513 O   0  0  0  0  0  0  0  0  0  0  0  0
   46.7639   -0.1652    7.7549 O   0  0  0  0  0  0  0  0  0  0  0  0
   46.7659   -0.1499    7.7486 O   0  0  0  0  0  0  0  0  0  0  0  0
   46.7640   -0.1617    7.7525 O   0  0  0  0  0  0  0  0  0  0  0  0
   46.7684   -0.1333    7.7427 O   0  0  0  0  0  0  0  0  0  0  0  0
   46.8165    0.1995    7.6203 Al  0  0  0  0  0 15  0  0  0  0  0  0
   46.8165    0.1995    7.6203 Cl  0  0  0  0  0  0  0  0  0  0  0  0
   46.8165    0.1995    7.6203 Cl  0  0  0  0  0  0  0  0  0  0  0  0
   46.5132    0.1534    6.8406 H   0  0  0  0  0  0  0  0  0  0  0  0
   47.1688    0.5811    8.2777 H   0  0  0  0  0  0  0  0  0  0  0  0
   46.5214    0.1692    6.8507 H   0  0  0  0  0  0  0  0  0  0  0  0
   47.1639    0.5885    8.2590 H   0  0  0  0  0  0  0  0  0  0  0  0
   46.5254    0.1742    6.8576 H   0  0  0  0  0  0  0  0  0  0  0  0
   47.1602    0.5893    8.2485 H   0  0  0  0  0  0  0  0  0  0  0  0
   46.5116    0.1584    6.8326 H   0  0  0  0  0  0  0  0  0  0  0  0
   47.1720    0.5899    8.2797 H   0  0  0  0  0  0  0  0  0  0  0  0
   47.1593    0.5868    8.2479 H   0  0  0  0  0  0  0  0  0  0  0  0
   46.5263    0.1735    6.8606 H   0  0  0  0  0  0  0  0  0  0  0  0
   47.1712    0.5819    8.2837 H   0  0  0  0  0  0  0  0  0  0  0  0
   46.5099    0.1498    6.8346 H   0  0  0  0  0  0  0  0  0  0  0  0
  2 11  1  0
  2 12  1  0
  3 13  1  0
  3 14  1  0
  4 15  1  0
  4 16  1  0
  5 17  1  0
  5 18  1  0
  6 19  1  0
  6 20  1  0
  7 21  1  0
  7 22  1  0
M  CHG  4   1  -1   8   3   9  -1  10  -1
M  END
> <Uni-Dock RESULT> 
ENERGY=   -6.737  LOWER_BOUND=    0.000  UPPER_BOUND=    0.000
INTER + INTRA:          -6.737
INTER:                  -6.737
INTRA:                   0.000
UNBOUND:                 0.000

$$$$

     RDKit          3D

 22 12  0  0  0  0  0  0  0  0999 V2000
   48.0518    2.1598    5.9717 Cl  0  0  0  0  0  0  0  0  0  0  0  0
   48.2421    1.9627    5.7376 O   0  0  0  0  0  0  0  0  0  0  0  0
   48.2552    1.9490    5.7213 O   0  0  0  0  0  0  0  0  0  0  0  0
   48.2575    1.9450    5.7161 O   0  0  0  0  0  0  0  0  0  0  0  0
   48.2493    1.9542    5.7272 O   0  0  0  0  0  0  0  0  0  0  0  0
   48.2564    1.9474    5.7193 O   0  0  0  0  0  0  0  0  0  0  0  0
   48.2399    1.9639    5.7387 O   0  0  0  0  0  0  0  0  0  0  0  0
   48.0518    2.1598    5.9717 Al  0  0  0  0  0 15  0  0  0  0  0  0
   48.0518    2.1598    5.9717 Cl  0  0  0  0  0  0  0  0  0  0  0  0
   48.0518    2.1598    5.9717 Cl  0  0  0  0  0  0  0  0  0  0  0  0
   48.6356    2.3989    6.5231 H   0  0  0  0  0  0  0  0  0  0  0  0
   47.2775    2.1179    5.6544 H   0  0  0  0  0  0  0  0  0  0  0  0
   48.6156    2.4029    6.5225 H   0  0  0  0  0  0  0  0  0  0  0  0
   47.2845    2.1276    5.6713 H   0  0  0  0  0  0  0  0  0  0  0  0
   48.6066    2.4029    6.5196 H   0  0  0  0  0  0  0  0  0  0  0  0
   47.2912    2.1315    5.6794 H   0  0  0  0  0  0  0  0  0  0  0  0
   48.6371    2.4039    6.5311 H   0  0  0  0  0  0  0  0  0  0  0  0
   47.2689    2.1213    5.6567 H   0  0  0  0  0  0  0  0  0  0  0  0
   47.2937    2.1305    5.6787 H   0  0  0  0  0  0  0  0  0  0  0  0
   48.6052    2.4016    6.5171 H   0  0  0  0  0  0  0  0  0  0  0  0
   47.2727    2.1163    5.6504 H   0  0  0  0  0  0  0  0  0  0  0  0
   48.6428    2.3993    6.5259 H   0  0  0  0  0  0  0  0  0  0  0  0
  2 11  1  0
  2 12  1  0
  3 13  1  0
  3 14  1  0
  4 15  1  0
  4 16  1  0
  5 17  1  0
  5 18  1  0
  6 19  1  0
  6 20  1  0
  7 21  1  0
  7 22  1  0
M  CHG  4   1  -1   8   3   9  -1  10  -1
M  END
> <Uni-Dock RESULT> 
ENERGY=   -6.021  LOWER_BOUND=    3.106  UPPER_BOUND=    3.109
INTER + INTRA:          -6.021
INTER:                  -6.021
INTRA:                   0.000
UNBOUND:                 0.000

$$$$

     RDKit          3D

 22 12  0  0  0  0  0  0  0  0999 V2000
   47.6980    1.4964    6.9435 Cl  0  0  0  0  0  0  0  0  0  0  0  0
   48.0354    1.5236    7.0672 O   0  0  0  0  0  0  0  0  0  0  0  0
   48.0588    1.5256    7.0758 O   0  0  0  0  0  0  0  0  0  0  0  0
   48.0648    1.5274    7.0788 O   0  0  0  0  0  0  0  0  0  0  0  0
   48.0494    1.5255    7.0728 O   0  0  0  0  0  0  0  0  0  0  0  0
   48.0613    1.5260    7.0769 O   0  0  0  0  0  0  0  0  0  0  0  0
   48.0327    1.5243    7.0668 O   0  0  0  0  0  0  0  0  0  0  0  0
   47.6980    1.4964    6.9435 Al  0  0  0  0  0 15  0  0  0  0  0  0
   47.6980    1.4964    6.9435 Cl  0  0  0  0  0  0  0  0  0  0  0  0
   47.6980    1.4964    6.9435 Cl  0  0  0  0  0  0  0  0  0  0  0  0
   47.7204    0.7773    6.5140 H   0  0  0  0  0  0  0  0  0  0  0  0
   47.3381    2.1884    7.2494 H   0  0  0  0  0  0  0  0  0  0  0  0
   47.7049    0.7905    6.5171 H   0  0  0  0  0  0  0  0  0  0  0  0
   47.3302    2.1732    7.2377 H   0  0  0  0  0  0  0  0  0  0  0  0
   47.7001    0.7980    6.5201 H   0  0  0  0  0  0  0  0  0  0  0  0
   47.3290    2.1639    7.2317 H   0  0  0  0  0  0  0  0  0  0  0  0
   47.7151    0.7714    6.5087 H   0  0  0  0  0  0  0  0  0  0  0  0
   47.3294    2.1924    7.2491 H   0  0  0  0  0  0  0  0  0  0  0  0
   47.3315    2.1628    7.2318 H   0  0  0  0  0  0  0  0  0  0  0  0
   47.7010    0.8005    6.5219 H   0  0  0  0  0  0  0  0  0  0  0  0
   47.3375    2.1940    7.2527 H   0  0  0  0  0  0  0  0  0  0  0  0
   47.7237    0.7710    6.5112 H   0  0  0  0  0  0  0  0  0  0  0  0
  2 11  1  0
  2 12  1  0
  3 13  1  0
  3 14  1  0
  4 15  1  0
  4 16  1  0
  5 17  1  0
  5 18  1  0
  6 19  1  0
  6 20  1  0
  7 21  1  0
  7 22  1  0
M  CHG  4   1  -1   8   3   9  -1  10  -1
M  END
> <Uni-Dock RESULT> 
ENERGY=   -6.010  LOWER_BOUND=    2.023  UPPER_BOUND=    2.029
INTER + INTRA:          -6.010
INTER:                  -6.010
INTRA:                   0.000
UNBOUND:                 0.000

$$$$

     RDKit          3D

 22 12  0  0  0  0  0  0  0  0999 V2000
   40.3636   12.3373   15.6796 Cl  0  0  0  0  0  0  0  0  0  0  0  0
   40.6023   12.1217   15.8422 O   0  0  0  0  0  0  0  0  0  0  0  0
   40.6189   12.1067   15.8535 O   0  0  0  0  0  0  0  0  0  0  0  0
   40.6225   12.1014   15.8562 O   0  0  0  0  0  0  0  0  0  0  0  0
   40.6119   12.1119   15.8489 O   0  0  0  0  0  0  0  0  0  0  0  0
   40.6205   12.1048   15.8547 O   0  0  0  0  0  0  0  0  0  0  0  0
   40.6000   12.1225   15.8408 O   0  0  0  0  0  0  0  0  0  0  0  0
   40.3636   12.3373   15.6796 Al  0  0  0  0  0 15  0  0  0  0  0  0
   40.3636   12.3373   15.6796 Cl  0  0  0  0  0  0  0  0  0  0  0  0
   40.3636   12.3373   15.6796 Cl  0  0  0  0  0  0  0  0  0  0  0  0
   40.7087   13.0946   15.7766 H   0  0  0  0  0  0  0  0  0  0  0  0
   39.7797   11.7954   15.4199 H   0  0  0  0  0  0  0  0  0  0  0  0
   40.6912   13.0891   15.7675 H   0  0  0  0  0  0  0  0  0  0  0  0
   39.7808   11.8160   15.4179 H   0  0  0  0  0  0  0  0  0  0  0  0
   40.6842   13.0837   15.7642 H   0  0  0  0  0  0  0  0  0  0  0  0
   39.7842   11.8266   15.4184 H   0  0  0  0  0  0  0  0  0  0  0  0
   40.7075   13.1039   15.7748 H   0  0  0  0  0  0  0  0  0  0  0  0
   39.7715   11.7959   15.4152 H   0  0  0  0  0  0  0  0  0  0  0  0
   39.7866   11.8265   15.4198 H   0  0  0  0  0  0  0  0  0  0  0  0
   40.6837   13.0806   15.7643 H   0  0  0  0  0  0  0  0  0  0  0  0
   39.7768   11.7897   15.4190 H   0  0  0  0  0  0  0  0  0  0  0  0
   40.7140   13.0996   15.7790 H   0  0  0  0  0  0  0  0  0  0  0  0
  2 11  1  0
  2 12  1  0
  3 13  1  0
  3 14  1  0
  4 15  1  0
  4 16  1  0
  5 17  1  0
  5 18  1  0
  6 19  1  0
  6 20  1  0
  7 21  1  0
  7 22  1  0
M  CHG  4   1  -1   8   3   9  -1  10  -1
M  END
> <Uni-Dock RESULT> 
ENERGY=   -5.548  LOWER_BOUND=   15.929  UPPER_BOUND=   15.933
INTER + INTRA:          -5.548
INTER:                  -5.548
INTRA:                   0.000
UNBOUND:                 0.000

$$$$

     RDKit          3D

 22 12  0  0  0  0  0  0  0  0999 V2000
   46.7450    3.9178    7.0877 Cl  0  0  0  0  0  0  0  0  0  0  0  0
   46.8675    4.2214    7.2383 O   0  0  0  0  0  0  0  0  0  0  0  0
   46.8761    4.2425    7.2487 O   0  0  0  0  0  0  0  0  0  0  0  0
   46.8793    4.2485    7.2503 O   0  0  0  0  0  0  0  0  0  0  0  0
   46.8732    4.2344    7.2439 O   0  0  0  0  0  0  0  0  0  0  0  0
   46.8772    4.2449    7.2496 O   0  0  0  0  0  0  0  0  0  0  0  0
   46.8672    4.2194    7.2364 O   0  0  0  0  0  0  0  0  0  0  0  0
   46.7450    3.9178    7.0877 Al  0  0  0  0  0 15  0  0  0  0  0  0
   46.7450    3.9178    7.0877 Cl  0  0  0  0  0  0  0  0  0  0  0  0
   46.7450    3.9178    7.0877 Cl  0  0  0  0  0  0  0  0  0  0  0  0
   46.2081    3.6339    7.6650 H   0  0  0  0  0  0  0  0  0  0  0  0
   47.1592    3.8980    6.3598 H   0  0  0  0  0  0  0  0  0  0  0  0
   46.2134    3.6261    7.6469 H   0  0  0  0  0  0  0  0  0  0  0  0
   47.1454    3.8848    6.3677 H   0  0  0  0  0  0  0  0  0  0  0  0
   46.2176    3.6251    7.6385 H   0  0  0  0  0  0  0  0  0  0  0  0
   47.1380    3.8799    6.3744 H   0  0  0  0  0  0  0  0  0  0  0  0
   46.2020    3.6268    7.6671 H   0  0  0  0  0  0  0  0  0  0  0  0
   47.1596    3.8922    6.3522 H   0  0  0  0  0  0  0  0  0  0  0  0
   47.1379    3.8816    6.3766 H   0  0  0  0  0  0  0  0  0  0  0  0
   46.2197    3.6268    7.6370 H   0  0  0  0  0  0  0  0  0  0  0  0
   47.1633    3.8999    6.3551 H   0  0  0  0  0  0  0  0  0  0  0  0
   46.2043    3.6341    7.6717 H   0  0  0  0  0  0  0  0  0  0  0  0
  2 11  1  0
  2 12  1  0
  3 13  1  0
  3 14  1  0
  4 15  1  0
  4 16  1  0
  5 17  1  0
  5 18  1  0
  6 19  1  0
  6 20  1  0
  7 21  1  0
  7 22  1  0
M  CHG  4   1  -1   8   3   9  -1  10  -1
M  END
> <Uni-Dock RESULT> 
ENERGY=   -5.142  LOWER_BOUND=    4.156  UPPER_BOUND=    4.165
INTER + INTRA:          -5.142
INTER:                  -5.142
INTRA:                   0.000
UNBOUND:                 0.000

$$$$

     RDKit          3D

 22 12  0  0  0  0  0  0  0  0999 V2000
   42.3536    5.6773   11.8432 Cl  0  0  0  0  0  0  0  0  0  0  0  0
   42.0612    5.8744   11.7686 O   0  0  0  0  0  0  0  0  0  0  0  0
   42.0410    5.8881   11.7634 O   0  0  0  0  0  0  0  0  0  0  0  0
   42.0361    5.8922   11.7606 O   0  0  0  0  0  0  0  0  0  0  0  0
   42.0492    5.8830   11.7647 O   0  0  0  0  0  0  0  0  0  0  0  0
   42.0388    5.8897   11.7625 O   0  0  0  0  0  0  0  0  0  0  0  0
   42.0637    5.8733   11.7683 O   0  0  0  0  0  0  0  0  0  0  0  0
   42.3536    5.6773   11.8432 Al  0  0  0  0  0 15  0  0  0  0  0  0
   42.3536    5.6773   11.8432 Cl  0  0  0  0  0  0  0  0  0  0  0  0
   42.3536    5.6773   11.8432 Cl  0  0  0  0  0  0  0  0  0  0  0  0
   42.1683    5.3564   12.5946 H   0  0  0  0  0  0  0  0  0  0  0  0
   42.8314    5.8012   11.1661 H   0  0  0  0  0  0  0  0  0  0  0  0
   42.1850    5.3540   12.5830 H   0  0  0  0  0  0  0  0  0  0  0  0
   42.8349    5.7899   11.1831 H   0  0  0  0  0  0  0  0  0  0  0  0
   42.1910    5.3549   12.5757 H   0  0  0  0  0  0  0  0  0  0  0  0
   42.8338    5.7849   11.1931 H   0  0  0  0  0  0  0  0  0  0  0  0
   42.1716    5.3507   12.6016 H   0  0  0  0  0  0  0  0  0  0  0  0
   42.8400    5.7983   11.1632 H   0  0  0  0  0  0  0  0  0  0  0  0
   42.8313    5.7857   11.1939 H   0  0  0  0  0  0  0  0  0  0  0  0
   42.1908    5.3565   12.5730 H   0  0  0  0  0  0  0  0  0  0  0  0
   42.8332    5.8035   11.1604 H   0  0  0  0  0  0  0  0  0  0  0  0
   42.1639    5.3553   12.6008 H   0  0  0  0  0  0  0  0  0  0  0  0
  2 11  1  0
  2 12  1  0
  3 13  1  0
  3 14  1  0
  4 15  1  0
  4 16  1  0
  5 17  1  0
  5 18  1  0
  6 19  1  0
  6 20  1  0
  7 21  1  0
  7 22  1  0
M  CHG  4   1  -1   8   3   9  -1  10  -1
M  END
> <Uni-Dock RESULT> 
ENERGY=   -5.027  LOWER_BOUND=    8.479  UPPER_BOUND=    8.484
INTER + INTRA:          -5.027
INTER:                  -5.027
INTRA:                   0.000
UNBOUND:                 0.000

$$$$

     RDKit          3D

 22 12  0  0  0  0  0  0  0  0999 V2000
   40.7925    1.8180   22.3193 Cl  0  0  0  0  0  0  0  0  0  0  0  0
   40.8031    1.8937   21.9671 O   0  0  0  0  0  0  0  0  0  0  0  0
   40.8038    1.8990   21.9427 O   0  0  0  0  0  0  0  0  0  0  0  0
   40.8028    1.9013   21.9362 O   0  0  0  0  0  0  0  0  0  0  0  0
   40.8029    1.8975   21.9523 O   0  0  0  0  0  0  0  0  0  0  0  0
   40.8036    1.8998   21.9400 O   0  0  0  0  0  0  0  0  0  0  0  0
   40.8022    1.8938   21.9697 O   0  0  0  0  0  0  0  0  0  0  0  0
   40.7925    1.8180   22.3193 Al  0  0  0  0  0 15  0  0  0  0  0  0
   40.7925    1.8180   22.3193 Cl  0  0  0  0  0  0  0  0  0  0  0  0
   40.7925    1.8180   22.3193 Cl  0  0  0  0  0  0  0  0  0  0  0  0
   41.4472    1.3035   22.4132 H   0  0  0  0  0  0  0  0  0  0  0  0
   40.1271    2.2567   22.5777 H   0  0  0  0  0  0  0  0  0  0  0  0
   41.4337    1.3104   22.4270 H   0  0  0  0  0  0  0  0  0  0  0  0
   40.1401    2.2444   22.5882 H   0  0  0  0  0  0  0  0  0  0  0  0
   41.4263    1.3150   22.4307 H   0  0  0  0  0  0  0  0  0  0  0  0
   40.1484    2.2375   22.5910 H   0  0  0  0  0  0  0  0  0  0  0  0
   41.4521    1.2983   22.4196 H   0  0  0  0  0  0  0  0  0  0  0  0
   40.1226    2.2581   22.5859 H   0  0  0  0  0  0  0  0  0  0  0  0
   40.1497    2.2371   22.5886 H   0  0  0  0  0  0  0  0  0  0  0  0
   41.4242    1.3170   22.4294 H   0  0  0  0  0  0  0  0  0  0  0  0
   40.1220    2.2606   22.5773 H   0  0  0  0  0  0  0  0  0  0  0  0
   41.4533    1.2995   22.4108 H   0  0  0  0  0  0  0  0  0  0  0  0
  2 11  1  0
  2 12  1  0
  3 13  1  0
  3 14  1  0
  4 15  1  0
  4 16  1  0
  5 17  1  0
  5 18  1  0
  6 19  1  0
  6 20  1  0
  7 21  1  0
  7 22  1  0
M  CHG  4   1  -1   8   3   9  -1  10  -1
M  END
> <Uni-Dock RESULT> 
ENERGY=   -4.972  LOWER_BOUND=   15.709  UPPER_BOUND=   15.712
INTER + INTRA:          -4.972
INTER:                  -4.972
INTRA:                   0.000
UNBOUND:                 0.000

$$$$

     RDKit          3D

 22 12  0  0  0  0  0  0  0  0999 V2000
   47.1111    2.9856   17.6178 Cl  0  0  0  0  0  0  0  0  0  0  0  0
   46.8195    2.7744   17.6330 O   0  0  0  0  0  0  0  0  0  0  0  0
   46.7993    2.7597   17.6339 O   0  0  0  0  0  0  0  0  0  0  0  0
   46.7939    2.7555   17.6328 O   0  0  0  0  0  0  0  0  0  0  0  0
   46.8073    2.7653   17.6327 O   0  0  0  0  0  0  0  0  0  0  0  0
   46.7970    2.7580   17.6338 O   0  0  0  0  0  0  0  0  0  0  0  0
   46.8217    2.7757   17.6319 O   0  0  0  0  0  0  0  0  0  0  0  0
   47.1111    2.9856   17.6178 Al  0  0  0  0  0 15  0  0  0  0  0  0
   47.1111    2.9856   17.6178 Cl  0  0  0  0  0  0  0  0  0  0  0  0
   47.1111    2.9856   17.6178 Cl  0  0  0  0  0  0  0  0  0  0  0  0
   47.1811    3.2540   18.4085 H   0  0  0  0  0  0  0  0  0  0  0  0
   47.3329    2.9284   16.8119 H   0  0  0  0  0  0  0  0  0  0  0  0
   47.1927    3.2581   18.3920 H   0  0  0  0  0  0  0  0  0  0  0  0
   47.3415    2.9390   16.8274 H   0  0  0  0  0  0  0  0  0  0  0  0
   47.1958    3.2580   18.3831 H   0  0  0  0  0  0  0  0  0  0  0  0
   47.3437    2.9434   16.8375 H   0  0  0  0  0  0  0  0  0  0  0  0
   47.1864    3.2595   18.4143 H   0  0  0  0  0  0  0  0  0  0  0  0
   47.3398    2.9319   16.8064 H   0  0  0  0  0  0  0  0  0  0  0  0
   47.3417    2.9423   16.8391 H   0  0  0  0  0  0  0  0  0  0  0  0
   47.1948    3.2565   18.3806 H   0  0  0  0  0  0  0  0  0  0  0  0
   47.3327    2.9265   16.8057 H   0  0  0  0  0  0  0  0  0  0  0  0
   47.1791    3.2545   18.4158 H   0  0  0  0  0  0  0  0  0  0  0  0
  2 11  1  0
  2 12  1  0
  3 13  1  0
  3 14  1  0
  4 15  1  0
  4 16  1  0
  5 17  1  0
  5 18  1  0
  6 19  1  0
  6 20  1  0
  7 21  1  0
  7 22  1  0
M  CHG  4   1  -1   8   3   9  -1  10  -1
M  END
> <Uni-Dock RESULT> 
ENERGY=   -4.693  LOWER_BOUND=   10.335  UPPER_BOUND=   10.336
INTER + INTRA:          -4.693
INTER:                  -4.693
INTRA:                   0.000
UNBOUND:                 0.000

$$$$

     RDKit          3D

 22 12  0  0  0  0  0  0  0  0999 V2000
   44.4909    4.0257    8.5733 Cl  0  0  0  0  0  0  0  0  0  0  0  0
   44.2051    4.2311    8.4960 O   0  0  0  0  0  0  0  0  0  0  0  0
   44.1852    4.2453    8.4905 O   0  0  0  0  0  0  0  0  0  0  0  0
   44.1795    4.2483    8.4879 O   0  0  0  0  0  0  0  0  0  0  0  0
   44.1928    4.2392    8.4920 O   0  0  0  0  0  0  0  0  0  0  0  0
   44.1830    4.2467    8.4897 O   0  0  0  0  0  0  0  0  0  0  0  0
   44.2069    4.2290    8.4958 O   0  0  0  0  0  0  0  0  0  0  0  0
   44.4909    4.0257    8.5733 Al  0  0  0  0  0 15  0  0  0  0  0  0
   44.4909    4.0257    8.5733 Cl  0  0  0  0  0  0  0  0  0  0  0  0
   44.4909    4.0257    8.5733 Cl  0  0  0  0  0  0  0  0  0  0  0  0
   44.8159    4.4125    9.2418 H   0  0  0  0  0  0  0  0  0  0  0  0
   44.4518    3.4333    7.9821 H   0  0  0  0  0  0  0  0  0  0  0  0
   44.8221    4.3956    9.2319 H   0  0  0  0  0  0  0  0  0  0  0  0
   44.4654    3.4360    7.9975 H   0  0  0  0  0  0  0  0  0  0  0  0
   44.8224    4.3886    9.2256 H   0  0  0  0  0  0  0  0  0  0  0  0
   44.4708    3.4401    8.0064 H   0  0  0  0  0  0  0  0  0  0  0  0
   44.8230    4.4121    9.2482 H   0  0  0  0  0  0  0  0  0  0  0  0
   44.4569    3.4256    7.9797 H   0  0  0  0  0  0  0  0  0  0  0  0
   44.4693    3.4423    8.0071 H   0  0  0  0  0  0  0  0  0  0  0  0
   44.8205    4.3879    9.2231 H   0  0  0  0  0  0  0  0  0  0  0  0
   44.4496    3.4300    7.9770 H   0  0  0  0  0  0  0  0  0  0  0  0
   44.8162    4.4179    9.2472 H   0  0  0  0  0  0  0  0  0  0  0  0
  2 11  1  0
  2 12  1  0
  3 13  1  0
  3 14  1  0
  4 15  1  0
  4 16  1  0
  5 17  1  0
  5 18  1  0
  6 19  1  0
  6 20  1  0
  7 21  1  0
  7 22  1  0
M  CHG  4   1  -1   8   3   9  -1  10  -1
M  END
> <Uni-Dock RESULT> 
ENERGY=   -4.511  LOWER_BOUND=    4.917  UPPER_BOUND=    4.925
INTER + INTRA:          -4.511
INTER:                  -4.511
INTRA:                   0.000
UNBOUND:                 0.000

$$$$
