
     RDKit          3D

 22 12  0  0  0  0  0  0  0  0999 V2000
   38.8166    3.8428    5.5814 Cl  0  0  0  0  0  0  0  0  0  0  0  0
   38.7412    3.5174    5.7428 O   0  0  0  0  0  0  0  0  0  0  0  0
   38.7420    3.5110    5.7444 O   0  0  0  0  0  0  0  0  0  0  0  0
   38.7402    3.5241    5.7413 O   0  0  0  0  0  0  0  0  0  0  0  0
   38.7468    3.5318    5.7340 O   0  0  0  0  0  0  0  0  0  0  0  0
   38.7451    3.5202    5.7391 O   0  0  0  0  0  0  0  0  0  0  0  0
   38.7410    3.5032    5.7476 O   0  0  0  0  0  0  0  0  0  0  0  0
   38.8166    3.8428    5.5814 Al  0  0  0  0  0 15  0  0  0  0  0  0
   38.8166    3.8428    5.5814 Cl  0  0  0  0  0  0  0  0  0  0  0  0
   38.8166    3.8428    5.5814 Cl  0  0  0  0  0  0  0  0  0  0  0  0
   38.1978    4.3305    5.8669 H   0  0  0  0  0  0  0  0  0  0  0  0
   39.5110    3.6807    5.1345 H   0  0  0  0  0  0  0  0  0  0  0  0
   38.2016    4.3307    5.8640 H   0  0  0  0  0  0  0  0  0  0  0  0
   39.5064    3.6867    5.1358 H   0  0  0  0  0  0  0  0  0  0  0  0
   39.5146    3.6749    5.1338 H   0  0  0  0  0  0  0  0  0  0  0  0
   38.1951    4.3294    5.8691 H   0  0  0  0  0  0  0  0  0  0  0  0
   38.1879    4.3257    5.8755 H   0  0  0  0  0  0  0  0  0  0  0  0
   39.5153    3.6709    5.1346 H   0  0  0  0  0  0  0  0  0  0  0  0
   39.5079    3.6810    5.1366 H   0  0  0  0  0  0  0  0  0  0  0  0
   38.1969    4.3272    5.8686 H   0  0  0  0  0  0  0  0  0  0  0  0
   39.5043    3.6922    5.1355 H   0  0  0  0  0  0  0  0  0  0  0  0
   38.2046    4.3330    5.8611 H   0  0  0  0  0  0  0  0  0  0  0  0
  2 11  1  0
  2 12  1  0
  3 13  1  0
  3 14  1  0
  4 15  1  0
  4 16  1  0
  5 17  1  0
  5 18  1  0
  6 19  1  0
  6 20  1  0
  7 21  1  0
  7 22  1  0
M  CHG  4   1  -1   8   3   9  -1  10  -1
M  END
> <Uni-Dock RESULT> 
ENERGY=   -6.815  LOWER_BOUND=    0.000  UPPER_BOUND=    0.000
INTER + INTRA:          -6.815
INTER:                  -6.815
INTRA:                   0.000
UNBOUND:                 0.000

$$$$

     RDKit          3D

 22 12  0  0  0  0  0  0  0  0999 V2000
   46.8156    0.1966    7.6220 Cl  0  0  0  0  0  0  0  0  0  0  0  0
   46.7655   -0.1503    7.7438 O   0  0  0  0  0  0  0  0  0  0  0  0
   46.7627   -0.1552    7.7470 O   0  0  0  0  0  0  0  0  0  0  0  0
   46.7687   -0.1452    7.7402 O   0  0  0  0  0  0  0  0  0  0  0  0
   46.7658   -0.1331    7.7393 O   0  0  0  0  0  0  0  0  0  0  0  0
   46.7632   -0.1446    7.7440 O   0  0  0  0  0  0  0  0  0  0  0  0
   46.7607   -0.1629    7.7503 O   0  0  0  0  0  0  0  0  0  0  0  0
   46.8156    0.1966    7.6220 Al  0  0  0  0  0 15  0  0  0  0  0  0
   46.8156    0.1966    7.6220 Cl  0  0  0  0  0  0  0  0  0  0  0  0
   46.8156    0.1966    7.6220 Cl  0  0  0  0  0  0  0  0  0  0  0  0
   47.5021    0.1209    7.1474 H   0  0  0  0  0  0  0  0  0  0  0  0
   46.1791    0.6192    7.9749 H   0  0  0  0  0  0  0  0  0  0  0  0
   47.4990    0.1242    7.1488 H   0  0  0  0  0  0  0  0  0  0  0  0
   46.1851    0.6207    7.9702 H   0  0  0  0  0  0  0  0  0  0  0  0
   46.1742    0.6171    7.9790 H   0  0  0  0  0  0  0  0  0  0  0  0
   47.5039    0.1178    7.1468 H   0  0  0  0  0  0  0  0  0  0  0  0
   47.5087    0.1087    7.1457 H   0  0  0  0  0  0  0  0  0  0  0  0
   46.1722    0.6141    7.9812 H   0  0  0  0  0  0  0  0  0  0  0  0
   46.1818    0.6170    7.9735 H   0  0  0  0  0  0  0  0  0  0  0  0
   47.5017    0.1173    7.1486 H   0  0  0  0  0  0  0  0  0  0  0  0
   46.1888    0.6239    7.9668 H   0  0  0  0  0  0  0  0  0  0  0  0
   47.4972    0.1287    7.1489 H   0  0  0  0  0  0  0  0  0  0  0  0
  2 11  1  0
  2 12  1  0
  3 13  1  0
  3 14  1  0
  4 15  1  0
  4 16  1  0
  5 17  1  0
  5 18  1  0
  6 19  1  0
  6 20  1  0
  7 21  1  0
  7 22  1  0
M  CHG  4   1  -1   8   3   9  -1  10  -1
M  END
> <Uni-Dock RESULT> 
ENERGY=   -6.738  LOWER_BOUND=    9.033  UPPER_BOUND=    9.036
INTER + INTRA:          -6.738
INTER:                  -6.738
INTRA:                   0.000
UNBOUND:                 0.000

$$$$

     RDKit          3D

 22 12  0  0  0  0  0  0  0  0999 V2000
   40.3665   12.3351   15.6808 Cl  0  0  0  0  0  0  0  0  0  0  0  0
   40.6108   12.1111   15.8475 O   0  0  0  0  0  0  0  0  0  0  0  0
   40.6154   12.1092   15.8518 O   0  0  0  0  0  0  0  0  0  0  0  0
   40.6059   12.1128   15.8429 O   0  0  0  0  0  0  0  0  0  0  0  0
   40.5999   12.1236   15.8411 O   0  0  0  0  0  0  0  0  0  0  0  0
   40.6085   12.1167   15.8475 O   0  0  0  0  0  0  0  0  0  0  0  0
   40.6213   12.1048   15.8562 O   0  0  0  0  0  0  0  0  0  0  0  0
   40.3665   12.3351   15.6808 Al  0  0  0  0  0 15  0  0  0  0  0  0
   40.3665   12.3351   15.6808 Cl  0  0  0  0  0  0  0  0  0  0  0  0
   40.3665   12.3351   15.6808 Cl  0  0  0  0  0  0  0  0  0  0  0  0
   40.0364   11.8343   15.0956 H   0  0  0  0  0  0  0  0  0  0  0  0
   40.4523   13.0602   16.0993 H   0  0  0  0  0  0  0  0  0  0  0  0
   40.0360   11.8387   15.0972 H   0  0  0  0  0  0  0  0  0  0  0  0
   40.4481   13.0574   16.0935 H   0  0  0  0  0  0  0  0  0  0  0  0
   40.4564   13.0618   16.1045 H   0  0  0  0  0  0  0  0  0  0  0  0
   40.0373   11.8308   15.0951 H   0  0  0  0  0  0  0  0  0  0  0  0
   40.0404   11.8210   15.0940 H   0  0  0  0  0  0  0  0  0  0  0  0
   40.4594   13.0609   16.1074 H   0  0  0  0  0  0  0  0  0  0  0  0
   40.4522   13.0568   16.0977 H   0  0  0  0  0  0  0  0  0  0  0  0
   40.0389   11.8318   15.0972 H   0  0  0  0  0  0  0  0  0  0  0  0
   40.4441   13.0573   16.0891 H   0  0  0  0  0  0  0  0  0  0  0  0
   40.0342   11.8432   15.0972 H   0  0  0  0  0  0  0  0  0  0  0  0
  2 11  1  0
  2 12  1  0
  3 13  1  0
  3 14  1  0
  4 15  1  0
  4 16  1  0
  5 17  1  0
  5 18  1  0
  6 19  1  0
  6 20  1  0
  7 21  1  0
  7 22  1  0
M  CHG  4   1  -1   8   3   9  -1  10  -1
M  END
> <Uni-Dock RESULT> 
ENERGY=   -5.542  LOWER_BOUND=   13.351  UPPER_BOUND=   13.353
INTER + INTRA:          -5.542
INTER:                  -5.542
INTRA:                   0.000
UNBOUND:                 0.000

$$$$

     RDKit          3D

 22 12  0  0  0  0  0  0  0  0999 V2000
   42.3516    5.6817   11.8405 Cl  0  0  0  0  0  0  0  0  0  0  0  0
   42.0484    5.8819   11.7656 O   0  0  0  0  0  0  0  0  0  0  0  0
   42.0426    5.8834   11.7630 O   0  0  0  0  0  0  0  0  0  0  0  0
   42.0546    5.8807   11.7685 O   0  0  0  0  0  0  0  0  0  0  0  0
   42.0619    5.8706   11.7678 O   0  0  0  0  0  0  0  0  0  0  0  0
   42.0512    5.8766   11.7646 O   0  0  0  0  0  0  0  0  0  0  0  0
   42.0353    5.8872   11.7607 O   0  0  0  0  0  0  0  0  0  0  0  0
   42.3516    5.6817   11.8405 Al  0  0  0  0  0 15  0  0  0  0  0  0
   42.3516    5.6817   11.8405 Cl  0  0  0  0  0  0  0  0  0  0  0  0
   42.3516    5.6817   11.8405 Cl  0  0  0  0  0  0  0  0  0  0  0  0
   42.7868    6.1973   12.3376 H   0  0  0  0  0  0  0  0  0  0  0  0
   42.2198    4.9657   11.4183 H   0  0  0  0  0  0  0  0  0  0  0  0
   42.7872    6.1930   12.3357 H   0  0  0  0  0  0  0  0  0  0  0  0
   42.2252    4.9688   11.4229 H   0  0  0  0  0  0  0  0  0  0  0  0
   42.2145    4.9638   11.4144 H   0  0  0  0  0  0  0  0  0  0  0  0
   42.7858    6.2006   12.3386 H   0  0  0  0  0  0  0  0  0  0  0  0
   42.7822    6.2100   12.3411 H   0  0  0  0  0  0  0  0  0  0  0  0
   42.2108    4.9645   11.4126 H   0  0  0  0  0  0  0  0  0  0  0  0
   42.2200    4.9691   11.4201 H   0  0  0  0  0  0  0  0  0  0  0  0
   42.7838    6.1995   12.3369 H   0  0  0  0  0  0  0  0  0  0  0  0
   42.2303    4.9692   11.4260 H   0  0  0  0  0  0  0  0  0  0  0  0
   42.7894    6.1887   12.3349 H   0  0  0  0  0  0  0  0  0  0  0  0
  2 11  1  0
  2 12  1  0
  3 13  1  0
  3 14  1  0
  4 15  1  0
  4 16  1  0
  5 17  1  0
  5 18  1  0
  6 19  1  0
  6 20  1  0
  7 21  1  0
  7 22  1  0
M  CHG  4   1  -1   8   3   9  -1  10  -1
M  END
> <Uni-Dock RESULT> 
ENERGY=   -5.028  LOWER_BOUND=    7.327  UPPER_BOUND=    7.328
INTER + INTRA:          -5.028
INTER:                  -5.028
INTRA:                   0.000
UNBOUND:                 0.000

$$$$

     RDKit          3D

 22 12  0  0  0  0  0  0  0  0999 V2000
   46.7365    3.8940    7.1803 Cl  0  0  0  0  0  0  0  0  0  0  0  0
   46.7465    4.0646    6.8510 O   0  0  0  0  0  0  0  0  0  0  0  0
   46.7483    4.0658    6.8448 O   0  0  0  0  0  0  0  0  0  0  0  0
   46.7444    4.0636    6.8575 O   0  0  0  0  0  0  0  0  0  0  0  0
   46.7477    4.0548    6.8658 O   0  0  0  0  0  0  0  0  0  0  0  0
   46.7488    4.0599    6.8542 O   0  0  0  0  0  0  0  0  0  0  0  0
   46.7492    4.0690    6.8369 O   0  0  0  0  0  0  0  0  0  0  0  0
   46.7365    3.8940    7.1803 Al  0  0  0  0  0 15  0  0  0  0  0  0
   46.7365    3.8940    7.1803 Cl  0  0  0  0  0  0  0  0  0  0  0  0
   46.7365    3.8940    7.1803 Cl  0  0  0  0  0  0  0  0  0  0  0  0
   46.1830    4.3589    7.6045 H   0  0  0  0  0  0  0  0  0  0  0  0
   47.2800    3.2586    7.0855 H   0  0  0  0  0  0  0  0  0  0  0  0
   46.1858    4.3550    7.6051 H   0  0  0  0  0  0  0  0  0  0  0  0
   47.2754    3.2613    7.0910 H   0  0  0  0  0  0  0  0  0  0  0  0
   47.2838    3.2568    7.0802 H   0  0  0  0  0  0  0  0  0  0  0  0
   46.1813    4.3618    7.6032 H   0  0  0  0  0  0  0  0  0  0  0  0
   46.1767    4.3700    7.5988 H   0  0  0  0  0  0  0  0  0  0  0  0
   47.2851    3.2573    7.0762 H   0  0  0  0  0  0  0  0  0  0  0  0
   47.2777    3.2615    7.0856 H   0  0  0  0  0  0  0  0  0  0  0  0
   46.1830    4.3607    7.6011 H   0  0  0  0  0  0  0  0  0  0  0  0
   47.2727    3.2618    7.0963 H   0  0  0  0  0  0  0  0  0  0  0  0
   46.1876    4.3513    7.6077 H   0  0  0  0  0  0  0  0  0  0  0  0
  2 11  1  0
  2 12  1  0
  3 13  1  0
  3 14  1  0
  4 15  1  0
  4 16  1  0
  5 17  1  0
  5 18  1  0
  6 19  1  0
  6 20  1  0
  7 21  1  0
  7 22  1  0
M  CHG  4   1  -1   8   3   9  -1  10  -1
M  END
> <Uni-Dock RESULT> 
ENERGY=   -5.005  LOWER_BOUND=    8.090  UPPER_BOUND=    8.092
INTER + INTRA:          -5.005
INTER:                  -5.005
INTRA:                   0.000
UNBOUND:                 0.000

$$$$

     RDKit          3D

 22 12  0  0  0  0  0  0  0  0999 V2000
   40.7935    1.8189   22.3164 Cl  0  0  0  0  0  0  0  0  0  0  0  0
   40.8028    1.8979   21.9540 O   0  0  0  0  0  0  0  0  0  0  0  0
   40.8053    1.8984   21.9480 O   0  0  0  0  0  0  0  0  0  0  0  0
   40.7999    1.8975   21.9604 O   0  0  0  0  0  0  0  0  0  0  0  0
   40.8047    1.8934   21.9711 O   0  0  0  0  0  0  0  0  0  0  0  0
   40.8061    1.8957   21.9587 O   0  0  0  0  0  0  0  0  0  0  0  0
   40.8065    1.8999   21.9397 O   0  0  0  0  0  0  0  0  0  0  0  0
   40.7935    1.8189   22.3164 Al  0  0  0  0  0 15  0  0  0  0  0  0
   40.7935    1.8189   22.3164 Cl  0  0  0  0  0  0  0  0  0  0  0  0
   40.7935    1.8189   22.3164 Cl  0  0  0  0  0  0  0  0  0  0  0  0
   40.0142    2.0434   22.5274 H   0  0  0  0  0  0  0  0  0  0  0  0
   41.5637    1.5152   22.4679 H   0  0  0  0  0  0  0  0  0  0  0  0
   40.0181    2.0416   22.5294 H   0  0  0  0  0  0  0  0  0  0  0  0
   41.5572    1.5165   22.4718 H   0  0  0  0  0  0  0  0  0  0  0  0
   41.5689    1.5143   22.4637 H   0  0  0  0  0  0  0  0  0  0  0  0
   40.0118    2.0448   22.5252 H   0  0  0  0  0  0  0  0  0  0  0  0
   40.0052    2.0487   22.5182 H   0  0  0  0  0  0  0  0  0  0  0  0
   41.5708    1.5145   22.4599 H   0  0  0  0  0  0  0  0  0  0  0  0
   41.5603    1.5166   22.4669 H   0  0  0  0  0  0  0  0  0  0  0  0
   40.0142    2.0443   22.5237 H   0  0  0  0  0  0  0  0  0  0  0  0
   41.5534    1.5168   22.4765 H   0  0  0  0  0  0  0  0  0  0  0  0
   40.0207    2.0399   22.5332 H   0  0  0  0  0  0  0  0  0  0  0  0
  2 11  1  0
  2 12  1  0
  3 13  1  0
  3 14  1  0
  4 15  1  0
  4 16  1  0
  5 17  1  0
  5 18  1  0
  6 19  1  0
  6 20  1  0
  7 21  1  0
  7 22  1  0
M  CHG  4   1  -1   8   3   9  -1  10  -1
M  END
> <Uni-Dock RESULT> 
ENERGY=   -4.994  LOWER_BOUND=   16.642  UPPER_BOUND=   16.646
INTER + INTRA:          -4.994
INTER:                  -4.994
INTRA:                   0.000
UNBOUND:                 0.000

$$$$

     RDKit          3D

 22 12  0  0  0  0  0  0  0  0999 V2000
   47.1149    3.0193   17.6068 Cl  0  0  0  0  0  0  0  0  0  0  0  0
   46.7983    2.8257   17.6060 O   0  0  0  0  0  0  0  0  0  0  0  0
   46.7928    2.8232   17.6036 O   0  0  0  0  0  0  0  0  0  0  0  0
   46.8042    2.8283   17.6087 O   0  0  0  0  0  0  0  0  0  0  0  0
   46.8130    2.8356   17.6037 O   0  0  0  0  0  0  0  0  0  0  0  0
   46.8020    2.8293   17.6025 O   0  0  0  0  0  0  0  0  0  0  0  0
   46.7854    2.8190   17.6027 O   0  0  0  0  0  0  0  0  0  0  0  0
   47.1149    3.0193   17.6068 Al  0  0  0  0  0 15  0  0  0  0  0  0
   47.1149    3.0193   17.6068 Cl  0  0  0  0  0  0  0  0  0  0  0  0
   47.1149    3.0193   17.6068 Cl  0  0  0  0  0  0  0  0  0  0  0  0
   47.3993    2.8916   18.3847 H   0  0  0  0  0  0  0  0  0  0  0  0
   47.1470    3.3407   16.8297 H   0  0  0  0  0  0  0  0  0  0  0  0
   47.4005    2.8939   18.3807 H   0  0  0  0  0  0  0  0  0  0  0  0
   47.1513    3.3408   16.8361 H   0  0  0  0  0  0  0  0  0  0  0  0
   47.1427    3.3401   16.8245 H   0  0  0  0  0  0  0  0  0  0  0  0
   47.3977    2.8896   18.3872 H   0  0  0  0  0  0  0  0  0  0  0  0
   47.3924    2.8838   18.3939 H   0  0  0  0  0  0  0  0  0  0  0  0
   47.1391    3.3386   16.8227 H   0  0  0  0  0  0  0  0  0  0  0  0
   47.1465    3.3391   16.8331 H   0  0  0  0  0  0  0  0  0  0  0  0
   47.3961    2.8895   18.3848 H   0  0  0  0  0  0  0  0  0  0  0  0
   47.1558    3.3422   16.8398 H   0  0  0  0  0  0  0  0  0  0  0  0
   47.4034    2.8967   18.3780 H   0  0  0  0  0  0  0  0  0  0  0  0
  2 11  1  0
  2 12  1  0
  3 13  1  0
  3 14  1  0
  4 15  1  0
  4 16  1  0
  5 17  1  0
  5 18  1  0
  6 19  1  0
  6 20  1  0
  7 21  1  0
  7 22  1  0
M  CHG  4   1  -1   8   3   9  -1  10  -1
M  END
> <Uni-Dock RESULT> 
ENERGY=   -4.697  LOWER_BOUND=   14.465  UPPER_BOUND=   14.468
INTER + INTRA:          -4.697
INTER:                  -4.697
INTRA:                   0.000
UNBOUND:                 0.000

$$$$

     RDKit          3D

 22 12  0  0  0  0  0  0  0  0999 V2000
   44.7704    1.9432    9.1200 Cl  0  0  0  0  0  0  0  0  0  0  0  0
   44.6947    1.5841    9.0652 O   0  0  0  0  0  0  0  0  0  0  0  0
   44.6958    1.5779    9.0635 O   0  0  0  0  0  0  0  0  0  0  0  0
   44.6934    1.5907    9.0671 O   0  0  0  0  0  0  0  0  0  0  0  0
   44.7007    1.6008    9.0670 O   0  0  0  0  0  0  0  0  0  0  0  0
   44.6992    1.5883    9.0648 O   0  0  0  0  0  0  0  0  0  0  0  0
   44.6950    1.5695    9.0620 O   0  0  0  0  0  0  0  0  0  0  0  0
   44.7704    1.9432    9.1200 Al  0  0  0  0  0 15  0  0  0  0  0  0
   44.7704    1.9432    9.1200 Cl  0  0  0  0  0  0  0  0  0  0  0  0
   44.7704    1.9432    9.1200 Cl  0  0  0  0  0  0  0  0  0  0  0  0
   44.0411    2.2362    9.4108 H   0  0  0  0  0  0  0  0  0  0  0  0
   45.5755    2.0093    8.8839 H   0  0  0  0  0  0  0  0  0  0  0  0
   44.0455    2.2377    9.4098 H   0  0  0  0  0  0  0  0  0  0  0  0
   45.5699    2.0139    8.8866 H   0  0  0  0  0  0  0  0  0  0  0  0
   45.5797    2.0046    8.8815 H   0  0  0  0  0  0  0  0  0  0  0  0
   44.0381    2.2342    9.4113 H   0  0  0  0  0  0  0  0  0  0  0  0
   44.0299    2.2280    9.4125 H   0  0  0  0  0  0  0  0  0  0  0  0
   45.5807    2.0007    8.8804 H   0  0  0  0  0  0  0  0  0  0  0  0
   45.5719    2.0087    8.8848 H   0  0  0  0  0  0  0  0  0  0  0  0
   44.0402    2.2325    9.4103 H   0  0  0  0  0  0  0  0  0  0  0  0
   45.5673    2.0189    8.8885 H   0  0  0  0  0  0  0  0  0  0  0  0
   44.0489    2.2411    9.4094 H   0  0  0  0  0  0  0  0  0  0  0  0
  2 11  1  0
  2 12  1  0
  3 13  1  0
  3 14  1  0
  4 15  1  0
  4 16  1  0
  5 17  1  0
  5 18  1  0
  6 19  1  0
  6 20  1  0
  7 21  1  0
  7 22  1  0
M  CHG  4   1  -1   8   3   9  -1  10  -1
M  END
> <Uni-Dock RESULT> 
ENERGY=   -4.561  LOWER_BOUND=    7.123  UPPER_BOUND=    7.125
INTER + INTRA:          -4.561
INTER:                  -4.561
INTRA:                   0.000
UNBOUND:                 0.000

$$$$

     RDKit          3D

 22 12  0  0  0  0  0  0  0  0999 V2000
   44.4897    4.0413    8.5765 Cl  0  0  0  0  0  0  0  0  0  0  0  0
   44.1883    4.2419    8.4955 O   0  0  0  0  0  0  0  0  0  0  0  0
   44.1841    4.2470    8.4957 O   0  0  0  0  0  0  0  0  0  0  0  0
   44.1926    4.2364    8.4951 O   0  0  0  0  0  0  0  0  0  0  0  0
   44.2034    4.2342    8.5009 O   0  0  0  0  0  0  0  0  0  0  0  0
   44.1934    4.2418    8.4988 O   0  0  0  0  0  0  0  0  0  0  0  0
   44.1775    4.2523    8.4945 O   0  0  0  0  0  0  0  0  0  0  0  0
   44.4897    4.0413    8.5765 Al  0  0  0  0  0 15  0  0  0  0  0  0
   44.4897    4.0413    8.5765 Cl  0  0  0  0  0  0  0  0  0  0  0  0
   44.4897    4.0413    8.5765 Cl  0  0  0  0  0  0  0  0  0  0  0  0
   44.3835    3.3605    8.0994 H   0  0  0  0  0  0  0  0  0  0  0  0
   44.8973    4.5213    9.1348 H   0  0  0  0  0  0  0  0  0  0  0  0
   44.3867    3.3623    8.1025 H   0  0  0  0  0  0  0  0  0  0  0  0
   44.8982    4.5145    9.1313 H   0  0  0  0  0  0  0  0  0  0  0  0
   44.8957    4.5274    9.1373 H   0  0  0  0  0  0  0  0  0  0  0  0
   44.3808    3.3599    8.0972 H   0  0  0  0  0  0  0  0  0  0  0  0
   44.3725    3.3589    8.0911 H   0  0  0  0  0  0  0  0  0  0  0  0
   44.8932    4.5308    9.1376 H   0  0  0  0  0  0  0  0  0  0  0  0
   44.8952    4.5195    9.1322 H   0  0  0  0  0  0  0  0  0  0  0  0
   44.3804    3.3625    8.0985 H   0  0  0  0  0  0  0  0  0  0  0  0
   44.9008    4.5093    9.1299 H   0  0  0  0  0  0  0  0  0  0  0  0
   44.3907    3.3622    8.1052 H   0  0  0  0  0  0  0  0  0  0  0  0
  2 11  1  0
  2 12  1  0
  3 13  1  0
  3 14  1  0
  4 15  1  0
  4 16  1  0
  5 17  1  0
  5 18  1  0
  6 19  1  0
  6 20  1  0
  7 21  1  0
  7 22  1  0
M  CHG  4   1  -1   8   3   9  -1  10  -1
M  END
> <Uni-Dock RESULT> 
ENERGY=   -4.514  LOWER_BOUND=    6.256  UPPER_BOUND=    6.257
INTER + INTRA:          -4.514
INTER:                  -4.514
INTRA:                   0.000
UNBOUND:                 0.000

$$$$
