
     RDKit          3D

 22 12  0  0  0  0  0  0  0  0999 V2000
   46.8168    0.2021    7.6214 Cl  0  0  0  0  0  0  0  0  0  0  0  0
   46.7657   -0.1409    7.7415 O   0  0  0  0  0  0  0  0  0  0  0  0
   46.7656   -0.1544    7.7420 O   0  0  0  0  0  0  0  0  0  0  0  0
   46.7663   -0.1396    7.7403 O   0  0  0  0  0  0  0  0  0  0  0  0
   46.7627   -0.1548    7.7486 O   0  0  0  0  0  0  0  0  0  0  0  0
   46.7597   -0.1766    7.7556 O   0  0  0  0  0  0  0  0  0  0  0  0
   46.7672   -0.1385    7.7381 O   0  0  0  0  0  0  0  0  0  0  0  0
   46.8168    0.2021    7.6214 Al  0  0  0  0  0 15  0  0  0  0  0  0
   46.8168    0.2021    7.6214 Cl  0  0  0  0  0  0  0  0  0  0  0  0
   46.8168    0.2021    7.6214 Cl  0  0  0  0  0  0  0  0  0  0  0  0
   47.1554    0.0756    6.8594 H   0  0  0  0  0  0  0  0  0  0  0  0
   46.5292    0.6717    8.2632 H   0  0  0  0  0  0  0  0  0  0  0  0
   46.5357    0.6707    8.2486 H   0  0  0  0  0  0  0  0  0  0  0  0
   47.1490    0.0902    6.8737 H   0  0  0  0  0  0  0  0  0  0  0  0
   46.5296    0.6702    8.2623 H   0  0  0  0  0  0  0  0  0  0  0  0
   47.1544    0.0758    6.8615 H   0  0  0  0  0  0  0  0  0  0  0  0
   47.1480    0.0903    6.8759 H   0  0  0  0  0  0  0  0  0  0  0  0
   46.5397    0.6709    8.2397 H   0  0  0  0  0  0  0  0  0  0  0  0
   47.1451    0.1057    6.8821 H   0  0  0  0  0  0  0  0  0  0  0  0
   46.5455    0.6773    8.2265 H   0  0  0  0  0  0  0  0  0  0  0  0
   47.1544    0.0755    6.8616 H   0  0  0  0  0  0  0  0  0  0  0  0
   46.5287    0.6694    8.2644 H   0  0  0  0  0  0  0  0  0  0  0  0
  2 11  1  0
  2 12  1  0
  3 13  1  0
  3 14  1  0
  4 15  1  0
  4 16  1  0
  5 17  1  0
  5 18  1  0
  6 19  1  0
  6 20  1  0
  7 21  1  0
  7 22  1  0
M  CHG  4   1  -1   8   3   9  -1  10  -1
M  END
> <Uni-Dock RESULT> 
ENERGY=   -6.738  LOWER_BOUND=    0.000  UPPER_BOUND=    0.000
INTER + INTRA:          -6.738
INTER:                  -6.738
INTRA:                   0.000
UNBOUND:                 0.000

$$$$

     RDKit          3D

 22 12  0  0  0  0  0  0  0  0999 V2000
   39.6871    4.8454    5.2013 Cl  0  0  0  0  0  0  0  0  0  0  0  0
   40.0456    4.9223    5.1870 O   0  0  0  0  0  0  0  0  0  0  0  0
   40.0588    4.9215    5.1840 O   0  0  0  0  0  0  0  0  0  0  0  0
   40.0441    4.9214    5.1866 O   0  0  0  0  0  0  0  0  0  0  0  0
   40.0607    4.9275    5.1877 O   0  0  0  0  0  0  0  0  0  0  0  0
   40.0833    4.9318    5.1863 O   0  0  0  0  0  0  0  0  0  0  0  0
   40.0425    4.9195    5.1856 O   0  0  0  0  0  0  0  0  0  0  0  0
   39.6871    4.8454    5.2013 Al  0  0  0  0  0 15  0  0  0  0  0  0
   39.6871    4.8454    5.2013 Cl  0  0  0  0  0  0  0  0  0  0  0  0
   39.6871    4.8454    5.2013 Cl  0  0  0  0  0  0  0  0  0  0  0  0
   39.6382    4.1384    4.7441 H   0  0  0  0  0  0  0  0  0  0  0  0
   39.3773    5.4753    5.6729 H   0  0  0  0  0  0  0  0  0  0  0  0
   39.3751    5.4618    5.6644 H   0  0  0  0  0  0  0  0  0  0  0  0
   39.6273    4.1528    4.7555 H   0  0  0  0  0  0  0  0  0  0  0  0
   39.3786    5.4743    5.6720 H   0  0  0  0  0  0  0  0  0  0  0  0
   39.6385    4.1404    4.7453 H   0  0  0  0  0  0  0  0  0  0  0  0
   39.6277    4.1548    4.7568 H   0  0  0  0  0  0  0  0  0  0  0  0
   39.3729    5.4537    5.6595 H   0  0  0  0  0  0  0  0  0  0  0  0
   39.6142    4.1620    4.7640 H   0  0  0  0  0  0  0  0  0  0  0  0
   39.3638    5.4423    5.6536 H   0  0  0  0  0  0  0  0  0  0  0  0
   39.6388    4.1403    4.7452 H   0  0  0  0  0  0  0  0  0  0  0  0
   39.3799    5.4762    5.6730 H   0  0  0  0  0  0  0  0  0  0  0  0
  2 11  1  0
  2 12  1  0
  3 13  1  0
  3 14  1  0
  4 15  1  0
  4 16  1  0
  5 17  1  0
  5 18  1  0
  6 19  1  0
  6 20  1  0
  7 21  1  0
  7 22  1  0
M  CHG  4   1  -1   8   3   9  -1  10  -1
M  END
> <Uni-Dock RESULT> 
ENERGY=   -6.087  LOWER_BOUND=    8.810  UPPER_BOUND=    8.814
INTER + INTRA:          -6.087
INTER:                  -6.087
INTRA:                   0.000
UNBOUND:                 0.000

$$$$

     RDKit          3D

 22 12  0  0  0  0  0  0  0  0999 V2000
   48.0554    2.1878    5.9609 Cl  0  0  0  0  0  0  0  0  0  0  0  0
   48.2379    1.9534    5.7455 O   0  0  0  0  0  0  0  0  0  0  0  0
   48.2430    1.9474    5.7345 O   0  0  0  0  0  0  0  0  0  0  0  0
   48.2369    1.9548    5.7459 O   0  0  0  0  0  0  0  0  0  0  0  0
   48.2465    1.9421    5.7381 O   0  0  0  0  0  0  0  0  0  0  0  0
   48.2577    1.9278    5.7240 O   0  0  0  0  0  0  0  0  0  0  0  0
   48.2354    1.9570    5.7455 O   0  0  0  0  0  0  0  0  0  0  0  0
   48.0554    2.1878    5.9609 Al  0  0  0  0  0 15  0  0  0  0  0  0
   48.0554    2.1878    5.9609 Cl  0  0  0  0  0  0  0  0  0  0  0  0
   48.0554    2.1878    5.9609 Cl  0  0  0  0  0  0  0  0  0  0  0  0
   47.7227    2.7229    5.4003 H   0  0  0  0  0  0  0  0  0  0  0  0
   48.2054    1.8874    6.7370 H   0  0  0  0  0  0  0  0  0  0  0  0
   48.1986    1.8982    6.7274 H   0  0  0  0  0  0  0  0  0  0  0  0
   47.7246    2.7179    5.4209 H   0  0  0  0  0  0  0  0  0  0  0  0
   48.2055    1.8874    6.7352 H   0  0  0  0  0  0  0  0  0  0  0  0
   47.7237    2.7213    5.4017 H   0  0  0  0  0  0  0  0  0  0  0  0
   47.7256    2.7162    5.4223 H   0  0  0  0  0  0  0  0  0  0  0  0
   48.1941    1.9051    6.7222 H   0  0  0  0  0  0  0  0  0  0  0  0
   47.7232    2.7178    5.4390 H   0  0  0  0  0  0  0  0  0  0  0  0
   48.1852    1.9180    6.7197 H   0  0  0  0  0  0  0  0  0  0  0  0
   47.7238    2.7211    5.4014 H   0  0  0  0  0  0  0  0  0  0  0  0
   48.2069    1.8854    6.7358 H   0  0  0  0  0  0  0  0  0  0  0  0
  2 11  1  0
  2 12  1  0
  3 13  1  0
  3 14  1  0
  4 15  1  0
  4 16  1  0
  5 17  1  0
  5 18  1  0
  6 19  1  0
  6 20  1  0
  7 21  1  0
  7 22  1  0
M  CHG  4   1  -1   8   3   9  -1  10  -1
M  END
> <Uni-Dock RESULT> 
ENERGY=   -6.022  LOWER_BOUND=    3.106  UPPER_BOUND=    3.108
INTER + INTRA:          -6.022
INTER:                  -6.022
INTRA:                   0.000
UNBOUND:                 0.000

$$$$

     RDKit          3D

 22 12  0  0  0  0  0  0  0  0999 V2000
   47.8487    1.6724    6.7904 Cl  0  0  0  0  0  0  0  0  0  0  0  0
   48.0305    1.5109    7.0654 O   0  0  0  0  0  0  0  0  0  0  0  0
   48.0378    1.5020    7.0724 O   0  0  0  0  0  0  0  0  0  0  0  0
   48.0298    1.5111    7.0637 O   0  0  0  0  0  0  0  0  0  0  0  0
   48.0377    1.5058    7.0786 O   0  0  0  0  0  0  0  0  0  0  0  0
   48.0493    1.4951    7.0954 O   0  0  0  0  0  0  0  0  0  0  0  0
   48.0293    1.5105    7.0611 O   0  0  0  0  0  0  0  0  0  0  0  0
   47.8487    1.6724    6.7904 Al  0  0  0  0  0 15  0  0  0  0  0  0
   47.8487    1.6724    6.7904 Cl  0  0  0  0  0  0  0  0  0  0  0  0
   47.8487    1.6724    6.7904 Cl  0  0  0  0  0  0  0  0  0  0  0  0
   47.9519    1.1213    6.1605 H   0  0  0  0  0  0  0  0  0  0  0  0
   47.5636    2.3850    7.1454 H   0  0  0  0  0  0  0  0  0  0  0  0
   47.5648    2.3754    7.1326 H   0  0  0  0  0  0  0  0  0  0  0  0
   47.9434    1.1399    6.1664 H   0  0  0  0  0  0  0  0  0  0  0  0
   47.5644    2.3834    7.1453 H   0  0  0  0  0  0  0  0  0  0  0  0
   47.9518    1.1226    6.1624 H   0  0  0  0  0  0  0  0  0  0  0  0
   47.9432    1.1413    6.1684 H   0  0  0  0  0  0  0  0  0  0  0  0
   47.5651    2.3701    7.1245 H   0  0  0  0  0  0  0  0  0  0  0  0
   47.9345    1.1557    6.1666 H   0  0  0  0  0  0  0  0  0  0  0  0
   47.5622    2.3664    7.1094 H   0  0  0  0  0  0  0  0  0  0  0  0
   47.9519    1.1224    6.1625 H   0  0  0  0  0  0  0  0  0  0  0  0
   47.5648    2.3842    7.1476 H   0  0  0  0  0  0  0  0  0  0  0  0
  2 11  1  0
  2 12  1  0
  3 13  1  0
  3 14  1  0
  4 15  1  0
  4 16  1  0
  5 17  1  0
  5 18  1  0
  6 19  1  0
  6 20  1  0
  7 21  1  0
  7 22  1  0
M  CHG  4   1  -1   8   3   9  -1  10  -1
M  END
> <Uni-Dock RESULT> 
ENERGY=   -6.013  LOWER_BOUND=    2.106  UPPER_BOUND=    2.110
INTER + INTRA:          -6.013
INTER:                  -6.013
INTRA:                   0.000
UNBOUND:                 0.000

$$$$

     RDKit          3D

 22 12  0  0  0  0  0  0  0  0999 V2000
   40.3633   12.3374   15.6795 Cl  0  0  0  0  0  0  0  0  0  0  0  0
   40.6058   12.1173   15.8453 O   0  0  0  0  0  0  0  0  0  0  0  0
   40.6173   12.1109   15.8483 O   0  0  0  0  0  0  0  0  0  0  0  0
   40.6052   12.1186   15.8441 O   0  0  0  0  0  0  0  0  0  0  0  0
   40.6146   12.1072   15.8540 O   0  0  0  0  0  0  0  0  0  0  0  0
   40.6303   12.0936   15.8639 O   0  0  0  0  0  0  0  0  0  0  0  0
   40.6053   12.1203   15.8420 O   0  0  0  0  0  0  0  0  0  0  0  0
   40.3633   12.3374   15.6795 Al  0  0  0  0  0 15  0  0  0  0  0  0
   40.3633   12.3374   15.6795 Cl  0  0  0  0  0  0  0  0  0  0  0  0
   40.3633   12.3374   15.6795 Cl  0  0  0  0  0  0  0  0  0  0  0  0
   40.8270   12.6832   15.0659 H   0  0  0  0  0  0  0  0  0  0  0  0
   39.6571   12.2116   16.1274 H   0  0  0  0  0  0  0  0  0  0  0  0
   39.6648   12.2188   16.1153 H   0  0  0  0  0  0  0  0  0  0  0  0
   40.8077   12.6823   15.0750 H   0  0  0  0  0  0  0  0  0  0  0  0
   39.6589   12.2113   16.1269 H   0  0  0  0  0  0  0  0  0  0  0  0
   40.8259   12.6822   15.0676 H   0  0  0  0  0  0  0  0  0  0  0  0
   40.8066   12.6812   15.0769 H   0  0  0  0  0  0  0  0  0  0  0  0
   39.6688   12.2236   16.1079 H   0  0  0  0  0  0  0  0  0  0  0  0
   40.7903   12.6849   15.0791 H   0  0  0  0  0  0  0  0  0  0  0  0
   39.6693   12.2335   16.0956 H   0  0  0  0  0  0  0  0  0  0  0  0
   40.8261   12.6820   15.0677 H   0  0  0  0  0  0  0  0  0  0  0  0
   39.6586   12.2098   16.1289 H   0  0  0  0  0  0  0  0  0  0  0  0
  2 11  1  0
  2 12  1  0
  3 13  1  0
  3 14  1  0
  4 15  1  0
  4 16  1  0
  5 17  1  0
  5 18  1  0
  6 19  1  0
  6 20  1  0
  7 21  1  0
  7 22  1  0
M  CHG  4   1  -1   8   3   9  -1  10  -1
M  END
> <Uni-Dock RESULT> 
ENERGY=   -5.550  LOWER_BOUND=   15.930  UPPER_BOUND=   15.933
INTER + INTRA:          -5.550
INTER:                  -5.550
INTRA:                   0.000
UNBOUND:                 0.000

$$$$

     RDKit          3D

 22 12  0  0  0  0  0  0  0  0999 V2000
   46.7448    3.9182    7.0889 Cl  0  0  0  0  0  0  0  0  0  0  0  0
   46.8710    4.2274    7.2411 O   0  0  0  0  0  0  0  0  0  0  0  0
   46.8719    4.2384    7.2489 O   0  0  0  0  0  0  0  0  0  0  0  0
   46.8698    4.2260    7.2408 O   0  0  0  0  0  0  0  0  0  0  0  0
   46.8783    4.2406    7.2463 O   0  0  0  0  0  0  0  0  0  0  0  0
   46.8856    4.2600    7.2562 O   0  0  0  0  0  0  0  0  0  0  0  0
   46.8676    4.2245    7.2411 O   0  0  0  0  0  0  0  0  0  0  0  0
   46.7448    3.9182    7.0889 Al  0  0  0  0  0 15  0  0  0  0  0  0
   46.7448    3.9182    7.0889 Cl  0  0  0  0  0  0  0  0  0  0  0  0
   46.7448    3.9182    7.0889 Cl  0  0  0  0  0  0  0  0  0  0  0  0
   46.0164    3.8026    7.4978 H   0  0  0  0  0  0  0  0  0  0  0  0
   47.3471    3.7245    6.5277 H   0  0  0  0  0  0  0  0  0  0  0  0
   47.3331    3.7212    6.5348 H   0  0  0  0  0  0  0  0  0  0  0  0
   46.0296    3.7950    7.4829 H   0  0  0  0  0  0  0  0  0  0  0  0
   47.3463    3.7255    6.5290 H   0  0  0  0  0  0  0  0  0  0  0  0
   46.0184    3.8031    7.4968 H   0  0  0  0  0  0  0  0  0  0  0  0
   46.0317    3.7955    7.4818 H   0  0  0  0  0  0  0  0  0  0  0  0
   47.3245    3.7185    6.5385 H   0  0  0  0  0  0  0  0  0  0  0  0
   46.0373    3.7849    7.4699 H   0  0  0  0  0  0  0  0  0  0  0  0
   47.3117    3.7096    6.5405 H   0  0  0  0  0  0  0  0  0  0  0  0
   46.0184    3.8033    7.4969 H   0  0  0  0  0  0  0  0  0  0  0  0
   47.3484    3.7268    6.5286 H   0  0  0  0  0  0  0  0  0  0  0  0
  2 11  1  0
  2 12  1  0
  3 13  1  0
  3 14  1  0
  4 15  1  0
  4 16  1  0
  5 17  1  0
  5 18  1  0
  6 19  1  0
  6 20  1  0
  7 21  1  0
  7 22  1  0
M  CHG  4   1  -1   8   3   9  -1  10  -1
M  END
> <Uni-Dock RESULT> 
ENERGY=   -5.141  LOWER_BOUND=    4.157  UPPER_BOUND=    4.165
INTER + INTRA:          -5.141
INTER:                  -5.141
INTRA:                   0.000
UNBOUND:                 0.000

$$$$

     RDKit          3D

 22 12  0  0  0  0  0  0  0  0999 V2000
   42.3534    5.6762   11.8439 Cl  0  0  0  0  0  0  0  0  0  0  0  0
   42.0570    5.8782   11.7665 O   0  0  0  0  0  0  0  0  0  0  0  0
   42.0466    5.8868   11.7678 O   0  0  0  0  0  0  0  0  0  0  0  0
   42.0583    5.8775   11.7675 O   0  0  0  0  0  0  0  0  0  0  0  0
   42.0442    5.8860   11.7610 O   0  0  0  0  0  0  0  0  0  0  0  0
   42.0256    5.8989   11.7568 O   0  0  0  0  0  0  0  0  0  0  0  0
   42.0599    5.8771   11.7697 O   0  0  0  0  0  0  0  0  0  0  0  0
   42.3534    5.6762   11.8439 Al  0  0  0  0  0 15  0  0  0  0  0  0
   42.3534    5.6762   11.8439 Cl  0  0  0  0  0  0  0  0  0  0  0  0
   42.3534    5.6762   11.8439 Cl  0  0  0  0  0  0  0  0  0  0  0  0
   42.4996    5.8760   12.6501 H   0  0  0  0  0  0  0  0  0  0  0  0
   42.5039    5.2743   11.1153 H   0  0  0  0  0  0  0  0  0  0  0  0
   42.5077    5.2772   11.1306 H   0  0  0  0  0  0  0  0  0  0  0  0
   42.5060    5.8645   12.6334 H   0  0  0  0  0  0  0  0  0  0  0  0
   42.5030    5.2754   11.1164 H   0  0  0  0  0  0  0  0  0  0  0  0
   42.4990    5.8756   12.6479 H   0  0  0  0  0  0  0  0  0  0  0  0
   42.5054    5.8641   12.6311 H   0  0  0  0  0  0  0  0  0  0  0  0
   42.5107    5.2785   11.1397 H   0  0  0  0  0  0  0  0  0  0  0  0
   42.5150    5.8531   12.6225 H   0  0  0  0  0  0  0  0  0  0  0  0
   42.5197    5.2764   11.1525 H   0  0  0  0  0  0  0  0  0  0  0  0
   42.4988    5.8758   12.6479 H   0  0  0  0  0  0  0  0  0  0  0  0
   42.5017    5.2756   11.1143 H   0  0  0  0  0  0  0  0  0  0  0  0
  2 11  1  0
  2 12  1  0
  3 13  1  0
  3 14  1  0
  4 15  1  0
  4 16  1  0
  5 17  1  0
  5 18  1  0
  6 19  1  0
  6 20  1  0
  7 21  1  0
  7 22  1  0
M  CHG  4   1  -1   8   3   9  -1  10  -1
M  END
> <Uni-Dock RESULT> 
ENERGY=   -5.025  LOWER_BOUND=    8.481  UPPER_BOUND=    8.484
INTER + INTRA:          -5.025
INTER:                  -5.025
INTRA:                   0.000
UNBOUND:                 0.000

$$$$

     RDKit          3D

 22 12  0  0  0  0  0  0  0  0999 V2000
   47.0705    3.0879   17.5845 Cl  0  0  0  0  0  0  0  0  0  0  0  0
   46.8455    2.7996   17.6151 O   0  0  0  0  0  0  0  0  0  0  0  0
   46.8343    2.7920   17.6151 O   0  0  0  0  0  0  0  0  0  0  0  0
   46.8460    2.8014   17.6148 O   0  0  0  0  0  0  0  0  0  0  0  0
   46.8377    2.7859   17.6171 O   0  0  0  0  0  0  0  0  0  0  0  0
   46.8230    2.7682   17.6188 O   0  0  0  0  0  0  0  0  0  0  0  0
   46.8457    2.8039   17.6142 O   0  0  0  0  0  0  0  0  0  0  0  0
   47.0705    3.0879   17.5845 Al  0  0  0  0  0 15  0  0  0  0  0  0
   47.0705    3.0879   17.5845 Cl  0  0  0  0  0  0  0  0  0  0  0  0
   47.0705    3.0879   17.5845 Cl  0  0  0  0  0  0  0  0  0  0  0  0
   46.5416    3.7030   17.3540 H   0  0  0  0  0  0  0  0  0  0  0  0
   47.8245    2.7613   17.7844 H   0  0  0  0  0  0  0  0  0  0  0  0
   47.8155    2.7738   17.7800 H   0  0  0  0  0  0  0  0  0  0  0  0
   46.5619    3.6980   17.3585 H   0  0  0  0  0  0  0  0  0  0  0  0
   47.8227    2.7613   17.7841 H   0  0  0  0  0  0  0  0  0  0  0  0
   46.5429    3.7012   17.3546 H   0  0  0  0  0  0  0  0  0  0  0  0
   46.5632    3.6960   17.3591 H   0  0  0  0  0  0  0  0  0  0  0  0
   47.8107    2.7819   17.7773 H   0  0  0  0  0  0  0  0  0  0  0  0
   46.5797    3.6986   17.3612 H   0  0  0  0  0  0  0  0  0  0  0  0
   47.8089    2.7970   17.7735 H   0  0  0  0  0  0  0  0  0  0  0  0
   46.5427    3.7010   17.3546 H   0  0  0  0  0  0  0  0  0  0  0  0
   47.8232    2.7589   17.7847 H   0  0  0  0  0  0  0  0  0  0  0  0
  2 11  1  0
  2 12  1  0
  3 13  1  0
  3 14  1  0
  4 15  1  0
  4 16  1  0
  5 17  1  0
  5 18  1  0
  6 19  1  0
  6 20  1  0
  7 21  1  0
  7 22  1  0
M  CHG  4   1  -1   8   3   9  -1  10  -1
M  END
> <Uni-Dock RESULT> 
ENERGY=   -4.696  LOWER_BOUND=   10.329  UPPER_BOUND=   10.331
INTER + INTRA:          -4.696
INTER:                  -4.696
INTRA:                   0.000
UNBOUND:                 0.000

$$$$

     RDKit          3D

 22 12  0  0  0  0  0  0  0  0999 V2000
   42.9197    5.1978   12.9058 Cl  0  0  0  0  0  0  0  0  0  0  0  0
   42.7448    5.2659   13.2211 O   0  0  0  0  0  0  0  0  0  0  0  0
   42.7418    5.2663   13.2343 O   0  0  0  0  0  0  0  0  0  0  0  0
   42.7461    5.2652   13.2200 O   0  0  0  0  0  0  0  0  0  0  0  0
   42.7355    5.2699   13.2335 O   0  0  0  0  0  0  0  0  0  0  0  0
   42.7251    5.2738   13.2536 O   0  0  0  0  0  0  0  0  0  0  0  0
   42.7484    5.2640   13.2194 O   0  0  0  0  0  0  0  0  0  0  0  0
   42.9197    5.1978   12.9058 Al  0  0  0  0  0 15  0  0  0  0  0  0
   42.9197    5.1978   12.9058 Cl  0  0  0  0  0  0  0  0  0  0  0  0
   42.9197    5.1978   12.9058 Cl  0  0  0  0  0  0  0  0  0  0  0  0
   43.6037    4.7800   13.1681 H   0  0  0  0  0  0  0  0  0  0  0  0
   42.4107    5.5473   12.3280 H   0  0  0  0  0  0  0  0  0  0  0  0
   42.4240    5.5393   12.3317 H   0  0  0  0  0  0  0  0  0  0  0  0
   43.5932    4.7878   13.1512 H   0  0  0  0  0  0  0  0  0  0  0  0
   42.4112    5.5468   12.3297 H   0  0  0  0  0  0  0  0  0  0  0  0
   43.6018    4.7812   13.1676 H   0  0  0  0  0  0  0  0  0  0  0  0
   43.5912    4.7890   13.1507 H   0  0  0  0  0  0  0  0  0  0  0  0
   42.4323    5.5344   12.3331 H   0  0  0  0  0  0  0  0  0  0  0  0
   43.5882    4.7923   13.1344 H   0  0  0  0  0  0  0  0  0  0  0  0
   42.4458    5.5271   12.3292 H   0  0  0  0  0  0  0  0  0  0  0  0
   43.6017    4.7812   13.1679 H   0  0  0  0  0  0  0  0  0  0  0  0
   42.4091    5.5480   12.3301 H   0  0  0  0  0  0  0  0  0  0  0  0
  2 11  1  0
  2 12  1  0
  3 13  1  0
  3 14  1  0
  4 15  1  0
  4 16  1  0
  5 17  1  0
  5 18  1  0
  6 19  1  0
  6 20  1  0
  7 21  1  0
  7 22  1  0
M  CHG  4   1  -1   8   3   9  -1  10  -1
M  END
> <Uni-Dock RESULT> 
ENERGY=   -4.669  LOWER_BOUND=    8.519  UPPER_BOUND=    8.522
INTER + INTRA:          -4.669
INTER:                  -4.669
INTRA:                   0.000
UNBOUND:                 0.000

$$$$
