
     RDKit          3D

 22 12  0  0  0  0  0  0  0  0999 V2000
   38.8192    3.8485    5.5799 Cl  0  0  0  0  0  0  0  0  0  0  0  0
   38.7422    3.5221    5.7394 O   0  0  0  0  0  0  0  0  0  0  0  0
   38.7358    3.4990    5.7478 O   0  0  0  0  0  0  0  0  0  0  0  0
   38.7432    3.5290    5.7342 O   0  0  0  0  0  0  0  0  0  0  0  0
   38.7429    3.5237    5.7400 O   0  0  0  0  0  0  0  0  0  0  0  0
   38.7398    3.5059    5.7523 O   0  0  0  0  0  0  0  0  0  0  0  0
   38.7407    3.5168    5.7413 O   0  0  0  0  0  0  0  0  0  0  0  0
   38.8192    3.8485    5.5799 Al  0  0  0  0  0 15  0  0  0  0  0  0
   38.8192    3.8485    5.5799 Cl  0  0  0  0  0  0  0  0  0  0  0  0
   38.8192    3.8485    5.5799 Cl  0  0  0  0  0  0  0  0  0  0  0  0
   38.5430    3.7486    4.7973 H   0  0  0  0  0  0  0  0  0  0  0  0
   39.1724    4.2748    6.2032 H   0  0  0  0  0  0  0  0  0  0  0  0
   38.5511    3.7649    4.8033 H   0  0  0  0  0  0  0  0  0  0  0  0
   39.1707    4.2816    6.1887 H   0  0  0  0  0  0  0  0  0  0  0  0
   38.5396    3.7432    4.7928 H   0  0  0  0  0  0  0  0  0  0  0  0
   39.1748    4.2733    6.2128 H   0  0  0  0  0  0  0  0  0  0  0  0
   38.5417    3.7467    4.7953 H   0  0  0  0  0  0  0  0  0  0  0  0
   39.1730    4.2751    6.2046 H   0  0  0  0  0  0  0  0  0  0  0  0
   39.1673    4.2791    6.1810 H   0  0  0  0  0  0  0  0  0  0  0  0
   38.5504    3.7605    4.8065 H   0  0  0  0  0  0  0  0  0  0  0  0
   39.1731    4.2773    6.2022 H   0  0  0  0  0  0  0  0  0  0  0  0
   38.5438    3.7513    4.7962 H   0  0  0  0  0  0  0  0  0  0  0  0
  2 11  1  0
  2 12  1  0
  3 13  1  0
  3 14  1  0
  4 15  1  0
  4 16  1  0
  5 17  1  0
  5 18  1  0
  6 19  1  0
  6 20  1  0
  7 21  1  0
  7 22  1  0
M  CHG  4   1  -1   8   3   9  -1  10  -1
M  END
> <Uni-Dock RESULT> 
ENERGY=   -6.819  LOWER_BOUND=    0.000  UPPER_BOUND=    0.000
INTER + INTRA:          -6.819
INTER:                  -6.819
INTRA:                   0.000
UNBOUND:                 0.000

$$$$

     RDKit          3D

 22 12  0  0  0  0  0  0  0  0999 V2000
   46.8242    0.2001    7.6239 Cl  0  0  0  0  0  0  0  0  0  0  0  0
   46.7637   -0.1491    7.7347 O   0  0  0  0  0  0  0  0  0  0  0  0
   46.7611   -0.1738    7.7399 O   0  0  0  0  0  0  0  0  0  0  0  0
   46.7661   -0.1417    7.7307 O   0  0  0  0  0  0  0  0  0  0  0  0
   46.7633   -0.1474    7.7353 O   0  0  0  0  0  0  0  0  0  0  0  0
   46.7579   -0.1666    7.7445 O   0  0  0  0  0  0  0  0  0  0  0  0
   46.7631   -0.1548    7.7359 O   0  0  0  0  0  0  0  0  0  0  0  0
   46.8242    0.2001    7.6239 Al  0  0  0  0  0 15  0  0  0  0  0  0
   46.8242    0.2001    7.6239 Cl  0  0  0  0  0  0  0  0  0  0  0  0
   46.8242    0.2001    7.6239 Cl  0  0  0  0  0  0  0  0  0  0  0  0
   47.2768    0.1041    6.9276 H   0  0  0  0  0  0  0  0  0  0  0  0
   46.4319    0.6454    8.2094 H   0  0  0  0  0  0  0  0  0  0  0  0
   47.2719    0.1213    6.9344 H   0  0  0  0  0  0  0  0  0  0  0  0
   46.4395    0.6529    8.1973 H   0  0  0  0  0  0  0  0  0  0  0  0
   47.2798    0.0984    6.9233 H   0  0  0  0  0  0  0  0  0  0  0  0
   46.4266    0.6437    8.2177 H   0  0  0  0  0  0  0  0  0  0  0  0
   47.2781    0.1021    6.9258 H   0  0  0  0  0  0  0  0  0  0  0  0
   46.4311    0.6457    8.2106 H   0  0  0  0  0  0  0  0  0  0  0  0
   46.4441    0.6503    8.1903 H   0  0  0  0  0  0  0  0  0  0  0  0
   47.2704    0.1166    6.9369 H   0  0  0  0  0  0  0  0  0  0  0  0
   46.4323    0.6481    8.2087 H   0  0  0  0  0  0  0  0  0  0  0  0
   47.2771    0.1070    6.9270 H   0  0  0  0  0  0  0  0  0  0  0  0
  2 11  1  0
  2 12  1  0
  3 13  1  0
  3 14  1  0
  4 15  1  0
  4 16  1  0
  5 17  1  0
  5 18  1  0
  6 19  1  0
  6 20  1  0
  7 21  1  0
  7 22  1  0
M  CHG  4   1  -1   8   3   9  -1  10  -1
M  END
> <Uni-Dock RESULT> 
ENERGY=   -6.737  LOWER_BOUND=    9.037  UPPER_BOUND=    9.039
INTER + INTRA:          -6.737
INTER:                  -6.737
INTRA:                   0.000
UNBOUND:                 0.000

$$$$

     RDKit          3D

 22 12  0  0  0  0  0  0  0  0999 V2000
   47.6951    1.4858    6.9512 Cl  0  0  0  0  0  0  0  0  0  0  0  0
   48.0453    1.5262    7.0679 O   0  0  0  0  0  0  0  0  0  0  0  0
   48.0699    1.5298    7.0732 O   0  0  0  0  0  0  0  0  0  0  0  0
   48.0377    1.5258    7.0636 O   0  0  0  0  0  0  0  0  0  0  0  0
   48.0437    1.5257    7.0687 O   0  0  0  0  0  0  0  0  0  0  0  0
   48.0631    1.5271    7.0788 O   0  0  0  0  0  0  0  0  0  0  0  0
   48.0509    1.5270    7.0691 O   0  0  0  0  0  0  0  0  0  0  0  0
   47.6951    1.4858    6.9512 Al  0  0  0  0  0 15  0  0  0  0  0  0
   47.6951    1.4858    6.9512 Cl  0  0  0  0  0  0  0  0  0  0  0  0
   47.6951    1.4858    6.9512 Cl  0  0  0  0  0  0  0  0  0  0  0  0
   47.7392    1.6879    6.1412 H   0  0  0  0  0  0  0  0  0  0  0  0
   47.3008    1.2433    7.6445 H   0  0  0  0  0  0  0  0  0  0  0  0
   47.7228    1.6827    6.1496 H   0  0  0  0  0  0  0  0  0  0  0  0
   47.2926    1.2450    7.6307 H   0  0  0  0  0  0  0  0  0  0  0  0
   47.7444    1.6902    6.1360 H   0  0  0  0  0  0  0  0  0  0  0  0
   47.3031    1.2415    7.6541 H   0  0  0  0  0  0  0  0  0  0  0  0
   47.7410    1.6888    6.1390 H   0  0  0  0  0  0  0  0  0  0  0  0
   47.3006    1.2429    7.6460 H   0  0  0  0  0  0  0  0  0  0  0  0
   47.2947    1.2474    7.6225 H   0  0  0  0  0  0  0  0  0  0  0  0
   47.7276    1.6830    6.1523 H   0  0  0  0  0  0  0  0  0  0  0  0
   47.2981    1.2429    7.6438 H   0  0  0  0  0  0  0  0  0  0  0  0
   47.7363    1.6875    6.1406 H   0  0  0  0  0  0  0  0  0  0  0  0
  2 11  1  0
  2 12  1  0
  3 13  1  0
  3 14  1  0
  4 15  1  0
  4 16  1  0
  5 17  1  0
  5 18  1  0
  6 19  1  0
  6 20  1  0
  7 21  1  0
  7 22  1  0
M  CHG  4   1  -1   8   3   9  -1  10  -1
M  END
> <Uni-Dock RESULT> 
ENERGY=   -6.009  LOWER_BOUND=    9.482  UPPER_BOUND=    9.484
INTER + INTRA:          -6.009
INTER:                  -6.009
INTRA:                   0.000
UNBOUND:                 0.000

$$$$

     RDKit          3D

 22 12  0  0  0  0  0  0  0  0999 V2000
   40.3630   12.3377   15.6793 Cl  0  0  0  0  0  0  0  0  0  0  0  0
   40.6087   12.1153   15.8468 O   0  0  0  0  0  0  0  0  0  0  0  0
   40.6252   12.1017   15.8606 O   0  0  0  0  0  0  0  0  0  0  0  0
   40.6029   12.1214   15.8445 O   0  0  0  0  0  0  0  0  0  0  0  0
   40.6080   12.1154   15.8451 O   0  0  0  0  0  0  0  0  0  0  0  0
   40.6227   12.1006   15.8519 O   0  0  0  0  0  0  0  0  0  0  0  0
   40.6125   12.1122   15.8499 O   0  0  0  0  0  0  0  0  0  0  0  0
   40.3630   12.3377   15.6793 Al  0  0  0  0  0 15  0  0  0  0  0  0
   40.3630   12.3377   15.6793 Cl  0  0  0  0  0  0  0  0  0  0  0  0
   40.3630   12.3377   15.6793 Cl  0  0  0  0  0  0  0  0  0  0  0  0
   40.1543   12.8792   16.2810 H   0  0  0  0  0  0  0  0  0  0  0  0
   40.3260   12.0185   14.9101 H   0  0  0  0  0  0  0  0  0  0  0  0
   40.1468   12.8800   16.2634 H   0  0  0  0  0  0  0  0  0  0  0  0
   40.3170   12.0314   14.9139 H   0  0  0  0  0  0  0  0  0  0  0  0
   40.1559   12.8807   16.2885 H   0  0  0  0  0  0  0  0  0  0  0  0
   40.3301   12.0110   14.9050 H   0  0  0  0  0  0  0  0  0  0  0  0
   40.1547   12.8800   16.2839 H   0  0  0  0  0  0  0  0  0  0  0  0
   40.3263   12.0176   14.9089 H   0  0  0  0  0  0  0  0  0  0  0  0
   40.3159   12.0362   14.9212 H   0  0  0  0  0  0  0  0  0  0  0  0
   40.1505   12.8763   16.2649 H   0  0  0  0  0  0  0  0  0  0  0  0
   40.3241   12.0201   14.9086 H   0  0  0  0  0  0  0  0  0  0  0  0
   40.1523   12.8808   16.2794 H   0  0  0  0  0  0  0  0  0  0  0  0
  2 11  1  0
  2 12  1  0
  3 13  1  0
  3 14  1  0
  4 15  1  0
  4 16  1  0
  5 17  1  0
  5 18  1  0
  6 19  1  0
  6 20  1  0
  7 21  1  0
  7 22  1  0
M  CHG  4   1  -1   8   3   9  -1  10  -1
M  END
> <Uni-Dock RESULT> 
ENERGY=   -5.548  LOWER_BOUND=   13.351  UPPER_BOUND=   13.353
INTER + INTRA:          -5.548
INTER:                  -5.548
INTRA:                   0.000
UNBOUND:                 0.000

$$$$

     RDKit          3D

 22 12  0  0  0  0  0  0  0  0999 V2000
   42.3539    5.6763   11.8432 Cl  0  0  0  0  0  0  0  0  0  0  0  0
   42.0536    5.8807   11.7662 O   0  0  0  0  0  0  0  0  0  0  0  0
   42.0321    5.8924   11.7593 O   0  0  0  0  0  0  0  0  0  0  0  0
   42.0598    5.8746   11.7669 O   0  0  0  0  0  0  0  0  0  0  0  0
   42.0551    5.8809   11.7672 O   0  0  0  0  0  0  0  0  0  0  0  0
   42.0389    5.8954   11.7647 O   0  0  0  0  0  0  0  0  0  0  0  0
   42.0487    5.8834   11.7646 O   0  0  0  0  0  0  0  0  0  0  0  0
   42.3539    5.6763   11.8432 Al  0  0  0  0  0 15  0  0  0  0  0  0
   42.3539    5.6763   11.8432 Cl  0  0  0  0  0  0  0  0  0  0  0  0
   42.3539    5.6763   11.8432 Cl  0  0  0  0  0  0  0  0  0  0  0  0
   42.2147    4.9665   11.4242 H   0  0  0  0  0  0  0  0  0  0  0  0
   42.7936    6.1820   12.3392 H   0  0  0  0  0  0  0  0  0  0  0  0
   42.2304    4.9693   11.4347 H   0  0  0  0  0  0  0  0  0  0  0  0
   42.7993    6.1673   12.3355 H   0  0  0  0  0  0  0  0  0  0  0  0
   42.2093    4.9633   11.4196 H   0  0  0  0  0  0  0  0  0  0  0  0
   42.7927    6.1911   12.3431 H   0  0  0  0  0  0  0  0  0  0  0  0
   42.2128    4.9650   11.4224 H   0  0  0  0  0  0  0  0  0  0  0  0
   42.7940    6.1832   12.3400 H   0  0  0  0  0  0  0  0  0  0  0  0
   42.7964    6.1606   12.3307 H   0  0  0  0  0  0  0  0  0  0  0  0
   42.2264    4.9731   11.4342 H   0  0  0  0  0  0  0  0  0  0  0  0
   42.7959    6.1806   12.3399 H   0  0  0  0  0  0  0  0  0  0  0  0
   42.2172    4.9651   11.4250 H   0  0  0  0  0  0  0  0  0  0  0  0
  2 11  1  0
  2 12  1  0
  3 13  1  0
  3 14  1  0
  4 15  1  0
  4 16  1  0
  5 17  1  0
  5 18  1  0
  6 19  1  0
  6 20  1  0
  7 21  1  0
  7 22  1  0
M  CHG  4   1  -1   8   3   9  -1  10  -1
M  END
> <Uni-Dock RESULT> 
ENERGY=   -5.027  LOWER_BOUND=    7.326  UPPER_BOUND=    7.329
INTER + INTRA:          -5.027
INTER:                  -5.027
INTRA:                   0.000
UNBOUND:                 0.000

$$$$

     RDKit          3D

 22 12  0  0  0  0  0  0  0  0999 V2000
   40.7916    1.8175   22.3197 Cl  0  0  0  0  0  0  0  0  0  0  0  0
   40.8028    1.8961   21.9570 O   0  0  0  0  0  0  0  0  0  0  0  0
   40.8060    1.9000   21.9321 O   0  0  0  0  0  0  0  0  0  0  0  0
   40.8041    1.8934   21.9652 O   0  0  0  0  0  0  0  0  0  0  0  0
   40.8016    1.8965   21.9584 O   0  0  0  0  0  0  0  0  0  0  0  0
   40.7992    1.9028   21.9375 O   0  0  0  0  0  0  0  0  0  0  0  0
   40.8035    1.8970   21.9513 O   0  0  0  0  0  0  0  0  0  0  0  0
   40.7916    1.8175   22.3197 Al  0  0  0  0  0 15  0  0  0  0  0  0
   40.7916    1.8175   22.3197 Cl  0  0  0  0  0  0  0  0  0  0  0  0
   40.7916    1.8175   22.3197 Cl  0  0  0  0  0  0  0  0  0  0  0  0
   41.4871    1.3693   22.4395 H   0  0  0  0  0  0  0  0  0  0  0  0
   40.0850    2.1872   22.5627 H   0  0  0  0  0  0  0  0  0  0  0  0
   41.4749    1.3734   22.4538 H   0  0  0  0  0  0  0  0  0  0  0  0
   40.0941    2.1792   22.5734 H   0  0  0  0  0  0  0  0  0  0  0  0
   41.4931    1.3666   22.4355 H   0  0  0  0  0  0  0  0  0  0  0  0
   40.0777    2.1925   22.5585 H   0  0  0  0  0  0  0  0  0  0  0  0
   41.4895    1.3682   22.4383 H   0  0  0  0  0  0  0  0  0  0  0  0
   40.0837    2.1879   22.5626 H   0  0  0  0  0  0  0  0  0  0  0  0
   40.1016    2.1747   22.5730 H   0  0  0  0  0  0  0  0  0  0  0  0
   41.4741    1.3750   22.4486 H   0  0  0  0  0  0  0  0  0  0  0  0
   40.0847    2.1867   22.5654 H   0  0  0  0  0  0  0  0  0  0  0  0
   41.4867    1.3689   22.4425 H   0  0  0  0  0  0  0  0  0  0  0  0
  2 11  1  0
  2 12  1  0
  3 13  1  0
  3 14  1  0
  4 15  1  0
  4 16  1  0
  5 17  1  0
  5 18  1  0
  6 19  1  0
  6 20  1  0
  7 21  1  0
  7 22  1  0
M  CHG  4   1  -1   8   3   9  -1  10  -1
M  END
> <Uni-Dock RESULT> 
ENERGY=   -4.965  LOWER_BOUND=   16.638  UPPER_BOUND=   16.644
INTER + INTRA:          -4.965
INTER:                  -4.965
INTRA:                   0.000
UNBOUND:                 0.000

$$$$

     RDKit          3D

 22 12  0  0  0  0  0  0  0  0999 V2000
   47.0909    2.9959   17.6014 Cl  0  0  0  0  0  0  0  0  0  0  0  0
   46.8050    2.7613   17.6348 O   0  0  0  0  0  0  0  0  0  0  0  0
   46.7874    2.7431   17.6367 O   0  0  0  0  0  0  0  0  0  0  0  0
   46.8127    2.7653   17.6338 O   0  0  0  0  0  0  0  0  0  0  0  0
   46.8052    2.7631   17.6349 O   0  0  0  0  0  0  0  0  0  0  0  0
   46.7864    2.7522   17.6374 O   0  0  0  0  0  0  0  0  0  0  0  0
   46.8010    2.7571   17.6352 O   0  0  0  0  0  0  0  0  0  0  0  0
   47.0909    2.9959   17.6014 Al  0  0  0  0  0 15  0  0  0  0  0  0
   47.0909    2.9959   17.6014 Cl  0  0  0  0  0  0  0  0  0  0  0  0
   47.0909    2.9959   17.6014 Cl  0  0  0  0  0  0  0  0  0  0  0  0
   47.7403    2.4876   17.4647 H   0  0  0  0  0  0  0  0  0  0  0  0
   46.7272    3.7389   17.7046 H   0  0  0  0  0  0  0  0  0  0  0  0
   47.7422    2.5067   17.4655 H   0  0  0  0  0  0  0  0  0  0  0  0
   46.7431    3.7380   17.7019 H   0  0  0  0  0  0  0  0  0  0  0  0
   47.7419    2.4800   17.4640 H   0  0  0  0  0  0  0  0  0  0  0  0
   46.7180    3.7425   17.7063 H   0  0  0  0  0  0  0  0  0  0  0  0
   47.7412    2.4848   17.4644 H   0  0  0  0  0  0  0  0  0  0  0  0
   46.7261    3.7400   17.7048 H   0  0  0  0  0  0  0  0  0  0  0  0
   46.7488    3.7314   17.7006 H   0  0  0  0  0  0  0  0  0  0  0  0
   47.7374    2.5041   17.4661 H   0  0  0  0  0  0  0  0  0  0  0  0
   46.7292    3.7409   17.7044 H   0  0  0  0  0  0  0  0  0  0  0  0
   47.7424    2.4898   17.4645 H   0  0  0  0  0  0  0  0  0  0  0  0
  2 11  1  0
  2 12  1  0
  3 13  1  0
  3 14  1  0
  4 15  1  0
  4 16  1  0
  5 17  1  0
  5 18  1  0
  6 19  1  0
  6 20  1  0
  7 21  1  0
  7 22  1  0
M  CHG  4   1  -1   8   3   9  -1  10  -1
M  END
> <Uni-Dock RESULT> 
ENERGY=   -4.698  LOWER_BOUND=   14.476  UPPER_BOUND=   14.479
INTER + INTRA:          -4.698
INTER:                  -4.698
INTRA:                   0.000
UNBOUND:                 0.000

$$$$

     RDKit          3D

 22 12  0  0  0  0  0  0  0  0999 V2000
   39.2929   12.4003   15.9743 Cl  0  0  0  0  0  0  0  0  0  0  0  0
   39.1755   12.4000   16.3265 O   0  0  0  0  0  0  0  0  0  0  0  0
   39.1702   12.4003   16.3514 O   0  0  0  0  0  0  0  0  0  0  0  0
   39.1799   12.4002   16.3190 O   0  0  0  0  0  0  0  0  0  0  0  0
   39.1746   12.3998   16.3249 O   0  0  0  0  0  0  0  0  0  0  0  0
   39.1645   12.3994   16.3443 O   0  0  0  0  0  0  0  0  0  0  0  0
   39.1742   12.4000   16.3322 O   0  0  0  0  0  0  0  0  0  0  0  0
   39.2929   12.4003   15.9743 Al  0  0  0  0  0 15  0  0  0  0  0  0
   39.2929   12.4003   15.9743 Cl  0  0  0  0  0  0  0  0  0  0  0  0
   39.2929   12.4003   15.9743 Cl  0  0  0  0  0  0  0  0  0  0  0  0
   40.1206   12.4901   16.0488 H   0  0  0  0  0  0  0  0  0  0  0  0
   38.5824   12.3108   15.5475 H   0  0  0  0  0  0  0  0  0  0  0  0
   40.1119   12.4886   16.0318 H   0  0  0  0  0  0  0  0  0  0  0  0
   38.5964   12.3121   15.5396 H   0  0  0  0  0  0  0  0  0  0  0  0
   40.1260   12.4908   16.0543 H   0  0  0  0  0  0  0  0  0  0  0  0
   38.5726   12.3099   15.5494 H   0  0  0  0  0  0  0  0  0  0  0  0
   40.1229   12.4904   16.0507 H   0  0  0  0  0  0  0  0  0  0  0  0
   38.5809   12.3107   15.5472 H   0  0  0  0  0  0  0  0  0  0  0  0
   38.6048   12.3130   15.5420 H   0  0  0  0  0  0  0  0  0  0  0  0
   40.1092   12.4885   16.0366 H   0  0  0  0  0  0  0  0  0  0  0  0
   38.5830   12.3108   15.5447 H   0  0  0  0  0  0  0  0  0  0  0  0
   40.1213   12.4901   16.0458 H   0  0  0  0  0  0  0  0  0  0  0  0
  2 11  1  0
  2 12  1  0
  3 13  1  0
  3 14  1  0
  4 15  1  0
  4 16  1  0
  5 17  1  0
  5 18  1  0
  6 19  1  0
  6 20  1  0
  7 21  1  0
  7 22  1  0
M  CHG  4   1  -1   8   3   9  -1  10  -1
M  END
> <Uni-Dock RESULT> 
ENERGY=   -4.400  LOWER_BOUND=   13.685  UPPER_BOUND=   13.687
INTER + INTRA:          -4.400
INTER:                  -4.400
INTRA:                   0.000
UNBOUND:                 0.000

$$$$

     RDKit          3D

 22 12  0  0  0  0  0  0  0  0999 V2000
   45.1750    1.9019    8.8500 Cl  0  0  0  0  0  0  0  0  0  0  0  0
   45.1789    1.5306    8.8502 O   0  0  0  0  0  0  0  0  0  0  0  0
   45.1818    1.5053    8.8514 O   0  0  0  0  0  0  0  0  0  0  0  0
   45.1805    1.5391    8.8510 O   0  0  0  0  0  0  0  0  0  0  0  0
   45.1777    1.5319    8.8496 O   0  0  0  0  0  0  0  0  0  0  0  0
   45.1747    1.5102    8.8482 O   0  0  0  0  0  0  0  0  0  0  0  0
   45.1795    1.5248    8.8505 O   0  0  0  0  0  0  0  0  0  0  0  0
   45.1750    1.9019    8.8500 Al  0  0  0  0  0 15  0  0  0  0  0  0
   45.1750    1.9019    8.8500 Cl  0  0  0  0  0  0  0  0  0  0  0  0
   45.1750    1.9019    8.8500 Cl  0  0  0  0  0  0  0  0  0  0  0  0
   45.9097    2.1009    9.1955 H   0  0  0  0  0  0  0  0  0  0  0  0
   44.4363    2.0742    8.5041 H   0  0  0  0  0  0  0  0  0  0  0  0
   45.8972    2.1142    9.1897 H   0  0  0  0  0  0  0  0  0  0  0  0
   44.4460    2.0861    8.5088 H   0  0  0  0  0  0  0  0  0  0  0  0
   45.9160    2.0974    9.1985 H   0  0  0  0  0  0  0  0  0  0  0  0
   44.4285    2.0691    8.5005 H   0  0  0  0  0  0  0  0  0  0  0  0
   45.9123    2.0999    9.1967 H   0  0  0  0  0  0  0  0  0  0  0  0
   44.4349    2.0739    8.5035 H   0  0  0  0  0  0  0  0  0  0  0  0
   44.4540    2.0866    8.5125 H   0  0  0  0  0  0  0  0  0  0  0  0
   45.8963    2.1087    9.1892 H   0  0  0  0  0  0  0  0  0  0  0  0
   44.4360    2.0770    8.5040 H   0  0  0  0  0  0  0  0  0  0  0  0
   45.9094    2.1039    9.1954 H   0  0  0  0  0  0  0  0  0  0  0  0
  2 11  1  0
  2 12  1  0
  3 13  1  0
  3 14  1  0
  4 15  1  0
  4 16  1  0
  5 17  1  0
  5 18  1  0
  6 19  1  0
  6 20  1  0
  7 21  1  0
  7 22  1  0
M  CHG  4   1  -1   8   3   9  -1  10  -1
M  END
> <Uni-Dock RESULT> 
ENERGY=   -4.399  LOWER_BOUND=    7.414  UPPER_BOUND=    7.416
INTER + INTRA:          -4.399
INTER:                  -4.399
INTRA:                   0.000
UNBOUND:                 0.000

$$$$
