
     RDKit          3D

 22 12  0  0  0  0  0  0  0  0999 V2000
   38.8193    3.8471    5.5810 Cl  0  0  0  0  0  0  0  0  0  0  0  0
   38.7439    3.5175    5.7401 O   0  0  0  0  0  0  0  0  0  0  0  0
   38.7436    3.5193    5.7426 O   0  0  0  0  0  0  0  0  0  0  0  0
   38.7429    3.5126    5.7419 O   0  0  0  0  0  0  0  0  0  0  0  0
   38.7434    3.5138    5.7403 O   0  0  0  0  0  0  0  0  0  0  0  0
   38.7394    3.4965    5.7486 O   0  0  0  0  0  0  0  0  0  0  0  0
   38.7451    3.5274    5.7404 O   0  0  0  0  0  0  0  0  0  0  0  0
   38.8193    3.8471    5.5810 Al  0  0  0  0  0 15  0  0  0  0  0  0
   38.8193    3.8471    5.5810 Cl  0  0  0  0  0  0  0  0  0  0  0  0
   38.8193    3.8471    5.5810 Cl  0  0  0  0  0  0  0  0  0  0  0  0
   38.9596    3.6339    4.7880 H   0  0  0  0  0  0  0  0  0  0  0  0
   38.7543    4.3899    6.2150 H   0  0  0  0  0  0  0  0  0  0  0  0
   38.9609    3.6269    4.7776 H   0  0  0  0  0  0  0  0  0  0  0  0
   38.7533    4.3951    6.2228 H   0  0  0  0  0  0  0  0  0  0  0  0
   38.9597    3.6382    4.7901 H   0  0  0  0  0  0  0  0  0  0  0  0
   38.7552    4.3905    6.2110 H   0  0  0  0  0  0  0  0  0  0  0  0
   38.7550    4.3893    6.2114 H   0  0  0  0  0  0  0  0  0  0  0  0
   38.9594    3.6381    4.7914 H   0  0  0  0  0  0  0  0  0  0  0  0
   38.9590    3.6563    4.8043 H   0  0  0  0  0  0  0  0  0  0  0  0
   38.7594    4.3886    6.1902 H   0  0  0  0  0  0  0  0  0  0  0  0
   38.9593    3.6250    4.7838 H   0  0  0  0  0  0  0  0  0  0  0  0
   38.7534    4.3890    6.2188 H   0  0  0  0  0  0  0  0  0  0  0  0
  2 11  1  0
  2 12  1  0
  3 13  1  0
  3 14  1  0
  4 15  1  0
  4 16  1  0
  5 17  1  0
  5 18  1  0
  6 19  1  0
  6 20  1  0
  7 21  1  0
  7 22  1  0
M  CHG  4   1  -1   8   3   9  -1  10  -1
M  END
> <Uni-Dock RESULT> 
ENERGY=   -6.816  LOWER_BOUND=    0.000  UPPER_BOUND=    0.000
INTER + INTRA:          -6.816
INTER:                  -6.816
INTRA:                   0.000
UNBOUND:                 0.000

$$$$

     RDKit          3D

 22 12  0  0  0  0  0  0  0  0999 V2000
   46.8170    0.2022    7.6212 Cl  0  0  0  0  0  0  0  0  0  0  0  0
   46.7654   -0.1470    7.7438 O   0  0  0  0  0  0  0  0  0  0  0  0
   46.7642   -0.1473    7.7409 O   0  0  0  0  0  0  0  0  0  0  0  0
   46.7649   -0.1518    7.7460 O   0  0  0  0  0  0  0  0  0  0  0  0
   46.7655   -0.1499    7.7463 O   0  0  0  0  0  0  0  0  0  0  0  0
   46.7628   -0.1682    7.7527 O   0  0  0  0  0  0  0  0  0  0  0  0
   46.7648   -0.1399    7.7369 O   0  0  0  0  0  0  0  0  0  0  0  0
   46.8170    0.2022    7.6212 Al  0  0  0  0  0 15  0  0  0  0  0  0
   46.8170    0.2022    7.6212 Cl  0  0  0  0  0  0  0  0  0  0  0  0
   46.8170    0.2022    7.6212 Cl  0  0  0  0  0  0  0  0  0  0  0  0
   47.1673    0.5722    8.2803 H   0  0  0  0  0  0  0  0  0  0  0  0
   46.5183    0.1813    6.8394 H   0  0  0  0  0  0  0  0  0  0  0  0
   47.1721    0.5740    8.2918 H   0  0  0  0  0  0  0  0  0  0  0  0
   46.5147    0.1799    6.8308 H   0  0  0  0  0  0  0  0  0  0  0  0
   47.1662    0.5740    8.2759 H   0  0  0  0  0  0  0  0  0  0  0  0
   46.5200    0.1843    6.8416 H   0  0  0  0  0  0  0  0  0  0  0  0
   46.5199    0.1832    6.8422 H   0  0  0  0  0  0  0  0  0  0  0  0
   47.1656    0.5731    8.2752 H   0  0  0  0  0  0  0  0  0  0  0  0
   47.1592    0.5779    8.2544 H   0  0  0  0  0  0  0  0  0  0  0  0
   46.5290    0.1968    6.8564 H   0  0  0  0  0  0  0  0  0  0  0  0
   47.1695    0.5685    8.2891 H   0  0  0  0  0  0  0  0  0  0  0  0
   46.5168    0.1780    6.8376 H   0  0  0  0  0  0  0  0  0  0  0  0
  2 11  1  0
  2 12  1  0
  3 13  1  0
  3 14  1  0
  4 15  1  0
  4 16  1  0
  5 17  1  0
  5 18  1  0
  6 19  1  0
  6 20  1  0
  7 21  1  0
  7 22  1  0
M  CHG  4   1  -1   8   3   9  -1  10  -1
M  END
> <Uni-Dock RESULT> 
ENERGY=   -6.737  LOWER_BOUND=    9.032  UPPER_BOUND=    9.035
INTER + INTRA:          -6.737
INTER:                  -6.737
INTRA:                   0.000
UNBOUND:                 0.000

$$$$

     RDKit          3D

 22 12  0  0  0  0  0  0  0  0999 V2000
   39.6693    4.8707    5.2294 Cl  0  0  0  0  0  0  0  0  0  0  0  0
   40.0380    4.9219    5.1968 O   0  0  0  0  0  0  0  0  0  0  0  0
   40.0372    4.9223    5.1938 O   0  0  0  0  0  0  0  0  0  0  0  0
   40.0433    4.9225    5.1969 O   0  0  0  0  0  0  0  0  0  0  0  0
   40.0416    4.9221    5.1979 O   0  0  0  0  0  0  0  0  0  0  0  0
   40.0609    4.9248    5.1963 O   0  0  0  0  0  0  0  0  0  0  0  0
   40.0288    4.9214    5.1931 O   0  0  0  0  0  0  0  0  0  0  0  0
   39.6693    4.8707    5.2294 Al  0  0  0  0  0 15  0  0  0  0  0  0
   39.6693    4.8707    5.2294 Cl  0  0  0  0  0  0  0  0  0  0  0  0
   39.6693    4.8707    5.2294 Cl  0  0  0  0  0  0  0  0  0  0  0  0
   39.5829    4.7123    6.0428 H   0  0  0  0  0  0  0  0  0  0  0  0
   39.3870    4.9780    4.4487 H   0  0  0  0  0  0  0  0  0  0  0  0
   39.5857    4.7105    6.0549 H   0  0  0  0  0  0  0  0  0  0  0  0
   39.3849    4.9794    4.4396 H   0  0  0  0  0  0  0  0  0  0  0  0
   39.5796    4.7126    6.0392 H   0  0  0  0  0  0  0  0  0  0  0  0
   39.3850    4.9771    4.4521 H   0  0  0  0  0  0  0  0  0  0  0  0
   39.3862    4.9773    4.4522 H   0  0  0  0  0  0  0  0  0  0  0  0
   39.5801    4.7129    6.0381 H   0  0  0  0  0  0  0  0  0  0  0  0
   39.5677    4.7147    6.0197 H   0  0  0  0  0  0  0  0  0  0  0  0
   39.3792    4.9728    4.4723 H   0  0  0  0  0  0  0  0  0  0  0  0
   39.5898    4.7119    6.0498 H   0  0  0  0  0  0  0  0  0  0  0  0
   39.3893    4.9789    4.4455 H   0  0  0  0  0  0  0  0  0  0  0  0
  2 11  1  0
  2 12  1  0
  3 13  1  0
  3 14  1  0
  4 15  1  0
  4 16  1  0
  5 17  1  0
  5 18  1  0
  6 19  1  0
  6 20  1  0
  7 21  1  0
  7 22  1  0
M  CHG  4   1  -1   8   3   9  -1  10  -1
M  END
> <Uni-Dock RESULT> 
ENERGY=   -6.090  LOWER_BOUND=    1.766  UPPER_BOUND=    1.771
INTER + INTRA:          -6.090
INTER:                  -6.090
INTRA:                   0.000
UNBOUND:                 0.000

$$$$

     RDKit          3D

 22 12  0  0  0  0  0  0  0  0999 V2000
   48.0948    2.1180    5.8887 Cl  0  0  0  0  0  0  0  0  0  0  0  0
   48.2552    2.0505    5.5580 O   0  0  0  0  0  0  0  0  0  0  0  0
   48.2530    2.0524    5.5571 O   0  0  0  0  0  0  0  0  0  0  0  0
   48.2578    2.0492    5.5536 O   0  0  0  0  0  0  0  0  0  0  0  0
   48.2577    2.0490    5.5556 O   0  0  0  0  0  0  0  0  0  0  0  0
   48.2661    2.0454    5.5383 O   0  0  0  0  0  0  0  0  0  0  0  0
   48.2484    2.0548    5.5637 O   0  0  0  0  0  0  0  0  0  0  0  0
   48.0948    2.1180    5.8887 Al  0  0  0  0  0 15  0  0  0  0  0  0
   48.0948    2.1180    5.8887 Cl  0  0  0  0  0  0  0  0  0  0  0  0
   48.0948    2.1180    5.8887 Cl  0  0  0  0  0  0  0  0  0  0  0  0
   48.5630    1.6664    6.4091 H   0  0  0  0  0  0  0  0  0  0  0  0
   47.4661    2.6372    5.6988 H   0  0  0  0  0  0  0  0  0  0  0  0
   48.5720    1.6587    6.4133 H   0  0  0  0  0  0  0  0  0  0  0  0
   47.4594    2.6429    5.6956 H   0  0  0  0  0  0  0  0  0  0  0  0
   48.5592    1.6692    6.4100 H   0  0  0  0  0  0  0  0  0  0  0  0
   47.4673    2.6356    5.7024 H   0  0  0  0  0  0  0  0  0  0  0  0
   47.4679    2.6353    5.7014 H   0  0  0  0  0  0  0  0  0  0  0  0
   48.5587    1.6697    6.4089 H   0  0  0  0  0  0  0  0  0  0  0  0
   48.5411    1.6833    6.4093 H   0  0  0  0  0  0  0  0  0  0  0  0
   47.4771    2.6253    5.7184 H   0  0  0  0  0  0  0  0  0  0  0  0
   48.5708    1.6607    6.4071 H   0  0  0  0  0  0  0  0  0  0  0  0
   47.4652    2.6385    5.6951 H   0  0  0  0  0  0  0  0  0  0  0  0
  2 11  1  0
  2 12  1  0
  3 13  1  0
  3 14  1  0
  4 15  1  0
  4 16  1  0
  5 17  1  0
  5 18  1  0
  6 19  1  0
  6 20  1  0
  7 21  1  0
  7 22  1  0
M  CHG  4   1  -1   8   3   9  -1  10  -1
M  END
> <Uni-Dock RESULT> 
ENERGY=   -5.928  LOWER_BOUND=    9.553  UPPER_BOUND=    9.553
INTER + INTRA:          -5.928
INTER:                  -5.928
INTRA:                   0.000
UNBOUND:                 0.000

$$$$

     RDKit          3D

 22 12  0  0  0  0  0  0  0  0999 V2000
   40.3633   12.3375   15.6795 Cl  0  0  0  0  0  0  0  0  0  0  0  0
   40.6101   12.1137   15.8485 O   0  0  0  0  0  0  0  0  0  0  0  0
   40.6114   12.1135   15.8456 O   0  0  0  0  0  0  0  0  0  0  0  0
   40.6134   12.1105   15.8513 O   0  0  0  0  0  0  0  0  0  0  0  0
   40.6118   12.1117   15.8513 O   0  0  0  0  0  0  0  0  0  0  0  0
   40.6247   12.1000   15.8602 O   0  0  0  0  0  0  0  0  0  0  0  0
   40.6066   12.1183   15.8405 O   0  0  0  0  0  0  0  0  0  0  0  0
   40.3633   12.3375   15.6795 Al  0  0  0  0  0 15  0  0  0  0  0  0
   40.3633   12.3375   15.6795 Cl  0  0  0  0  0  0  0  0  0  0  0  0
   40.3633   12.3375   15.6795 Cl  0  0  0  0  0  0  0  0  0  0  0  0
   39.8537   12.5446   16.3051 H   0  0  0  0  0  0  0  0  0  0  0  0
   40.6262   12.3543   14.8849 H   0  0  0  0  0  0  0  0  0  0  0  0
   39.8486   12.5453   16.3166 H   0  0  0  0  0  0  0  0  0  0  0  0
   40.6300   12.3538   14.8763 H   0  0  0  0  0  0  0  0  0  0  0  0
   39.8536   12.5459   16.3004 H   0  0  0  0  0  0  0  0  0  0  0  0
   40.6230   12.3562   14.8867 H   0  0  0  0  0  0  0  0  0  0  0  0
   40.6237   12.3555   14.8874 H   0  0  0  0  0  0  0  0  0  0  0  0
   39.8546   12.5454   16.2998 H   0  0  0  0  0  0  0  0  0  0  0  0
   39.8571   12.5492   16.2780 H   0  0  0  0  0  0  0  0  0  0  0  0
   40.6082   12.3634   14.9002 H   0  0  0  0  0  0  0  0  0  0  0  0
   39.8540   12.5419   16.3146 H   0  0  0  0  0  0  0  0  0  0  0  0
   40.6294   12.3524   14.8834 H   0  0  0  0  0  0  0  0  0  0  0  0
  2 11  1  0
  2 12  1  0
  3 13  1  0
  3 14  1  0
  4 15  1  0
  4 16  1  0
  5 17  1  0
  5 18  1  0
  6 19  1  0
  6 20  1  0
  7 21  1  0
  7 22  1  0
M  CHG  4   1  -1   8   3   9  -1  10  -1
M  END
> <Uni-Dock RESULT> 
ENERGY=   -5.550  LOWER_BOUND=   13.352  UPPER_BOUND=   13.353
INTER + INTRA:          -5.550
INTER:                  -5.550
INTRA:                   0.000
UNBOUND:                 0.000

$$$$

     RDKit          3D

 22 12  0  0  0  0  0  0  0  0999 V2000
   46.7447    3.9178    7.0886 Cl  0  0  0  0  0  0  0  0  0  0  0  0
   46.8727    4.2324    7.2442 O   0  0  0  0  0  0  0  0  0  0  0  0
   46.8721    4.2336    7.2414 O   0  0  0  0  0  0  0  0  0  0  0  0
   46.8746    4.2366    7.2469 O   0  0  0  0  0  0  0  0  0  0  0  0
   46.8742    4.2347    7.2470 O   0  0  0  0  0  0  0  0  0  0  0  0
   46.8809    4.2512    7.2552 O   0  0  0  0  0  0  0  0  0  0  0  0
   46.8690    4.2273    7.2367 O   0  0  0  0  0  0  0  0  0  0  0  0
   46.7447    3.9178    7.0886 Al  0  0  0  0  0 15  0  0  0  0  0  0
   46.7447    3.9178    7.0886 Cl  0  0  0  0  0  0  0  0  0  0  0  0
   46.7447    3.9178    7.0886 Cl  0  0  0  0  0  0  0  0  0  0  0  0
   46.8179    3.3689    7.7111 H   0  0  0  0  0  0  0  0  0  0  0  0
   46.5434    4.1520    6.3106 H   0  0  0  0  0  0  0  0  0  0  0  0
   46.8204    3.3641    7.7224 H   0  0  0  0  0  0  0  0  0  0  0  0
   46.5415    4.1558    6.3021 H   0  0  0  0  0  0  0  0  0  0  0  0
   46.8162    3.3684    7.7066 H   0  0  0  0  0  0  0  0  0  0  0  0
   46.5431    4.1484    6.3124 H   0  0  0  0  0  0  0  0  0  0  0  0
   46.5436    4.1493    6.3131 H   0  0  0  0  0  0  0  0  0  0  0  0
   46.8163    3.3695    7.7059 H   0  0  0  0  0  0  0  0  0  0  0  0
   46.8095    3.3703    7.6847 H   0  0  0  0  0  0  0  0  0  0  0  0
   46.5436    4.1319    6.3260 H   0  0  0  0  0  0  0  0  0  0  0  0
   46.8212    3.3703    7.7203 H   0  0  0  0  0  0  0  0  0  0  0  0
   46.5438    4.1558    6.3091 H   0  0  0  0  0  0  0  0  0  0  0  0
  2 11  1  0
  2 12  1  0
  3 13  1  0
  3 14  1  0
  4 15  1  0
  4 16  1  0
  5 17  1  0
  5 18  1  0
  6 19  1  0
  6 20  1  0
  7 21  1  0
  7 22  1  0
M  CHG  4   1  -1   8   3   9  -1  10  -1
M  END
> <Uni-Dock RESULT> 
ENERGY=   -5.141  LOWER_BOUND=    8.206  UPPER_BOUND=    8.208
INTER + INTRA:          -5.141
INTER:                  -5.141
INTRA:                   0.000
UNBOUND:                 0.000

$$$$

     RDKit          3D

 22 12  0  0  0  0  0  0  0  0999 V2000
   40.7915    1.8174   22.3194 Cl  0  0  0  0  0  0  0  0  0  0  0  0
   40.8023    1.8971   21.9545 O   0  0  0  0  0  0  0  0  0  0  0  0
   40.8052    1.8958   21.9547 O   0  0  0  0  0  0  0  0  0  0  0  0
   40.8020    1.8984   21.9493 O   0  0  0  0  0  0  0  0  0  0  0  0
   40.8011    1.8984   21.9511 O   0  0  0  0  0  0  0  0  0  0  0  0
   40.8016    1.9026   21.9320 O   0  0  0  0  0  0  0  0  0  0  0  0
   40.8063    1.8935   21.9628 O   0  0  0  0  0  0  0  0  0  0  0  0
   40.7915    1.8174   22.3194 Al  0  0  0  0  0 15  0  0  0  0  0  0
   40.7915    1.8174   22.3194 Cl  0  0  0  0  0  0  0  0  0  0  0  0
   40.7915    1.8174   22.3194 Cl  0  0  0  0  0  0  0  0  0  0  0  0
   40.0363    2.0921   22.5390 H   0  0  0  0  0  0  0  0  0  0  0  0
   41.5359    1.4631   22.4646 H   0  0  0  0  0  0  0  0  0  0  0  0
   40.0248    2.0972   22.5383 H   0  0  0  0  0  0  0  0  0  0  0  0
   41.5445    1.4593   22.4651 H   0  0  0  0  0  0  0  0  0  0  0  0
   40.0397    2.0900   22.5417 H   0  0  0  0  0  0  0  0  0  0  0  0
   41.5328    1.4639   22.4671 H   0  0  0  0  0  0  0  0  0  0  0  0
   41.5326    1.4642   22.4659 H   0  0  0  0  0  0  0  0  0  0  0  0
   40.0408    2.0897   22.5409 H   0  0  0  0  0  0  0  0  0  0  0  0
   40.0586    2.0799   22.5500 H   0  0  0  0  0  0  0  0  0  0  0  0
   41.5143    1.4698   22.4760 H   0  0  0  0  0  0  0  0  0  0  0  0
   40.0293    2.0964   22.5335 H   0  0  0  0  0  0  0  0  0  0  0  0
   41.5388    1.4625   22.4618 H   0  0  0  0  0  0  0  0  0  0  0  0
  2 11  1  0
  2 12  1  0
  3 13  1  0
  3 14  1  0
  4 15  1  0
  4 16  1  0
  5 17  1  0
  5 18  1  0
  6 19  1  0
  6 20  1  0
  7 21  1  0
  7 22  1  0
M  CHG  4   1  -1   8   3   9  -1  10  -1
M  END
> <Uni-Dock RESULT> 
ENERGY=   -4.970  LOWER_BOUND=   16.639  UPPER_BOUND=   16.644
INTER + INTRA:          -4.970
INTER:                  -4.970
INTRA:                   0.000
UNBOUND:                 0.000

$$$$

     RDKit          3D

 22 12  0  0  0  0  0  0  0  0999 V2000
   47.0832    3.0848   17.5786 Cl  0  0  0  0  0  0  0  0  0  0  0  0
   46.8199    2.8209   17.6036 O   0  0  0  0  0  0  0  0  0  0  0  0
   46.8218    2.8194   17.6016 O   0  0  0  0  0  0  0  0  0  0  0  0
   46.8159    2.8174   17.6043 O   0  0  0  0  0  0  0  0  0  0  0  0
   46.8167    2.8192   17.6048 O   0  0  0  0  0  0  0  0  0  0  0  0
   46.8029    2.8054   17.6061 O   0  0  0  0  0  0  0  0  0  0  0  0
   46.8285    2.8244   17.6001 O   0  0  0  0  0  0  0  0  0  0  0  0
   47.0832    3.0848   17.5786 Al  0  0  0  0  0 15  0  0  0  0  0  0
   47.0832    3.0848   17.5786 Cl  0  0  0  0  0  0  0  0  0  0  0  0
   47.0832    3.0848   17.5786 Cl  0  0  0  0  0  0  0  0  0  0  0  0
   46.7875    3.6792   18.0819 H   0  0  0  0  0  0  0  0  0  0  0  0
   47.6422    2.7543   17.0504 H   0  0  0  0  0  0  0  0  0  0  0  0
   46.7800    3.6854   18.0899 H   0  0  0  0  0  0  0  0  0  0  0  0
   47.6478    2.7496   17.0444 H   0  0  0  0  0  0  0  0  0  0  0  0
   46.7916    3.6791   18.0792 H   0  0  0  0  0  0  0  0  0  0  0  0
   47.6422    2.7579   17.0523 H   0  0  0  0  0  0  0  0  0  0  0  0
   47.6412    2.7571   17.0525 H   0  0  0  0  0  0  0  0  0  0  0  0
   46.7917    3.6780   18.0786 H   0  0  0  0  0  0  0  0  0  0  0  0
   46.8092    3.6740   18.0654 H   0  0  0  0  0  0  0  0  0  0  0  0
   47.6376    2.7749   17.0643 H   0  0  0  0  0  0  0  0  0  0  0  0
   46.7792    3.6794   18.0872 H   0  0  0  0  0  0  0  0  0  0  0  0
   47.6419    2.7506   17.0486 H   0  0  0  0  0  0  0  0  0  0  0  0
  2 11  1  0
  2 12  1  0
  3 13  1  0
  3 14  1  0
  4 15  1  0
  4 16  1  0
  5 17  1  0
  5 18  1  0
  6 19  1  0
  6 20  1  0
  7 21  1  0
  7 22  1  0
M  CHG  4   1  -1   8   3   9  -1  10  -1
M  END
> <Uni-Dock RESULT> 
ENERGY=   -4.698  LOWER_BOUND=   14.453  UPPER_BOUND=   14.455
INTER + INTRA:          -4.698
INTER:                  -4.698
INTRA:                   0.000
UNBOUND:                 0.000

$$$$

     RDKit          3D

 22 12  0  0  0  0  0  0  0  0999 V2000
   42.8955    5.2654   12.8748 Cl  0  0  0  0  0  0  0  0  0  0  0  0
   42.7541    5.2364   13.2194 O   0  0  0  0  0  0  0  0  0  0  0  0
   42.7548    5.2394   13.2195 O   0  0  0  0  0  0  0  0  0  0  0  0
   42.7520    5.2355   13.2242 O   0  0  0  0  0  0  0  0  0  0  0  0
   42.7525    5.2347   13.2224 O   0  0  0  0  0  0  0  0  0  0  0  0
   42.7451    5.2331   13.2405 O   0  0  0  0  0  0  0  0  0  0  0  0
   42.7582    5.2415   13.2120 O   0  0  0  0  0  0  0  0  0  0  0  0
   42.8955    5.2654   12.8748 Al  0  0  0  0  0 15  0  0  0  0  0  0
   42.8955    5.2654   12.8748 Cl  0  0  0  0  0  0  0  0  0  0  0  0
   42.8955    5.2654   12.8748 Cl  0  0  0  0  0  0  0  0  0  0  0  0
   42.8274    4.4860   12.5885 H   0  0  0  0  0  0  0  0  0  0  0  0
   43.1050    6.0737   12.8165 H   0  0  0  0  0  0  0  0  0  0  0  0
   42.8247    4.4737   12.5880 H   0  0  0  0  0  0  0  0  0  0  0  0
   43.1070    6.0830   12.8170 H   0  0  0  0  0  0  0  0  0  0  0  0
   42.8291    4.4900   12.5863 H   0  0  0  0  0  0  0  0  0  0  0  0
   43.1054    6.0707   12.8138 H   0  0  0  0  0  0  0  0  0  0  0  0
   43.1049    6.0704   12.8149 H   0  0  0  0  0  0  0  0  0  0  0  0
   42.8291    4.4910   12.5871 H   0  0  0  0  0  0  0  0  0  0  0  0
   42.8363    4.5110   12.5805 H   0  0  0  0  0  0  0  0  0  0  0  0
   43.1051    6.0520   12.8034 H   0  0  0  0  0  0  0  0  0  0  0  0
   42.8238    4.4780   12.5930 H   0  0  0  0  0  0  0  0  0  0  0  0
   43.1045    6.0765   12.8194 H   0  0  0  0  0  0  0  0  0  0  0  0
  2 11  1  0
  2 12  1  0
  3 13  1  0
  3 14  1  0
  4 15  1  0
  4 16  1  0
  5 17  1  0
  5 18  1  0
  6 19  1  0
  6 20  1  0
  7 21  1  0
  7 22  1  0
M  CHG  4   1  -1   8   3   9  -1  10  -1
M  END
> <Uni-Dock RESULT> 
ENERGY=   -4.684  LOWER_BOUND=    8.586  UPPER_BOUND=    8.587
INTER + INTRA:          -4.684
INTER:                  -4.684
INTRA:                   0.000
UNBOUND:                 0.000

$$$$
