
     RDKit          3D

 22 12  0  0  0  0  0  0  0  0999 V2000
   38.8222    3.8536    5.5762 Cl  0  0  0  0  0  0  0  0  0  0  0  0
   38.7350    3.5062    5.7480 O   0  0  0  0  0  0  0  0  0  0  0  0
   38.7444    3.5279    5.7358 O   0  0  0  0  0  0  0  0  0  0  0  0
   38.7434    3.5186    5.7400 O   0  0  0  0  0  0  0  0  0  0  0  0
   38.7366    3.5102    5.7458 O   0  0  0  0  0  0  0  0  0  0  0  0
   38.7372    3.5150    5.7436 O   0  0  0  0  0  0  0  0  0  0  0  0
   38.7416    3.5024    5.7472 O   0  0  0  0  0  0  0  0  0  0  0  0
   38.8222    3.8536    5.5762 Al  0  0  0  0  0 15  0  0  0  0  0  0
   38.8222    3.8536    5.5762 Cl  0  0  0  0  0  0  0  0  0  0  0  0
   38.8222    3.8536    5.5762 Cl  0  0  0  0  0  0  0  0  0  0  0  0
   38.1307    4.2764    5.6488 H   0  0  0  0  0  0  0  0  0  0  0  0
   39.6009    3.7783    5.3319 H   0  0  0  0  0  0  0  0  0  0  0  0
   39.6198    3.7613    5.3321 H   0  0  0  0  0  0  0  0  0  0  0  0
   38.1024    4.2716    5.6607 H   0  0  0  0  0  0  0  0  0  0  0  0
   39.6175    3.7673    5.3305 H   0  0  0  0  0  0  0  0  0  0  0  0
   38.1058    4.2749    5.6582 H   0  0  0  0  0  0  0  0  0  0  0  0
   38.1226    4.2765    5.6516 H   0  0  0  0  0  0  0  0  0  0  0  0
   39.6074    3.7742    5.3312 H   0  0  0  0  0  0  0  0  0  0  0  0
   38.1174    4.2758    5.6537 H   0  0  0  0  0  0  0  0  0  0  0  0
   39.6119    3.7701    5.3313 H   0  0  0  0  0  0  0  0  0  0  0  0
   39.5952    3.7837    5.3317 H   0  0  0  0  0  0  0  0  0  0  0  0
   38.1297    4.2747    5.6498 H   0  0  0  0  0  0  0  0  0  0  0  0
  2 11  1  0
  2 12  1  0
  3 13  1  0
  3 14  1  0
  4 15  1  0
  4 16  1  0
  5 17  1  0
  5 18  1  0
  6 19  1  0
  6 20  1  0
  7 21  1  0
  7 22  1  0
M  CHG  4   1  -1   8   3   9  -1  10  -1
M  END
> <Uni-Dock RESULT> 
ENERGY=   -6.823  LOWER_BOUND=    0.000  UPPER_BOUND=    0.000
INTER + INTRA:          -6.823
INTER:                  -6.823
INTRA:                   0.000
UNBOUND:                 0.000

$$$$

     RDKit          3D

 22 12  0  0  0  0  0  0  0  0999 V2000
   46.8191    0.2076    7.6200 Cl  0  0  0  0  0  0  0  0  0  0  0  0
   46.7646   -0.1641    7.7493 O   0  0  0  0  0  0  0  0  0  0  0  0
   46.7646   -0.1393    7.7393 O   0  0  0  0  0  0  0  0  0  0  0  0
   46.7620   -0.1488    7.7421 O   0  0  0  0  0  0  0  0  0  0  0  0
   46.7647   -0.1595    7.7475 O   0  0  0  0  0  0  0  0  0  0  0  0
   46.7660   -0.1546    7.7460 O   0  0  0  0  0  0  0  0  0  0  0  0
   46.7575   -0.1653    7.7471 O   0  0  0  0  0  0  0  0  0  0  0  0
   46.8191    0.2076    7.6200 Al  0  0  0  0  0 15  0  0  0  0  0  0
   46.8191    0.2076    7.6200 Cl  0  0  0  0  0  0  0  0  0  0  0  0
   46.8191    0.2076    7.6200 Cl  0  0  0  0  0  0  0  0  0  0  0  0
   47.5847    0.3719    7.8416 H   0  0  0  0  0  0  0  0  0  0  0  0
   46.1080    0.4151    7.2692 H   0  0  0  0  0  0  0  0  0  0  0  0
   46.0850    0.4052    7.2646 H   0  0  0  0  0  0  0  0  0  0  0  0
   47.6077    0.3570    7.8563 H   0  0  0  0  0  0  0  0  0  0  0  0
   46.0893    0.4103    7.2642 H   0  0  0  0  0  0  0  0  0  0  0  0
   47.6060    0.3615    7.8538 H   0  0  0  0  0  0  0  0  0  0  0  0
   47.5918    0.3691    7.8454 H   0  0  0  0  0  0  0  0  0  0  0  0
   46.1008    0.4135    7.2672 H   0  0  0  0  0  0  0  0  0  0  0  0
   47.5961    0.3665    7.8481 H   0  0  0  0  0  0  0  0  0  0  0  0
   46.0953    0.4110    7.2661 H   0  0  0  0  0  0  0  0  0  0  0  0
   46.1150    0.4184    7.2706 H   0  0  0  0  0  0  0  0  0  0  0  0
   47.5849    0.3699    7.8425 H   0  0  0  0  0  0  0  0  0  0  0  0
  2 11  1  0
  2 12  1  0
  3 13  1  0
  3 14  1  0
  4 15  1  0
  4 16  1  0
  5 17  1  0
  5 18  1  0
  6 19  1  0
  6 20  1  0
  7 21  1  0
  7 22  1  0
M  CHG  4   1  -1   8   3   9  -1  10  -1
M  END
> <Uni-Dock RESULT> 
ENERGY=   -6.740  LOWER_BOUND=    9.033  UPPER_BOUND=    9.037
INTER + INTRA:          -6.740
INTER:                  -6.740
INTRA:                   0.000
UNBOUND:                 0.000

$$$$

     RDKit          3D

 22 12  0  0  0  0  0  0  0  0999 V2000
   46.7561   -0.0239    7.6811 Cl  0  0  0  0  0  0  0  0  0  0  0  0
   46.9549    0.3189    7.6529 O   0  0  0  0  0  0  0  0  0  0  0  0
   46.9388    0.2976    7.6527 O   0  0  0  0  0  0  0  0  0  0  0  0
   46.9429    0.3069    7.6513 O   0  0  0  0  0  0  0  0  0  0  0  0
   46.9520    0.3150    7.6529 O   0  0  0  0  0  0  0  0  0  0  0  0
   46.9498    0.3102    7.6536 O   0  0  0  0  0  0  0  0  0  0  0  0
   46.9500    0.3230    7.6488 O   0  0  0  0  0  0  0  0  0  0  0  0
   46.7561   -0.0239    7.6811 Al  0  0  0  0  0 15  0  0  0  0  0  0
   46.7561   -0.0239    7.6811 Cl  0  0  0  0  0  0  0  0  0  0  0  0
   46.7561   -0.0239    7.6811 Cl  0  0  0  0  0  0  0  0  0  0  0  0
   47.2562   -0.4943    8.1180 H   0  0  0  0  0  0  0  0  0  0  0  0
   46.0572    0.1036    7.2723 H   0  0  0  0  0  0  0  0  0  0  0  0
   46.0454    0.1220    7.2593 H   0  0  0  0  0  0  0  0  0  0  0  0
   47.2841   -0.4914    8.1313 H   0  0  0  0  0  0  0  0  0  0  0  0
   46.0455    0.1158    7.2617 H   0  0  0  0  0  0  0  0  0  0  0  0
   47.2798   -0.4945    8.1302 H   0  0  0  0  0  0  0  0  0  0  0  0
   47.2636   -0.4949    8.1221 H   0  0  0  0  0  0  0  0  0  0  0  0
   46.0526    0.1081    7.2682 H   0  0  0  0  0  0  0  0  0  0  0  0
   47.2687   -0.4946    8.1245 H   0  0  0  0  0  0  0  0  0  0  0  0
   46.0498    0.1126    7.2651 H   0  0  0  0  0  0  0  0  0  0  0  0
   46.0606    0.0978    7.2763 H   0  0  0  0  0  0  0  0  0  0  0  0
   47.2576   -0.4927    8.1181 H   0  0  0  0  0  0  0  0  0  0  0  0
  2 11  1  0
  2 12  1  0
  3 13  1  0
  3 14  1  0
  4 15  1  0
  4 16  1  0
  5 17  1  0
  5 18  1  0
  6 19  1  0
  6 20  1  0
  7 21  1  0
  7 22  1  0
M  CHG  4   1  -1   8   3   9  -1  10  -1
M  END
> <Uni-Dock RESULT> 
ENERGY=   -6.315  LOWER_BOUND=    9.038  UPPER_BOUND=    9.040
INTER + INTRA:          -6.315
INTER:                  -6.315
INTRA:                   0.000
UNBOUND:                 0.000

$$$$

     RDKit          3D

 22 12  0  0  0  0  0  0  0  0999 V2000
   39.6748    4.8529    5.2149 Cl  0  0  0  0  0  0  0  0  0  0  0  0
   40.0645    4.9300    5.2154 O   0  0  0  0  0  0  0  0  0  0  0  0
   40.0389    4.9237    5.2117 O   0  0  0  0  0  0  0  0  0  0  0  0
   40.0489    4.9253    5.2105 O   0  0  0  0  0  0  0  0  0  0  0  0
   40.0598    4.9288    5.2149 O   0  0  0  0  0  0  0  0  0  0  0  0
   40.0546    4.9280    5.2154 O   0  0  0  0  0  0  0  0  0  0  0  0
   40.0664    4.9281    5.2083 O   0  0  0  0  0  0  0  0  0  0  0  0
   39.6748    4.8529    5.2149 Al  0  0  0  0  0 15  0  0  0  0  0  0
   39.6748    4.8529    5.2149 Cl  0  0  0  0  0  0  0  0  0  0  0  0
   39.6748    4.8529    5.2149 Cl  0  0  0  0  0  0  0  0  0  0  0  0
   39.4452    5.0467    5.9711 H   0  0  0  0  0  0  0  0  0  0  0  0
   39.5147    4.5819    4.4581 H   0  0  0  0  0  0  0  0  0  0  0  0
   39.5267    4.5773    4.4362 H   0  0  0  0  0  0  0  0  0  0  0  0
   39.4588    5.0575    5.9968 H   0  0  0  0  0  0  0  0  0  0  0  0
   39.5212    4.5774    4.4398 H   0  0  0  0  0  0  0  0  0  0  0  0
   39.4543    5.0559    5.9944 H   0  0  0  0  0  0  0  0  0  0  0  0
   39.4475    5.0496    5.9788 H   0  0  0  0  0  0  0  0  0  0  0  0
   39.5170    4.5801    4.4510 H   0  0  0  0  0  0  0  0  0  0  0  0
   39.4499    5.0516    5.9835 H   0  0  0  0  0  0  0  0  0  0  0  0
   39.5199    4.5790    4.4457 H   0  0  0  0  0  0  0  0  0  0  0  0
   39.5108    4.5832    4.4648 H   0  0  0  0  0  0  0  0  0  0  0  0
   39.4472    5.0473    5.9717 H   0  0  0  0  0  0  0  0  0  0  0  0
  2 11  1  0
  2 12  1  0
  3 13  1  0
  3 14  1  0
  4 15  1  0
  4 16  1  0
  5 17  1  0
  5 18  1  0
  6 19  1  0
  6 20  1  0
  7 21  1  0
  7 22  1  0
M  CHG  4   1  -1   8   3   9  -1  10  -1
M  END
> <Uni-Dock RESULT> 
ENERGY=   -6.089  LOWER_BOUND=    1.766  UPPER_BOUND=    1.775
INTER + INTRA:          -6.089
INTER:                  -6.089
INTRA:                   0.000
UNBOUND:                 0.000

$$$$

     RDKit          3D

 22 12  0  0  0  0  0  0  0  0999 V2000
   48.0294    2.2621    5.8444 Cl  0  0  0  0  0  0  0  0  0  0  0  0
   48.2425    1.9371    5.7620 O   0  0  0  0  0  0  0  0  0  0  0  0
   48.2314    1.9603    5.7693 O   0  0  0  0  0  0  0  0  0  0  0  0
   48.2379    1.9525    5.7678 O   0  0  0  0  0  0  0  0  0  0  0  0
   48.2404    1.9413    5.7633 O   0  0  0  0  0  0  0  0  0  0  0  0
   48.2371    1.9454    5.7641 O   0  0  0  0  0  0  0  0  0  0  0  0
   48.2491    1.9389    5.7651 O   0  0  0  0  0  0  0  0  0  0  0  0
   48.0294    2.2621    5.8444 Al  0  0  0  0  0 15  0  0  0  0  0  0
   48.0294    2.2621    5.8444 Cl  0  0  0  0  0  0  0  0  0  0  0  0
   48.0294    2.2621    5.8444 Cl  0  0  0  0  0  0  0  0  0  0  0  0
   47.3018    2.0952    5.5204 H   0  0  0  0  0  0  0  0  0  0  0  0
   48.5439    2.7541    6.2506 H   0  0  0  0  0  0  0  0  0  0  0  0
   48.5680    2.7545    6.2589 H   0  0  0  0  0  0  0  0  0  0  0  0
   47.2888    2.0717    5.5049 H   0  0  0  0  0  0  0  0  0  0  0  0
   48.5621    2.7574    6.2583 H   0  0  0  0  0  0  0  0  0  0  0  0
   47.2882    2.0766    5.5070 H   0  0  0  0  0  0  0  0  0  0  0  0
   47.2970    2.0896    5.5162 H   0  0  0  0  0  0  0  0  0  0  0  0
   48.5508    2.7555    6.2536 H   0  0  0  0  0  0  0  0  0  0  0  0
   47.2945    2.0854    5.5133 H   0  0  0  0  0  0  0  0  0  0  0  0
   48.5567    2.7556    6.2556 H   0  0  0  0  0  0  0  0  0  0  0  0
   48.5365    2.7542    6.2481 H   0  0  0  0  0  0  0  0  0  0  0  0
   47.3025    2.0933    5.5198 H   0  0  0  0  0  0  0  0  0  0  0  0
  2 11  1  0
  2 12  1  0
  3 13  1  0
  3 14  1  0
  4 15  1  0
  4 16  1  0
  5 17  1  0
  5 18  1  0
  6 19  1  0
  6 20  1  0
  7 21  1  0
  7 22  1  0
M  CHG  4   1  -1   8   3   9  -1  10  -1
M  END
> <Uni-Dock RESULT> 
ENERGY=   -6.013  LOWER_BOUND=    9.515  UPPER_BOUND=    9.517
INTER + INTRA:          -6.013
INTER:                  -6.013
INTRA:                   0.000
UNBOUND:                 0.000

$$$$

     RDKit          3D

 22 12  0  0  0  0  0  0  0  0999 V2000
   47.6798    1.4950    6.9567 Cl  0  0  0  0  0  0  0  0  0  0  0  0
   48.0579    1.5160    7.0771 O   0  0  0  0  0  0  0  0  0  0  0  0
   48.0338    1.5159    7.0656 O   0  0  0  0  0  0  0  0  0  0  0  0
   48.0438    1.5169    7.0675 O   0  0  0  0  0  0  0  0  0  0  0  0
   48.0534    1.5159    7.0751 O   0  0  0  0  0  0  0  0  0  0  0  0
   48.0482    1.5155    7.0740 O   0  0  0  0  0  0  0  0  0  0  0  0
   48.0612    1.5186    7.0708 O   0  0  0  0  0  0  0  0  0  0  0  0
   47.6798    1.4950    6.9567 Al  0  0  0  0  0 15  0  0  0  0  0  0
   47.6798    1.4950    6.9567 Cl  0  0  0  0  0  0  0  0  0  0  0  0
   47.6798    1.4950    6.9567 Cl  0  0  0  0  0  0  0  0  0  0  0  0
   47.2903    1.2131    7.6132 H   0  0  0  0  0  0  0  0  0  0  0  0
   47.6913    1.7560    6.1799 H   0  0  0  0  0  0  0  0  0  0  0  0
   47.7078    1.7645    6.1624 H   0  0  0  0  0  0  0  0  0  0  0  0
   47.2979    1.2047    7.6421 H   0  0  0  0  0  0  0  0  0  0  0  0
   47.7016    1.7629    6.1642 H   0  0  0  0  0  0  0  0  0  0  0  0
   47.2940    1.2053    7.6384 H   0  0  0  0  0  0  0  0  0  0  0  0
   47.2909    1.2105    7.6213 H   0  0  0  0  0  0  0  0  0  0  0  0
   47.6951    1.7587    6.1737 H   0  0  0  0  0  0  0  0  0  0  0  0
   47.2921    1.2089    7.6266 H   0  0  0  0  0  0  0  0  0  0  0  0
   47.6991    1.7607    6.1695 H   0  0  0  0  0  0  0  0  0  0  0  0
   47.6861    1.7534    6.1850 H   0  0  0  0  0  0  0  0  0  0  0  0
   47.2922    1.2130    7.6143 H   0  0  0  0  0  0  0  0  0  0  0  0
  2 11  1  0
  2 12  1  0
  3 13  1  0
  3 14  1  0
  4 15  1  0
  4 16  1  0
  5 17  1  0
  5 18  1  0
  6 19  1  0
  6 20  1  0
  7 21  1  0
  7 22  1  0
M  CHG  4   1  -1   8   3   9  -1  10  -1
M  END
> <Uni-Dock RESULT> 
ENERGY=   -6.009  LOWER_BOUND=    9.475  UPPER_BOUND=    9.478
INTER + INTRA:          -6.009
INTER:                  -6.009
INTRA:                   0.000
UNBOUND:                 0.000

$$$$

     RDKit          3D

 22 12  0  0  0  0  0  0  0  0999 V2000
   40.3590   12.3412   15.6769 Cl  0  0  0  0  0  0  0  0  0  0  0  0
   40.6213   12.1045   15.8586 O   0  0  0  0  0  0  0  0  0  0  0  0
   40.6053   12.1191   15.8431 O   0  0  0  0  0  0  0  0  0  0  0  0
   40.6124   12.1126   15.8466 O   0  0  0  0  0  0  0  0  0  0  0  0
   40.6184   12.1072   15.8559 O   0  0  0  0  0  0  0  0  0  0  0  0
   40.6147   12.1105   15.8540 O   0  0  0  0  0  0  0  0  0  0  0  0
   40.6249   12.1014   15.8527 O   0  0  0  0  0  0  0  0  0  0  0  0
   40.3590   12.3412   15.6769 Al  0  0  0  0  0 15  0  0  0  0  0  0
   40.3590   12.3412   15.6769 Cl  0  0  0  0  0  0  0  0  0  0  0  0
   40.3590   12.3412   15.6769 Cl  0  0  0  0  0  0  0  0  0  0  0  0
   39.9618   12.6894   16.2959 H   0  0  0  0  0  0  0  0  0  0  0  0
   40.4940   12.2297   14.8762 H   0  0  0  0  0  0  0  0  0  0  0  0
   40.5091   12.2163   14.8607 H   0  0  0  0  0  0  0  0  0  0  0  0
   39.9627   12.6882   16.3269 H   0  0  0  0  0  0  0  0  0  0  0  0
   40.5042   12.2207   14.8616 H   0  0  0  0  0  0  0  0  0  0  0  0
   39.9604   12.6902   16.3225 H   0  0  0  0  0  0  0  0  0  0  0  0
   39.9609   12.6901   16.3044 H   0  0  0  0  0  0  0  0  0  0  0  0
   40.4978   12.2264   14.8705 H   0  0  0  0  0  0  0  0  0  0  0  0
   39.9609   12.6899   16.3100 H   0  0  0  0  0  0  0  0  0  0  0  0
   40.5015   12.2231   14.8668 H   0  0  0  0  0  0  0  0  0  0  0  0
   40.4892   12.2339   14.8808 H   0  0  0  0  0  0  0  0  0  0  0  0
   39.9630   12.6883   16.2974 H   0  0  0  0  0  0  0  0  0  0  0  0
  2 11  1  0
  2 12  1  0
  3 13  1  0
  3 14  1  0
  4 15  1  0
  4 16  1  0
  5 17  1  0
  5 18  1  0
  6 19  1  0
  6 20  1  0
  7 21  1  0
  7 22  1  0
M  CHG  4   1  -1   8   3   9  -1  10  -1
M  END
> <Uni-Dock RESULT> 
ENERGY=   -5.546  LOWER_BOUND=   13.352  UPPER_BOUND=   13.354
INTER + INTRA:          -5.546
INTER:                  -5.546
INTRA:                   0.000
UNBOUND:                 0.000

$$$$

     RDKit          3D

 22 12  0  0  0  0  0  0  0  0999 V2000
   46.7425    3.9140    7.0822 Cl  0  0  0  0  0  0  0  0  0  0  0  0
   46.8760    4.2466    7.2537 O   0  0  0  0  0  0  0  0  0  0  0  0
   46.8705    4.2240    7.2405 O   0  0  0  0  0  0  0  0  0  0  0  0
   46.8751    4.2324    7.2443 O   0  0  0  0  0  0  0  0  0  0  0  0
   46.8749    4.2425    7.2514 O   0  0  0  0  0  0  0  0  0  0  0  0
   46.8726    4.2381    7.2494 O   0  0  0  0  0  0  0  0  0  0  0  0
   46.8830    4.2470    7.2509 O   0  0  0  0  0  0  0  0  0  0  0  0
   46.7425    3.9140    7.0822 Al  0  0  0  0  0 15  0  0  0  0  0  0
   46.7425    3.9140    7.0822 Cl  0  0  0  0  0  0  0  0  0  0  0  0
   46.7425    3.9140    7.0822 Cl  0  0  0  0  0  0  0  0  0  0  0  0
   45.9859    3.8444    7.3737 H   0  0  0  0  0  0  0  0  0  0  0  0
   47.3655    3.6511    6.6191 H   0  0  0  0  0  0  0  0  0  0  0  0
   47.3894    3.6577    6.6130 H   0  0  0  0  0  0  0  0  0  0  0  0
   45.9676    3.8604    7.3930 H   0  0  0  0  0  0  0  0  0  0  0  0
   47.3842    3.6536    6.6124 H   0  0  0  0  0  0  0  0  0  0  0  0
   45.9682    3.8561    7.3898 H   0  0  0  0  0  0  0  0  0  0  0  0
   45.9799    3.8477    7.3787 H   0  0  0  0  0  0  0  0  0  0  0  0
   47.3727    3.6519    6.6164 H   0  0  0  0  0  0  0  0  0  0  0  0
   45.9764    3.8505    7.3822 H   0  0  0  0  0  0  0  0  0  0  0  0
   47.3785    3.6535    6.6150 H   0  0  0  0  0  0  0  0  0  0  0  0
   47.3582    3.6489    6.6208 H   0  0  0  0  0  0  0  0  0  0  0  0
   45.9862    3.8463    7.3748 H   0  0  0  0  0  0  0  0  0  0  0  0
  2 11  1  0
  2 12  1  0
  3 13  1  0
  3 14  1  0
  4 15  1  0
  4 16  1  0
  5 17  1  0
  5 18  1  0
  6 19  1  0
  6 20  1  0
  7 21  1  0
  7 22  1  0
M  CHG  4   1  -1   8   3   9  -1  10  -1
M  END
> <Uni-Dock RESULT> 
ENERGY=   -5.146  LOWER_BOUND=    8.206  UPPER_BOUND=    8.209
INTER + INTRA:          -5.146
INTER:                  -5.146
INTRA:                   0.000
UNBOUND:                 0.000

$$$$

     RDKit          3D

 22 12  0  0  0  0  0  0  0  0999 V2000
   42.3622    5.6668   11.8575 Cl  0  0  0  0  0  0  0  0  0  0  0  0
   42.0409    5.8798   11.7615 O   0  0  0  0  0  0  0  0  0  0  0  0
   42.0643    5.8689   11.7681 O   0  0  0  0  0  0  0  0  0  0  0  0
   42.0568    5.8755   11.7657 O   0  0  0  0  0  0  0  0  0  0  0  0
   42.0451    5.8777   11.7627 O   0  0  0  0  0  0  0  0  0  0  0  0
   42.0491    5.8744   11.7640 O   0  0  0  0  0  0  0  0  0  0  0  0
   42.0437    5.8868   11.7615 O   0  0  0  0  0  0  0  0  0  0  0  0
   42.3622    5.6668   11.8575 Al  0  0  0  0  0 15  0  0  0  0  0  0
   42.3622    5.6668   11.8575 Cl  0  0  0  0  0  0  0  0  0  0  0  0
   42.3622    5.6668   11.8575 Cl  0  0  0  0  0  0  0  0  0  0  0  0
   42.0836    4.9022   11.8655 H   0  0  0  0  0  0  0  0  0  0  0  0
   42.9621    6.2182   11.9454 H   0  0  0  0  0  0  0  0  0  0  0  0
   42.9658    6.2434   11.9439 H   0  0  0  0  0  0  0  0  0  0  0  0
   42.0564    4.8880   11.8605 H   0  0  0  0  0  0  0  0  0  0  0  0
   42.9681    6.2373   11.9450 H   0  0  0  0  0  0  0  0  0  0  0  0
   42.0616    4.8875   11.8618 H   0  0  0  0  0  0  0  0  0  0  0  0
   42.0769    4.8970   11.8645 H   0  0  0  0  0  0  0  0  0  0  0  0
   42.9646    6.2255   11.9453 H   0  0  0  0  0  0  0  0  0  0  0  0
   42.0720    4.8943   11.8636 H   0  0  0  0  0  0  0  0  0  0  0  0
   42.9655    6.2316   11.9450 H   0  0  0  0  0  0  0  0  0  0  0  0
   42.9612    6.2105   11.9460 H   0  0  0  0  0  0  0  0  0  0  0  0
   42.0816    4.9029   11.8650 H   0  0  0  0  0  0  0  0  0  0  0  0
  2 11  1  0
  2 12  1  0
  3 13  1  0
  3 14  1  0
  4 15  1  0
  4 16  1  0
  5 17  1  0
  5 18  1  0
  6 19  1  0
  6 20  1  0
  7 21  1  0
  7 22  1  0
M  CHG  4   1  -1   8   3   9  -1  10  -1
M  END
> <Uni-Dock RESULT> 
ENERGY=   -5.025  LOWER_BOUND=    7.333  UPPER_BOUND=    7.334
INTER + INTRA:          -5.025
INTER:                  -5.025
INTRA:                   0.000
UNBOUND:                 0.000

$$$$
