
     RDKit          3D

 22 12  0  0  0  0  0  0  0  0999 V2000
   38.8200    3.8524    5.5759 Cl  0  0  0  0  0  0  0  0  0  0  0  0
   38.7453    3.5353    5.7326 O   0  0  0  0  0  0  0  0  0  0  0  0
   38.7419    3.5121    5.7424 O   0  0  0  0  0  0  0  0  0  0  0  0
   38.7371    3.5010    5.7497 O   0  0  0  0  0  0  0  0  0  0  0  0
   38.7417    3.5202    5.7402 O   0  0  0  0  0  0  0  0  0  0  0  0
   38.7421    3.5135    5.7418 O   0  0  0  0  0  0  0  0  0  0  0  0
   38.7384    3.5067    5.7469 O   0  0  0  0  0  0  0  0  0  0  0  0
   38.8200    3.8524    5.5759 Al  0  0  0  0  0 15  0  0  0  0  0  0
   38.8200    3.8524    5.5759 Cl  0  0  0  0  0  0  0  0  0  0  0  0
   38.8200    3.8524    5.5759 Cl  0  0  0  0  0  0  0  0  0  0  0  0
   38.2488    4.3678    5.9257 H   0  0  0  0  0  0  0  0  0  0  0  0
   39.4659    3.6540    5.0692 H   0  0  0  0  0  0  0  0  0  0  0  0
   39.4459    3.6793    5.0793 H   0  0  0  0  0  0  0  0  0  0  0  0
   38.2722    4.3658    5.9059 H   0  0  0  0  0  0  0  0  0  0  0  0
   38.2786    4.3699    5.8991 H   0  0  0  0  0  0  0  0  0  0  0  0
   39.4442    3.6863    5.0788 H   0  0  0  0  0  0  0  0  0  0  0  0
   38.2635    4.3678    5.9129 H   0  0  0  0  0  0  0  0  0  0  0  0
   39.4548    3.6691    5.0746 H   0  0  0  0  0  0  0  0  0  0  0  0
   39.4458    3.6786    5.0796 H   0  0  0  0  0  0  0  0  0  0  0  0
   38.2720    4.3652    5.9062 H   0  0  0  0  0  0  0  0  0  0  0  0
   39.4545    3.6770    5.0725 H   0  0  0  0  0  0  0  0  0  0  0  0
   38.2670    4.3734    5.9082 H   0  0  0  0  0  0  0  0  0  0  0  0
  2 11  1  0
  2 12  1  0
  3 13  1  0
  3 14  1  0
  4 15  1  0
  4 16  1  0
  5 17  1  0
  5 18  1  0
  6 19  1  0
  6 20  1  0
  7 21  1  0
  7 22  1  0
M  CHG  4   1  -1   8   3   9  -1  10  -1
M  END
> <Uni-Dock RESULT> 
ENERGY=   -6.821  LOWER_BOUND=    0.000  UPPER_BOUND=    0.000
INTER + INTRA:          -6.821
INTER:                  -6.821
INTRA:                   0.000
UNBOUND:                 0.000

$$$$

     RDKit          3D

 22 12  0  0  0  0  0  0  0  0999 V2000
   46.8185    0.2058    7.6204 Cl  0  0  0  0  0  0  0  0  0  0  0  0
   46.7669   -0.1321    7.7381 O   0  0  0  0  0  0  0  0  0  0  0  0
   46.7637   -0.1566    7.7440 O   0  0  0  0  0  0  0  0  0  0  0  0
   46.7612   -0.1687    7.7509 O   0  0  0  0  0  0  0  0  0  0  0  0
   46.7644   -0.1482    7.7437 O   0  0  0  0  0  0  0  0  0  0  0  0
   46.7639   -0.1551    7.7436 O   0  0  0  0  0  0  0  0  0  0  0  0
   46.7622   -0.1626    7.7489 O   0  0  0  0  0  0  0  0  0  0  0  0
   46.8185    0.2058    7.6204 Al  0  0  0  0  0 15  0  0  0  0  0  0
   46.8185    0.2058    7.6204 Cl  0  0  0  0  0  0  0  0  0  0  0  0
   46.8185    0.2058    7.6204 Cl  0  0  0  0  0  0  0  0  0  0  0  0
   46.6989    0.6631    8.3211 H   0  0  0  0  0  0  0  0  0  0  0  0
   46.9897    0.0865    6.8021 H   0  0  0  0  0  0  0  0  0  0  0  0
   46.9862    0.1100    6.8261 H   0  0  0  0  0  0  0  0  0  0  0  0
   46.7056    0.6641    8.2911 H   0  0  0  0  0  0  0  0  0  0  0  0
   46.7079    0.6692    8.2826 H   0  0  0  0  0  0  0  0  0  0  0  0
   46.9863    0.1170    6.8278 H   0  0  0  0  0  0  0  0  0  0  0  0
   46.7032    0.6650    8.3022 H   0  0  0  0  0  0  0  0  0  0  0  0
   46.9878    0.1006    6.8154 H   0  0  0  0  0  0  0  0  0  0  0  0
   46.9861    0.1092    6.8262 H   0  0  0  0  0  0  0  0  0  0  0  0
   46.7055    0.6634    8.2914 H   0  0  0  0  0  0  0  0  0  0  0  0
   46.9885    0.1088    6.8151 H   0  0  0  0  0  0  0  0  0  0  0  0
   46.7048    0.6713    8.2973 H   0  0  0  0  0  0  0  0  0  0  0  0
  2 11  1  0
  2 12  1  0
  3 13  1  0
  3 14  1  0
  4 15  1  0
  4 16  1  0
  5 17  1  0
  5 18  1  0
  6 19  1  0
  6 20  1  0
  7 21  1  0
  7 22  1  0
M  CHG  4   1  -1   8   3   9  -1  10  -1
M  END
> <Uni-Dock RESULT> 
ENERGY=   -6.735  LOWER_BOUND=    9.036  UPPER_BOUND=    9.038
INTER + INTRA:          -6.735
INTER:                  -6.735
INTRA:                   0.000
UNBOUND:                 0.000

$$$$

     RDKit          3D

 22 12  0  0  0  0  0  0  0  0999 V2000
   46.6385    0.1474    7.7921 Cl  0  0  0  0  0  0  0  0  0  0  0  0
   46.9407   -0.0347    7.7134 O   0  0  0  0  0  0  0  0  0  0  0  0
   46.9631   -0.0453    7.7080 O   0  0  0  0  0  0  0  0  0  0  0  0
   46.9734   -0.0545    7.7049 O   0  0  0  0  0  0  0  0  0  0  0  0
   46.9551   -0.0434    7.7096 O   0  0  0  0  0  0  0  0  0  0  0  0
   46.9618   -0.0447    7.7084 O   0  0  0  0  0  0  0  0  0  0  0  0
   46.9679   -0.0513    7.7063 O   0  0  0  0  0  0  0  0  0  0  0  0
   46.6385    0.1474    7.7921 Al  0  0  0  0  0 15  0  0  0  0  0  0
   46.6385    0.1474    7.7921 Cl  0  0  0  0  0  0  0  0  0  0  0  0
   46.6385    0.1474    7.7921 Cl  0  0  0  0  0  0  0  0  0  0  0  0
   46.0517   -0.4609    7.7832 H   0  0  0  0  0  0  0  0  0  0  0  0
   46.9230    0.9377    7.8795 H   0  0  0  0  0  0  0  0  0  0  0  0
   46.8953    0.9184    7.8807 H   0  0  0  0  0  0  0  0  0  0  0  0
   46.0570   -0.4308    7.7874 H   0  0  0  0  0  0  0  0  0  0  0  0
   46.0538   -0.4214    7.7895 H   0  0  0  0  0  0  0  0  0  0  0  0
   46.8882    0.9181    7.8818 H   0  0  0  0  0  0  0  0  0  0  0  0
   46.0538   -0.4417    7.7861 H   0  0  0  0  0  0  0  0  0  0  0  0
   46.9066    0.9272    7.8804 H   0  0  0  0  0  0  0  0  0  0  0  0
   46.8960    0.9181    7.8805 H   0  0  0  0  0  0  0  0  0  0  0  0
   46.0575   -0.4313    7.7873 H   0  0  0  0  0  0  0  0  0  0  0  0
   46.8987    0.9291    7.8819 H   0  0  0  0  0  0  0  0  0  0  0  0
   46.0487   -0.4356    7.7880 H   0  0  0  0  0  0  0  0  0  0  0  0
  2 11  1  0
  2 12  1  0
  3 13  1  0
  3 14  1  0
  4 15  1  0
  4 16  1  0
  5 17  1  0
  5 18  1  0
  6 19  1  0
  6 20  1  0
  7 21  1  0
  7 22  1  0
M  CHG  4   1  -1   8   3   9  -1  10  -1
M  END
> <Uni-Dock RESULT> 
ENERGY=   -6.267  LOWER_BOUND=    9.074  UPPER_BOUND=    9.076
INTER + INTRA:          -6.267
INTER:                  -6.267
INTRA:                   0.000
UNBOUND:                 0.000

$$$$

     RDKit          3D

 22 12  0  0  0  0  0  0  0  0999 V2000
   48.0373    2.2464    5.8797 Cl  0  0  0  0  0  0  0  0  0  0  0  0
   48.2324    1.9653    5.7632 O   0  0  0  0  0  0  0  0  0  0  0  0
   48.2470    1.9453    5.7573 O   0  0  0  0  0  0  0  0  0  0  0  0
   48.2535    1.9348    5.7505 O   0  0  0  0  0  0  0  0  0  0  0  0
   48.2417    1.9518    5.7576 O   0  0  0  0  0  0  0  0  0  0  0  0
   48.2461    1.9465    5.7577 O   0  0  0  0  0  0  0  0  0  0  0  0
   48.2500    1.9399    5.7525 O   0  0  0  0  0  0  0  0  0  0  0  0
   48.0373    2.2464    5.8797 Al  0  0  0  0  0 15  0  0  0  0  0  0
   48.0373    2.2464    5.8797 Cl  0  0  0  0  0  0  0  0  0  0  0  0
   48.0373    2.2464    5.8797 Cl  0  0  0  0  0  0  0  0  0  0  0  0
   47.6247    2.4840    5.1814 H   0  0  0  0  0  0  0  0  0  0  0  0
   48.2547    2.2900    6.6946 H   0  0  0  0  0  0  0  0  0  0  0  0
   48.2355    2.3042    6.6707 H   0  0  0  0  0  0  0  0  0  0  0  0
   47.6293    2.4897    5.2113 H   0  0  0  0  0  0  0  0  0  0  0  0
   47.6275    2.4951    5.2197 H   0  0  0  0  0  0  0  0  0  0  0  0
   48.2308    2.3093    6.6690 H   0  0  0  0  0  0  0  0  0  0  0  0
   47.6268    2.4886    5.2002 H   0  0  0  0  0  0  0  0  0  0  0  0
   48.2433    2.2987    6.6814 H   0  0  0  0  0  0  0  0  0  0  0  0
   48.2360    2.3036    6.6705 H   0  0  0  0  0  0  0  0  0  0  0  0
   47.6296    2.4892    5.2110 H   0  0  0  0  0  0  0  0  0  0  0  0
   48.2382    2.3051    6.6816 H   0  0  0  0  0  0  0  0  0  0  0  0
   47.6236    2.4943    5.2051 H   0  0  0  0  0  0  0  0  0  0  0  0
  2 11  1  0
  2 12  1  0
  3 13  1  0
  3 14  1  0
  4 15  1  0
  4 16  1  0
  5 17  1  0
  5 18  1  0
  6 19  1  0
  6 20  1  0
  7 21  1  0
  7 22  1  0
M  CHG  4   1  -1   8   3   9  -1  10  -1
M  END
> <Uni-Dock RESULT> 
ENERGY=   -6.015  LOWER_BOUND=    9.524  UPPER_BOUND=    9.525
INTER + INTRA:          -6.015
INTER:                  -6.015
INTRA:                   0.000
UNBOUND:                 0.000

$$$$

     RDKit          3D

 22 12  0  0  0  0  0  0  0  0999 V2000
   47.7015    1.5112    6.9195 Cl  0  0  0  0  0  0  0  0  0  0  0  0
   48.0321    1.5224    7.0652 O   0  0  0  0  0  0  0  0  0  0  0  0
   48.0546    1.5251    7.0768 O   0  0  0  0  0  0  0  0  0  0  0  0
   48.0680    1.5235    7.0809 O   0  0  0  0  0  0  0  0  0  0  0  0
   48.0480    1.5229    7.0721 O   0  0  0  0  0  0  0  0  0  0  0  0
   48.0533    1.5249    7.0761 O   0  0  0  0  0  0  0  0  0  0  0  0
   48.0621    1.5233    7.0782 O   0  0  0  0  0  0  0  0  0  0  0  0
   47.7015    1.5112    6.9195 Al  0  0  0  0  0 15  0  0  0  0  0  0
   47.7015    1.5112    6.9195 Cl  0  0  0  0  0  0  0  0  0  0  0  0
   47.7015    1.5112    6.9195 Cl  0  0  0  0  0  0  0  0  0  0  0  0
   47.7634    0.8667    6.3762 H   0  0  0  0  0  0  0  0  0  0  0  0
   47.3089    2.1445    7.3170 H   0  0  0  0  0  0  0  0  0  0  0  0
   47.3050    2.1202    7.2939 H   0  0  0  0  0  0  0  0  0  0  0  0
   47.7449    0.8884    6.3878 H   0  0  0  0  0  0  0  0  0  0  0  0
   47.7359    0.8931    6.3882 H   0  0  0  0  0  0  0  0  0  0  0  0
   47.3006    2.1169    7.2892 H   0  0  0  0  0  0  0  0  0  0  0  0
   47.7507    0.8799    6.3827 H   0  0  0  0  0  0  0  0  0  0  0  0
   47.3059    2.1307    7.3036 H   0  0  0  0  0  0  0  0  0  0  0  0
   47.3057    2.1203    7.2943 H   0  0  0  0  0  0  0  0  0  0  0  0
   47.7455    0.8883    6.3880 H   0  0  0  0  0  0  0  0  0  0  0  0
   47.2994    2.1285    7.2990 H   0  0  0  0  0  0  0  0  0  0  0  0
   47.7430    0.8817    6.3811 H   0  0  0  0  0  0  0  0  0  0  0  0
  2 11  1  0
  2 12  1  0
  3 13  1  0
  3 14  1  0
  4 15  1  0
  4 16  1  0
  5 17  1  0
  5 18  1  0
  6 19  1  0
  6 20  1  0
  7 21  1  0
  7 22  1  0
M  CHG  4   1  -1   8   3   9  -1  10  -1
M  END
> <Uni-Dock RESULT> 
ENERGY=   -6.010  LOWER_BOUND=    9.483  UPPER_BOUND=    9.484
INTER + INTRA:          -6.010
INTER:                  -6.010
INTRA:                   0.000
UNBOUND:                 0.000

$$$$

     RDKit          3D

 22 12  0  0  0  0  0  0  0  0999 V2000
   40.3604   12.3399   15.6777 Cl  0  0  0  0  0  0  0  0  0  0  0  0
   40.5993   12.1232   15.8409 O   0  0  0  0  0  0  0  0  0  0  0  0
   40.6179   12.1094   15.8515 O   0  0  0  0  0  0  0  0  0  0  0  0
   40.6252   12.0997   15.8587 O   0  0  0  0  0  0  0  0  0  0  0  0
   40.6107   12.1128   15.8488 O   0  0  0  0  0  0  0  0  0  0  0  0
   40.6168   12.1102   15.8508 O   0  0  0  0  0  0  0  0  0  0  0  0
   40.6208   12.1035   15.8558 O   0  0  0  0  0  0  0  0  0  0  0  0
   40.3604   12.3399   15.6777 Al  0  0  0  0  0 15  0  0  0  0  0  0
   40.3604   12.3399   15.6777 Cl  0  0  0  0  0  0  0  0  0  0  0  0
   40.3604   12.3399   15.6777 Cl  0  0  0  0  0  0  0  0  0  0  0  0
   39.6210   11.9949   15.8983 H   0  0  0  0  0  0  0  0  0  0  0  0
   40.8608   12.9016   15.2939 H   0  0  0  0  0  0  0  0  0  0  0  0
   40.8287   12.8928   15.2991 H   0  0  0  0  0  0  0  0  0  0  0  0
   39.6347   12.0176   15.8826 H   0  0  0  0  0  0  0  0  0  0  0  0
   39.6343   12.0259   15.8767 H   0  0  0  0  0  0  0  0  0  0  0  0
   40.8217   12.8942   15.2978 H   0  0  0  0  0  0  0  0  0  0  0  0
   39.6285   12.0097   15.8880 H   0  0  0  0  0  0  0  0  0  0  0  0
   40.8420   12.8971   15.2964 H   0  0  0  0  0  0  0  0  0  0  0  0
   40.8293   12.8923   15.2994 H   0  0  0  0  0  0  0  0  0  0  0  0
   39.6351   12.0171   15.8829 H   0  0  0  0  0  0  0  0  0  0  0  0
   40.8350   12.9004   15.2938 H   0  0  0  0  0  0  0  0  0  0  0  0
   39.6254   12.0158   15.8836 H   0  0  0  0  0  0  0  0  0  0  0  0
  2 11  1  0
  2 12  1  0
  3 13  1  0
  3 14  1  0
  4 15  1  0
  4 16  1  0
  5 17  1  0
  5 18  1  0
  6 19  1  0
  6 20  1  0
  7 21  1  0
  7 22  1  0
M  CHG  4   1  -1   8   3   9  -1  10  -1
M  END
> <Uni-Dock RESULT> 
ENERGY=   -5.547  LOWER_BOUND=   13.353  UPPER_BOUND=   13.354
INTER + INTRA:          -5.547
INTER:                  -5.547
INTRA:                   0.000
UNBOUND:                 0.000

$$$$

     RDKit          3D

 22 12  0  0  0  0  0  0  0  0999 V2000
   42.3570    5.6717   11.8475 Cl  0  0  0  0  0  0  0  0  0  0  0  0
   42.0667    5.8728   11.7701 O   0  0  0  0  0  0  0  0  0  0  0  0
   42.0461    5.8857   11.7625 O   0  0  0  0  0  0  0  0  0  0  0  0
   42.0352    5.8946   11.7618 O   0  0  0  0  0  0  0  0  0  0  0  0
   42.0528    5.8824   11.7665 O   0  0  0  0  0  0  0  0  0  0  0  0
   42.0474    5.8849   11.7630 O   0  0  0  0  0  0  0  0  0  0  0  0
   42.0404    5.8910   11.7633 O   0  0  0  0  0  0  0  0  0  0  0  0
   42.3570    5.6717   11.8475 Al  0  0  0  0  0 15  0  0  0  0  0  0
   42.3570    5.6717   11.8475 Cl  0  0  0  0  0  0  0  0  0  0  0  0
   42.3570    5.6717   11.8475 Cl  0  0  0  0  0  0  0  0  0  0  0  0
   42.5727    5.9508   12.6155 H   0  0  0  0  0  0  0  0  0  0  0  0
   42.4316    5.1915   11.1567 H   0  0  0  0  0  0  0  0  0  0  0  0
   42.4451    5.1982   11.1869 H   0  0  0  0  0  0  0  0  0  0  0  0
   42.5797    5.9312   12.5928 H   0  0  0  0  0  0  0  0  0  0  0  0
   42.5854    5.9238   12.5888 H   0  0  0  0  0  0  0  0  0  0  0  0
   42.4503    5.1967   11.1917 H   0  0  0  0  0  0  0  0  0  0  0  0
   42.5781    5.9380   12.6019 H   0  0  0  0  0  0  0  0  0  0  0  0
   42.4400    5.1948   11.1740 H   0  0  0  0  0  0  0  0  0  0  0  0
   42.4445    5.1986   11.1867 H   0  0  0  0  0  0  0  0  0  0  0  0
   42.5791    5.9316   12.5928 H   0  0  0  0  0  0  0  0  0  0  0  0
   42.4464    5.1916   11.1779 H   0  0  0  0  0  0  0  0  0  0  0  0
   42.5841    5.9325   12.6012 H   0  0  0  0  0  0  0  0  0  0  0  0
  2 11  1  0
  2 12  1  0
  3 13  1  0
  3 14  1  0
  4 15  1  0
  4 16  1  0
  5 17  1  0
  5 18  1  0
  6 19  1  0
  6 20  1  0
  7 21  1  0
  7 22  1  0
M  CHG  4   1  -1   8   3   9  -1  10  -1
M  END
> <Uni-Dock RESULT> 
ENERGY=   -5.027  LOWER_BOUND=    7.331  UPPER_BOUND=    7.332
INTER + INTRA:          -5.027
INTER:                  -5.027
INTRA:                   0.000
UNBOUND:                 0.000

$$$$

     RDKit          3D

 22 12  0  0  0  0  0  0  0  0999 V2000
   40.7917    1.8166   22.3218 Cl  0  0  0  0  0  0  0  0  0  0  0  0
   40.8018    1.8924   21.9685 O   0  0  0  0  0  0  0  0  0  0  0  0
   40.8014    1.8999   21.9442 O   0  0  0  0  0  0  0  0  0  0  0  0
   40.8030    1.9006   21.9301 O   0  0  0  0  0  0  0  0  0  0  0  0
   40.8023    1.8960   21.9516 O   0  0  0  0  0  0  0  0  0  0  0  0
   40.8014    1.8995   21.9456 O   0  0  0  0  0  0  0  0  0  0  0  0
   40.8028    1.8992   21.9365 O   0  0  0  0  0  0  0  0  0  0  0  0
   40.7917    1.8166   22.3218 Al  0  0  0  0  0 15  0  0  0  0  0  0
   40.7917    1.8166   22.3218 Cl  0  0  0  0  0  0  0  0  0  0  0  0
   40.7917    1.8166   22.3218 Cl  0  0  0  0  0  0  0  0  0  0  0  0
   41.1722    1.0628   22.3574 H   0  0  0  0  0  0  0  0  0  0  0  0
   40.4009    2.4946   22.6394 H   0  0  0  0  0  0  0  0  0  0  0  0
   40.4150    2.4649   22.6474 H   0  0  0  0  0  0  0  0  0  0  0  0
   41.1586    1.0850   22.3737 H   0  0  0  0  0  0  0  0  0  0  0  0
   41.1553    1.0890   22.3826 H   0  0  0  0  0  0  0  0  0  0  0  0
   40.4167    2.4602   22.6526 H   0  0  0  0  0  0  0  0  0  0  0  0
   41.1638    1.0761   22.3688 H   0  0  0  0  0  0  0  0  0  0  0  0
   40.4089    2.4776   22.6448 H   0  0  0  0  0  0  0  0  0  0  0  0
   40.4150    2.4652   22.6467 H   0  0  0  0  0  0  0  0  0  0  0  0
   41.1586    1.0851   22.3730 H   0  0  0  0  0  0  0  0  0  0  0  0
   40.4098    2.4738   22.6520 H   0  0  0  0  0  0  0  0  0  0  0  0
   41.1623    1.0768   22.3768 H   0  0  0  0  0  0  0  0  0  0  0  0
  2 11  1  0
  2 12  1  0
  3 13  1  0
  3 14  1  0
  4 15  1  0
  4 16  1  0
  5 17  1  0
  5 18  1  0
  6 19  1  0
  6 20  1  0
  7 21  1  0
  7 22  1  0
M  CHG  4   1  -1   8   3   9  -1  10  -1
M  END
> <Uni-Dock RESULT> 
ENERGY=   -4.960  LOWER_BOUND=   16.640  UPPER_BOUND=   16.644
INTER + INTRA:          -4.960
INTER:                  -4.960
INTRA:                   0.000
UNBOUND:                 0.000

$$$$

     RDKit          3D

 22 12  0  0  0  0  0  0  0  0999 V2000
   47.1271    2.9812   17.6185 Cl  0  0  0  0  0  0  0  0  0  0  0  0
   46.8193    2.7919   17.6301 O   0  0  0  0  0  0  0  0  0  0  0  0
   46.7965    2.7807   17.6309 O   0  0  0  0  0  0  0  0  0  0  0  0
   46.7860    2.7713   17.6313 O   0  0  0  0  0  0  0  0  0  0  0  0
   46.8046    2.7828   17.6306 O   0  0  0  0  0  0  0  0  0  0  0  0
   46.7978    2.7814   17.6309 O   0  0  0  0  0  0  0  0  0  0  0  0
   46.7916    2.7746   17.6311 O   0  0  0  0  0  0  0  0  0  0  0  0
   47.1271    2.9812   17.6185 Al  0  0  0  0  0 15  0  0  0  0  0  0
   47.1271    2.9812   17.6185 Cl  0  0  0  0  0  0  0  0  0  0  0  0
   47.1271    2.9812   17.6185 Cl  0  0  0  0  0  0  0  0  0  0  0  0
   47.7146    2.3737   17.6081 H   0  0  0  0  0  0  0  0  0  0  0  0
   46.8473    3.7780   17.6174 H   0  0  0  0  0  0  0  0  0  0  0  0
   46.8751    3.7589   17.6168 H   0  0  0  0  0  0  0  0  0  0  0  0
   47.7096    2.4041   17.6078 H   0  0  0  0  0  0  0  0  0  0  0  0
   47.7129    2.4137   17.6076 H   0  0  0  0  0  0  0  0  0  0  0  0
   46.8823    3.7586   17.6166 H   0  0  0  0  0  0  0  0  0  0  0  0
   47.7127    2.3931   17.6079 H   0  0  0  0  0  0  0  0  0  0  0  0
   46.8638    3.7677   17.6171 H   0  0  0  0  0  0  0  0  0  0  0  0
   46.8744    3.7586   17.6169 H   0  0  0  0  0  0  0  0  0  0  0  0
   47.7090    2.4036   17.6079 H   0  0  0  0  0  0  0  0  0  0  0  0
   46.8718    3.7696   17.6168 H   0  0  0  0  0  0  0  0  0  0  0  0
   47.7179    2.3993   17.6077 H   0  0  0  0  0  0  0  0  0  0  0  0
  2 11  1  0
  2 12  1  0
  3 13  1  0
  3 14  1  0
  4 15  1  0
  4 16  1  0
  5 17  1  0
  5 18  1  0
  6 19  1  0
  6 20  1  0
  7 21  1  0
  7 22  1  0
M  CHG  4   1  -1   8   3   9  -1  10  -1
M  END
> <Uni-Dock RESULT> 
ENERGY=   -4.696  LOWER_BOUND=   14.489  UPPER_BOUND=   14.492
INTER + INTRA:          -4.696
INTER:                  -4.696
INTRA:                   0.000
UNBOUND:                 0.000

$$$$
