
     RDKit          3D

 22 12  0  0  0  0  0  0  0  0999 V2000
   38.8140    3.8483    5.5755 Cl  0  0  0  0  0  0  0  0  0  0  0  0
   38.7372    3.5046    5.7475 O   0  0  0  0  0  0  0  0  0  0  0  0
   38.7461    3.5151    5.7384 O   0  0  0  0  0  0  0  0  0  0  0  0
   38.7448    3.5095    5.7413 O   0  0  0  0  0  0  0  0  0  0  0  0
   38.7444    3.5311    5.7335 O   0  0  0  0  0  0  0  0  0  0  0  0
   38.7458    3.5096    5.7407 O   0  0  0  0  0  0  0  0  0  0  0  0
   38.7458    3.5219    5.7361 O   0  0  0  0  0  0  0  0  0  0  0  0
   38.8140    3.8483    5.5755 Al  0  0  0  0  0 15  0  0  0  0  0  0
   38.8140    3.8483    5.5755 Cl  0  0  0  0  0  0  0  0  0  0  0  0
   38.8140    3.8483    5.5755 Cl  0  0  0  0  0  0  0  0  0  0  0  0
   38.1661    4.3042    5.7818 H   0  0  0  0  0  0  0  0  0  0  0  0
   39.5387    3.7361    5.1973 H   0  0  0  0  0  0  0  0  0  0  0  0
   38.1415    4.3046    5.7959 H   0  0  0  0  0  0  0  0  0  0  0  0
   39.5544    3.7252    5.1923 H   0  0  0  0  0  0  0  0  0  0  0  0
   38.1573    4.3014    5.7879 H   0  0  0  0  0  0  0  0  0  0  0  0
   39.5400    3.7340    5.1973 H   0  0  0  0  0  0  0  0  0  0  0  0
   39.5598    3.7137    5.1934 H   0  0  0  0  0  0  0  0  0  0  0  0
   38.1378    4.3001    5.7997 H   0  0  0  0  0  0  0  0  0  0  0  0
   38.1557    4.3014    5.7888 H   0  0  0  0  0  0  0  0  0  0  0  0
   39.5406    3.7340    5.1970 H   0  0  0  0  0  0  0  0  0  0  0  0
   39.5608    3.7186    5.1910 H   0  0  0  0  0  0  0  0  0  0  0  0
   38.1355    4.3043    5.7995 H   0  0  0  0  0  0  0  0  0  0  0  0
  2 11  1  0
  2 12  1  0
  3 13  1  0
  3 14  1  0
  4 15  1  0
  4 16  1  0
  5 17  1  0
  5 18  1  0
  6 19  1  0
  6 20  1  0
  7 21  1  0
  7 22  1  0
M  CHG  4   1  -1   8   3   9  -1  10  -1
M  END
> <Uni-Dock RESULT> 
ENERGY=   -6.816  LOWER_BOUND=    0.000  UPPER_BOUND=    0.000
INTER + INTRA:          -6.816
INTER:                  -6.816
INTRA:                   0.000
UNBOUND:                 0.000

$$$$

     RDKit          3D

 22 12  0  0  0  0  0  0  0  0999 V2000
   46.8172    0.2011    7.6212 Cl  0  0  0  0  0  0  0  0  0  0  0  0
   46.7568   -0.1646    7.7482 O   0  0  0  0  0  0  0  0  0  0  0  0
   46.7659   -0.1514    7.7448 O   0  0  0  0  0  0  0  0  0  0  0  0
   46.7647   -0.1574    7.7469 O   0  0  0  0  0  0  0  0  0  0  0  0
   46.7628   -0.1361    7.7385 O   0  0  0  0  0  0  0  0  0  0  0  0
   46.7659   -0.1570    7.7469 O   0  0  0  0  0  0  0  0  0  0  0  0
   46.7649   -0.1447    7.7421 O   0  0  0  0  0  0  0  0  0  0  0  0
   46.8172    0.2011    7.6212 Al  0  0  0  0  0 15  0  0  0  0  0  0
   46.8172    0.2011    7.6212 Cl  0  0  0  0  0  0  0  0  0  0  0  0
   46.8172    0.2011    7.6212 Cl  0  0  0  0  0  0  0  0  0  0  0  0
   46.0682    0.4418    7.3948 H   0  0  0  0  0  0  0  0  0  0  0  0
   47.6266    0.3263    7.7206 H   0  0  0  0  0  0  0  0  0  0  0  0
   46.0409    0.4341    7.3928 H   0  0  0  0  0  0  0  0  0  0  0  0
   47.6448    0.3207    7.7260 H   0  0  0  0  0  0  0  0  0  0  0  0
   46.0586    0.4361    7.3952 H   0  0  0  0  0  0  0  0  0  0  0  0
   47.6283    0.3247    7.7215 H   0  0  0  0  0  0  0  0  0  0  0  0
   47.6516    0.3110    7.7309 H   0  0  0  0  0  0  0  0  0  0  0  0
   46.0372    0.4285    7.3942 H   0  0  0  0  0  0  0  0  0  0  0  0
   46.0568    0.4356    7.3951 H   0  0  0  0  0  0  0  0  0  0  0  0
   47.6289    0.3248    7.7216 H   0  0  0  0  0  0  0  0  0  0  0  0
   47.6523    0.3162    7.7291 H   0  0  0  0  0  0  0  0  0  0  0  0
   46.0343    0.4319    7.3924 H   0  0  0  0  0  0  0  0  0  0  0  0
  2 11  1  0
  2 12  1  0
  3 13  1  0
  3 14  1  0
  4 15  1  0
  4 16  1  0
  5 17  1  0
  5 18  1  0
  6 19  1  0
  6 20  1  0
  7 21  1  0
  7 22  1  0
M  CHG  4   1  -1   8   3   9  -1  10  -1
M  END
> <Uni-Dock RESULT> 
ENERGY=   -6.739  LOWER_BOUND=    9.035  UPPER_BOUND=    9.038
INTER + INTRA:          -6.739
INTER:                  -6.739
INTRA:                   0.000
UNBOUND:                 0.000

$$$$

     RDKit          3D

 22 12  0  0  0  0  0  0  0  0999 V2000
   48.0438    2.1912    5.9440 Cl  0  0  0  0  0  0  0  0  0  0  0  0
   48.2490    1.9445    5.7191 O   0  0  0  0  0  0  0  0  0  0  0  0
   48.2463    1.9537    5.7324 O   0  0  0  0  0  0  0  0  0  0  0  0
   48.2495    1.9497    5.7286 O   0  0  0  0  0  0  0  0  0  0  0  0
   48.2339    1.9638    5.7377 O   0  0  0  0  0  0  0  0  0  0  0  0
   48.2500    1.9500    5.7297 O   0  0  0  0  0  0  0  0  0  0  0  0
   48.2412    1.9581    5.7350 O   0  0  0  0  0  0  0  0  0  0  0  0
   48.0438    2.1912    5.9440 Al  0  0  0  0  0 15  0  0  0  0  0  0
   48.0438    2.1912    5.9440 Cl  0  0  0  0  0  0  0  0  0  0  0  0
   48.0438    2.1912    5.9440 Cl  0  0  0  0  0  0  0  0  0  0  0  0
   47.3689    2.3244    5.5001 H   0  0  0  0  0  0  0  0  0  0  0  0
   48.5134    2.3049    6.6128 H   0  0  0  0  0  0  0  0  0  0  0  0
   47.3554    2.3183    5.4760 H   0  0  0  0  0  0  0  0  0  0  0  0
   48.5296    2.3018    6.6236 H   0  0  0  0  0  0  0  0  0  0  0  0
   47.3662    2.3202    5.4902 H   0  0  0  0  0  0  0  0  0  0  0  0
   48.5156    2.3038    6.6132 H   0  0  0  0  0  0  0  0  0  0  0  0
   48.5408    2.2956    6.6240 H   0  0  0  0  0  0  0  0  0  0  0  0
   47.3567    2.3143    5.4703 H   0  0  0  0  0  0  0  0  0  0  0  0
   47.3653    2.3198    5.4886 H   0  0  0  0  0  0  0  0  0  0  0  0
   48.5160    2.3040    6.6137 H   0  0  0  0  0  0  0  0  0  0  0  0
   48.5378    2.2991    6.6271 H   0  0  0  0  0  0  0  0  0  0  0  0
   47.3524    2.3165    5.4699 H   0  0  0  0  0  0  0  0  0  0  0  0
  2 11  1  0
  2 12  1  0
  3 13  1  0
  3 14  1  0
  4 15  1  0
  4 16  1  0
  5 17  1  0
  5 18  1  0
  6 19  1  0
  6 20  1  0
  7 21  1  0
  7 22  1  0
M  CHG  4   1  -1   8   3   9  -1  10  -1
M  END
> <Uni-Dock RESULT> 
ENERGY=   -6.019  LOWER_BOUND=    9.530  UPPER_BOUND=    9.532
INTER + INTRA:          -6.019
INTER:                  -6.019
INTRA:                   0.000
UNBOUND:                 0.000

$$$$

     RDKit          3D

 22 12  0  0  0  0  0  0  0  0999 V2000
   47.6985    1.5098    6.9371 Cl  0  0  0  0  0  0  0  0  0  0  0  0
   48.0647    1.5145    7.0767 O   0  0  0  0  0  0  0  0  0  0  0  0
   48.0493    1.5200    7.0753 O   0  0  0  0  0  0  0  0  0  0  0  0
   48.0553    1.5199    7.0774 O   0  0  0  0  0  0  0  0  0  0  0  0
   48.0357    1.5153    7.0665 O   0  0  0  0  0  0  0  0  0  0  0  0
   48.0546    1.5208    7.0779 O   0  0  0  0  0  0  0  0  0  0  0  0
   48.0432    1.5182    7.0716 O   0  0  0  0  0  0  0  0  0  0  0  0
   47.6985    1.5098    6.9371 Al  0  0  0  0  0 15  0  0  0  0  0  0
   47.6985    1.5098    6.9371 Cl  0  0  0  0  0  0  0  0  0  0  0  0
   47.6985    1.5098    6.9371 Cl  0  0  0  0  0  0  0  0  0  0  0  0
   47.7056    0.8687    6.4281 H   0  0  0  0  0  0  0  0  0  0  0  0
   47.3253    2.1462    7.3065 H   0  0  0  0  0  0  0  0  0  0  0  0
   47.7214    0.8477    6.4173 H   0  0  0  0  0  0  0  0  0  0  0  0
   47.3250    2.1617    7.3187 H   0  0  0  0  0  0  0  0  0  0  0  0
   47.7139    0.8617    6.4257 H   0  0  0  0  0  0  0  0  0  0  0  0
   47.3264    2.1478    7.3081 H   0  0  0  0  0  0  0  0  0  0  0  0
   47.3320    2.1686    7.3268 H   0  0  0  0  0  0  0  0  0  0  0  0
   47.7279    0.8455    6.4180 H   0  0  0  0  0  0  0  0  0  0  0  0
   47.7150    0.8604    6.4250 H   0  0  0  0  0  0  0  0  0  0  0  0
   47.3260    2.1483    7.3084 H   0  0  0  0  0  0  0  0  0  0  0  0
   47.3269    2.1685    7.3248 H   0  0  0  0  0  0  0  0  0  0  0  0
   47.7256    0.8427    6.4148 H   0  0  0  0  0  0  0  0  0  0  0  0
  2 11  1  0
  2 12  1  0
  3 13  1  0
  3 14  1  0
  4 15  1  0
  4 16  1  0
  5 17  1  0
  5 18  1  0
  6 19  1  0
  6 20  1  0
  7 21  1  0
  7 22  1  0
M  CHG  4   1  -1   8   3   9  -1  10  -1
M  END
> <Uni-Dock RESULT> 
ENERGY=   -6.010  LOWER_BOUND=    9.481  UPPER_BOUND=    9.483
INTER + INTRA:          -6.010
INTER:                  -6.010
INTRA:                   0.000
UNBOUND:                 0.000

$$$$

     RDKit          3D

 22 12  0  0  0  0  0  0  0  0999 V2000
   40.3632   12.3378   15.6793 Cl  0  0  0  0  0  0  0  0  0  0  0  0
   40.6241   12.1015   15.8516 O   0  0  0  0  0  0  0  0  0  0  0  0
   40.6118   12.1123   15.8514 O   0  0  0  0  0  0  0  0  0  0  0  0
   40.6161   12.1084   15.8540 O   0  0  0  0  0  0  0  0  0  0  0  0
   40.6031   12.1204   15.8393 O   0  0  0  0  0  0  0  0  0  0  0  0
   40.6154   12.1090   15.8548 O   0  0  0  0  0  0  0  0  0  0  0  0
   40.6078   12.1160   15.8465 O   0  0  0  0  0  0  0  0  0  0  0  0
   40.3632   12.3378   15.6793 Al  0  0  0  0  0 15  0  0  0  0  0  0
   40.3632   12.3378   15.6793 Cl  0  0  0  0  0  0  0  0  0  0  0  0
   40.3632   12.3378   15.6793 Cl  0  0  0  0  0  0  0  0  0  0  0  0
   40.5181   12.2305   14.8827 H   0  0  0  0  0  0  0  0  0  0  0  0
   39.9475   12.6814   16.3037 H   0  0  0  0  0  0  0  0  0  0  0  0
   40.5343   12.2169   14.8638 H   0  0  0  0  0  0  0  0  0  0  0  0
   39.9436   12.6841   16.3228 H   0  0  0  0  0  0  0  0  0  0  0  0
   40.5257   12.2239   14.8778 H   0  0  0  0  0  0  0  0  0  0  0  0
   39.9479   12.6810   16.3061 H   0  0  0  0  0  0  0  0  0  0  0  0
   39.9470   12.6807   16.3347 H   0  0  0  0  0  0  0  0  0  0  0  0
   40.5395   12.2123   14.8640 H   0  0  0  0  0  0  0  0  0  0  0  0
   40.5268   12.2230   14.8767 H   0  0  0  0  0  0  0  0  0  0  0  0
   39.9475   12.6813   16.3065 H   0  0  0  0  0  0  0  0  0  0  0  0
   39.9434   12.6840   16.3321 H   0  0  0  0  0  0  0  0  0  0  0  0
   40.5385   12.2133   14.8594 H   0  0  0  0  0  0  0  0  0  0  0  0
  2 11  1  0
  2 12  1  0
  3 13  1  0
  3 14  1  0
  4 15  1  0
  4 16  1  0
  5 17  1  0
  5 18  1  0
  6 19  1  0
  6 20  1  0
  7 21  1  0
  7 22  1  0
M  CHG  4   1  -1   8   3   9  -1  10  -1
M  END
> <Uni-Dock RESULT> 
ENERGY=   -5.547  LOWER_BOUND=   13.354  UPPER_BOUND=   13.356
INTER + INTRA:          -5.547
INTER:                  -5.547
INTRA:                   0.000
UNBOUND:                 0.000

$$$$

     RDKit          3D

 22 12  0  0  0  0  0  0  0  0999 V2000
   42.3540    5.6764   11.8433 Cl  0  0  0  0  0  0  0  0  0  0  0  0
   42.0397    5.8953   11.7602 O   0  0  0  0  0  0  0  0  0  0  0  0
   42.0474    5.8820   11.7660 O   0  0  0  0  0  0  0  0  0  0  0  0
   42.0424    5.8857   11.7645 O   0  0  0  0  0  0  0  0  0  0  0  0
   42.0635    5.8771   11.7673 O   0  0  0  0  0  0  0  0  0  0  0  0
   42.0421    5.8846   11.7650 O   0  0  0  0  0  0  0  0  0  0  0  0
   42.0542    5.8796   11.7667 O   0  0  0  0  0  0  0  0  0  0  0  0
   42.3540    5.6764   11.8433 Al  0  0  0  0  0 15  0  0  0  0  0  0
   42.3540    5.6764   11.8433 Cl  0  0  0  0  0  0  0  0  0  0  0  0
   42.3540    5.6764   11.8433 Cl  0  0  0  0  0  0  0  0  0  0  0  0
   42.9751    6.1455   11.5897 H   0  0  0  0  0  0  0  0  0  0  0  0
   42.0471    4.9885   12.1800 H   0  0  0  0  0  0  0  0  0  0  0  0
   42.9822    6.1702   11.5778 H   0  0  0  0  0  0  0  0  0  0  0  0
   42.0323    4.9771   12.1862 H   0  0  0  0  0  0  0  0  0  0  0  0
   42.9748    6.1556   11.5850 H   0  0  0  0  0  0  0  0  0  0  0  0
   42.0447    4.9880   12.1804 H   0  0  0  0  0  0  0  0  0  0  0  0
   42.0196    4.9763   12.1873 H   0  0  0  0  0  0  0  0  0  0  0  0
   42.9788    6.1759   11.5754 H   0  0  0  0  0  0  0  0  0  0  0  0
   42.9752    6.1572   11.5842 H   0  0  0  0  0  0  0  0  0  0  0  0
   42.0445    4.9875   12.1806 H   0  0  0  0  0  0  0  0  0  0  0  0
   42.0241    4.9733   12.1884 H   0  0  0  0  0  0  0  0  0  0  0  0
   42.9835    6.1765   11.5748 H   0  0  0  0  0  0  0  0  0  0  0  0
  2 11  1  0
  2 12  1  0
  3 13  1  0
  3 14  1  0
  4 15  1  0
  4 16  1  0
  5 17  1  0
  5 18  1  0
  6 19  1  0
  6 20  1  0
  7 21  1  0
  7 22  1  0
M  CHG  4   1  -1   8   3   9  -1  10  -1
M  END
> <Uni-Dock RESULT> 
ENERGY=   -5.027  LOWER_BOUND=    7.332  UPPER_BOUND=    7.332
INTER + INTRA:          -5.027
INTER:                  -5.027
INTRA:                   0.000
UNBOUND:                 0.000

$$$$

     RDKit          3D

 22 12  0  0  0  0  0  0  0  0999 V2000
   40.7914    1.8173   22.3194 Cl  0  0  0  0  0  0  0  0  0  0  0  0
   40.8081    1.8994   21.9366 O   0  0  0  0  0  0  0  0  0  0  0  0
   40.8007    1.8981   21.9512 O   0  0  0  0  0  0  0  0  0  0  0  0
   40.8012    1.8994   21.9449 O   0  0  0  0  0  0  0  0  0  0  0  0
   40.8055    1.8933   21.9666 O   0  0  0  0  0  0  0  0  0  0  0  0
   40.8001    1.8996   21.9454 O   0  0  0  0  0  0  0  0  0  0  0  0
   40.8024    1.8961   21.9579 O   0  0  0  0  0  0  0  0  0  0  0  0
   40.7914    1.8173   22.3194 Al  0  0  0  0  0 15  0  0  0  0  0  0
   40.7914    1.8173   22.3194 Cl  0  0  0  0  0  0  0  0  0  0  0  0
   40.7914    1.8173   22.3194 Cl  0  0  0  0  0  0  0  0  0  0  0  0
   41.5539    1.5705   22.4865 H   0  0  0  0  0  0  0  0  0  0  0  0
   40.0123    1.9819   22.5351 H   0  0  0  0  0  0  0  0  0  0  0  0
   41.5797    1.5659   22.4757 H   0  0  0  0  0  0  0  0  0  0  0  0
   39.9938    1.9878   22.5313 H   0  0  0  0  0  0  0  0  0  0  0  0
   41.5626    1.5697   22.4796 H   0  0  0  0  0  0  0  0  0  0  0  0
   40.0105    1.9828   22.5336 H   0  0  0  0  0  0  0  0  0  0  0  0
   39.9860    1.9921   22.5221 H   0  0  0  0  0  0  0  0  0  0  0  0
   41.5827    1.5665   22.4694 H   0  0  0  0  0  0  0  0  0  0  0  0
   41.5643    1.5694   22.4789 H   0  0  0  0  0  0  0  0  0  0  0  0
   40.0099    1.9829   22.5339 H   0  0  0  0  0  0  0  0  0  0  0  0
   39.9859    1.9909   22.5275 H   0  0  0  0  0  0  0  0  0  0  0  0
   41.5859    1.5648   22.4727 H   0  0  0  0  0  0  0  0  0  0  0  0
  2 11  1  0
  2 12  1  0
  3 13  1  0
  3 14  1  0
  4 15  1  0
  4 16  1  0
  5 17  1  0
  5 18  1  0
  6 19  1  0
  6 20  1  0
  7 21  1  0
  7 22  1  0
M  CHG  4   1  -1   8   3   9  -1  10  -1
M  END
> <Uni-Dock RESULT> 
ENERGY=   -4.967  LOWER_BOUND=   16.643  UPPER_BOUND=   16.648
INTER + INTRA:          -4.967
INTER:                  -4.967
INTRA:                   0.000
UNBOUND:                 0.000

$$$$

     RDKit          3D

 22 12  0  0  0  0  0  0  0  0999 V2000
   47.0712    3.0944   17.5817 Cl  0  0  0  0  0  0  0  0  0  0  0  0
   46.8265    2.7900   17.6134 O   0  0  0  0  0  0  0  0  0  0  0  0
   46.8412    2.7971   17.6121 O   0  0  0  0  0  0  0  0  0  0  0  0
   46.8371    2.7923   17.6126 O   0  0  0  0  0  0  0  0  0  0  0  0
   46.8468    2.8130   17.6109 O   0  0  0  0  0  0  0  0  0  0  0  0
   46.8383    2.7920   17.6125 O   0  0  0  0  0  0  0  0  0  0  0  0
   46.8440    2.8038   17.6116 O   0  0  0  0  0  0  0  0  0  0  0  0
   47.0712    3.0944   17.5817 Al  0  0  0  0  0 15  0  0  0  0  0  0
   47.0712    3.0944   17.5817 Cl  0  0  0  0  0  0  0  0  0  0  0  0
   47.0712    3.0944   17.5817 Cl  0  0  0  0  0  0  0  0  0  0  0  0
   46.5638    3.7368   17.5796 H   0  0  0  0  0  0  0  0  0  0  0  0
   47.8233    2.7565   17.5522 H   0  0  0  0  0  0  0  0  0  0  0  0
   46.5367    3.7450   17.5808 H   0  0  0  0  0  0  0  0  0  0  0  0
   47.8357    2.7412   17.5523 H   0  0  0  0  0  0  0  0  0  0  0  0
   46.5527    3.7370   17.5803 H   0  0  0  0  0  0  0  0  0  0  0  0
   47.8238    2.7541   17.5523 H   0  0  0  0  0  0  0  0  0  0  0  0
   47.8364    2.7284   17.5529 H   0  0  0  0  0  0  0  0  0  0  0  0
   46.5304    3.7419   17.5814 H   0  0  0  0  0  0  0  0  0  0  0  0
   46.5509    3.7375   17.5803 H   0  0  0  0  0  0  0  0  0  0  0  0
   47.8244    2.7539   17.5523 H   0  0  0  0  0  0  0  0  0  0  0  0
   47.8397    2.7328   17.5524 H   0  0  0  0  0  0  0  0  0  0  0  0
   46.5298    3.7467   17.5812 H   0  0  0  0  0  0  0  0  0  0  0  0
  2 11  1  0
  2 12  1  0
  3 13  1  0
  3 14  1  0
  4 15  1  0
  4 16  1  0
  5 17  1  0
  5 18  1  0
  6 19  1  0
  6 20  1  0
  7 21  1  0
  7 22  1  0
M  CHG  4   1  -1   8   3   9  -1  10  -1
M  END
> <Uni-Dock RESULT> 
ENERGY=   -4.692  LOWER_BOUND=   14.467  UPPER_BOUND=   14.469
INTER + INTRA:          -4.692
INTER:                  -4.692
INTRA:                   0.000
UNBOUND:                 0.000

$$$$
