
     RDKit          3D

 22 12  0  0  0  0  0  0  0  0999 V2000
   38.8141    3.8487    5.5758 Cl  0  0  0  0  0  0  0  0  0  0  0  0
   38.7469    3.5287    5.7334 O   0  0  0  0  0  0  0  0  0  0  0  0
   38.7439    3.5183    5.7387 O   0  0  0  0  0  0  0  0  0  0  0  0
   38.7426    3.4963    5.7487 O   0  0  0  0  0  0  0  0  0  0  0  0
   38.7382    3.5076    5.7450 O   0  0  0  0  0  0  0  0  0  0  0  0
   38.7459    3.5191    5.7378 O   0  0  0  0  0  0  0  0  0  0  0  0
   38.7441    3.5227    5.7368 O   0  0  0  0  0  0  0  0  0  0  0  0
   38.8141    3.8487    5.5758 Al  0  0  0  0  0 15  0  0  0  0  0  0
   38.8141    3.8487    5.5758 Cl  0  0  0  0  0  0  0  0  0  0  0  0
   38.8141    3.8487    5.5758 Cl  0  0  0  0  0  0  0  0  0  0  0  0
   38.0634    4.2408    5.6074 H   0  0  0  0  0  0  0  0  0  0  0  0
   39.6320    3.7768    5.3864 H   0  0  0  0  0  0  0  0  0  0  0  0
   38.0783    4.2421    5.6028 H   0  0  0  0  0  0  0  0  0  0  0  0
   39.6202    3.7858    5.3857 H   0  0  0  0  0  0  0  0  0  0  0  0
   38.0990    4.2456    5.5957 H   0  0  0  0  0  0  0  0  0  0  0  0
   39.6006    3.8042    5.3829 H   0  0  0  0  0  0  0  0  0  0  0  0
   39.6208    3.7908    5.3833 H   0  0  0  0  0  0  0  0  0  0  0  0
   38.0833    4.2478    5.5990 H   0  0  0  0  0  0  0  0  0  0  0  0
   39.6213    3.7853    5.3856 H   0  0  0  0  0  0  0  0  0  0  0  0
   38.0752    4.2418    5.6038 H   0  0  0  0  0  0  0  0  0  0  0  0
   39.6245    3.7819    5.3862 H   0  0  0  0  0  0  0  0  0  0  0  0
   38.0737    4.2414    5.6043 H   0  0  0  0  0  0  0  0  0  0  0  0
  2 11  1  0
  2 12  1  0
  3 13  1  0
  3 14  1  0
  4 15  1  0
  4 16  1  0
  5 17  1  0
  5 18  1  0
  6 19  1  0
  6 20  1  0
  7 21  1  0
  7 22  1  0
M  CHG  4   1  -1   8   3   9  -1  10  -1
M  END
> <Uni-Dock RESULT> 
ENERGY=   -6.818  LOWER_BOUND=    0.000  UPPER_BOUND=    0.000
INTER + INTRA:          -6.818
INTER:                  -6.818
INTRA:                   0.000
UNBOUND:                 0.000

$$$$

     RDKit          3D

 22 12  0  0  0  0  0  0  0  0999 V2000
   46.8173    0.2021    7.6210 Cl  0  0  0  0  0  0  0  0  0  0  0  0
   46.7668   -0.1374    7.7393 O   0  0  0  0  0  0  0  0  0  0  0  0
   46.7643   -0.1484    7.7435 O   0  0  0  0  0  0  0  0  0  0  0  0
   46.7640   -0.1716    7.7502 O   0  0  0  0  0  0  0  0  0  0  0  0
   46.7593   -0.1599    7.7489 O   0  0  0  0  0  0  0  0  0  0  0  0
   46.7662   -0.1475    7.7424 O   0  0  0  0  0  0  0  0  0  0  0  0
   46.7643   -0.1438    7.7422 O   0  0  0  0  0  0  0  0  0  0  0  0
   46.8173    0.2021    7.6210 Al  0  0  0  0  0 15  0  0  0  0  0  0
   46.8173    0.2021    7.6210 Cl  0  0  0  0  0  0  0  0  0  0  0  0
   46.8173    0.2021    7.6210 Cl  0  0  0  0  0  0  0  0  0  0  0  0
   46.0924    0.5889    7.8292 H   0  0  0  0  0  0  0  0  0  0  0  0
   47.5927    0.1549    7.2946 H   0  0  0  0  0  0  0  0  0  0  0  0
   46.1064    0.5907    7.8225 H   0  0  0  0  0  0  0  0  0  0  0  0
   47.5811    0.1640    7.2971 H   0  0  0  0  0  0  0  0  0  0  0  0
   46.1259    0.5952    7.8127 H   0  0  0  0  0  0  0  0  0  0  0  0
   47.5619    0.1827    7.3002 H   0  0  0  0  0  0  0  0  0  0  0  0
   47.5815    0.1693    7.2954 H   0  0  0  0  0  0  0  0  0  0  0  0
   46.1110    0.5969    7.8188 H   0  0  0  0  0  0  0  0  0  0  0  0
   47.5822    0.1636    7.2967 H   0  0  0  0  0  0  0  0  0  0  0  0
   46.1036    0.5903    7.8239 H   0  0  0  0  0  0  0  0  0  0  0  0
   47.5854    0.1601    7.2963 H   0  0  0  0  0  0  0  0  0  0  0  0
   46.1022    0.5899    7.8246 H   0  0  0  0  0  0  0  0  0  0  0  0
  2 11  1  0
  2 12  1  0
  3 13  1  0
  3 14  1  0
  4 15  1  0
  4 16  1  0
  5 17  1  0
  5 18  1  0
  6 19  1  0
  6 20  1  0
  7 21  1  0
  7 22  1  0
M  CHG  4   1  -1   8   3   9  -1  10  -1
M  END
> <Uni-Dock RESULT> 
ENERGY=   -6.737  LOWER_BOUND=    9.035  UPPER_BOUND=    9.038
INTER + INTRA:          -6.737
INTER:                  -6.737
INTRA:                   0.000
UNBOUND:                 0.000

$$$$

     RDKit          3D

 22 12  0  0  0  0  0  0  0  0999 V2000
   39.7156    4.8518    5.1899 Cl  0  0  0  0  0  0  0  0  0  0  0  0
   40.0454    5.0034    5.1960 O   0  0  0  0  0  0  0  0  0  0  0  0
   40.0567    5.0076    5.1962 O   0  0  0  0  0  0  0  0  0  0  0  0
   40.0771    5.0206    5.1967 O   0  0  0  0  0  0  0  0  0  0  0  0
   40.0701    5.0100    5.1963 O   0  0  0  0  0  0  0  0  0  0  0  0
   40.0546    5.0086    5.1962 O   0  0  0  0  0  0  0  0  0  0  0  0
   40.0527    5.0050    5.1961 O   0  0  0  0  0  0  0  0  0  0  0  0
   39.7156    4.8518    5.1899 Al  0  0  0  0  0 15  0  0  0  0  0  0
   39.7156    4.8518    5.1899 Cl  0  0  0  0  0  0  0  0  0  0  0  0
   39.7156    4.8518    5.1899 Cl  0  0  0  0  0  0  0  0  0  0  0  0
   39.8850    4.0219    5.1626 H   0  0  0  0  0  0  0  0  0  0  0  0
   39.2162    5.5302    5.2111 H   0  0  0  0  0  0  0  0  0  0  0  0
   39.8736    4.0326    5.1629 H   0  0  0  0  0  0  0  0  0  0  0  0
   39.2164    5.5154    5.2106 H   0  0  0  0  0  0  0  0  0  0  0  0
   39.8562    4.0464    5.1633 H   0  0  0  0  0  0  0  0  0  0  0  0
   39.2135    5.4885    5.2097 H   0  0  0  0  0  0  0  0  0  0  0  0
   39.2115    5.5127    5.2105 H   0  0  0  0  0  0  0  0  0  0  0  0
   39.8651    4.0329    5.1629 H   0  0  0  0  0  0  0  0  0  0  0  0
   39.2160    5.5165    5.2106 H   0  0  0  0  0  0  0  0  0  0  0  0
   39.8760    4.0304    5.1629 H   0  0  0  0  0  0  0  0  0  0  0  0
   39.2168    5.5212    5.2108 H   0  0  0  0  0  0  0  0  0  0  0  0
   39.8773    4.0295    5.1628 H   0  0  0  0  0  0  0  0  0  0  0  0
  2 11  1  0
  2 12  1  0
  3 13  1  0
  3 14  1  0
  4 15  1  0
  4 16  1  0
  5 17  1  0
  5 18  1  0
  6 19  1  0
  6 20  1  0
  7 21  1  0
  7 22  1  0
M  CHG  4   1  -1   8   3   9  -1  10  -1
M  END
> <Uni-Dock RESULT> 
ENERGY=   -6.079  LOWER_BOUND=    1.819  UPPER_BOUND=    1.828
INTER + INTRA:          -6.079
INTER:                  -6.079
INTRA:                   0.000
UNBOUND:                 0.000

$$$$

     RDKit          3D

 22 12  0  0  0  0  0  0  0  0999 V2000
   48.0540    2.1963    5.9518 Cl  0  0  0  0  0  0  0  0  0  0  0  0
   48.2354    1.9558    5.7492 O   0  0  0  0  0  0  0  0  0  0  0  0
   48.2419    1.9475    5.7432 O   0  0  0  0  0  0  0  0  0  0  0  0
   48.2522    1.9327    5.7271 O   0  0  0  0  0  0  0  0  0  0  0  0
   48.2502    1.9377    5.7386 O   0  0  0  0  0  0  0  0  0  0  0  0
   48.2402    1.9491    5.7425 O   0  0  0  0  0  0  0  0  0  0  0  0
   48.2399    1.9504    5.7464 O   0  0  0  0  0  0  0  0  0  0  0  0
   48.0540    2.1963    5.9518 Al  0  0  0  0  0 15  0  0  0  0  0  0
   48.0540    2.1963    5.9518 Cl  0  0  0  0  0  0  0  0  0  0  0  0
   48.0540    2.1963    5.9518 Cl  0  0  0  0  0  0  0  0  0  0  0  0
   48.3669    2.0688    6.7291 H   0  0  0  0  0  0  0  0  0  0  0  0
   47.5596    2.5642    5.3771 H   0  0  0  0  0  0  0  0  0  0  0  0
   48.3568    2.0772    6.7206 H   0  0  0  0  0  0  0  0  0  0  0  0
   47.5633    2.5640    5.3915 H   0  0  0  0  0  0  0  0  0  0  0  0
   48.3419    2.0900    6.7101 H   0  0  0  0  0  0  0  0  0  0  0  0
   47.5679    2.5660    5.4181 H   0  0  0  0  0  0  0  0  0  0  0  0
   47.5607    2.5676    5.3950 H   0  0  0  0  0  0  0  0  0  0  0  0
   48.3510    2.0835    6.7217 H   0  0  0  0  0  0  0  0  0  0  0  0
   47.5628    2.5643    5.3905 H   0  0  0  0  0  0  0  0  0  0  0  0
   48.3588    2.0755    6.7223 H   0  0  0  0  0  0  0  0  0  0  0  0
   47.5622    2.5637    5.3858 H   0  0  0  0  0  0  0  0  0  0  0  0
   48.3599    2.0745    6.7230 H   0  0  0  0  0  0  0  0  0  0  0  0
  2 11  1  0
  2 12  1  0
  3 13  1  0
  3 14  1  0
  4 15  1  0
  4 16  1  0
  5 17  1  0
  5 18  1  0
  6 19  1  0
  6 20  1  0
  7 21  1  0
  7 22  1  0
M  CHG  4   1  -1   8   3   9  -1  10  -1
M  END
> <Uni-Dock RESULT> 
ENERGY=   -6.021  LOWER_BOUND=    9.534  UPPER_BOUND=    9.535
INTER + INTRA:          -6.021
INTER:                  -6.021
INTRA:                   0.000
UNBOUND:                 0.000

$$$$

     RDKit          3D

 22 12  0  0  0  0  0  0  0  0999 V2000
   47.7013    1.5024    6.9358 Cl  0  0  0  0  0  0  0  0  0  0  0  0
   48.0383    1.5276    7.0686 O   0  0  0  0  0  0  0  0  0  0  0  0
   48.0496    1.5276    7.0727 O   0  0  0  0  0  0  0  0  0  0  0  0
   48.0712    1.5323    7.0825 O   0  0  0  0  0  0  0  0  0  0  0  0
   48.0625    1.5253    7.0765 O   0  0  0  0  0  0  0  0  0  0  0  0
   48.0479    1.5292    7.0728 O   0  0  0  0  0  0  0  0  0  0  0  0
   48.0453    1.5266    7.0708 O   0  0  0  0  0  0  0  0  0  0  0  0
   47.7013    1.5024    6.9358 Al  0  0  0  0  0 15  0  0  0  0  0  0
   47.7013    1.5024    6.9358 Cl  0  0  0  0  0  0  0  0  0  0  0  0
   47.7013    1.5024    6.9358 Cl  0  0  0  0  0  0  0  0  0  0  0  0
   47.6823    0.7227    6.6041 H   0  0  0  0  0  0  0  0  0  0  0  0
   47.3833    2.2569    7.1347 H   0  0  0  0  0  0  0  0  0  0  0  0
   47.6741    0.7357    6.6066 H   0  0  0  0  0  0  0  0  0  0  0  0
   47.3803    2.2439    7.1282 H   0  0  0  0  0  0  0  0  0  0  0  0
   47.6609    0.7535    6.6092 H   0  0  0  0  0  0  0  0  0  0  0  0
   47.3720    2.2214    7.1158 H   0  0  0  0  0  0  0  0  0  0  0  0
   47.3752    2.2431    7.1260 H   0  0  0  0  0  0  0  0  0  0  0  0
   47.6662    0.7387    6.6050 H   0  0  0  0  0  0  0  0  0  0  0  0
   47.3802    2.2450    7.1286 H   0  0  0  0  0  0  0  0  0  0  0  0
   47.6758    0.7331    6.6061 H   0  0  0  0  0  0  0  0  0  0  0  0
   47.3819    2.2488    7.1309 H   0  0  0  0  0  0  0  0  0  0  0  0
   47.6768    0.7318    6.6060 H   0  0  0  0  0  0  0  0  0  0  0  0
  2 11  1  0
  2 12  1  0
  3 13  1  0
  3 14  1  0
  4 15  1  0
  4 16  1  0
  5 17  1  0
  5 18  1  0
  6 19  1  0
  6 20  1  0
  7 21  1  0
  7 22  1  0
M  CHG  4   1  -1   8   3   9  -1  10  -1
M  END
> <Uni-Dock RESULT> 
ENERGY=   -6.011  LOWER_BOUND=    9.483  UPPER_BOUND=    9.485
INTER + INTRA:          -6.011
INTER:                  -6.011
INTRA:                   0.000
UNBOUND:                 0.000

$$$$

     RDKit          3D

 22 12  0  0  0  0  0  0  0  0999 V2000
   40.3629   12.3378   15.6793 Cl  0  0  0  0  0  0  0  0  0  0  0  0
   40.6032   12.1200   15.8424 O   0  0  0  0  0  0  0  0  0  0  0  0
   40.6110   12.1132   15.8485 O   0  0  0  0  0  0  0  0  0  0  0  0
   40.6272   12.0971   15.8565 O   0  0  0  0  0  0  0  0  0  0  0  0
   40.6195   12.1071   15.8573 O   0  0  0  0  0  0  0  0  0  0  0  0
   40.6102   12.1132   15.8463 O   0  0  0  0  0  0  0  0  0  0  0  0
   40.6078   12.1165   15.8470 O   0  0  0  0  0  0  0  0  0  0  0  0
   40.3629   12.3378   15.6793 Al  0  0  0  0  0 15  0  0  0  0  0  0
   40.3629   12.3378   15.6793 Cl  0  0  0  0  0  0  0  0  0  0  0  0
   40.3629   12.3378   15.6793 Cl  0  0  0  0  0  0  0  0  0  0  0  0
   40.1663   12.8966   16.2855 H   0  0  0  0  0  0  0  0  0  0  0  0
   40.3190   11.9969   14.9099 H   0  0  0  0  0  0  0  0  0  0  0  0
   40.1636   12.8923   16.2706 H   0  0  0  0  0  0  0  0  0  0  0  0
   40.3139   12.0079   14.9186 H   0  0  0  0  0  0  0  0  0  0  0  0
   40.1586   12.8877   16.2494 H   0  0  0  0  0  0  0  0  0  0  0  0
   40.3028   12.0286   14.9318 H   0  0  0  0  0  0  0  0  0  0  0  0
   40.3102   12.0114   14.9164 H   0  0  0  0  0  0  0  0  0  0  0  0
   40.1589   12.8948   16.2640 H   0  0  0  0  0  0  0  0  0  0  0  0
   40.3141   12.0071   14.9177 H   0  0  0  0  0  0  0  0  0  0  0  0
   40.1642   12.8931   16.2737 H   0  0  0  0  0  0  0  0  0  0  0  0
   40.3162   12.0034   14.9155 H   0  0  0  0  0  0  0  0  0  0  0  0
   40.1646   12.8934   16.2752 H   0  0  0  0  0  0  0  0  0  0  0  0
  2 11  1  0
  2 12  1  0
  3 13  1  0
  3 14  1  0
  4 15  1  0
  4 16  1  0
  5 17  1  0
  5 18  1  0
  6 19  1  0
  6 20  1  0
  7 21  1  0
  7 22  1  0
M  CHG  4   1  -1   8   3   9  -1  10  -1
M  END
> <Uni-Dock RESULT> 
ENERGY=   -5.547  LOWER_BOUND=   13.354  UPPER_BOUND=   13.355
INTER + INTRA:          -5.547
INTER:                  -5.547
INTRA:                   0.000
UNBOUND:                 0.000

$$$$

     RDKit          3D

 22 12  0  0  0  0  0  0  0  0999 V2000
   46.7455    3.9208    7.0914 Cl  0  0  0  0  0  0  0  0  0  0  0  0
   46.8706    4.2255    7.2441 O   0  0  0  0  0  0  0  0  0  0  0  0
   46.8741    4.2361    7.2487 O   0  0  0  0  0  0  0  0  0  0  0  0
   46.8847    4.2544    7.2604 O   0  0  0  0  0  0  0  0  0  0  0  0
   46.8762    4.2490    7.2527 O   0  0  0  0  0  0  0  0  0  0  0  0
   46.8748    4.2339    7.2490 O   0  0  0  0  0  0  0  0  0  0  0  0
   46.8719    4.2325    7.2464 O   0  0  0  0  0  0  0  0  0  0  0  0
   46.7455    3.9208    7.0914 Al  0  0  0  0  0 15  0  0  0  0  0  0
   46.7455    3.9208    7.0914 Cl  0  0  0  0  0  0  0  0  0  0  0  0
   46.7455    3.9208    7.0914 Cl  0  0  0  0  0  0  0  0  0  0  0  0
   46.0890    4.1920    6.6291 H   0  0  0  0  0  0  0  0  0  0  0  0
   47.2770    3.3449    7.4009 H   0  0  0  0  0  0  0  0  0  0  0  0
   46.0973    4.1795    6.6333 H   0  0  0  0  0  0  0  0  0  0  0  0
   47.2652    3.3470    7.3921 H   0  0  0  0  0  0  0  0  0  0  0  0
   46.1080    4.1606    6.6382 H   0  0  0  0  0  0  0  0  0  0  0  0
   47.2439    3.3475    7.3755 H   0  0  0  0  0  0  0  0  0  0  0  0
   47.2630    3.3425    7.3895 H   0  0  0  0  0  0  0  0  0  0  0  0
   46.0974    4.1711    6.6318 H   0  0  0  0  0  0  0  0  0  0  0  0
   47.2661    3.3464    7.3927 H   0  0  0  0  0  0  0  0  0  0  0  0
   46.0957    4.1821    6.6325 H   0  0  0  0  0  0  0  0  0  0  0  0
   47.2699    3.3466    7.3956 H   0  0  0  0  0  0  0  0  0  0  0  0
   46.0949    4.1835    6.6321 H   0  0  0  0  0  0  0  0  0  0  0  0
  2 11  1  0
  2 12  1  0
  3 13  1  0
  3 14  1  0
  4 15  1  0
  4 16  1  0
  5 17  1  0
  5 18  1  0
  6 19  1  0
  6 20  1  0
  7 21  1  0
  7 22  1  0
M  CHG  4   1  -1   8   3   9  -1  10  -1
M  END
> <Uni-Dock RESULT> 
ENERGY=   -5.142  LOWER_BOUND=    8.210  UPPER_BOUND=    8.212
INTER + INTRA:          -5.142
INTER:                  -5.142
INTRA:                   0.000
UNBOUND:                 0.000

$$$$

     RDKit          3D

 22 12  0  0  0  0  0  0  0  0999 V2000
   42.3537    5.6761   11.8433 Cl  0  0  0  0  0  0  0  0  0  0  0  0
   42.0603    5.8763   11.7680 O   0  0  0  0  0  0  0  0  0  0  0  0
   42.0510    5.8836   11.7658 O   0  0  0  0  0  0  0  0  0  0  0  0
   42.0301    5.8941   11.7599 O   0  0  0  0  0  0  0  0  0  0  0  0
   42.0420    5.8938   11.7640 O   0  0  0  0  0  0  0  0  0  0  0  0
   42.0513    5.8813   11.7656 O   0  0  0  0  0  0  0  0  0  0  0  0
   42.0552    5.8816   11.7669 O   0  0  0  0  0  0  0  0  0  0  0  0
   42.3537    5.6761   11.8433 Al  0  0  0  0  0 15  0  0  0  0  0  0
   42.3537    5.6761   11.8433 Cl  0  0  0  0  0  0  0  0  0  0  0  0
   42.3537    5.6761   11.8433 Cl  0  0  0  0  0  0  0  0  0  0  0  0
   42.9159    6.2509   12.1114 H   0  0  0  0  0  0  0  0  0  0  0  0
   42.0849    4.9011   11.6505 H   0  0  0  0  0  0  0  0  0  0  0  0
   42.9135    6.2357   12.1086 H   0  0  0  0  0  0  0  0  0  0  0  0
   42.0964    4.9091   11.6555 H   0  0  0  0  0  0  0  0  0  0  0  0
   42.9119    6.2137   12.1052 H   0  0  0  0  0  0  0  0  0  0  0  0
   42.1191    4.9205   11.6648 H   0  0  0  0  0  0  0  0  0  0  0  0
   42.1012    4.9063   11.6568 H   0  0  0  0  0  0  0  0  0  0  0  0
   42.9178    6.2283   12.1091 H   0  0  0  0  0  0  0  0  0  0  0  0
   42.0957    4.9081   11.6551 H   0  0  0  0  0  0  0  0  0  0  0  0
   42.9140    6.2388   12.1091 H   0  0  0  0  0  0  0  0  0  0  0  0
   42.0916    4.9063   11.6535 H   0  0  0  0  0  0  0  0  0  0  0  0
   42.9140    6.2404   12.1093 H   0  0  0  0  0  0  0  0  0  0  0  0
  2 11  1  0
  2 12  1  0
  3 13  1  0
  3 14  1  0
  4 15  1  0
  4 16  1  0
  5 17  1  0
  5 18  1  0
  6 19  1  0
  6 20  1  0
  7 21  1  0
  7 22  1  0
M  CHG  4   1  -1   8   3   9  -1  10  -1
M  END
> <Uni-Dock RESULT> 
ENERGY=   -5.026  LOWER_BOUND=    7.332  UPPER_BOUND=    7.332
INTER + INTRA:          -5.026
INTER:                  -5.026
INTRA:                   0.000
UNBOUND:                 0.000

$$$$

     RDKit          3D

 22 12  0  0  0  0  0  0  0  0999 V2000
   40.7917    1.8175   22.3197 Cl  0  0  0  0  0  0  0  0  0  0  0  0
   40.8030    1.8944   21.9651 O   0  0  0  0  0  0  0  0  0  0  0  0
   40.8024    1.8970   21.9534 O   0  0  0  0  0  0  0  0  0  0  0  0
   40.8065    1.9018   21.9300 O   0  0  0  0  0  0  0  0  0  0  0  0
   40.7994    1.9001   21.9404 O   0  0  0  0  0  0  0  0  0  0  0  0
   40.8042    1.8965   21.9548 O   0  0  0  0  0  0  0  0  0  0  0  0
   40.8016    1.8961   21.9580 O   0  0  0  0  0  0  0  0  0  0  0  0
   40.7917    1.8175   22.3197 Al  0  0  0  0  0 15  0  0  0  0  0  0
   40.7917    1.8175   22.3197 Cl  0  0  0  0  0  0  0  0  0  0  0  0
   40.7917    1.8175   22.3197 Cl  0  0  0  0  0  0  0  0  0  0  0  0
   39.9640    1.8529   22.4988 H   0  0  0  0  0  0  0  0  0  0  0  0
   41.6081    1.7052   22.4954 H   0  0  0  0  0  0  0  0  0  0  0  0
   39.9783    1.8503   22.5047 H   0  0  0  0  0  0  0  0  0  0  0  0
   41.5944    1.7052   22.5012 H   0  0  0  0  0  0  0  0  0  0  0  0
   39.9978    1.8463   22.5147 H   0  0  0  0  0  0  0  0  0  0  0  0
   41.5709    1.7044   22.5144 H   0  0  0  0  0  0  0  0  0  0  0  0
   41.5938    1.7040   22.5066 H   0  0  0  0  0  0  0  0  0  0  0  0
   39.9819    1.8483   22.5122 H   0  0  0  0  0  0  0  0  0  0  0  0
   41.5956    1.7051   22.5011 H   0  0  0  0  0  0  0  0  0  0  0  0
   39.9754    1.8508   22.5034 H   0  0  0  0  0  0  0  0  0  0  0  0
   41.5996    1.7053   22.4985 H   0  0  0  0  0  0  0  0  0  0  0  0
   39.9740    1.8511   22.5026 H   0  0  0  0  0  0  0  0  0  0  0  0
  2 11  1  0
  2 12  1  0
  3 13  1  0
  3 14  1  0
  4 15  1  0
  4 16  1  0
  5 17  1  0
  5 18  1  0
  6 19  1  0
  6 20  1  0
  7 21  1  0
  7 22  1  0
M  CHG  4   1  -1   8   3   9  -1  10  -1
M  END
> <Uni-Dock RESULT> 
ENERGY=   -4.965  LOWER_BOUND=   16.641  UPPER_BOUND=   16.647
INTER + INTRA:          -4.965
INTER:                  -4.965
INTRA:                   0.000
UNBOUND:                 0.000

$$$$
