
     RDKit          3D

 22 12  0  0  0  0  0  0  0  0999 V2000
   38.8155    3.8424    5.5817 Cl  0  0  0  0  0  0  0  0  0  0  0  0
   38.7452    3.5291    5.7341 O   0  0  0  0  0  0  0  0  0  0  0  0
   38.7384    3.5047    5.7487 O   0  0  0  0  0  0  0  0  0  0  0  0
   38.7395    3.5123    5.7461 O   0  0  0  0  0  0  0  0  0  0  0  0
   38.7423    3.5175    5.7403 O   0  0  0  0  0  0  0  0  0  0  0  0
   38.7432    3.5257    5.7382 O   0  0  0  0  0  0  0  0  0  0  0  0
   38.7433    3.5217    5.7381 O   0  0  0  0  0  0  0  0  0  0  0  0
   38.8155    3.8424    5.5817 Al  0  0  0  0  0 15  0  0  0  0  0  0
   38.8155    3.8424    5.5817 Cl  0  0  0  0  0  0  0  0  0  0  0  0
   38.8155    3.8424    5.5817 Cl  0  0  0  0  0  0  0  0  0  0  0  0
   38.5178    4.3855    6.1540 H   0  0  0  0  0  0  0  0  0  0  0  0
   39.1836    3.6126    4.8571 H   0  0  0  0  0  0  0  0  0  0  0  0
   39.1812    3.6303    4.8610 H   0  0  0  0  0  0  0  0  0  0  0  0
   38.5270    4.3922    6.1355 H   0  0  0  0  0  0  0  0  0  0  0  0
   39.1807    3.6261    4.8623 H   0  0  0  0  0  0  0  0  0  0  0  0
   38.5264    4.3888    6.1368 H   0  0  0  0  0  0  0  0  0  0  0  0
   39.1804    3.6236    4.8631 H   0  0  0  0  0  0  0  0  0  0  0  0
   38.5239    4.3862    6.1418 H   0  0  0  0  0  0  0  0  0  0  0  0
   39.1857    3.6122    4.8529 H   0  0  0  0  0  0  0  0  0  0  0  0
   38.5177    4.3895    6.1541 H   0  0  0  0  0  0  0  0  0  0  0  0
   38.5201    4.3879    6.1494 H   0  0  0  0  0  0  0  0  0  0  0  0
   39.1832    3.6177    4.8577 H   0  0  0  0  0  0  0  0  0  0  0  0
  2 11  1  0
  2 12  1  0
  3 13  1  0
  3 14  1  0
  4 15  1  0
  4 16  1  0
  5 17  1  0
  5 18  1  0
  6 19  1  0
  6 20  1  0
  7 21  1  0
  7 22  1  0
M  CHG  4   1  -1   8   3   9  -1  10  -1
M  END
> <Uni-Dock RESULT> 
ENERGY=   -6.817  LOWER_BOUND=    0.000  UPPER_BOUND=    0.000
INTER + INTRA:          -6.817
INTER:                  -6.817
INTRA:                   0.000
UNBOUND:                 0.000

$$$$

     RDKit          3D

 22 12  0  0  0  0  0  0  0  0999 V2000
   46.8154    0.1963    7.6221 Cl  0  0  0  0  0  0  0  0  0  0  0  0
   46.7674   -0.1352    7.7410 O   0  0  0  0  0  0  0  0  0  0  0  0
   46.7623   -0.1630    7.7485 O   0  0  0  0  0  0  0  0  0  0  0  0
   46.7629   -0.1558    7.7448 O   0  0  0  0  0  0  0  0  0  0  0  0
   46.7654   -0.1479    7.7451 O   0  0  0  0  0  0  0  0  0  0  0  0
   46.7657   -0.1406    7.7407 O   0  0  0  0  0  0  0  0  0  0  0  0
   46.7661   -0.1433    7.7436 O   0  0  0  0  0  0  0  0  0  0  0  0
   46.8154    0.1963    7.6221 Al  0  0  0  0  0 15  0  0  0  0  0  0
   46.8154    0.1963    7.6221 Cl  0  0  0  0  0  0  0  0  0  0  0  0
   46.8154    0.1963    7.6221 Cl  0  0  0  0  0  0  0  0  0  0  0  0
   46.4640    0.1594    6.8564 H   0  0  0  0  0  0  0  0  0  0  0  0
   47.2146    0.5646    8.2688 H   0  0  0  0  0  0  0  0  0  0  0  0
   47.2108    0.5742    8.2537 H   0  0  0  0  0  0  0  0  0  0  0  0
   46.4730    0.1776    6.8640 H   0  0  0  0  0  0  0  0  0  0  0  0
   47.2106    0.5703    8.2558 H   0  0  0  0  0  0  0  0  0  0  0  0
   46.4726    0.1743    6.8655 H   0  0  0  0  0  0  0  0  0  0  0  0
   47.2105    0.5680    8.2571 H   0  0  0  0  0  0  0  0  0  0  0  0
   46.4703    0.1688    6.8640 H   0  0  0  0  0  0  0  0  0  0  0  0
   47.2169    0.5674    8.2719 H   0  0  0  0  0  0  0  0  0  0  0  0
   46.4636    0.1621    6.8535 H   0  0  0  0  0  0  0  0  0  0  0  0
   46.4662    0.1644    6.8578 H   0  0  0  0  0  0  0  0  0  0  0  0
   47.2138    0.5677    8.2648 H   0  0  0  0  0  0  0  0  0  0  0  0
  2 11  1  0
  2 12  1  0
  3 13  1  0
  3 14  1  0
  4 15  1  0
  4 16  1  0
  5 17  1  0
  5 18  1  0
  6 19  1  0
  6 20  1  0
  7 21  1  0
  7 22  1  0
M  CHG  4   1  -1   8   3   9  -1  10  -1
M  END
> <Uni-Dock RESULT> 
ENERGY=   -6.739  LOWER_BOUND=    9.035  UPPER_BOUND=    9.037
INTER + INTRA:          -6.739
INTER:                  -6.739
INTRA:                   0.000
UNBOUND:                 0.000

$$$$

     RDKit          3D

 22 12  0  0  0  0  0  0  0  0999 V2000
   48.0485    2.2023    5.9091 Cl  0  0  0  0  0  0  0  0  0  0  0  0
   48.2472    1.9533    5.7515 O   0  0  0  0  0  0  0  0  0  0  0  0
   48.2630    1.9312    5.7406 O   0  0  0  0  0  0  0  0  0  0  0  0
   48.2584    1.9361    5.7450 O   0  0  0  0  0  0  0  0  0  0  0  0
   48.2546    1.9435    5.7459 O   0  0  0  0  0  0  0  0  0  0  0  0
   48.2497    1.9482    5.7510 O   0  0  0  0  0  0  0  0  0  0  0  0
   48.2519    1.9470    5.7479 O   0  0  0  0  0  0  0  0  0  0  0  0
   48.0485    2.2023    5.9091 Al  0  0  0  0  0 15  0  0  0  0  0  0
   48.0485    2.2023    5.9091 Cl  0  0  0  0  0  0  0  0  0  0  0  0
   48.0485    2.2023    5.9091 Cl  0  0  0  0  0  0  0  0  0  0  0  0
   47.8200    1.8167    6.6234 H   0  0  0  0  0  0  0  0  0  0  0  0
   48.0784    2.8368    5.3525 H   0  0  0  0  0  0  0  0  0  0  0  0
   48.0689    2.8386    5.3681 H   0  0  0  0  0  0  0  0  0  0  0  0
   47.8136    1.8369    6.6187 H   0  0  0  0  0  0  0  0  0  0  0  0
   48.0715    2.8360    5.3655 H   0  0  0  0  0  0  0  0  0  0  0  0
   47.8157    1.8345    6.6169 H   0  0  0  0  0  0  0  0  0  0  0  0
   48.0730    2.8345    5.3640 H   0  0  0  0  0  0  0  0  0  0  0  0
   47.8179    1.8288    6.6175 H   0  0  0  0  0  0  0  0  0  0  0  0
   48.0781    2.8408    5.3500 H   0  0  0  0  0  0  0  0  0  0  0  0
   47.8178    1.8178    6.6265 H   0  0  0  0  0  0  0  0  0  0  0  0
   47.8180    1.8219    6.6228 H   0  0  0  0  0  0  0  0  0  0  0  0
   48.0757    2.8378    5.3567 H   0  0  0  0  0  0  0  0  0  0  0  0
  2 11  1  0
  2 12  1  0
  3 13  1  0
  3 14  1  0
  4 15  1  0
  4 16  1  0
  5 17  1  0
  5 18  1  0
  6 19  1  0
  6 20  1  0
  7 21  1  0
  7 22  1  0
M  CHG  4   1  -1   8   3   9  -1  10  -1
M  END
> <Uni-Dock RESULT> 
ENERGY=   -6.023  LOWER_BOUND=    9.538  UPPER_BOUND=    9.539
INTER + INTRA:          -6.023
INTER:                  -6.023
INTRA:                   0.000
UNBOUND:                 0.000

$$$$

     RDKit          3D

 22 12  0  0  0  0  0  0  0  0999 V2000
   47.7078    1.4968    6.9458 Cl  0  0  0  0  0  0  0  0  0  0  0  0
   48.0396    1.5303    7.0687 O   0  0  0  0  0  0  0  0  0  0  0  0
   48.0676    1.5333    7.0763 O   0  0  0  0  0  0  0  0  0  0  0  0
   48.0606    1.5326    7.0724 O   0  0  0  0  0  0  0  0  0  0  0  0
   48.0523    1.5316    7.0729 O   0  0  0  0  0  0  0  0  0  0  0  0
   48.0452    1.5310    7.0683 O   0  0  0  0  0  0  0  0  0  0  0  0
   48.0477    1.5312    7.0713 O   0  0  0  0  0  0  0  0  0  0  0  0
   47.7078    1.4968    6.9458 Al  0  0  0  0  0 15  0  0  0  0  0  0
   47.7078    1.4968    6.9458 Cl  0  0  0  0  0  0  0  0  0  0  0  0
   47.7078    1.4968    6.9458 Cl  0  0  0  0  0  0  0  0  0  0  0  0
   47.8242    1.5513    6.1124 H   0  0  0  0  0  0  0  0  0  0  0  0
   47.2596    1.4089    7.6562 H   0  0  0  0  0  0  0  0  0  0  0  0
   47.2512    1.4087    7.6400 H   0  0  0  0  0  0  0  0  0  0  0  0
   47.8045    1.5485    6.1210 H   0  0  0  0  0  0  0  0  0  0  0  0
   47.2551    1.4091    7.6423 H   0  0  0  0  0  0  0  0  0  0  0  0
   47.8078    1.5488    6.1226 H   0  0  0  0  0  0  0  0  0  0  0  0
   47.2574    1.4093    7.6436 H   0  0  0  0  0  0  0  0  0  0  0  0
   47.8136    1.5496    6.1208 H   0  0  0  0  0  0  0  0  0  0  0  0
   47.2564    1.4084    7.6597 H   0  0  0  0  0  0  0  0  0  0  0  0
   47.8217    1.5511    6.1093 H   0  0  0  0  0  0  0  0  0  0  0  0
   47.8188    1.5506    6.1140 H   0  0  0  0  0  0  0  0  0  0  0  0
   47.2568    1.4088    7.6520 H   0  0  0  0  0  0  0  0  0  0  0  0
  2 11  1  0
  2 12  1  0
  3 13  1  0
  3 14  1  0
  4 15  1  0
  4 16  1  0
  5 17  1  0
  5 18  1  0
  6 19  1  0
  6 20  1  0
  7 21  1  0
  7 22  1  0
M  CHG  4   1  -1   8   3   9  -1  10  -1
M  END
> <Uni-Dock RESULT> 
ENERGY=   -6.009  LOWER_BOUND=    9.487  UPPER_BOUND=    9.488
INTER + INTRA:          -6.009
INTER:                  -6.009
INTRA:                   0.000
UNBOUND:                 0.000

$$$$

     RDKit          3D

 22 12  0  0  0  0  0  0  0  0999 V2000
   40.3670   12.3346   15.6814 Cl  0  0  0  0  0  0  0  0  0  0  0  0
   40.6025   12.1222   15.8419 O   0  0  0  0  0  0  0  0  0  0  0  0
   40.6201   12.1028   15.8548 O   0  0  0  0  0  0  0  0  0  0  0  0
   40.6141   12.1067   15.8511 O   0  0  0  0  0  0  0  0  0  0  0  0
   40.6111   12.1137   15.8479 O   0  0  0  0  0  0  0  0  0  0  0  0
   40.6045   12.1173   15.8440 O   0  0  0  0  0  0  0  0  0  0  0  0
   40.6080   12.1168   15.8457 O   0  0  0  0  0  0  0  0  0  0  0  0
   40.3670   12.3346   15.6814 Al  0  0  0  0  0 15  0  0  0  0  0  0
   40.3670   12.3346   15.6814 Cl  0  0  0  0  0  0  0  0  0  0  0  0
   40.3670   12.3346   15.6814 Cl  0  0  0  0  0  0  0  0  0  0  0  0
   39.7309   11.8035   15.5255 H   0  0  0  0  0  0  0  0  0  0  0  0
   40.7677   13.0781   15.6768 H   0  0  0  0  0  0  0  0  0  0  0  0
   40.7510   13.0766   15.6696 H   0  0  0  0  0  0  0  0  0  0  0  0
   39.7300   11.8244   15.5198 H   0  0  0  0  0  0  0  0  0  0  0  0
   40.7544   13.0746   15.6717 H   0  0  0  0  0  0  0  0  0  0  0  0
   39.7327   11.8224   15.5215 H   0  0  0  0  0  0  0  0  0  0  0  0
   40.7564   13.0734   15.6729 H   0  0  0  0  0  0  0  0  0  0  0  0
   39.7336   11.8167   15.5234 H   0  0  0  0  0  0  0  0  0  0  0  0
   40.7692   13.0826   15.6764 H   0  0  0  0  0  0  0  0  0  0  0  0
   39.7274   11.8039   15.5237 H   0  0  0  0  0  0  0  0  0  0  0  0
   39.7301   11.8088   15.5237 H   0  0  0  0  0  0  0  0  0  0  0  0
   40.7631   13.0782   15.6747 H   0  0  0  0  0  0  0  0  0  0  0  0
  2 11  1  0
  2 12  1  0
  3 13  1  0
  3 14  1  0
  4 15  1  0
  4 16  1  0
  5 17  1  0
  5 18  1  0
  6 19  1  0
  6 20  1  0
  7 21  1  0
  7 22  1  0
M  CHG  4   1  -1   8   3   9  -1  10  -1
M  END
> <Uni-Dock RESULT> 
ENERGY=   -5.545  LOWER_BOUND=   13.353  UPPER_BOUND=   13.353
INTER + INTRA:          -5.545
INTER:                  -5.545
INTRA:                   0.000
UNBOUND:                 0.000

$$$$

     RDKit          3D

 22 12  0  0  0  0  0  0  0  0999 V2000
   46.7463    3.9206    7.0925 Cl  0  0  0  0  0  0  0  0  0  0  0  0
   46.8671    4.2228    7.2352 O   0  0  0  0  0  0  0  0  0  0  0  0
   46.8782    4.2462    7.2488 O   0  0  0  0  0  0  0  0  0  0  0  0
   46.8760    4.2388    7.2464 O   0  0  0  0  0  0  0  0  0  0  0  0
   46.8719    4.2340    7.2410 O   0  0  0  0  0  0  0  0  0  0  0  0
   46.8700    4.2260    7.2390 O   0  0  0  0  0  0  0  0  0  0  0  0
   46.8702    4.2299    7.2389 O   0  0  0  0  0  0  0  0  0  0  0  0
   46.7463    3.9206    7.0925 Al  0  0  0  0  0 15  0  0  0  0  0  0
   46.7463    3.9206    7.0925 Cl  0  0  0  0  0  0  0  0  0  0  0  0
   46.7463    3.9206    7.0925 Cl  0  0  0  0  0  0  0  0  0  0  0  0
   47.0659    3.3409    7.6148 H   0  0  0  0  0  0  0  0  0  0  0  0
   46.3058    4.1980    6.4274 H   0  0  0  0  0  0  0  0  0  0  0  0
   46.3069    4.1801    6.4309 H   0  0  0  0  0  0  0  0  0  0  0  0
   47.0537    3.3354    7.5977 H   0  0  0  0  0  0  0  0  0  0  0  0
   46.3080    4.1843    6.4320 H   0  0  0  0  0  0  0  0  0  0  0  0
   47.0548    3.3388    7.5990 H   0  0  0  0  0  0  0  0  0  0  0  0
   46.3087    4.1867    6.4328 H   0  0  0  0  0  0  0  0  0  0  0  0
   47.0582    3.3410    7.6036 H   0  0  0  0  0  0  0  0  0  0  0  0
   46.3031    4.1988    6.4235 H   0  0  0  0  0  0  0  0  0  0  0  0
   47.0657    3.3370    7.6149 H   0  0  0  0  0  0  0  0  0  0  0  0
   47.0628    3.3388    7.6106 H   0  0  0  0  0  0  0  0  0  0  0  0
   46.3058    4.1929    6.4279 H   0  0  0  0  0  0  0  0  0  0  0  0
  2 11  1  0
  2 12  1  0
  3 13  1  0
  3 14  1  0
  4 15  1  0
  4 16  1  0
  5 17  1  0
  5 18  1  0
  6 19  1  0
  6 20  1  0
  7 21  1  0
  7 22  1  0
M  CHG  4   1  -1   8   3   9  -1  10  -1
M  END
> <Uni-Dock RESULT> 
ENERGY=   -5.138  LOWER_BOUND=    8.208  UPPER_BOUND=    8.209
INTER + INTRA:          -5.138
INTER:                  -5.138
INTRA:                   0.000
UNBOUND:                 0.000

$$$$

     RDKit          3D

 22 12  0  0  0  0  0  0  0  0999 V2000
   42.3511    5.6828   11.8394 Cl  0  0  0  0  0  0  0  0  0  0  0  0
   42.0590    5.8720   11.7672 O   0  0  0  0  0  0  0  0  0  0  0  0
   42.0363    5.8898   11.7621 O   0  0  0  0  0  0  0  0  0  0  0  0
   42.0434    5.8864   11.7641 O   0  0  0  0  0  0  0  0  0  0  0  0
   42.0482    5.8797   11.7647 O   0  0  0  0  0  0  0  0  0  0  0  0
   42.0558    5.8768   11.7669 O   0  0  0  0  0  0  0  0  0  0  0  0
   42.0521    5.8769   11.7656 O   0  0  0  0  0  0  0  0  0  0  0  0
   42.3511    5.6828   11.8394 Al  0  0  0  0  0 15  0  0  0  0  0  0
   42.3511    5.6828   11.8394 Cl  0  0  0  0  0  0  0  0  0  0  0  0
   42.3511    5.6828   11.8394 Cl  0  0  0  0  0  0  0  0  0  0  0  0
   42.8784    6.2769   12.1223 H   0  0  0  0  0  0  0  0  0  0  0  0
   42.1158    4.8995   11.6288 H   0  0  0  0  0  0  0  0  0  0  0  0
   42.1326    4.9026   11.6353 H   0  0  0  0  0  0  0  0  0  0  0  0
   42.8843    6.2561   12.1210 H   0  0  0  0  0  0  0  0  0  0  0  0
   42.1286    4.9043   11.6341 H   0  0  0  0  0  0  0  0  0  0  0  0
   42.8811    6.2578   12.1201 H   0  0  0  0  0  0  0  0  0  0  0  0
   42.1263    4.9053   11.6335 H   0  0  0  0  0  0  0  0  0  0  0  0
   42.8788    6.2635   12.1202 H   0  0  0  0  0  0  0  0  0  0  0  0
   42.1152    4.8948   11.6279 H   0  0  0  0  0  0  0  0  0  0  0  0
   42.8821    6.2768   12.1236 H   0  0  0  0  0  0  0  0  0  0  0  0
   42.8805    6.2717   12.1222 H   0  0  0  0  0  0  0  0  0  0  0  0
   42.1205    4.8998   11.6306 H   0  0  0  0  0  0  0  0  0  0  0  0
  2 11  1  0
  2 12  1  0
  3 13  1  0
  3 14  1  0
  4 15  1  0
  4 16  1  0
  5 17  1  0
  5 18  1  0
  6 19  1  0
  6 20  1  0
  7 21  1  0
  7 22  1  0
M  CHG  4   1  -1   8   3   9  -1  10  -1
M  END
> <Uni-Dock RESULT> 
ENERGY=   -5.027  LOWER_BOUND=    7.327  UPPER_BOUND=    7.328
INTER + INTRA:          -5.027
INTER:                  -5.027
INTRA:                   0.000
UNBOUND:                 0.000

$$$$

     RDKit          3D

 22 12  0  0  0  0  0  0  0  0999 V2000
   40.7937    1.8192   22.3159 Cl  0  0  0  0  0  0  0  0  0  0  0  0
   40.8024    1.8943   21.9686 O   0  0  0  0  0  0  0  0  0  0  0  0
   40.8058    1.9004   21.9403 O   0  0  0  0  0  0  0  0  0  0  0  0
   40.8068    1.8987   21.9481 O   0  0  0  0  0  0  0  0  0  0  0  0
   40.8033    1.8971   21.9555 O   0  0  0  0  0  0  0  0  0  0  0  0
   40.8050    1.8954   21.9636 O   0  0  0  0  0  0  0  0  0  0  0  0
   40.8030    1.8961   21.9602 O   0  0  0  0  0  0  0  0  0  0  0  0
   40.7937    1.8192   22.3159 Al  0  0  0  0  0 15  0  0  0  0  0  0
   40.7937    1.8192   22.3159 Cl  0  0  0  0  0  0  0  0  0  0  0  0
   40.7937    1.8192   22.3159 Cl  0  0  0  0  0  0  0  0  0  0  0  0
   41.6142    1.7863   22.5080 H   0  0  0  0  0  0  0  0  0  0  0  0
   39.9646    1.7770   22.4711 H   0  0  0  0  0  0  0  0  0  0  0  0
   39.9766    1.7742   22.4846 H   0  0  0  0  0  0  0  0  0  0  0  0
   41.5988    1.7829   22.5229 H   0  0  0  0  0  0  0  0  0  0  0  0
   39.9759    1.7752   22.4803 H   0  0  0  0  0  0  0  0  0  0  0  0
   41.5985    1.7837   22.5192 H   0  0  0  0  0  0  0  0  0  0  0  0
   39.9756    1.7757   22.4777 H   0  0  0  0  0  0  0  0  0  0  0  0
   41.6023    1.7847   22.5145 H   0  0  0  0  0  0  0  0  0  0  0  0
   39.9602    1.7766   22.4728 H   0  0  0  0  0  0  0  0  0  0  0  0
   41.6161    1.7856   22.5113 H   0  0  0  0  0  0  0  0  0  0  0  0
   41.6107    1.7853   22.5123 H   0  0  0  0  0  0  0  0  0  0  0  0
   39.9675    1.7762   22.4752 H   0  0  0  0  0  0  0  0  0  0  0  0
  2 11  1  0
  2 12  1  0
  3 13  1  0
  3 14  1  0
  4 15  1  0
  4 16  1  0
  5 17  1  0
  5 18  1  0
  6 19  1  0
  6 20  1  0
  7 21  1  0
  7 22  1  0
M  CHG  4   1  -1   8   3   9  -1  10  -1
M  END
> <Uni-Dock RESULT> 
ENERGY=   -4.990  LOWER_BOUND=   16.641  UPPER_BOUND=   16.646
INTER + INTRA:          -4.990
INTER:                  -4.990
INTRA:                   0.000
UNBOUND:                 0.000

$$$$

     RDKit          3D

 22 12  0  0  0  0  0  0  0  0999 V2000
   47.1147    3.0178   17.6072 Cl  0  0  0  0  0  0  0  0  0  0  0  0
   46.8096    2.8356   17.6041 O   0  0  0  0  0  0  0  0  0  0  0  0
   46.7859    2.8185   17.6050 O   0  0  0  0  0  0  0  0  0  0  0  0
   46.7933    2.8217   17.6055 O   0  0  0  0  0  0  0  0  0  0  0  0
   46.7983    2.8282   17.6042 O   0  0  0  0  0  0  0  0  0  0  0  0
   46.8063    2.8310   17.6051 O   0  0  0  0  0  0  0  0  0  0  0  0
   46.8024    2.8309   17.6042 O   0  0  0  0  0  0  0  0  0  0  0  0
   47.1147    3.0178   17.6072 Al  0  0  0  0  0 15  0  0  0  0  0  0
   47.1147    3.0178   17.6072 Cl  0  0  0  0  0  0  0  0  0  0  0  0
   47.1147    3.0178   17.6072 Cl  0  0  0  0  0  0  0  0  0  0  0  0
   47.6483    2.4593   17.9455 H   0  0  0  0  0  0  0  0  0  0  0  0
   46.8863    3.7586   17.2720 H   0  0  0  0  0  0  0  0  0  0  0  0
   46.9035    3.7558   17.2772 H   0  0  0  0  0  0  0  0  0  0  0  0
   47.6547    2.4791   17.9395 H   0  0  0  0  0  0  0  0  0  0  0  0
   46.8994    3.7542   17.2768 H   0  0  0  0  0  0  0  0  0  0  0  0
   47.6514    2.4775   17.9393 H   0  0  0  0  0  0  0  0  0  0  0  0
   46.8970    3.7532   17.2766 H   0  0  0  0  0  0  0  0  0  0  0  0
   47.6489    2.4721   17.9408 H   0  0  0  0  0  0  0  0  0  0  0  0
   46.8858    3.7630   17.2702 H   0  0  0  0  0  0  0  0  0  0  0  0
   47.6521    2.4595   17.9464 H   0  0  0  0  0  0  0  0  0  0  0  0
   47.6506    2.4643   17.9442 H   0  0  0  0  0  0  0  0  0  0  0  0
   46.8912    3.7584   17.2733 H   0  0  0  0  0  0  0  0  0  0  0  0
  2 11  1  0
  2 12  1  0
  3 13  1  0
  3 14  1  0
  4 15  1  0
  4 16  1  0
  5 17  1  0
  5 18  1  0
  6 19  1  0
  6 20  1  0
  7 21  1  0
  7 22  1  0
M  CHG  4   1  -1   8   3   9  -1  10  -1
M  END
> <Uni-Dock RESULT> 
ENERGY=   -4.698  LOWER_BOUND=   14.466  UPPER_BOUND=   14.469
INTER + INTRA:          -4.698
INTER:                  -4.698
INTRA:                   0.000
UNBOUND:                 0.000

$$$$
