
     RDKit          3D

 95100  0  0  0  0  0  0  0  0999 V2000
   49.0376    8.3456   13.1511 O   0  0  0  0  0  0  0  0  0  0  0  0
   54.1917    8.4479   14.1453 N   0  0  0  0  0  0  0  0  0  0  0  0
   53.6888    8.9930   13.0034 C   0  0  0  0  0  0  0  0  0  0  0  0
   52.3788    9.0611   12.5659 C   0  0  0  0  0  0  0  0  0  0  0  0
   51.4124    8.4872   13.4172 N   0  0  0  0  0  0  0  0  0  0  0  0
   51.8656    7.9108   14.5878 C   0  0  0  0  0  0  0  0  0  0  0  0
   53.2771    7.9166   14.9203 C   0  0  0  0  0  0  0  0  0  0  0  0
   52.3491    9.7180   11.3252 C   0  0  0  0  0  0  0  0  0  0  0  0
   53.6614   10.0417   11.0295 C   0  0  0  0  0  0  0  0  0  0  0  0
   54.4651    9.5973   12.0554 N   0  0  0  0  0  0  0  0  0  0  0  0
   50.8938    7.3840   15.2961 N   0  0  0  0  0  0  0  0  0  0  0  0
   49.7652    7.6307   14.5579 C   0  0  0  0  0  0  0  0  0  0  0  0
   50.0409    8.3292   13.3877 C   0  0  0  0  0  0  0  0  0  0  0  0
   49.1258    8.7970   12.2913 C   0  0  2  0  0  0  0  0  0  0  0  0
   48.0314    9.7995   12.7222 C   0  0  1  0  0  0  0  0  0  0  0  0
   46.8870    8.9078   13.2126 C   0  0  0  0  0  0  0  0  0  0  0  0
   47.0363    7.6624   12.4780 N   0  0  0  0  0  0  0  0  0  0  0  0
   48.2857    7.6366   11.7261 C   0  0  0  0  0  0  0  0  0  0  0  0
   48.4028   10.8922   13.7267 C   0  0  0  0  0  0  0  0  0  0  0  0
   49.4379   11.8662   13.1864 C   0  0  0  0  0  0  0  0  0  0  0  0
   45.9971    6.7702   12.4197 C   0  0  0  0  0  0  0  0  0  0  0  0
   46.2265    5.6614   11.6504 N   0  0  0  0  0  0  0  0  0  0  0  0
   44.9260    6.9569   12.9876 O   0  0  0  0  0  0  0  0  0  0  0  0
   45.2219    4.5967   11.6109 C   0  0  0  0  0  0  0  0  0  0  0  0
   45.2214    3.6569   12.8195 C   0  0  0  0  0  0  0  0  0  0  0  0
   44.8751    4.2637   13.9706 F   0  0  0  0  0  0  0  0  0  0  0  0
   44.3613    2.6307   12.6193 F   0  0  0  0  0  0  0  0  0  0  0  0
   46.4536    3.1161   12.9911 F   0  0  0  0  0  0  0  0  0  0  0  0
   54.0886    9.7932   11.4433 N   0  0  0  0  0  0  0  0  0  0  0  0
   53.2746   10.5203   12.2580 C   0  0  0  0  0  0  0  0  0  0  0  0
   51.9713   10.2704   12.6430 C   0  0  0  0  0  0  0  0  0  0  0  0
   51.3891    9.0992   12.1236 N   0  0  0  0  0  0  0  0  0  0  0  0
   52.1677    8.3142   11.2981 C   0  0  0  0  0  0  0  0  0  0  0  0
   53.5281    8.7024   10.9778 C   0  0  0  0  0  0  0  0  0  0  0  0
   51.5435   11.2919   13.5048 C   0  0  0  0  0  0  0  0  0  0  0  0
   52.6135   12.1617   13.6257 C   0  0  0  0  0  0  0  0  0  0  0  0
   53.6570   11.6842   12.8633 N   0  0  0  0  0  0  0  0  0  0  0  0
   51.5324    7.2413   10.8855 N   0  0  0  0  0  0  0  0  0  0  0  0
   50.2938    7.3351   11.4687 C   0  0  0  0  0  0  0  0  0  0  0  0
   50.1590    8.4869   12.2340 C   0  0  0  0  0  0  0  0  0  0  0  0
   48.9950    9.0155   13.0234 C   0  0  2  0  0  0  0  0  0  0  0  0
   48.8083    8.3520   14.4062 C   0  0  1  0  0  0  0  0  0  0  0  0
   47.9922    7.0943   14.0896 C   0  0  0  0  0  0  0  0  0  0  0  0
   47.2095    7.4405   12.9133 N   0  0  0  0  0  0  0  0  0  0  0  0
   47.6436    8.7128   12.3483 C   0  0  0  0  0  0  0  0  0  0  0  0
   50.0801    8.0859   15.2150 C   0  0  0  0  0  0  0  0  0  0  0  0
   49.7816    7.5416   16.6052 C   0  0  0  0  0  0  0  0  0  0  0  0
   46.1235    6.6830   12.5606 C   0  0  0  0  0  0  0  0  0  0  0  0
   45.4209    7.1429   11.4792 N   0  0  0  0  0  0  0  0  0  0  0  0
   45.7797    5.6812   13.1792 O   0  0  0  0  0  0  0  0  0  0  0  0
   44.3099    6.3454   10.9536 C   0  0  0  0  0  0  0  0  0  0  0  0
   44.7206    5.1639   10.0707 C   0  0  0  0  0  0  0  0  0  0  0  0
   45.3983    4.2090   10.7340 F   0  0  0  0  0  0  0  0  0  0  0  0
   43.6284    4.5865    9.5165 F   0  0  0  0  0  0  0  0  0  0  0  0
   45.5048    5.5943    9.0506 F   0  0  0  0  0  0  0  0  0  0  0  0
   49.8887    8.4589   12.7017 H   0  0  0  0  0  0  0  0  0  0  0  0
   48.5189    7.8040   12.5377 H   0  0  0  0  0  0  0  0  0  0  0  0
   53.5870    7.4484   15.8683 H   0  0  0  0  0  0  0  0  0  0  0  0
   51.5075    9.9559   10.6917 H   0  0  0  0  0  0  0  0  0  0  0  0
   54.0952   10.5519   10.1792 H   0  0  0  0  0  0  0  0  0  0  0  0
   55.4696    9.6938   12.1169 H   0  0  0  0  0  0  0  0  0  0  0  0
   48.7987    7.2861   14.9082 H   0  0  0  0  0  0  0  0  0  0  0  0
   49.7080    9.2257   11.4764 H   0  0  0  0  0  0  0  0  0  0  0  0
   47.6755   10.2955   11.8056 H   0  0  0  0  0  0  0  0  0  0  0  0
   46.9521    8.6829   14.2825 H   0  0  0  0  0  0  0  0  0  0  0  0
   45.9076    9.3574   13.0153 H   0  0  0  0  0  0  0  0  0  0  0  0
   48.0315    7.8163   10.6746 H   0  0  0  0  0  0  0  0  0  0  0  0
   48.7757    6.6611   11.8055 H   0  0  0  0  0  0  0  0  0  0  0  0
   48.7638   10.4606   14.6666 H   0  0  0  0  0  0  0  0  0  0  0  0
   47.4982   11.4598   13.9798 H   0  0  0  0  0  0  0  0  0  0  0  0
   50.3953   11.3744   13.0042 H   0  0  0  0  0  0  0  0  0  0  0  0
   49.6102   12.6710   13.9084 H   0  0  0  0  0  0  0  0  0  0  0  0
   49.0993   12.3202   12.2497 H   0  0  0  0  0  0  0  0  0  0  0  0
   47.1876    5.3593   11.6018 H   0  0  0  0  0  0  0  0  0  0  0  0
   44.2305    5.0479   11.4949 H   0  0  0  0  0  0  0  0  0  0  0  0
   45.4328    4.0153   10.7075 H   0  0  0  0  0  0  0  0  0  0  0  0
   54.1099    8.0467   10.3101 H   0  0  0  0  0  0  0  0  0  0  0  0
   50.5932   11.4138   14.0042 H   0  0  0  0  0  0  0  0  0  0  0  0
   52.7275   13.0776   14.1906 H   0  0  0  0  0  0  0  0  0  0  0  0
   54.5687   12.1082   12.7608 H   0  0  0  0  0  0  0  0  0  0  0  0
   49.5502    6.5635   11.3027 H   0  0  0  0  0  0  0  0  0  0  0  0
   49.0840   10.1002   13.1194 H   0  0  0  0  0  0  0  0  0  0  0  0
   48.1640    9.0226   14.9948 H   0  0  0  0  0  0  0  0  0  0  0  0
   48.6244    6.2367   13.8340 H   0  0  0  0  0  0  0  0  0  0  0  0
   47.3360    6.8085   14.9185 H   0  0  0  0  0  0  0  0  0  0  0  0
   46.8923    9.4601   12.6295 H   0  0  0  0  0  0  0  0  0  0  0  0
   47.6974    8.6655   11.2567 H   0  0  0  0  0  0  0  0  0  0  0  0
   50.6436    9.0190   15.3236 H   0  0  0  0  0  0  0  0  0  0  0  0
   50.7308    7.3728   14.6969 H   0  0  0  0  0  0  0  0  0  0  0  0
   50.7124    7.4122   17.1662 H   0  0  0  0  0  0  0  0  0  0  0  0
   49.2839    6.5687   16.5551 H   0  0  0  0  0  0  0  0  0  0  0  0
   49.1415    8.2291   17.1668 H   0  0  0  0  0  0  0  0  0  0  0  0
   45.9555    7.6553   10.7955 H   0  0  0  0  0  0  0  0  0  0  0  0
   43.6943    7.0344   10.3660 H   0  0  0  0  0  0  0  0  0  0  0  0
   43.7020    5.9861   11.7912 H   0  0  0  0  0  0  0  0  0  0  0  0
  2  3  1  0
  4  5  1  0
  6  7  1  0
  7  2  2  0
  3 10  1  0
  3  4  2  0
  4  8  1  0
  8  9  2  0
  9 10  1  0
  5 13  1  0
  5  6  1  0
  6 11  2  0
 11 12  1  0
 12 13  2  0
 14 13  1  0
 14 15  1  0
 14 18  1  0
 15 16  1  0
 16 17  1  0
 17 18  1  0
 15 19  1  0
 19 20  1  0
 17 21  1  0
 21 22  1  0
 21 23  2  0
 22 24  1  0
 24 25  1  0
 25 26  1  0
 25 27  1  0
 25 28  1  0
 29 30  1  0
 31 32  1  0
 33 34  1  0
 34 29  2  0
 30 37  1  0
 30 31  2  0
 31 35  1  0
 35 36  2  0
 36 37  1  0
 32 40  1  0
 32 33  1  0
 33 38  2  0
 38 39  1  0
 39 40  2  0
 41 40  1  0
 41 42  1  0
 41 45  1  0
 42 43  1  0
 43 44  1  0
 44 45  1  0
 42 46  1  0
 46 47  1  0
 44 48  1  0
 48 49  1  0
 48 50  2  0
 49 51  1  0
 51 52  1  0
 52 53  1  0
 52 54  1  0
 52 55  1  0
  1 56  1  0
  1 57  1  0
  7 58  1  0
  8 59  1  0
  9 60  1  0
 10 61  1  0
 12 62  1  0
 14 63  1  1
 15 64  1  1
 16 65  1  0
 16 66  1  0
 18 67  1  0
 18 68  1  0
 19 69  1  0
 19 70  1  0
 20 71  1  0
 20 72  1  0
 20 73  1  0
 22 74  1  0
 24 75  1  0
 24 76  1  0
 34 77  1  0
 35 78  1  0
 36 79  1  0
 37 80  1  0
 39 81  1  0
 41 82  1  1
 42 83  1  1
 43 84  1  0
 43 85  1  0
 45 86  1  0
 45 87  1  0
 46 88  1  0
 46 89  1  0
 47 90  1  0
 47 91  1  0
 47 92  1  0
 49 93  1  0
 51 94  1  0
 51 95  1  0
M  END
> <Uni-Dock RESULT> 
ENERGY=   -5.696  LOWER_BOUND=    0.000  UPPER_BOUND=    0.000
INTER + INTRA:          -5.696
INTER:                  -5.696
INTRA:                   0.000
UNBOUND:                 0.000

$$$$

     RDKit          3D

 95100  0  0  0  0  0  0  0  0999 V2000
   47.9246    8.9447   12.7159 O   0  0  0  0  0  0  0  0  0  0  0  0
   50.8395   12.9197   10.9084 N   0  0  0  0  0  0  0  0  0  0  0  0
   49.7716   13.1488   11.7215 C   0  0  0  0  0  0  0  0  0  0  0  0
   48.8910   12.2466   12.2897 C   0  0  0  0  0  0  0  0  0  0  0  0
   49.1217   10.8877   11.9930 N   0  0  0  0  0  0  0  0  0  0  0  0
   50.1877   10.5949   11.1649 C   0  0  0  0  0  0  0  0  0  0  0  0
   51.0336   11.6505   10.6423 C   0  0  0  0  0  0  0  0  0  0  0  0
   47.9486   12.9533   13.0539 C   0  0  0  0  0  0  0  0  0  0  0  0
   48.2808   14.2911   12.9338 C   0  0  0  0  0  0  0  0  0  0  0  0
   49.3889   14.3972   12.1235 N   0  0  0  0  0  0  0  0  0  0  0  0
   50.3018    9.3082   10.9303 N   0  0  0  0  0  0  0  0  0  0  0  0
   49.2714    8.7432   11.6364 C   0  0  0  0  0  0  0  0  0  0  0  0
   48.5209    9.6895   12.3253 C   0  0  0  0  0  0  0  0  0  0  0  0
   47.3129    9.5262   13.2042 C   0  0  2  0  0  0  0  0  0  0  0  0
   47.5228    8.6613   14.4676 C   0  0  1  0  0  0  0  0  0  0  0  0
   47.2839    7.2299   13.9783 C   0  0  0  0  0  0  0  0  0  0  0  0
   46.3749    7.3620   12.8516 N   0  0  0  0  0  0  0  0  0  0  0  0
   46.1899    8.7602   12.4805 C   0  0  0  0  0  0  0  0  0  0  0  0
   48.8347    8.8117   15.2404 C   0  0  0  0  0  0  0  0  0  0  0  0
   49.0079   10.1938   15.8499 C   0  0  0  0  0  0  0  0  0  0  0  0
   45.6912    6.2677   12.3884 C   0  0  0  0  0  0  0  0  0  0  0  0
   44.8176    6.5196   11.3652 N   0  0  0  0  0  0  0  0  0  0  0  0
   45.8239    5.1468   12.8687 O   0  0  0  0  0  0  0  0  0  0  0  0
   44.1201    5.4011   10.7272 C   0  0  0  0  0  0  0  0  0  0  0  0
   44.9503    4.6089    9.7139 C   0  0  0  0  0  0  0  0  0  0  0  0
   45.9886    3.9534   10.2666 F   0  0  0  0  0  0  0  0  0  0  0  0
   44.1768    3.6964    9.0801 F   0  0  0  0  0  0  0  0  0  0  0  0
   45.4449    5.4407    8.7632 F   0  0  0  0  0  0  0  0  0  0  0  0
   48.7503   14.4036   12.5068 N   0  0  0  0  0  0  0  0  0  0  0  0
   49.3391   13.5325   13.3724 C   0  0  0  0  0  0  0  0  0  0  0  0
   49.1082   12.1815   13.5479 C   0  0  0  0  0  0  0  0  0  0  0  0
   48.1236   11.6119   12.7194 N   0  0  0  0  0  0  0  0  0  0  0  0
   47.4966   12.4425   11.8133 C   0  0  0  0  0  0  0  0  0  0  0  0
   47.8422   13.8493   11.7394 C   0  0  0  0  0  0  0  0  0  0  0  0
   49.9642   11.6958   14.5482 C   0  0  0  0  0  0  0  0  0  0  0  0
   50.7096   12.7821   14.9725 C   0  0  0  0  0  0  0  0  0  0  0  0
   50.3200   13.8909   14.2536 N   0  0  0  0  0  0  0  0  0  0  0  0
   46.6108   11.8052   11.0825 N   0  0  0  0  0  0  0  0  0  0  0  0
   46.6680   10.5101   11.5326 C   0  0  0  0  0  0  0  0  0  0  0  0
   47.5860   10.3521   12.5636 C   0  0  0  0  0  0  0  0  0  0  0  0
   47.9655    9.1417   13.3688 C   0  0  2  0  0  0  0  0  0  0  0  0
   48.9477    8.1845   12.6572 C   0  0  1  0  0  0  0  0  0  0  0  0
   48.0293    7.3014   11.8061 C   0  0  0  0  0  0  0  0  0  0  0  0
   46.7712    7.2551   12.5350 N   0  0  0  0  0  0  0  0  0  0  0  0
   46.7642    8.2140   13.6336 C   0  0  0  0  0  0  0  0  0  0  0  0
   50.0915    8.8348   11.8754 C   0  0  0  0  0  0  0  0  0  0  0  0
   51.0670    7.8103   11.3126 C   0  0  0  0  0  0  0  0  0  0  0  0
   45.8430    6.2891   12.2472 C   0  0  0  0  0  0  0  0  0  0  0  0
   44.7291    6.2982   13.0434 N   0  0  0  0  0  0  0  0  0  0  0  0
   46.0015    5.4539   11.3630 O   0  0  0  0  0  0  0  0  0  0  0  0
   43.6280    5.3784   12.7469 C   0  0  0  0  0  0  0  0  0  0  0  0
   42.7058    5.8171   11.6060 C   0  0  0  0  0  0  0  0  0  0  0  0
   43.3141    5.8454   10.4058 F   0  0  0  0  0  0  0  0  0  0  0  0
   41.6427    4.9839   11.5112 F   0  0  0  0  0  0  0  0  0  0  0  0
   42.2182    7.0591   11.8517 F   0  0  0  0  0  0  0  0  0  0  0  0
   47.8875    9.9032   12.5776 H   0  0  0  0  0  0  0  0  0  0  0  0
   47.0417    8.6368   12.4621 H   0  0  0  0  0  0  0  0  0  0  0  0
   51.8743   11.3644    9.9900 H   0  0  0  0  0  0  0  0  0  0  0  0
   47.1204   12.5835   13.6401 H   0  0  0  0  0  0  0  0  0  0  0  0
   47.8271   15.1785   13.3559 H   0  0  0  0  0  0  0  0  0  0  0  0
   49.8594   15.2517   11.8577 H   0  0  0  0  0  0  0  0  0  0  0  0
   49.1169    7.6704   11.6107 H   0  0  0  0  0  0  0  0  0  0  0  0
   46.9277   10.5029   13.4948 H   0  0  0  0  0  0  0  0  0  0  0  0
   46.6991    8.9013   15.1580 H   0  0  0  0  0  0  0  0  0  0  0  0
   48.1989    6.7438   13.6235 H   0  0  0  0  0  0  0  0  0  0  0  0
   46.8419    6.6014   14.7593 H   0  0  0  0  0  0  0  0  0  0  0  0
   45.2059    9.0648   12.8567 H   0  0  0  0  0  0  0  0  0  0  0  0
   46.2028    8.8865   11.3933 H   0  0  0  0  0  0  0  0  0  0  0  0
   49.6975    8.5824   14.6055 H   0  0  0  0  0  0  0  0  0  0  0  0
   48.8505    8.0747   16.0536 H   0  0  0  0  0  0  0  0  0  0  0  0
   49.0946   10.9637   15.0809 H   0  0  0  0  0  0  0  0  0  0  0  0
   49.9189   10.2262   16.4563 H   0  0  0  0  0  0  0  0  0  0  0  0
   48.1624   10.4467   16.4976 H   0  0  0  0  0  0  0  0  0  0  0  0
   45.0723    7.2821   10.7561 H   0  0  0  0  0  0  0  0  0  0  0  0
   43.7458    4.7261   11.5046 H   0  0  0  0  0  0  0  0  0  0  0  0
   43.2548    5.8361   10.2166 H   0  0  0  0  0  0  0  0  0  0  0  0
   47.3111   14.4748   11.0039 H   0  0  0  0  0  0  0  0  0  0  0  0
   50.0668   10.6918   14.9340 H   0  0  0  0  0  0  0  0  0  0  0  0
   51.4871   12.8648   15.7207 H   0  0  0  0  0  0  0  0  0  0  0  0
   50.6927   14.8261   14.3437 H   0  0  0  0  0  0  0  0  0  0  0  0
   46.0350    9.7483   11.0915 H   0  0  0  0  0  0  0  0  0  0  0  0
   48.3612    9.4589   14.3366 H   0  0  0  0  0  0  0  0  0  0  0  0
   49.3881    7.5454   13.4373 H   0  0  0  0  0  0  0  0  0  0  0  0
   47.8312    7.7309   10.8178 H   0  0  0  0  0  0  0  0  0  0  0  0
   48.4344    6.2926   11.6726 H   0  0  0  0  0  0  0  0  0  0  0  0
   46.9103    7.6423   14.5575 H   0  0  0  0  0  0  0  0  0  0  0  0
   45.8070    8.7400   13.6962 H   0  0  0  0  0  0  0  0  0  0  0  0
   50.6447    9.5113   12.5358 H   0  0  0  0  0  0  0  0  0  0  0  0
   49.7051    9.4366   11.0453 H   0  0  0  0  0  0  0  0  0  0  0  0
   51.8934    8.3172   10.8047 H   0  0  0  0  0  0  0  0  0  0  0  0
   50.5811    7.1531   10.5855 H   0  0  0  0  0  0  0  0  0  0  0  0
   51.4895    7.1913   12.1101 H   0  0  0  0  0  0  0  0  0  0  0  0
   44.4627    7.1971   13.4133 H   0  0  0  0  0  0  0  0  0  0  0  0
   43.0433    5.2991   13.6693 H   0  0  0  0  0  0  0  0  0  0  0  0
   44.0408    4.3877   12.5272 H   0  0  0  0  0  0  0  0  0  0  0  0
  2  3  1  0
  4  5  1  0
  6  7  1  0
  7  2  2  0
  3 10  1  0
  3  4  2  0
  4  8  1  0
  8  9  2  0
  9 10  1  0
  5 13  1  0
  5  6  1  0
  6 11  2  0
 11 12  1  0
 12 13  2  0
 14 13  1  0
 14 15  1  0
 14 18  1  0
 15 16  1  0
 16 17  1  0
 17 18  1  0
 15 19  1  0
 19 20  1  0
 17 21  1  0
 21 22  1  0
 21 23  2  0
 22 24  1  0
 24 25  1  0
 25 26  1  0
 25 27  1  0
 25 28  1  0
 29 30  1  0
 31 32  1  0
 33 34  1  0
 34 29  2  0
 30 37  1  0
 30 31  2  0
 31 35  1  0
 35 36  2  0
 36 37  1  0
 32 40  1  0
 32 33  1  0
 33 38  2  0
 38 39  1  0
 39 40  2  0
 41 40  1  0
 41 42  1  0
 41 45  1  0
 42 43  1  0
 43 44  1  0
 44 45  1  0
 42 46  1  0
 46 47  1  0
 44 48  1  0
 48 49  1  0
 48 50  2  0
 49 51  1  0
 51 52  1  0
 52 53  1  0
 52 54  1  0
 52 55  1  0
  1 56  1  0
  1 57  1  0
  7 58  1  0
  8 59  1  0
  9 60  1  0
 10 61  1  0
 12 62  1  0
 14 63  1  1
 15 64  1  1
 16 65  1  0
 16 66  1  0
 18 67  1  0
 18 68  1  0
 19 69  1  0
 19 70  1  0
 20 71  1  0
 20 72  1  0
 20 73  1  0
 22 74  1  0
 24 75  1  0
 24 76  1  0
 34 77  1  0
 35 78  1  0
 36 79  1  0
 37 80  1  0
 39 81  1  0
 41 82  1  1
 42 83  1  1
 43 84  1  0
 43 85  1  0
 45 86  1  0
 45 87  1  0
 46 88  1  0
 46 89  1  0
 47 90  1  0
 47 91  1  0
 47 92  1  0
 49 93  1  0
 51 94  1  0
 51 95  1  0
M  END
> <Uni-Dock RESULT> 
ENERGY=   -5.637  LOWER_BOUND=    2.257  UPPER_BOUND=    3.984
INTER + INTRA:          -5.637
INTER:                  -5.637
INTRA:                   0.000
UNBOUND:                 0.000

$$$$

     RDKit          3D

 95100  0  0  0  0  0  0  0  0999 V2000
   49.3272    9.9216   17.1633 O   0  0  0  0  0  0  0  0  0  0  0  0
   51.9116   13.5089   14.3320 N   0  0  0  0  0  0  0  0  0  0  0  0
   50.5910   13.2622   14.1108 C   0  0  0  0  0  0  0  0  0  0  0  0
   49.7475   12.3658   14.7411 C   0  0  0  0  0  0  0  0  0  0  0  0
   50.3262   11.5880   15.7648 N   0  0  0  0  0  0  0  0  0  0  0  0
   51.6671   11.7891   16.0284 C   0  0  0  0  0  0  0  0  0  0  0  0
   52.4305   12.7727   15.2849 C   0  0  0  0  0  0  0  0  0  0  0  0
   48.4689   12.4683   14.1697 C   0  0  0  0  0  0  0  0  0  0  0  0
   48.5620   13.4404   13.1896 C   0  0  0  0  0  0  0  0  0  0  0  0
   49.8542   13.9153   13.1636 N   0  0  0  0  0  0  0  0  0  0  0  0
   52.1150   11.0012   16.9783 N   0  0  0  0  0  0  0  0  0  0  0  0
   51.0213   10.2618   17.3479 C   0  0  0  0  0  0  0  0  0  0  0  0
   49.8825   10.6059   16.6282 C   0  0  0  0  0  0  0  0  0  0  0  0
   48.4846   10.0580   16.6920 C   0  0  2  0  0  0  0  0  0  0  0  0
   47.7680   10.2226   18.0514 C   0  0  1  0  0  0  0  0  0  0  0  0
   48.2181    8.9997   18.8558 C   0  0  0  0  0  0  0  0  0  0  0  0
   48.5107    7.9800   17.8621 N   0  0  0  0  0  0  0  0  0  0  0  0
   48.4708    8.5287   16.5114 C   0  0  0  0  0  0  0  0  0  0  0  0
   47.9538   11.5351   18.8155 C   0  0  0  0  0  0  0  0  0  0  0  0
   47.3779   12.7350   18.0804 C   0  0  0  0  0  0  0  0  0  0  0  0
   48.6157    6.6654   18.2368 C   0  0  0  0  0  0  0  0  0  0  0  0
   48.8317    5.7850   17.2111 N   0  0  0  0  0  0  0  0  0  0  0  0
   48.4966    6.2924   19.3992 O   0  0  0  0  0  0  0  0  0  0  0  0
   49.0671    4.3725   17.5172 C   0  0  0  0  0  0  0  0  0  0  0  0
   50.4825    4.0367   17.9944 C   0  0  0  0  0  0  0  0  0  0  0  0
   50.7932    4.5893   19.1824 F   0  0  0  0  0  0  0  0  0  0  0  0
   50.6363    2.6966   18.1100 F   0  0  0  0  0  0  0  0  0  0  0  0
   51.3952    4.4656   17.0871 F   0  0  0  0  0  0  0  0  0  0  0  0
   49.1639   13.6463   13.0859 N   0  0  0  0  0  0  0  0  0  0  0  0
   48.9891   13.8968   14.4132 C   0  0  0  0  0  0  0  0  0  0  0  0
   48.9175   13.0094   15.4699 C   0  0  0  0  0  0  0  0  0  0  0  0
   49.0400   11.6469   15.1399 N   0  0  0  0  0  0  0  0  0  0  0  0
   49.2288   11.3291   13.8105 C   0  0  0  0  0  0  0  0  0  0  0  0
   49.2839   12.3711   12.8029 C   0  0  0  0  0  0  0  0  0  0  0  0
   48.7440   13.7288   16.6622 C   0  0  0  0  0  0  0  0  0  0  0  0
   48.7083   15.0642   16.3000 C   0  0  0  0  0  0  0  0  0  0  0  0
   48.8559   15.1534   14.9331 N   0  0  0  0  0  0  0  0  0  0  0  0
   49.3467   10.0352   13.6189 N   0  0  0  0  0  0  0  0  0  0  0  0
   49.2313    9.4942   14.8747 C   0  0  0  0  0  0  0  0  0  0  0  0
   49.0221   10.4640   15.8475 C   0  0  0  0  0  0  0  0  0  0  0  0
   48.8171   10.3440   17.3311 C   0  0  2  0  0  0  0  0  0  0  0  0
   50.1176   10.1419   18.1404 C   0  0  1  0  0  0  0  0  0  0  0  0
   50.3462    8.6282   18.0733 C   0  0  0  0  0  0  0  0  0  0  0  0
   49.0157    8.0521   17.9544 N   0  0  0  0  0  0  0  0  0  0  0  0
   48.0151    9.0848   17.7117 C   0  0  0  0  0  0  0  0  0  0  0  0
   51.3267   10.9772   17.7127 C   0  0  0  0  0  0  0  0  0  0  0  0
   52.5182   10.7935   18.6425 C   0  0  0  0  0  0  0  0  0  0  0  0
   48.8150    6.7217   18.2136 C   0  0  0  0  0  0  0  0  0  0  0  0
   47.5126    6.3055   18.1397 N   0  0  0  0  0  0  0  0  0  0  0  0
   49.7239    5.9571   18.5194 O   0  0  0  0  0  0  0  0  0  0  0  0
   47.2052    4.8809   18.2899 C   0  0  0  0  0  0  0  0  0  0  0  0
   47.4540    4.0287   17.0424 C   0  0  0  0  0  0  0  0  0  0  0  0
   48.7523    3.9508   16.6966 F   0  0  0  0  0  0  0  0  0  0  0  0
   47.0008    2.7673   17.2342 F   0  0  0  0  0  0  0  0  0  0  0  0
   46.7747    4.5400   15.9851 F   0  0  0  0  0  0  0  0  0  0  0  0
   49.2651   10.4083   16.3276 H   0  0  0  0  0  0  0  0  0  0  0  0
   49.0276    9.0284   16.9373 H   0  0  0  0  0  0  0  0  0  0  0  0
   53.4958   12.8987   15.5368 H   0  0  0  0  0  0  0  0  0  0  0  0
   47.5625   11.9322   14.4092 H   0  0  0  0  0  0  0  0  0  0  0  0
   47.8211   13.8386   12.5084 H   0  0  0  0  0  0  0  0  0  0  0  0
   50.2188   14.6321   12.5509 H   0  0  0  0  0  0  0  0  0  0  0  0
   51.1098    9.5067   18.1210 H   0  0  0  0  0  0  0  0  0  0  0  0
   47.8739   10.5002   15.9057 H   0  0  0  0  0  0  0  0  0  0  0  0
   46.6907   10.0970   17.8606 H   0  0  0  0  0  0  0  0  0  0  0  0
   49.1294    9.1837   19.4347 H   0  0  0  0  0  0  0  0  0  0  0  0
   47.4379    8.6557   19.5438 H   0  0  0  0  0  0  0  0  0  0  0  0
   47.5282    8.1987   16.0584 H   0  0  0  0  0  0  0  0  0  0  0  0
   49.3007    8.1510   15.9058 H   0  0  0  0  0  0  0  0  0  0  0  0
   49.0106   11.7174   19.0394 H   0  0  0  0  0  0  0  0  0  0  0  0
   47.4469   11.4524   19.7854 H   0  0  0  0  0  0  0  0  0  0  0  0
   47.9088   12.9260   17.1459 H   0  0  0  0  0  0  0  0  0  0  0  0
   47.4639   13.6331   18.7007 H   0  0  0  0  0  0  0  0  0  0  0  0
   46.3184   12.5840   17.8507 H   0  0  0  0  0  0  0  0  0  0  0  0
   49.3433    6.1541   16.4241 H   0  0  0  0  0  0  0  0  0  0  0  0
   48.3384    4.0454   18.2671 H   0  0  0  0  0  0  0  0  0  0  0  0
   48.8637    3.8245   16.5915 H   0  0  0  0  0  0  0  0  0  0  0  0
   49.4310   12.0690   11.7534 H   0  0  0  0  0  0  0  0  0  0  0  0
   48.6617   13.3648   17.6762 H   0  0  0  0  0  0  0  0  0  0  0  0
   48.5949   15.9614   16.8944 H   0  0  0  0  0  0  0  0  0  0  0  0
   48.8726   16.0027   14.3853 H   0  0  0  0  0  0  0  0  0  0  0  0
   49.2995    8.4215   15.0176 H   0  0  0  0  0  0  0  0  0  0  0  0
   48.2632   11.2137   17.6926 H   0  0  0  0  0  0  0  0  0  0  0  0
   49.8824   10.3930   19.1857 H   0  0  0  0  0  0  0  0  0  0  0  0
   50.9235    8.3293   17.1914 H   0  0  0  0  0  0  0  0  0  0  0  0
   50.8524    8.2472   18.9666 H   0  0  0  0  0  0  0  0  0  0  0  0
   47.4773    9.2364   18.6549 H   0  0  0  0  0  0  0  0  0  0  0  0
   47.2978    8.7717   16.9474 H   0  0  0  0  0  0  0  0  0  0  0  0
   51.0527   12.0377   17.7086 H   0  0  0  0  0  0  0  0  0  0  0  0
   51.6395   10.7194   16.6948 H   0  0  0  0  0  0  0  0  0  0  0  0
   53.3420   11.4433   18.3310 H   0  0  0  0  0  0  0  0  0  0  0  0
   52.8823    9.7620   18.6267 H   0  0  0  0  0  0  0  0  0  0  0  0
   52.2554   11.0517   19.6730 H   0  0  0  0  0  0  0  0  0  0  0  0
   46.9255    6.8161   17.4991 H   0  0  0  0  0  0  0  0  0  0  0  0
   46.1441    4.8266   18.5547 H   0  0  0  0  0  0  0  0  0  0  0  0
   47.7802    4.4793   19.1315 H   0  0  0  0  0  0  0  0  0  0  0  0
  2  3  1  0
  4  5  1  0
  6  7  1  0
  7  2  2  0
  3 10  1  0
  3  4  2  0
  4  8  1  0
  8  9  2  0
  9 10  1  0
  5 13  1  0
  5  6  1  0
  6 11  2  0
 11 12  1  0
 12 13  2  0
 14 13  1  0
 14 15  1  0
 14 18  1  0
 15 16  1  0
 16 17  1  0
 17 18  1  0
 15 19  1  0
 19 20  1  0
 17 21  1  0
 21 22  1  0
 21 23  2  0
 22 24  1  0
 24 25  1  0
 25 26  1  0
 25 27  1  0
 25 28  1  0
 29 30  1  0
 31 32  1  0
 33 34  1  0
 34 29  2  0
 30 37  1  0
 30 31  2  0
 31 35  1  0
 35 36  2  0
 36 37  1  0
 32 40  1  0
 32 33  1  0
 33 38  2  0
 38 39  1  0
 39 40  2  0
 41 40  1  0
 41 42  1  0
 41 45  1  0
 42 43  1  0
 43 44  1  0
 44 45  1  0
 42 46  1  0
 46 47  1  0
 44 48  1  0
 48 49  1  0
 48 50  2  0
 49 51  1  0
 51 52  1  0
 52 53  1  0
 52 54  1  0
 52 55  1  0
  1 56  1  0
  1 57  1  0
  7 58  1  0
  8 59  1  0
  9 60  1  0
 10 61  1  0
 12 62  1  0
 14 63  1  1
 15 64  1  1
 16 65  1  0
 16 66  1  0
 18 67  1  0
 18 68  1  0
 19 69  1  0
 19 70  1  0
 20 71  1  0
 20 72  1  0
 20 73  1  0
 22 74  1  0
 24 75  1  0
 24 76  1  0
 34 77  1  0
 35 78  1  0
 36 79  1  0
 37 80  1  0
 39 81  1  0
 41 82  1  1
 42 83  1  1
 43 84  1  0
 43 85  1  0
 45 86  1  0
 45 87  1  0
 46 88  1  0
 46 89  1  0
 47 90  1  0
 47 91  1  0
 47 92  1  0
 49 93  1  0
 51 94  1  0
 51 95  1  0
M  END
> <Uni-Dock RESULT> 
ENERGY=   -4.898  LOWER_BOUND=    4.262  UPPER_BOUND=    5.792
INTER + INTRA:          -4.898
INTER:                  -4.898
INTRA:                   0.000
UNBOUND:                 0.000

$$$$

     RDKit          3D

 95100  0  0  0  0  0  0  0  0999 V2000
   49.2102    9.3164   17.8855 O   0  0  0  0  0  0  0  0  0  0  0  0
   50.4657   13.5612   20.7084 N   0  0  0  0  0  0  0  0  0  0  0  0
   49.1717   13.1521   20.5985 C   0  0  0  0  0  0  0  0  0  0  0  0
   48.6468   12.0758   19.9069 C   0  0  0  0  0  0  0  0  0  0  0  0
   49.5761   11.2764   19.2103 N   0  0  0  0  0  0  0  0  0  0  0  0
   50.9046   11.6485   19.2787 C   0  0  0  0  0  0  0  0  0  0  0  0
   51.3124   12.8066   20.0504 C   0  0  0  0  0  0  0  0  0  0  0  0
   47.2544   12.0568   20.0875 C   0  0  0  0  0  0  0  0  0  0  0  0
   46.9565   13.1376   20.8983 C   0  0  0  0  0  0  0  0  0  0  0  0
   48.1280   13.7943   21.2024 N   0  0  0  0  0  0  0  0  0  0  0  0
   51.6835   10.8573   18.5782 N   0  0  0  0  0  0  0  0  0  0  0  0
   50.8277    9.9334   18.0363 C   0  0  0  0  0  0  0  0  0  0  0  0
   49.5077   10.1482   18.4170 C   0  0  0  0  0  0  0  0  0  0  0  0
   48.2544    9.4001   18.0593 C   0  0  2  0  0  0  0  0  0  0  0  0
   48.2188    7.9175   18.4943 C   0  0  1  0  0  0  0  0  0  0  0  0
   48.9133    7.1797   17.3461 C   0  0  0  0  0  0  0  0  0  0  0  0
   48.6859    8.0066   16.1724 N   0  0  0  0  0  0  0  0  0  0  0  0
   48.0839    9.2851   16.5330 C   0  0  0  0  0  0  0  0  0  0  0  0
   48.7891    7.5496   19.8655 C   0  0  0  0  0  0  0  0  0  0  0  0
   48.0110    8.1683   21.0160 C   0  0  0  0  0  0  0  0  0  0  0  0
   48.8772    7.4871   14.9183 C   0  0  0  0  0  0  0  0  0  0  0  0
   48.5743    8.3344   13.8867 N   0  0  0  0  0  0  0  0  0  0  0  0
   49.2629    6.3390   14.7244 O   0  0  0  0  0  0  0  0  0  0  0  0
   48.8473    7.9140   12.5108 C   0  0  0  0  0  0  0  0  0  0  0  0
   50.3089    8.0337   12.0713 C   0  0  0  0  0  0  0  0  0  0  0  0
   51.1387    7.2088   12.7378 F   0  0  0  0  0  0  0  0  0  0  0  0
   50.4288    7.7605   10.7507 F   0  0  0  0  0  0  0  0  0  0  0  0
   50.7500    9.3031   12.2570 F   0  0  0  0  0  0  0  0  0  0  0  0
   47.4611   13.5221   21.0124 N   0  0  0  0  0  0  0  0  0  0  0  0
   47.9014   12.3137   21.4608 C   0  0  0  0  0  0  0  0  0  0  0  0
   48.2566   11.1890   20.7410 C   0  0  0  0  0  0  0  0  0  0  0  0
   48.1510   11.2940   19.3416 N   0  0  0  0  0  0  0  0  0  0  0  0
   47.7189   12.4984   18.8251 C   0  0  0  0  0  0  0  0  0  0  0  0
   47.3785   13.5997   19.7056 C   0  0  0  0  0  0  0  0  0  0  0  0
   48.6628   10.1835   21.6317 C   0  0  0  0  0  0  0  0  0  0  0  0
   48.5400   10.7251   22.8996 C   0  0  0  0  0  0  0  0  0  0  0  0
   48.0754   12.0169   22.7832 N   0  0  0  0  0  0  0  0  0  0  0  0
   47.6738   12.4907   17.5126 N   0  0  0  0  0  0  0  0  0  0  0  0
   48.0951   11.2316   17.1658 C   0  0  0  0  0  0  0  0  0  0  0  0
   48.3856   10.4500   18.2773 C   0  0  0  0  0  0  0  0  0  0  0  0
   48.8485    9.0248   18.3864 C   0  0  2  0  0  0  0  0  0  0  0  0
   50.3602    8.8243   18.1376 C   0  0  1  0  0  0  0  0  0  0  0  0
   50.4576    8.7145   16.6123 C   0  0  0  0  0  0  0  0  0  0  0  0
   49.1829    8.1523   16.1938 N   0  0  0  0  0  0  0  0  0  0  0  0
   48.2323    8.1237   17.2991 C   0  0  0  0  0  0  0  0  0  0  0  0
   51.2989    9.8656   18.7516 C   0  0  0  0  0  0  0  0  0  0  0  0
   52.7667    9.5151   18.5507 C   0  0  0  0  0  0  0  0  0  0  0  0
   49.0486    7.6025   14.9459 C   0  0  0  0  0  0  0  0  0  0  0  0
   47.8272    7.0404   14.6871 N   0  0  0  0  0  0  0  0  0  0  0  0
   49.9587    7.5831   14.1239 O   0  0  0  0  0  0  0  0  0  0  0  0
   47.5444    6.5254   13.3451 C   0  0  0  0  0  0  0  0  0  0  0  0
   47.1746    7.5884   12.3070 C   0  0  0  0  0  0  0  0  0  0  0  0
   48.1823    8.4342   12.0234 F   0  0  0  0  0  0  0  0  0  0  0  0
   46.7878    7.0031   11.1489 F   0  0  0  0  0  0  0  0  0  0  0  0
   46.1266    8.3278   12.7495 F   0  0  0  0  0  0  0  0  0  0  0  0
   48.8118   10.1175   18.2579 H   0  0  0  0  0  0  0  0  0  0  0  0
   48.7962    9.2321   17.0136 H   0  0  0  0  0  0  0  0  0  0  0  0
   52.3847   13.0586   20.0773 H   0  0  0  0  0  0  0  0  0  0  0  0
   46.5196   11.3640   19.7047 H   0  0  0  0  0  0  0  0  0  0  0  0
   46.0131   13.4970   21.2883 H   0  0  0  0  0  0  0  0  0  0  0  0
   48.2221   14.6196   21.7787 H   0  0  0  0  0  0  0  0  0  0  0  0
   51.2084    9.1519   17.3884 H   0  0  0  0  0  0  0  0  0  0  0  0
   47.3837    9.9160   18.4622 H   0  0  0  0  0  0  0  0  0  0  0  0
   47.1625    7.6063   18.4775 H   0  0  0  0  0  0  0  0  0  0  0  0
   49.9945    7.0860   17.4934 H   0  0  0  0  0  0  0  0  0  0  0  0
   48.4989    6.1764   17.1976 H   0  0  0  0  0  0  0  0  0  0  0  0
   47.0226    9.2279   16.2631 H   0  0  0  0  0  0  0  0  0  0  0  0
   48.5420   10.1094   15.9772 H   0  0  0  0  0  0  0  0  0  0  0  0
   49.8444    7.8327   19.9450 H   0  0  0  0  0  0  0  0  0  0  0  0
   48.7572    6.4584   19.9786 H   0  0  0  0  0  0  0  0  0  0  0  0
   48.0855    9.2574   21.0112 H   0  0  0  0  0  0  0  0  0  0  0  0
   48.4073    7.8126   21.9726 H   0  0  0  0  0  0  0  0  0  0  0  0
   46.9523    7.8947   20.9668 H   0  0  0  0  0  0  0  0  0  0  0  0
   48.7055    9.3157   14.0794 H   0  0  0  0  0  0  0  0  0  0  0  0
   48.5072    6.8807   12.3810 H   0  0  0  0  0  0  0  0  0  0  0  0
   48.2294    8.5526   11.8712 H   0  0  0  0  0  0  0  0  0  0  0  0
   47.0330   14.5407   19.2477 H   0  0  0  0  0  0  0  0  0  0  0  0
   49.0165    9.1844   21.4219 H   0  0  0  0  0  0  0  0  0  0  0  0
   48.7460   10.3073   23.8764 H   0  0  0  0  0  0  0  0  0  0  0  0
   47.8930   12.6598   23.5414 H   0  0  0  0  0  0  0  0  0  0  0  0
   48.1640   10.9449   16.1224 H   0  0  0  0  0  0  0  0  0  0  0  0
   48.5558    8.6213   19.3587 H   0  0  0  0  0  0  0  0  0  0  0  0
   50.6222    7.8406   18.5556 H   0  0  0  0  0  0  0  0  0  0  0  0
   50.5717    9.6903   16.1274 H   0  0  0  0  0  0  0  0  0  0  0  0
   51.2850    8.0699   16.2969 H   0  0  0  0  0  0  0  0  0  0  0  0
   48.1730    7.0844   17.6427 H   0  0  0  0  0  0  0  0  0  0  0  0
   47.2367    8.4418   16.9757 H   0  0  0  0  0  0  0  0  0  0  0  0
   51.1059    9.9394   19.8273 H   0  0  0  0  0  0  0  0  0  0  0  0
   51.1181   10.8569   18.3212 H   0  0  0  0  0  0  0  0  0  0  0  0
   53.4016   10.2566   19.0457 H   0  0  0  0  0  0  0  0  0  0  0  0
   53.0331    9.5024   17.4897 H   0  0  0  0  0  0  0  0  0  0  0  0
   52.9979    8.5341   18.9771 H   0  0  0  0  0  0  0  0  0  0  0  0
   47.0452    7.4491   15.1743 H   0  0  0  0  0  0  0  0  0  0  0  0
   46.7068    5.8292   13.4584 H   0  0  0  0  0  0  0  0  0  0  0  0
   48.4096    5.9523   12.9939 H   0  0  0  0  0  0  0  0  0  0  0  0
  2  3  1  0
  4  5  1  0
  6  7  1  0
  7  2  2  0
  3 10  1  0
  3  4  2  0
  4  8  1  0
  8  9  2  0
  9 10  1  0
  5 13  1  0
  5  6  1  0
  6 11  2  0
 11 12  1  0
 12 13  2  0
 14 13  1  0
 14 15  1  0
 14 18  1  0
 15 16  1  0
 16 17  1  0
 17 18  1  0
 15 19  1  0
 19 20  1  0
 17 21  1  0
 21 22  1  0
 21 23  2  0
 22 24  1  0
 24 25  1  0
 25 26  1  0
 25 27  1  0
 25 28  1  0
 29 30  1  0
 31 32  1  0
 33 34  1  0
 34 29  2  0
 30 37  1  0
 30 31  2  0
 31 35  1  0
 35 36  2  0
 36 37  1  0
 32 40  1  0
 32 33  1  0
 33 38  2  0
 38 39  1  0
 39 40  2  0
 41 40  1  0
 41 42  1  0
 41 45  1  0
 42 43  1  0
 43 44  1  0
 44 45  1  0
 42 46  1  0
 46 47  1  0
 44 48  1  0
 48 49  1  0
 48 50  2  0
 49 51  1  0
 51 52  1  0
 52 53  1  0
 52 54  1  0
 52 55  1  0
  1 56  1  0
  1 57  1  0
  7 58  1  0
  8 59  1  0
  9 60  1  0
 10 61  1  0
 12 62  1  0
 14 63  1  1
 15 64  1  1
 16 65  1  0
 16 66  1  0
 18 67  1  0
 18 68  1  0
 19 69  1  0
 19 70  1  0
 20 71  1  0
 20 72  1  0
 20 73  1  0
 22 74  1  0
 24 75  1  0
 24 76  1  0
 34 77  1  0
 35 78  1  0
 36 79  1  0
 37 80  1  0
 39 81  1  0
 41 82  1  1
 42 83  1  1
 43 84  1  0
 43 85  1  0
 45 86  1  0
 45 87  1  0
 46 88  1  0
 46 89  1  0
 47 90  1  0
 47 91  1  0
 47 92  1  0
 49 93  1  0
 51 94  1  0
 51 95  1  0
M  END
> <Uni-Dock RESULT> 
ENERGY=   -4.853  LOWER_BOUND=    4.887  UPPER_BOUND=    7.231
INTER + INTRA:          -4.853
INTER:                  -4.853
INTRA:                   0.000
UNBOUND:                 0.000

$$$$

     RDKit          3D

 95100  0  0  0  0  0  0  0  0999 V2000
   45.7791   12.3480   11.3157 O   0  0  0  0  0  0  0  0  0  0  0  0
   50.2915   11.8837   13.9590 N   0  0  0  0  0  0  0  0  0  0  0  0
   49.9320   10.9635   13.0221 C   0  0  0  0  0  0  0  0  0  0  0  0
   48.7972   10.9104   12.2336 C   0  0  0  0  0  0  0  0  0  0  0  0
   47.8691   11.9561   12.4153 N   0  0  0  0  0  0  0  0  0  0  0  0
   48.1769   12.9157   13.3600 C   0  0  0  0  0  0  0  0  0  0  0  0
   49.4132   12.8448   14.1147 C   0  0  0  0  0  0  0  0  0  0  0  0
   48.8674    9.7719   11.4147 C   0  0  0  0  0  0  0  0  0  0  0  0
   50.0620    9.1470   11.7258 C   0  0  0  0  0  0  0  0  0  0  0  0
   50.6995    9.8795   12.7020 N   0  0  0  0  0  0  0  0  0  0  0  0
   47.2402   13.8289   13.4706 N   0  0  0  0  0  0  0  0  0  0  0  0
   46.2885   13.4491   12.5598 C   0  0  0  0  0  0  0  0  0  0  0  0
   46.6471   12.2965   11.8697 C   0  0  0  0  0  0  0  0  0  0  0  0
   45.9156   11.5288   10.8049 C   0  0  2  0  0  0  0  0  0  0  0  0
   45.6261   12.3098    9.5032 C   0  0  1  0  0  0  0  0  0  0  0  0
   44.3108   13.0380    9.7950 C   0  0  0  0  0  0  0  0  0  0  0  0
   43.6304   12.2109   10.7779 N   0  0  0  0  0  0  0  0  0  0  0  0
   44.4969   11.1430   11.2634 C   0  0  0  0  0  0  0  0  0  0  0  0
   46.7109   13.2418    8.9594 C   0  0  0  0  0  0  0  0  0  0  0  0
   47.9690   12.5015    8.5342 C   0  0  0  0  0  0  0  0  0  0  0  0
   42.2909   12.3839   11.0123 C   0  0  0  0  0  0  0  0  0  0  0  0
   41.7415   11.5103   11.9117 N   0  0  0  0  0  0  0  0  0  0  0  0
   41.6191   13.2365   10.4411 O   0  0  0  0  0  0  0  0  0  0  0  0
   40.3435   11.6804   12.3132 C   0  0  0  0  0  0  0  0  0  0  0  0
   40.0931   12.7779   13.3507 C   0  0  0  0  0  0  0  0  0  0  0  0
   40.3590   14.0170   12.8956 F   0  0  0  0  0  0  0  0  0  0  0  0
   38.8023   12.7565   13.7585 F   0  0  0  0  0  0  0  0  0  0  0  0
   40.8611   12.5666   14.4488 F   0  0  0  0  0  0  0  0  0  0  0  0
   50.3678    9.4094   12.2289 N   0  0  0  0  0  0  0  0  0  0  0  0
   50.2426   10.4631   11.3750 C   0  0  0  0  0  0  0  0  0  0  0  0
   49.1124   11.1760   11.0234 C   0  0  0  0  0  0  0  0  0  0  0  0
   47.9103   10.7623   11.6270 N   0  0  0  0  0  0  0  0  0  0  0  0
   47.9736    9.7043   12.5104 C   0  0  0  0  0  0  0  0  0  0  0  0
   49.2368    9.0467   12.7856 C   0  0  0  0  0  0  0  0  0  0  0  0
   49.4707   12.1873   10.1190 C   0  0  0  0  0  0  0  0  0  0  0  0
   50.8365   12.0645    9.9312 C   0  0  0  0  0  0  0  0  0  0  0  0
   51.2932   11.0139   10.6966 N   0  0  0  0  0  0  0  0  0  0  0  0
   46.8010    9.4141   13.0258 N   0  0  0  0  0  0  0  0  0  0  0  0
   45.9450   10.3216   12.4542 C   0  0  0  0  0  0  0  0  0  0  0  0
   46.5944   11.1680   11.5639 C   0  0  0  0  0  0  0  0  0  0  0  0
   46.0705   12.2811   10.7014 C   0  0  2  0  0  0  0  0  0  0  0  0
   45.8468   13.6153   11.4479 C   0  0  1  0  0  0  0  0  0  0  0  0
   44.4470   13.4549   12.0504 C   0  0  0  0  0  0  0  0  0  0  0  0
   43.7447   12.5660   11.1378 N   0  0  0  0  0  0  0  0  0  0  0  0
   44.6584   11.9875   10.1596 C   0  0  0  0  0  0  0  0  0  0  0  0
   46.9210   14.0219   12.4595 C   0  0  0  0  0  0  0  0  0  0  0  0
   46.6691   15.4017   13.0516 C   0  0  0  0  0  0  0  0  0  0  0  0
   42.3779   12.4783   11.1764 C   0  0  0  0  0  0  0  0  0  0  0  0
   41.8208   11.6657   10.2256 N   0  0  0  0  0  0  0  0  0  0  0  0
   41.6919   13.1010   11.9803 O   0  0  0  0  0  0  0  0  0  0  0  0
   40.3773   11.4165   10.2514 C   0  0  0  0  0  0  0  0  0  0  0  0
   39.9164   10.3792   11.2789 C   0  0  0  0  0  0  0  0  0  0  0  0
   40.1080   10.7655   12.5537 F   0  0  0  0  0  0  0  0  0  0  0  0
   38.5984   10.1119   11.1215 F   0  0  0  0  0  0  0  0  0  0  0  0
   40.5844    9.2125   11.0958 F   0  0  0  0  0  0  0  0  0  0  0  0
   46.4510   11.6894   11.5481 H   0  0  0  0  0  0  0  0  0  0  0  0
   44.9417   11.8678   11.3979 H   0  0  0  0  0  0  0  0  0  0  0  0
   49.6145   13.6376   14.8530 H   0  0  0  0  0  0  0  0  0  0  0  0
   48.1692    9.4126   10.6732 H   0  0  0  0  0  0  0  0  0  0  0  0
   50.5168    8.2452   11.3367 H   0  0  0  0  0  0  0  0  0  0  0  0
   51.5924    9.6672   13.1258 H   0  0  0  0  0  0  0  0  0  0  0  0
   45.3796   14.0295   12.4472 H   0  0  0  0  0  0  0  0  0  0  0  0
   46.4573   10.6145   10.5649 H   0  0  0  0  0  0  0  0  0  0  0  0
   45.4077   11.5618    8.7250 H   0  0  0  0  0  0  0  0  0  0  0  0
   44.4626   14.0312   10.2310 H   0  0  0  0  0  0  0  0  0  0  0  0
   43.6984   13.1488    8.8933 H   0  0  0  0  0  0  0  0  0  0  0  0
   44.1688   10.2168   10.7766 H   0  0  0  0  0  0  0  0  0  0  0  0
   44.4046   11.0199   12.3472 H   0  0  0  0  0  0  0  0  0  0  0  0
   46.9720   14.0151    9.6901 H   0  0  0  0  0  0  0  0  0  0  0  0
   46.3133   13.7716    8.0842 H   0  0  0  0  0  0  0  0  0  0  0  0
   48.4643   12.0300    9.3852 H   0  0  0  0  0  0  0  0  0  0  0  0
   48.6807   13.1988    8.0804 H   0  0  0  0  0  0  0  0  0  0  0  0
   47.7388   11.7265    7.7962 H   0  0  0  0  0  0  0  0  0  0  0  0
   42.3667   11.1783   12.6302 H   0  0  0  0  0  0  0  0  0  0  0  0
   39.7385   11.8726   11.4204 H   0  0  0  0  0  0  0  0  0  0  0  0
   40.0293   10.7179   12.7296 H   0  0  0  0  0  0  0  0  0  0  0  0
   49.2375    8.2028   13.4943 H   0  0  0  0  0  0  0  0  0  0  0  0
   48.8507   12.9367    9.6484 H   0  0  0  0  0  0  0  0  0  0  0  0
   51.5267   12.6345    9.3231 H   0  0  0  0  0  0  0  0  0  0  0  0
   52.2487   10.6915   10.7645 H   0  0  0  0  0  0  0  0  0  0  0  0
   44.8913   10.3175   12.7101 H   0  0  0  0  0  0  0  0  0  0  0  0
   46.7341   12.4195    9.8445 H   0  0  0  0  0  0  0  0  0  0  0  0
   45.7864   14.4014   10.6803 H   0  0  0  0  0  0  0  0  0  0  0  0
   44.4665   12.9791   13.0371 H   0  0  0  0  0  0  0  0  0  0  0  0
   43.9222   14.4123   12.1356 H   0  0  0  0  0  0  0  0  0  0  0  0
   44.4878   12.5135    9.2130 H   0  0  0  0  0  0  0  0  0  0  0  0
   44.4573   10.9228   10.0085 H   0  0  0  0  0  0  0  0  0  0  0  0
   47.8993   14.0313   11.9669 H   0  0  0  0  0  0  0  0  0  0  0  0
   46.9786   13.2987   13.2805 H   0  0  0  0  0  0  0  0  0  0  0  0
   47.4833   15.6740   13.7304 H   0  0  0  0  0  0  0  0  0  0  0  0
   45.7360   15.4276   13.6221 H   0  0  0  0  0  0  0  0  0  0  0  0
   46.6156   16.1620   12.2663 H   0  0  0  0  0  0  0  0  0  0  0  0
   42.3937   10.8958    9.9175 H   0  0  0  0  0  0  0  0  0  0  0  0
   40.1124   11.0682    9.2476 H   0  0  0  0  0  0  0  0  0  0  0  0
   39.8554   12.3641   10.4244 H   0  0  0  0  0  0  0  0  0  0  0  0
  2  3  1  0
  4  5  1  0
  6  7  1  0
  7  2  2  0
  3 10  1  0
  3  4  2  0
  4  8  1  0
  8  9  2  0
  9 10  1  0
  5 13  1  0
  5  6  1  0
  6 11  2  0
 11 12  1  0
 12 13  2  0
 14 13  1  0
 14 15  1  0
 14 18  1  0
 15 16  1  0
 16 17  1  0
 17 18  1  0
 15 19  1  0
 19 20  1  0
 17 21  1  0
 21 22  1  0
 21 23  2  0
 22 24  1  0
 24 25  1  0
 25 26  1  0
 25 27  1  0
 25 28  1  0
 29 30  1  0
 31 32  1  0
 33 34  1  0
 34 29  2  0
 30 37  1  0
 30 31  2  0
 31 35  1  0
 35 36  2  0
 36 37  1  0
 32 40  1  0
 32 33  1  0
 33 38  2  0
 38 39  1  0
 39 40  2  0
 41 40  1  0
 41 42  1  0
 41 45  1  0
 42 43  1  0
 43 44  1  0
 44 45  1  0
 42 46  1  0
 46 47  1  0
 44 48  1  0
 48 49  1  0
 48 50  2  0
 49 51  1  0
 51 52  1  0
 52 53  1  0
 52 54  1  0
 52 55  1  0
  1 56  1  0
  1 57  1  0
  7 58  1  0
  8 59  1  0
  9 60  1  0
 10 61  1  0
 12 62  1  0
 14 63  1  1
 15 64  1  1
 16 65  1  0
 16 66  1  0
 18 67  1  0
 18 68  1  0
 19 69  1  0
 19 70  1  0
 20 71  1  0
 20 72  1  0
 20 73  1  0
 22 74  1  0
 24 75  1  0
 24 76  1  0
 34 77  1  0
 35 78  1  0
 36 79  1  0
 37 80  1  0
 39 81  1  0
 41 82  1  1
 42 83  1  1
 43 84  1  0
 43 85  1  0
 45 86  1  0
 45 87  1  0
 46 88  1  0
 46 89  1  0
 47 90  1  0
 47 91  1  0
 47 92  1  0
 49 93  1  0
 51 94  1  0
 51 95  1  0
M  END
> <Uni-Dock RESULT> 
ENERGY=   -4.807  LOWER_BOUND=    5.024  UPPER_BOUND=    6.413
INTER + INTRA:          -4.807
INTER:                  -4.807
INTRA:                   0.000
UNBOUND:                 0.000

$$$$

     RDKit          3D

 95100  0  0  0  0  0  0  0  0999 V2000
   50.0989    8.6913   15.5667 O   0  0  0  0  0  0  0  0  0  0  0  0
   48.1908   12.9002   13.0750 N   0  0  0  0  0  0  0  0  0  0  0  0
   48.8017   13.0215   14.2859 C   0  0  0  0  0  0  0  0  0  0  0  0
   49.3580   12.0442   15.0906 C   0  0  0  0  0  0  0  0  0  0  0  0
   49.2909   10.7253   14.5969 N   0  0  0  0  0  0  0  0  0  0  0  0
   48.6739   10.5397   13.3751 C   0  0  0  0  0  0  0  0  0  0  0  0
   48.1358   11.6657   12.6364 C   0  0  0  0  0  0  0  0  0  0  0  0
   49.8721   12.6494   16.2486 C   0  0  0  0  0  0  0  0  0  0  0  0
   49.6150   14.0030   16.1222 C   0  0  0  0  0  0  0  0  0  0  0  0
   48.9656   14.2168   14.9270 N   0  0  0  0  0  0  0  0  0  0  0  0
   48.6407    9.2771   13.0168 N   0  0  0  0  0  0  0  0  0  0  0  0
   49.2633    8.6175   14.0448 C   0  0  0  0  0  0  0  0  0  0  0  0
   49.6977    9.4832   15.0425 C   0  0  0  0  0  0  0  0  0  0  0  0
   50.4079    9.2032   16.3369 C   0  0  2  0  0  0  0  0  0  0  0  0
   51.7969    8.5391   16.2024 C   0  0  1  0  0  0  0  0  0  0  0  0
   51.4836    7.0423   16.1218 C   0  0  0  0  0  0  0  0  0  0  0  0
   50.2307    6.8787   16.8403 N   0  0  0  0  0  0  0  0  0  0  0  0
   49.6447    8.1689   17.1852 C   0  0  0  0  0  0  0  0  0  0  0  0
   52.7216    9.0119   15.0788 C   0  0  0  0  0  0  0  0  0  0  0  0
   53.1501   10.4624   15.2353 C   0  0  0  0  0  0  0  0  0  0  0  0
   49.8318    5.6331   17.2513 C   0  0  0  0  0  0  0  0  0  0  0  0
   48.6684    5.6047   17.9721 N   0  0  0  0  0  0  0  0  0  0  0  0
   50.4783    4.6166   17.0205 O   0  0  0  0  0  0  0  0  0  0  0  0
   48.0998    4.3133   18.3636 C   0  0  0  0  0  0  0  0  0  0  0  0
   47.3374    3.5760   17.2595 C   0  0  0  0  0  0  0  0  0  0  0  0
   48.1201    3.1870   16.2351 F   0  0  0  0  0  0  0  0  0  0  0  0
   46.7331    2.4723   17.7591 F   0  0  0  0  0  0  0  0  0  0  0  0
   46.3607    4.3711   16.7554 F   0  0  0  0  0  0  0  0  0  0  0  0
   49.2484   14.1502   15.6129 N   0  0  0  0  0  0  0  0  0  0  0  0
   50.3031   13.5041   15.0427 C   0  0  0  0  0  0  0  0  0  0  0  0
   50.6309   12.1622   15.0776 C   0  0  0  0  0  0  0  0  0  0  0  0
   49.7575   11.3332   15.8056 N   0  0  0  0  0  0  0  0  0  0  0  0
   48.6633   11.9281   16.3997 C   0  0  0  0  0  0  0  0  0  0  0  0
   48.4437   13.3568   16.2790 C   0  0  0  0  0  0  0  0  0  0  0  0
   51.8020   11.9564   14.3323 C   0  0  0  0  0  0  0  0  0  0  0  0
   52.1728   13.2011   13.8535 C   0  0  0  0  0  0  0  0  0  0  0  0
   51.2572   14.1321   14.2927 N   0  0  0  0  0  0  0  0  0  0  0  0
   47.9093   11.0620   17.0369 N   0  0  0  0  0  0  0  0  0  0  0  0
   48.5398    9.8582   16.8462 C   0  0  0  0  0  0  0  0  0  0  0  0
   49.7039    9.9872   16.0987 C   0  0  0  0  0  0  0  0  0  0  0  0
   50.7168    8.9648   15.6672 C   0  0  2  0  0  0  0  0  0  0  0  0
   50.2951    8.1282   14.4387 C   0  0  1  0  0  0  0  0  0  0  0  0
   49.4528    7.0023   15.0478 C   0  0  0  0  0  0  0  0  0  0  0  0
   49.9925    6.8106   16.3850 N   0  0  0  0  0  0  0  0  0  0  0  0
   50.9334    7.8701   16.7294 C   0  0  0  0  0  0  0  0  0  0  0  0
   49.6026    8.8831   13.3015 C   0  0  0  0  0  0  0  0  0  0  0  0
   49.3351    7.9962   12.0934 C   0  0  0  0  0  0  0  0  0  0  0  0
   49.7123    5.6657   17.0837 C   0  0  0  0  0  0  0  0  0  0  0  0
   50.3308    5.5619   18.3009 N   0  0  0  0  0  0  0  0  0  0  0  0
   48.9859    4.7789   16.6475 O   0  0  0  0  0  0  0  0  0  0  0  0
   50.0108    4.4297   19.1738 C   0  0  0  0  0  0  0  0  0  0  0  0
   48.6991    4.5616   19.9525 C   0  0  0  0  0  0  0  0  0  0  0  0
   47.6068    4.5644   19.1663 F   0  0  0  0  0  0  0  0  0  0  0  0
   48.5700    3.5436   20.8360 F   0  0  0  0  0  0  0  0  0  0  0  0
   48.6956    5.7139   20.6687 F   0  0  0  0  0  0  0  0  0  0  0  0
   49.8239    9.6052   15.7351 H   0  0  0  0  0  0  0  0  0  0  0  0
   49.7665    8.2013   16.3336 H   0  0  0  0  0  0  0  0  0  0  0  0
   47.6578   11.4654   11.6641 H   0  0  0  0  0  0  0  0  0  0  0  0
   50.3791   12.2038   17.0916 H   0  0  0  0  0  0  0  0  0  0  0  0
   49.8389   14.8350   16.7773 H   0  0  0  0  0  0  0  0  0  0  0  0
   48.6532   15.1070   14.5636 H   0  0  0  0  0  0  0  0  0  0  0  0
   49.3662    7.5385   14.0171 H   0  0  0  0  0  0  0  0  0  0  0  0
   50.5004   10.1200   16.9181 H   0  0  0  0  0  0  0  0  0  0  0  0
   52.3212    8.7017   17.1571 H   0  0  0  0  0  0  0  0  0  0  0  0
   51.3358    6.6938   15.0940 H   0  0  0  0  0  0  0  0  0  0  0  0
   52.2732    6.4362   16.5795 H   0  0  0  0  0  0  0  0  0  0  0  0
   49.8290    8.3300   18.2541 H   0  0  0  0  0  0  0  0  0  0  0  0
   48.5638    8.1718   17.0126 H   0  0  0  0  0  0  0  0  0  0  0  0
   52.2558    8.8732   14.0971 H   0  0  0  0  0  0  0  0  0  0  0  0
   53.6237    8.3868   15.0790 H   0  0  0  0  0  0  0  0  0  0  0  0
   52.3013   11.1433   15.1481 H   0  0  0  0  0  0  0  0  0  0  0  0
   53.8706   10.7282   14.4551 H   0  0  0  0  0  0  0  0  0  0  0  0
   53.6275   10.6288   16.2062 H   0  0  0  0  0  0  0  0  0  0  0  0
   48.0016    6.3271   17.7468 H   0  0  0  0  0  0  0  0  0  0  0  0
   48.9021    3.6736   18.7474 H   0  0  0  0  0  0  0  0  0  0  0  0
   47.4142    4.5231   19.1910 H   0  0  0  0  0  0  0  0  0  0  0  0
   47.5591   13.7882   16.7749 H   0  0  0  0  0  0  0  0  0  0  0  0
   52.3353   11.0380   14.1339 H   0  0  0  0  0  0  0  0  0  0  0  0
   53.0060   13.5078   13.2348 H   0  0  0  0  0  0  0  0  0  0  0  0
   51.2681   15.1236   14.0967 H   0  0  0  0  0  0  0  0  0  0  0  0
   48.1233    8.9491   17.2654 H   0  0  0  0  0  0  0  0  0  0  0  0
   51.6774    9.4559   15.4943 H   0  0  0  0  0  0  0  0  0  0  0  0
   51.2122    7.6721   14.0362 H   0  0  0  0  0  0  0  0  0  0  0  0
   48.3961    7.2743   15.1459 H   0  0  0  0  0  0  0  0  0  0  0  0
   49.5216    6.0756   14.4682 H   0  0  0  0  0  0  0  0  0  0  0  0
   51.9396    7.4426   16.6480 H   0  0  0  0  0  0  0  0  0  0  0  0
   50.7834    8.2168   17.7561 H   0  0  0  0  0  0  0  0  0  0  0  0
   50.2344    9.7192   12.9826 H   0  0  0  0  0  0  0  0  0  0  0  0
   48.6495    9.3069   13.6371 H   0  0  0  0  0  0  0  0  0  0  0  0
   48.8854    8.5844   11.2873 H   0  0  0  0  0  0  0  0  0  0  0  0
   48.6449    7.1837   12.3389 H   0  0  0  0  0  0  0  0  0  0  0  0
   50.2638    7.5585   11.7145 H   0  0  0  0  0  0  0  0  0  0  0  0
   50.5290    6.4333   18.7669 H   0  0  0  0  0  0  0  0  0  0  0  0
   50.8414    4.3500   19.8828 H   0  0  0  0  0  0  0  0  0  0  0  0
   49.9936    3.5122   18.5753 H   0  0  0  0  0  0  0  0  0  0  0  0
  2  3  1  0
  4  5  1  0
  6  7  1  0
  7  2  2  0
  3 10  1  0
  3  4  2  0
  4  8  1  0
  8  9  2  0
  9 10  1  0
  5 13  1  0
  5  6  1  0
  6 11  2  0
 11 12  1  0
 12 13  2  0
 14 13  1  0
 14 15  1  0
 14 18  1  0
 15 16  1  0
 16 17  1  0
 17 18  1  0
 15 19  1  0
 19 20  1  0
 17 21  1  0
 21 22  1  0
 21 23  2  0
 22 24  1  0
 24 25  1  0
 25 26  1  0
 25 27  1  0
 25 28  1  0
 29 30  1  0
 31 32  1  0
 33 34  1  0
 34 29  2  0
 30 37  1  0
 30 31  2  0
 31 35  1  0
 35 36  2  0
 36 37  1  0
 32 40  1  0
 32 33  1  0
 33 38  2  0
 38 39  1  0
 39 40  2  0
 41 40  1  0
 41 42  1  0
 41 45  1  0
 42 43  1  0
 43 44  1  0
 44 45  1  0
 42 46  1  0
 46 47  1  0
 44 48  1  0
 48 49  1  0
 48 50  2  0
 49 51  1  0
 51 52  1  0
 52 53  1  0
 52 54  1  0
 52 55  1  0
  1 56  1  0
  1 57  1  0
  7 58  1  0
  8 59  1  0
  9 60  1  0
 10 61  1  0
 12 62  1  0
 14 63  1  1
 15 64  1  1
 16 65  1  0
 16 66  1  0
 18 67  1  0
 18 68  1  0
 19 69  1  0
 19 70  1  0
 20 71  1  0
 20 72  1  0
 20 73  1  0
 22 74  1  0
 24 75  1  0
 24 76  1  0
 34 77  1  0
 35 78  1  0
 36 79  1  0
 37 80  1  0
 39 81  1  0
 41 82  1  1
 42 83  1  1
 43 84  1  0
 43 85  1  0
 45 86  1  0
 45 87  1  0
 46 88  1  0
 46 89  1  0
 47 90  1  0
 47 91  1  0
 47 92  1  0
 49 93  1  0
 51 94  1  0
 51 95  1  0
M  END
> <Uni-Dock RESULT> 
ENERGY=   -4.649  LOWER_BOUND=    3.607  UPPER_BOUND=    6.097
INTER + INTRA:          -4.649
INTER:                  -4.649
INTRA:                   0.000
UNBOUND:                 0.000

$$$$

     RDKit          3D

 95100  0  0  0  0  0  0  0  0999 V2000
   50.4289    6.5419   17.8145 O   0  0  0  0  0  0  0  0  0  0  0  0
   53.0032    1.9760   18.1141 N   0  0  0  0  0  0  0  0  0  0  0  0
   53.6247    3.1502   18.4124 C   0  0  0  0  0  0  0  0  0  0  0  0
   53.1242    4.4390   18.3902 C   0  0  0  0  0  0  0  0  0  0  0  0
   51.7742    4.5710   18.0054 N   0  0  0  0  0  0  0  0  0  0  0  0
   51.0941    3.4129   17.6825 C   0  0  0  0  0  0  0  0  0  0  0  0
   51.7504    2.1218   17.7553 C   0  0  0  0  0  0  0  0  0  0  0  0
   54.1411    5.3267   18.7768 C   0  0  0  0  0  0  0  0  0  0  0  0
   55.2560    4.5477   19.0312 C   0  0  0  0  0  0  0  0  0  0  0  0
   54.9303    3.2287   18.8072 N   0  0  0  0  0  0  0  0  0  0  0  0
   49.8555    3.6449   17.3143 N   0  0  0  0  0  0  0  0  0  0  0  0
   49.7254    5.0067   17.4046 C   0  0  0  0  0  0  0  0  0  0  0  0
   50.8919    5.6213   17.8462 C   0  0  0  0  0  0  0  0  0  0  0  0
   51.2027    7.0731   18.0787 C   0  0  2  0  0  0  0  0  0  0  0  0
   50.3371    7.7745   19.1497 C   0  0  1  0  0  0  0  0  0  0  0  0
   49.0933    8.2276   18.3796 C   0  0  0  0  0  0  0  0  0  0  0  0
   49.5425    8.4102   17.0092 N   0  0  0  0  0  0  0  0  0  0  0  0
   50.9039    7.9199   16.8275 C   0  0  0  0  0  0  0  0  0  0  0  0
   49.9949    7.0028   20.4258 C   0  0  0  0  0  0  0  0  0  0  0  0
   51.2190    6.6755   21.2662 C   0  0  0  0  0  0  0  0  0  0  0  0
   48.7780    9.1270   16.1253 C   0  0  0  0  0  0  0  0  0  0  0  0
   49.3263    9.2879   14.8814 N   0  0  0  0  0  0  0  0  0  0  0  0
   47.6947    9.6172   16.4264 O   0  0  0  0  0  0  0  0  0  0  0  0
   48.5425    9.9436   13.8325 C   0  0  0  0  0  0  0  0  0  0  0  0
   47.4853    9.0621   13.1625 C   0  0  0  0  0  0  0  0  0  0  0  0
   46.4956    8.6853   13.9942 F   0  0  0  0  0  0  0  0  0  0  0  0
   46.9210    9.7128   12.1180 F   0  0  0  0  0  0  0  0  0  0  0  0
   48.0604    7.9376   12.6674 F   0  0  0  0  0  0  0  0  0  0  0  0
   55.1797    3.9275   18.8730 N   0  0  0  0  0  0  0  0  0  0  0  0
   54.1618    4.1366   19.7534 C   0  0  0  0  0  0  0  0  0  0  0  0
   52.9974    4.8624   19.5898 C   0  0  0  0  0  0  0  0  0  0  0  0
   52.8278    5.4811   18.3373 N   0  0  0  0  0  0  0  0  0  0  0  0
   53.8218    5.2984   17.3979 C   0  0  0  0  0  0  0  0  0  0  0  0
   54.9962    4.5063   17.7102 C   0  0  0  0  0  0  0  0  0  0  0  0
   52.2387    4.7843   20.7676 C   0  0  0  0  0  0  0  0  0  0  0  0
   52.9722    4.0016   21.6424 C   0  0  0  0  0  0  0  0  0  0  0  0
   54.1377    3.6164   21.0167 N   0  0  0  0  0  0  0  0  0  0  0  0
   53.5536    5.9037   16.2637 N   0  0  0  0  0  0  0  0  0  0  0  0
   52.3366    6.5007   16.4771 C   0  0  0  0  0  0  0  0  0  0  0  0
   51.8588    6.2753   17.7622 C   0  0  0  0  0  0  0  0  0  0  0  0
   50.6040    6.7428   18.4436 C   0  0  2  0  0  0  0  0  0  0  0  0
   49.3405    5.9311   18.0801 C   0  0  1  0  0  0  0  0  0  0  0  0
   48.8550    6.5907   16.7850 C   0  0  0  0  0  0  0  0  0  0  0  0
   49.2914    7.9751   16.8818 N   0  0  0  0  0  0  0  0  0  0  0  0
   50.1962    8.1637   18.0096 C   0  0  0  0  0  0  0  0  0  0  0  0
   49.5064    4.4126   17.9853 C   0  0  0  0  0  0  0  0  0  0  0  0
   48.1848    3.6978   17.7399 C   0  0  0  0  0  0  0  0  0  0  0  0
   48.7394    8.9301   16.0690 C   0  0  0  0  0  0  0  0  0  0  0  0
   49.1740   10.2084   16.2966 N   0  0  0  0  0  0  0  0  0  0  0  0
   47.8952    8.6741   15.2168 O   0  0  0  0  0  0  0  0  0  0  0  0
   48.7295   11.2859   15.4090 C   0  0  0  0  0  0  0  0  0  0  0  0
   49.4677   11.3695   14.0702 C   0  0  0  0  0  0  0  0  0  0  0  0
   49.2523   10.3075   13.2720 F   0  0  0  0  0  0  0  0  0  0  0  0
   49.0916   12.4795   13.3920 F   0  0  0  0  0  0  0  0  0  0  0  0
   50.8048   11.4643   14.2799 F   0  0  0  0  0  0  0  0  0  0  0  0
   51.3299    6.1856   17.8317 H   0  0  0  0  0  0  0  0  0  0  0  0
   50.4706    7.2536   17.1585 H   0  0  0  0  0  0  0  0  0  0  0  0
   51.1628    1.2275   17.4924 H   0  0  0  0  0  0  0  0  0  0  0  0
   54.1150    6.4014   18.8798 H   0  0  0  0  0  0  0  0  0  0  0  0
   56.2536    4.8155   19.3544 H   0  0  0  0  0  0  0  0  0  0  0  0
   55.5435    2.4320   18.9132 H   0  0  0  0  0  0  0  0  0  0  0  0
   48.7880    5.4833   17.1407 H   0  0  0  0  0  0  0  0  0  0  0  0
   52.2560    7.1940   18.3292 H   0  0  0  0  0  0  0  0  0  0  0  0
   50.8760    8.6880   19.4462 H   0  0  0  0  0  0  0  0  0  0  0  0
   48.2960    7.4768   18.3803 H   0  0  0  0  0  0  0  0  0  0  0  0
   48.6851    9.1622   18.7799 H   0  0  0  0  0  0  0  0  0  0  0  0
   51.5589    8.7984   16.7865 H   0  0  0  0  0  0  0  0  0  0  0  0
   51.0033    7.3657   15.8888 H   0  0  0  0  0  0  0  0  0  0  0  0
   49.4520    6.0791   20.1971 H   0  0  0  0  0  0  0  0  0  0  0  0
   49.3152    7.6128   21.0344 H   0  0  0  0  0  0  0  0  0  0  0  0
   51.8915    5.9905   20.7463 H   0  0  0  0  0  0  0  0  0  0  0  0
   50.9155    6.1961   22.2025 H   0  0  0  0  0  0  0  0  0  0  0  0
   51.7775    7.5828   21.5174 H   0  0  0  0  0  0  0  0  0  0  0  0
   49.9309    8.5411   14.5748 H   0  0  0  0  0  0  0  0  0  0  0  0
   48.0657   10.8366   14.2513 H   0  0  0  0  0  0  0  0  0  0  0  0
   49.2635   10.2722   13.0770 H   0  0  0  0  0  0  0  0  0  0  0  0
   55.7663    4.3926   16.9301 H   0  0  0  0  0  0  0  0  0  0  0  0
   51.2738    5.2163   20.9910 H   0  0  0  0  0  0  0  0  0  0  0  0
   52.7669    3.6802   22.6552 H   0  0  0  0  0  0  0  0  0  0  0  0
   54.8666    3.0368   21.4095 H   0  0  0  0  0  0  0  0  0  0  0  0
   51.8617    7.0740   15.6887 H   0  0  0  0  0  0  0  0  0  0  0  0
   50.7615    6.7569   19.5247 H   0  0  0  0  0  0  0  0  0  0  0  0
   48.5923    6.1444   18.8584 H   0  0  0  0  0  0  0  0  0  0  0  0
   49.3158    6.1531   15.8925 H   0  0  0  0  0  0  0  0  0  0  0  0
   47.7665    6.5366   16.6772 H   0  0  0  0  0  0  0  0  0  0  0  0
   49.6224    8.6622   18.7996 H   0  0  0  0  0  0  0  0  0  0  0  0
   51.0428    8.8012   17.7379 H   0  0  0  0  0  0  0  0  0  0  0  0
   49.9346    4.0347   18.9200 H   0  0  0  0  0  0  0  0  0  0  0  0
   50.1992    4.1445   17.1798 H   0  0  0  0  0  0  0  0  0  0  0  0
   48.3397    2.6144   17.7281 H   0  0  0  0  0  0  0  0  0  0  0  0
   47.7485    3.9832   16.7782 H   0  0  0  0  0  0  0  0  0  0  0  0
   47.4622    3.9270   18.5292 H   0  0  0  0  0  0  0  0  0  0  0  0
   50.1116   10.2946   16.6562 H   0  0  0  0  0  0  0  0  0  0  0  0
   48.8856   12.2177   15.9625 H   0  0  0  0  0  0  0  0  0  0  0  0
   47.6537   11.1797   15.2309 H   0  0  0  0  0  0  0  0  0  0  0  0
  2  3  1  0
  4  5  1  0
  6  7  1  0
  7  2  2  0
  3 10  1  0
  3  4  2  0
  4  8  1  0
  8  9  2  0
  9 10  1  0
  5 13  1  0
  5  6  1  0
  6 11  2  0
 11 12  1  0
 12 13  2  0
 14 13  1  0
 14 15  1  0
 14 18  1  0
 15 16  1  0
 16 17  1  0
 17 18  1  0
 15 19  1  0
 19 20  1  0
 17 21  1  0
 21 22  1  0
 21 23  2  0
 22 24  1  0
 24 25  1  0
 25 26  1  0
 25 27  1  0
 25 28  1  0
 29 30  1  0
 31 32  1  0
 33 34  1  0
 34 29  2  0
 30 37  1  0
 30 31  2  0
 31 35  1  0
 35 36  2  0
 36 37  1  0
 32 40  1  0
 32 33  1  0
 33 38  2  0
 38 39  1  0
 39 40  2  0
 41 40  1  0
 41 42  1  0
 41 45  1  0
 42 43  1  0
 43 44  1  0
 44 45  1  0
 42 46  1  0
 46 47  1  0
 44 48  1  0
 48 49  1  0
 48 50  2  0
 49 51  1  0
 51 52  1  0
 52 53  1  0
 52 54  1  0
 52 55  1  0
  1 56  1  0
  1 57  1  0
  7 58  1  0
  8 59  1  0
  9 60  1  0
 10 61  1  0
 12 62  1  0
 14 63  1  1
 15 64  1  1
 16 65  1  0
 16 66  1  0
 18 67  1  0
 18 68  1  0
 19 69  1  0
 19 70  1  0
 20 71  1  0
 20 72  1  0
 20 73  1  0
 22 74  1  0
 24 75  1  0
 24 76  1  0
 34 77  1  0
 35 78  1  0
 36 79  1  0
 37 80  1  0
 39 81  1  0
 41 82  1  1
 42 83  1  1
 43 84  1  0
 43 85  1  0
 45 86  1  0
 45 87  1  0
 46 88  1  0
 46 89  1  0
 47 90  1  0
 47 91  1  0
 47 92  1  0
 49 93  1  0
 51 94  1  0
 51 95  1  0
M  END
> <Uni-Dock RESULT> 
ENERGY=   -4.256  LOWER_BOUND=    4.489  UPPER_BOUND=    7.132
INTER + INTRA:          -4.256
INTER:                  -4.256
INTRA:                   0.000
UNBOUND:                 0.000

$$$$

     RDKit          3D

 95100  0  0  0  0  0  0  0  0999 V2000
   43.1935   13.6358   10.3289 O   0  0  0  0  0  0  0  0  0  0  0  0
   47.7828   15.5688    8.6659 N   0  0  0  0  0  0  0  0  0  0  0  0
   47.6888   14.2926    9.1311 C   0  0  0  0  0  0  0  0  0  0  0  0
   46.5848   13.6117    9.6103 C   0  0  0  0  0  0  0  0  0  0  0  0
   45.3727   14.3318    9.6237 N   0  0  0  0  0  0  0  0  0  0  0  0
   45.4088   15.6362    9.1706 C   0  0  0  0  0  0  0  0  0  0  0  0
   46.6458   16.2214    8.6907 C   0  0  0  0  0  0  0  0  0  0  0  0
   46.9767   12.3142    9.9769 C   0  0  0  0  0  0  0  0  0  0  0  0
   48.3314   12.2308    9.7082 C   0  0  0  0  0  0  0  0  0  0  0  0
   48.7522   13.4371    9.1947 N   0  0  0  0  0  0  0  0  0  0  0  0
   44.2384   16.2261    9.2472 N   0  0  0  0  0  0  0  0  0  0  0  0
   43.4094   15.2661    9.7675 C   0  0  0  0  0  0  0  0  0  0  0  0
   44.0715   14.0662   10.0023 C   0  0  0  0  0  0  0  0  0  0  0  0
   43.5681   12.7674   10.5662 C   0  0  2  0  0  0  0  0  0  0  0  0
   42.4495   12.0789    9.7518 C   0  0  1  0  0  0  0  0  0  0  0  0
   41.1634   12.7305   10.2680 C   0  0  0  0  0  0  0  0  0  0  0  0
   41.4660   13.1382   11.6300 N   0  0  0  0  0  0  0  0  0  0  0  0
   42.8836   12.9738   11.9303 C   0  0  0  0  0  0  0  0  0  0  0  0
   42.5493   12.0935    8.2251 C   0  0  0  0  0  0  0  0  0  0  0  0
   43.7516   11.3231    7.7028 C   0  0  0  0  0  0  0  0  0  0  0  0
   40.4497   13.4482   12.4963 C   0  0  0  0  0  0  0  0  0  0  0  0
   40.8464   13.7585   13.7692 N   0  0  0  0  0  0  0  0  0  0  0  0
   39.2670   13.4233   12.1721 O   0  0  0  0  0  0  0  0  0  0  0  0
   39.8480   14.2097   14.7407 C   0  0  0  0  0  0  0  0  0  0  0  0
   39.4221   15.6739   14.6044 C   0  0  0  0  0  0  0  0  0  0  0  0
   38.7690   15.9380   13.4568 F   0  0  0  0  0  0  0  0  0  0  0  0
   38.6127   16.0277   15.6303 F   0  0  0  0  0  0  0  0  0  0  0  0
   40.5094   16.4834   14.6576 F   0  0  0  0  0  0  0  0  0  0  0  0
   48.5952   12.7920    9.5324 N   0  0  0  0  0  0  0  0  0  0  0  0
   47.6090   12.6253    8.6080 C   0  0  0  0  0  0  0  0  0  0  0  0
   46.2391   12.7198    8.7620 C   0  0  0  0  0  0  0  0  0  0  0  0
   45.7846   13.0314   10.0569 N   0  0  0  0  0  0  0  0  0  0  0  0
   46.7374   13.2219   11.0366 C   0  0  0  0  0  0  0  0  0  0  0  0
   48.1489   13.0898   10.7294 C   0  0  0  0  0  0  0  0  0  0  0  0
   45.6207   12.4808    7.5253 C   0  0  0  0  0  0  0  0  0  0  0  0
   46.6455   12.2365    6.6275 C   0  0  0  0  0  0  0  0  0  0  0  0
   47.8468   12.3248    7.2964 N   0  0  0  0  0  0  0  0  0  0  0  0
   46.2048   13.5234   12.1986 N   0  0  0  0  0  0  0  0  0  0  0  0
   44.8533   13.5299   11.9609 C   0  0  0  0  0  0  0  0  0  0  0  0
   44.5499   13.2114   10.6429 C   0  0  0  0  0  0  0  0  0  0  0  0
   43.2286   13.0746    9.9407 C   0  0  2  0  0  0  0  0  0  0  0  0
   42.5869   14.4163    9.5221 C   0  0  1  0  0  0  0  0  0  0  0  0
   41.8430   14.8636   10.7848 C   0  0  0  0  0  0  0  0  0  0  0  0
   41.4834   13.6296   11.4661 N   0  0  0  0  0  0  0  0  0  0  0  0
   42.1390   12.4802   10.8535 C   0  0  0  0  0  0  0  0  0  0  0  0
   43.5290   15.4742    8.9426 C   0  0  0  0  0  0  0  0  0  0  0  0
   42.7852   16.7093    8.4534 C   0  0  0  0  0  0  0  0  0  0  0  0
   40.5213   13.6361   12.4418 C   0  0  0  0  0  0  0  0  0  0  0  0
   40.2144   12.4079   12.9633 N   0  0  0  0  0  0  0  0  0  0  0  0
   39.9492   14.6575   12.8078 O   0  0  0  0  0  0  0  0  0  0  0  0
   39.2801   12.3193   14.0882 C   0  0  0  0  0  0  0  0  0  0  0  0
   39.8802   12.6506   15.4573 C   0  0  0  0  0  0  0  0  0  0  0  0
   40.2665   13.9342   15.5769 F   0  0  0  0  0  0  0  0  0  0  0  0
   38.9844   12.3951   16.4399 F   0  0  0  0  0  0  0  0  0  0  0  0
   40.9641   11.8693   15.6930 F   0  0  0  0  0  0  0  0  0  0  0  0
   44.1468   13.4755   10.3971 H   0  0  0  0  0  0  0  0  0  0  0  0
   42.8622   13.4643   11.2230 H   0  0  0  0  0  0  0  0  0  0  0  0
   46.6207   17.2640    8.3350 H   0  0  0  0  0  0  0  0  0  0  0  0
   46.3871   11.5051   10.3819 H   0  0  0  0  0  0  0  0  0  0  0  0
   49.0342   11.4175    9.8351 H   0  0  0  0  0  0  0  0  0  0  0  0
   49.6917   13.6718    8.9045 H   0  0  0  0  0  0  0  0  0  0  0  0
   42.3649   15.4903    9.9528 H   0  0  0  0  0  0  0  0  0  0  0  0
   44.3964   12.0729   10.7014 H   0  0  0  0  0  0  0  0  0  0  0  0
   42.4227   11.0264   10.0747 H   0  0  0  0  0  0  0  0  0  0  0  0
   40.8812   13.6229    9.6992 H   0  0  0  0  0  0  0  0  0  0  0  0
   40.3191   12.0324   10.2524 H   0  0  0  0  0  0  0  0  0  0  0  0
   42.9781   12.0761   12.5530 H   0  0  0  0  0  0  0  0  0  0  0  0
   43.2717   13.8303   12.4906 H   0  0  0  0  0  0  0  0  0  0  0  0
   42.5773   13.1185    7.8394 H   0  0  0  0  0  0  0  0  0  0  0  0
   41.6427   11.6360    7.8088 H   0  0  0  0  0  0  0  0  0  0  0  0
   44.6905   11.7894    8.0076 H   0  0  0  0  0  0  0  0  0  0  0  0
   43.7345   11.2956    6.6084 H   0  0  0  0  0  0  0  0  0  0  0  0
   43.7452   10.2906    8.0663 H   0  0  0  0  0  0  0  0  0  0  0  0
   41.7575   14.1841   13.8471 H   0  0  0  0  0  0  0  0  0  0  0  0
   38.9671   13.5621   14.6715 H   0  0  0  0  0  0  0  0  0  0  0  0
   40.2971   14.0596   15.7278 H   0  0  0  0  0  0  0  0  0  0  0  0
   48.8730   13.2458   11.5453 H   0  0  0  0  0  0  0  0  0  0  0  0
   44.5703   12.4861    7.2721 H   0  0  0  0  0  0  0  0  0  0  0  0
   46.6277   12.0111    5.5692 H   0  0  0  0  0  0  0  0  0  0  0  0
   48.7667   12.1982    6.8973 H   0  0  0  0  0  0  0  0  0  0  0  0
   44.1575   13.7604   12.7600 H   0  0  0  0  0  0  0  0  0  0  0  0
   43.3416   12.4104    9.0806 H   0  0  0  0  0  0  0  0  0  0  0  0
   41.8289   14.1806    8.7599 H   0  0  0  0  0  0  0  0  0  0  0  0
   42.4762   15.4498   11.4599 H   0  0  0  0  0  0  0  0  0  0  0  0
   40.9476   15.4493   10.5507 H   0  0  0  0  0  0  0  0  0  0  0  0
   41.3788   11.9568   10.2618 H   0  0  0  0  0  0  0  0  0  0  0  0
   42.5261   11.7926   11.6112 H   0  0  0  0  0  0  0  0  0  0  0  0
   44.0803   15.0466    8.0982 H   0  0  0  0  0  0  0  0  0  0  0  0
   44.2690   15.7885    9.6869 H   0  0  0  0  0  0  0  0  0  0  0  0
   43.4878   17.4175    8.0030 H   0  0  0  0  0  0  0  0  0  0  0  0
   42.2761   17.2211    9.2753 H   0  0  0  0  0  0  0  0  0  0  0  0
   42.0405   16.4448    7.6964 H   0  0  0  0  0  0  0  0  0  0  0  0
   40.9615   11.7313   12.9587 H   0  0  0  0  0  0  0  0  0  0  0  0
   38.9151   11.2870   14.0978 H   0  0  0  0  0  0  0  0  0  0  0  0
   38.4240   12.9743   13.8926 H   0  0  0  0  0  0  0  0  0  0  0  0
  2  3  1  0
  4  5  1  0
  6  7  1  0
  7  2  2  0
  3 10  1  0
  3  4  2  0
  4  8  1  0
  8  9  2  0
  9 10  1  0
  5 13  1  0
  5  6  1  0
  6 11  2  0
 11 12  1  0
 12 13  2  0
 14 13  1  0
 14 15  1  0
 14 18  1  0
 15 16  1  0
 16 17  1  0
 17 18  1  0
 15 19  1  0
 19 20  1  0
 17 21  1  0
 21 22  1  0
 21 23  2  0
 22 24  1  0
 24 25  1  0
 25 26  1  0
 25 27  1  0
 25 28  1  0
 29 30  1  0
 31 32  1  0
 33 34  1  0
 34 29  2  0
 30 37  1  0
 30 31  2  0
 31 35  1  0
 35 36  2  0
 36 37  1  0
 32 40  1  0
 32 33  1  0
 33 38  2  0
 38 39  1  0
 39 40  2  0
 41 40  1  0
 41 42  1  0
 41 45  1  0
 42 43  1  0
 43 44  1  0
 44 45  1  0
 42 46  1  0
 46 47  1  0
 44 48  1  0
 48 49  1  0
 48 50  2  0
 49 51  1  0
 51 52  1  0
 52 53  1  0
 52 54  1  0
 52 55  1  0
  1 56  1  0
  1 57  1  0
  7 58  1  0
  8 59  1  0
  9 60  1  0
 10 61  1  0
 12 62  1  0
 14 63  1  1
 15 64  1  1
 16 65  1  0
 16 66  1  0
 18 67  1  0
 18 68  1  0
 19 69  1  0
 19 70  1  0
 20 71  1  0
 20 72  1  0
 20 73  1  0
 22 74  1  0
 24 75  1  0
 24 76  1  0
 34 77  1  0
 35 78  1  0
 36 79  1  0
 37 80  1  0
 39 81  1  0
 41 82  1  1
 42 83  1  1
 43 84  1  0
 43 85  1  0
 45 86  1  0
 45 87  1  0
 46 88  1  0
 46 89  1  0
 47 90  1  0
 47 91  1  0
 47 92  1  0
 49 93  1  0
 51 94  1  0
 51 95  1  0
M  END
> <Uni-Dock RESULT> 
ENERGY=   -4.244  LOWER_BOUND=    7.617  UPPER_BOUND=    9.546
INTER + INTRA:          -4.244
INTER:                  -4.244
INTRA:                   0.000
UNBOUND:                 0.000

$$$$

     RDKit          3D

 95100  0  0  0  0  0  0  0  0999 V2000
   49.3988    8.5241   15.8249 O   0  0  0  0  0  0  0  0  0  0  0  0
   50.6012    5.0357   19.5598 N   0  0  0  0  0  0  0  0  0  0  0  0
   49.3081    5.3918   19.3256 C   0  0  0  0  0  0  0  0  0  0  0  0
   48.7966    6.2841   18.4013 C   0  0  0  0  0  0  0  0  0  0  0  0
   49.7408    6.9250   17.5732 N   0  0  0  0  0  0  0  0  0  0  0  0
   51.0708    6.6090   17.7711 C   0  0  0  0  0  0  0  0  0  0  0  0
   51.4626    5.6458   18.7819 C   0  0  0  0  0  0  0  0  0  0  0  0
   47.3991    6.3218   18.5332 C   0  0  0  0  0  0  0  0  0  0  0  0
   47.0844    5.4375   19.5497 C   0  0  0  0  0  0  0  0  0  0  0  0
   48.2507    4.8788   20.0224 N   0  0  0  0  0  0  0  0  0  0  0  0
   51.8691    7.2757   16.9698 N   0  0  0  0  0  0  0  0  0  0  0  0
   51.0240    8.0526   16.2203 C   0  0  0  0  0  0  0  0  0  0  0  0
   49.6885    7.8539   16.5528 C   0  0  0  0  0  0  0  0  0  0  0  0
   48.4413    8.4890   16.0056 C   0  0  2  0  0  0  0  0  0  0  0  0
   48.1810    8.2529   14.5007 C   0  0  1  0  0  0  0  0  0  0  0  0
   48.9761    9.3647   13.8101 C   0  0  0  0  0  0  0  0  0  0  0  0
   49.0331   10.4469   14.7789 N   0  0  0  0  0  0  0  0  0  0  0  0
   48.5151   10.0257   16.0756 C   0  0  0  0  0  0  0  0  0  0  0  0
   48.4751    6.8674   13.9219 C   0  0  0  0  0  0  0  0  0  0  0  0
   47.5853    5.7810   14.5048 C   0  0  0  0  0  0  0  0  0  0  0  0
   49.3748   11.7121   14.3766 C   0  0  0  0  0  0  0  0  0  0  0  0
   49.3363   12.6640   15.3595 N   0  0  0  0  0  0  0  0  0  0  0  0
   49.6665   11.9865   13.2172 O   0  0  0  0  0  0  0  0  0  0  0  0
   49.7886   14.0237   15.0579 C   0  0  0  0  0  0  0  0  0  0  0  0
   51.3072   14.2167   15.0446 C   0  0  0  0  0  0  0  0  0  0  0  0
   51.9253   13.5396   14.0583 F   0  0  0  0  0  0  0  0  0  0  0  0
   51.6154   15.5272   14.9010 F   0  0  0  0  0  0  0  0  0  0  0  0
   51.8402   13.8091   16.2236 F   0  0  0  0  0  0  0  0  0  0  0  0
   47.6001    5.2007   19.8554 N   0  0  0  0  0  0  0  0  0  0  0  0
   47.8327    4.8447   18.5615 C   0  0  0  0  0  0  0  0  0  0  0  0
   48.1840    5.6364   17.4849 C   0  0  0  0  0  0  0  0  0  0  0  0
   48.3232    7.0114   17.7505 N   0  0  0  0  0  0  0  0  0  0  0  0
   48.1096    7.4335   19.0467 C   0  0  0  0  0  0  0  0  0  0  0  0
   47.7436    6.4848   20.0813 C   0  0  0  0  0  0  0  0  0  0  0  0
   48.3308    4.8267   16.3483 C   0  0  0  0  0  0  0  0  0  0  0  0
   48.0564    3.5348   16.7626 C   0  0  0  0  0  0  0  0  0  0  0  0
   47.7535    3.5587   18.1065 N   0  0  0  0  0  0  0  0  0  0  0  0
   48.2820    8.7281   19.1846 N   0  0  0  0  0  0  0  0  0  0  0  0
   48.6224    9.1609   17.9276 C   0  0  0  0  0  0  0  0  0  0  0  0
   48.6424    8.1244   17.0024 C   0  0  0  0  0  0  0  0  0  0  0  0
   48.9309    8.1245   15.5279 C   0  0  2  0  0  0  0  0  0  0  0  0
   50.4340    8.1630   15.1721 C   0  0  1  0  0  0  0  0  0  0  0  0
   50.7710    9.6572   15.2144 C   0  0  0  0  0  0  0  0  0  0  0  0
   49.5321   10.3320   14.8597 N   0  0  0  0  0  0  0  0  0  0  0  0
   48.4136    9.3968   14.8298 C   0  0  0  0  0  0  0  0  0  0  0  0
   51.3605    7.2880   16.0198 C   0  0  0  0  0  0  0  0  0  0  0  0
   52.7972    7.3048   15.5162 C   0  0  0  0  0  0  0  0  0  0  0  0
   49.5502   11.6445   14.4665 C   0  0  0  0  0  0  0  0  0  0  0  0
   48.3371   12.1545   14.0885 N   0  0  0  0  0  0  0  0  0  0  0  0
   50.5771   12.3140   14.4240 O   0  0  0  0  0  0  0  0  0  0  0  0
   48.2289   13.5777   13.7577 C   0  0  0  0  0  0  0  0  0  0  0  0
   48.1482   14.5192   14.9624 C   0  0  0  0  0  0  0  0  0  0  0  0
   49.2709   14.5380   15.7043 F   0  0  0  0  0  0  0  0  0  0  0  0
   47.9002   15.7866   14.5555 F   0  0  0  0  0  0  0  0  0  0  0  0
   47.1235   14.1530   15.7728 F   0  0  0  0  0  0  0  0  0  0  0  0
   49.0292    8.1199   16.6244 H   0  0  0  0  0  0  0  0  0  0  0  0
   49.1286    9.4525   15.8851 H   0  0  0  0  0  0  0  0  0  0  0  0
   52.5359    5.4245   18.8968 H   0  0  0  0  0  0  0  0  0  0  0  0
   46.6703    6.8955   17.9800 H   0  0  0  0  0  0  0  0  0  0  0  0
   46.1316    5.1542   19.9779 H   0  0  0  0  0  0  0  0  0  0  0  0
   48.3329    4.1965   20.7639 H   0  0  0  0  0  0  0  0  0  0  0  0
   51.4240    8.7272   15.4718 H   0  0  0  0  0  0  0  0  0  0  0  0
   47.5739    8.1624   16.5780 H   0  0  0  0  0  0  0  0  0  0  0  0
   47.1157    8.4692   14.3242 H   0  0  0  0  0  0  0  0  0  0  0  0
   50.0024    9.0670   13.5701 H   0  0  0  0  0  0  0  0  0  0  0  0
   48.4906    9.6985   12.8864 H   0  0  0  0  0  0  0  0  0  0  0  0
   47.5131   10.4593   16.1774 H   0  0  0  0  0  0  0  0  0  0  0  0
   49.1417   10.3980   16.8923 H   0  0  0  0  0  0  0  0  0  0  0  0
   49.5262    6.5933   14.0640 H   0  0  0  0  0  0  0  0  0  0  0  0
   48.3122    6.8975   12.8369 H   0  0  0  0  0  0  0  0  0  0  0  0
   47.7717    5.6385   15.5709 H   0  0  0  0  0  0  0  0  0  0  0  0
   47.7787    4.8270   14.0035 H   0  0  0  0  0  0  0  0  0  0  0  0
   46.5268    6.0248   14.3692 H   0  0  0  0  0  0  0  0  0  0  0  0
   49.5345   12.3326   16.2913 H   0  0  0  0  0  0  0  0  0  0  0  0
   49.3697   14.3317   14.0937 H   0  0  0  0  0  0  0  0  0  0  0  0
   49.3545   14.6653   15.8316 H   0  0  0  0  0  0  0  0  0  0  0  0
   47.5779    6.8691   21.1007 H   0  0  0  0  0  0  0  0  0  0  0  0
   48.6092    5.1029   15.3415 H   0  0  0  0  0  0  0  0  0  0  0  0
   48.0533    2.5978   16.2211 H   0  0  0  0  0  0  0  0  0  0  0  0
   47.5154    2.7629   18.6824 H   0  0  0  0  0  0  0  0  0  0  0  0
   48.8333   10.2091   17.7474 H   0  0  0  0  0  0  0  0  0  0  0  0
   48.4410    7.2662   15.0620 H   0  0  0  0  0  0  0  0  0  0  0  0
   50.5200    7.8359   14.1249 H   0  0  0  0  0  0  0  0  0  0  0  0
   51.0641    9.9935   16.2151 H   0  0  0  0  0  0  0  0  0  0  0  0
   51.5681    9.9206   14.5110 H   0  0  0  0  0  0  0  0  0  0  0  0
   48.1911    9.1986   13.7748 H   0  0  0  0  0  0  0  0  0  0  0  0
   47.5237    9.8260   15.2996 H   0  0  0  0  0  0  0  0  0  0  0  0
   51.0007    6.2535   16.0015 H   0  0  0  0  0  0  0  0  0  0  0  0
   51.3570    7.6139   17.0658 H   0  0  0  0  0  0  0  0  0  0  0  0
   53.4145    6.6302   16.1177 H   0  0  0  0  0  0  0  0  0  0  0  0
   53.2329    8.3059   15.5842 H   0  0  0  0  0  0  0  0  0  0  0  0
   52.8518    6.9738   14.4745 H   0  0  0  0  0  0  0  0  0  0  0  0
   47.5317   11.7452   14.5353 H   0  0  0  0  0  0  0  0  0  0  0  0
   47.3167   13.6811   13.1609 H   0  0  0  0  0  0  0  0  0  0  0  0
   49.0764   13.8615   13.1241 H   0  0  0  0  0  0  0  0  0  0  0  0
  2  3  1  0
  4  5  1  0
  6  7  1  0
  7  2  2  0
  3 10  1  0
  3  4  2  0
  4  8  1  0
  8  9  2  0
  9 10  1  0
  5 13  1  0
  5  6  1  0
  6 11  2  0
 11 12  1  0
 12 13  2  0
 14 13  1  0
 14 15  1  0
 14 18  1  0
 15 16  1  0
 16 17  1  0
 17 18  1  0
 15 19  1  0
 19 20  1  0
 17 21  1  0
 21 22  1  0
 21 23  2  0
 22 24  1  0
 24 25  1  0
 25 26  1  0
 25 27  1  0
 25 28  1  0
 29 30  1  0
 31 32  1  0
 33 34  1  0
 34 29  2  0
 30 37  1  0
 30 31  2  0
 31 35  1  0
 35 36  2  0
 36 37  1  0
 32 40  1  0
 32 33  1  0
 33 38  2  0
 38 39  1  0
 39 40  2  0
 41 40  1  0
 41 42  1  0
 41 45  1  0
 42 43  1  0
 43 44  1  0
 44 45  1  0
 42 46  1  0
 46 47  1  0
 44 48  1  0
 48 49  1  0
 48 50  2  0
 49 51  1  0
 51 52  1  0
 52 53  1  0
 52 54  1  0
 52 55  1  0
  1 56  1  0
  1 57  1  0
  7 58  1  0
  8 59  1  0
  9 60  1  0
 10 61  1  0
 12 62  1  0
 14 63  1  1
 15 64  1  1
 16 65  1  0
 16 66  1  0
 18 67  1  0
 18 68  1  0
 19 69  1  0
 19 70  1  0
 20 71  1  0
 20 72  1  0
 20 73  1  0
 22 74  1  0
 24 75  1  0
 24 76  1  0
 34 77  1  0
 35 78  1  0
 36 79  1  0
 37 80  1  0
 39 81  1  0
 41 82  1  1
 42 83  1  1
 43 84  1  0
 43 85  1  0
 45 86  1  0
 45 87  1  0
 46 88  1  0
 46 89  1  0
 47 90  1  0
 47 91  1  0
 47 92  1  0
 49 93  1  0
 51 94  1  0
 51 95  1  0
M  END
> <Uni-Dock RESULT> 
ENERGY=   -4.228  LOWER_BOUND=    5.027  UPPER_BOUND=    8.004
INTER + INTRA:          -4.228
INTER:                  -4.228
INTRA:                   0.000
UNBOUND:                 0.000

$$$$
