
     RDKit          3D

 95100  0  0  0  0  0  0  0  0999 V2000
   48.9142    8.0744   16.8726 O   0  0  0  0  0  0  0  0  0  0  0  0
   48.3255   11.4042   12.7287 N   0  0  0  0  0  0  0  0  0  0  0  0
   48.6502   11.5744   14.0402 C   0  0  0  0  0  0  0  0  0  0  0  0
   49.2431   10.6900   14.9272 C   0  0  0  0  0  0  0  0  0  0  0  0
   49.5361    9.4019   14.4182 N   0  0  0  0  0  0  0  0  0  0  0  0
   49.3107    9.2149   13.0596 C   0  0  0  0  0  0  0  0  0  0  0  0
   48.6806   10.2395   12.2529 C   0  0  0  0  0  0  0  0  0  0  0  0
   49.4655   11.3742   16.1358 C   0  0  0  0  0  0  0  0  0  0  0  0
   48.9288   12.6399   15.9831 C   0  0  0  0  0  0  0  0  0  0  0  0
   48.4335   12.7465   14.7061 N   0  0  0  0  0  0  0  0  0  0  0  0
   49.7635    8.0653   12.6230 N   0  0  0  0  0  0  0  0  0  0  0  0
   50.2351    7.4496   13.7451 C   0  0  0  0  0  0  0  0  0  0  0  0
   50.0171    8.1954   14.9019 C   0  0  0  0  0  0  0  0  0  0  0  0
   50.2634    7.7223   16.3057 C   0  0  2  0  0  0  0  0  0  0  0  0
   49.7983    6.2497   16.5562 C   0  0  1  0  0  0  0  0  0  0  0  0
   49.9479    6.1518   18.0788 C   0  0  0  0  0  0  0  0  0  0  0  0
   49.5485    7.4622   18.5530 N   0  0  0  0  0  0  0  0  0  0  0  0
   49.6260    8.4505   17.4840 C   0  0  0  0  0  0  0  0  0  0  0  0
   48.3400    5.9516   16.1252 C   0  0  0  0  0  0  0  0  0  0  0  0
   47.9969    4.4678   16.2187 C   0  0  0  0  0  0  0  0  0  0  0  0
   49.3660    7.6960   19.8909 C   0  0  0  0  0  0  0  0  0  0  0  0
   49.0296    8.9844   20.2026 N   0  0  0  0  0  0  0  0  0  0  0  0
   49.5219    6.8335   20.7480 O   0  0  0  0  0  0  0  0  0  0  0  0
   48.7300    9.3292   21.5945 C   0  0  0  0  0  0  0  0  0  0  0  0
   47.3221    8.9593   22.0698 C   0  0  0  0  0  0  0  0  0  0  0  0
   46.3911    9.5478   21.2764 F   0  0  0  0  0  0  0  0  0  0  0  0
   47.1136    9.4189   23.3273 F   0  0  0  0  0  0  0  0  0  0  0  0
   47.0855    7.6327   22.0677 F   0  0  0  0  0  0  0  0  0  0  0  0
   49.4063    8.7387   11.3127 N   0  0  0  0  0  0  0  0  0  0  0  0
   48.3147    8.8488   12.1198 C   0  0  0  0  0  0  0  0  0  0  0  0
   48.2187    8.6837   13.4888 C   0  0  0  0  0  0  0  0  0  0  0  0
   49.4148    8.3667   14.1559 N   0  0  0  0  0  0  0  0  0  0  0  0
   50.5553    8.2361   13.3905 C   0  0  0  0  0  0  0  0  0  0  0  0
   50.5088    8.4340   11.9542 C   0  0  0  0  0  0  0  0  0  0  0  0
   46.8876    8.8780   13.8844 C   0  0  0  0  0  0  0  0  0  0  0  0
   46.1881    9.1777   12.7275 C   0  0  0  0  0  0  0  0  0  0  0  0
   47.0632    9.1547   11.6632 N   0  0  0  0  0  0  0  0  0  0  0  0
   51.6061    7.9274   14.1152 N   0  0  0  0  0  0  0  0  0  0  0  0
   51.1298    7.8698   15.4007 C   0  0  0  0  0  0  0  0  0  0  0  0
   49.7699    8.1435   15.4682 C   0  0  0  0  0  0  0  0  0  0  0  0
   48.8280    8.2138   16.6225 C   0  0  2  0  0  0  0  0  0  0  0  0
   48.4986    9.6384   17.1296 C   0  0  1  0  0  0  0  0  0  0  0  0
   47.8445    9.3201   18.4829 C   0  0  0  0  0  0  0  0  0  0  0  0
   48.5367    8.1360   18.9646 N   0  0  0  0  0  0  0  0  0  0  0  0
   49.3000    7.5027   17.8969 C   0  0  0  0  0  0  0  0  0  0  0  0
   49.7306   10.5580   17.2742 C   0  0  0  0  0  0  0  0  0  0  0  0
   49.3717   11.9685   17.7262 C   0  0  0  0  0  0  0  0  0  0  0  0
   48.5178    7.8170   20.2963 C   0  0  0  0  0  0  0  0  0  0  0  0
   49.2865    6.7403   20.6463 N   0  0  0  0  0  0  0  0  0  0  0  0
   47.8875    8.4609   21.1292 O   0  0  0  0  0  0  0  0  0  0  0  0
   49.2436    6.2448   22.0239 C   0  0  0  0  0  0  0  0  0  0  0  0
   48.0512    5.3392   22.3416 C   0  0  0  0  0  0  0  0  0  0  0  0
   46.8667    5.9732   22.2616 F   0  0  0  0  0  0  0  0  0  0  0  0
   48.1594    4.8291   23.5905 F   0  0  0  0  0  0  0  0  0  0  0  0
   48.0186    4.2879   21.4810 F   0  0  0  0  0  0  0  0  0  0  0  0
   48.8322    8.8774   16.3363 H   0  0  0  0  0  0  0  0  0  0  0  0
   49.0049    8.4071   17.7783 H   0  0  0  0  0  0  0  0  0  0  0  0
   48.4925   10.0146   11.1910 H   0  0  0  0  0  0  0  0  0  0  0  0
   49.9769   11.0595   17.0300 H   0  0  0  0  0  0  0  0  0  0  0  0
   48.8814   13.4857   16.6605 H   0  0  0  0  0  0  0  0  0  0  0  0
   48.0047   13.5625   14.2931 H   0  0  0  0  0  0  0  0  0  0  0  0
   50.6613    6.4551   13.6842 H   0  0  0  0  0  0  0  0  0  0  0  0
   51.3534    7.7431   16.4535 H   0  0  0  0  0  0  0  0  0  0  0  0
   50.4728    5.5379   16.0613 H   0  0  0  0  0  0  0  0  0  0  0  0
   49.3489    5.3708   18.5529 H   0  0  0  0  0  0  0  0  0  0  0  0
   50.9993    6.0029   18.3601 H   0  0  0  0  0  0  0  0  0  0  0  0
   50.2634    9.2613   17.8369 H   0  0  0  0  0  0  0  0  0  0  0  0
   48.6146    8.8126   17.2779 H   0  0  0  0  0  0  0  0  0  0  0  0
   47.6265    6.5183   16.7343 H   0  0  0  0  0  0  0  0  0  0  0  0
   48.1715    6.2578   15.0888 H   0  0  0  0  0  0  0  0  0  0  0  0
   48.0666    4.1036   17.2462 H   0  0  0  0  0  0  0  0  0  0  0  0
   48.6680    3.8715   15.5921 H   0  0  0  0  0  0  0  0  0  0  0  0
   46.9714    4.2991   15.8729 H   0  0  0  0  0  0  0  0  0  0  0  0
   48.4906    9.4662   19.4988 H   0  0  0  0  0  0  0  0  0  0  0  0
   48.8614   10.4146   21.6726 H   0  0  0  0  0  0  0  0  0  0  0  0
   49.4729    8.8555   22.2459 H   0  0  0  0  0  0  0  0  0  0  0  0
   51.4471    8.3172   11.3852 H   0  0  0  0  0  0  0  0  0  0  0  0
   46.4529    8.8139   14.8725 H   0  0  0  0  0  0  0  0  0  0  0  0
   45.1418    9.3974   12.5669 H   0  0  0  0  0  0  0  0  0  0  0  0
   46.8345    9.3275   10.6950 H   0  0  0  0  0  0  0  0  0  0  0  0
   51.8012    7.6396   16.2197 H   0  0  0  0  0  0  0  0  0  0  0  0
   47.8877    7.7258   16.3320 H   0  0  0  0  0  0  0  0  0  0  0  0
   47.7781   10.1340   16.4702 H   0  0  0  0  0  0  0  0  0  0  0  0
   46.7936    9.0413   18.3479 H   0  0  0  0  0  0  0  0  0  0  0  0
   47.8904   10.1288   19.2147 H   0  0  0  0  0  0  0  0  0  0  0  0
   49.0947    6.4272   17.8639 H   0  0  0  0  0  0  0  0  0  0  0  0
   50.3625    7.6508   18.1185 H   0  0  0  0  0  0  0  0  0  0  0  0
   50.2364   10.6529   16.3051 H   0  0  0  0  0  0  0  0  0  0  0  0
   50.4563   10.1339   17.9792 H   0  0  0  0  0  0  0  0  0  0  0  0
   50.2646   12.6036   17.7096 H   0  0  0  0  0  0  0  0  0  0  0  0
   48.9805   11.9843   18.7491 H   0  0  0  0  0  0  0  0  0  0  0  0
   48.6253   12.4215   17.0634 H   0  0  0  0  0  0  0  0  0  0  0  0
   49.4308    6.0486   19.9284 H   0  0  0  0  0  0  0  0  0  0  0  0
   49.2534    7.0992   22.7099 H   0  0  0  0  0  0  0  0  0  0  0  0
   50.1716    5.6852   22.1744 H   0  0  0  0  0  0  0  0  0  0  0  0
  2  3  1  0
  4  5  1  0
  6  7  1  0
  7  2  2  0
  3 10  1  0
  3  4  2  0
  4  8  1  0
  8  9  2  0
  9 10  1  0
  5 13  1  0
  5  6  1  0
  6 11  2  0
 11 12  1  0
 12 13  2  0
 14 13  1  0
 14 15  1  0
 14 18  1  0
 15 16  1  0
 16 17  1  0
 17 18  1  0
 15 19  1  0
 19 20  1  0
 17 21  1  0
 21 22  1  0
 21 23  2  0
 22 24  1  0
 24 25  1  0
 25 26  1  0
 25 27  1  0
 25 28  1  0
 29 30  1  0
 31 32  1  0
 33 34  1  0
 34 29  2  0
 30 37  1  0
 30 31  2  0
 31 35  1  0
 35 36  2  0
 36 37  1  0
 32 40  1  0
 32 33  1  0
 33 38  2  0
 38 39  1  0
 39 40  2  0
 41 40  1  0
 41 42  1  0
 41 45  1  0
 42 43  1  0
 43 44  1  0
 44 45  1  0
 42 46  1  0
 46 47  1  0
 44 48  1  0
 48 49  1  0
 48 50  2  0
 49 51  1  0
 51 52  1  0
 52 53  1  0
 52 54  1  0
 52 55  1  0
  1 56  1  0
  1 57  1  0
  7 58  1  0
  8 59  1  0
  9 60  1  0
 10 61  1  0
 12 62  1  0
 14 63  1  1
 15 64  1  1
 16 65  1  0
 16 66  1  0
 18 67  1  0
 18 68  1  0
 19 69  1  0
 19 70  1  0
 20 71  1  0
 20 72  1  0
 20 73  1  0
 22 74  1  0
 24 75  1  0
 24 76  1  0
 34 77  1  0
 35 78  1  0
 36 79  1  0
 37 80  1  0
 39 81  1  0
 41 82  1  6
 42 83  1  6
 43 84  1  0
 43 85  1  0
 45 86  1  0
 45 87  1  0
 46 88  1  0
 46 89  1  0
 47 90  1  0
 47 91  1  0
 47 92  1  0
 49 93  1  0
 51 94  1  0
 51 95  1  0
M  END
> <Uni-Dock RESULT> 
ENERGY=   -5.005  LOWER_BOUND=    0.000  UPPER_BOUND=    0.000
INTER + INTRA:          -5.005
INTER:                  -5.005
INTRA:                   0.000
UNBOUND:                 0.000

$$$$

     RDKit          3D

 95100  0  0  0  0  0  0  0  0999 V2000
   48.3811    9.9240   12.1935 O   0  0  0  0  0  0  0  0  0  0  0  0
   53.7015   10.4674   12.2511 N   0  0  0  0  0  0  0  0  0  0  0  0
   52.6620   11.3440   12.1799 C   0  0  0  0  0  0  0  0  0  0  0  0
   51.3605   11.2127   12.6374 C   0  0  0  0  0  0  0  0  0  0  0  0
   51.0379    9.9767   13.2479 N   0  0  0  0  0  0  0  0  0  0  0  0
   52.0926    9.0898   13.4287 C   0  0  0  0  0  0  0  0  0  0  0  0
   53.4094    9.3667   12.8930 C   0  0  0  0  0  0  0  0  0  0  0  0
   50.7002   12.4353   12.4193 C   0  0  0  0  0  0  0  0  0  0  0  0
   51.5936   13.2597   11.7593 C   0  0  0  0  0  0  0  0  0  0  0  0
   52.7805   12.5824   11.6172 N   0  0  0  0  0  0  0  0  0  0  0  0
   51.7617    8.0475   14.1506 N   0  0  0  0  0  0  0  0  0  0  0  0
   50.4299    8.2212   14.3887 C   0  0  0  0  0  0  0  0  0  0  0  0
   49.9114    9.3497   13.7565 C   0  0  0  0  0  0  0  0  0  0  0  0
   48.4578    9.7192   13.6827 C   0  0  2  0  0  0  0  0  0  0  0  0
   47.5201    8.5004   13.3949 C   0  0  1  0  0  0  0  0  0  0  0  0
   46.1864    9.2124   13.1405 C   0  0  0  0  0  0  0  0  0  0  0  0
   46.5656   10.4207   12.4350 N   0  0  0  0  0  0  0  0  0  0  0  0
   47.9743   10.7300   12.6485 C   0  0  0  0  0  0  0  0  0  0  0  0
   47.9311    7.6456   12.1695 C   0  0  0  0  0  0  0  0  0  0  0  0
   47.0990    6.3730   12.0417 C   0  0  0  0  0  0  0  0  0  0  0  0
   45.6141   11.2253   11.8648 C   0  0  0  0  0  0  0  0  0  0  0  0
   46.1063   12.3523   11.2665 N   0  0  0  0  0  0  0  0  0  0  0  0
   44.4142   10.9787   11.9116 O   0  0  0  0  0  0  0  0  0  0  0  0
   45.1879   13.2435   10.5535 C   0  0  0  0  0  0  0  0  0  0  0  0
   44.8034   12.7908    9.1421 C   0  0  0  0  0  0  0  0  0  0  0  0
   45.9171   12.6323    8.3823 F   0  0  0  0  0  0  0  0  0  0  0  0
   44.0449   13.7351    8.5348 F   0  0  0  0  0  0  0  0  0  0  0  0
   44.1199   11.6298    9.1177 F   0  0  0  0  0  0  0  0  0  0  0  0
   53.2634    7.8594   14.0634 N   0  0  0  0  0  0  0  0  0  0  0  0
   52.8185    8.0529   12.7907 C   0  0  0  0  0  0  0  0  0  0  0  0
   51.6117    8.5668   12.3544 C   0  0  0  0  0  0  0  0  0  0  0  0
   50.7105    8.9592   13.3594 N   0  0  0  0  0  0  0  0  0  0  0  0
   51.1025    8.7826   14.6704 C   0  0  0  0  0  0  0  0  0  0  0  0
   52.4038    8.2238   14.9844 C   0  0  0  0  0  0  0  0  0  0  0  0
   51.5883    8.5616   10.9525 C   0  0  0  0  0  0  0  0  0  0  0  0
   52.8110    8.0478   10.5547 C   0  0  0  0  0  0  0  0  0  0  0  0
   53.5479    7.7404   11.6778 N   0  0  0  0  0  0  0  0  0  0  0  0
   50.1798    9.1707   15.5204 N   0  0  0  0  0  0  0  0  0  0  0  0
   49.1570    9.6290   14.7289 C   0  0  0  0  0  0  0  0  0  0  0  0
   49.4520    9.5194   13.3763 C   0  0  0  0  0  0  0  0  0  0  0  0
   48.6762    9.8923   12.1582 C   0  0  2  0  0  0  0  0  0  0  0  0
   49.0799   11.2302   11.4931 C   0  0  1  0  0  0  0  0  0  0  0  0
   47.8860   11.4584   10.5534 C   0  0  0  0  0  0  0  0  0  0  0  0
   46.7419   10.9061   11.2601 N   0  0  0  0  0  0  0  0  0  0  0  0
   47.1668   10.0626   12.3699 C   0  0  0  0  0  0  0  0  0  0  0  0
   49.2768   12.3954   12.4869 C   0  0  0  0  0  0  0  0  0  0  0  0
   49.7227   13.6865   11.8109 C   0  0  0  0  0  0  0  0  0  0  0  0
   45.4709   11.2955   10.9305 C   0  0  0  0  0  0  0  0  0  0  0  0
   44.4826   10.7876   11.7293 N   0  0  0  0  0  0  0  0  0  0  0  0
   45.2261   12.0678   10.0090 O   0  0  0  0  0  0  0  0  0  0  0  0
   43.0815   11.0472   11.3911 C   0  0  0  0  0  0  0  0  0  0  0  0
   42.5043   10.1326   10.3079 C   0  0  0  0  0  0  0  0  0  0  0  0
   43.0908   10.2954    9.1075 F   0  0  0  0  0  0  0  0  0  0  0  0
   41.1791   10.3577   10.1502 F   0  0  0  0  0  0  0  0  0  0  0  0
   42.6493    8.8303   10.6679 F   0  0  0  0  0  0  0  0  0  0  0  0
   49.2726   10.3002   12.1394 H   0  0  0  0  0  0  0  0  0  0  0  0
   47.7999   10.6710   11.9850 H   0  0  0  0  0  0  0  0  0  0  0  0
   54.1928    8.6052   13.0349 H   0  0  0  0  0  0  0  0  0  0  0  0
   49.7143   12.7559   12.7115 H   0  0  0  0  0  0  0  0  0  0  0  0
   51.5002   14.2801   11.4038 H   0  0  0  0  0  0  0  0  0  0  0  0
   53.6287   12.9360   11.1980 H   0  0  0  0  0  0  0  0  0  0  0  0
   49.8767    7.4853   14.9604 H   0  0  0  0  0  0  0  0  0  0  0  0
   48.1849   10.1052   14.6763 H   0  0  0  0  0  0  0  0  0  0  0  0
   47.4422    7.8510   14.2773 H   0  0  0  0  0  0  0  0  0  0  0  0
   45.4595    8.6391   12.5607 H   0  0  0  0  0  0  0  0  0  0  0  0
   45.7168    9.5137   14.0868 H   0  0  0  0  0  0  0  0  0  0  0  0
   48.0283   11.7470   13.0371 H   0  0  0  0  0  0  0  0  0  0  0  0
   48.4916   10.6528   11.6878 H   0  0  0  0  0  0  0  0  0  0  0  0
   47.8417    8.2210   11.2411 H   0  0  0  0  0  0  0  0  0  0  0  0
   48.9790    7.3407   12.2431 H   0  0  0  0  0  0  0  0  0  0  0  0
   46.0417    6.5988   11.8854 H   0  0  0  0  0  0  0  0  0  0  0  0
   47.1931    5.7530   12.9391 H   0  0  0  0  0  0  0  0  0  0  0  0
   47.4456    5.7846   11.1853 H   0  0  0  0  0  0  0  0  0  0  0  0
   47.0297   12.2563   10.8714 H   0  0  0  0  0  0  0  0  0  0  0  0
   45.6933   14.2143   10.4938 H   0  0  0  0  0  0  0  0  0  0  0  0
   44.2818   13.3756   11.1554 H   0  0  0  0  0  0  0  0  0  0  0  0
   52.6712    8.1007   16.0480 H   0  0  0  0  0  0  0  0  0  0  0  0
   50.8014    8.8789   10.2818 H   0  0  0  0  0  0  0  0  0  0  0  0
   53.2186    7.8660    9.5699 H   0  0  0  0  0  0  0  0  0  0  0  0
   54.4759    7.3427   11.6959 H   0  0  0  0  0  0  0  0  0  0  0  0
   48.2554   10.0257   15.1809 H   0  0  0  0  0  0  0  0  0  0  0  0
   48.7910    9.0905   11.4161 H   0  0  0  0  0  0  0  0  0  0  0  0
   50.0012   11.1182   10.9113 H   0  0  0  0  0  0  0  0  0  0  0  0
   48.0023   10.8762    9.6326 H   0  0  0  0  0  0  0  0  0  0  0  0
   47.7137   12.5004   10.2775 H   0  0  0  0  0  0  0  0  0  0  0  0
   46.6404    9.1022   12.3458 H   0  0  0  0  0  0  0  0  0  0  0  0
   46.9062   10.5827   13.2981 H   0  0  0  0  0  0  0  0  0  0  0  0
   50.0540   12.1322   13.2154 H   0  0  0  0  0  0  0  0  0  0  0  0
   48.3559   12.5904   13.0505 H   0  0  0  0  0  0  0  0  0  0  0  0
   49.9486   14.4451   12.5686 H   0  0  0  0  0  0  0  0  0  0  0  0
   48.9440   14.0988   11.1601 H   0  0  0  0  0  0  0  0  0  0  0  0
   50.6273   13.5307   11.2118 H   0  0  0  0  0  0  0  0  0  0  0  0
   44.6787    9.9007   12.1647 H   0  0  0  0  0  0  0  0  0  0  0  0
   42.9771   12.0946   11.0862 H   0  0  0  0  0  0  0  0  0  0  0  0
   42.5152   10.9112   12.3172 H   0  0  0  0  0  0  0  0  0  0  0  0
  2  3  1  0
  4  5  1  0
  6  7  1  0
  7  2  2  0
  3 10  1  0
  3  4  2  0
  4  8  1  0
  8  9  2  0
  9 10  1  0
  5 13  1  0
  5  6  1  0
  6 11  2  0
 11 12  1  0
 12 13  2  0
 14 13  1  0
 14 15  1  0
 14 18  1  0
 15 16  1  0
 16 17  1  0
 17 18  1  0
 15 19  1  0
 19 20  1  0
 17 21  1  0
 21 22  1  0
 21 23  2  0
 22 24  1  0
 24 25  1  0
 25 26  1  0
 25 27  1  0
 25 28  1  0
 29 30  1  0
 31 32  1  0
 33 34  1  0
 34 29  2  0
 30 37  1  0
 30 31  2  0
 31 35  1  0
 35 36  2  0
 36 37  1  0
 32 40  1  0
 32 33  1  0
 33 38  2  0
 38 39  1  0
 39 40  2  0
 41 40  1  0
 41 42  1  0
 41 45  1  0
 42 43  1  0
 43 44  1  0
 44 45  1  0
 42 46  1  0
 46 47  1  0
 44 48  1  0
 48 49  1  0
 48 50  2  0
 49 51  1  0
 51 52  1  0
 52 53  1  0
 52 54  1  0
 52 55  1  0
  1 56  1  0
  1 57  1  0
  7 58  1  0
  8 59  1  0
  9 60  1  0
 10 61  1  0
 12 62  1  0
 14 63  1  1
 15 64  1  1
 16 65  1  0
 16 66  1  0
 18 67  1  0
 18 68  1  0
 19 69  1  0
 19 70  1  0
 20 71  1  0
 20 72  1  0
 20 73  1  0
 22 74  1  0
 24 75  1  0
 24 76  1  0
 34 77  1  0
 35 78  1  0
 36 79  1  0
 37 80  1  0
 39 81  1  0
 41 82  1  6
 42 83  1  6
 43 84  1  0
 43 85  1  0
 45 86  1  0
 45 87  1  0
 46 88  1  0
 46 89  1  0
 47 90  1  0
 47 91  1  0
 47 92  1  0
 49 93  1  0
 51 94  1  0
 51 95  1  0
M  END
> <Uni-Dock RESULT> 
ENERGY=   -4.873  LOWER_BOUND=    5.702  UPPER_BOUND=    8.060
INTER + INTRA:          -4.873
INTER:                  -4.873
INTRA:                   0.000
UNBOUND:                 0.000

$$$$

     RDKit          3D

 95100  0  0  0  0  0  0  0  0999 V2000
   47.3713   10.0881   12.7584 O   0  0  0  0  0  0  0  0  0  0  0  0
   48.8951    5.9718   15.8145 N   0  0  0  0  0  0  0  0  0  0  0  0
   48.0421    6.1029   14.7612 C   0  0  0  0  0  0  0  0  0  0  0  0
   48.0410    7.0328   13.7337 C   0  0  0  0  0  0  0  0  0  0  0  0
   49.0551    8.0192   13.7868 N   0  0  0  0  0  0  0  0  0  0  0  0
   50.0049    7.8669   14.7899 C   0  0  0  0  0  0  0  0  0  0  0  0
   49.8742    6.8378   15.8007 C   0  0  0  0  0  0  0  0  0  0  0  0
   47.0186    6.6813   12.8339 C   0  0  0  0  0  0  0  0  0  0  0  0
   46.3668    5.5886   13.3767 C   0  0  0  0  0  0  0  0  0  0  0  0
   46.9970    5.2502   14.5496 N   0  0  0  0  0  0  0  0  0  0  0  0
   51.0043    8.7067   14.6750 N   0  0  0  0  0  0  0  0  0  0  0  0
   50.6622    9.4812   13.6055 C   0  0  0  0  0  0  0  0  0  0  0  0
   49.4083    9.1625   13.0876 C   0  0  0  0  0  0  0  0  0  0  0  0
   48.6785    9.9366   12.0278 C   0  0  2  0  0  0  0  0  0  0  0  0
   48.7710   11.4870   12.2154 C   0  0  1  0  0  0  0  0  0  0  0  0
   47.7612   11.9682   11.1670 C   0  0  0  0  0  0  0  0  0  0  0  0
   46.7050   10.9767   11.2197 N   0  0  0  0  0  0  0  0  0  0  0  0
   47.1795    9.7399   11.8288 C   0  0  0  0  0  0  0  0  0  0  0  0
   48.3809   11.9902   13.6281 C   0  0  0  0  0  0  0  0  0  0  0  0
   48.6625   13.4782   13.8146 C   0  0  0  0  0  0  0  0  0  0  0  0
   45.5243   11.1765   10.5535 C   0  0  0  0  0  0  0  0  0  0  0  0
   44.6321   10.1450   10.6549 N   0  0  0  0  0  0  0  0  0  0  0  0
   45.2920   12.1815    9.8910 O   0  0  0  0  0  0  0  0  0  0  0  0
   43.3050   10.2845   10.0507 C   0  0  0  0  0  0  0  0  0  0  0  0
   42.2971   11.0960   10.8698 C   0  0  0  0  0  0  0  0  0  0  0  0
   42.1473   10.5478   12.1026 F   0  0  0  0  0  0  0  0  0  0  0  0
   41.0787   11.0694   10.2775 F   0  0  0  0  0  0  0  0  0  0  0  0
   42.6518   12.3857   11.0331 F   0  0  0  0  0  0  0  0  0  0  0  0
   51.5291    7.7988   15.7696 N   0  0  0  0  0  0  0  0  0  0  0  0
   50.2769    8.1813   16.1451 C   0  0  0  0  0  0  0  0  0  0  0  0
   49.2678    8.7404   15.3836 C   0  0  0  0  0  0  0  0  0  0  0  0
   49.5608    8.9377   14.0229 N   0  0  0  0  0  0  0  0  0  0  0  0
   50.8169    8.5743   13.5830 C   0  0  0  0  0  0  0  0  0  0  0  0
   51.7839    7.9997   14.4990 C   0  0  0  0  0  0  0  0  0  0  0  0
   48.1557    8.9864   16.2013 C   0  0  0  0  0  0  0  0  0  0  0  0
   48.5113    8.5504   17.4665 C   0  0  0  0  0  0  0  0  0  0  0  0
   49.8008    8.0664   17.4211 N   0  0  0  0  0  0  0  0  0  0  0  0
   50.9825    8.8145   12.3025 N   0  0  0  0  0  0  0  0  0  0  0  0
   49.7825    9.3405   11.8955 C   0  0  0  0  0  0  0  0  0  0  0  0
   48.8684    9.4279   12.9374 C   0  0  0  0  0  0  0  0  0  0  0  0
   47.4573    9.9089   12.9817 C   0  0  2  0  0  0  0  0  0  0  0  0
   46.3742    8.8036   12.9612 C   0  0  1  0  0  0  0  0  0  0  0  0
   45.1195    9.6334   12.6488 C   0  0  0  0  0  0  0  0  0  0  0  0
   45.5846   10.7052   11.7838 N   0  0  0  0  0  0  0  0  0  0  0  0
   47.0374   10.8145   11.8174 C   0  0  0  0  0  0  0  0  0  0  0  0
   46.6219    7.6959   11.9143 C   0  0  0  0  0  0  0  0  0  0  0  0
   45.5683    6.5953   11.9504 C   0  0  0  0  0  0  0  0  0  0  0  0
   44.7029   11.3788   10.9810 C   0  0  0  0  0  0  0  0  0  0  0  0
   45.2694   12.2956   10.1377 N   0  0  0  0  0  0  0  0  0  0  0  0
   43.4951   11.1623   10.9854 O   0  0  0  0  0  0  0  0  0  0  0  0
   44.4048   13.1519    9.3226 C   0  0  0  0  0  0  0  0  0  0  0  0
   43.8312   14.3665   10.0567 C   0  0  0  0  0  0  0  0  0  0  0  0
   42.9931   14.0356   11.0564 F   0  0  0  0  0  0  0  0  0  0  0  0
   43.1522   15.1644    9.1999 F   0  0  0  0  0  0  0  0  0  0  0  0
   44.8365   15.1116   10.5868 F   0  0  0  0  0  0  0  0  0  0  0  0
   47.4289    9.2105   13.1656 H   0  0  0  0  0  0  0  0  0  0  0  0
   46.6284   10.0101   12.1409 H   0  0  0  0  0  0  0  0  0  0  0  0
   50.6387    6.7949   16.5926 H   0  0  0  0  0  0  0  0  0  0  0  0
   46.7577    7.1026   11.8775 H   0  0  0  0  0  0  0  0  0  0  0  0
   45.5278    5.0025   13.0176 H   0  0  0  0  0  0  0  0  0  0  0  0
   46.7637    4.4775   15.1569 H   0  0  0  0  0  0  0  0  0  0  0  0
   51.3111   10.2881   13.2857 H   0  0  0  0  0  0  0  0  0  0  0  0
   49.1734    9.6996   11.0741 H   0  0  0  0  0  0  0  0  0  0  0  0
   49.7777   11.8506   11.9687 H   0  0  0  0  0  0  0  0  0  0  0  0
   47.3592   12.9696   11.3377 H   0  0  0  0  0  0  0  0  0  0  0  0
   48.1975   11.9356   10.1594 H   0  0  0  0  0  0  0  0  0  0  0  0
   46.9787    8.9329   11.1241 H   0  0  0  0  0  0  0  0  0  0  0  0
   46.6318    9.5858   12.7630 H   0  0  0  0  0  0  0  0  0  0  0  0
   47.3208   11.8028   13.8333 H   0  0  0  0  0  0  0  0  0  0  0  0
   48.9431   11.4557   14.3992 H   0  0  0  0  0  0  0  0  0  0  0  0
   48.0728   14.0877   13.1261 H   0  0  0  0  0  0  0  0  0  0  0  0
   49.7227   13.6984   13.6530 H   0  0  0  0  0  0  0  0  0  0  0  0
   48.4049   13.7821   14.8349 H   0  0  0  0  0  0  0  0  0  0  0  0
   44.6751    9.6280   11.5203 H   0  0  0  0  0  0  0  0  0  0  0  0
   42.9232    9.2654    9.9198 H   0  0  0  0  0  0  0  0  0  0  0  0
   43.4124   10.7309    9.0558 H   0  0  0  0  0  0  0  0  0  0  0  0
   52.7758    7.7264   14.0999 H   0  0  0  0  0  0  0  0  0  0  0  0
   47.2019    9.4256   15.9423 H   0  0  0  0  0  0  0  0  0  0  0  0
   47.9624    8.5496   18.3979 H   0  0  0  0  0  0  0  0  0  0  0  0
   50.3274    7.6893   18.1958 H   0  0  0  0  0  0  0  0  0  0  0  0
   49.6363    9.6242   10.8597 H   0  0  0  0  0  0  0  0  0  0  0  0
   47.3236   10.5050   13.8947 H   0  0  0  0  0  0  0  0  0  0  0  0
   46.2773    8.3294   13.9437 H   0  0  0  0  0  0  0  0  0  0  0  0
   44.7316   10.1047   13.5586 H   0  0  0  0  0  0  0  0  0  0  0  0
   44.3061    9.0748   12.1820 H   0  0  0  0  0  0  0  0  0  0  0  0
   47.3406   11.8546   11.9794 H   0  0  0  0  0  0  0  0  0  0  0  0
   47.4155   10.4863   10.8430 H   0  0  0  0  0  0  0  0  0  0  0  0
   47.5902    7.2166   12.1059 H   0  0  0  0  0  0  0  0  0  0  0  0
   46.6618    8.1151   10.9013 H   0  0  0  0  0  0  0  0  0  0  0  0
   45.8494    5.7878   11.2651 H   0  0  0  0  0  0  0  0  0  0  0  0
   44.5839    6.9596   11.6373 H   0  0  0  0  0  0  0  0  0  0  0  0
   45.4749    6.1660   12.9546 H   0  0  0  0  0  0  0  0  0  0  0  0
   46.1364   12.7041   10.4476 H   0  0  0  0  0  0  0  0  0  0  0  0
   43.5883   12.5465    8.9132 H   0  0  0  0  0  0  0  0  0  0  0  0
   45.0193   13.4941    8.4846 H   0  0  0  0  0  0  0  0  0  0  0  0
  2  3  1  0
  4  5  1  0
  6  7  1  0
  7  2  2  0
  3 10  1  0
  3  4  2  0
  4  8  1  0
  8  9  2  0
  9 10  1  0
  5 13  1  0
  5  6  1  0
  6 11  2  0
 11 12  1  0
 12 13  2  0
 14 13  1  0
 14 15  1  0
 14 18  1  0
 15 16  1  0
 16 17  1  0
 17 18  1  0
 15 19  1  0
 19 20  1  0
 17 21  1  0
 21 22  1  0
 21 23  2  0
 22 24  1  0
 24 25  1  0
 25 26  1  0
 25 27  1  0
 25 28  1  0
 29 30  1  0
 31 32  1  0
 33 34  1  0
 34 29  2  0
 30 37  1  0
 30 31  2  0
 31 35  1  0
 35 36  2  0
 36 37  1  0
 32 40  1  0
 32 33  1  0
 33 38  2  0
 38 39  1  0
 39 40  2  0
 41 40  1  0
 41 42  1  0
 41 45  1  0
 42 43  1  0
 43 44  1  0
 44 45  1  0
 42 46  1  0
 46 47  1  0
 44 48  1  0
 48 49  1  0
 48 50  2  0
 49 51  1  0
 51 52  1  0
 52 53  1  0
 52 54  1  0
 52 55  1  0
  1 56  1  0
  1 57  1  0
  7 58  1  0
  8 59  1  0
  9 60  1  0
 10 61  1  0
 12 62  1  0
 14 63  1  1
 15 64  1  1
 16 65  1  0
 16 66  1  0
 18 67  1  0
 18 68  1  0
 19 69  1  0
 19 70  1  0
 20 71  1  0
 20 72  1  0
 20 73  1  0
 22 74  1  0
 24 75  1  0
 24 76  1  0
 34 77  1  0
 35 78  1  0
 36 79  1  0
 37 80  1  0
 39 81  1  0
 41 82  1  6
 42 83  1  6
 43 84  1  0
 43 85  1  0
 45 86  1  0
 45 87  1  0
 46 88  1  0
 46 89  1  0
 47 90  1  0
 47 91  1  0
 47 92  1  0
 49 93  1  0
 51 94  1  0
 51 95  1  0
M  END
> <Uni-Dock RESULT> 
ENERGY=   -4.760  LOWER_BOUND=    4.887  UPPER_BOUND=    8.606
INTER + INTRA:          -4.760
INTER:                  -4.760
INTRA:                   0.000
UNBOUND:                 0.000

$$$$

     RDKit          3D

 95100  0  0  0  0  0  0  0  0999 V2000
   48.9024   10.0303   18.7433 O   0  0  0  0  0  0  0  0  0  0  0  0
   50.7278   12.7017   14.4846 N   0  0  0  0  0  0  0  0  0  0  0  0
   50.0425   11.5363   14.6477 C   0  0  0  0  0  0  0  0  0  0  0  0
   49.2013   11.1407   15.6754 C   0  0  0  0  0  0  0  0  0  0  0  0
   49.0412   12.0627   16.7377 N   0  0  0  0  0  0  0  0  0  0  0  0
   49.6448   13.3031   16.5675 C   0  0  0  0  0  0  0  0  0  0  0  0
   50.5013   13.5741   15.4314 C   0  0  0  0  0  0  0  0  0  0  0  0
   48.6540    9.8920   15.3294 C   0  0  0  0  0  0  0  0  0  0  0  0
   49.2375    9.5178   14.1324 C   0  0  0  0  0  0  0  0  0  0  0  0
   50.0819   10.5248   13.7316 N   0  0  0  0  0  0  0  0  0  0  0  0
   49.3137   14.1614   17.5006 N   0  0  0  0  0  0  0  0  0  0  0  0
   48.5264   13.4389   18.3483 C   0  0  0  0  0  0  0  0  0  0  0  0
   48.4168   12.1009   17.9744 C   0  0  0  0  0  0  0  0  0  0  0  0
   47.7669   11.0174   18.7860 C   0  0  2  0  0  0  0  0  0  0  0  0
   48.1100   11.0918   20.3106 C   0  0  1  0  0  0  0  0  0  0  0  0
   47.5261    9.7636   20.8060 C   0  0  0  0  0  0  0  0  0  0  0  0
   47.7985    8.8383   19.7239 N   0  0  0  0  0  0  0  0  0  0  0  0
   48.0524    9.5516   18.4780 C   0  0  0  0  0  0  0  0  0  0  0  0
   49.6243   11.1806   20.6275 C   0  0  0  0  0  0  0  0  0  0  0  0
   49.8957   11.4352   22.1072 C   0  0  0  0  0  0  0  0  0  0  0  0
   47.5924    7.4932   19.8855 C   0  0  0  0  0  0  0  0  0  0  0  0
   47.8508    6.7403   18.7734 N   0  0  0  0  0  0  0  0  0  0  0  0
   47.1786    7.0006   20.9291 O   0  0  0  0  0  0  0  0  0  0  0  0
   47.7435    5.2817   18.8558 C   0  0  0  0  0  0  0  0  0  0  0  0
   48.9469    4.5733   19.4844 C   0  0  0  0  0  0  0  0  0  0  0  0
   50.0788    4.8782   18.8000 F   0  0  0  0  0  0  0  0  0  0  0  0
   48.7935    3.2291   19.4108 F   0  0  0  0  0  0  0  0  0  0  0  0
   49.1471    4.8986   20.7767 F   0  0  0  0  0  0  0  0  0  0  0  0
   50.0469   15.0708   16.5345 N   0  0  0  0  0  0  0  0  0  0  0  0
   50.8617   14.0033   16.7625 C   0  0  0  0  0  0  0  0  0  0  0  0
   50.5557   12.7694   17.3052 C   0  0  0  0  0  0  0  0  0  0  0  0
   49.2119   12.5728   17.6681 N   0  0  0  0  0  0  0  0  0  0  0  0
   48.3380   13.6211   17.4662 C   0  0  0  0  0  0  0  0  0  0  0  0
   48.8004   14.8687   16.8883 C   0  0  0  0  0  0  0  0  0  0  0  0
   51.7200   11.9904   17.3645 C   0  0  0  0  0  0  0  0  0  0  0  0
   52.7291   12.7756   16.8329 C   0  0  0  0  0  0  0  0  0  0  0  0
   52.1976   13.9951   16.4735 N   0  0  0  0  0  0  0  0  0  0  0  0
   47.1169   13.3300   17.8519 N   0  0  0  0  0  0  0  0  0  0  0  0
   47.2012   12.0387   18.3081 C   0  0  0  0  0  0  0  0  0  0  0  0
   48.4893   11.5297   18.2046 C   0  0  0  0  0  0  0  0  0  0  0  0
   49.0597   10.1957   18.5504 C   0  0  2  0  0  0  0  0  0  0  0  0
   49.2580    9.2257   17.3608 C   0  0  1  0  0  0  0  0  0  0  0  0
   49.4878    7.9003   18.1031 C   0  0  0  0  0  0  0  0  0  0  0  0
   48.6622    7.9908   19.2962 N   0  0  0  0  0  0  0  0  0  0  0  0
   48.2263    9.3614   19.5309 C   0  0  0  0  0  0  0  0  0  0  0  0
   48.0555    9.1573   16.3945 C   0  0  0  0  0  0  0  0  0  0  0  0
   48.2975    8.2340   15.2064 C   0  0  0  0  0  0  0  0  0  0  0  0
   48.2900    6.8568   19.9680 C   0  0  0  0  0  0  0  0  0  0  0  0
   47.4313    7.0575   21.0145 N   0  0  0  0  0  0  0  0  0  0  0  0
   48.6666    5.7346   19.6452 O   0  0  0  0  0  0  0  0  0  0  0  0
   47.0654    5.9266   21.8701 C   0  0  0  0  0  0  0  0  0  0  0  0
   48.0970    5.5774   22.9457 C   0  0  0  0  0  0  0  0  0  0  0  0
   49.2669    5.1460   22.4392 F   0  0  0  0  0  0  0  0  0  0  0  0
   47.6232    4.6095   23.7644 F   0  0  0  0  0  0  0  0  0  0  0  0
   48.3548    6.6651   23.7186 F   0  0  0  0  0  0  0  0  0  0  0  0
   49.1517   10.2658   17.8369 H   0  0  0  0  0  0  0  0  0  0  0  0
   48.5613    9.1266   18.6639 H   0  0  0  0  0  0  0  0  0  0  0  0
   50.9828   14.5633   15.3749 H   0  0  0  0  0  0  0  0  0  0  0  0
   47.9003    9.3015   15.8227 H   0  0  0  0  0  0  0  0  0  0  0  0
   49.1048    8.6366   13.5141 H   0  0  0  0  0  0  0  0  0  0  0  0
   50.6280   10.5498   12.8822 H   0  0  0  0  0  0  0  0  0  0  0  0
   48.1157   13.9001   19.2388 H   0  0  0  0  0  0  0  0  0  0  0  0
   46.6812   11.1701   18.6946 H   0  0  0  0  0  0  0  0  0  0  0  0
   47.5924   11.9358   20.7864 H   0  0  0  0  0  0  0  0  0  0  0  0
   47.9470    9.3949   21.7442 H   0  0  0  0  0  0  0  0  0  0  0  0
   46.4354    9.8329   20.9174 H   0  0  0  0  0  0  0  0  0  0  0  0
   47.3569    9.1633   17.7338 H   0  0  0  0  0  0  0  0  0  0  0  0
   49.0874    9.3620   18.1792 H   0  0  0  0  0  0  0  0  0  0  0  0
   50.1433   10.2637   20.3257 H   0  0  0  0  0  0  0  0  0  0  0  0
   50.0905   11.9967   20.0681 H   0  0  0  0  0  0  0  0  0  0  0  0
   49.5254   10.6176   22.7297 H   0  0  0  0  0  0  0  0  0  0  0  0
   49.4216   12.3653   22.4368 H   0  0  0  0  0  0  0  0  0  0  0  0
   50.9737   11.5248   22.2792 H   0  0  0  0  0  0  0  0  0  0  0  0
   48.5794    7.0999   18.1753 H   0  0  0  0  0  0  0  0  0  0  0  0
   47.6173    4.9287   17.8258 H   0  0  0  0  0  0  0  0  0  0  0  0
   46.8350    5.0228   19.4109 H   0  0  0  0  0  0  0  0  0  0  0  0
   48.0637   15.6783   16.7477 H   0  0  0  0  0  0  0  0  0  0  0  0
   51.8501   10.9851   17.7412 H   0  0  0  0  0  0  0  0  0  0  0  0
   53.7816   12.5763   16.6864 H   0  0  0  0  0  0  0  0  0  0  0  0
   52.6990   14.7713   16.0665 H   0  0  0  0  0  0  0  0  0  0  0  0
   46.3177   11.5357   18.6835 H   0  0  0  0  0  0  0  0  0  0  0  0
   50.0338   10.3509   19.0341 H   0  0  0  0  0  0  0  0  0  0  0  0
   50.1479    9.4916   16.7804 H   0  0  0  0  0  0  0  0  0  0  0  0
   50.5271    7.8218   18.4407 H   0  0  0  0  0  0  0  0  0  0  0  0
   49.2494    7.0052   17.5255 H   0  0  0  0  0  0  0  0  0  0  0  0
   48.4104    9.6502   20.5714 H   0  0  0  0  0  0  0  0  0  0  0  0
   47.1482    9.4017   19.3408 H   0  0  0  0  0  0  0  0  0  0  0  0
   47.8525   10.1554   15.9863 H   0  0  0  0  0  0  0  0  0  0  0  0
   47.1490    8.8301   16.9186 H   0  0  0  0  0  0  0  0  0  0  0  0
   47.4604    8.3049   14.5028 H   0  0  0  0  0  0  0  0  0  0  0  0
   48.3776    7.1852   15.5117 H   0  0  0  0  0  0  0  0  0  0  0  0
   49.2123    8.5084   14.6684 H   0  0  0  0  0  0  0  0  0  0  0  0
   47.4860    7.9570   21.4644 H   0  0  0  0  0  0  0  0  0  0  0  0
   46.8757    5.0504   21.2400 H   0  0  0  0  0  0  0  0  0  0  0  0
   46.1222    6.2023   22.3511 H   0  0  0  0  0  0  0  0  0  0  0  0
  2  3  1  0
  4  5  1  0
  6  7  1  0
  7  2  2  0
  3 10  1  0
  3  4  2  0
  4  8  1  0
  8  9  2  0
  9 10  1  0
  5 13  1  0
  5  6  1  0
  6 11  2  0
 11 12  1  0
 12 13  2  0
 14 13  1  0
 14 15  1  0
 14 18  1  0
 15 16  1  0
 16 17  1  0
 17 18  1  0
 15 19  1  0
 19 20  1  0
 17 21  1  0
 21 22  1  0
 21 23  2  0
 22 24  1  0
 24 25  1  0
 25 26  1  0
 25 27  1  0
 25 28  1  0
 29 30  1  0
 31 32  1  0
 33 34  1  0
 34 29  2  0
 30 37  1  0
 30 31  2  0
 31 35  1  0
 35 36  2  0
 36 37  1  0
 32 40  1  0
 32 33  1  0
 33 38  2  0
 38 39  1  0
 39 40  2  0
 41 40  1  0
 41 42  1  0
 41 45  1  0
 42 43  1  0
 43 44  1  0
 44 45  1  0
 42 46  1  0
 46 47  1  0
 44 48  1  0
 48 49  1  0
 48 50  2  0
 49 51  1  0
 51 52  1  0
 52 53  1  0
 52 54  1  0
 52 55  1  0
  1 56  1  0
  1 57  1  0
  7 58  1  0
  8 59  1  0
  9 60  1  0
 10 61  1  0
 12 62  1  0
 14 63  1  1
 15 64  1  1
 16 65  1  0
 16 66  1  0
 18 67  1  0
 18 68  1  0
 19 69  1  0
 19 70  1  0
 20 71  1  0
 20 72  1  0
 20 73  1  0
 22 74  1  0
 24 75  1  0
 24 76  1  0
 34 77  1  0
 35 78  1  0
 36 79  1  0
 37 80  1  0
 39 81  1  0
 41 82  1  6
 42 83  1  6
 43 84  1  0
 43 85  1  0
 45 86  1  0
 45 87  1  0
 46 88  1  0
 46 89  1  0
 47 90  1  0
 47 91  1  0
 47 92  1  0
 49 93  1  0
 51 94  1  0
 51 95  1  0
M  END
> <Uni-Dock RESULT> 
ENERGY=   -4.672  LOWER_BOUND=    2.023  UPPER_BOUND=    5.027
INTER + INTRA:          -4.672
INTER:                  -4.672
INTRA:                   0.000
UNBOUND:                 0.000

$$$$

     RDKit          3D

 95100  0  0  0  0  0  0  0  0999 V2000
   44.3302   11.7411   10.5203 O   0  0  0  0  0  0  0  0  0  0  0  0
   40.0406   13.9165    8.1810 N   0  0  0  0  0  0  0  0  0  0  0  0
   40.2183   12.9141    9.0854 C   0  0  0  0  0  0  0  0  0  0  0  0
   41.2461   12.7129    9.9930 C   0  0  0  0  0  0  0  0  0  0  0  0
   42.2910   13.6679    9.9707 N   0  0  0  0  0  0  0  0  0  0  0  0
   42.1042   14.7598    9.1314 C   0  0  0  0  0  0  0  0  0  0  0  0
   40.9704   14.8339    8.2332 C   0  0  0  0  0  0  0  0  0  0  0  0
   40.9173   11.5921   10.7766 C   0  0  0  0  0  0  0  0  0  0  0  0
   39.7315   11.0871   10.2742 C   0  0  0  0  0  0  0  0  0  0  0  0
   39.3201   11.8982    9.2444 N   0  0  0  0  0  0  0  0  0  0  0  0
   43.0197   15.6840    9.2889 N   0  0  0  0  0  0  0  0  0  0  0  0
   43.8735   15.1485   10.2080 C   0  0  0  0  0  0  0  0  0  0  0  0
   43.5219   13.8524   10.5803 C   0  0  0  0  0  0  0  0  0  0  0  0
   44.3469   12.9352   11.4365 C   0  0  2  0  0  0  0  0  0  0  0  0
   45.8727   12.9679   11.0920 C   0  0  1  0  0  0  0  0  0  0  0  0
   46.3862   11.7920   11.9310 C   0  0  0  0  0  0  0  0  0  0  0  0
   45.3224   10.8111   11.8438 N   0  0  0  0  0  0  0  0  0  0  0  0
   44.0664   11.4365   11.4475 C   0  0  0  0  0  0  0  0  0  0  0  0
   46.1999   12.7592    9.5918 C   0  0  0  0  0  0  0  0  0  0  0  0
   47.6771   12.9820    9.2815 C   0  0  0  0  0  0  0  0  0  0  0  0
   45.5056    9.5372   12.3144 C   0  0  0  0  0  0  0  0  0  0  0  0
   44.4087    8.7275   12.2063 N   0  0  0  0  0  0  0  0  0  0  0  0
   46.5542    9.1562   12.8225 O   0  0  0  0  0  0  0  0  0  0  0  0
   44.5154    7.3212   12.6024 C   0  0  0  0  0  0  0  0  0  0  0  0
   45.1656    6.3992   11.5670 C   0  0  0  0  0  0  0  0  0  0  0  0
   44.4850    6.4599   10.3941 F   0  0  0  0  0  0  0  0  0  0  0  0
   45.1139    5.1113   11.9848 F   0  0  0  0  0  0  0  0  0  0  0  0
   46.4536    6.7019   11.3116 F   0  0  0  0  0  0  0  0  0  0  0  0
   42.0439   16.4111    8.3851 N   0  0  0  0  0  0  0  0  0  0  0  0
   42.2966   15.2073    7.8003 C   0  0  0  0  0  0  0  0  0  0  0  0
   42.8582   14.0692    8.3482 C   0  0  0  0  0  0  0  0  0  0  0  0
   43.2138   14.1508    9.7058 N   0  0  0  0  0  0  0  0  0  0  0  0
   42.9869   15.3482   10.3525 C   0  0  0  0  0  0  0  0  0  0  0  0
   42.3913   16.4679    9.6483 C   0  0  0  0  0  0  0  0  0  0  0  0
   42.9401   13.0752    7.3627 C   0  0  0  0  0  0  0  0  0  0  0  0
   42.4030   13.6338    6.2151 C   0  0  0  0  0  0  0  0  0  0  0  0
   42.0184   14.9279    6.4915 N   0  0  0  0  0  0  0  0  0  0  0  0
   43.3680   15.3132   11.6088 N   0  0  0  0  0  0  0  0  0  0  0  0
   43.8469   14.0397   11.7853 C   0  0  0  0  0  0  0  0  0  0  0  0
   43.7625   13.2826   10.6241 C   0  0  0  0  0  0  0  0  0  0  0  0
   44.1357   11.8683   10.3323 C   0  0  2  0  0  0  0  0  0  0  0  0
   42.9646   10.8565   10.3262 C   0  0  1  0  0  0  0  0  0  0  0  0
   43.7314    9.5258   10.3682 C   0  0  0  0  0  0  0  0  0  0  0  0
   44.9163    9.8009   11.1644 N   0  0  0  0  0  0  0  0  0  0  0  0
   45.1238   11.2349   11.3195 C   0  0  0  0  0  0  0  0  0  0  0  0
   41.9901   11.0110   11.5139 C   0  0  0  0  0  0  0  0  0  0  0  0
   40.8201   10.0363   11.4556 C   0  0  0  0  0  0  0  0  0  0  0  0
   45.6046    8.7763   11.7578 C   0  0  0  0  0  0  0  0  0  0  0  0
   46.6406    9.1633   12.5638 N   0  0  0  0  0  0  0  0  0  0  0  0
   45.3041    7.5958   11.6110 O   0  0  0  0  0  0  0  0  0  0  0  0
   47.5127    8.1438   13.1515 C   0  0  0  0  0  0  0  0  0  0  0  0
   48.6022    7.6162   12.2147 C   0  0  0  0  0  0  0  0  0  0  0  0
   48.1125    6.9512   11.1520 F   0  0  0  0  0  0  0  0  0  0  0  0
   49.4338    6.7773   12.8754 F   0  0  0  0  0  0  0  0  0  0  0  0
   49.3582    8.6448   11.7487 F   0  0  0  0  0  0  0  0  0  0  0  0
   43.4219   11.9055   10.2252 H   0  0  0  0  0  0  0  0  0  0  0  0
   44.2637   10.9221   11.0342 H   0  0  0  0  0  0  0  0  0  0  0  0
   40.9007   15.7062    7.5640 H   0  0  0  0  0  0  0  0  0  0  0  0
   41.4148   11.1726   11.6349 H   0  0  0  0  0  0  0  0  0  0  0  0
   39.1275   10.2387   10.5770 H   0  0  0  0  0  0  0  0  0  0  0  0
   38.4748   11.7983    8.7006 H   0  0  0  0  0  0  0  0  0  0  0  0
   44.7527   15.6986   10.5224 H   0  0  0  0  0  0  0  0  0  0  0  0
   44.2443   13.2993   12.4697 H   0  0  0  0  0  0  0  0  0  0  0  0
   46.3297   13.9067   11.4331 H   0  0  0  0  0  0  0  0  0  0  0  0
   47.3339   11.3642   11.5960 H   0  0  0  0  0  0  0  0  0  0  0  0
   46.4878   12.0791   12.9864 H   0  0  0  0  0  0  0  0  0  0  0  0
   43.3236   11.1807   12.2031 H   0  0  0  0  0  0  0  0  0  0  0  0
   43.7792   11.0391   10.4697 H   0  0  0  0  0  0  0  0  0  0  0  0
   45.9181   11.7519    9.2645 H   0  0  0  0  0  0  0  0  0  0  0  0
   45.6302   13.4557    8.9699 H   0  0  0  0  0  0  0  0  0  0  0  0
   48.3107   12.2661    9.8099 H   0  0  0  0  0  0  0  0  0  0  0  0
   47.9869   13.9939    9.5622 H   0  0  0  0  0  0  0  0  0  0  0  0
   47.8560   12.8584    8.2080 H   0  0  0  0  0  0  0  0  0  0  0  0
   43.8102    8.9238   11.4181 H   0  0  0  0  0  0  0  0  0  0  0  0
   43.4906    6.9815   12.7920 H   0  0  0  0  0  0  0  0  0  0  0  0
   45.0677    7.2587   13.5467 H   0  0  0  0  0  0  0  0  0  0  0  0
   42.2309   17.4052   10.2083 H   0  0  0  0  0  0  0  0  0  0  0  0
   43.3351   12.0712    7.4372 H   0  0  0  0  0  0  0  0  0  0  0  0
   42.2682   13.2262    5.2229 H   0  0  0  0  0  0  0  0  0  0  0  0
   41.6021   15.5811    5.8438 H   0  0  0  0  0  0  0  0  0  0  0  0
   44.2240   13.7297   12.7529 H   0  0  0  0  0  0  0  0  0  0  0  0
   44.6243   11.8353    9.3490 H   0  0  0  0  0  0  0  0  0  0  0  0
   42.3867   10.9291    9.3986 H   0  0  0  0  0  0  0  0  0  0  0  0
   44.0785    9.2482    9.3668 H   0  0  0  0  0  0  0  0  0  0  0  0
   43.1675    8.6856   10.7777 H   0  0  0  0  0  0  0  0  0  0  0  0
   46.1606   11.5004   11.0860 H   0  0  0  0  0  0  0  0  0  0  0  0
   44.9245   11.4856   12.3671 H   0  0  0  0  0  0  0  0  0  0  0  0
   41.5633   12.0218   11.5123 H   0  0  0  0  0  0  0  0  0  0  0  0
   42.5126   10.8806   12.4698 H   0  0  0  0  0  0  0  0  0  0  0  0
   40.1088   10.2594   12.2588 H   0  0  0  0  0  0  0  0  0  0  0  0
   41.1441    8.9983   11.5875 H   0  0  0  0  0  0  0  0  0  0  0  0
   40.2847   10.1130   10.5023 H   0  0  0  0  0  0  0  0  0  0  0  0
   47.0754   10.0420   12.3330 H   0  0  0  0  0  0  0  0  0  0  0  0
   46.8963    7.3115   13.5092 H   0  0  0  0  0  0  0  0  0  0  0  0
   47.9814    8.6107   14.0229 H   0  0  0  0  0  0  0  0  0  0  0  0
  2  3  1  0
  4  5  1  0
  6  7  1  0
  7  2  2  0
  3 10  1  0
  3  4  2  0
  4  8  1  0
  8  9  2  0
  9 10  1  0
  5 13  1  0
  5  6  1  0
  6 11  2  0
 11 12  1  0
 12 13  2  0
 14 13  1  0
 14 15  1  0
 14 18  1  0
 15 16  1  0
 16 17  1  0
 17 18  1  0
 15 19  1  0
 19 20  1  0
 17 21  1  0
 21 22  1  0
 21 23  2  0
 22 24  1  0
 24 25  1  0
 25 26  1  0
 25 27  1  0
 25 28  1  0
 29 30  1  0
 31 32  1  0
 33 34  1  0
 34 29  2  0
 30 37  1  0
 30 31  2  0
 31 35  1  0
 35 36  2  0
 36 37  1  0
 32 40  1  0
 32 33  1  0
 33 38  2  0
 38 39  1  0
 39 40  2  0
 41 40  1  0
 41 42  1  0
 41 45  1  0
 42 43  1  0
 43 44  1  0
 44 45  1  0
 42 46  1  0
 46 47  1  0
 44 48  1  0
 48 49  1  0
 48 50  2  0
 49 51  1  0
 51 52  1  0
 52 53  1  0
 52 54  1  0
 52 55  1  0
  1 56  1  0
  1 57  1  0
  7 58  1  0
  8 59  1  0
  9 60  1  0
 10 61  1  0
 12 62  1  0
 14 63  1  1
 15 64  1  1
 16 65  1  0
 16 66  1  0
 18 67  1  0
 18 68  1  0
 19 69  1  0
 19 70  1  0
 20 71  1  0
 20 72  1  0
 20 73  1  0
 22 74  1  0
 24 75  1  0
 24 76  1  0
 34 77  1  0
 35 78  1  0
 36 79  1  0
 37 80  1  0
 39 81  1  0
 41 82  1  6
 42 83  1  6
 43 84  1  0
 43 85  1  0
 45 86  1  0
 45 87  1  0
 46 88  1  0
 46 89  1  0
 47 90  1  0
 47 91  1  0
 47 92  1  0
 49 93  1  0
 51 94  1  0
 51 95  1  0
M  END
> <Uni-Dock RESULT> 
ENERGY=   -4.663  LOWER_BOUND=    6.598  UPPER_BOUND=    9.907
INTER + INTRA:          -4.663
INTER:                  -4.663
INTRA:                   0.000
UNBOUND:                 0.000

$$$$

     RDKit          3D

 95100  0  0  0  0  0  0  0  0999 V2000
   48.7119    9.1560   14.1133 O   0  0  0  0  0  0  0  0  0  0  0  0
   48.8677   14.2766   12.5769 N   0  0  0  0  0  0  0  0  0  0  0  0
   49.2986   13.6070   13.6816 C   0  0  0  0  0  0  0  0  0  0  0  0
   49.6634   12.2778   13.8246 C   0  0  0  0  0  0  0  0  0  0  0  0
   49.5501   11.4738   12.6649 N   0  0  0  0  0  0  0  0  0  0  0  0
   49.2069   12.1361   11.4922 C   0  0  0  0  0  0  0  0  0  0  0  0
   48.8508   13.5400   11.4970 C   0  0  0  0  0  0  0  0  0  0  0  0
   50.1367   12.0984   15.1369 C   0  0  0  0  0  0  0  0  0  0  0  0
   49.9742   13.3074   15.7891 C   0  0  0  0  0  0  0  0  0  0  0  0
   49.4605   14.2140   14.8938 N   0  0  0  0  0  0  0  0  0  0  0  0
   49.2900   11.3695   10.4328 N   0  0  0  0  0  0  0  0  0  0  0  0
   49.6278   10.1476   10.9362 C   0  0  0  0  0  0  0  0  0  0  0  0
   49.6943   10.1371   12.3281 C   0  0  0  0  0  0  0  0  0  0  0  0
   49.8724    8.9169   13.1851 C   0  0  2  0  0  0  0  0  0  0  0  0
   49.0226    7.6928   12.7084 C   0  0  1  0  0  0  0  0  0  0  0  0
   49.2212    6.7256   13.8812 C   0  0  0  0  0  0  0  0  0  0  0  0
   49.2370    7.5889   15.0457 N   0  0  0  0  0  0  0  0  0  0  0  0
   49.5336    8.9663   14.6709 C   0  0  0  0  0  0  0  0  0  0  0  0
   47.5184    7.9966   12.4930 C   0  0  0  0  0  0  0  0  0  0  0  0
   46.7735    6.8270   11.8561 C   0  0  0  0  0  0  0  0  0  0  0  0
   49.2020    7.0594   16.3091 C   0  0  0  0  0  0  0  0  0  0  0  0
   49.2630    7.9837   17.3153 N   0  0  0  0  0  0  0  0  0  0  0  0
   49.1530    5.8542   16.5282 O   0  0  0  0  0  0  0  0  0  0  0  0
   49.1502    7.5366   18.7057 C   0  0  0  0  0  0  0  0  0  0  0  0
   47.7234    7.2617   19.1891 C   0  0  0  0  0  0  0  0  0  0  0  0
   46.9560    8.3708   19.0359 F   0  0  0  0  0  0  0  0  0  0  0  0
   47.7232    6.9635   20.5109 F   0  0  0  0  0  0  0  0  0  0  0  0
   47.1200    6.2500   18.5348 F   0  0  0  0  0  0  0  0  0  0  0  0
   49.0677   12.7201    9.7813 N   0  0  0  0  0  0  0  0  0  0  0  0
   48.0981   12.5773   10.7272 C   0  0  0  0  0  0  0  0  0  0  0  0
   48.0342   11.6934   11.7880 C   0  0  0  0  0  0  0  0  0  0  0  0
   49.1256   10.8183   11.9265 N   0  0  0  0  0  0  0  0  0  0  0  0
   50.1383   10.9110   10.9942 C   0  0  0  0  0  0  0  0  0  0  0  0
   50.0715   11.8884    9.9244 C   0  0  0  0  0  0  0  0  0  0  0  0
   46.8368   11.8992   12.4880 C   0  0  0  0  0  0  0  0  0  0  0  0
   46.1892   12.9345   11.8354 C   0  0  0  0  0  0  0  0  0  0  0  0
   46.9621   13.3363   10.7676 N   0  0  0  0  0  0  0  0  0  0  0  0
   51.0961   10.0399   11.2142 N   0  0  0  0  0  0  0  0  0  0  0  0
   50.6942    9.3671   12.3404 C   0  0  0  0  0  0  0  0  0  0  0  0
   49.4738    9.8272   12.8178 C   0  0  0  0  0  0  0  0  0  0  0  0
   48.6554    9.4261   13.9985 C   0  0  2  0  0  0  0  0  0  0  0  0
   48.7725   10.3479   15.2361 C   0  0  1  0  0  0  0  0  0  0  0  0
   48.1299    9.4648   16.3168 C   0  0  0  0  0  0  0  0  0  0  0  0
   48.4825    8.1038   15.9472 N   0  0  0  0  0  0  0  0  0  0  0  0
   48.9748    8.0421   14.5770 C   0  0  0  0  0  0  0  0  0  0  0  0
   50.2209   10.7493   15.5899 C   0  0  0  0  0  0  0  0  0  0  0  0
   50.3028   11.6969   16.7808 C   0  0  0  0  0  0  0  0  0  0  0  0
   48.4465    7.1018   16.8802 C   0  0  0  0  0  0  0  0  0  0  0  0
   48.8957    5.8853   16.4431 N   0  0  0  0  0  0  0  0  0  0  0  0
   48.0716    7.2770   18.0353 O   0  0  0  0  0  0  0  0  0  0  0  0
   48.7892    4.7212   17.3255 C   0  0  0  0  0  0  0  0  0  0  0  0
   47.4079    4.0623   17.3521 C   0  0  0  0  0  0  0  0  0  0  0  0
   46.4498    4.8578   17.8625 F   0  0  0  0  0  0  0  0  0  0  0  0
   47.4348    2.9280   18.0900 F   0  0  0  0  0  0  0  0  0  0  0  0
   47.0309    3.7128   16.0940 F   0  0  0  0  0  0  0  0  0  0  0  0
   48.8323   10.1176   14.1123 H   0  0  0  0  0  0  0  0  0  0  0  0
   48.9428    8.8932   15.0171 H   0  0  0  0  0  0  0  0  0  0  0  0
   48.5487   13.9971   10.5413 H   0  0  0  0  0  0  0  0  0  0  0  0
   50.5858   11.2377   15.6034 H   0  0  0  0  0  0  0  0  0  0  0  0
   50.2062   13.6120   16.8039 H   0  0  0  0  0  0  0  0  0  0  0  0
   49.2593   15.1877   15.0718 H   0  0  0  0  0  0  0  0  0  0  0  0
   49.7499    9.2987   10.2738 H   0  0  0  0  0  0  0  0  0  0  0  0
   50.9298    8.6265   13.0956 H   0  0  0  0  0  0  0  0  0  0  0  0
   49.4390    7.2638   11.7869 H   0  0  0  0  0  0  0  0  0  0  0  0
   48.4519    5.9565   13.9815 H   0  0  0  0  0  0  0  0  0  0  0  0
   50.2007    6.2322   13.8200 H   0  0  0  0  0  0  0  0  0  0  0  0
   50.3934    9.2853   15.2601 H   0  0  0  0  0  0  0  0  0  0  0  0
   48.6570    9.5797   14.8985 H   0  0  0  0  0  0  0  0  0  0  0  0
   47.0297    8.2532   13.4398 H   0  0  0  0  0  0  0  0  0  0  0  0
   47.3874    8.8602   11.8348 H   0  0  0  0  0  0  0  0  0  0  0  0
   46.7930    5.9423   12.4964 H   0  0  0  0  0  0  0  0  0  0  0  0
   47.2123    6.5653   10.8878 H   0  0  0  0  0  0  0  0  0  0  0  0
   45.7250    7.0975   11.6910 H   0  0  0  0  0  0  0  0  0  0  0  0
   48.8454    8.8765   17.0996 H   0  0  0  0  0  0  0  0  0  0  0  0
   49.5887    8.3341   19.3167 H   0  0  0  0  0  0  0  0  0  0  0  0
   49.7624    6.6379   18.8410 H   0  0  0  0  0  0  0  0  0  0  0  0
   50.9054   11.9231    9.2023 H   0  0  0  0  0  0  0  0  0  0  0  0
   46.4566   11.3801   13.3572 H   0  0  0  0  0  0  0  0  0  0  0  0
   45.2412   13.4156   12.0324 H   0  0  0  0  0  0  0  0  0  0  0  0
   46.7393   14.0672   10.1075 H   0  0  0  0  0  0  0  0  0  0  0  0
   51.3163    8.5835   12.7569 H   0  0  0  0  0  0  0  0  0  0  0  0
   47.6007    9.3924   13.6929 H   0  0  0  0  0  0  0  0  0  0  0  0
   48.1874   11.2640   15.1013 H   0  0  0  0  0  0  0  0  0  0  0  0
   47.0373    9.5335   16.2724 H   0  0  0  0  0  0  0  0  0  0  0  0
   48.4436    9.6900   17.3378 H   0  0  0  0  0  0  0  0  0  0  0  0
   48.4710    7.2423   14.0234 H   0  0  0  0  0  0  0  0  0  0  0  0
   50.0461    7.8176   14.6212 H   0  0  0  0  0  0  0  0  0  0  0  0
   50.6790   11.2676   14.7382 H   0  0  0  0  0  0  0  0  0  0  0  0
   50.8336    9.8637   15.7991 H   0  0  0  0  0  0  0  0  0  0  0  0
   51.3370   12.0311   16.9206 H   0  0  0  0  0  0  0  0  0  0  0  0
   49.9887   11.2132   17.7120 H   0  0  0  0  0  0  0  0  0  0  0  0
   49.6808   12.5860   16.6260 H   0  0  0  0  0  0  0  0  0  0  0  0
   48.7980    5.7068   15.4566 H   0  0  0  0  0  0  0  0  0  0  0  0
   49.0788    5.0162   18.3403 H   0  0  0  0  0  0  0  0  0  0  0  0
   49.5268    3.9981   16.9648 H   0  0  0  0  0  0  0  0  0  0  0  0
  2  3  1  0
  4  5  1  0
  6  7  1  0
  7  2  2  0
  3 10  1  0
  3  4  2  0
  4  8  1  0
  8  9  2  0
  9 10  1  0
  5 13  1  0
  5  6  1  0
  6 11  2  0
 11 12  1  0
 12 13  2  0
 14 13  1  0
 14 15  1  0
 14 18  1  0
 15 16  1  0
 16 17  1  0
 17 18  1  0
 15 19  1  0
 19 20  1  0
 17 21  1  0
 21 22  1  0
 21 23  2  0
 22 24  1  0
 24 25  1  0
 25 26  1  0
 25 27  1  0
 25 28  1  0
 29 30  1  0
 31 32  1  0
 33 34  1  0
 34 29  2  0
 30 37  1  0
 30 31  2  0
 31 35  1  0
 35 36  2  0
 36 37  1  0
 32 40  1  0
 32 33  1  0
 33 38  2  0
 38 39  1  0
 39 40  2  0
 41 40  1  0
 41 42  1  0
 41 45  1  0
 42 43  1  0
 43 44  1  0
 44 45  1  0
 42 46  1  0
 46 47  1  0
 44 48  1  0
 48 49  1  0
 48 50  2  0
 49 51  1  0
 51 52  1  0
 52 53  1  0
 52 54  1  0
 52 55  1  0
  1 56  1  0
  1 57  1  0
  7 58  1  0
  8 59  1  0
  9 60  1  0
 10 61  1  0
 12 62  1  0
 14 63  1  1
 15 64  1  1
 16 65  1  0
 16 66  1  0
 18 67  1  0
 18 68  1  0
 19 69  1  0
 19 70  1  0
 20 71  1  0
 20 72  1  0
 20 73  1  0
 22 74  1  0
 24 75  1  0
 24 76  1  0
 34 77  1  0
 35 78  1  0
 36 79  1  0
 37 80  1  0
 39 81  1  0
 41 82  1  6
 42 83  1  6
 43 84  1  0
 43 85  1  0
 45 86  1  0
 45 87  1  0
 46 88  1  0
 46 89  1  0
 47 90  1  0
 47 91  1  0
 47 92  1  0
 49 93  1  0
 51 94  1  0
 51 95  1  0
M  END
> <Uni-Dock RESULT> 
ENERGY=   -4.646  LOWER_BOUND=    2.178  UPPER_BOUND=    3.578
INTER + INTRA:          -4.646
INTER:                  -4.646
INTRA:                   0.000
UNBOUND:                 0.000

$$$$

     RDKit          3D

 95100  0  0  0  0  0  0  0  0999 V2000
   50.2573    6.7955   19.6335 O   0  0  0  0  0  0  0  0  0  0  0  0
   54.3380    3.4830   20.6241 N   0  0  0  0  0  0  0  0  0  0  0  0
   53.3808    4.0631   21.3998 C   0  0  0  0  0  0  0  0  0  0  0  0
   52.1108    4.5007   21.0592 C   0  0  0  0  0  0  0  0  0  0  0  0
   51.7478    4.3568   19.6984 N   0  0  0  0  0  0  0  0  0  0  0  0
   52.6559    3.6823   18.8909 C   0  0  0  0  0  0  0  0  0  0  0  0
   53.9543    3.2802   19.3909 C   0  0  0  0  0  0  0  0  0  0  0  0
   51.4708    4.9281   22.2365 C   0  0  0  0  0  0  0  0  0  0  0  0
   52.3966    4.8153   23.2582 C   0  0  0  0  0  0  0  0  0  0  0  0
   53.5540    4.2918   22.7347 N   0  0  0  0  0  0  0  0  0  0  0  0
   52.1838    3.4328   17.6942 N   0  0  0  0  0  0  0  0  0  0  0  0
   50.9558    4.0264   17.6943 C   0  0  0  0  0  0  0  0  0  0  0  0
   50.6852    4.7065   18.8802 C   0  0  0  0  0  0  0  0  0  0  0  0
   49.5013    5.5969   19.1260 C   0  0  2  0  0  0  0  0  0  0  0  0
   49.1640    6.5310   17.9171 C   0  0  1  0  0  0  0  0  0  0  0  0
   48.1116    7.4520   18.5451 C   0  0  0  0  0  0  0  0  0  0  0  0
   48.5797    7.6401   19.9041 N   0  0  0  0  0  0  0  0  0  0  0  0
   49.5133    6.5872   20.2855 C   0  0  0  0  0  0  0  0  0  0  0  0
   50.3646    7.3509   17.3809 C   0  0  0  0  0  0  0  0  0  0  0  0
   50.0296    8.1012   16.0952 C   0  0  0  0  0  0  0  0  0  0  0  0
   47.9939    8.5696   20.7231 C   0  0  0  0  0  0  0  0  0  0  0  0
   48.5061    8.6145   21.9904 N   0  0  0  0  0  0  0  0  0  0  0  0
   47.0638    9.2840   20.3662 O   0  0  0  0  0  0  0  0  0  0  0  0
   48.0117    9.6268   22.9268 C   0  0  0  0  0  0  0  0  0  0  0  0
   48.6087   11.0259   22.7504 C   0  0  0  0  0  0  0  0  0  0  0  0
   49.9611   10.9738   22.8560 F   0  0  0  0  0  0  0  0  0  0  0  0
   48.1698   11.8522   23.7305 F   0  0  0  0  0  0  0  0  0  0  0  0
   48.3100   11.5921   21.5647 F   0  0  0  0  0  0  0  0  0  0  0  0
   53.4626    2.6194   17.6633 N   0  0  0  0  0  0  0  0  0  0  0  0
   53.8041    3.8700   18.0812 C   0  0  0  0  0  0  0  0  0  0  0  0
   52.9962    4.8813   18.5663 C   0  0  0  0  0  0  0  0  0  0  0  0
   51.6250    4.5844   18.6553 N   0  0  0  0  0  0  0  0  0  0  0  0
   51.2163    3.3335   18.2410 C   0  0  0  0  0  0  0  0  0  0  0  0
   52.1785    2.3671   17.7467 C   0  0  0  0  0  0  0  0  0  0  0  0
   53.7857    6.0033   18.8556 C   0  0  0  0  0  0  0  0  0  0  0  0
   55.0865    5.6411   18.5485 C   0  0  0  0  0  0  0  0  0  0  0  0
   55.0853    4.3461   18.0774 N   0  0  0  0  0  0  0  0  0  0  0  0
   49.9180    3.1725   18.3569 N   0  0  0  0  0  0  0  0  0  0  0  0
   49.4716    4.3601   18.8792 C   0  0  0  0  0  0  0  0  0  0  0  0
   50.5061    5.2637   19.0849 C   0  0  0  0  0  0  0  0  0  0  0  0
   50.5181    6.6494   19.6364 C   0  0  2  0  0  0  0  0  0  0  0  0
   50.9568    6.7757   21.1152 C   0  0  1  0  0  0  0  0  0  0  0  0
   50.5053    8.2102   21.4297 C   0  0  0  0  0  0  0  0  0  0  0  0
   49.3000    8.4054   20.6408 N   0  0  0  0  0  0  0  0  0  0  0  0
   49.1650    7.3713   19.6229 C   0  0  0  0  0  0  0  0  0  0  0  0
   50.3104    5.7364   22.0567 C   0  0  0  0  0  0  0  0  0  0  0  0
   50.7982    5.8515   23.4960 C   0  0  0  0  0  0  0  0  0  0  0  0
   48.4044    9.3857   20.9762 C   0  0  0  0  0  0  0  0  0  0  0  0
   47.2608    9.4090   20.2249 N   0  0  0  0  0  0  0  0  0  0  0  0
   48.5879   10.1709   21.9010 O   0  0  0  0  0  0  0  0  0  0  0  0
   46.2925   10.4896   20.4244 C   0  0  0  0  0  0  0  0  0  0  0  0
   46.6390   11.7993   19.7119 C   0  0  0  0  0  0  0  0  0  0  0  0
   47.7632   12.3752   20.1765 F   0  0  0  0  0  0  0  0  0  0  0  0
   45.6338   12.6955   19.8463 F   0  0  0  0  0  0  0  0  0  0  0  0
   46.8043   11.5794   18.3810 F   0  0  0  0  0  0  0  0  0  0  0  0
   50.9214    6.2576   20.0905 H   0  0  0  0  0  0  0  0  0  0  0  0
   49.7686    7.2232   20.3529 H   0  0  0  0  0  0  0  0  0  0  0  0
   54.6447    2.7852   18.6896 H   0  0  0  0  0  0  0  0  0  0  0  0
   50.4570    5.2536   22.3990 H   0  0  0  0  0  0  0  0  0  0  0  0
   52.3254    5.0335   24.3182 H   0  0  0  0  0  0  0  0  0  0  0  0
   54.3984    4.0709   23.2431 H   0  0  0  0  0  0  0  0  0  0  0  0
   50.3333    3.9937   16.8078 H   0  0  0  0  0  0  0  0  0  0  0  0
   48.6366    4.9315   19.2672 H   0  0  0  0  0  0  0  0  0  0  0  0
   48.7226    5.9566   17.0914 H   0  0  0  0  0  0  0  0  0  0  0  0
   47.9820    8.4145   18.0449 H   0  0  0  0  0  0  0  0  0  0  0  0
   47.1347    6.9522   18.5963 H   0  0  0  0  0  0  0  0  0  0  0  0
   49.1313    6.1292   21.1979 H   0  0  0  0  0  0  0  0  0  0  0  0
   50.4920    7.0435   20.4596 H   0  0  0  0  0  0  0  0  0  0  0  0
   50.7144    8.0711   18.1293 H   0  0  0  0  0  0  0  0  0  0  0  0
   51.2139    6.6974   17.1619 H   0  0  0  0  0  0  0  0  0  0  0  0
   49.2361    8.8350   16.2538 H   0  0  0  0  0  0  0  0  0  0  0  0
   49.7102    7.4080   15.3103 H   0  0  0  0  0  0  0  0  0  0  0  0
   50.9139    8.6375   15.7345 H   0  0  0  0  0  0  0  0  0  0  0  0
   49.4852    8.3817   22.0628 H   0  0  0  0  0  0  0  0  0  0  0  0
   48.2551    9.2566   23.9293 H   0  0  0  0  0  0  0  0  0  0  0  0
   46.9202    9.6816   22.8473 H   0  0  0  0  0  0  0  0  0  0  0  0
   51.8026    1.3803   17.4257 H   0  0  0  0  0  0  0  0  0  0  0  0
   53.4848    6.9698   19.2362 H   0  0  0  0  0  0  0  0  0  0  0  0
   56.0127    6.1947   18.6162 H   0  0  0  0  0  0  0  0  0  0  0  0
   55.8898    3.8194   17.7692 H   0  0  0  0  0  0  0  0  0  0  0  0
   48.4177    4.4998   19.0894 H   0  0  0  0  0  0  0  0  0  0  0  0
   51.1950    7.2599   19.0232 H   0  0  0  0  0  0  0  0  0  0  0  0
   52.0447    6.6936   21.2113 H   0  0  0  0  0  0  0  0  0  0  0  0
   51.2429    8.9353   21.0682 H   0  0  0  0  0  0  0  0  0  0  0  0
   50.3215    8.4105   22.4869 H   0  0  0  0  0  0  0  0  0  0  0  0
   48.9511    7.8192   18.6464 H   0  0  0  0  0  0  0  0  0  0  0  0
   48.3210    6.7345   19.9096 H   0  0  0  0  0  0  0  0  0  0  0  0
   50.5597    4.7238   21.7157 H   0  0  0  0  0  0  0  0  0  0  0  0
   49.2168    5.8231   22.0452 H   0  0  0  0  0  0  0  0  0  0  0  0
   50.3912    5.0285   24.0942 H   0  0  0  0  0  0  0  0  0  0  0  0
   50.4735    6.7863   23.9655 H   0  0  0  0  0  0  0  0  0  0  0  0
   51.8915    5.7980   23.5516 H   0  0  0  0  0  0  0  0  0  0  0  0
   47.3411    9.0504   19.2871 H   0  0  0  0  0  0  0  0  0  0  0  0
   46.1782   10.6712   21.4990 H   0  0  0  0  0  0  0  0  0  0  0  0
   45.3369   10.1149   20.0456 H   0  0  0  0  0  0  0  0  0  0  0  0
  2  3  1  0
  4  5  1  0
  6  7  1  0
  7  2  2  0
  3 10  1  0
  3  4  2  0
  4  8  1  0
  8  9  2  0
  9 10  1  0
  5 13  1  0
  5  6  1  0
  6 11  2  0
 11 12  1  0
 12 13  2  0
 14 13  1  0
 14 15  1  0
 14 18  1  0
 15 16  1  0
 16 17  1  0
 17 18  1  0
 15 19  1  0
 19 20  1  0
 17 21  1  0
 21 22  1  0
 21 23  2  0
 22 24  1  0
 24 25  1  0
 25 26  1  0
 25 27  1  0
 25 28  1  0
 29 30  1  0
 31 32  1  0
 33 34  1  0
 34 29  2  0
 30 37  1  0
 30 31  2  0
 31 35  1  0
 35 36  2  0
 36 37  1  0
 32 40  1  0
 32 33  1  0
 33 38  2  0
 38 39  1  0
 39 40  2  0
 41 40  1  0
 41 42  1  0
 41 45  1  0
 42 43  1  0
 43 44  1  0
 44 45  1  0
 42 46  1  0
 46 47  1  0
 44 48  1  0
 48 49  1  0
 48 50  2  0
 49 51  1  0
 51 52  1  0
 52 53  1  0
 52 54  1  0
 52 55  1  0
  1 56  1  0
  1 57  1  0
  7 58  1  0
  8 59  1  0
  9 60  1  0
 10 61  1  0
 12 62  1  0
 14 63  1  1
 15 64  1  1
 16 65  1  0
 16 66  1  0
 18 67  1  0
 18 68  1  0
 19 69  1  0
 19 70  1  0
 20 71  1  0
 20 72  1  0
 20 73  1  0
 22 74  1  0
 24 75  1  0
 24 76  1  0
 34 77  1  0
 35 78  1  0
 36 79  1  0
 37 80  1  0
 39 81  1  0
 41 82  1  6
 42 83  1  6
 43 84  1  0
 43 85  1  0
 45 86  1  0
 45 87  1  0
 46 88  1  0
 46 89  1  0
 47 90  1  0
 47 91  1  0
 47 92  1  0
 49 93  1  0
 51 94  1  0
 51 95  1  0
M  END
> <Uni-Dock RESULT> 
ENERGY=   -4.635  LOWER_BOUND=    3.909  UPPER_BOUND=    6.842
INTER + INTRA:          -4.635
INTER:                  -4.635
INTRA:                   0.000
UNBOUND:                 0.000

$$$$

     RDKit          3D

 95100  0  0  0  0  0  0  0  0999 V2000
   51.0456    6.1144   17.6084 O   0  0  0  0  0  0  0  0  0  0  0  0
   55.3877    5.7618   20.7111 N   0  0  0  0  0  0  0  0  0  0  0  0
   54.8720    6.7374   19.9134 C   0  0  0  0  0  0  0  0  0  0  0  0
   53.5602    6.9648   19.5288 C   0  0  0  0  0  0  0  0  0  0  0  0
   52.6031    6.0364   20.0044 N   0  0  0  0  0  0  0  0  0  0  0  0
   53.0695    5.0811   20.8997 C   0  0  0  0  0  0  0  0  0  0  0  0
   54.4795    4.9648   21.2099 C   0  0  0  0  0  0  0  0  0  0  0  0
   53.5281    8.1596   18.7873 C   0  0  0  0  0  0  0  0  0  0  0  0
   54.8368    8.5918   18.6691 C   0  0  0  0  0  0  0  0  0  0  0  0
   55.6431    7.7160   19.3550 N   0  0  0  0  0  0  0  0  0  0  0  0
   52.1060    4.3692   21.4306 N   0  0  0  0  0  0  0  0  0  0  0  0
   50.9800    4.8236   20.8092 C   0  0  0  0  0  0  0  0  0  0  0  0
   51.2508    5.7837   19.8362 C   0  0  0  0  0  0  0  0  0  0  0  0
   50.2538    6.3501   18.8666 C   0  0  2  0  0  0  0  0  0  0  0  0
   49.2920    5.2736   18.2635 C   0  0  1  0  0  0  0  0  0  0  0  0
   48.5904    6.0888   17.1709 C   0  0  0  0  0  0  0  0  0  0  0  0
   49.6343    6.9537   16.6572 N   0  0  0  0  0  0  0  0  0  0  0  0
   50.7294    7.0746   17.6120 C   0  0  0  0  0  0  0  0  0  0  0  0
   50.0051    4.0385   17.6575 C   0  0  0  0  0  0  0  0  0  0  0  0
   49.0255    2.9413   17.2517 C   0  0  0  0  0  0  0  0  0  0  0  0
   49.4307    7.6992   15.5256 C   0  0  0  0  0  0  0  0  0  0  0  0
   50.4821    8.5006   15.1754 N   0  0  0  0  0  0  0  0  0  0  0  0
   48.3817    7.6796   14.8914 O   0  0  0  0  0  0  0  0  0  0  0  0
   50.4069    9.2798   13.9372 C   0  0  0  0  0  0  0  0  0  0  0  0
   50.7129    8.4995   12.6556 C   0  0  0  0  0  0  0  0  0  0  0  0
   51.9478    7.9410   12.7318 F   0  0  0  0  0  0  0  0  0  0  0  0
   50.7243    9.3336   11.5878 F   0  0  0  0  0  0  0  0  0  0  0  0
   49.8300    7.5133   12.4032 F   0  0  0  0  0  0  0  0  0  0  0  0
   53.2819    3.9178   22.2742 N   0  0  0  0  0  0  0  0  0  0  0  0
   53.6643    3.7965   20.9725 C   0  0  0  0  0  0  0  0  0  0  0  0
   53.0990    4.3505   19.8393 C   0  0  0  0  0  0  0  0  0  0  0  0
   51.9736    5.1665   20.0490 N   0  0  0  0  0  0  0  0  0  0  0  0
   51.5342    5.3237   21.3473 C   0  0  0  0  0  0  0  0  0  0  0  0
   52.2255    4.6756   22.4457 C   0  0  0  0  0  0  0  0  0  0  0  0
   53.8223    3.9343   18.7126 C   0  0  0  0  0  0  0  0  0  0  0  0
   54.8427    3.1307   19.1927 C   0  0  0  0  0  0  0  0  0  0  0  0
   54.7356    3.0522   20.5643 N   0  0  0  0  0  0  0  0  0  0  0  0
   50.4727    6.0934   21.4218 N   0  0  0  0  0  0  0  0  0  0  0  0
   50.2241    6.4594   20.1230 C   0  0  0  0  0  0  0  0  0  0  0  0
   51.1412    5.9068   19.2384 C   0  0  0  0  0  0  0  0  0  0  0  0
   51.2880    6.0252   17.7589 C   0  0  2  0  0  0  0  0  0  0  0  0
   52.3694    7.0199   17.2728 C   0  0  1  0  0  0  0  0  0  0  0  0
   51.9936    7.1539   15.7890 C   0  0  0  0  0  0  0  0  0  0  0  0
   50.5453    7.0331   15.7568 N   0  0  0  0  0  0  0  0  0  0  0  0
   50.0345    6.4980   17.0123 C   0  0  0  0  0  0  0  0  0  0  0  0
   52.3547    8.3778   18.0077 C   0  0  0  0  0  0  0  0  0  0  0  0
   53.4610    9.3182   17.5446 C   0  0  0  0  0  0  0  0  0  0  0  0
   49.8344    7.5121   14.6886 C   0  0  0  0  0  0  0  0  0  0  0  0
   48.4740    7.4346   14.8149 N   0  0  0  0  0  0  0  0  0  0  0  0
   50.3660    8.0062   13.6992 O   0  0  0  0  0  0  0  0  0  0  0  0
   47.6251    7.8106   13.6822 C   0  0  0  0  0  0  0  0  0  0  0  0
   47.4633    6.7250   12.6153 C   0  0  0  0  0  0  0  0  0  0  0  0
   48.6134    6.4255   11.9838 F   0  0  0  0  0  0  0  0  0  0  0  0
   46.5680    7.1094   11.6759 F   0  0  0  0  0  0  0  0  0  0  0  0
   46.9883    5.5825   13.1774 F   0  0  0  0  0  0  0  0  0  0  0  0
   51.8943    6.3046   18.0359 H   0  0  0  0  0  0  0  0  0  0  0  0
   50.9254    6.8515   16.9907 H   0  0  0  0  0  0  0  0  0  0  0  0
   54.7904    4.1609   21.8959 H   0  0  0  0  0  0  0  0  0  0  0  0
   52.6918    8.7110   18.3913 H   0  0  0  0  0  0  0  0  0  0  0  0
   55.2639    9.4618   18.1822 H   0  0  0  0  0  0  0  0  0  0  0  0
   56.6443    7.7841   19.4703 H   0  0  0  0  0  0  0  0  0  0  0  0
   50.0142    4.3922   21.0450 H   0  0  0  0  0  0  0  0  0  0  0  0
   49.6293    7.0526   19.4384 H   0  0  0  0  0  0  0  0  0  0  0  0
   48.5636    4.9369   19.0136 H   0  0  0  0  0  0  0  0  0  0  0  0
   48.1477    5.4980   16.3657 H   0  0  0  0  0  0  0  0  0  0  0  0
   47.8096    6.7302   17.6018 H   0  0  0  0  0  0  0  0  0  0  0  0
   50.8773    8.1374   17.8037 H   0  0  0  0  0  0  0  0  0  0  0  0
   51.6242    6.6318   17.1651 H   0  0  0  0  0  0  0  0  0  0  0  0
   50.6029    4.3196   16.7830 H   0  0  0  0  0  0  0  0  0  0  0  0
   50.7012    3.6000   18.3783 H   0  0  0  0  0  0  0  0  0  0  0  0
   48.3416    3.2824   16.4712 H   0  0  0  0  0  0  0  0  0  0  0  0
   48.4342    2.6083   18.1108 H   0  0  0  0  0  0  0  0  0  0  0  0
   49.5735    2.0768   16.8619 H   0  0  0  0  0  0  0  0  0  0  0  0
   51.3923    8.1404   15.4201 H   0  0  0  0  0  0  0  0  0  0  0  0
   51.1354   10.0916   14.0456 H   0  0  0  0  0  0  0  0  0  0  0  0
   49.4118    9.7323   13.8619 H   0  0  0  0  0  0  0  0  0  0  0  0
   51.8351    4.8306   23.4662 H   0  0  0  0  0  0  0  0  0  0  0  0
   53.6530    4.1644   17.6696 H   0  0  0  0  0  0  0  0  0  0  0  0
   55.6315    2.6006   18.6773 H   0  0  0  0  0  0  0  0  0  0  0  0
   55.3379    2.5298   21.1839 H   0  0  0  0  0  0  0  0  0  0  0  0
   49.3931    7.1156   19.8924 H   0  0  0  0  0  0  0  0  0  0  0  0
   51.5269    5.0322   17.3544 H   0  0  0  0  0  0  0  0  0  0  0  0
   53.3720    6.5897   17.3701 H   0  0  0  0  0  0  0  0  0  0  0  0
   52.3958    6.3143   15.2114 H   0  0  0  0  0  0  0  0  0  0  0  0
   52.3227    8.0809   15.3157 H   0  0  0  0  0  0  0  0  0  0  0  0
   49.3371    5.6746   16.8234 H   0  0  0  0  0  0  0  0  0  0  0  0
   49.4954    7.3053   17.5199 H   0  0  0  0  0  0  0  0  0  0  0  0
   52.5022    8.2173   19.0831 H   0  0  0  0  0  0  0  0  0  0  0  0
   51.3875    8.8806   17.8840 H   0  0  0  0  0  0  0  0  0  0  0  0
   53.4699   10.2189   18.1687 H   0  0  0  0  0  0  0  0  0  0  0  0
   53.3166    9.6422   16.5083 H   0  0  0  0  0  0  0  0  0  0  0  0
   54.4461    8.8444   17.6248 H   0  0  0  0  0  0  0  0  0  0  0  0
   48.1267    6.6968   15.4062 H   0  0  0  0  0  0  0  0  0  0  0  0
   48.0249    8.7228   13.2252 H   0  0  0  0  0  0  0  0  0  0  0  0
   46.6446    8.0507   14.1040 H   0  0  0  0  0  0  0  0  0  0  0  0
  2  3  1  0
  4  5  1  0
  6  7  1  0
  7  2  2  0
  3 10  1  0
  3  4  2  0
  4  8  1  0
  8  9  2  0
  9 10  1  0
  5 13  1  0
  5  6  1  0
  6 11  2  0
 11 12  1  0
 12 13  2  0
 14 13  1  0
 14 15  1  0
 14 18  1  0
 15 16  1  0
 16 17  1  0
 17 18  1  0
 15 19  1  0
 19 20  1  0
 17 21  1  0
 21 22  1  0
 21 23  2  0
 22 24  1  0
 24 25  1  0
 25 26  1  0
 25 27  1  0
 25 28  1  0
 29 30  1  0
 31 32  1  0
 33 34  1  0
 34 29  2  0
 30 37  1  0
 30 31  2  0
 31 35  1  0
 35 36  2  0
 36 37  1  0
 32 40  1  0
 32 33  1  0
 33 38  2  0
 38 39  1  0
 39 40  2  0
 41 40  1  0
 41 42  1  0
 41 45  1  0
 42 43  1  0
 43 44  1  0
 44 45  1  0
 42 46  1  0
 46 47  1  0
 44 48  1  0
 48 49  1  0
 48 50  2  0
 49 51  1  0
 51 52  1  0
 52 53  1  0
 52 54  1  0
 52 55  1  0
  1 56  1  0
  1 57  1  0
  7 58  1  0
  8 59  1  0
  9 60  1  0
 10 61  1  0
 12 62  1  0
 14 63  1  1
 15 64  1  1
 16 65  1  0
 16 66  1  0
 18 67  1  0
 18 68  1  0
 19 69  1  0
 19 70  1  0
 20 71  1  0
 20 72  1  0
 20 73  1  0
 22 74  1  0
 24 75  1  0
 24 76  1  0
 34 77  1  0
 35 78  1  0
 36 79  1  0
 37 80  1  0
 39 81  1  0
 41 82  1  6
 42 83  1  6
 43 84  1  0
 43 85  1  0
 45 86  1  0
 45 87  1  0
 46 88  1  0
 46 89  1  0
 47 90  1  0
 47 91  1  0
 47 92  1  0
 49 93  1  0
 51 94  1  0
 51 95  1  0
M  END
> <Uni-Dock RESULT> 
ENERGY=   -4.464  LOWER_BOUND=    4.508  UPPER_BOUND=    7.988
INTER + INTRA:          -4.464
INTER:                  -4.464
INTRA:                   0.000
UNBOUND:                 0.000

$$$$

     RDKit          3D

 95100  0  0  0  0  0  0  0  0999 V2000
   49.8448    8.5140   16.6596 O   0  0  0  0  0  0  0  0  0  0  0  0
   51.7818    9.6768   11.8118 N   0  0  0  0  0  0  0  0  0  0  0  0
   50.7848    8.8663   12.2625 C   0  0  0  0  0  0  0  0  0  0  0  0
   50.0255    8.9560   13.4183 C   0  0  0  0  0  0  0  0  0  0  0  0
   50.3392   10.0294   14.2864 N   0  0  0  0  0  0  0  0  0  0  0  0
   51.2836   10.9368   13.8212 C   0  0  0  0  0  0  0  0  0  0  0  0
   51.9999   10.7096   12.5830 C   0  0  0  0  0  0  0  0  0  0  0  0
   49.0529    7.9408   13.3764 C   0  0  0  0  0  0  0  0  0  0  0  0
   49.2936    7.2039   12.2307 C   0  0  0  0  0  0  0  0  0  0  0  0
   50.3511    7.7753   11.5654 N   0  0  0  0  0  0  0  0  0  0  0  0
   51.3975   11.9911   14.5909 N   0  0  0  0  0  0  0  0  0  0  0  0
   50.5540   11.7320   15.6311 C   0  0  0  0  0  0  0  0  0  0  0  0
   49.9560   10.4765   15.5411 C   0  0  0  0  0  0  0  0  0  0  0  0
   49.1167    9.8303   16.6055 C   0  0  2  0  0  0  0  0  0  0  0  0
   49.6909   10.0166   18.0488 C   0  0  1  0  0  0  0  0  0  0  0  0
   48.7850    9.0720   18.8472 C   0  0  0  0  0  0  0  0  0  0  0  0
   48.5719    7.9532   17.9504 N   0  0  0  0  0  0  0  0  0  0  0  0
   48.8550    8.3285   16.5704 C   0  0  0  0  0  0  0  0  0  0  0  0
   51.1798    9.6173   18.2072 C   0  0  0  0  0  0  0  0  0  0  0  0
   51.7396    9.9882   19.5773 C   0  0  0  0  0  0  0  0  0  0  0  0
   47.9624    6.8084   18.3931 C   0  0  0  0  0  0  0  0  0  0  0  0
   47.7884    5.8491   17.4341 N   0  0  0  0  0  0  0  0  0  0  0  0
   47.5722    6.6613   19.5460 O   0  0  0  0  0  0  0  0  0  0  0  0
   47.2218    4.5525   17.8133 C   0  0  0  0  0  0  0  0  0  0  0  0
   48.2061    3.5747   18.4615 C   0  0  0  0  0  0  0  0  0  0  0  0
   49.2584    3.3527   17.6333 F   0  0  0  0  0  0  0  0  0  0  0  0
   47.6105    2.3755   18.6697 F   0  0  0  0  0  0  0  0  0  0  0  0
   48.6944    4.0065   19.6408 F   0  0  0  0  0  0  0  0  0  0  0  0
   52.2341   12.4231   13.4029 N   0  0  0  0  0  0  0  0  0  0  0  0
   52.6776   11.1874   13.7655 C   0  0  0  0  0  0  0  0  0  0  0  0
   52.0690   10.2398   14.5669 C   0  0  0  0  0  0  0  0  0  0  0  0
   50.8062   10.5858   15.0785 N   0  0  0  0  0  0  0  0  0  0  0  0
   50.3051   11.8287   14.7504 C   0  0  0  0  0  0  0  0  0  0  0  0
   51.0588   12.7285   13.8981 C   0  0  0  0  0  0  0  0  0  0  0  0
   52.9078    9.1215   14.6769 C   0  0  0  0  0  0  0  0  0  0  0  0
   54.0264    9.4101   13.9134 C   0  0  0  0  0  0  0  0  0  0  0  0
   53.8770   10.6665   13.3674 N   0  0  0  0  0  0  0  0  0  0  0  0
   49.1291   12.0480   15.2922 N   0  0  0  0  0  0  0  0  0  0  0  0
   48.8525   10.8971   15.9861 C   0  0  0  0  0  0  0  0  0  0  0  0
   49.8707    9.9595   15.8727 C   0  0  0  0  0  0  0  0  0  0  0  0
   50.0167    8.5816   16.4246 C   0  0  2  0  0  0  0  0  0  0  0  0
   49.7036    7.4307   15.4383 C   0  0  1  0  0  0  0  0  0  0  0  0
   49.5946    6.2420   16.4056 C   0  0  0  0  0  0  0  0  0  0  0  0
   49.0344    6.8011   17.6250 N   0  0  0  0  0  0  0  0  0  0  0  0
   49.1135    8.2562   17.6206 C   0  0  0  0  0  0  0  0  0  0  0  0
   48.4143    7.6382   14.6144 C   0  0  0  0  0  0  0  0  0  0  0  0
   48.1575    6.5154   13.6165 C   0  0  0  0  0  0  0  0  0  0  0  0
   48.4164    5.9891   18.5385 C   0  0  0  0  0  0  0  0  0  0  0  0
   47.8394    6.6387   19.5958 N   0  0  0  0  0  0  0  0  0  0  0  0
   48.3503    4.7704   18.4128 O   0  0  0  0  0  0  0  0  0  0  0  0
   47.2558    5.8560   20.6876 C   0  0  0  0  0  0  0  0  0  0  0  0
   48.2653    5.3398   21.7159 C   0  0  0  0  0  0  0  0  0  0  0  0
   49.1381    4.4524   21.2041 F   0  0  0  0  0  0  0  0  0  0  0  0
   47.6291    4.7398   22.7489 F   0  0  0  0  0  0  0  0  0  0  0  0
   48.9794    6.3745   22.2320 F   0  0  0  0  0  0  0  0  0  0  0  0
   50.0179    8.5028   15.7062 H   0  0  0  0  0  0  0  0  0  0  0  0
   49.2180    7.7867   16.7914 H   0  0  0  0  0  0  0  0  0  0  0  0
   52.7652   11.4455   12.2893 H   0  0  0  0  0  0  0  0  0  0  0  0
   48.2306    7.7365   14.0414 H   0  0  0  0  0  0  0  0  0  0  0  0
   48.7873    6.3402   11.8136 H   0  0  0  0  0  0  0  0  0  0  0  0
   50.7405    7.4745   10.6832 H   0  0  0  0  0  0  0  0  0  0  0  0
   50.4568   12.4408   16.4451 H   0  0  0  0  0  0  0  0  0  0  0  0
   48.1406   10.3375   16.5816 H   0  0  0  0  0  0  0  0  0  0  0  0
   49.5572   11.0516   18.3914 H   0  0  0  0  0  0  0  0  0  0  0  0
   49.1979    8.7303   19.7991 H   0  0  0  0  0  0  0  0  0  0  0  0
   47.8076    9.5356   19.0382 H   0  0  0  0  0  0  0  0  0  0  0  0
   47.9668    8.0976   15.9822 H   0  0  0  0  0  0  0  0  0  0  0  0
   49.7127    7.7440   16.2253 H   0  0  0  0  0  0  0  0  0  0  0  0
   51.3172    8.5415   18.0488 H   0  0  0  0  0  0  0  0  0  0  0  0
   51.7982   10.1203   17.4582 H   0  0  0  0  0  0  0  0  0  0  0  0
   51.2198    9.4600   20.3797 H   0  0  0  0  0  0  0  0  0  0  0  0
   51.6527   11.0648   19.7563 H   0  0  0  0  0  0  0  0  0  0  0  0
   52.8002    9.7200   19.6325 H   0  0  0  0  0  0  0  0  0  0  0  0
   48.4957    5.8325   16.7148 H   0  0  0  0  0  0  0  0  0  0  0  0
   46.8328    4.1100   16.8889 H   0  0  0  0  0  0  0  0  0  0  0  0
   46.3733    4.7184   18.4865 H   0  0  0  0  0  0  0  0  0  0  0  0
   50.6166   13.7125   13.6652 H   0  0  0  0  0  0  0  0  0  0  0  0
   52.7557    8.2063   15.2325 H   0  0  0  0  0  0  0  0  0  0  0  0
   54.9201    8.8343   13.7172 H   0  0  0  0  0  0  0  0  0  0  0  0
   54.5381   11.1441   12.7721 H   0  0  0  0  0  0  0  0  0  0  0  0
   47.9201   10.8008   16.5302 H   0  0  0  0  0  0  0  0  0  0  0  0
   51.0488    8.4589   16.7803 H   0  0  0  0  0  0  0  0  0  0  0  0
   50.5332    7.2738   14.7406 H   0  0  0  0  0  0  0  0  0  0  0  0
   50.5889    5.8579   16.6592 H   0  0  0  0  0  0  0  0  0  0  0  0
   48.9913    5.4088   16.0403 H   0  0  0  0  0  0  0  0  0  0  0  0
   49.5369    8.6207   18.5629 H   0  0  0  0  0  0  0  0  0  0  0  0
   48.0928    8.6416   17.5220 H   0  0  0  0  0  0  0  0  0  0  0  0
   48.4912    8.5673   14.0360 H   0  0  0  0  0  0  0  0  0  0  0  0
   47.5406    7.7355   15.2708 H   0  0  0  0  0  0  0  0  0  0  0  0
   47.2942    6.7645   12.9893 H   0  0  0  0  0  0  0  0  0  0  0  0
   47.9338    5.5663   14.1155 H   0  0  0  0  0  0  0  0  0  0  0  0
   49.0194    6.3642   12.9564 H   0  0  0  0  0  0  0  0  0  0  0  0
   48.2537    7.5204   19.8518 H   0  0  0  0  0  0  0  0  0  0  0  0
   46.6962    5.0150   20.2629 H   0  0  0  0  0  0  0  0  0  0  0  0
   46.5395    6.5163   21.1854 H   0  0  0  0  0  0  0  0  0  0  0  0
  2  3  1  0
  4  5  1  0
  6  7  1  0
  7  2  2  0
  3 10  1  0
  3  4  2  0
  4  8  1  0
  8  9  2  0
  9 10  1  0
  5 13  1  0
  5  6  1  0
  6 11  2  0
 11 12  1  0
 12 13  2  0
 14 13  1  0
 14 15  1  0
 14 18  1  0
 15 16  1  0
 16 17  1  0
 17 18  1  0
 15 19  1  0
 19 20  1  0
 17 21  1  0
 21 22  1  0
 21 23  2  0
 22 24  1  0
 24 25  1  0
 25 26  1  0
 25 27  1  0
 25 28  1  0
 29 30  1  0
 31 32  1  0
 33 34  1  0
 34 29  2  0
 30 37  1  0
 30 31  2  0
 31 35  1  0
 35 36  2  0
 36 37  1  0
 32 40  1  0
 32 33  1  0
 33 38  2  0
 38 39  1  0
 39 40  2  0
 41 40  1  0
 41 42  1  0
 41 45  1  0
 42 43  1  0
 43 44  1  0
 44 45  1  0
 42 46  1  0
 46 47  1  0
 44 48  1  0
 48 49  1  0
 48 50  2  0
 49 51  1  0
 51 52  1  0
 52 53  1  0
 52 54  1  0
 52 55  1  0
  1 56  1  0
  1 57  1  0
  7 58  1  0
  8 59  1  0
  9 60  1  0
 10 61  1  0
 12 62  1  0
 14 63  1  1
 15 64  1  1
 16 65  1  0
 16 66  1  0
 18 67  1  0
 18 68  1  0
 19 69  1  0
 19 70  1  0
 20 71  1  0
 20 72  1  0
 20 73  1  0
 22 74  1  0
 24 75  1  0
 24 76  1  0
 34 77  1  0
 35 78  1  0
 36 79  1  0
 37 80  1  0
 39 81  1  0
 41 82  1  6
 42 83  1  6
 43 84  1  0
 43 85  1  0
 45 86  1  0
 45 87  1  0
 46 88  1  0
 46 89  1  0
 47 90  1  0
 47 91  1  0
 47 92  1  0
 49 93  1  0
 51 94  1  0
 51 95  1  0
M  END
> <Uni-Dock RESULT> 
ENERGY=   -4.423  LOWER_BOUND=    2.081  UPPER_BOUND=    4.373
INTER + INTRA:          -4.423
INTER:                  -4.423
INTRA:                   0.000
UNBOUND:                 0.000

$$$$
