
     RDKit          3D

 95100  0  0  0  0  0  0  0  0999 V2000
   48.4400    5.0798   17.3523 O   0  0  0  0  0  0  0  0  0  0  0  0
   50.4179    9.2753   21.0843 N   0  0  0  0  0  0  0  0  0  0  0  0
   49.2624    9.0919   20.3875 C   0  0  0  0  0  0  0  0  0  0  0  0
   48.8282    7.9821   19.6867 C   0  0  0  0  0  0  0  0  0  0  0  0
   49.7035    6.8781   19.6719 N   0  0  0  0  0  0  0  0  0  0  0  0
   50.8647    6.9855   20.4091 C   0  0  0  0  0  0  0  0  0  0  0  0
   51.1971    8.2208   21.0927 C   0  0  0  0  0  0  0  0  0  0  0  0
   47.5459    8.2368   19.1766 C   0  0  0  0  0  0  0  0  0  0  0  0
   47.2345    9.5315   19.5540 C   0  0  0  0  0  0  0  0  0  0  0  0
   48.2853   10.0415   20.2844 N   0  0  0  0  0  0  0  0  0  0  0  0
   51.5394    5.8608   20.4361 N   0  0  0  0  0  0  0  0  0  0  0  0
   50.7944    5.0032   19.6643 C   0  0  0  0  0  0  0  0  0  0  0  0
   49.6857    5.6182   19.0985 C   0  0  0  0  0  0  0  0  0  0  0  0
   48.6159    5.1354   18.1734 C   0  0  2  0  0  0  0  0  0  0  0  0
   48.6107    3.6434   17.7383 C   0  0  1  0  0  0  0  0  0  0  0  0
   47.4762    3.6838   16.6927 C   0  0  0  0  0  0  0  0  0  0  0  0
   47.6289    4.9873   16.0510 N   0  0  0  0  0  0  0  0  0  0  0  0
   48.5331    5.8394   16.8148 C   0  0  0  0  0  0  0  0  0  0  0  0
   49.8971    3.1130   17.0537 C   0  0  0  0  0  0  0  0  0  0  0  0
   49.8897    1.5926   16.9118 C   0  0  0  0  0  0  0  0  0  0  0  0
   47.1195    5.3998   14.8481 C   0  0  0  0  0  0  0  0  0  0  0  0
   46.2571    4.5130   14.2595 N   0  0  0  0  0  0  0  0  0  0  0  0
   47.4083    6.4745   14.3333 O   0  0  0  0  0  0  0  0  0  0  0  0
   45.5799    4.8907   13.0164 C   0  0  0  0  0  0  0  0  0  0  0  0
   44.7776    3.7672   12.3705 C   0  0  0  0  0  0  0  0  0  0  0  0
   44.0821    4.2124   11.3042 F   0  0  0  0  0  0  0  0  0  0  0  0
   43.8917    3.2500   13.2561 F   0  0  0  0  0  0  0  0  0  0  0  0
   45.5744    2.7594   11.9559 F   0  0  0  0  0  0  0  0  0  0  0  0
   50.1179    9.0187   20.7195 N   0  0  0  0  0  0  0  0  0  0  0  0
   49.3472    8.9374   19.6009 C   0  0  0  0  0  0  0  0  0  0  0  0
   48.7223    7.8382   19.0301 C   0  0  0  0  0  0  0  0  0  0  0  0
   48.9213    6.5979   19.6888 N   0  0  0  0  0  0  0  0  0  0  0  0
   49.6429    6.6472   20.8760 C   0  0  0  0  0  0  0  0  0  0  0  0
   50.2435    7.8783   21.3477 C   0  0  0  0  0  0  0  0  0  0  0  0
   47.9865    8.2938   17.9228 C   0  0  0  0  0  0  0  0  0  0  0  0
   48.2252    9.6527   17.8118 C   0  0  0  0  0  0  0  0  0  0  0  0
   49.0550   10.0313   18.8367 N   0  0  0  0  0  0  0  0  0  0  0  0
   49.6812    5.4958   21.5009 N   0  0  0  0  0  0  0  0  0  0  0  0
   49.0083    4.6484   20.6724 C   0  0  0  0  0  0  0  0  0  0  0  0
   48.5831    5.2653   19.4952 C   0  0  0  0  0  0  0  0  0  0  0  0
   47.9130    4.5543   18.3536 C   0  0  2  0  0  0  0  0  0  0  0  0
   48.6195    3.2210   17.9467 C   0  0  1  0  0  0  0  0  0  0  0  0
   47.8586    2.8624   16.6650 C   0  0  0  0  0  0  0  0  0  0  0  0
   47.5805    4.1462   16.0442 N   0  0  0  0  0  0  0  0  0  0  0  0
   47.7341    5.2329   17.0038 C   0  0  0  0  0  0  0  0  0  0  0  0
   50.1363    3.3628   17.6747 C   0  0  0  0  0  0  0  0  0  0  0  0
   50.8156    2.0214   17.4290 C   0  0  0  0  0  0  0  0  0  0  0  0
   47.3293    4.2341   14.6996 C   0  0  0  0  0  0  0  0  0  0  0  0
   47.1118    5.5036   14.2353 N   0  0  0  0  0  0  0  0  0  0  0  0
   47.3197    3.2583   13.9572 O   0  0  0  0  0  0  0  0  0  0  0  0
   46.7111    5.6954   12.8405 C   0  0  0  0  0  0  0  0  0  0  0  0
   45.2367    5.4009   12.5416 C   0  0  0  0  0  0  0  0  0  0  0  0
   44.9176    4.0987   12.6491 F   0  0  0  0  0  0  0  0  0  0  0  0
   44.9202    5.8005   11.2892 F   0  0  0  0  0  0  0  0  0  0  0  0
   44.4370    6.0931   13.3923 F   0  0  0  0  0  0  0  0  0  0  0  0
   47.9640    5.2954   16.5368 H   0  0  0  0  0  0  0  0  0  0  0  0
   48.6046    5.9420   17.7622 H   0  0  0  0  0  0  0  0  0  0  0  0
   52.1499    8.2677   21.6427 H   0  0  0  0  0  0  0  0  0  0  0  0
   46.8928    7.5874   18.6106 H   0  0  0  0  0  0  0  0  0  0  0  0
   46.3531   10.1337   19.3749 H   0  0  0  0  0  0  0  0  0  0  0  0
   48.3385   10.9630   20.6981 H   0  0  0  0  0  0  0  0  0  0  0  0
   51.1140    3.9758   19.5607 H   0  0  0  0  0  0  0  0  0  0  0  0
   47.6623    5.2944   18.7001 H   0  0  0  0  0  0  0  0  0  0  0  0
   48.3484    2.9956   18.5835 H   0  0  0  0  0  0  0  0  0  0  0  0
   47.5091    2.8787   15.9528 H   0  0  0  0  0  0  0  0  0  0  0  0
   46.4947    3.6711   17.1800 H   0  0  0  0  0  0  0  0  0  0  0  0
   49.4998    5.8676   16.2993 H   0  0  0  0  0  0  0  0  0  0  0  0
   48.1463    6.8597   16.8513 H   0  0  0  0  0  0  0  0  0  0  0  0
   50.0275    3.5542   16.0569 H   0  0  0  0  0  0  0  0  0  0  0  0
   50.7920    3.3819   17.6146 H   0  0  0  0  0  0  0  0  0  0  0  0
   49.7351    1.1121   17.8829 H   0  0  0  0  0  0  0  0  0  0  0  0
   50.8501    1.2501   16.5134 H   0  0  0  0  0  0  0  0  0  0  0  0
   49.1048    1.2553   16.2286 H   0  0  0  0  0  0  0  0  0  0  0  0
   45.7168    3.9596   14.9080 H   0  0  0  0  0  0  0  0  0  0  0  0
   44.9113    5.7273   13.2571 H   0  0  0  0  0  0  0  0  0  0  0  0
   46.3339    5.2610   12.3122 H   0  0  0  0  0  0  0  0  0  0  0  0
   50.8362    7.8412   22.2773 H   0  0  0  0  0  0  0  0  0  0  0  0
   47.3253    7.7694   17.2561 H   0  0  0  0  0  0  0  0  0  0  0  0
   47.8617   10.3889   17.1044 H   0  0  0  0  0  0  0  0  0  0  0  0
   49.3881   10.9668   19.0285 H   0  0  0  0  0  0  0  0  0  0  0  0
   48.8871    3.6036   20.9402 H   0  0  0  0  0  0  0  0  0  0  0  0
   46.9067    4.2835   18.7169 H   0  0  0  0  0  0  0  0  0  0  0  0
   48.4629    2.4489   18.7099 H   0  0  0  0  0  0  0  0  0  0  0  0
   46.8906    2.4050   16.9036 H   0  0  0  0  0  0  0  0  0  0  0  0
   48.3925    2.1957   15.9864 H   0  0  0  0  0  0  0  0  0  0  0  0
   46.8166    5.8243   16.9851 H   0  0  0  0  0  0  0  0  0  0  0  0
   48.5934    5.8356   16.6951 H   0  0  0  0  0  0  0  0  0  0  0  0
   50.3204    4.0172   16.8145 H   0  0  0  0  0  0  0  0  0  0  0  0
   50.6367    3.8259   18.5312 H   0  0  0  0  0  0  0  0  0  0  0  0
   50.6689    1.3448   18.2775 H   0  0  0  0  0  0  0  0  0  0  0  0
   51.8919    2.1669   17.2997 H   0  0  0  0  0  0  0  0  0  0  0  0
   50.4412    1.5279   16.5279 H   0  0  0  0  0  0  0  0  0  0  0  0
   46.7005    6.1402   14.8999 H   0  0  0  0  0  0  0  0  0  0  0  0
   47.3493    5.0779   12.2006 H   0  0  0  0  0  0  0  0  0  0  0  0
   46.9193    6.7449   12.6062 H   0  0  0  0  0  0  0  0  0  0  0  0
  2  3  1  0
  4  5  1  0
  6  7  1  0
  7  2  2  0
  3 10  1  0
  3  4  2  0
  4  8  1  0
  8  9  2  0
  9 10  1  0
  5 13  1  0
  5  6  1  0
  6 11  2  0
 11 12  1  0
 12 13  2  0
 14 13  1  0
 14 15  1  0
 14 18  1  0
 15 16  1  0
 16 17  1  0
 17 18  1  0
 15 19  1  0
 19 20  1  0
 17 21  1  0
 21 22  1  0
 21 23  2  0
 22 24  1  0
 24 25  1  0
 25 26  1  0
 25 27  1  0
 25 28  1  0
 29 30  1  0
 31 32  1  0
 33 34  1  0
 34 29  2  0
 30 37  1  0
 30 31  2  0
 31 35  1  0
 35 36  2  0
 36 37  1  0
 32 40  1  0
 32 33  1  0
 33 38  2  0
 38 39  1  0
 39 40  2  0
 41 40  1  0
 41 42  1  0
 41 45  1  0
 42 43  1  0
 43 44  1  0
 44 45  1  0
 42 46  1  0
 46 47  1  0
 44 48  1  0
 48 49  1  0
 48 50  2  0
 49 51  1  0
 51 52  1  0
 52 53  1  0
 52 54  1  0
 52 55  1  0
  1 56  1  0
  1 57  1  0
  7 58  1  0
  8 59  1  0
  9 60  1  0
 10 61  1  0
 12 62  1  0
 14 63  1  1
 15 64  1  1
 16 65  1  0
 16 66  1  0
 18 67  1  0
 18 68  1  0
 19 69  1  0
 19 70  1  0
 20 71  1  0
 20 72  1  0
 20 73  1  0
 22 74  1  0
 24 75  1  0
 24 76  1  0
 34 77  1  0
 35 78  1  0
 36 79  1  0
 37 80  1  0
 39 81  1  0
 41 82  1  1
 42 83  1  1
 43 84  1  0
 43 85  1  0
 45 86  1  0
 45 87  1  0
 46 88  1  0
 46 89  1  0
 47 90  1  0
 47 91  1  0
 47 92  1  0
 49 93  1  0
 51 94  1  0
 51 95  1  0
M  END
> <Uni-Dock RESULT> 
ENERGY=   -7.790  LOWER_BOUND=    0.000  UPPER_BOUND=    0.000
INTER + INTRA:          -7.790
INTER:                  -7.790
INTRA:                   0.000
UNBOUND:                 0.000

$$$$

     RDKit          3D

 95100  0  0  0  0  0  0  0  0999 V2000
   47.7907    6.7706   14.1157 O   0  0  0  0  0  0  0  0  0  0  0  0
   49.6998    6.5425   19.7500 N   0  0  0  0  0  0  0  0  0  0  0  0
   49.4795    5.6092   18.7832 C   0  0  0  0  0  0  0  0  0  0  0  0
   49.2087    5.7867   17.4391 C   0  0  0  0  0  0  0  0  0  0  0  0
   49.1339    7.1214   16.9939 N   0  0  0  0  0  0  0  0  0  0  0  0
   49.4052    8.1093   17.9178 C   0  0  0  0  0  0  0  0  0  0  0  0
   49.6680    7.7753   19.3046 C   0  0  0  0  0  0  0  0  0  0  0  0
   49.1114    4.5297   16.8228 C   0  0  0  0  0  0  0  0  0  0  0  0
   49.2934    3.5958   17.8281 C   0  0  0  0  0  0  0  0  0  0  0  0
   49.5115    4.2628   19.0136 N   0  0  0  0  0  0  0  0  0  0  0  0
   49.4397    9.3015   17.3716 N   0  0  0  0  0  0  0  0  0  0  0  0
   49.1542    9.0733   16.0478 C   0  0  0  0  0  0  0  0  0  0  0  0
   48.8734    7.7397   15.7829 C   0  0  0  0  0  0  0  0  0  0  0  0
   48.4766    7.0108   14.5401 C   0  0  2  0  0  0  0  0  0  0  0  0
   48.3874    7.7946   13.2010 C   0  0  1  0  0  0  0  0  0  0  0  0
   47.7927    6.6940   12.2972 C   0  0  0  0  0  0  0  0  0  0  0  0
   46.8811    5.9651   13.1758 N   0  0  0  0  0  0  0  0  0  0  0  0
   47.1077    6.3230   14.5713 C   0  0  0  0  0  0  0  0  0  0  0  0
   47.4410    9.0228   13.1746 C   0  0  0  0  0  0  0  0  0  0  0  0
   47.6282    9.8680   11.9167 C   0  0  0  0  0  0  0  0  0  0  0  0
   45.8573    5.1272   12.8203 C   0  0  0  0  0  0  0  0  0  0  0  0
   45.7854    4.8508   11.4805 N   0  0  0  0  0  0  0  0  0  0  0  0
   45.0648    4.6593   13.6305 O   0  0  0  0  0  0  0  0  0  0  0  0
   44.7874    3.8918   11.0000 C   0  0  0  0  0  0  0  0  0  0  0  0
   44.6919    3.7904    9.4822 C   0  0  0  0  0  0  0  0  0  0  0  0
   43.8487    2.8061    9.1091 F   0  0  0  0  0  0  0  0  0  0  0  0
   45.9080    3.5179    8.9496 F   0  0  0  0  0  0  0  0  0  0  0  0
   44.2552    4.9430    8.9314 F   0  0  0  0  0  0  0  0  0  0  0  0
   49.5168    6.3909   19.2679 N   0  0  0  0  0  0  0  0  0  0  0  0
   48.7595    5.6406   18.4221 C   0  0  0  0  0  0  0  0  0  0  0  0
   48.6693    5.6796   17.0383 C   0  0  0  0  0  0  0  0  0  0  0  0
   49.4668    6.6572   16.3902 N   0  0  0  0  0  0  0  0  0  0  0  0
   50.3101    7.3975   17.2109 C   0  0  0  0  0  0  0  0  0  0  0  0
   50.2898    7.2474   18.6516 C   0  0  0  0  0  0  0  0  0  0  0  0
   47.7995    4.6505   16.6388 C   0  0  0  0  0  0  0  0  0  0  0  0
   47.3364    4.0434   17.7933 C   0  0  0  0  0  0  0  0  0  0  0  0
   47.9261    4.6555   18.8704 N   0  0  0  0  0  0  0  0  0  0  0  0
   51.1114    8.1897   16.5415 N   0  0  0  0  0  0  0  0  0  0  0  0
   50.7476    8.0044   15.2412 C   0  0  0  0  0  0  0  0  0  0  0  0
   49.6772    7.1208   15.0985 C   0  0  0  0  0  0  0  0  0  0  0  0
   48.9960    6.8094   13.7959 C   0  0  2  0  0  0  0  0  0  0  0  0
   48.6639    8.0778   12.9454 C   0  0  1  0  0  0  0  0  0  0  0  0
   47.8109    7.4686   11.8266 C   0  0  0  0  0  0  0  0  0  0  0  0
   47.0654    6.4085   12.4834 N   0  0  0  0  0  0  0  0  0  0  0  0
   47.6722    6.0604   13.7625 C   0  0  0  0  0  0  0  0  0  0  0  0
   47.8814    9.1703   13.7126 C   0  0  0  0  0  0  0  0  0  0  0  0
   47.7083   10.4472   12.8998 C   0  0  0  0  0  0  0  0  0  0  0  0
   45.8928    5.9418   11.9485 C   0  0  0  0  0  0  0  0  0  0  0  0
   45.2744    4.9637   12.6799 N   0  0  0  0  0  0  0  0  0  0  0  0
   45.4152    6.3765   10.9062 O   0  0  0  0  0  0  0  0  0  0  0  0
   44.0836    4.3092   12.1351 C   0  0  0  0  0  0  0  0  0  0  0  0
   44.3583    3.2473   11.0641 C   0  0  0  0  0  0  0  0  0  0  0  0
   44.8331    3.7567    9.9135 F   0  0  0  0  0  0  0  0  0  0  0  0
   43.2277    2.5638   10.7766 F   0  0  0  0  0  0  0  0  0  0  0  0
   45.2627    2.3433   11.5194 F   0  0  0  0  0  0  0  0  0  0  0  0
   47.1533    6.1345   13.7592 H   0  0  0  0  0  0  0  0  0  0  0  0
   47.9347    6.4726   15.0262 H   0  0  0  0  0  0  0  0  0  0  0  0
   49.8487    8.6009   20.0106 H   0  0  0  0  0  0  0  0  0  0  0  0
   48.9416    4.2884   15.7828 H   0  0  0  0  0  0  0  0  0  0  0  0
   49.2958    2.5137   17.8038 H   0  0  0  0  0  0  0  0  0  0  0  0
   49.6835    3.8419   19.9172 H   0  0  0  0  0  0  0  0  0  0  0  0
   49.1660    9.9037   15.3560 H   0  0  0  0  0  0  0  0  0  0  0  0
   49.2446    6.2380   14.3811 H   0  0  0  0  0  0  0  0  0  0  0  0
   49.3866    8.0913   12.8599 H   0  0  0  0  0  0  0  0  0  0  0  0
   47.2678    7.0650   11.4120 H   0  0  0  0  0  0  0  0  0  0  0  0
   48.5692    5.9913   11.9744 H   0  0  0  0  0  0  0  0  0  0  0  0
   46.3069    7.0005   14.8889 H   0  0  0  0  0  0  0  0  0  0  0  0
   47.0579    5.4320   15.2002 H   0  0  0  0  0  0  0  0  0  0  0  0
   46.3888    8.7149   13.2327 H   0  0  0  0  0  0  0  0  0  0  0  0
   47.6048    9.6760   14.0314 H   0  0  0  0  0  0  0  0  0  0  0  0
   48.6728   10.1750   11.8063 H   0  0  0  0  0  0  0  0  0  0  0  0
   47.0142   10.7722   11.9795 H   0  0  0  0  0  0  0  0  0  0  0  0
   47.3295    9.3228   11.0165 H   0  0  0  0  0  0  0  0  0  0  0  0
   46.6761    4.8386   11.0061 H   0  0  0  0  0  0  0  0  0  0  0  0
   45.0570    2.9127   11.4167 H   0  0  0  0  0  0  0  0  0  0  0  0
   43.8125    4.1718   11.4156 H   0  0  0  0  0  0  0  0  0  0  0  0
   50.9566    7.8928   19.2480 H   0  0  0  0  0  0  0  0  0  0  0  0
   47.5139    4.3148   15.6578 H   0  0  0  0  0  0  0  0  0  0  0  0
   46.6531    3.2157   17.9434 H   0  0  0  0  0  0  0  0  0  0  0  0
   47.7982    4.4158   19.8446 H   0  0  0  0  0  0  0  0  0  0  0  0
   51.2510    8.5503   14.4496 H   0  0  0  0  0  0  0  0  0  0  0  0
   49.7202    6.2152   13.2122 H   0  0  0  0  0  0  0  0  0  0  0  0
   49.5784    8.5176   12.5290 H   0  0  0  0  0  0  0  0  0  0  0  0
   48.4463    6.9926   11.0698 H   0  0  0  0  0  0  0  0  0  0  0  0
   47.1477    8.1720   11.3214 H   0  0  0  0  0  0  0  0  0  0  0  0
   47.8366    4.9811   13.7690 H   0  0  0  0  0  0  0  0  0  0  0  0
   46.9783    6.3545   14.5555 H   0  0  0  0  0  0  0  0  0  0  0  0
   46.8929    8.8048   14.0149 H   0  0  0  0  0  0  0  0  0  0  0  0
   48.4078    9.4425   14.6331 H   0  0  0  0  0  0  0  0  0  0  0  0
   48.6783   10.8538   12.5943 H   0  0  0  0  0  0  0  0  0  0  0  0
   47.2024   11.2069   13.5025 H   0  0  0  0  0  0  0  0  0  0  0  0
   47.1055   10.2866   12.0018 H   0  0  0  0  0  0  0  0  0  0  0  0
   45.8903    4.3736   13.2172 H   0  0  0  0  0  0  0  0  0  0  0  0
   43.4112    5.0742   11.7342 H   0  0  0  0  0  0  0  0  0  0  0  0
   43.5813    3.8358   12.9855 H   0  0  0  0  0  0  0  0  0  0  0  0
  2  3  1  0
  4  5  1  0
  6  7  1  0
  7  2  2  0
  3 10  1  0
  3  4  2  0
  4  8  1  0
  8  9  2  0
  9 10  1  0
  5 13  1  0
  5  6  1  0
  6 11  2  0
 11 12  1  0
 12 13  2  0
 14 13  1  0
 14 15  1  0
 14 18  1  0
 15 16  1  0
 16 17  1  0
 17 18  1  0
 15 19  1  0
 19 20  1  0
 17 21  1  0
 21 22  1  0
 21 23  2  0
 22 24  1  0
 24 25  1  0
 25 26  1  0
 25 27  1  0
 25 28  1  0
 29 30  1  0
 31 32  1  0
 33 34  1  0
 34 29  2  0
 30 37  1  0
 30 31  2  0
 31 35  1  0
 35 36  2  0
 36 37  1  0
 32 40  1  0
 32 33  1  0
 33 38  2  0
 38 39  1  0
 39 40  2  0
 41 40  1  0
 41 42  1  0
 41 45  1  0
 42 43  1  0
 43 44  1  0
 44 45  1  0
 42 46  1  0
 46 47  1  0
 44 48  1  0
 48 49  1  0
 48 50  2  0
 49 51  1  0
 51 52  1  0
 52 53  1  0
 52 54  1  0
 52 55  1  0
  1 56  1  0
  1 57  1  0
  7 58  1  0
  8 59  1  0
  9 60  1  0
 10 61  1  0
 12 62  1  0
 14 63  1  1
 15 64  1  1
 16 65  1  0
 16 66  1  0
 18 67  1  0
 18 68  1  0
 19 69  1  0
 19 70  1  0
 20 71  1  0
 20 72  1  0
 20 73  1  0
 22 74  1  0
 24 75  1  0
 24 76  1  0
 34 77  1  0
 35 78  1  0
 36 79  1  0
 37 80  1  0
 39 81  1  0
 41 82  1  1
 42 83  1  1
 43 84  1  0
 43 85  1  0
 45 86  1  0
 45 87  1  0
 46 88  1  0
 46 89  1  0
 47 90  1  0
 47 91  1  0
 47 92  1  0
 49 93  1  0
 51 94  1  0
 51 95  1  0
M  END
> <Uni-Dock RESULT> 
ENERGY=   -6.140  LOWER_BOUND=    2.243  UPPER_BOUND=    4.727
INTER + INTRA:          -6.140
INTER:                  -6.140
INTRA:                   0.000
UNBOUND:                 0.000

$$$$

     RDKit          3D

 95100  0  0  0  0  0  0  0  0999 V2000
   44.2573   10.6669   11.4068 O   0  0  0  0  0  0  0  0  0  0  0  0
   47.7577   15.2784   12.7937 N   0  0  0  0  0  0  0  0  0  0  0  0
   47.9685   14.0696   12.2033 C   0  0  0  0  0  0  0  0  0  0  0  0
   47.0480   13.1392   11.7579 C   0  0  0  0  0  0  0  0  0  0  0  0
   45.6918   13.4706   11.9477 N   0  0  0  0  0  0  0  0  0  0  0  0
   45.4163   14.7091   12.4894 C   0  0  0  0  0  0  0  0  0  0  0  0
   46.4891   15.5846   12.9210 C   0  0  0  0  0  0  0  0  0  0  0  0
   47.7325   12.0667   11.1657 C   0  0  0  0  0  0  0  0  0  0  0  0
   49.0801   12.3544   11.2960 C   0  0  0  0  0  0  0  0  0  0  0  0
   49.2108   13.5700   11.9309 N   0  0  0  0  0  0  0  0  0  0  0  0
   44.1307   14.9700   12.4990 N   0  0  0  0  0  0  0  0  0  0  0  0
   43.5549   13.8433   11.9651 C   0  0  0  0  0  0  0  0  0  0  0  0
   44.4829   12.8492   11.6852 C   0  0  0  0  0  0  0  0  0  0  0  0
   44.3556   11.4611   11.1464 C   0  0  2  0  0  0  0  0  0  0  0  0
   42.9535   10.9407   10.7239 C   0  0  1  0  0  0  0  0  0  0  0  0
   43.3052    9.4687   10.4217 C   0  0  0  0  0  0  0  0  0  0  0  0
   44.3180    9.1320   11.4192 N   0  0  0  0  0  0  0  0  0  0  0  0
   44.8217   10.3339   12.0739 C   0  0  0  0  0  0  0  0  0  0  0  0
   41.8434   10.9730   11.8062 C   0  0  0  0  0  0  0  0  0  0  0  0
   40.4599   10.6978   11.2213 C   0  0  0  0  0  0  0  0  0  0  0  0
   44.7219    7.8871   11.8237 C   0  0  0  0  0  0  0  0  0  0  0  0
   44.1955    6.8522   11.0966 N   0  0  0  0  0  0  0  0  0  0  0  0
   45.4915    7.7060   12.7609 O   0  0  0  0  0  0  0  0  0  0  0  0
   44.6317    5.4828   11.3811 C   0  0  0  0  0  0  0  0  0  0  0  0
   43.8594    4.4069   10.6267 C   0  0  0  0  0  0  0  0  0  0  0  0
   44.3899    3.1848   10.8368 F   0  0  0  0  0  0  0  0  0  0  0  0
   43.8924    4.6490    9.2936 F   0  0  0  0  0  0  0  0  0  0  0  0
   42.5630    4.3675   11.0014 F   0  0  0  0  0  0  0  0  0  0  0  0
   47.5976   14.7876   12.6440 N   0  0  0  0  0  0  0  0  0  0  0  0
   47.6785   13.4300   12.5989 C   0  0  0  0  0  0  0  0  0  0  0  0
   46.8657   12.5122   11.9496 C   0  0  0  0  0  0  0  0  0  0  0  0
   45.7665   13.0518   11.2337 N   0  0  0  0  0  0  0  0  0  0  0  0
   45.6873   14.4391   11.1937 C   0  0  0  0  0  0  0  0  0  0  0  0
   46.6140   15.2732   11.9315 C   0  0  0  0  0  0  0  0  0  0  0  0
   47.4161   11.2355   12.1548 C   0  0  0  0  0  0  0  0  0  0  0  0
   48.5215   11.3997   12.9716 C   0  0  0  0  0  0  0  0  0  0  0  0
   48.6692   12.7379   13.2357 N   0  0  0  0  0  0  0  0  0  0  0  0
   44.7295   14.8757   10.4127 N   0  0  0  0  0  0  0  0  0  0  0  0
   44.1246   13.7391    9.9658 C   0  0  0  0  0  0  0  0  0  0  0  0
   44.6811   12.5799   10.5080 C   0  0  0  0  0  0  0  0  0  0  0  0
   44.1514   11.1924   10.2802 C   0  0  2  0  0  0  0  0  0  0  0  0
   42.6012   11.0804   10.4440 C   0  0  1  0  0  0  0  0  0  0  0  0
   42.4049    9.5618   10.3700 C   0  0  0  0  0  0  0  0  0  0  0  0
   43.5815    9.0177   11.0261 N   0  0  0  0  0  0  0  0  0  0  0  0
   44.6357   10.0203   11.1205 C   0  0  0  0  0  0  0  0  0  0  0  0
   42.0603   11.6493   11.7776 C   0  0  0  0  0  0  0  0  0  0  0  0
   40.5380   11.6594   11.8360 C   0  0  0  0  0  0  0  0  0  0  0  0
   43.5660    7.7539   11.5568 C   0  0  0  0  0  0  0  0  0  0  0  0
   44.7278    7.3728   12.1728 N   0  0  0  0  0  0  0  0  0  0  0  0
   42.5839    7.0214   11.5076 O   0  0  0  0  0  0  0  0  0  0  0  0
   44.8601    5.9993   12.6614 C   0  0  0  0  0  0  0  0  0  0  0  0
   45.1619    4.9522   11.5832 C   0  0  0  0  0  0  0  0  0  0  0  0
   44.1403    4.7490   10.7324 F   0  0  0  0  0  0  0  0  0  0  0  0
   45.4671    3.7640   12.1518 F   0  0  0  0  0  0  0  0  0  0  0  0
   46.2404    5.3293   10.8504 F   0  0  0  0  0  0  0  0  0  0  0  0
   44.5277    9.7489   11.5558 H   0  0  0  0  0  0  0  0  0  0  0  0
   45.0241   11.1859   11.6915 H   0  0  0  0  0  0  0  0  0  0  0  0
   46.2179   16.5503   13.3756 H   0  0  0  0  0  0  0  0  0  0  0  0
   47.3360   11.1830   10.6854 H   0  0  0  0  0  0  0  0  0  0  0  0
   49.9595   11.8054   10.9849 H   0  0  0  0  0  0  0  0  0  0  0  0
   50.0776   14.0404   12.1559 H   0  0  0  0  0  0  0  0  0  0  0  0
   42.4846   13.8189   11.8167 H   0  0  0  0  0  0  0  0  0  0  0  0
   44.9711   11.4303   10.2340 H   0  0  0  0  0  0  0  0  0  0  0  0
   42.6050   11.4586    9.8221 H   0  0  0  0  0  0  0  0  0  0  0  0
   42.4591    8.7772   10.4762 H   0  0  0  0  0  0  0  0  0  0  0  0
   43.7721    9.3729    9.4349 H   0  0  0  0  0  0  0  0  0  0  0  0
   44.3707   10.3996   13.0706 H   0  0  0  0  0  0  0  0  0  0  0  0
   45.9036   10.2657   12.2029 H   0  0  0  0  0  0  0  0  0  0  0  0
   42.0385   10.2376   12.5975 H   0  0  0  0  0  0  0  0  0  0  0  0
   41.7972   11.9399   12.3070 H   0  0  0  0  0  0  0  0  0  0  0  0
   40.2357   11.3950   10.4081 H   0  0  0  0  0  0  0  0  0  0  0  0
   39.6957   10.8229   11.9952 H   0  0  0  0  0  0  0  0  0  0  0  0
   40.3810    9.6772   10.8355 H   0  0  0  0  0  0  0  0  0  0  0  0
   44.0179    7.0683   10.1269 H   0  0  0  0  0  0  0  0  0  0  0  0
   45.6955    5.4239   11.1172 H   0  0  0  0  0  0  0  0  0  0  0  0
   44.5480    5.3119   12.4607 H   0  0  0  0  0  0  0  0  0  0  0  0
   46.4724   16.3664   11.8884 H   0  0  0  0  0  0  0  0  0  0  0  0
   47.1205   10.2745   11.7730 H   0  0  0  0  0  0  0  0  0  0  0  0
   49.2288   10.6835   13.3731 H   0  0  0  0  0  0  0  0  0  0  0  0
   49.3998   13.1662   13.7885 H   0  0  0  0  0  0  0  0  0  0  0  0
   43.2760   13.8001    9.2921 H   0  0  0  0  0  0  0  0  0  0  0  0
   44.3785   10.9527    9.2271 H   0  0  0  0  0  0  0  0  0  0  0  0
   42.0852   11.5711    9.6096 H   0  0  0  0  0  0  0  0  0  0  0  0
   42.4301    9.2176    9.3289 H   0  0  0  0  0  0  0  0  0  0  0  0
   41.4849    9.1957   10.8278 H   0  0  0  0  0  0  0  0  0  0  0  0
   45.5440    9.5877   10.6965 H   0  0  0  0  0  0  0  0  0  0  0  0
   44.7756   10.2631   12.1781 H   0  0  0  0  0  0  0  0  0  0  0  0
   42.4449   11.0788   12.6313 H   0  0  0  0  0  0  0  0  0  0  0  0
   42.3955   12.6821   11.9167 H   0  0  0  0  0  0  0  0  0  0  0  0
   40.1162   12.2371   11.0067 H   0  0  0  0  0  0  0  0  0  0  0  0
   40.2039   12.1217   12.7693 H   0  0  0  0  0  0  0  0  0  0  0  0
   40.1167   10.6509   11.8008 H   0  0  0  0  0  0  0  0  0  0  0  0
   45.5680    7.7875   11.8010 H   0  0  0  0  0  0  0  0  0  0  0  0
   43.9467    5.7250   13.1987 H   0  0  0  0  0  0  0  0  0  0  0  0
   45.6819    6.0123   13.3853 H   0  0  0  0  0  0  0  0  0  0  0  0
  2  3  1  0
  4  5  1  0
  6  7  1  0
  7  2  2  0
  3 10  1  0
  3  4  2  0
  4  8  1  0
  8  9  2  0
  9 10  1  0
  5 13  1  0
  5  6  1  0
  6 11  2  0
 11 12  1  0
 12 13  2  0
 14 13  1  0
 14 15  1  0
 14 18  1  0
 15 16  1  0
 16 17  1  0
 17 18  1  0
 15 19  1  0
 19 20  1  0
 17 21  1  0
 21 22  1  0
 21 23  2  0
 22 24  1  0
 24 25  1  0
 25 26  1  0
 25 27  1  0
 25 28  1  0
 29 30  1  0
 31 32  1  0
 33 34  1  0
 34 29  2  0
 30 37  1  0
 30 31  2  0
 31 35  1  0
 35 36  2  0
 36 37  1  0
 32 40  1  0
 32 33  1  0
 33 38  2  0
 38 39  1  0
 39 40  2  0
 41 40  1  0
 41 42  1  0
 41 45  1  0
 42 43  1  0
 43 44  1  0
 44 45  1  0
 42 46  1  0
 46 47  1  0
 44 48  1  0
 48 49  1  0
 48 50  2  0
 49 51  1  0
 51 52  1  0
 52 53  1  0
 52 54  1  0
 52 55  1  0
  1 56  1  0
  1 57  1  0
  7 58  1  0
  8 59  1  0
  9 60  1  0
 10 61  1  0
 12 62  1  0
 14 63  1  1
 15 64  1  1
 16 65  1  0
 16 66  1  0
 18 67  1  0
 18 68  1  0
 19 69  1  0
 19 70  1  0
 20 71  1  0
 20 72  1  0
 20 73  1  0
 22 74  1  0
 24 75  1  0
 24 76  1  0
 34 77  1  0
 35 78  1  0
 36 79  1  0
 37 80  1  0
 39 81  1  0
 41 82  1  1
 42 83  1  1
 43 84  1  0
 43 85  1  0
 45 86  1  0
 45 87  1  0
 46 88  1  0
 46 89  1  0
 47 90  1  0
 47 91  1  0
 47 92  1  0
 49 93  1  0
 51 94  1  0
 51 95  1  0
M  END
> <Uni-Dock RESULT> 
ENERGY=   -6.098  LOWER_BOUND=    6.589  UPPER_BOUND=    9.442
INTER + INTRA:          -6.098
INTER:                  -6.098
INTRA:                   0.000
UNBOUND:                 0.000

$$$$

     RDKit          3D

 95100  0  0  0  0  0  0  0  0999 V2000
   48.5534    8.1556   18.8523 O   0  0  0  0  0  0  0  0  0  0  0  0
   48.4765   12.4556   22.9689 N   0  0  0  0  0  0  0  0  0  0  0  0
   47.7624   12.2131   21.8350 C   0  0  0  0  0  0  0  0  0  0  0  0
   47.7345   11.0809   21.0421 C   0  0  0  0  0  0  0  0  0  0  0  0
   48.5707   10.0215   21.4463 N   0  0  0  0  0  0  0  0  0  0  0  0
   49.2752   10.1885   22.6207 C   0  0  0  0  0  0  0  0  0  0  0  0
   49.2144   11.4409   23.3498 C   0  0  0  0  0  0  0  0  0  0  0  0
   46.8050   11.2704   20.0078 C   0  0  0  0  0  0  0  0  0  0  0  0
   46.3028   12.5494   20.1746 C   0  0  0  0  0  0  0  0  0  0  0  0
   46.8944   13.1130   21.2838 N   0  0  0  0  0  0  0  0  0  0  0  0
   49.9143    9.0986   22.9735 N   0  0  0  0  0  0  0  0  0  0  0  0
   49.6295    8.2027   21.9723 C   0  0  0  0  0  0  0  0  0  0  0  0
   48.8646    8.7604   20.9566 C   0  0  0  0  0  0  0  0  0  0  0  0
   48.3418    8.2225   19.6641 C   0  0  2  0  0  0  0  0  0  0  0  0
   48.5951    6.7307   19.3095 C   0  0  1  0  0  0  0  0  0  0  0  0
   48.0459    6.7116   17.8673 C   0  0  0  0  0  0  0  0  0  0  0  0
   48.4130    8.0190   17.3287 N   0  0  0  0  0  0  0  0  0  0  0  0
   48.8439    8.9172   18.3939 C   0  0  0  0  0  0  0  0  0  0  0  0
   50.0732    6.2622   19.2833 C   0  0  0  0  0  0  0  0  0  0  0  0
   50.1949    4.7429   19.1909 C   0  0  0  0  0  0  0  0  0  0  0  0
   48.4768    8.4020   16.0150 C   0  0  0  0  0  0  0  0  0  0  0  0
   48.0065    7.4717   15.1261 N   0  0  0  0  0  0  0  0  0  0  0  0
   48.9187    9.4879   15.6562 O   0  0  0  0  0  0  0  0  0  0  0  0
   47.9397    7.8115   13.7025 C   0  0  0  0  0  0  0  0  0  0  0  0
   47.5588    6.6478   12.7949 C   0  0  0  0  0  0  0  0  0  0  0  0
   47.3939    7.0547   11.5197 F   0  0  0  0  0  0  0  0  0  0  0  0
   46.3938    6.0902   13.2056 F   0  0  0  0  0  0  0  0  0  0  0  0
   48.4992    5.6792   12.8040 F   0  0  0  0  0  0  0  0  0  0  0  0
   48.3821   12.1834   22.5152 N   0  0  0  0  0  0  0  0  0  0  0  0
   48.1959   12.0605   21.1727 C   0  0  0  0  0  0  0  0  0  0  0  0
   47.9390   10.9299   20.4108 C   0  0  0  0  0  0  0  0  0  0  0  0
   47.8760    9.7031   21.1198 N   0  0  0  0  0  0  0  0  0  0  0  0
   47.9891    9.7918   22.5026 C   0  0  0  0  0  0  0  0  0  0  0  0
   48.2628   11.0525   23.1616 C   0  0  0  0  0  0  0  0  0  0  0  0
   47.7559   11.3451   19.0807 C   0  0  0  0  0  0  0  0  0  0  0  0
   47.9606   12.7137   19.0539 C   0  0  0  0  0  0  0  0  0  0  0  0
   48.2289   13.1362   20.3314 N   0  0  0  0  0  0  0  0  0  0  0  0
   47.7937    8.6457   23.1076 N   0  0  0  0  0  0  0  0  0  0  0  0
   47.5983    7.7634   22.0874 C   0  0  0  0  0  0  0  0  0  0  0  0
   47.7171    8.3548   20.8291 C   0  0  0  0  0  0  0  0  0  0  0  0
   47.6580    7.6079   19.5267 C   0  0  2  0  0  0  0  0  0  0  0  0
   48.5281    6.3098   19.5105 C   0  0  1  0  0  0  0  0  0  0  0  0
   48.4352    5.9100   18.0334 C   0  0  0  0  0  0  0  0  0  0  0  0
   48.4087    7.1765   17.3220 N   0  0  0  0  0  0  0  0  0  0  0  0
   48.0714    8.2725   18.2221 C   0  0  0  0  0  0  0  0  0  0  0  0
   49.9992    6.5255   19.9393 C   0  0  0  0  0  0  0  0  0  0  0  0
   50.7734    5.2185   20.0556 C   0  0  0  0  0  0  0  0  0  0  0  0
   48.7805    7.2476   16.0045 C   0  0  0  0  0  0  0  0  0  0  0  0
   48.7389    8.5032   15.4606 N   0  0  0  0  0  0  0  0  0  0  0  0
   49.1449    6.2701   15.3602 O   0  0  0  0  0  0  0  0  0  0  0  0
   48.9949    8.6706   14.0290 C   0  0  0  0  0  0  0  0  0  0  0  0
   47.8230    8.3026   13.1119 C   0  0  0  0  0  0  0  0  0  0  0  0
   47.5455    6.9867   13.0984 F   0  0  0  0  0  0  0  0  0  0  0  0
   48.0819    8.6822   11.8402 F   0  0  0  0  0  0  0  0  0  0  0  0
   46.6989    8.9573   13.4996 F   0  0  0  0  0  0  0  0  0  0  0  0
   48.4825    8.3448   17.9051 H   0  0  0  0  0  0  0  0  0  0  0  0
   48.4806    9.0262   19.2710 H   0  0  0  0  0  0  0  0  0  0  0  0
   49.8186   11.5366   24.2654 H   0  0  0  0  0  0  0  0  0  0  0  0
   46.5016   10.5877   19.2265 H   0  0  0  0  0  0  0  0  0  0  0  0
   45.5691   13.1067   19.6066 H   0  0  0  0  0  0  0  0  0  0  0  0
   46.7180   14.0373   21.6547 H   0  0  0  0  0  0  0  0  0  0  0  0
   50.0053    7.1921   22.0475 H   0  0  0  0  0  0  0  0  0  0  0  0
   47.2475    8.3359   19.7066 H   0  0  0  0  0  0  0  0  0  0  0  0
   48.0112    6.0734   19.9652 H   0  0  0  0  0  0  0  0  0  0  0  0
   48.4399    5.9067   17.2399 H   0  0  0  0  0  0  0  0  0  0  0  0
   46.9516    6.6520   17.8664 H   0  0  0  0  0  0  0  0  0  0  0  0
   49.9369    8.9914   18.3625 H   0  0  0  0  0  0  0  0  0  0  0  0
   48.4382    9.9172   18.2288 H   0  0  0  0  0  0  0  0  0  0  0  0
   50.6157    6.7061   18.4384 H   0  0  0  0  0  0  0  0  0  0  0  0
   50.6113    6.5768   20.1773 H   0  0  0  0  0  0  0  0  0  0  0  0
   49.6440    4.2585   20.0030 H   0  0  0  0  0  0  0  0  0  0  0  0
   51.2459    4.4469   19.2708 H   0  0  0  0  0  0  0  0  0  0  0  0
   49.8126    4.3650   18.2381 H   0  0  0  0  0  0  0  0  0  0  0  0
   47.2578    6.8945   15.4795 H   0  0  0  0  0  0  0  0  0  0  0  0
   47.1989    8.6149   13.5991 H   0  0  0  0  0  0  0  0  0  0  0  0
   48.9121    8.2164   13.3990 H   0  0  0  0  0  0  0  0  0  0  0  0
   48.3794   11.0477   24.2586 H   0  0  0  0  0  0  0  0  0  0  0  0
   47.4848   10.7865   18.2026 H   0  0  0  0  0  0  0  0  0  0  0  0
   47.9199   13.4288   18.2406 H   0  0  0  0  0  0  0  0  0  0  0  0
   48.4010   14.0875   20.6282 H   0  0  0  0  0  0  0  0  0  0  0  0
   47.4151    6.7148   22.2991 H   0  0  0  0  0  0  0  0  0  0  0  0
   46.6078    7.2889   19.4101 H   0  0  0  0  0  0  0  0  0  0  0  0
   48.0806    5.5334   20.1430 H   0  0  0  0  0  0  0  0  0  0  0  0
   47.4830    5.4061   17.8271 H   0  0  0  0  0  0  0  0  0  0  0  0
   49.2437    5.2683   17.6806 H   0  0  0  0  0  0  0  0  0  0  0  0
   47.2342    8.8178   17.7818 H   0  0  0  0  0  0  0  0  0  0  0  0
   48.9514    8.9159   18.3137 H   0  0  0  0  0  0  0  0  0  0  0  0
   50.5197    7.1855   19.2353 H   0  0  0  0  0  0  0  0  0  0  0  0
   50.0445    7.0155   20.9173 H   0  0  0  0  0  0  0  0  0  0  0  0
   50.2926    4.5382   20.7664 H   0  0  0  0  0  0  0  0  0  0  0  0
   51.7870    5.4166   20.4158 H   0  0  0  0  0  0  0  0  0  0  0  0
   50.8620    4.7042   19.0946 H   0  0  0  0  0  0  0  0  0  0  0  0
   48.0474    9.1209   15.8562 H   0  0  0  0  0  0  0  0  0  0  0  0
   49.8774    8.0833   13.7561 H   0  0  0  0  0  0  0  0  0  0  0  0
   49.2407    9.7283   13.8860 H   0  0  0  0  0  0  0  0  0  0  0  0
  2  3  1  0
  4  5  1  0
  6  7  1  0
  7  2  2  0
  3 10  1  0
  3  4  2  0
  4  8  1  0
  8  9  2  0
  9 10  1  0
  5 13  1  0
  5  6  1  0
  6 11  2  0
 11 12  1  0
 12 13  2  0
 14 13  1  0
 14 15  1  0
 14 18  1  0
 15 16  1  0
 16 17  1  0
 17 18  1  0
 15 19  1  0
 19 20  1  0
 17 21  1  0
 21 22  1  0
 21 23  2  0
 22 24  1  0
 24 25  1  0
 25 26  1  0
 25 27  1  0
 25 28  1  0
 29 30  1  0
 31 32  1  0
 33 34  1  0
 34 29  2  0
 30 37  1  0
 30 31  2  0
 31 35  1  0
 35 36  2  0
 36 37  1  0
 32 40  1  0
 32 33  1  0
 33 38  2  0
 38 39  1  0
 39 40  2  0
 41 40  1  0
 41 42  1  0
 41 45  1  0
 42 43  1  0
 43 44  1  0
 44 45  1  0
 42 46  1  0
 46 47  1  0
 44 48  1  0
 48 49  1  0
 48 50  2  0
 49 51  1  0
 51 52  1  0
 52 53  1  0
 52 54  1  0
 52 55  1  0
  1 56  1  0
  1 57  1  0
  7 58  1  0
  8 59  1  0
  9 60  1  0
 10 61  1  0
 12 62  1  0
 14 63  1  1
 15 64  1  1
 16 65  1  0
 16 66  1  0
 18 67  1  0
 18 68  1  0
 19 69  1  0
 19 70  1  0
 20 71  1  0
 20 72  1  0
 20 73  1  0
 22 74  1  0
 24 75  1  0
 24 76  1  0
 34 77  1  0
 35 78  1  0
 36 79  1  0
 37 80  1  0
 39 81  1  0
 41 82  1  1
 42 83  1  1
 43 84  1  0
 43 85  1  0
 45 86  1  0
 45 87  1  0
 46 88  1  0
 46 89  1  0
 47 90  1  0
 47 91  1  0
 47 92  1  0
 49 93  1  0
 51 94  1  0
 51 95  1  0
M  END
> <Uni-Dock RESULT> 
ENERGY=   -5.717  LOWER_BOUND=    2.516  UPPER_BOUND=    3.742
INTER + INTRA:          -5.717
INTER:                  -5.717
INTRA:                   0.000
UNBOUND:                 0.000

$$$$

     RDKit          3D

 95100  0  0  0  0  0  0  0  0999 V2000
   48.4010    9.5051   19.9258 O   0  0  0  0  0  0  0  0  0  0  0  0
   49.9558   15.0437   18.3931 N   0  0  0  0  0  0  0  0  0  0  0  0
   49.5502   13.9445   17.6992 C   0  0  0  0  0  0  0  0  0  0  0  0
   49.0328   12.7521   18.1704 C   0  0  0  0  0  0  0  0  0  0  0  0
   48.9145   12.6389   19.5697 N   0  0  0  0  0  0  0  0  0  0  0  0
   49.2567   13.7437   20.3218 C   0  0  0  0  0  0  0  0  0  0  0  0
   49.7966   14.9323   19.6898 C   0  0  0  0  0  0  0  0  0  0  0  0
   48.7046   11.9334   17.0788 C   0  0  0  0  0  0  0  0  0  0  0  0
   49.0675   12.6422   15.9466 C   0  0  0  0  0  0  0  0  0  0  0  0
   49.5833   13.8588   16.3358 N   0  0  0  0  0  0  0  0  0  0  0  0
   48.9843   13.5796   21.5945 N   0  0  0  0  0  0  0  0  0  0  0  0
   48.4695   12.3084   21.6670 C   0  0  0  0  0  0  0  0  0  0  0  0
   48.4856   11.6538   20.4427 C   0  0  0  0  0  0  0  0  0  0  0  0
   48.0825   10.2785   20.0189 C   0  0  2  0  0  0  0  0  0  0  0  0
   47.4487    9.3211   21.0662 C   0  0  1  0  0  0  0  0  0  0  0  0
   47.3797    8.0287   20.2254 C   0  0  0  0  0  0  0  0  0  0  0  0
   48.5877    8.0721   19.4050 N   0  0  0  0  0  0  0  0  0  0  0  0
   49.1980    9.3960   19.4490 C   0  0  0  0  0  0  0  0  0  0  0  0
   48.2805    9.0374   22.3439 C   0  0  0  0  0  0  0  0  0  0  0  0
   47.4663    8.3118   23.4126 C   0  0  0  0  0  0  0  0  0  0  0  0
   49.1937    7.0383   18.7413 C   0  0  0  0  0  0  0  0  0  0  0  0
   48.4907    5.8625   18.7532 N   0  0  0  0  0  0  0  0  0  0  0  0
   50.2783    7.1488   18.1802 O   0  0  0  0  0  0  0  0  0  0  0  0
   48.9993    4.7166   17.9951 C   0  0  0  0  0  0  0  0  0  0  0  0
   48.2255    3.4223   18.2162 C   0  0  0  0  0  0  0  0  0  0  0  0
   48.6647    2.4433   17.3992 F   0  0  0  0  0  0  0  0  0  0  0  0
   46.9072    3.6113   17.9647 F   0  0  0  0  0  0  0  0  0  0  0  0
   48.3385    2.9843   19.4882 F   0  0  0  0  0  0  0  0  0  0  0  0
   49.8302   14.5222   18.3589 N   0  0  0  0  0  0  0  0  0  0  0  0
   49.9462   13.2612   17.8606 C   0  0  0  0  0  0  0  0  0  0  0  0
   49.2500   12.1075   18.1908 C   0  0  0  0  0  0  0  0  0  0  0  0
   48.2779   12.2393   19.2152 N   0  0  0  0  0  0  0  0  0  0  0  0
   48.0762   13.5257   19.7022 C   0  0  0  0  0  0  0  0  0  0  0  0
   48.8900   14.6399   19.2606 C   0  0  0  0  0  0  0  0  0  0  0  0
   49.6941   11.0830   17.3375 C   0  0  0  0  0  0  0  0  0  0  0  0
   50.6912   11.6233   16.5439 C   0  0  0  0  0  0  0  0  0  0  0  0
   50.8360   12.9474   16.8728 N   0  0  0  0  0  0  0  0  0  0  0  0
   47.0796   13.6026   20.5498 N   0  0  0  0  0  0  0  0  0  0  0  0
   46.6449   12.3161   20.6655 C   0  0  0  0  0  0  0  0  0  0  0  0
   47.4061   11.4176   19.9169 C   0  0  0  0  0  0  0  0  0  0  0  0
   47.2265    9.9259   19.9349 C   0  0  2  0  0  0  0  0  0  0  0  0
   47.0915    9.3299   21.3733 C   0  0  1  0  0  0  0  0  0  0  0  0
   47.1416    7.8267   21.0764 C   0  0  0  0  0  0  0  0  0  0  0  0
   48.0712    7.7132   19.9657 N   0  0  0  0  0  0  0  0  0  0  0  0
   48.2653    9.0033   19.3151 C   0  0  0  0  0  0  0  0  0  0  0  0
   48.2239    9.7459   22.3424 C   0  0  0  0  0  0  0  0  0  0  0  0
   47.9788    9.2704   23.7689 C   0  0  0  0  0  0  0  0  0  0  0  0
   48.7192    6.5321   19.7126 C   0  0  0  0  0  0  0  0  0  0  0  0
   49.5895    6.5666   18.6564 N   0  0  0  0  0  0  0  0  0  0  0  0
   48.5548    5.5225   20.3887 O   0  0  0  0  0  0  0  0  0  0  0  0
   50.2375    5.3273   18.2236 C   0  0  0  0  0  0  0  0  0  0  0  0
   49.3574    4.3918   17.3869 C   0  0  0  0  0  0  0  0  0  0  0  0
   48.3478    3.8401   18.0835 F   0  0  0  0  0  0  0  0  0  0  0  0
   50.0977    3.3863   16.8681 F   0  0  0  0  0  0  0  0  0  0  0  0
   48.8164    5.0661   16.3405 F   0  0  0  0  0  0  0  0  0  0  0  0
   48.6969    8.7284   19.4287 H   0  0  0  0  0  0  0  0  0  0  0  0
   48.7750   10.2528   19.4363 H   0  0  0  0  0  0  0  0  0  0  0  0
   50.0837   15.7769   20.3355 H   0  0  0  0  0  0  0  0  0  0  0  0
   48.2519   10.9518   17.0710 H   0  0  0  0  0  0  0  0  0  0  0  0
   48.9963   12.3921   14.8959 H   0  0  0  0  0  0  0  0  0  0  0  0
   49.9240   14.5902   15.7257 H   0  0  0  0  0  0  0  0  0  0  0  0
   48.1160   11.9370   22.6185 H   0  0  0  0  0  0  0  0  0  0  0  0
   47.3183   10.4117   19.2376 H   0  0  0  0  0  0  0  0  0  0  0  0
   46.4461    9.6655   21.3474 H   0  0  0  0  0  0  0  0  0  0  0  0
   47.3388    7.1054   20.8108 H   0  0  0  0  0  0  0  0  0  0  0  0
   46.5205    8.0499   19.5455 H   0  0  0  0  0  0  0  0  0  0  0  0
   50.0731    9.3516   20.1072 H   0  0  0  0  0  0  0  0  0  0  0  0
   49.5447    9.6826   18.4542 H   0  0  0  0  0  0  0  0  0  0  0  0
   49.1682    8.4337   22.1141 H   0  0  0  0  0  0  0  0  0  0  0  0
   48.6570    9.9569   22.7917 H   0  0  0  0  0  0  0  0  0  0  0  0
   46.5556    8.8691   23.6529 H   0  0  0  0  0  0  0  0  0  0  0  0
   48.0561    8.2150   24.3298 H   0  0  0  0  0  0  0  0  0  0  0  0
   47.1828    7.3058   23.0897 H   0  0  0  0  0  0  0  0  0  0  0  0
   47.4877    5.9734   18.7691 H   0  0  0  0  0  0  0  0  0  0  0  0
   48.9586    4.9913   16.9331 H   0  0  0  0  0  0  0  0  0  0  0  0
   50.0530    4.5691   18.2591 H   0  0  0  0  0  0  0  0  0  0  0  0
   48.7042   15.6278   19.7150 H   0  0  0  0  0  0  0  0  0  0  0  0
   49.3655   10.0641   17.2345 H   0  0  0  0  0  0  0  0  0  0  0  0
   51.2982   11.1870   15.7592 H   0  0  0  0  0  0  0  0  0  0  0  0
   51.4737   13.6077   16.4485 H   0  0  0  0  0  0  0  0  0  0  0  0
   45.8141   12.0766   21.3214 H   0  0  0  0  0  0  0  0  0  0  0  0
   46.2704    9.7317   19.4187 H   0  0  0  0  0  0  0  0  0  0  0  0
   46.1244    9.5975   21.8163 H   0  0  0  0  0  0  0  0  0  0  0  0
   46.1684    7.4694   20.7182 H   0  0  0  0  0  0  0  0  0  0  0  0
   47.4446    7.2031   21.9186 H   0  0  0  0  0  0  0  0  0  0  0  0
   48.0775    8.8684   18.2481 H   0  0  0  0  0  0  0  0  0  0  0  0
   49.2978    9.3181   19.4931 H   0  0  0  0  0  0  0  0  0  0  0  0
   49.1924    9.3615   22.0011 H   0  0  0  0  0  0  0  0  0  0  0  0
   48.3163   10.8362   22.3770 H   0  0  0  0  0  0  0  0  0  0  0  0
   47.0260    9.6508   24.1522 H   0  0  0  0  0  0  0  0  0  0  0  0
   48.7733    9.6365   24.4254 H   0  0  0  0  0  0  0  0  0  0  0  0
   47.9681    8.1796   23.8444 H   0  0  0  0  0  0  0  0  0  0  0  0
   49.3494    7.2140   17.9219 H   0  0  0  0  0  0  0  0  0  0  0  0
   50.6095    4.7958   19.1052 H   0  0  0  0  0  0  0  0  0  0  0  0
   51.1040    5.6302   17.6262 H   0  0  0  0  0  0  0  0  0  0  0  0
  2  3  1  0
  4  5  1  0
  6  7  1  0
  7  2  2  0
  3 10  1  0
  3  4  2  0
  4  8  1  0
  8  9  2  0
  9 10  1  0
  5 13  1  0
  5  6  1  0
  6 11  2  0
 11 12  1  0
 12 13  2  0
 14 13  1  0
 14 15  1  0
 14 18  1  0
 15 16  1  0
 16 17  1  0
 17 18  1  0
 15 19  1  0
 19 20  1  0
 17 21  1  0
 21 22  1  0
 21 23  2  0
 22 24  1  0
 24 25  1  0
 25 26  1  0
 25 27  1  0
 25 28  1  0
 29 30  1  0
 31 32  1  0
 33 34  1  0
 34 29  2  0
 30 37  1  0
 30 31  2  0
 31 35  1  0
 35 36  2  0
 36 37  1  0
 32 40  1  0
 32 33  1  0
 33 38  2  0
 38 39  1  0
 39 40  2  0
 41 40  1  0
 41 42  1  0
 41 45  1  0
 42 43  1  0
 43 44  1  0
 44 45  1  0
 42 46  1  0
 46 47  1  0
 44 48  1  0
 48 49  1  0
 48 50  2  0
 49 51  1  0
 51 52  1  0
 52 53  1  0
 52 54  1  0
 52 55  1  0
  1 56  1  0
  1 57  1  0
  7 58  1  0
  8 59  1  0
  9 60  1  0
 10 61  1  0
 12 62  1  0
 14 63  1  1
 15 64  1  1
 16 65  1  0
 16 66  1  0
 18 67  1  0
 18 68  1  0
 19 69  1  0
 19 70  1  0
 20 71  1  0
 20 72  1  0
 20 73  1  0
 22 74  1  0
 24 75  1  0
 24 76  1  0
 34 77  1  0
 35 78  1  0
 36 79  1  0
 37 80  1  0
 39 81  1  0
 41 82  1  1
 42 83  1  1
 43 84  1  0
 43 85  1  0
 45 86  1  0
 45 87  1  0
 46 88  1  0
 46 89  1  0
 47 90  1  0
 47 91  1  0
 47 92  1  0
 49 93  1  0
 51 94  1  0
 51 95  1  0
M  END
> <Uni-Dock RESULT> 
ENERGY=   -5.682  LOWER_BOUND=    3.561  UPPER_BOUND=    6.347
INTER + INTRA:          -5.682
INTER:                  -5.682
INTRA:                   0.000
UNBOUND:                 0.000

$$$$

     RDKit          3D

 95100  0  0  0  0  0  0  0  0999 V2000
   48.8291    9.2747   15.9439 O   0  0  0  0  0  0  0  0  0  0  0  0
   48.0627   15.1516   15.3813 N   0  0  0  0  0  0  0  0  0  0  0  0
   48.5115   14.3436   16.3813 C   0  0  0  0  0  0  0  0  0  0  0  0
   48.8262   12.9978   16.3462 C   0  0  0  0  0  0  0  0  0  0  0  0
   48.6494   12.3531   15.1060 N   0  0  0  0  0  0  0  0  0  0  0  0
   48.2512   13.1348   14.0412 C   0  0  0  0  0  0  0  0  0  0  0  0
   47.9468   14.5407   14.2269 C   0  0  0  0  0  0  0  0  0  0  0  0
   49.3023   12.6069   17.6072 C   0  0  0  0  0  0  0  0  0  0  0  0
   49.2336   13.7338   18.4079 C   0  0  0  0  0  0  0  0  0  0  0  0
   48.7483   14.7799   17.6544 N   0  0  0  0  0  0  0  0  0  0  0  0
   48.2465   12.4674   12.9119 N   0  0  0  0  0  0  0  0  0  0  0  0
   48.6330   11.1989   13.2693 C   0  0  0  0  0  0  0  0  0  0  0  0
   48.8130   11.0601   14.6390 C   0  0  0  0  0  0  0  0  0  0  0  0
   49.1827    9.8990   15.5041 C   0  0  2  0  0  0  0  0  0  0  0  0
   49.5132    8.5350   14.8365 C   0  0  1  0  0  0  0  0  0  0  0  0
   49.6477    7.6564   16.0982 C   0  0  0  0  0  0  0  0  0  0  0  0
   48.6382    8.1866   17.0113 N   0  0  0  0  0  0  0  0  0  0  0  0
   48.1390    9.4743   16.5425 C   0  0  0  0  0  0  0  0  0  0  0  0
   48.4201    7.9244   13.9215 C   0  0  0  0  0  0  0  0  0  0  0  0
   48.9408    6.7371   13.1147 C   0  0  0  0  0  0  0  0  0  0  0  0
   48.0986    7.5811   18.1153 C   0  0  0  0  0  0  0  0  0  0  0  0
   48.6887    6.3939   18.4605 N   0  0  0  0  0  0  0  0  0  0  0  0
   47.1623    8.0570   18.7479 O   0  0  0  0  0  0  0  0  0  0  0  0
   48.2545    5.7063   19.6791 C   0  0  0  0  0  0  0  0  0  0  0  0
   48.8620    4.3217   19.8708 C   0  0  0  0  0  0  0  0  0  0  0  0
   48.5207    3.7982   21.0660 F   0  0  0  0  0  0  0  0  0  0  0  0
   50.2146    4.3881   19.8189 F   0  0  0  0  0  0  0  0  0  0  0  0
   48.4593    3.4626   18.9104 F   0  0  0  0  0  0  0  0  0  0  0  0
   48.1507   14.6681   15.5991 N   0  0  0  0  0  0  0  0  0  0  0  0
   48.0379   13.7183   16.5671 C   0  0  0  0  0  0  0  0  0  0  0  0
   48.5588   12.4334   16.6165 C   0  0  0  0  0  0  0  0  0  0  0  0
   49.3107   12.0231   15.4861 N   0  0  0  0  0  0  0  0  0  0  0  0
   49.5115   12.9874   14.5050 C   0  0  0  0  0  0  0  0  0  0  0  0
   48.8953   14.2957   14.5903 C   0  0  0  0  0  0  0  0  0  0  0  0
   48.2164   11.8826   17.8633 C   0  0  0  0  0  0  0  0  0  0  0  0
   47.4468   12.8253   18.5227 C   0  0  0  0  0  0  0  0  0  0  0  0
   47.3443   13.9359   17.7236 N   0  0  0  0  0  0  0  0  0  0  0  0
   50.3189   12.5892   13.5524 N   0  0  0  0  0  0  0  0  0  0  0  0
   50.6173   11.3028   13.8892 C   0  0  0  0  0  0  0  0  0  0  0  0
   49.9542   10.8763   15.0406 C   0  0  0  0  0  0  0  0  0  0  0  0
   50.0072    9.4775   15.5867 C   0  0  2  0  0  0  0  0  0  0  0  0
   49.8004    8.3739   14.4995 C   0  0  1  0  0  0  0  0  0  0  0  0
   49.6919    7.1172   15.3708 C   0  0  0  0  0  0  0  0  0  0  0  0
   49.0002    7.5700   16.5656 N   0  0  0  0  0  0  0  0  0  0  0  0
   49.0451    9.0232   16.6741 C   0  0  0  0  0  0  0  0  0  0  0  0
   48.5320    8.5646   13.6337 C   0  0  0  0  0  0  0  0  0  0  0  0
   48.4448    7.5590   12.4926 C   0  0  0  0  0  0  0  0  0  0  0  0
   48.3249    6.6826   17.3626 C   0  0  0  0  0  0  0  0  0  0  0  0
   47.6919    7.2415   18.4402 N   0  0  0  0  0  0  0  0  0  0  0  0
   48.2682    5.4811   17.1246 O   0  0  0  0  0  0  0  0  0  0  0  0
   47.0484    6.3680   19.4230 C   0  0  0  0  0  0  0  0  0  0  0  0
   48.0022    5.6909   20.4138 C   0  0  0  0  0  0  0  0  0  0  0  0
   48.8028    4.7721   19.8447 F   0  0  0  0  0  0  0  0  0  0  0  0
   47.3045    5.0775   21.3962 F   0  0  0  0  0  0  0  0  0  0  0  0
   48.7957    6.6168   21.0101 F   0  0  0  0  0  0  0  0  0  0  0  0
   48.5790    8.7948   16.7471 H   0  0  0  0  0  0  0  0  0  0  0  0
   48.6226   10.1986   16.1493 H   0  0  0  0  0  0  0  0  0  0  0  0
   47.6032   15.1157   13.3529 H   0  0  0  0  0  0  0  0  0  0  0  0
   49.6676   11.6428   17.9323 H   0  0  0  0  0  0  0  0  0  0  0  0
   49.4958   13.8869   19.4469 H   0  0  0  0  0  0  0  0  0  0  0  0
   48.5974   15.7289   17.9702 H   0  0  0  0  0  0  0  0  0  0  0  0
   48.7560   10.4497   12.5001 H   0  0  0  0  0  0  0  0  0  0  0  0
   50.0973   10.1966   16.0399 H   0  0  0  0  0  0  0  0  0  0  0  0
   50.4622    8.5925   14.2899 H   0  0  0  0  0  0  0  0  0  0  0  0
   49.4956    6.5866   15.9273 H   0  0  0  0  0  0  0  0  0  0  0  0
   50.6256    7.7993   16.5716 H   0  0  0  0  0  0  0  0  0  0  0  0
   47.1481    9.3208   16.1003 H   0  0  0  0  0  0  0  0  0  0  0  0
   48.0247   10.1612   17.3833 H   0  0  0  0  0  0  0  0  0  0  0  0
   47.5520    7.5931   14.5063 H   0  0  0  0  0  0  0  0  0  0  0  0
   48.0352    8.6556   13.2108 H   0  0  0  0  0  0  0  0  0  0  0  0
   49.8254    7.0186   12.5352 H   0  0  0  0  0  0  0  0  0  0  0  0
   48.1717    6.3954   12.4144 H   0  0  0  0  0  0  0  0  0  0  0  0
   49.2027    5.8943   13.7610 H   0  0  0  0  0  0  0  0  0  0  0  0
   49.6733    6.3368   18.2463 H   0  0  0  0  0  0  0  0  0  0  0  0
   48.5310    6.3485   20.5253 H   0  0  0  0  0  0  0  0  0  0  0  0
   47.1609    5.6330   19.6622 H   0  0  0  0  0  0  0  0  0  0  0  0
   49.0634   15.0014   13.7592 H   0  0  0  0  0  0  0  0  0  0  0  0
   48.4769   10.9389   18.3086 H   0  0  0  0  0  0  0  0  0  0  0  0
   46.9783   12.8118   19.5000 H   0  0  0  0  0  0  0  0  0  0  0  0
   46.8603   14.7957   17.9455 H   0  0  0  0  0  0  0  0  0  0  0  0
   51.2764   10.7120   13.2612 H   0  0  0  0  0  0  0  0  0  0  0  0
   51.0293    9.3473   15.9821 H   0  0  0  0  0  0  0  0  0  0  0  0
   50.6760    8.3060   13.8423 H   0  0  0  0  0  0  0  0  0  0  0  0
   50.6858    6.7762   15.6852 H   0  0  0  0  0  0  0  0  0  0  0  0
   49.1760    6.2779   14.9023 H   0  0  0  0  0  0  0  0  0  0  0  0
   49.4337    9.2701   17.6641 H   0  0  0  0  0  0  0  0  0  0  0  0
   48.0264    9.4018   16.5489 H   0  0  0  0  0  0  0  0  0  0  0  0
   47.6252    8.4878   14.2452 H   0  0  0  0  0  0  0  0  0  0  0  0
   48.5217    9.5633   13.1853 H   0  0  0  0  0  0  0  0  0  0  0  0
   49.3274    7.6187   11.8470 H   0  0  0  0  0  0  0  0  0  0  0  0
   47.5655    7.7694   11.8769 H   0  0  0  0  0  0  0  0  0  0  0  0
   48.3530    6.5311   12.8541 H   0  0  0  0  0  0  0  0  0  0  0  0
   48.1265    8.0718   18.8116 H   0  0  0  0  0  0  0  0  0  0  0  0
   46.4645    5.6087   18.8932 H   0  0  0  0  0  0  0  0  0  0  0  0
   46.3476    7.0003   19.9786 H   0  0  0  0  0  0  0  0  0  0  0  0
  2  3  1  0
  4  5  1  0
  6  7  1  0
  7  2  2  0
  3 10  1  0
  3  4  2  0
  4  8  1  0
  8  9  2  0
  9 10  1  0
  5 13  1  0
  5  6  1  0
  6 11  2  0
 11 12  1  0
 12 13  2  0
 14 13  1  0
 14 15  1  0
 14 18  1  0
 15 16  1  0
 16 17  1  0
 17 18  1  0
 15 19  1  0
 19 20  1  0
 17 21  1  0
 21 22  1  0
 21 23  2  0
 22 24  1  0
 24 25  1  0
 25 26  1  0
 25 27  1  0
 25 28  1  0
 29 30  1  0
 31 32  1  0
 33 34  1  0
 34 29  2  0
 30 37  1  0
 30 31  2  0
 31 35  1  0
 35 36  2  0
 36 37  1  0
 32 40  1  0
 32 33  1  0
 33 38  2  0
 38 39  1  0
 39 40  2  0
 41 40  1  0
 41 42  1  0
 41 45  1  0
 42 43  1  0
 43 44  1  0
 44 45  1  0
 42 46  1  0
 46 47  1  0
 44 48  1  0
 48 49  1  0
 48 50  2  0
 49 51  1  0
 51 52  1  0
 52 53  1  0
 52 54  1  0
 52 55  1  0
  1 56  1  0
  1 57  1  0
  7 58  1  0
  8 59  1  0
  9 60  1  0
 10 61  1  0
 12 62  1  0
 14 63  1  1
 15 64  1  1
 16 65  1  0
 16 66  1  0
 18 67  1  0
 18 68  1  0
 19 69  1  0
 19 70  1  0
 20 71  1  0
 20 72  1  0
 20 73  1  0
 22 74  1  0
 24 75  1  0
 24 76  1  0
 34 77  1  0
 35 78  1  0
 36 79  1  0
 37 80  1  0
 39 81  1  0
 41 82  1  1
 42 83  1  1
 43 84  1  0
 43 85  1  0
 45 86  1  0
 45 87  1  0
 46 88  1  0
 46 89  1  0
 47 90  1  0
 47 91  1  0
 47 92  1  0
 49 93  1  0
 51 94  1  0
 51 95  1  0
M  END
> <Uni-Dock RESULT> 
ENERGY=   -5.636  LOWER_BOUND=    4.458  UPPER_BOUND=    6.956
INTER + INTRA:          -5.636
INTER:                  -5.636
INTRA:                   0.000
UNBOUND:                 0.000

$$$$

     RDKit          3D

 95100  0  0  0  0  0  0  0  0999 V2000
   46.5648    9.5593   12.4241 O   0  0  0  0  0  0  0  0  0  0  0  0
   46.1226    3.8301   13.9805 N   0  0  0  0  0  0  0  0  0  0  0  0
   45.6691    4.5664   12.9286 C   0  0  0  0  0  0  0  0  0  0  0  0
   45.9848    5.8624   12.5651 C   0  0  0  0  0  0  0  0  0  0  0  0
   46.8964    6.5354   13.4024 N   0  0  0  0  0  0  0  0  0  0  0  0
   47.4337    5.8195   14.4522 C   0  0  0  0  0  0  0  0  0  0  0  0
   47.0018    4.4611   14.7209 C   0  0  0  0  0  0  0  0  0  0  0  0
   45.3135    6.1791   11.3740 C   0  0  0  0  0  0  0  0  0  0  0  0
   44.5626    5.0625   11.0498 C   0  0  0  0  0  0  0  0  0  0  0  0
   44.7832    4.0923   12.0026 N   0  0  0  0  0  0  0  0  0  0  0  0
   48.3654    6.4924   15.0845 N   0  0  0  0  0  0  0  0  0  0  0  0
   48.4112    7.6991   14.4304 C   0  0  0  0  0  0  0  0  0  0  0  0
   47.4549    7.8019   13.4291 C   0  0  0  0  0  0  0  0  0  0  0  0
   47.0837    8.8996   12.4854 C   0  0  2  0  0  0  0  0  0  0  0  0
   47.9074   10.2175   12.4987 C   0  0  1  0  0  0  0  0  0  0  0  0
   47.0602   11.0608   11.5225 C   0  0  0  0  0  0  0  0  0  0  0  0
   45.6851   10.6530   11.7999 N   0  0  0  0  0  0  0  0  0  0  0  0
   45.6564    9.4423   12.6126 C   0  0  0  0  0  0  0  0  0  0  0  0
   47.9982   10.9685   13.8525 C   0  0  0  0  0  0  0  0  0  0  0  0
   49.0358   12.0885   13.8220 C   0  0  0  0  0  0  0  0  0  0  0  0
   44.5286   11.3113   11.4748 C   0  0  0  0  0  0  0  0  0  0  0  0
   44.7033   12.4120   10.6781 N   0  0  0  0  0  0  0  0  0  0  0  0
   43.4228   10.9508   11.8627 O   0  0  0  0  0  0  0  0  0  0  0  0
   43.5271   13.1375   10.1916 C   0  0  0  0  0  0  0  0  0  0  0  0
   43.8470   14.4334    9.4557 C   0  0  0  0  0  0  0  0  0  0  0  0
   42.7348   14.9846    8.9283 F   0  0  0  0  0  0  0  0  0  0  0  0
   44.7140   14.1985    8.4408 F   0  0  0  0  0  0  0  0  0  0  0  0
   44.4151   15.3448   10.2737 F   0  0  0  0  0  0  0  0  0  0  0  0
   46.0395    4.2967   13.7271 N   0  0  0  0  0  0  0  0  0  0  0  0
   45.2762    5.2444   13.1178 C   0  0  0  0  0  0  0  0  0  0  0  0
   45.6477    6.4534   12.5477 C   0  0  0  0  0  0  0  0  0  0  0  0
   47.0270    6.7765   12.6178 N   0  0  0  0  0  0  0  0  0  0  0  0
   47.8536    5.8036   13.1682 C   0  0  0  0  0  0  0  0  0  0  0  0
   47.3160    4.5821   13.7317 C   0  0  0  0  0  0  0  0  0  0  0  0
   44.4963    7.0314   11.9864 C   0  0  0  0  0  0  0  0  0  0  0  0
   43.4389    6.1866   12.2765 C   0  0  0  0  0  0  0  0  0  0  0  0
   43.9259    5.1049   12.9658 N   0  0  0  0  0  0  0  0  0  0  0  0
   49.1263    6.1061   13.0866 N   0  0  0  0  0  0  0  0  0  0  0  0
   49.1353    7.3419   12.5120 C   0  0  0  0  0  0  0  0  0  0  0  0
   47.8531    7.8376   12.2725 C   0  0  0  0  0  0  0  0  0  0  0  0
   47.5549    9.2138   11.7482 C   0  0  2  0  0  0  0  0  0  0  0  0
   48.3600   10.3443   12.4665 C   0  0  1  0  0  0  0  0  0  0  0  0
   47.6970   11.5968   11.8817 C   0  0  0  0  0  0  0  0  0  0  0  0
   46.3013   11.2234   11.7291 N   0  0  0  0  0  0  0  0  0  0  0  0
   46.1412    9.7752   11.7782 C   0  0  0  0  0  0  0  0  0  0  0  0
   48.2481   10.3219   14.0097 C   0  0  0  0  0  0  0  0  0  0  0  0
   49.1623   11.3409   14.6785 C   0  0  0  0  0  0  0  0  0  0  0  0
   45.3224   12.1811   11.6703 C   0  0  0  0  0  0  0  0  0  0  0  0
   44.0473   11.6962   11.5555 N   0  0  0  0  0  0  0  0  0  0  0  0
   45.5592   13.3824   11.7366 O   0  0  0  0  0  0  0  0  0  0  0  0
   42.9411   12.6346   11.3585 C   0  0  0  0  0  0  0  0  0  0  0  0
   42.7958   13.1778    9.9324 C   0  0  0  0  0  0  0  0  0  0  0  0
   43.7995   13.9941    9.5649 F   0  0  0  0  0  0  0  0  0  0  0  0
   41.6382   13.8648    9.8049 F   0  0  0  0  0  0  0  0  0  0  0  0
   42.7493   12.1544    9.0419 F   0  0  0  0  0  0  0  0  0  0  0  0
   45.8136   10.0594   12.0726 H   0  0  0  0  0  0  0  0  0  0  0  0
   46.2115    8.6667   12.5542 H   0  0  0  0  0  0  0  0  0  0  0  0
   47.4372    3.9416   15.5887 H   0  0  0  0  0  0  0  0  0  0  0  0
   45.3502    7.0869   10.7881 H   0  0  0  0  0  0  0  0  0  0  0  0
   43.8963    4.8683   10.2192 H   0  0  0  0  0  0  0  0  0  0  0  0
   44.3756    3.1668   12.0237 H   0  0  0  0  0  0  0  0  0  0  0  0
   49.1441    8.4340   14.7321 H   0  0  0  0  0  0  0  0  0  0  0  0
   47.2034    8.4849   11.4726 H   0  0  0  0  0  0  0  0  0  0  0  0
   48.9159   10.0465   12.1031 H   0  0  0  0  0  0  0  0  0  0  0  0
   47.1765   12.1428   11.6354 H   0  0  0  0  0  0  0  0  0  0  0  0
   47.2787   10.7922   10.4828 H   0  0  0  0  0  0  0  0  0  0  0  0
   45.4062    9.7228   13.6420 H   0  0  0  0  0  0  0  0  0  0  0  0
   44.8769    8.7676   12.2534 H   0  0  0  0  0  0  0  0  0  0  0  0
   47.0288   11.4007   14.1328 H   0  0  0  0  0  0  0  0  0  0  0  0
   48.2690   10.2978   14.6677 H   0  0  0  0  0  0  0  0  0  0  0  0
   50.0148   11.7036   13.5202 H   0  0  0  0  0  0  0  0  0  0  0  0
   49.1379   12.5301   14.8185 H   0  0  0  0  0  0  0  0  0  0  0  0
   48.7480   12.8859   13.1307 H   0  0  0  0  0  0  0  0  0  0  0  0
   45.4804   12.3473   10.0374 H   0  0  0  0  0  0  0  0  0  0  0  0
   42.9866   12.4582    9.5199 H   0  0  0  0  0  0  0  0  0  0  0  0
   42.8739   13.3475   11.0465 H   0  0  0  0  0  0  0  0  0  0  0  0
   48.0228    3.8684   14.1879 H   0  0  0  0  0  0  0  0  0  0  0  0
   44.3726    7.9309   11.4100 H   0  0  0  0  0  0  0  0  0  0  0  0
   42.3840    6.2498   12.0360 H   0  0  0  0  0  0  0  0  0  0  0  0
   43.3937    4.3105   13.2952 H   0  0  0  0  0  0  0  0  0  0  0  0
   50.0754    7.8510   12.3252 H   0  0  0  0  0  0  0  0  0  0  0  0
   47.8810    9.2112   10.6938 H   0  0  0  0  0  0  0  0  0  0  0  0
   49.4192   10.3080   12.1834 H   0  0  0  0  0  0  0  0  0  0  0  0
   48.0843   11.8078   10.8774 H   0  0  0  0  0  0  0  0  0  0  0  0
   47.8075   12.4983   12.4859 H   0  0  0  0  0  0  0  0  0  0  0  0
   45.5843    9.4725   10.8893 H   0  0  0  0  0  0  0  0  0  0  0  0
   45.5873    9.5283   12.6888 H   0  0  0  0  0  0  0  0  0  0  0  0
   47.2159   10.5062   14.3303 H   0  0  0  0  0  0  0  0  0  0  0  0
   48.5240    9.3365   14.3989 H   0  0  0  0  0  0  0  0  0  0  0  0
   50.2076   11.1769   14.3960 H   0  0  0  0  0  0  0  0  0  0  0  0
   49.0914   11.2479   15.7660 H   0  0  0  0  0  0  0  0  0  0  0  0
   48.8941   12.3689   14.4195 H   0  0  0  0  0  0  0  0  0  0  0  0
   43.9639   10.8147   11.0737 H   0  0  0  0  0  0  0  0  0  0  0  0
   43.0523   13.4658   12.0619 H   0  0  0  0  0  0  0  0  0  0  0  0
   42.0294   12.0900   11.6268 H   0  0  0  0  0  0  0  0  0  0  0  0
  2  3  1  0
  4  5  1  0
  6  7  1  0
  7  2  2  0
  3 10  1  0
  3  4  2  0
  4  8  1  0
  8  9  2  0
  9 10  1  0
  5 13  1  0
  5  6  1  0
  6 11  2  0
 11 12  1  0
 12 13  2  0
 14 13  1  0
 14 15  1  0
 14 18  1  0
 15 16  1  0
 16 17  1  0
 17 18  1  0
 15 19  1  0
 19 20  1  0
 17 21  1  0
 21 22  1  0
 21 23  2  0
 22 24  1  0
 24 25  1  0
 25 26  1  0
 25 27  1  0
 25 28  1  0
 29 30  1  0
 31 32  1  0
 33 34  1  0
 34 29  2  0
 30 37  1  0
 30 31  2  0
 31 35  1  0
 35 36  2  0
 36 37  1  0
 32 40  1  0
 32 33  1  0
 33 38  2  0
 38 39  1  0
 39 40  2  0
 41 40  1  0
 41 42  1  0
 41 45  1  0
 42 43  1  0
 43 44  1  0
 44 45  1  0
 42 46  1  0
 46 47  1  0
 44 48  1  0
 48 49  1  0
 48 50  2  0
 49 51  1  0
 51 52  1  0
 52 53  1  0
 52 54  1  0
 52 55  1  0
  1 56  1  0
  1 57  1  0
  7 58  1  0
  8 59  1  0
  9 60  1  0
 10 61  1  0
 12 62  1  0
 14 63  1  1
 15 64  1  1
 16 65  1  0
 16 66  1  0
 18 67  1  0
 18 68  1  0
 19 69  1  0
 19 70  1  0
 20 71  1  0
 20 72  1  0
 20 73  1  0
 22 74  1  0
 24 75  1  0
 24 76  1  0
 34 77  1  0
 35 78  1  0
 36 79  1  0
 37 80  1  0
 39 81  1  0
 41 82  1  1
 42 83  1  1
 43 84  1  0
 43 85  1  0
 45 86  1  0
 45 87  1  0
 46 88  1  0
 46 89  1  0
 47 90  1  0
 47 91  1  0
 47 92  1  0
 49 93  1  0
 51 94  1  0
 51 95  1  0
M  END
> <Uni-Dock RESULT> 
ENERGY=   -5.597  LOWER_BOUND=    5.311  UPPER_BOUND=    8.672
INTER + INTRA:          -5.597
INTER:                  -5.597
INTRA:                   0.000
UNBOUND:                 0.000

$$$$

     RDKit          3D

 95100  0  0  0  0  0  0  0  0999 V2000
   48.1947    8.3109   14.1194 O   0  0  0  0  0  0  0  0  0  0  0  0
   48.9863   14.2083   13.9303 N   0  0  0  0  0  0  0  0  0  0  0  0
   49.6963   13.1709   14.4538 C   0  0  0  0  0  0  0  0  0  0  0  0
   49.5165   11.8108   14.2822 C   0  0  0  0  0  0  0  0  0  0  0  0
   48.4386   11.4280   13.4597 N   0  0  0  0  0  0  0  0  0  0  0  0
   47.7184   12.4376   12.8552 C   0  0  0  0  0  0  0  0  0  0  0  0
   48.0156   13.8295   13.1344 C   0  0  0  0  0  0  0  0  0  0  0  0
   50.5274   11.1256   14.9737 C   0  0  0  0  0  0  0  0  0  0  0  0
   51.2947   12.0979   15.5915 C   0  0  0  0  0  0  0  0  0  0  0  0
   50.7781   13.3345   15.2722 N   0  0  0  0  0  0  0  0  0  0  0  0
   46.8285   11.9733   12.0107 N   0  0  0  0  0  0  0  0  0  0  0  0
   46.9648   10.6092   12.0946 C   0  0  0  0  0  0  0  0  0  0  0  0
   47.8979   10.2222   13.0471 C   0  0  0  0  0  0  0  0  0  0  0  0
   48.3648    8.8873   13.5303 C   0  0  2  0  0  0  0  0  0  0  0  0
   47.8030    7.6027   12.8598 C   0  0  1  0  0  0  0  0  0  0  0  0
   48.4224    6.5359   13.7873 C   0  0  0  0  0  0  0  0  0  0  0  0
   48.3952    7.1544   15.1104 N   0  0  0  0  0  0  0  0  0  0  0  0
   48.1132    8.5819   15.0107 C   0  0  0  0  0  0  0  0  0  0  0  0
   46.2618    7.4307   12.8665 C   0  0  0  0  0  0  0  0  0  0  0  0
   45.8052    6.2891   11.9609 C   0  0  0  0  0  0  0  0  0  0  0  0
   48.5018    6.5406   16.3304 C   0  0  0  0  0  0  0  0  0  0  0  0
   48.8037    5.2056   16.2730 N   0  0  0  0  0  0  0  0  0  0  0  0
   48.3404    7.1320   17.3924 O   0  0  0  0  0  0  0  0  0  0  0  0
   49.0343    4.4696   17.5186 C   0  0  0  0  0  0  0  0  0  0  0  0
   49.1976    2.9648   17.3393 C   0  0  0  0  0  0  0  0  0  0  0  0
   49.5295    2.3662   18.5014 F   0  0  0  0  0  0  0  0  0  0  0  0
   50.1782    2.6998   16.4421 F   0  0  0  0  0  0  0  0  0  0  0  0
   48.0636    2.3904   16.8847 F   0  0  0  0  0  0  0  0  0  0  0  0
   49.0448   13.6907   14.0629 N   0  0  0  0  0  0  0  0  0  0  0  0
   49.2817   12.6623   14.9220 C   0  0  0  0  0  0  0  0  0  0  0  0
   49.3229   11.2963   14.6833 C   0  0  0  0  0  0  0  0  0  0  0  0
   49.0622   10.8897   13.3497 N   0  0  0  0  0  0  0  0  0  0  0  0
   48.8861   11.9121   12.4242 C   0  0  0  0  0  0  0  0  0  0  0  0
   48.8644   13.3036   12.8266 C   0  0  0  0  0  0  0  0  0  0  0  0
   49.6777   10.6639   15.8871 C   0  0  0  0  0  0  0  0  0  0  0  0
   49.7903   11.6561   16.8456 C   0  0  0  0  0  0  0  0  0  0  0  0
   49.5456   12.8660   16.2467 N   0  0  0  0  0  0  0  0  0  0  0  0
   48.7788   11.4762   11.1929 N   0  0  0  0  0  0  0  0  0  0  0  0
   48.8326   10.1201   11.3172 C   0  0  0  0  0  0  0  0  0  0  0  0
   48.9295    9.7010   12.6447 C   0  0  0  0  0  0  0  0  0  0  0  0
   48.8990    8.2664   13.0906 C   0  0  2  0  0  0  0  0  0  0  0  0
   47.7603    7.4288   12.4241 C   0  0  1  0  0  0  0  0  0  0  0  0
   47.8522    6.1205   13.2180 C   0  0  0  0  0  0  0  0  0  0  0  0
   48.2090    6.5429   14.5616 N   0  0  0  0  0  0  0  0  0  0  0  0
   48.7290    7.9049   14.5585 C   0  0  0  0  0  0  0  0  0  0  0  0
   46.3525    8.0592   12.5470 C   0  0  0  0  0  0  0  0  0  0  0  0
   45.2967    7.2937   11.7593 C   0  0  0  0  0  0  0  0  0  0  0  0
   47.9458    5.7403   15.6411 C   0  0  0  0  0  0  0  0  0  0  0  0
   48.3045    6.2673   16.8526 N   0  0  0  0  0  0  0  0  0  0  0  0
   47.4105    4.6417   15.5412 O   0  0  0  0  0  0  0  0  0  0  0  0
   48.1827    5.4417   18.0553 C   0  0  0  0  0  0  0  0  0  0  0  0
   49.2957    4.4052   18.2474 C   0  0  0  0  0  0  0  0  0  0  0  0
   49.2683    3.4144   17.3383 F   0  0  0  0  0  0  0  0  0  0  0  0
   49.2093    3.8418   19.4735 F   0  0  0  0  0  0  0  0  0  0  0  0
   50.5124    5.0020   18.1705 F   0  0  0  0  0  0  0  0  0  0  0  0
   48.3654    7.7913   14.9187 H   0  0  0  0  0  0  0  0  0  0  0  0
   48.4364    9.2145   14.3715 H   0  0  0  0  0  0  0  0  0  0  0  0
   47.3929   14.5987   12.6514 H   0  0  0  0  0  0  0  0  0  0  0  0
   50.7164   10.0629   15.0337 H   0  0  0  0  0  0  0  0  0  0  0  0
   52.1695   12.0202   16.2241 H   0  0  0  0  0  0  0  0  0  0  0  0
   51.1358   14.2313   15.5737 H   0  0  0  0  0  0  0  0  0  0  0  0
   46.3660    9.9798   11.4516 H   0  0  0  0  0  0  0  0  0  0  0  0
   49.4516    8.8625   13.3555 H   0  0  0  0  0  0  0  0  0  0  0  0
   48.1808    7.5052   11.8349 H   0  0  0  0  0  0  0  0  0  0  0  0
   47.8963    5.5767   13.7942 H   0  0  0  0  0  0  0  0  0  0  0  0
   49.4726    6.3568   13.5304 H   0  0  0  0  0  0  0  0  0  0  0  0
   47.0696    8.7493   15.3003 H   0  0  0  0  0  0  0  0  0  0  0  0
   48.7443    9.1387   15.7061 H   0  0  0  0  0  0  0  0  0  0  0  0
   45.8876    7.2403   13.8808 H   0  0  0  0  0  0  0  0  0  0  0  0
   45.7542    8.3345   12.5297 H   0  0  0  0  0  0  0  0  0  0  0  0
   46.1805    6.4269   10.9421 H   0  0  0  0  0  0  0  0  0  0  0  0
   44.7117    6.2608   11.9183 H   0  0  0  0  0  0  0  0  0  0  0  0
   46.1507    5.3190   12.3300 H   0  0  0  0  0  0  0  0  0  0  0  0
   49.3787    4.9388   15.4876 H   0  0  0  0  0  0  0  0  0  0  0  0
   49.9427    4.8855   17.9732 H   0  0  0  0  0  0  0  0  0  0  0  0
   48.1996    4.6741   18.1992 H   0  0  0  0  0  0  0  0  0  0  0  0
   48.6816   14.0639   12.0484 H   0  0  0  0  0  0  0  0  0  0  0  0
   49.8695    9.6284   16.1055 H   0  0  0  0  0  0  0  0  0  0  0  0
   50.0425   11.6102   17.8986 H   0  0  0  0  0  0  0  0  0  0  0  0
   49.5751   13.7748   16.6894 H   0  0  0  0  0  0  0  0  0  0  0  0
   48.7601    9.4872   10.4385 H   0  0  0  0  0  0  0  0  0  0  0  0
   49.8548    7.8271   12.7565 H   0  0  0  0  0  0  0  0  0  0  0  0
   47.9801    7.2465   11.3650 H   0  0  0  0  0  0  0  0  0  0  0  0
   48.6765    5.4990   12.8475 H   0  0  0  0  0  0  0  0  0  0  0  0
   46.9429    5.5179   13.2150 H   0  0  0  0  0  0  0  0  0  0  0  0
   49.6936    7.8929   15.0697 H   0  0  0  0  0  0  0  0  0  0  0  0
   48.0135    8.5396   15.0896 H   0  0  0  0  0  0  0  0  0  0  0  0
   46.0398    8.1178   13.5963 H   0  0  0  0  0  0  0  0  0  0  0  0
   46.3584    9.0855   12.1660 H   0  0  0  0  0  0  0  0  0  0  0  0
   45.5657    7.2300   10.6996 H   0  0  0  0  0  0  0  0  0  0  0  0
   44.3339    7.8079   11.8293 H   0  0  0  0  0  0  0  0  0  0  0  0
   45.1541    6.2781   12.1387 H   0  0  0  0  0  0  0  0  0  0  0  0
   49.0918    6.8965   16.8322 H   0  0  0  0  0  0  0  0  0  0  0  0
   47.2090    4.9418   18.0445 H   0  0  0  0  0  0  0  0  0  0  0  0
   48.1922    6.1357   18.9025 H   0  0  0  0  0  0  0  0  0  0  0  0
  2  3  1  0
  4  5  1  0
  6  7  1  0
  7  2  2  0
  3 10  1  0
  3  4  2  0
  4  8  1  0
  8  9  2  0
  9 10  1  0
  5 13  1  0
  5  6  1  0
  6 11  2  0
 11 12  1  0
 12 13  2  0
 14 13  1  0
 14 15  1  0
 14 18  1  0
 15 16  1  0
 16 17  1  0
 17 18  1  0
 15 19  1  0
 19 20  1  0
 17 21  1  0
 21 22  1  0
 21 23  2  0
 22 24  1  0
 24 25  1  0
 25 26  1  0
 25 27  1  0
 25 28  1  0
 29 30  1  0
 31 32  1  0
 33 34  1  0
 34 29  2  0
 30 37  1  0
 30 31  2  0
 31 35  1  0
 35 36  2  0
 36 37  1  0
 32 40  1  0
 32 33  1  0
 33 38  2  0
 38 39  1  0
 39 40  2  0
 41 40  1  0
 41 42  1  0
 41 45  1  0
 42 43  1  0
 43 44  1  0
 44 45  1  0
 42 46  1  0
 46 47  1  0
 44 48  1  0
 48 49  1  0
 48 50  2  0
 49 51  1  0
 51 52  1  0
 52 53  1  0
 52 54  1  0
 52 55  1  0
  1 56  1  0
  1 57  1  0
  7 58  1  0
  8 59  1  0
  9 60  1  0
 10 61  1  0
 12 62  1  0
 14 63  1  1
 15 64  1  1
 16 65  1  0
 16 66  1  0
 18 67  1  0
 18 68  1  0
 19 69  1  0
 19 70  1  0
 20 71  1  0
 20 72  1  0
 20 73  1  0
 22 74  1  0
 24 75  1  0
 24 76  1  0
 34 77  1  0
 35 78  1  0
 36 79  1  0
 37 80  1  0
 39 81  1  0
 41 82  1  1
 42 83  1  1
 43 84  1  0
 43 85  1  0
 45 86  1  0
 45 87  1  0
 46 88  1  0
 46 89  1  0
 47 90  1  0
 47 91  1  0
 47 92  1  0
 49 93  1  0
 51 94  1  0
 51 95  1  0
M  END
> <Uni-Dock RESULT> 
ENERGY=   -5.429  LOWER_BOUND=    4.351  UPPER_BOUND=    7.002
INTER + INTRA:          -5.429
INTER:                  -5.429
INTRA:                   0.000
UNBOUND:                 0.000

$$$$

     RDKit          3D

 95100  0  0  0  0  0  0  0  0999 V2000
   48.5979   10.5123   18.4594 O   0  0  0  0  0  0  0  0  0  0  0  0
   50.4941   16.0018   19.7681 N   0  0  0  0  0  0  0  0  0  0  0  0
   49.9587   15.4209   18.6589 C   0  0  0  0  0  0  0  0  0  0  0  0
   49.3776   14.1746   18.5159 C   0  0  0  0  0  0  0  0  0  0  0  0
   49.3385   13.3736   19.6743 N   0  0  0  0  0  0  0  0  0  0  0  0
   49.8149   13.9321   20.8424 C   0  0  0  0  0  0  0  0  0  0  0  0
   50.4080   15.2558   20.8429 C   0  0  0  0  0  0  0  0  0  0  0  0
   48.9170   14.0338   17.1978 C   0  0  0  0  0  0  0  0  0  0  0  0
   49.2641   15.2036   16.5444 C   0  0  0  0  0  0  0  0  0  0  0  0
   49.8994   16.0356   17.4399 N   0  0  0  0  0  0  0  0  0  0  0  0
   49.6103   13.1571   21.8808 N   0  0  0  0  0  0  0  0  0  0  0  0
   49.0006   12.0445   21.3551 C   0  0  0  0  0  0  0  0  0  0  0  0
   48.8873   12.0991   19.9724 C   0  0  0  0  0  0  0  0  0  0  0  0
   48.3491   11.1437   18.9571 C   0  0  2  0  0  0  0  0  0  0  0  0
   47.7072    9.8127   19.4385 C   0  0  1  0  0  0  0  0  0  0  0  0
   47.4819    9.1270   18.0743 C   0  0  0  0  0  0  0  0  0  0  0  0
   48.6357    9.5338   17.2759 N   0  0  0  0  0  0  0  0  0  0  0  0
   49.3521   10.6293   17.9191 C   0  0  0  0  0  0  0  0  0  0  0  0
   48.5919    8.8904   20.3168 C   0  0  0  0  0  0  0  0  0  0  0  0
   47.7904    7.7552   20.9499 C   0  0  0  0  0  0  0  0  0  0  0  0
   49.1139    8.9558   16.1297 C   0  0  0  0  0  0  0  0  0  0  0  0
   48.3208    7.9632   15.6175 N   0  0  0  0  0  0  0  0  0  0  0  0
   50.1666    9.2939   15.5997 O   0  0  0  0  0  0  0  0  0  0  0  0
   48.6871    7.3400   14.3431 C   0  0  0  0  0  0  0  0  0  0  0  0
   47.8270    6.1420   13.9583 C   0  0  0  0  0  0  0  0  0  0  0  0
   48.1340    5.6951   12.7234 F   0  0  0  0  0  0  0  0  0  0  0  0
   46.5151    6.4820   13.9614 F   0  0  0  0  0  0  0  0  0  0  0  0
   47.9839    5.1167   14.8225 F   0  0  0  0  0  0  0  0  0  0  0  0
   50.3251   15.5744   19.4893 N   0  0  0  0  0  0  0  0  0  0  0  0
   50.3079   14.7355   18.4180 C   0  0  0  0  0  0  0  0  0  0  0  0
   49.5432   13.6006   18.1900 C   0  0  0  0  0  0  0  0  0  0  0  0
   48.6509   13.2326   19.2294 N   0  0  0  0  0  0  0  0  0  0  0  0
   48.5842   14.1024   20.3118 C   0  0  0  0  0  0  0  0  0  0  0  0
   49.4557   15.2552   20.4129 C   0  0  0  0  0  0  0  0  0  0  0  0
   49.8491   13.1326   16.9007 C   0  0  0  0  0  0  0  0  0  0  0  0
   50.8347   13.9620   16.3942 C   0  0  0  0  0  0  0  0  0  0  0  0
   51.1059   14.9312   17.3267 N   0  0  0  0  0  0  0  0  0  0  0  0
   47.6520   13.7776   21.1739 N   0  0  0  0  0  0  0  0  0  0  0  0
   47.1234   12.6268   20.6701 C   0  0  0  0  0  0  0  0  0  0  0  0
   47.7615   12.2025   19.5039 C   0  0  0  0  0  0  0  0  0  0  0  0
   47.4639   10.9147   18.7892 C   0  0  2  0  0  0  0  0  0  0  0  0
   47.3718    9.6785   19.7409 C   0  0  1  0  0  0  0  0  0  0  0  0
   47.2821    8.5314   18.7278 C   0  0  0  0  0  0  0  0  0  0  0  0
   48.1282    8.9604   17.6273 N   0  0  0  0  0  0  0  0  0  0  0  0
   48.3843   10.3939   17.6955 C   0  0  0  0  0  0  0  0  0  0  0  0
   48.5925    9.5039   20.6758 C   0  0  0  0  0  0  0  0  0  0  0  0
   48.3997    8.3817   21.6880 C   0  0  0  0  0  0  0  0  0  0  0  0
   48.6620    8.0461   16.7567 C   0  0  0  0  0  0  0  0  0  0  0  0
   49.4644    8.5773   15.7829 N   0  0  0  0  0  0  0  0  0  0  0  0
   48.4595    6.8402   16.8481 O   0  0  0  0  0  0  0  0  0  0  0  0
   49.9822    7.7038   14.7285 C   0  0  0  0  0  0  0  0  0  0  0  0
   48.9790    7.3542   13.6233 C   0  0  0  0  0  0  0  0  0  0  0  0
   47.9739    6.5645   14.0418 F   0  0  0  0  0  0  0  0  0  0  0  0
   49.6021    6.7221   12.6032 F   0  0  0  0  0  0  0  0  0  0  0  0
   48.4296    8.4852   13.1120 F   0  0  0  0  0  0  0  0  0  0  0  0
   48.7987   10.0832   17.6147 H   0  0  0  0  0  0  0  0  0  0  0  0
   48.9995   11.3901   18.3774 H   0  0  0  0  0  0  0  0  0  0  0  0
   50.8019   15.6461   21.7943 H   0  0  0  0  0  0  0  0  0  0  0  0
   48.3871   13.2090   16.7422 H   0  0  0  0  0  0  0  0  0  0  0  0
   49.1074   15.5224   15.5220 H   0  0  0  0  0  0  0  0  0  0  0  0
   50.2589   16.9616   17.2492 H   0  0  0  0  0  0  0  0  0  0  0  0
   48.6786   11.2565   22.0211 H   0  0  0  0  0  0  0  0  0  0  0  0
   47.5507   11.6827   18.4240 H   0  0  0  0  0  0  0  0  0  0  0  0
   46.7551   10.0052   19.9478 H   0  0  0  0  0  0  0  0  0  0  0  0
   47.4037    8.0367   18.1193 H   0  0  0  0  0  0  0  0  0  0  0  0
   46.5863    9.5218   17.5813 H   0  0  0  0  0  0  0  0  0  0  0  0
   50.2603   10.2250   18.3803 H   0  0  0  0  0  0  0  0  0  0  0  0
   49.6578   11.3665   17.1741 H   0  0  0  0  0  0  0  0  0  0  0  0
   49.4120    8.4529   19.7327 H   0  0  0  0  0  0  0  0  0  0  0  0
   49.0684    9.4420   21.1270 H   0  0  0  0  0  0  0  0  0  0  0  0
   46.9443    8.1484   21.5219 H   0  0  0  0  0  0  0  0  0  0  0  0
   48.4269    7.1855   21.6346 H   0  0  0  0  0  0  0  0  0  0  0  0
   47.4073    7.0624   20.1950 H   0  0  0  0  0  0  0  0  0  0  0  0
   47.3329    8.0886   15.7817 H   0  0  0  0  0  0  0  0  0  0  0  0
   48.6022    8.1155   13.5710 H   0  0  0  0  0  0  0  0  0  0  0  0
   49.7399    7.0394   14.3967 H   0  0  0  0  0  0  0  0  0  0  0  0
   49.3787   15.8837   21.3163 H   0  0  0  0  0  0  0  0  0  0  0  0
   49.4338   12.3191   16.3328 H   0  0  0  0  0  0  0  0  0  0  0  0
   51.3544   13.9600   15.4432 H   0  0  0  0  0  0  0  0  0  0  0  0
   51.7668   15.6908   17.2321 H   0  0  0  0  0  0  0  0  0  0  0  0
   46.3187   12.1200   21.1931 H   0  0  0  0  0  0  0  0  0  0  0  0
   46.4649   11.0447   18.3383 H   0  0  0  0  0  0  0  0  0  0  0  0
   46.4590    9.7215   20.3476 H   0  0  0  0  0  0  0  0  0  0  0  0
   46.2628    8.4416   18.3327 H   0  0  0  0  0  0  0  0  0  0  0  0
   47.5861    7.5565   19.1112 H   0  0  0  0  0  0  0  0  0  0  0  0
   48.1198   10.8247   16.7278 H   0  0  0  0  0  0  0  0  0  0  0  0
   49.4479   10.5361   17.9086 H   0  0  0  0  0  0  0  0  0  0  0  0
   49.5036    9.3086   20.0980 H   0  0  0  0  0  0  0  0  0  0  0  0
   48.7742   10.4224   21.2430 H   0  0  0  0  0  0  0  0  0  0  0  0
   47.5065    8.5516   22.2985 H   0  0  0  0  0  0  0  0  0  0  0  0
   49.2606    8.3350   22.3611 H   0  0  0  0  0  0  0  0  0  0  0  0
   48.3060    7.4039   21.2076 H   0  0  0  0  0  0  0  0  0  0  0  0
   49.2316    9.5158   15.4980 H   0  0  0  0  0  0  0  0  0  0  0  0
   50.3648    6.7856   15.1854 H   0  0  0  0  0  0  0  0  0  0  0  0
   50.8312    8.2343   14.2842 H   0  0  0  0  0  0  0  0  0  0  0  0
  2  3  1  0
  4  5  1  0
  6  7  1  0
  7  2  2  0
  3 10  1  0
  3  4  2  0
  4  8  1  0
  8  9  2  0
  9 10  1  0
  5 13  1  0
  5  6  1  0
  6 11  2  0
 11 12  1  0
 12 13  2  0
 14 13  1  0
 14 15  1  0
 14 18  1  0
 15 16  1  0
 16 17  1  0
 17 18  1  0
 15 19  1  0
 19 20  1  0
 17 21  1  0
 21 22  1  0
 21 23  2  0
 22 24  1  0
 24 25  1  0
 25 26  1  0
 25 27  1  0
 25 28  1  0
 29 30  1  0
 31 32  1  0
 33 34  1  0
 34 29  2  0
 30 37  1  0
 30 31  2  0
 31 35  1  0
 35 36  2  0
 36 37  1  0
 32 40  1  0
 32 33  1  0
 33 38  2  0
 38 39  1  0
 39 40  2  0
 41 40  1  0
 41 42  1  0
 41 45  1  0
 42 43  1  0
 43 44  1  0
 44 45  1  0
 42 46  1  0
 46 47  1  0
 44 48  1  0
 48 49  1  0
 48 50  2  0
 49 51  1  0
 51 52  1  0
 52 53  1  0
 52 54  1  0
 52 55  1  0
  1 56  1  0
  1 57  1  0
  7 58  1  0
  8 59  1  0
  9 60  1  0
 10 61  1  0
 12 62  1  0
 14 63  1  1
 15 64  1  1
 16 65  1  0
 16 66  1  0
 18 67  1  0
 18 68  1  0
 19 69  1  0
 19 70  1  0
 20 71  1  0
 20 72  1  0
 20 73  1  0
 22 74  1  0
 24 75  1  0
 24 76  1  0
 34 77  1  0
 35 78  1  0
 36 79  1  0
 37 80  1  0
 39 81  1  0
 41 82  1  1
 42 83  1  1
 43 84  1  0
 43 85  1  0
 45 86  1  0
 45 87  1  0
 46 88  1  0
 46 89  1  0
 47 90  1  0
 47 91  1  0
 47 92  1  0
 49 93  1  0
 51 94  1  0
 51 95  1  0
M  END
> <Uni-Dock RESULT> 
ENERGY=   -5.358  LOWER_BOUND=    3.763  UPPER_BOUND=    6.032
INTER + INTRA:          -5.358
INTER:                  -5.358
INTRA:                   0.000
UNBOUND:                 0.000

$$$$
