
     RDKit          3D

 95100  0  0  0  0  0  0  0  0999 V2000
   49.6483    8.4003   16.5955 O   0  0  0  0  0  0  0  0  0  0  0  0
   47.3968    3.4364   16.5698 N   0  0  0  0  0  0  0  0  0  0  0  0
   47.8697    4.5329   17.2223 C   0  0  0  0  0  0  0  0  0  0  0  0
   48.2108    5.7789   16.7229 C   0  0  0  0  0  0  0  0  0  0  0  0
   48.0463    5.9571   15.3300 N   0  0  0  0  0  0  0  0  0  0  0  0
   47.5789    4.8641   14.6164 C   0  0  0  0  0  0  0  0  0  0  0  0
   47.2600    3.6156   15.2799 C   0  0  0  0  0  0  0  0  0  0  0  0
   48.6634    6.5716   17.7909 C   0  0  0  0  0  0  0  0  0  0  0  0
   48.5766    5.7891   18.9281 C   0  0  0  0  0  0  0  0  0  0  0  0
   48.0914    4.5542   18.5700 N   0  0  0  0  0  0  0  0  0  0  0  0
   47.4792    5.1000   13.3291 N   0  0  0  0  0  0  0  0  0  0  0  0
   47.8890    6.3953   13.1950 C   0  0  0  0  0  0  0  0  0  0  0  0
   48.2432    6.9728   14.4100 C   0  0  0  0  0  0  0  0  0  0  0  0
   48.7114    8.3773   14.6083 C   0  0  2  0  0  0  0  0  0  0  0  0
   50.2367    8.6178   14.6965 C   0  0  1  0  0  0  0  0  0  0  0  0
   50.3003    9.9921   15.3774 C   0  0  0  0  0  0  0  0  0  0  0  0
   49.1248   10.0461   16.2354 N   0  0  0  0  0  0  0  0  0  0  0  0
   48.0643    9.1963   15.7203 C   0  0  0  0  0  0  0  0  0  0  0  0
   51.0732    7.5642   15.4411 C   0  0  0  0  0  0  0  0  0  0  0  0
   52.5732    7.7572   15.2372 C   0  0  0  0  0  0  0  0  0  0  0  0
   48.8151   11.0197   17.1530 C   0  0  0  0  0  0  0  0  0  0  0  0
   49.8461   11.8626   17.4689 N   0  0  0  0  0  0  0  0  0  0  0  0
   47.6979   11.1422   17.6450 O   0  0  0  0  0  0  0  0  0  0  0  0
   49.6340   12.9053   18.4768 C   0  0  0  0  0  0  0  0  0  0  0  0
   50.7671   13.9195   18.5828 C   0  0  0  0  0  0  0  0  0  0  0  0
   50.5630   14.7763   19.6067 F   0  0  0  0  0  0  0  0  0  0  0  0
   51.9481   13.2945   18.8022 F   0  0  0  0  0  0  0  0  0  0  0  0
   50.8938   14.6488   17.4527 F   0  0  0  0  0  0  0  0  0  0  0  0
   50.7354    3.3352   17.6937 N   0  0  0  0  0  0  0  0  0  0  0  0
   49.4362    3.7086   17.5262 C   0  0  0  0  0  0  0  0  0  0  0  0
   48.9045    4.9707   17.3426 C   0  0  0  0  0  0  0  0  0  0  0  0
   49.8284    6.0325   17.3242 N   0  0  0  0  0  0  0  0  0  0  0  0
   51.1627    5.7171   17.4819 C   0  0  0  0  0  0  0  0  0  0  0  0
   51.5784    4.3401   17.6694 C   0  0  0  0  0  0  0  0  0  0  0  0
   47.5116    4.8672   17.2075 C   0  0  0  0  0  0  0  0  0  0  0  0
   47.2169    3.5198   17.3198 C   0  0  0  0  0  0  0  0  0  0  0  0
   48.3918    2.8273   17.5146 N   0  0  0  0  0  0  0  0  0  0  0  0
   51.9351    6.7786   17.4376 N   0  0  0  0  0  0  0  0  0  0  0  0
   51.0643    7.8238   17.2548 C   0  0  0  0  0  0  0  0  0  0  0  0
   49.7436    7.3999   17.1708 C   0  0  0  0  0  0  0  0  0  0  0  0
   48.4704    8.1731   16.9727 C   0  0  2  0  0  0  0  0  0  0  0  0
   48.1705    8.5364   15.4987 C   0  0  1  0  0  0  0  0  0  0  0  0
   48.9611    9.8316   15.2823 C   0  0  0  0  0  0  0  0  0  0  0  0
   49.0073   10.4624   16.5927 N   0  0  0  0  0  0  0  0  0  0  0  0
   48.5144    9.5656   17.6280 C   0  0  0  0  0  0  0  0  0  0  0  0
   48.4484    7.4531   14.4531 C   0  0  0  0  0  0  0  0  0  0  0  0
   48.0379    7.8789   13.0496 C   0  0  0  0  0  0  0  0  0  0  0  0
   49.2881   11.7712   16.8841 C   0  0  0  0  0  0  0  0  0  0  0  0
   49.7301   12.5123   15.8215 N   0  0  0  0  0  0  0  0  0  0  0  0
   49.1346   12.2540   18.0012 O   0  0  0  0  0  0  0  0  0  0  0  0
   50.1572   13.8961   16.0341 C   0  0  0  0  0  0  0  0  0  0  0  0
   51.5653   14.0640   16.6111 C   0  0  0  0  0  0  0  0  0  0  0  0
   52.4699   13.4241   15.8287 F   0  0  0  0  0  0  0  0  0  0  0  0
   51.9140   15.3725   16.6326 F   0  0  0  0  0  0  0  0  0  0  0  0
   51.6923   13.5835   17.8618 F   0  0  0  0  0  0  0  0  0  0  0  0
   49.0623    7.6985   16.2744 H   0  0  0  0  0  0  0  0  0  0  0  0
   49.3972    9.1747   16.0701 H   0  0  0  0  0  0  0  0  0  0  0  0
   46.8853    2.7841   14.6619 H   0  0  0  0  0  0  0  0  0  0  0  0
   49.0202    7.5908   17.7906 H   0  0  0  0  0  0  0  0  0  0  0  0
   48.8166    6.0049   19.9610 H   0  0  0  0  0  0  0  0  0  0  0  0
   47.9213    3.7727   19.1883 H   0  0  0  0  0  0  0  0  0  0  0  0
   47.9078    6.8697   12.2204 H   0  0  0  0  0  0  0  0  0  0  0  0
   48.4091    8.9043   13.6861 H   0  0  0  0  0  0  0  0  0  0  0  0
   50.6440    8.6966   13.6796 H   0  0  0  0  0  0  0  0  0  0  0  0
   50.2003   10.7972   14.6386 H   0  0  0  0  0  0  0  0  0  0  0  0
   51.2167   10.1629   15.9462 H   0  0  0  0  0  0  0  0  0  0  0  0
   47.2721    9.8376   15.3117 H   0  0  0  0  0  0  0  0  0  0  0  0
   47.6067    8.6283   16.5301 H   0  0  0  0  0  0  0  0  0  0  0  0
   50.8276    6.5596   15.0826 H   0  0  0  0  0  0  0  0  0  0  0  0
   50.8716    7.5964   16.5141 H   0  0  0  0  0  0  0  0  0  0  0  0
   52.8338    7.7134   14.1748 H   0  0  0  0  0  0  0  0  0  0  0  0
   52.9186    8.7149   15.6358 H   0  0  0  0  0  0  0  0  0  0  0  0
   53.1248    6.9636   15.7522 H   0  0  0  0  0  0  0  0  0  0  0  0
   50.7553   11.4227   17.4821 H   0  0  0  0  0  0  0  0  0  0  0  0
   49.5049   12.3982   19.4405 H   0  0  0  0  0  0  0  0  0  0  0  0
   48.6959   13.4235   18.2479 H   0  0  0  0  0  0  0  0  0  0  0  0
   52.6539    4.1366   17.7961 H   0  0  0  0  0  0  0  0  0  0  0  0
   46.7804    5.6457   17.0437 H   0  0  0  0  0  0  0  0  0  0  0  0
   46.2742    2.9904   17.2772 H   0  0  0  0  0  0  0  0  0  0  0  0
   48.4880    1.8280   17.6310 H   0  0  0  0  0  0  0  0  0  0  0  0
   51.4336    8.8415   17.1944 H   0  0  0  0  0  0  0  0  0  0  0  0
   47.6375    7.6216   17.4156 H   0  0  0  0  0  0  0  0  0  0  0  0
   47.1008    8.7913   15.4482 H   0  0  0  0  0  0  0  0  0  0  0  0
   49.9910    9.6423   14.9614 H   0  0  0  0  0  0  0  0  0  0  0  0
   48.4787   10.4939   14.5567 H   0  0  0  0  0  0  0  0  0  0  0  0
   47.5028    9.9006   17.8883 H   0  0  0  0  0  0  0  0  0  0  0  0
   49.1381    9.6269   18.5261 H   0  0  0  0  0  0  0  0  0  0  0  0
   47.8933    6.5457   14.7149 H   0  0  0  0  0  0  0  0  0  0  0  0
   49.5122    7.1899   14.4355 H   0  0  0  0  0  0  0  0  0  0  0  0
   48.1969    7.0552   12.3464 H   0  0  0  0  0  0  0  0  0  0  0  0
   48.6280    8.7332   12.7040 H   0  0  0  0  0  0  0  0  0  0  0  0
   46.9790    8.1543   13.0155 H   0  0  0  0  0  0  0  0  0  0  0  0
   50.2259   11.9941   15.1113 H   0  0  0  0  0  0  0  0  0  0  0  0
   50.1130   14.3799   15.0529 H   0  0  0  0  0  0  0  0  0  0  0  0
   49.4315   14.3949   16.6855 H   0  0  0  0  0  0  0  0  0  0  0  0
  2  3  1  0
  4  5  1  0
  6  7  1  0
  7  2  2  0
  3 10  1  0
  3  4  2  0
  4  8  1  0
  8  9  2  0
  9 10  1  0
  5 13  1  0
  5  6  1  0
  6 11  2  0
 11 12  1  0
 12 13  2  0
 14 13  1  0
 14 15  1  0
 14 18  1  0
 15 16  1  0
 16 17  1  0
 17 18  1  0
 15 19  1  0
 19 20  1  0
 17 21  1  0
 21 22  1  0
 21 23  2  0
 22 24  1  0
 24 25  1  0
 25 26  1  0
 25 27  1  0
 25 28  1  0
 29 30  1  0
 31 32  1  0
 33 34  1  0
 34 29  2  0
 30 37  1  0
 30 31  2  0
 31 35  1  0
 35 36  2  0
 36 37  1  0
 32 40  1  0
 32 33  1  0
 33 38  2  0
 38 39  1  0
 39 40  2  0
 41 40  1  0
 41 42  1  0
 41 45  1  0
 42 43  1  0
 43 44  1  0
 44 45  1  0
 42 46  1  0
 46 47  1  0
 44 48  1  0
 48 49  1  0
 48 50  2  0
 49 51  1  0
 51 52  1  0
 52 53  1  0
 52 54  1  0
 52 55  1  0
  1 56  1  0
  1 57  1  0
  7 58  1  0
  8 59  1  0
  9 60  1  0
 10 61  1  0
 12 62  1  0
 14 63  1  1
 15 64  1  1
 16 65  1  0
 16 66  1  0
 18 67  1  0
 18 68  1  0
 19 69  1  0
 19 70  1  0
 20 71  1  0
 20 72  1  0
 20 73  1  0
 22 74  1  0
 24 75  1  0
 24 76  1  0
 34 77  1  0
 35 78  1  0
 36 79  1  0
 37 80  1  0
 39 81  1  0
 41 82  1  6
 42 83  1  6
 43 84  1  0
 43 85  1  0
 45 86  1  0
 45 87  1  0
 46 88  1  0
 46 89  1  0
 47 90  1  0
 47 91  1  0
 47 92  1  0
 49 93  1  0
 51 94  1  0
 51 95  1  0
M  END
> <Uni-Dock RESULT> 
ENERGY=   -5.252  LOWER_BOUND=    0.000  UPPER_BOUND=    0.000
INTER + INTRA:          -5.252
INTER:                  -5.252
INTRA:                   0.000
UNBOUND:                 0.000

$$$$

     RDKit          3D

 95100  0  0  0  0  0  0  0  0999 V2000
   48.5940    8.7527   13.9944 O   0  0  0  0  0  0  0  0  0  0  0  0
   49.9373   13.0832   10.9691 N   0  0  0  0  0  0  0  0  0  0  0  0
   49.3456   12.5207   12.0578 C   0  0  0  0  0  0  0  0  0  0  0  0
   49.4491   11.2307   12.5513 C   0  0  0  0  0  0  0  0  0  0  0  0
   50.2939   10.3551   11.8311 N   0  0  0  0  0  0  0  0  0  0  0  0
   50.9112   10.8767   10.7045 C   0  0  0  0  0  0  0  0  0  0  0  0
   50.7079   12.2560   10.3085 C   0  0  0  0  0  0  0  0  0  0  0  0
   48.6343   11.1296   13.6914 C   0  0  0  0  0  0  0  0  0  0  0  0
   48.0567   12.3728   13.8756 C   0  0  0  0  0  0  0  0  0  0  0  0
   48.4981   13.2092   12.8785 N   0  0  0  0  0  0  0  0  0  0  0  0
   51.6555    9.9965   10.0770 N   0  0  0  0  0  0  0  0  0  0  0  0
   51.5273    8.8598   10.8222 C   0  0  0  0  0  0  0  0  0  0  0  0
   50.6990    9.0346   11.9261 C   0  0  0  0  0  0  0  0  0  0  0  0
   50.3714    7.9957   12.9480 C   0  0  2  0  0  0  0  0  0  0  0  0
   49.0408    7.2246   12.7840 C   0  0  1  0  0  0  0  0  0  0  0  0
   48.8231    6.6673   14.1977 C   0  0  0  0  0  0  0  0  0  0  0  0
   49.4257    7.6478   15.0900 N   0  0  0  0  0  0  0  0  0  0  0  0
   50.4882    8.3786   14.4197 C   0  0  0  0  0  0  0  0  0  0  0  0
   47.8241    8.0196   12.2821 C   0  0  0  0  0  0  0  0  0  0  0  0
   46.6522    7.1186   11.9032 C   0  0  0  0  0  0  0  0  0  0  0  0
   49.3651    7.6646   16.4618 C   0  0  0  0  0  0  0  0  0  0  0  0
   48.4245    6.8332   17.0071 N   0  0  0  0  0  0  0  0  0  0  0  0
   50.1046    8.3564   17.1543 O   0  0  0  0  0  0  0  0  0  0  0  0
   48.2440    6.8143   18.4615 C   0  0  0  0  0  0  0  0  0  0  0  0
   47.3391    5.6980   18.9700 C   0  0  0  0  0  0  0  0  0  0  0  0
   47.1209    5.8114   20.2981 F   0  0  0  0  0  0  0  0  0  0  0  0
   46.1346    5.7416   18.3528 F   0  0  0  0  0  0  0  0  0  0  0  0
   47.8721    4.4778   18.7414 F   0  0  0  0  0  0  0  0  0  0  0  0
   46.4921   12.3736   10.7519 N   0  0  0  0  0  0  0  0  0  0  0  0
   47.7422   12.5828   11.2508 C   0  0  0  0  0  0  0  0  0  0  0  0
   48.4472   11.8468   12.1838 C   0  0  0  0  0  0  0  0  0  0  0  0
   47.7896   10.7149   12.7013 N   0  0  0  0  0  0  0  0  0  0  0  0
   46.5211   10.4453   12.2290 C   0  0  0  0  0  0  0  0  0  0  0  0
   45.9002   11.3119   11.2452 C   0  0  0  0  0  0  0  0  0  0  0  0
   49.7034   12.4398   12.3827 C   0  0  0  0  0  0  0  0  0  0  0  0
   49.7365   13.5490   11.5561 C   0  0  0  0  0  0  0  0  0  0  0  0
   48.5408   13.6265   10.8759 N   0  0  0  0  0  0  0  0  0  0  0  0
   46.0069    9.3639   12.7689 N   0  0  0  0  0  0  0  0  0  0  0  0
   46.9776    8.9224   13.6332 C   0  0  0  0  0  0  0  0  0  0  0  0
   48.1069    9.7320   13.6143 C   0  0  0  0  0  0  0  0  0  0  0  0
   49.3988    9.6402   14.3761 C   0  0  2  0  0  0  0  0  0  0  0  0
   50.4231    8.6495   13.7730 C   0  0  1  0  0  0  0  0  0  0  0  0
   50.0063    7.2994   14.3670 C   0  0  0  0  0  0  0  0  0  0  0  0
   49.4039    7.6278   15.6502 N   0  0  0  0  0  0  0  0  0  0  0  0
   49.2128    9.0639   15.7916 C   0  0  0  0  0  0  0  0  0  0  0  0
   50.5602    8.6452   12.2481 C   0  0  0  0  0  0  0  0  0  0  0  0
   51.6532    7.7016   11.7639 C   0  0  0  0  0  0  0  0  0  0  0  0
   49.1809    6.7901   16.7110 C   0  0  0  0  0  0  0  0  0  0  0  0
   49.4101    5.4655   16.4526 N   0  0  0  0  0  0  0  0  0  0  0  0
   48.8272    7.1908   17.8150 O   0  0  0  0  0  0  0  0  0  0  0  0
   49.1085    4.4669   17.4794 C   0  0  0  0  0  0  0  0  0  0  0  0
   47.6312    4.0856   17.6060 C   0  0  0  0  0  0  0  0  0  0  0  0
   47.1531    3.6649   16.4083 F   0  0  0  0  0  0  0  0  0  0  0  0
   47.4813    3.0587   18.4762 F   0  0  0  0  0  0  0  0  0  0  0  0
   46.8508    5.0984   18.0262 F   0  0  0  0  0  0  0  0  0  0  0  0
   49.1703    9.2925   13.4327 H   0  0  0  0  0  0  0  0  0  0  0  0
   49.1634    8.0239   14.2833 H   0  0  0  0  0  0  0  0  0  0  0  0
   51.2307   12.6165    9.4082 H   0  0  0  0  0  0  0  0  0  0  0  0
   48.4524   10.2828   14.3362 H   0  0  0  0  0  0  0  0  0  0  0  0
   47.3713   12.7347   14.6308 H   0  0  0  0  0  0  0  0  0  0  0  0
   48.2462   14.1801   12.7529 H   0  0  0  0  0  0  0  0  0  0  0  0
   52.0460    7.9518   10.5367 H   0  0  0  0  0  0  0  0  0  0  0  0
   51.1484    7.2218   12.8172 H   0  0  0  0  0  0  0  0  0  0  0  0
   49.1957    6.3919   12.0848 H   0  0  0  0  0  0  0  0  0  0  0  0
   49.3700    5.7258   14.3331 H   0  0  0  0  0  0  0  0  0  0  0  0
   47.7748    6.4919   14.4483 H   0  0  0  0  0  0  0  0  0  0  0  0
   51.4513    8.0435   14.8270 H   0  0  0  0  0  0  0  0  0  0  0  0
   50.4174    9.4425   14.6456 H   0  0  0  0  0  0  0  0  0  0  0  0
   48.0873    8.5957   11.3894 H   0  0  0  0  0  0  0  0  0  0  0  0
   47.4779    8.7212   13.0443 H   0  0  0  0  0  0  0  0  0  0  0  0
   46.9410    6.4058   11.1241 H   0  0  0  0  0  0  0  0  0  0  0  0
   46.2776    6.5550   12.7620 H   0  0  0  0  0  0  0  0  0  0  0  0
   45.8260    7.7242   11.5161 H   0  0  0  0  0  0  0  0  0  0  0  0
   47.5784    6.7464   16.4622 H   0  0  0  0  0  0  0  0  0  0  0  0
   47.8219    7.7859   18.7449 H   0  0  0  0  0  0  0  0  0  0  0  0
   49.2302    6.7325   18.9324 H   0  0  0  0  0  0  0  0  0  0  0  0
   44.8842   11.0598   10.9010 H   0  0  0  0  0  0  0  0  0  0  0  0
   50.5112   12.1303   13.0303 H   0  0  0  0  0  0  0  0  0  0  0  0
   50.5059   14.2913   11.3896 H   0  0  0  0  0  0  0  0  0  0  0  0
   48.2773   14.3326   10.2026 H   0  0  0  0  0  0  0  0  0  0  0  0
   46.8140    8.0356   14.2353 H   0  0  0  0  0  0  0  0  0  0  0  0
   49.8336   10.6378   14.4760 H   0  0  0  0  0  0  0  0  0  0  0  0
   51.4032    8.9092   14.2017 H   0  0  0  0  0  0  0  0  0  0  0  0
   49.2502    6.7921   13.7583 H   0  0  0  0  0  0  0  0  0  0  0  0
   50.8594    6.6281   14.5064 H   0  0  0  0  0  0  0  0  0  0  0  0
   50.0007    9.4284   16.4622 H   0  0  0  0  0  0  0  0  0  0  0  0
   48.2429    9.2848   16.2496 H   0  0  0  0  0  0  0  0  0  0  0  0
   50.7994    9.6569   11.9028 H   0  0  0  0  0  0  0  0  0  0  0  0
   49.6175    8.3532   11.7713 H   0  0  0  0  0  0  0  0  0  0  0  0
   51.7577    7.7754   10.6768 H   0  0  0  0  0  0  0  0  0  0  0  0
   51.4181    6.6610   12.0081 H   0  0  0  0  0  0  0  0  0  0  0  0
   52.6185    7.9525   12.2152 H   0  0  0  0  0  0  0  0  0  0  0  0
   49.2649    5.1820   15.4949 H   0  0  0  0  0  0  0  0  0  0  0  0
   49.6860    3.5757   17.2127 H   0  0  0  0  0  0  0  0  0  0  0  0
   49.4785    4.8282   18.4449 H   0  0  0  0  0  0  0  0  0  0  0  0
  2  3  1  0
  4  5  1  0
  6  7  1  0
  7  2  2  0
  3 10  1  0
  3  4  2  0
  4  8  1  0
  8  9  2  0
  9 10  1  0
  5 13  1  0
  5  6  1  0
  6 11  2  0
 11 12  1  0
 12 13  2  0
 14 13  1  0
 14 15  1  0
 14 18  1  0
 15 16  1  0
 16 17  1  0
 17 18  1  0
 15 19  1  0
 19 20  1  0
 17 21  1  0
 21 22  1  0
 21 23  2  0
 22 24  1  0
 24 25  1  0
 25 26  1  0
 25 27  1  0
 25 28  1  0
 29 30  1  0
 31 32  1  0
 33 34  1  0
 34 29  2  0
 30 37  1  0
 30 31  2  0
 31 35  1  0
 35 36  2  0
 36 37  1  0
 32 40  1  0
 32 33  1  0
 33 38  2  0
 38 39  1  0
 39 40  2  0
 41 40  1  0
 41 42  1  0
 41 45  1  0
 42 43  1  0
 43 44  1  0
 44 45  1  0
 42 46  1  0
 46 47  1  0
 44 48  1  0
 48 49  1  0
 48 50  2  0
 49 51  1  0
 51 52  1  0
 52 53  1  0
 52 54  1  0
 52 55  1  0
  1 56  1  0
  1 57  1  0
  7 58  1  0
  8 59  1  0
  9 60  1  0
 10 61  1  0
 12 62  1  0
 14 63  1  1
 15 64  1  1
 16 65  1  0
 16 66  1  0
 18 67  1  0
 18 68  1  0
 19 69  1  0
 19 70  1  0
 20 71  1  0
 20 72  1  0
 20 73  1  0
 22 74  1  0
 24 75  1  0
 24 76  1  0
 34 77  1  0
 35 78  1  0
 36 79  1  0
 37 80  1  0
 39 81  1  0
 41 82  1  6
 42 83  1  6
 43 84  1  0
 43 85  1  0
 45 86  1  0
 45 87  1  0
 46 88  1  0
 46 89  1  0
 47 90  1  0
 47 91  1  0
 47 92  1  0
 49 93  1  0
 51 94  1  0
 51 95  1  0
M  END
> <Uni-Dock RESULT> 
ENERGY=   -5.128  LOWER_BOUND=    4.461  UPPER_BOUND=    7.665
INTER + INTRA:          -5.128
INTER:                  -5.128
INTRA:                   0.000
UNBOUND:                 0.000

$$$$

     RDKit          3D

 95100  0  0  0  0  0  0  0  0999 V2000
   50.3936    5.9372   17.9400 O   0  0  0  0  0  0  0  0  0  0  0  0
   52.4332    5.7377   22.9909 N   0  0  0  0  0  0  0  0  0  0  0  0
   52.5399    6.0379   21.6678 C   0  0  0  0  0  0  0  0  0  0  0  0
   51.5582    6.0903   20.6923 C   0  0  0  0  0  0  0  0  0  0  0  0
   50.2426    5.7938   21.1171 N   0  0  0  0  0  0  0  0  0  0  0  0
   50.0821    5.4684   22.4553 C   0  0  0  0  0  0  0  0  0  0  0  0
   51.2103    5.4562   23.3650 C   0  0  0  0  0  0  0  0  0  0  0  0
   52.1675    6.4323   19.4735 C   0  0  0  0  0  0  0  0  0  0  0  0
   53.5157    6.5933   19.7374 C   0  0  0  0  0  0  0  0  0  0  0  0
   53.7287    6.3531   21.0736 N   0  0  0  0  0  0  0  0  0  0  0  0
   48.8396    5.1805   22.7648 N   0  0  0  0  0  0  0  0  0  0  0  0
   48.1604    5.3293   21.5899 C   0  0  0  0  0  0  0  0  0  0  0  0
   48.9865    5.7173   20.5400 C   0  0  0  0  0  0  0  0  0  0  0  0
   48.5513    5.9840   19.1363 C   0  0  2  0  0  0  0  0  0  0  0  0
   48.7260    4.8456   18.1040 C   0  0  1  0  0  0  0  0  0  0  0  0
   48.6669    5.6127   16.7757 C   0  0  0  0  0  0  0  0  0  0  0  0
   49.2202    6.9271   17.0707 N   0  0  0  0  0  0  0  0  0  0  0  0
   49.0324    7.2692   18.4706 C   0  0  0  0  0  0  0  0  0  0  0  0
   49.9928    3.9815   18.2170 C   0  0  0  0  0  0  0  0  0  0  0  0
   49.9335    2.7379   17.3346 C   0  0  0  0  0  0  0  0  0  0  0  0
   49.5060    7.9247   16.1713 C   0  0  0  0  0  0  0  0  0  0  0  0
   49.5204    7.5316   14.8603 N   0  0  0  0  0  0  0  0  0  0  0  0
   49.7175    9.0856   16.5068 O   0  0  0  0  0  0  0  0  0  0  0  0
   49.8650    8.5095   13.8244 C   0  0  0  0  0  0  0  0  0  0  0  0
   49.6298    8.0263   12.3980 C   0  0  0  0  0  0  0  0  0  0  0  0
   50.0783    8.9260   11.4960 F   0  0  0  0  0  0  0  0  0  0  0  0
   50.2844    6.8623   12.1743 F   0  0  0  0  0  0  0  0  0  0  0  0
   48.3188    7.8124   12.1514 F   0  0  0  0  0  0  0  0  0  0  0  0
   53.9228    3.3238   20.8994 N   0  0  0  0  0  0  0  0  0  0  0  0
   53.4171    4.5005   21.3631 C   0  0  0  0  0  0  0  0  0  0  0  0
   52.5793    5.4018   20.7346 C   0  0  0  0  0  0  0  0  0  0  0  0
   52.1841    5.0673   19.4257 N   0  0  0  0  0  0  0  0  0  0  0  0
   52.6586    3.8819   18.9017 C   0  0  0  0  0  0  0  0  0  0  0  0
   53.5386    3.0308   19.6798 C   0  0  0  0  0  0  0  0  0  0  0  0
   52.3169    6.4699   21.6062 C   0  0  0  0  0  0  0  0  0  0  0  0
   53.0181    6.1956   22.7671 C   0  0  0  0  0  0  0  0  0  0  0  0
   53.6830    4.9996   22.6072 N   0  0  0  0  0  0  0  0  0  0  0  0
   52.2199    3.6641   17.6828 N   0  0  0  0  0  0  0  0  0  0  0  0
   51.4392    4.7580   17.4033 C   0  0  0  0  0  0  0  0  0  0  0  0
   51.3846    5.6512   18.4664 C   0  0  0  0  0  0  0  0  0  0  0  0
   50.6645    6.9614   18.6175 C   0  0  2  0  0  0  0  0  0  0  0  0
   49.1712    6.8253   18.9993 C   0  0  1  0  0  0  0  0  0  0  0  0
   48.4740    6.6269   17.6488 C   0  0  0  0  0  0  0  0  0  0  0  0
   49.3142    7.3284   16.6901 N   0  0  0  0  0  0  0  0  0  0  0  0
   50.5719    7.7431   17.2943 C   0  0  0  0  0  0  0  0  0  0  0  0
   48.8225    5.7620   20.0443 C   0  0  0  0  0  0  0  0  0  0  0  0
   47.3448    5.7697   20.4130 C   0  0  0  0  0  0  0  0  0  0  0  0
   48.9793    7.7454   15.4289 C   0  0  0  0  0  0  0  0  0  0  0  0
   47.7653    7.2983   14.9814 N   0  0  0  0  0  0  0  0  0  0  0  0
   49.6948    8.4812   14.7572 O   0  0  0  0  0  0  0  0  0  0  0  0
   47.3467    7.5959   13.6107 C   0  0  0  0  0  0  0  0  0  0  0  0
   47.9633    6.7029   12.5308 C   0  0  0  0  0  0  0  0  0  0  0  0
   47.7182    5.3979   12.8079 F   0  0  0  0  0  0  0  0  0  0  0  0
   47.4042    6.9649   11.3254 F   0  0  0  0  0  0  0  0  0  0  0  0
   49.2952    6.8530   12.4081 F   0  0  0  0  0  0  0  0  0  0  0  0
   50.3694    6.0164   18.9055 H   0  0  0  0  0  0  0  0  0  0  0  0
   49.5323    6.2773   17.6548 H   0  0  0  0  0  0  0  0  0  0  0  0
   51.0205    5.1971   24.4188 H   0  0  0  0  0  0  0  0  0  0  0  0
   51.7291    6.5591   18.4948 H   0  0  0  0  0  0  0  0  0  0  0  0
   54.3411    6.8595   19.0902 H   0  0  0  0  0  0  0  0  0  0  0  0
   54.6150    6.3949   21.5581 H   0  0  0  0  0  0  0  0  0  0  0  0
   47.0912    5.1559   21.5452 H   0  0  0  0  0  0  0  0  0  0  0  0
   47.4574    6.1191   19.2049 H   0  0  0  0  0  0  0  0  0  0  0  0
   47.8638    4.1685   18.1715 H   0  0  0  0  0  0  0  0  0  0  0  0
   47.6271    5.7618   16.4586 H   0  0  0  0  0  0  0  0  0  0  0  0
   49.2063    5.1276   15.9595 H   0  0  0  0  0  0  0  0  0  0  0  0
   48.2603    8.0471   18.5381 H   0  0  0  0  0  0  0  0  0  0  0  0
   49.9422    7.7092   18.8787 H   0  0  0  0  0  0  0  0  0  0  0  0
   50.1287    3.6374   19.2472 H   0  0  0  0  0  0  0  0  0  0  0  0
   50.8792    4.5539   17.9345 H   0  0  0  0  0  0  0  0  0  0  0  0
   49.0702    2.1155   17.5910 H   0  0  0  0  0  0  0  0  0  0  0  0
   49.8687    2.9941   16.2736 H   0  0  0  0  0  0  0  0  0  0  0  0
   50.8370    2.1358   17.4774 H   0  0  0  0  0  0  0  0  0  0  0  0
   49.8697    6.5960   14.7092 H   0  0  0  0  0  0  0  0  0  0  0  0
   50.9250    8.7572   13.9572 H   0  0  0  0  0  0  0  0  0  0  0  0
   49.2872    9.4233   14.0039 H   0  0  0  0  0  0  0  0  0  0  0  0
   53.8963    2.0964   19.2183 H   0  0  0  0  0  0  0  0  0  0  0  0
   51.6999    7.3434   21.4514 H   0  0  0  0  0  0  0  0  0  0  0  0
   53.1029    6.7451   23.6954 H   0  0  0  0  0  0  0  0  0  0  0  0
   54.2758    4.5460   23.2886 H   0  0  0  0  0  0  0  0  0  0  0  0
   50.9512    4.8518   16.4395 H   0  0  0  0  0  0  0  0  0  0  0  0
   51.1959    7.5871   19.3387 H   0  0  0  0  0  0  0  0  0  0  0  0
   48.8556    7.8041   19.3920 H   0  0  0  0  0  0  0  0  0  0  0  0
   48.4306    5.5732   17.3533 H   0  0  0  0  0  0  0  0  0  0  0  0
   47.4605    7.0399   17.6423 H   0  0  0  0  0  0  0  0  0  0  0  0
   50.4955    8.8201   17.4881 H   0  0  0  0  0  0  0  0  0  0  0  0
   51.4081    7.5763   16.6072 H   0  0  0  0  0  0  0  0  0  0  0  0
   49.4063    5.9421   20.9536 H   0  0  0  0  0  0  0  0  0  0  0  0
   49.0821    4.7598   19.6844 H   0  0  0  0  0  0  0  0  0  0  0  0
   47.1520    5.0382   21.2042 H   0  0  0  0  0  0  0  0  0  0  0  0
   46.7187    5.5077   19.5545 H   0  0  0  0  0  0  0  0  0  0  0  0
   47.0353    6.7540   20.7784 H   0  0  0  0  0  0  0  0  0  0  0  0
   47.4673    6.4109   15.3586 H   0  0  0  0  0  0  0  0  0  0  0  0
   46.2584    7.4765   13.5947 H   0  0  0  0  0  0  0  0  0  0  0  0
   47.5709    8.6454   13.3916 H   0  0  0  0  0  0  0  0  0  0  0  0
  2  3  1  0
  4  5  1  0
  6  7  1  0
  7  2  2  0
  3 10  1  0
  3  4  2  0
  4  8  1  0
  8  9  2  0
  9 10  1  0
  5 13  1  0
  5  6  1  0
  6 11  2  0
 11 12  1  0
 12 13  2  0
 14 13  1  0
 14 15  1  0
 14 18  1  0
 15 16  1  0
 16 17  1  0
 17 18  1  0
 15 19  1  0
 19 20  1  0
 17 21  1  0
 21 22  1  0
 21 23  2  0
 22 24  1  0
 24 25  1  0
 25 26  1  0
 25 27  1  0
 25 28  1  0
 29 30  1  0
 31 32  1  0
 33 34  1  0
 34 29  2  0
 30 37  1  0
 30 31  2  0
 31 35  1  0
 35 36  2  0
 36 37  1  0
 32 40  1  0
 32 33  1  0
 33 38  2  0
 38 39  1  0
 39 40  2  0
 41 40  1  0
 41 42  1  0
 41 45  1  0
 42 43  1  0
 43 44  1  0
 44 45  1  0
 42 46  1  0
 46 47  1  0
 44 48  1  0
 48 49  1  0
 48 50  2  0
 49 51  1  0
 51 52  1  0
 52 53  1  0
 52 54  1  0
 52 55  1  0
  1 56  1  0
  1 57  1  0
  7 58  1  0
  8 59  1  0
  9 60  1  0
 10 61  1  0
 12 62  1  0
 14 63  1  1
 15 64  1  1
 16 65  1  0
 16 66  1  0
 18 67  1  0
 18 68  1  0
 19 69  1  0
 19 70  1  0
 20 71  1  0
 20 72  1  0
 20 73  1  0
 22 74  1  0
 24 75  1  0
 24 76  1  0
 34 77  1  0
 35 78  1  0
 36 79  1  0
 37 80  1  0
 39 81  1  0
 41 82  1  6
 42 83  1  6
 43 84  1  0
 43 85  1  0
 45 86  1  0
 45 87  1  0
 46 88  1  0
 46 89  1  0
 47 90  1  0
 47 91  1  0
 47 92  1  0
 49 93  1  0
 51 94  1  0
 51 95  1  0
M  END
> <Uni-Dock RESULT> 
ENERGY=   -5.029  LOWER_BOUND=    3.839  UPPER_BOUND=    6.301
INTER + INTRA:          -5.029
INTER:                  -5.029
INTRA:                   0.000
UNBOUND:                 0.000

$$$$

     RDKit          3D

 95100  0  0  0  0  0  0  0  0999 V2000
   50.8909    6.3996   19.7806 O   0  0  0  0  0  0  0  0  0  0  0  0
   54.9365    2.7579   19.4947 N   0  0  0  0  0  0  0  0  0  0  0  0
   54.1652    3.7357   18.9463 C   0  0  0  0  0  0  0  0  0  0  0  0
   53.2729    4.6024   19.5553 C   0  0  0  0  0  0  0  0  0  0  0  0
   53.1322    4.4675   20.9557 N   0  0  0  0  0  0  0  0  0  0  0  0
   53.8877    3.4753   21.5617 C   0  0  0  0  0  0  0  0  0  0  0  0
   54.7864    2.6401   20.7902 C   0  0  0  0  0  0  0  0  0  0  0  0
   52.7081    5.4208   18.5629 C   0  0  0  0  0  0  0  0  0  0  0  0
   53.2815    5.0398   17.3632 C   0  0  0  0  0  0  0  0  0  0  0  0
   54.1660    4.0172   17.6097 N   0  0  0  0  0  0  0  0  0  0  0  0
   53.6815    3.3956   22.8554 N   0  0  0  0  0  0  0  0  0  0  0  0
   52.7640    4.3745   23.1077 C   0  0  0  0  0  0  0  0  0  0  0  0
   52.3983    5.0729   21.9615 C   0  0  0  0  0  0  0  0  0  0  0  0
   51.4352    6.2131   21.9011 C   0  0  2  0  0  0  0  0  0  0  0  0
   49.9783    5.8986   21.4881 C   0  0  1  0  0  0  0  0  0  0  0  0
   49.4665    7.2810   21.0600 C   0  0  0  0  0  0  0  0  0  0  0  0
   50.6354    7.9735   20.5357 N   0  0  0  0  0  0  0  0  0  0  0  0
   51.8562    7.4648   21.1380 C   0  0  0  0  0  0  0  0  0  0  0  0
   49.7704    4.8401   20.3924 C   0  0  0  0  0  0  0  0  0  0  0  0
   48.3103    4.4178   20.2563 C   0  0  0  0  0  0  0  0  0  0  0  0
   50.6595    9.1921   19.9029 C   0  0  0  0  0  0  0  0  0  0  0  0
   49.4372    9.6547   19.4967 N   0  0  0  0  0  0  0  0  0  0  0  0
   51.6912    9.8319   19.7256 O   0  0  0  0  0  0  0  0  0  0  0  0
   49.3593   10.9228   18.7660 C   0  0  0  0  0  0  0  0  0  0  0  0
   47.9428   11.4486   18.5649 C   0  0  0  0  0  0  0  0  0  0  0  0
   47.9360   12.5513   17.7849 F   0  0  0  0  0  0  0  0  0  0  0  0
   47.1688   10.5161   17.9609 F   0  0  0  0  0  0  0  0  0  0  0  0
   47.3561   11.7693   19.7389 F   0  0  0  0  0  0  0  0  0  0  0  0
   52.1476    1.7433   17.5939 N   0  0  0  0  0  0  0  0  0  0  0  0
   53.1386    2.5062   18.1337 C   0  0  0  0  0  0  0  0  0  0  0  0
   53.0741    3.7839   18.6559 C   0  0  0  0  0  0  0  0  0  0  0  0
   51.8070    4.3966   18.6325 N   0  0  0  0  0  0  0  0  0  0  0  0
   50.7594    3.6704   18.1036 C   0  0  0  0  0  0  0  0  0  0  0  0
   50.9756    2.3327   17.5860 C   0  0  0  0  0  0  0  0  0  0  0  0
   54.3488    4.1614   19.1051 C   0  0  0  0  0  0  0  0  0  0  0  0
   55.1807    3.0886   18.8368 C   0  0  0  0  0  0  0  0  0  0  0  0
   54.4358    2.0915   18.2460 N   0  0  0  0  0  0  0  0  0  0  0  0
   49.6247    4.3311   18.1416 N   0  0  0  0  0  0  0  0  0  0  0  0
   49.9540    5.5373   18.7080 C   0  0  0  0  0  0  0  0  0  0  0  0
   51.3022    5.6144   19.0356 C   0  0  0  0  0  0  0  0  0  0  0  0
   52.1020    6.7186   19.6673 C   0  0  2  0  0  0  0  0  0  0  0  0
   51.9952    6.7782   21.2098 C   0  0  1  0  0  0  0  0  0  0  0  0
   50.7223    7.5981   21.4481 C   0  0  0  0  0  0  0  0  0  0  0  0
   50.6268    8.4802   20.2949 N   0  0  0  0  0  0  0  0  0  0  0  0
   51.5965    8.1180   19.2714 C   0  0  0  0  0  0  0  0  0  0  0  0
   52.0246    5.4403   21.9535 C   0  0  0  0  0  0  0  0  0  0  0  0
   52.0027    5.6138   23.4664 C   0  0  0  0  0  0  0  0  0  0  0  0
   49.8859    9.6262   20.1745 C   0  0  0  0  0  0  0  0  0  0  0  0
   49.0212    9.8603   21.2096 N   0  0  0  0  0  0  0  0  0  0  0  0
   50.0005   10.3988   19.2288 O   0  0  0  0  0  0  0  0  0  0  0  0
   48.1058   11.0005   21.1419 C   0  0  0  0  0  0  0  0  0  0  0  0
   46.8597   10.7876   20.2783 C   0  0  0  0  0  0  0  0  0  0  0  0
   46.1851    9.6870   20.6951 F   0  0  0  0  0  0  0  0  0  0  0  0
   46.0159   11.8400   20.3990 F   0  0  0  0  0  0  0  0  0  0  0  0
   47.1352   10.6288   18.9705 F   0  0  0  0  0  0  0  0  0  0  0  0
   51.6545    5.9011   20.1083 H   0  0  0  0  0  0  0  0  0  0  0  0
   50.7198    7.0514   20.4768 H   0  0  0  0  0  0  0  0  0  0  0  0
   55.3667    1.8730   21.3275 H   0  0  0  0  0  0  0  0  0  0  0  0
   51.9715    6.2053   18.6525 H   0  0  0  0  0  0  0  0  0  0  0  0
   53.1378    5.4089   16.3562 H   0  0  0  0  0  0  0  0  0  0  0  0
   54.7335    3.5353   16.9258 H   0  0  0  0  0  0  0  0  0  0  0  0
   52.4025    4.5452   24.1153 H   0  0  0  0  0  0  0  0  0  0  0  0
   51.3494    6.5607   22.9458 H   0  0  0  0  0  0  0  0  0  0  0  0
   49.4219    5.5630   22.3736 H   0  0  0  0  0  0  0  0  0  0  0  0
   49.1137    7.8512   21.9285 H   0  0  0  0  0  0  0  0  0  0  0  0
   48.6605    7.2467   20.3241 H   0  0  0  0  0  0  0  0  0  0  0  0
   52.2443    8.2229   21.8311 H   0  0  0  0  0  0  0  0  0  0  0  0
   52.6251    7.3273   20.3780 H   0  0  0  0  0  0  0  0  0  0  0  0
   50.3454    3.9371   20.6208 H   0  0  0  0  0  0  0  0  0  0  0  0
   50.1052    5.2148   19.4226 H   0  0  0  0  0  0  0  0  0  0  0  0
   47.9289    4.0139   21.1996 H   0  0  0  0  0  0  0  0  0  0  0  0
   47.6710    5.2528   19.9573 H   0  0  0  0  0  0  0  0  0  0  0  0
   48.2173    3.6373   19.4937 H   0  0  0  0  0  0  0  0  0  0  0  0
   48.8003    8.9342   19.1874 H   0  0  0  0  0  0  0  0  0  0  0  0
   49.8317   10.7600   17.7898 H   0  0  0  0  0  0  0  0  0  0  0  0
   49.9567   11.6692   19.3017 H   0  0  0  0  0  0  0  0  0  0  0  0
   50.1104    1.7928   17.1688 H   0  0  0  0  0  0  0  0  0  0  0  0
   54.6641    5.0828   19.5733 H   0  0  0  0  0  0  0  0  0  0  0  0
   56.2382    2.9446   19.0149 H   0  0  0  0  0  0  0  0  0  0  0  0
   54.7747    1.1901   17.9391 H   0  0  0  0  0  0  0  0  0  0  0  0
   49.1975    6.3007   18.8517 H   0  0  0  0  0  0  0  0  0  0  0  0
   53.1450    6.6385   19.3514 H   0  0  0  0  0  0  0  0  0  0  0  0
   52.8461    7.3815   21.5618 H   0  0  0  0  0  0  0  0  0  0  0  0
   49.8228    6.9736   21.4718 H   0  0  0  0  0  0  0  0  0  0  0  0
   50.7738    8.1822   22.3723 H   0  0  0  0  0  0  0  0  0  0  0  0
   52.4106    8.8511   19.3264 H   0  0  0  0  0  0  0  0  0  0  0  0
   51.1496    8.1754   18.2733 H   0  0  0  0  0  0  0  0  0  0  0  0
   52.9346    4.8943   21.6817 H   0  0  0  0  0  0  0  0  0  0  0  0
   51.1718    4.8143   21.6666 H   0  0  0  0  0  0  0  0  0  0  0  0
   52.0863    4.6388   23.9569 H   0  0  0  0  0  0  0  0  0  0  0  0
   51.0698    6.0782   23.8007 H   0  0  0  0  0  0  0  0  0  0  0  0
   52.8380    6.2358   23.8036 H   0  0  0  0  0  0  0  0  0  0  0  0
   48.6761    9.0354   21.6777 H   0  0  0  0  0  0  0  0  0  0  0  0
   47.7962   11.2007   22.1728 H   0  0  0  0  0  0  0  0  0  0  0  0
   48.6565   11.8763   20.7823 H   0  0  0  0  0  0  0  0  0  0  0  0
  2  3  1  0
  4  5  1  0
  6  7  1  0
  7  2  2  0
  3 10  1  0
  3  4  2  0
  4  8  1  0
  8  9  2  0
  9 10  1  0
  5 13  1  0
  5  6  1  0
  6 11  2  0
 11 12  1  0
 12 13  2  0
 14 13  1  0
 14 15  1  0
 14 18  1  0
 15 16  1  0
 16 17  1  0
 17 18  1  0
 15 19  1  0
 19 20  1  0
 17 21  1  0
 21 22  1  0
 21 23  2  0
 22 24  1  0
 24 25  1  0
 25 26  1  0
 25 27  1  0
 25 28  1  0
 29 30  1  0
 31 32  1  0
 33 34  1  0
 34 29  2  0
 30 37  1  0
 30 31  2  0
 31 35  1  0
 35 36  2  0
 36 37  1  0
 32 40  1  0
 32 33  1  0
 33 38  2  0
 38 39  1  0
 39 40  2  0
 41 40  1  0
 41 42  1  0
 41 45  1  0
 42 43  1  0
 43 44  1  0
 44 45  1  0
 42 46  1  0
 46 47  1  0
 44 48  1  0
 48 49  1  0
 48 50  2  0
 49 51  1  0
 51 52  1  0
 52 53  1  0
 52 54  1  0
 52 55  1  0
  1 56  1  0
  1 57  1  0
  7 58  1  0
  8 59  1  0
  9 60  1  0
 10 61  1  0
 12 62  1  0
 14 63  1  1
 15 64  1  1
 16 65  1  0
 16 66  1  0
 18 67  1  0
 18 68  1  0
 19 69  1  0
 19 70  1  0
 20 71  1  0
 20 72  1  0
 20 73  1  0
 22 74  1  0
 24 75  1  0
 24 76  1  0
 34 77  1  0
 35 78  1  0
 36 79  1  0
 37 80  1  0
 39 81  1  0
 41 82  1  6
 42 83  1  6
 43 84  1  0
 43 85  1  0
 45 86  1  0
 45 87  1  0
 46 88  1  0
 46 89  1  0
 47 90  1  0
 47 91  1  0
 47 92  1  0
 49 93  1  0
 51 94  1  0
 51 95  1  0
M  END
> <Uni-Dock RESULT> 
ENERGY=   -4.926  LOWER_BOUND=    3.644  UPPER_BOUND=    6.297
INTER + INTRA:          -4.926
INTER:                  -4.926
INTRA:                   0.000
UNBOUND:                 0.000

$$$$

     RDKit          3D

 95100  0  0  0  0  0  0  0  0999 V2000
   49.5193    9.2511   19.8144 O   0  0  0  0  0  0  0  0  0  0  0  0
   51.3387   14.0991   21.5166 N   0  0  0  0  0  0  0  0  0  0  0  0
   51.5041   12.7647   21.3073 C   0  0  0  0  0  0  0  0  0  0  0  0
   50.7232   11.8814   20.5805 C   0  0  0  0  0  0  0  0  0  0  0  0
   49.5819   12.4314   19.9529 N   0  0  0  0  0  0  0  0  0  0  0  0
   49.3609   13.7864   20.1463 C   0  0  0  0  0  0  0  0  0  0  0  0
   50.2720   14.5898   20.9368 C   0  0  0  0  0  0  0  0  0  0  0  0
   51.3002   10.6039   20.6756 C   0  0  0  0  0  0  0  0  0  0  0  0
   52.4349   10.7400   21.4547 C   0  0  0  0  0  0  0  0  0  0  0  0
   52.5488   12.0570   21.8303 N   0  0  0  0  0  0  0  0  0  0  0  0
   48.2699   14.2147   19.5556 N   0  0  0  0  0  0  0  0  0  0  0  0
   47.7615   13.1031   18.9478 C   0  0  0  0  0  0  0  0  0  0  0  0
   48.5450   11.9730   19.1582 C   0  0  0  0  0  0  0  0  0  0  0  0
   48.2771   10.6082   18.6134 C   0  0  2  0  0  0  0  0  0  0  0  0
   47.5681    9.5936   19.5407 C   0  0  1  0  0  0  0  0  0  0  0  0
   47.9177    8.2571   18.8714 C   0  0  0  0  0  0  0  0  0  0  0  0
   49.2234    8.4672   18.2619 N   0  0  0  0  0  0  0  0  0  0  0  0
   49.4281    9.8692   17.9387 C   0  0  0  0  0  0  0  0  0  0  0  0
   47.9525    9.6129   21.0294 C   0  0  0  0  0  0  0  0  0  0  0  0
   47.0122    8.7714   21.8875 C   0  0  0  0  0  0  0  0  0  0  0  0
   50.0190    7.5204   17.6646 C   0  0  0  0  0  0  0  0  0  0  0  0
   49.6589    6.2240   17.9153 N   0  0  0  0  0  0  0  0  0  0  0  0
   50.9718    7.8058   16.9465 O   0  0  0  0  0  0  0  0  0  0  0  0
   50.4737    5.1366   17.3661 C   0  0  0  0  0  0  0  0  0  0  0  0
   49.8579    3.7501   17.5151 C   0  0  0  0  0  0  0  0  0  0  0  0
   50.7101    2.7886   17.0985 F   0  0  0  0  0  0  0  0  0  0  0  0
   49.5588    3.4976   18.8113 F   0  0  0  0  0  0  0  0  0  0  0  0
   48.7175    3.6292   16.8009 F   0  0  0  0  0  0  0  0  0  0  0  0
   50.6787   11.9429   24.2250 N   0  0  0  0  0  0  0  0  0  0  0  0
   51.1176   12.4206   23.0273 C   0  0  0  0  0  0  0  0  0  0  0  0
   51.0341   11.8482   21.7724 C   0  0  0  0  0  0  0  0  0  0  0  0
   50.4072   10.5895   21.7092 N   0  0  0  0  0  0  0  0  0  0  0  0
   49.9341   10.0548   22.8903 C   0  0  0  0  0  0  0  0  0  0  0  0
   50.0949   10.7711   24.1414 C   0  0  0  0  0  0  0  0  0  0  0  0
   51.6176   12.7126   20.8335 C   0  0  0  0  0  0  0  0  0  0  0  0
   52.0584   13.8116   21.5495 C   0  0  0  0  0  0  0  0  0  0  0  0
   51.7513   13.6224   22.8791 N   0  0  0  0  0  0  0  0  0  0  0  0
   49.3594    8.8868   22.7144 N   0  0  0  0  0  0  0  0  0  0  0  0
   49.4753    8.6517   21.3671 C   0  0  0  0  0  0  0  0  0  0  0  0
   50.1146    9.6923   20.7042 C   0  0  0  0  0  0  0  0  0  0  0  0
   50.4552    9.8749   19.2522 C   0  0  2  0  0  0  0  0  0  0  0  0
   49.2835   10.3942   18.3851 C   0  0  1  0  0  0  0  0  0  0  0  0
   48.5175    9.1181   18.0189 C   0  0  0  0  0  0  0  0  0  0  0  0
   49.5262    8.0695   18.0070 N   0  0  0  0  0  0  0  0  0  0  0  0
   50.7899    8.5462   18.5500 C   0  0  0  0  0  0  0  0  0  0  0  0
   48.4100   11.4932   18.9962 C   0  0  0  0  0  0  0  0  0  0  0  0
   47.3438   11.9943   18.0311 C   0  0  0  0  0  0  0  0  0  0  0  0
   49.4445    6.8337   17.4214 C   0  0  0  0  0  0  0  0  0  0  0  0
   48.2055    6.5100   16.9379 N   0  0  0  0  0  0  0  0  0  0  0  0
   50.4072    6.0814   17.3134 O   0  0  0  0  0  0  0  0  0  0  0  0
   47.9731    5.1759   16.3823 C   0  0  0  0  0  0  0  0  0  0  0  0
   47.7519    4.0674   17.4148 C   0  0  0  0  0  0  0  0  0  0  0  0
   46.7309    4.3986   18.2441 F   0  0  0  0  0  0  0  0  0  0  0  0
   47.4053    2.9116   16.8000 F   0  0  0  0  0  0  0  0  0  0  0  0
   48.8344    3.8204   18.1755 F   0  0  0  0  0  0  0  0  0  0  0  0
   49.6355   10.2125   19.7786 H   0  0  0  0  0  0  0  0  0  0  0  0
   49.0769    9.0368   18.9794 H   0  0  0  0  0  0  0  0  0  0  0  0
   50.0488   15.6628   21.0494 H   0  0  0  0  0  0  0  0  0  0  0  0
   50.9736    9.6662   20.2512 H   0  0  0  0  0  0  0  0  0  0  0  0
   53.1717   10.0140   21.7727 H   0  0  0  0  0  0  0  0  0  0  0  0
   53.2789   12.4578   22.4034 H   0  0  0  0  0  0  0  0  0  0  0  0
   46.8455   13.1601   18.3710 H   0  0  0  0  0  0  0  0  0  0  0  0
   47.5559   10.7725   17.7934 H   0  0  0  0  0  0  0  0  0  0  0  0
   46.4834    9.7563   19.4831 H   0  0  0  0  0  0  0  0  0  0  0  0
   47.2133    8.0321   18.0608 H   0  0  0  0  0  0  0  0  0  0  0  0
   47.9305    7.4078   19.5578 H   0  0  0  0  0  0  0  0  0  0  0  0
   49.3714    9.9868   16.8484 H   0  0  0  0  0  0  0  0  0  0  0  0
   50.4322   10.1816   18.2252 H   0  0  0  0  0  0  0  0  0  0  0  0
   47.9142   10.6348   21.4196 H   0  0  0  0  0  0  0  0  0  0  0  0
   48.9678    9.2366   21.1727 H   0  0  0  0  0  0  0  0  0  0  0  0
   45.9787    9.1209   21.7959 H   0  0  0  0  0  0  0  0  0  0  0  0
   47.0428    7.7145   21.6089 H   0  0  0  0  0  0  0  0  0  0  0  0
   47.3009    8.8467   22.9412 H   0  0  0  0  0  0  0  0  0  0  0  0
   49.2888    6.0656   18.8418 H   0  0  0  0  0  0  0  0  0  0  0  0
   51.4395    5.1661   17.8846 H   0  0  0  0  0  0  0  0  0  0  0  0
   50.6611    5.3446   16.3065 H   0  0  0  0  0  0  0  0  0  0  0  0
   49.7056   10.3028   25.0597 H   0  0  0  0  0  0  0  0  0  0  0  0
   51.7208   12.5924   19.7646 H   0  0  0  0  0  0  0  0  0  0  0  0
   52.5634   14.7141   21.2310 H   0  0  0  0  0  0  0  0  0  0  0  0
   51.9520   14.2583   23.6385 H   0  0  0  0  0  0  0  0  0  0  0  0
   49.0913    7.7342   20.9352 H   0  0  0  0  0  0  0  0  0  0  0  0
   51.3262   10.5287   19.1625 H   0  0  0  0  0  0  0  0  0  0  0  0
   49.7277   10.7890   17.4585 H   0  0  0  0  0  0  0  0  0  0  0  0
   47.7643    8.8546   18.7690 H   0  0  0  0  0  0  0  0  0  0  0  0
   48.0334    9.1932   17.0402 H   0  0  0  0  0  0  0  0  0  0  0  0
   51.4605    8.7187   17.6992 H   0  0  0  0  0  0  0  0  0  0  0  0
   51.2454    7.7904   19.1985 H   0  0  0  0  0  0  0  0  0  0  0  0
   49.0418   12.3408   19.2833 H   0  0  0  0  0  0  0  0  0  0  0  0
   47.9115   11.1368   19.9049 H   0  0  0  0  0  0  0  0  0  0  0  0
   46.7842   12.8181   18.4855 H   0  0  0  0  0  0  0  0  0  0  0  0
   46.6306   11.2032   17.7796 H   0  0  0  0  0  0  0  0  0  0  0  0
   47.7937   12.3612   17.1031 H   0  0  0  0  0  0  0  0  0  0  0  0
   47.4291    6.9351   17.4230 H   0  0  0  0  0  0  0  0  0  0  0  0
   47.0808    5.2619   15.7535 H   0  0  0  0  0  0  0  0  0  0  0  0
   48.8148    4.9107   15.7334 H   0  0  0  0  0  0  0  0  0  0  0  0
  2  3  1  0
  4  5  1  0
  6  7  1  0
  7  2  2  0
  3 10  1  0
  3  4  2  0
  4  8  1  0
  8  9  2  0
  9 10  1  0
  5 13  1  0
  5  6  1  0
  6 11  2  0
 11 12  1  0
 12 13  2  0
 14 13  1  0
 14 15  1  0
 14 18  1  0
 15 16  1  0
 16 17  1  0
 17 18  1  0
 15 19  1  0
 19 20  1  0
 17 21  1  0
 21 22  1  0
 21 23  2  0
 22 24  1  0
 24 25  1  0
 25 26  1  0
 25 27  1  0
 25 28  1  0
 29 30  1  0
 31 32  1  0
 33 34  1  0
 34 29  2  0
 30 37  1  0
 30 31  2  0
 31 35  1  0
 35 36  2  0
 36 37  1  0
 32 40  1  0
 32 33  1  0
 33 38  2  0
 38 39  1  0
 39 40  2  0
 41 40  1  0
 41 42  1  0
 41 45  1  0
 42 43  1  0
 43 44  1  0
 44 45  1  0
 42 46  1  0
 46 47  1  0
 44 48  1  0
 48 49  1  0
 48 50  2  0
 49 51  1  0
 51 52  1  0
 52 53  1  0
 52 54  1  0
 52 55  1  0
  1 56  1  0
  1 57  1  0
  7 58  1  0
  8 59  1  0
  9 60  1  0
 10 61  1  0
 12 62  1  0
 14 63  1  1
 15 64  1  1
 16 65  1  0
 16 66  1  0
 18 67  1  0
 18 68  1  0
 19 69  1  0
 19 70  1  0
 20 71  1  0
 20 72  1  0
 20 73  1  0
 22 74  1  0
 24 75  1  0
 24 76  1  0
 34 77  1  0
 35 78  1  0
 36 79  1  0
 37 80  1  0
 39 81  1  0
 41 82  1  6
 42 83  1  6
 43 84  1  0
 43 85  1  0
 45 86  1  0
 45 87  1  0
 46 88  1  0
 46 89  1  0
 47 90  1  0
 47 91  1  0
 47 92  1  0
 49 93  1  0
 51 94  1  0
 51 95  1  0
M  END
> <Uni-Dock RESULT> 
ENERGY=   -4.536  LOWER_BOUND=    4.635  UPPER_BOUND=    8.168
INTER + INTRA:          -4.536
INTER:                  -4.536
INTRA:                   0.000
UNBOUND:                 0.000

$$$$

     RDKit          3D

 95100  0  0  0  0  0  0  0  0999 V2000
   49.7432   10.5344   12.6388 O   0  0  0  0  0  0  0  0  0  0  0  0
   44.7213   11.9392   11.0521 N   0  0  0  0  0  0  0  0  0  0  0  0
   46.0708   12.1145   11.0483 C   0  0  0  0  0  0  0  0  0  0  0  0
   47.0712   11.2786   11.5158 C   0  0  0  0  0  0  0  0  0  0  0  0
   46.6453   10.0548   12.0817 N   0  0  0  0  0  0  0  0  0  0  0  0
   45.2772    9.8333   12.1214 C   0  0  0  0  0  0  0  0  0  0  0  0
   44.3440   10.8058   11.5884 C   0  0  0  0  0  0  0  0  0  0  0  0
   48.3078   11.9096   11.3004 C   0  0  0  0  0  0  0  0  0  0  0  0
   48.0324   13.1204   10.6911 C   0  0  0  0  0  0  0  0  0  0  0  0
   46.6709   13.2321   10.5417 N   0  0  0  0  0  0  0  0  0  0  0  0
   44.9616    8.6905   12.6844 N   0  0  0  0  0  0  0  0  0  0  0  0
   46.1652    8.1402   13.0192 C   0  0  0  0  0  0  0  0  0  0  0  0
   47.2405    8.9455   12.6579 C   0  0  0  0  0  0  0  0  0  0  0  0
   48.6842    8.6226   12.8641 C   0  0  2  0  0  0  0  0  0  0  0  0
   49.3822    9.2244   14.1062 C   0  0  1  0  0  0  0  0  0  0  0  0
   50.8637    9.1136   13.7199 C   0  0  0  0  0  0  0  0  0  0  0  0
   50.8894    9.2449   12.2697 N   0  0  0  0  0  0  0  0  0  0  0  0
   49.6335    8.8064   11.6845 C   0  0  0  0  0  0  0  0  0  0  0  0
   48.9942   10.6575   14.5059 C   0  0  0  0  0  0  0  0  0  0  0  0
   49.5313   11.0474   15.8800 C   0  0  0  0  0  0  0  0  0  0  0  0
   51.9998    9.3492   11.4686 C   0  0  0  0  0  0  0  0  0  0  0  0
   53.1647    9.6258   12.1317 N   0  0  0  0  0  0  0  0  0  0  0  0
   51.9628    9.1919   10.2525 O   0  0  0  0  0  0  0  0  0  0  0  0
   54.3992    9.8078   11.3630 C   0  0  0  0  0  0  0  0  0  0  0  0
   55.6640    9.8847   12.2103 C   0  0  0  0  0  0  0  0  0  0  0  0
   56.7445   10.1714   11.4523 F   0  0  0  0  0  0  0  0  0  0  0  0
   55.5526   10.8560   13.1471 F   0  0  0  0  0  0  0  0  0  0  0  0
   55.9075    8.7218   12.8536 F   0  0  0  0  0  0  0  0  0  0  0  0
   46.0560   14.2717   13.3320 N   0  0  0  0  0  0  0  0  0  0  0  0
   45.9320   13.4106   12.2839 C   0  0  0  0  0  0  0  0  0  0  0  0
   46.8076   12.4373   11.8419 C   0  0  0  0  0  0  0  0  0  0  0  0
   48.0043   12.3068   12.5716 N   0  0  0  0  0  0  0  0  0  0  0  0
   48.1857   13.1476   13.6509 C   0  0  0  0  0  0  0  0  0  0  0  0
   47.1766   14.1296   13.9993 C   0  0  0  0  0  0  0  0  0  0  0  0
   46.2510   11.7901   10.7281 C   0  0  0  0  0  0  0  0  0  0  0  0
   45.0276   12.3976   10.5063 C   0  0  0  0  0  0  0  0  0  0  0  0
   44.8460   13.3800   11.4550 N   0  0  0  0  0  0  0  0  0  0  0  0
   49.3272   12.9329   14.2645 N   0  0  0  0  0  0  0  0  0  0  0  0
   49.9124   11.9199   13.5464 C   0  0  0  0  0  0  0  0  0  0  0  0
   49.1165   11.4965   12.4889 C   0  0  0  0  0  0  0  0  0  0  0  0
   49.3383   10.4310   11.4528 C   0  0  2  0  0  0  0  0  0  0  0  0
   49.0031    8.9986   11.9326 C   0  0  1  0  0  0  0  0  0  0  0  0
   50.2884    8.5474   12.6351 C   0  0  0  0  0  0  0  0  0  0  0  0
   51.3552    9.2691   11.9580 N   0  0  0  0  0  0  0  0  0  0  0  0
   50.8201   10.2836   11.0617 C   0  0  0  0  0  0  0  0  0  0  0  0
   47.7382    8.8353   12.7796 C   0  0  0  0  0  0  0  0  0  0  0  0
   47.4517    7.3798   13.1245 C   0  0  0  0  0  0  0  0  0  0  0  0
   52.6951    8.9837   11.9623 C   0  0  0  0  0  0  0  0  0  0  0  0
   53.0684    8.0012   12.8394 N   0  0  0  0  0  0  0  0  0  0  0  0
   53.4990    9.5431   11.2239 O   0  0  0  0  0  0  0  0  0  0  0  0
   54.4873    7.6817   13.0044 C   0  0  0  0  0  0  0  0  0  0  0  0
   55.2738    8.6432   13.8993 C   0  0  0  0  0  0  0  0  0  0  0  0
   54.6839    8.7359   15.1172 F   0  0  0  0  0  0  0  0  0  0  0  0
   56.5303    8.1800   14.1007 F   0  0  0  0  0  0  0  0  0  0  0  0
   55.3697    9.8872   13.3944 F   0  0  0  0  0  0  0  0  0  0  0  0
   48.8322   10.3755   12.3494 H   0  0  0  0  0  0  0  0  0  0  0  0
   50.1449    9.6527   12.6445 H   0  0  0  0  0  0  0  0  0  0  0  0
   43.2688   10.5716   11.6411 H   0  0  0  0  0  0  0  0  0  0  0  0
   49.3053   11.5720   11.5389 H   0  0  0  0  0  0  0  0  0  0  0  0
   48.6877   13.9111   10.3497 H   0  0  0  0  0  0  0  0  0  0  0  0
   46.1731   14.0091   10.1286 H   0  0  0  0  0  0  0  0  0  0  0  0
   46.2130    7.1731   13.5066 H   0  0  0  0  0  0  0  0  0  0  0  0
   48.7025    7.5336   13.0467 H   0  0  0  0  0  0  0  0  0  0  0  0
   49.1833    8.5802   14.9732 H   0  0  0  0  0  0  0  0  0  0  0  0
   51.2556    8.1180   13.9627 H   0  0  0  0  0  0  0  0  0  0  0  0
   51.5032    9.8581   14.1986 H   0  0  0  0  0  0  0  0  0  0  0  0
   49.8024    7.8477   11.1765 H   0  0  0  0  0  0  0  0  0  0  0  0
   49.3102    9.5052   10.9132 H   0  0  0  0  0  0  0  0  0  0  0  0
   47.9053   10.7604   14.5463 H   0  0  0  0  0  0  0  0  0  0  0  0
   49.3728   11.3790   13.7784 H   0  0  0  0  0  0  0  0  0  0  0  0
   49.1642   10.3647   16.6532 H   0  0  0  0  0  0  0  0  0  0  0  0
   50.6243   11.0403   15.9072 H   0  0  0  0  0  0  0  0  0  0  0  0
   49.1983   12.0583   16.1377 H   0  0  0  0  0  0  0  0  0  0  0  0
   53.0555   10.2344   12.9305 H   0  0  0  0  0  0  0  0  0  0  0  0
   54.2859   10.7352   10.7890 H   0  0  0  0  0  0  0  0  0  0  0  0
   54.4859    8.9838   10.6457 H   0  0  0  0  0  0  0  0  0  0  0  0
   47.3670   14.7825   14.8662 H   0  0  0  0  0  0  0  0  0  0  0  0
   46.6519   10.9793   10.1370 H   0  0  0  0  0  0  0  0  0  0  0  0
   44.2678   12.2177    9.7573 H   0  0  0  0  0  0  0  0  0  0  0  0
   44.0450   13.9901   11.5424 H   0  0  0  0  0  0  0  0  0  0  0  0
   50.8894   11.5422   13.8267 H   0  0  0  0  0  0  0  0  0  0  0  0
   48.7775   10.6807   10.5488 H   0  0  0  0  0  0  0  0  0  0  0  0
   48.8885    8.3818   11.0280 H   0  0  0  0  0  0  0  0  0  0  0  0
   50.3066    8.8309   13.6929 H   0  0  0  0  0  0  0  0  0  0  0  0
   50.4467    7.4675   12.5538 H   0  0  0  0  0  0  0  0  0  0  0  0
   50.9117    9.8915   10.0414 H   0  0  0  0  0  0  0  0  0  0  0  0
   51.4028   11.2085   11.1277 H   0  0  0  0  0  0  0  0  0  0  0  0
   46.8794    9.2353   12.2296 H   0  0  0  0  0  0  0  0  0  0  0  0
   47.8177    9.4013   13.7148 H   0  0  0  0  0  0  0  0  0  0  0  0
   46.5095    7.3038   13.6766 H   0  0  0  0  0  0  0  0  0  0  0  0
   48.2424    6.9558   13.7512 H   0  0  0  0  0  0  0  0  0  0  0  0
   47.3645    6.7703   12.2194 H   0  0  0  0  0  0  0  0  0  0  0  0
   52.4910    7.9166   13.6628 H   0  0  0  0  0  0  0  0  0  0  0  0
   54.5220    6.6781   13.4409 H   0  0  0  0  0  0  0  0  0  0  0  0
   54.9569    7.6326   12.0161 H   0  0  0  0  0  0  0  0  0  0  0  0
  2  3  1  0
  4  5  1  0
  6  7  1  0
  7  2  2  0
  3 10  1  0
  3  4  2  0
  4  8  1  0
  8  9  2  0
  9 10  1  0
  5 13  1  0
  5  6  1  0
  6 11  2  0
 11 12  1  0
 12 13  2  0
 14 13  1  0
 14 15  1  0
 14 18  1  0
 15 16  1  0
 16 17  1  0
 17 18  1  0
 15 19  1  0
 19 20  1  0
 17 21  1  0
 21 22  1  0
 21 23  2  0
 22 24  1  0
 24 25  1  0
 25 26  1  0
 25 27  1  0
 25 28  1  0
 29 30  1  0
 31 32  1  0
 33 34  1  0
 34 29  2  0
 30 37  1  0
 30 31  2  0
 31 35  1  0
 35 36  2  0
 36 37  1  0
 32 40  1  0
 32 33  1  0
 33 38  2  0
 38 39  1  0
 39 40  2  0
 41 40  1  0
 41 42  1  0
 41 45  1  0
 42 43  1  0
 43 44  1  0
 44 45  1  0
 42 46  1  0
 46 47  1  0
 44 48  1  0
 48 49  1  0
 48 50  2  0
 49 51  1  0
 51 52  1  0
 52 53  1  0
 52 54  1  0
 52 55  1  0
  1 56  1  0
  1 57  1  0
  7 58  1  0
  8 59  1  0
  9 60  1  0
 10 61  1  0
 12 62  1  0
 14 63  1  1
 15 64  1  1
 16 65  1  0
 16 66  1  0
 18 67  1  0
 18 68  1  0
 19 69  1  0
 19 70  1  0
 20 71  1  0
 20 72  1  0
 20 73  1  0
 22 74  1  0
 24 75  1  0
 24 76  1  0
 34 77  1  0
 35 78  1  0
 36 79  1  0
 37 80  1  0
 39 81  1  0
 41 82  1  6
 42 83  1  6
 43 84  1  0
 43 85  1  0
 45 86  1  0
 45 87  1  0
 46 88  1  0
 46 89  1  0
 47 90  1  0
 47 91  1  0
 47 92  1  0
 49 93  1  0
 51 94  1  0
 51 95  1  0
M  END
> <Uni-Dock RESULT> 
ENERGY=   -4.519  LOWER_BOUND=    4.613  UPPER_BOUND=    7.630
INTER + INTRA:          -4.519
INTER:                  -4.519
INTRA:                   0.000
UNBOUND:                 0.000

$$$$

     RDKit          3D

 95100  0  0  0  0  0  0  0  0999 V2000
   49.7086    9.7495   17.9846 O   0  0  0  0  0  0  0  0  0  0  0  0
   51.4898   12.8104   22.1282 N   0  0  0  0  0  0  0  0  0  0  0  0
   51.6749   12.1945   20.9289 C   0  0  0  0  0  0  0  0  0  0  0  0
   50.7452   11.6183   20.0793 C   0  0  0  0  0  0  0  0  0  0  0  0
   49.3976   11.6718   20.5037 N   0  0  0  0  0  0  0  0  0  0  0  0
   49.1568   12.2783   21.7270 C   0  0  0  0  0  0  0  0  0  0  0  0
   50.2378   12.8422   22.5105 C   0  0  0  0  0  0  0  0  0  0  0  0
   51.4288   11.0975   18.9679 C   0  0  0  0  0  0  0  0  0  0  0  0
   52.7690   11.3801   19.1606 C   0  0  0  0  0  0  0  0  0  0  0  0
   52.9052   12.0482   20.3538 N   0  0  0  0  0  0  0  0  0  0  0  0
   47.8880   12.2640   22.0625 N   0  0  0  0  0  0  0  0  0  0  0  0
   47.2745   11.6323   21.0193 C   0  0  0  0  0  0  0  0  0  0  0  0
   48.1685   11.2532   20.0232 C   0  0  0  0  0  0  0  0  0  0  0  0
   47.8153   10.5640   18.7459 C   0  0  2  0  0  0  0  0  0  0  0  0
   47.9827    9.0274   18.6915 C   0  0  1  0  0  0  0  0  0  0  0  0
   48.0260    8.7684   17.1791 C   0  0  0  0  0  0  0  0  0  0  0  0
   48.6290    9.9635   16.6057 N   0  0  0  0  0  0  0  0  0  0  0  0
   48.3912   11.1230   17.4490 C   0  0  0  0  0  0  0  0  0  0  0  0
   49.1981    8.4260   19.4163 C   0  0  0  0  0  0  0  0  0  0  0  0
   49.1197    6.9060   19.5278 C   0  0  0  0  0  0  0  0  0  0  0  0
   49.0071   10.1533   15.2992 C   0  0  0  0  0  0  0  0  0  0  0  0
   49.0651    9.0129   14.5448 N   0  0  0  0  0  0  0  0  0  0  0  0
   49.2596   11.2589   14.8312 O   0  0  0  0  0  0  0  0  0  0  0  0
   49.5075    9.0999   13.1502 C   0  0  0  0  0  0  0  0  0  0  0  0
   49.3176    7.8180   12.3474 C   0  0  0  0  0  0  0  0  0  0  0  0
   49.8533    7.9298   11.1126 F   0  0  0  0  0  0  0  0  0  0  0  0
   49.9235    6.7752   12.9629 F   0  0  0  0  0  0  0  0  0  0  0  0
   48.0110    7.5056   12.2043 F   0  0  0  0  0  0  0  0  0  0  0  0
   52.9567    9.6062   22.1646 N   0  0  0  0  0  0  0  0  0  0  0  0
   52.4883   10.8111   21.7355 C   0  0  0  0  0  0  0  0  0  0  0  0
   51.7276   11.1085   20.6210 C   0  0  0  0  0  0  0  0  0  0  0  0
   51.3799   10.0173   19.8025 N   0  0  0  0  0  0  0  0  0  0  0  0
   51.8195    8.7674   20.1887 C   0  0  0  0  0  0  0  0  0  0  0  0
   52.6176    8.6040   21.3890 C   0  0  0  0  0  0  0  0  0  0  0  0
   51.4769   12.4889   20.5908 C   0  0  0  0  0  0  0  0  0  0  0  0
   52.1068   13.0151   21.7049 C   0  0  0  0  0  0  0  0  0  0  0  0
   52.7184   11.9883   22.3904 N   0  0  0  0  0  0  0  0  0  0  0  0
   51.4299    7.8239   19.3620 N   0  0  0  0  0  0  0  0  0  0  0  0
   50.7189    8.4919   18.3965 C   0  0  0  0  0  0  0  0  0  0  0  0
   50.6575    9.8588   18.6391 C   0  0  0  0  0  0  0  0  0  0  0  0
   49.9970   10.9681   17.8703 C   0  0  2  0  0  0  0  0  0  0  0  0
   48.4821   11.1187   18.1472 C   0  0  1  0  0  0  0  0  0  0  0  0
   47.8419   10.1078   17.1894 C   0  0  0  0  0  0  0  0  0  0  0  0
   48.7611   10.0280   16.0643 N   0  0  0  0  0  0  0  0  0  0  0  0
   50.0072   10.7239   16.3502 C   0  0  0  0  0  0  0  0  0  0  0  0
   48.0310   10.9718   19.6029 C   0  0  0  0  0  0  0  0  0  0  0  0
   46.5395   11.2244   19.7792 C   0  0  0  0  0  0  0  0  0  0  0  0
   48.5086    9.5447   14.8075 C   0  0  0  0  0  0  0  0  0  0  0  0
   47.2968    8.9239   14.6656 N   0  0  0  0  0  0  0  0  0  0  0  0
   49.2913    9.6757   13.8723 O   0  0  0  0  0  0  0  0  0  0  0  0
   46.9601    8.2794   13.3952 C   0  0  0  0  0  0  0  0  0  0  0  0
   47.5830    6.8978   13.1782 C   0  0  0  0  0  0  0  0  0  0  0  0
   47.2602    6.0734   14.2058 F   0  0  0  0  0  0  0  0  0  0  0  0
   47.0963    6.3327   12.0477 F   0  0  0  0  0  0  0  0  0  0  0  0
   48.9250    6.9248   13.0801 F   0  0  0  0  0  0  0  0  0  0  0  0
   49.6417   10.4279   18.6734 H   0  0  0  0  0  0  0  0  0  0  0  0
   48.8800    9.8350   17.4897 H   0  0  0  0  0  0  0  0  0  0  0  0
   49.9847   13.3181   23.4714 H   0  0  0  0  0  0  0  0  0  0  0  0
   51.0450   10.5725   18.1059 H   0  0  0  0  0  0  0  0  0  0  0  0
   53.6370   11.1649   18.5511 H   0  0  0  0  0  0  0  0  0  0  0  0
   53.7681   12.3835   20.7600 H   0  0  0  0  0  0  0  0  0  0  0  0
   46.2014   11.4783   21.0219 H   0  0  0  0  0  0  0  0  0  0  0  0
   46.7274   10.7199   18.6371 H   0  0  0  0  0  0  0  0  0  0  0  0
   47.0858    8.5564   19.1156 H   0  0  0  0  0  0  0  0  0  0  0  0
   47.0114    8.6880   16.7691 H   0  0  0  0  0  0  0  0  0  0  0  0
   48.5793    7.8695   16.8992 H   0  0  0  0  0  0  0  0  0  0  0  0
   47.6564   11.7699   16.9517 H   0  0  0  0  0  0  0  0  0  0  0  0
   49.3010   11.7154   17.5443 H   0  0  0  0  0  0  0  0  0  0  0  0
   49.2670    8.8190   20.4355 H   0  0  0  0  0  0  0  0  0  0  0  0
   50.1244    8.6789   18.8957 H   0  0  0  0  0  0  0  0  0  0  0  0
   48.2151    6.5978   20.0619 H   0  0  0  0  0  0  0  0  0  0  0  0
   49.1190    6.4251   18.5459 H   0  0  0  0  0  0  0  0  0  0  0  0
   49.9842    6.5277   20.0834 H   0  0  0  0  0  0  0  0  0  0  0  0
   49.3743    8.1943   15.0493 H   0  0  0  0  0  0  0  0  0  0  0  0
   50.5708    9.3673   13.1671 H   0  0  0  0  0  0  0  0  0  0  0  0
   48.9678    9.9214   12.6656 H   0  0  0  0  0  0  0  0  0  0  0  0
   52.9503    7.5878   21.6551 H   0  0  0  0  0  0  0  0  0  0  0  0
   50.9123   13.0661   19.8728 H   0  0  0  0  0  0  0  0  0  0  0  0
   52.1740   14.0304   22.0727 H   0  0  0  0  0  0  0  0  0  0  0  0
   53.2543   12.0708   23.2432 H   0  0  0  0  0  0  0  0  0  0  0  0
   50.2832    7.9515   17.5635 H   0  0  0  0  0  0  0  0  0  0  0  0
   50.5235   11.9064   18.0614 H   0  0  0  0  0  0  0  0  0  0  0  0
   48.1970   12.1247   17.8029 H   0  0  0  0  0  0  0  0  0  0  0  0
   47.7604    9.1090   17.6313 H   0  0  0  0  0  0  0  0  0  0  0  0
   46.8516   10.4287   16.8512 H   0  0  0  0  0  0  0  0  0  0  0  0
   49.9753   11.6764   15.8071 H   0  0  0  0  0  0  0  0  0  0  0  0
   50.8664   10.1501   15.9868 H   0  0  0  0  0  0  0  0  0  0  0  0
   48.5785   11.6874   20.2261 H   0  0  0  0  0  0  0  0  0  0  0  0
   48.2576    9.9693   19.9835 H   0  0  0  0  0  0  0  0  0  0  0  0
   46.2727   11.1693   20.8394 H   0  0  0  0  0  0  0  0  0  0  0  0
   45.9433   10.4787   19.2444 H   0  0  0  0  0  0  0  0  0  0  0  0
   46.2620   12.2172   19.4108 H   0  0  0  0  0  0  0  0  0  0  0  0
   46.9372    8.4849   15.5002 H   0  0  0  0  0  0  0  0  0  0  0  0
   45.8693    8.1854   13.3841 H   0  0  0  0  0  0  0  0  0  0  0  0
   47.2465    8.9446   12.5735 H   0  0  0  0  0  0  0  0  0  0  0  0
  2  3  1  0
  4  5  1  0
  6  7  1  0
  7  2  2  0
  3 10  1  0
  3  4  2  0
  4  8  1  0
  8  9  2  0
  9 10  1  0
  5 13  1  0
  5  6  1  0
  6 11  2  0
 11 12  1  0
 12 13  2  0
 14 13  1  0
 14 15  1  0
 14 18  1  0
 15 16  1  0
 16 17  1  0
 17 18  1  0
 15 19  1  0
 19 20  1  0
 17 21  1  0
 21 22  1  0
 21 23  2  0
 22 24  1  0
 24 25  1  0
 25 26  1  0
 25 27  1  0
 25 28  1  0
 29 30  1  0
 31 32  1  0
 33 34  1  0
 34 29  2  0
 30 37  1  0
 30 31  2  0
 31 35  1  0
 35 36  2  0
 36 37  1  0
 32 40  1  0
 32 33  1  0
 33 38  2  0
 38 39  1  0
 39 40  2  0
 41 40  1  0
 41 42  1  0
 41 45  1  0
 42 43  1  0
 43 44  1  0
 44 45  1  0
 42 46  1  0
 46 47  1  0
 44 48  1  0
 48 49  1  0
 48 50  2  0
 49 51  1  0
 51 52  1  0
 52 53  1  0
 52 54  1  0
 52 55  1  0
  1 56  1  0
  1 57  1  0
  7 58  1  0
  8 59  1  0
  9 60  1  0
 10 61  1  0
 12 62  1  0
 14 63  1  1
 15 64  1  1
 16 65  1  0
 16 66  1  0
 18 67  1  0
 18 68  1  0
 19 69  1  0
 19 70  1  0
 20 71  1  0
 20 72  1  0
 20 73  1  0
 22 74  1  0
 24 75  1  0
 24 76  1  0
 34 77  1  0
 35 78  1  0
 36 79  1  0
 37 80  1  0
 39 81  1  0
 41 82  1  6
 42 83  1  6
 43 84  1  0
 43 85  1  0
 45 86  1  0
 45 87  1  0
 46 88  1  0
 46 89  1  0
 47 90  1  0
 47 91  1  0
 47 92  1  0
 49 93  1  0
 51 94  1  0
 51 95  1  0
M  END
> <Uni-Dock RESULT> 
ENERGY=   -4.431  LOWER_BOUND=    4.027  UPPER_BOUND=    7.143
INTER + INTRA:          -4.431
INTER:                  -4.431
INTRA:                   0.000
UNBOUND:                 0.000

$$$$

     RDKit          3D

 95100  0  0  0  0  0  0  0  0999 V2000
   50.3311    7.7768   17.2047 O   0  0  0  0  0  0  0  0  0  0  0  0
   52.5842    9.0064   12.3961 N   0  0  0  0  0  0  0  0  0  0  0  0
   52.6646    8.8087   13.7401 C   0  0  0  0  0  0  0  0  0  0  0  0
   51.7397    8.2516   14.6076 C   0  0  0  0  0  0  0  0  0  0  0  0
   50.5268    7.8146   14.0270 N   0  0  0  0  0  0  0  0  0  0  0  0
   50.3897    8.0056   12.6606 C   0  0  0  0  0  0  0  0  0  0  0  0
   51.4511    8.6052   11.8767 C   0  0  0  0  0  0  0  0  0  0  0  0
   52.2798    8.2813   15.9042 C   0  0  0  0  0  0  0  0  0  0  0  0
   53.5362    8.8496   15.7958 C   0  0  0  0  0  0  0  0  0  0  0  0
   53.7588    9.1635   14.4766 N   0  0  0  0  0  0  0  0  0  0  0  0
   49.2286    7.5997   12.2028 N   0  0  0  0  0  0  0  0  0  0  0  0
   48.5846    7.1193   13.3065 C   0  0  0  0  0  0  0  0  0  0  0  0
   49.3529    7.2230   14.4615 C   0  0  0  0  0  0  0  0  0  0  0  0
   48.9478    6.7703   15.8260 C   0  0  2  0  0  0  0  0  0  0  0  0
   48.3750    7.8333   16.7924 C   0  0  1  0  0  0  0  0  0  0  0  0
   48.5571    7.1510   18.1554 C   0  0  0  0  0  0  0  0  0  0  0  0
   49.7443    6.3204   18.0093 N   0  0  0  0  0  0  0  0  0  0  0  0
   49.9386    5.9283   16.6234 C   0  0  0  0  0  0  0  0  0  0  0  0
   49.0113    9.2326   16.7565 C   0  0  0  0  0  0  0  0  0  0  0  0
   48.2049   10.2625   17.5424 C   0  0  0  0  0  0  0  0  0  0  0  0
   50.3914    5.6217   18.9987 C   0  0  0  0  0  0  0  0  0  0  0  0
   50.0353    5.9662   20.2745 N   0  0  0  0  0  0  0  0  0  0  0  0
   51.2151    4.7428   18.7659 O   0  0  0  0  0  0  0  0  0  0  0  0
   50.7047    5.3153   21.4042 C   0  0  0  0  0  0  0  0  0  0  0  0
   50.0763    5.6061   22.7622 C   0  0  0  0  0  0  0  0  0  0  0  0
   50.8098    5.0760   23.7647 F   0  0  0  0  0  0  0  0  0  0  0  0
   49.9972    6.9410   22.9754 F   0  0  0  0  0  0  0  0  0  0  0  0
   48.8261    5.1023   22.8537 F   0  0  0  0  0  0  0  0  0  0  0  0
   52.3279   11.8463   14.4671 N   0  0  0  0  0  0  0  0  0  0  0  0
   52.5696   10.5783   14.0323 C   0  0  0  0  0  0  0  0  0  0  0  0
   52.2507    9.3727   14.6275 C   0  0  0  0  0  0  0  0  0  0  0  0
   51.5790    9.4530   15.8620 N   0  0  0  0  0  0  0  0  0  0  0  0
   51.2989   10.7121   16.3527 C   0  0  0  0  0  0  0  0  0  0  0  0
   51.6982   11.8967   15.6168 C   0  0  0  0  0  0  0  0  0  0  0  0
   52.6927    8.3239   13.8066 C   0  0  0  0  0  0  0  0  0  0  0  0
   53.2884    8.9229   12.7106 C   0  0  0  0  0  0  0  0  0  0  0  0
   53.2093   10.2903   12.8595 N   0  0  0  0  0  0  0  0  0  0  0  0
   50.6623   10.6700   17.5009 N   0  0  0  0  0  0  0  0  0  0  0  0
   50.5354    9.3298   17.7689 C   0  0  0  0  0  0  0  0  0  0  0  0
   51.0862    8.5385   16.7682 C   0  0  0  0  0  0  0  0  0  0  0  0
   51.1768    7.0450   16.6298 C   0  0  2  0  0  0  0  0  0  0  0  0
   49.8916    6.3783   16.0838 C   0  0  1  0  0  0  0  0  0  0  0  0
   49.0301    6.1845   17.3366 C   0  0  0  0  0  0  0  0  0  0  0  0
   49.9845    6.0284   18.4237 N   0  0  0  0  0  0  0  0  0  0  0  0
   51.3388    6.3326   17.9851 C   0  0  0  0  0  0  0  0  0  0  0  0
   49.1755    7.0999   14.9390 C   0  0  0  0  0  0  0  0  0  0  0  0
   47.9765    6.3190   14.4173 C   0  0  0  0  0  0  0  0  0  0  0  0
   49.7601    5.4999   19.6675 C   0  0  0  0  0  0  0  0  0  0  0  0
   48.4456    5.2458   19.9530 N   0  0  0  0  0  0  0  0  0  0  0  0
   50.6629    5.2488   20.4588 O   0  0  0  0  0  0  0  0  0  0  0  0
   48.0747    4.7754   21.2885 C   0  0  0  0  0  0  0  0  0  0  0  0
   47.9970    5.8608   22.3654 C   0  0  0  0  0  0  0  0  0  0  0  0
   47.1467    6.8438   21.9772 F   0  0  0  0  0  0  0  0  0  0  0  0
   47.5094    5.3468   23.5197 F   0  0  0  0  0  0  0  0  0  0  0  0
   49.1854    6.4306   22.6382 F   0  0  0  0  0  0  0  0  0  0  0  0
   50.4726    7.6950   16.2495 H   0  0  0  0  0  0  0  0  0  0  0  0
   49.7439    7.0365   17.4193 H   0  0  0  0  0  0  0  0  0  0  0  0
   51.2880    8.7249   10.7937 H   0  0  0  0  0  0  0  0  0  0  0  0
   51.8525    7.9453   16.8373 H   0  0  0  0  0  0  0  0  0  0  0  0
   54.2912    9.0561   16.5431 H   0  0  0  0  0  0  0  0  0  0  0  0
   54.5904    9.5913   14.0925 H   0  0  0  0  0  0  0  0  0  0  0  0
   47.5852    6.7073   13.2261 H   0  0  0  0  0  0  0  0  0  0  0  0
   48.1018    6.0822   15.6512 H   0  0  0  0  0  0  0  0  0  0  0  0
   47.3030    7.9586   16.5889 H   0  0  0  0  0  0  0  0  0  0  0  0
   47.7159    6.4800   18.3700 H   0  0  0  0  0  0  0  0  0  0  0  0
   48.6589    7.8481   18.9898 H   0  0  0  0  0  0  0  0  0  0  0  0
   49.6983    4.8612   16.5269 H   0  0  0  0  0  0  0  0  0  0  0  0
   50.9872    6.0292   16.3443 H   0  0  0  0  0  0  0  0  0  0  0  0
   49.0766    9.5952   15.7258 H   0  0  0  0  0  0  0  0  0  0  0  0
   50.0225    9.2095   17.1689 H   0  0  0  0  0  0  0  0  0  0  0  0
   47.1839   10.3403   17.1550 H   0  0  0  0  0  0  0  0  0  0  0  0
   48.1503   10.0121   18.6053 H   0  0  0  0  0  0  0  0  0  0  0  0
   48.6738   11.2483   17.4561 H   0  0  0  0  0  0  0  0  0  0  0  0
   49.8257    6.9465   20.3987 H   0  0  0  0  0  0  0  0  0  0  0  0
   51.7461    5.6590   21.4013 H   0  0  0  0  0  0  0  0  0  0  0  0
   50.7133    4.2340   21.2262 H   0  0  0  0  0  0  0  0  0  0  0  0
   51.4575   12.8809   16.0500 H   0  0  0  0  0  0  0  0  0  0  0  0
   52.6053    7.2570   13.9534 H   0  0  0  0  0  0  0  0  0  0  0  0
   53.7617    8.4976   11.8355 H   0  0  0  0  0  0  0  0  0  0  0  0
   53.5602   10.9860   12.2159 H   0  0  0  0  0  0  0  0  0  0  0  0
   50.0509    8.9959   18.6797 H   0  0  0  0  0  0  0  0  0  0  0  0
   52.0414    6.7889   16.0124 H   0  0  0  0  0  0  0  0  0  0  0  0
   50.1823    5.3785   15.7264 H   0  0  0  0  0  0  0  0  0  0  0  0
   48.4091    7.0600   17.5547 H   0  0  0  0  0  0  0  0  0  0  0  0
   48.3870    5.3020   17.2635 H   0  0  0  0  0  0  0  0  0  0  0  0
   51.8578    5.3748   17.8569 H   0  0  0  0  0  0  0  0  0  0  0  0
   51.8731    6.9138   18.7441 H   0  0  0  0  0  0  0  0  0  0  0  0
   49.8764    7.2506   14.1107 H   0  0  0  0  0  0  0  0  0  0  0  0
   48.8294    8.0902   15.2564 H   0  0  0  0  0  0  0  0  0  0  0  0
   47.5327    6.8399   13.5630 H   0  0  0  0  0  0  0  0  0  0  0  0
   47.2036    6.2158   15.1853 H   0  0  0  0  0  0  0  0  0  0  0  0
   48.2717    5.3177   14.0880 H   0  0  0  0  0  0  0  0  0  0  0  0
   47.7801    5.8452   19.4878 H   0  0  0  0  0  0  0  0  0  0  0  0
   47.0907    4.3073   21.1812 H   0  0  0  0  0  0  0  0  0  0  0  0
   48.7818    3.9990   21.5999 H   0  0  0  0  0  0  0  0  0  0  0  0
  2  3  1  0
  4  5  1  0
  6  7  1  0
  7  2  2  0
  3 10  1  0
  3  4  2  0
  4  8  1  0
  8  9  2  0
  9 10  1  0
  5 13  1  0
  5  6  1  0
  6 11  2  0
 11 12  1  0
 12 13  2  0
 14 13  1  0
 14 15  1  0
 14 18  1  0
 15 16  1  0
 16 17  1  0
 17 18  1  0
 15 19  1  0
 19 20  1  0
 17 21  1  0
 21 22  1  0
 21 23  2  0
 22 24  1  0
 24 25  1  0
 25 26  1  0
 25 27  1  0
 25 28  1  0
 29 30  1  0
 31 32  1  0
 33 34  1  0
 34 29  2  0
 30 37  1  0
 30 31  2  0
 31 35  1  0
 35 36  2  0
 36 37  1  0
 32 40  1  0
 32 33  1  0
 33 38  2  0
 38 39  1  0
 39 40  2  0
 41 40  1  0
 41 42  1  0
 41 45  1  0
 42 43  1  0
 43 44  1  0
 44 45  1  0
 42 46  1  0
 46 47  1  0
 44 48  1  0
 48 49  1  0
 48 50  2  0
 49 51  1  0
 51 52  1  0
 52 53  1  0
 52 54  1  0
 52 55  1  0
  1 56  1  0
  1 57  1  0
  7 58  1  0
  8 59  1  0
  9 60  1  0
 10 61  1  0
 12 62  1  0
 14 63  1  1
 15 64  1  1
 16 65  1  0
 16 66  1  0
 18 67  1  0
 18 68  1  0
 19 69  1  0
 19 70  1  0
 20 71  1  0
 20 72  1  0
 20 73  1  0
 22 74  1  0
 24 75  1  0
 24 76  1  0
 34 77  1  0
 35 78  1  0
 36 79  1  0
 37 80  1  0
 39 81  1  0
 41 82  1  6
 42 83  1  6
 43 84  1  0
 43 85  1  0
 45 86  1  0
 45 87  1  0
 46 88  1  0
 46 89  1  0
 47 90  1  0
 47 91  1  0
 47 92  1  0
 49 93  1  0
 51 94  1  0
 51 95  1  0
M  END
> <Uni-Dock RESULT> 
ENERGY=   -4.429  LOWER_BOUND=    3.790  UPPER_BOUND=    6.709
INTER + INTRA:          -4.429
INTER:                  -4.429
INTRA:                   0.000
UNBOUND:                 0.000

$$$$

     RDKit          3D

 95100  0  0  0  0  0  0  0  0999 V2000
   49.7252   10.3202   16.1752 O   0  0  0  0  0  0  0  0  0  0  0  0
   46.7441   11.8093   20.4886 N   0  0  0  0  0  0  0  0  0  0  0  0
   47.3423   12.0787   19.2964 C   0  0  0  0  0  0  0  0  0  0  0  0
   47.8978   11.2108   18.3711 C   0  0  0  0  0  0  0  0  0  0  0  0
   47.8408    9.8358   18.6954 N   0  0  0  0  0  0  0  0  0  0  0  0
   47.2519    9.5090   19.9073 C   0  0  0  0  0  0  0  0  0  0  0  0
   46.7087   10.5326   20.7778 C   0  0  0  0  0  0  0  0  0  0  0  0
   48.4062   11.9715   17.3049 C   0  0  0  0  0  0  0  0  0  0  0  0
   48.1370   13.2956   17.6008 C   0  0  0  0  0  0  0  0  0  0  0  0
   47.4890   13.3473   18.8116 N   0  0  0  0  0  0  0  0  0  0  0  0
   47.2617    8.2187   20.1477 N   0  0  0  0  0  0  0  0  0  0  0  0
   47.8721    7.6801   19.0518 C   0  0  0  0  0  0  0  0  0  0  0  0
   48.2422    8.6430   18.1185 C   0  0  0  0  0  0  0  0  0  0  0  0
   48.9084    8.3810   16.8075 C   0  0  2  0  0  0  0  0  0  0  0  0
   50.4452    8.5421   16.7405 C   0  0  1  0  0  0  0  0  0  0  0  0
   50.6806    8.6956   15.2314 C   0  0  0  0  0  0  0  0  0  0  0  0
   49.4811    9.3472   14.7238 N   0  0  0  0  0  0  0  0  0  0  0  0
   48.3334    9.0550   15.5660 C   0  0  0  0  0  0  0  0  0  0  0  0
   51.0673    9.6965   17.5433 C   0  0  0  0  0  0  0  0  0  0  0  0
   52.5882    9.6002   17.6238 C   0  0  0  0  0  0  0  0  0  0  0  0
   49.2736    9.8223   13.4522 C   0  0  0  0  0  0  0  0  0  0  0  0
   50.4023    9.9286   12.6855 N   0  0  0  0  0  0  0  0  0  0  0  0
   48.1627   10.1159   13.0223 O   0  0  0  0  0  0  0  0  0  0  0  0
   50.2966   10.4737   11.3291 C   0  0  0  0  0  0  0  0  0  0  0  0
   51.5641   10.3355   10.4936 C   0  0  0  0  0  0  0  0  0  0  0  0
   51.4369   10.9619    9.3038 F   0  0  0  0  0  0  0  0  0  0  0  0
   52.6212   10.8874   11.1351 F   0  0  0  0  0  0  0  0  0  0  0  0
   51.8642    9.0411   10.2491 F   0  0  0  0  0  0  0  0  0  0  0  0
   49.9596   13.2487   20.5810 N   0  0  0  0  0  0  0  0  0  0  0  0
   48.7445   12.8211   20.1383 C   0  0  0  0  0  0  0  0  0  0  0  0
   48.4237   12.1470   18.9755 C   0  0  0  0  0  0  0  0  0  0  0  0
   49.4990   11.8539   18.1158 N   0  0  0  0  0  0  0  0  0  0  0  0
   50.7583   12.2556   18.5130 C   0  0  0  0  0  0  0  0  0  0  0  0
   50.9468   12.9615   19.7662 C   0  0  0  0  0  0  0  0  0  0  0  0
   47.0411   11.9082   18.9495 C   0  0  0  0  0  0  0  0  0  0  0  0
   46.5375   12.4573   20.1156 C   0  0  0  0  0  0  0  0  0  0  0  0
   47.5796   13.0097   20.8275 N   0  0  0  0  0  0  0  0  0  0  0  0
   51.6856   11.9222   17.6444 N   0  0  0  0  0  0  0  0  0  0  0  0
   50.9969   11.2890   16.6400 C   0  0  0  0  0  0  0  0  0  0  0  0
   49.6336   11.2187   16.8997 C   0  0  0  0  0  0  0  0  0  0  0  0
   48.5072   10.6242   16.1024 C   0  0  2  0  0  0  0  0  0  0  0  0
   48.3494    9.0939   16.2689 C   0  0  1  0  0  0  0  0  0  0  0  0
   49.3400    8.5199   15.2499 C   0  0  0  0  0  0  0  0  0  0  0  0
   49.4091    9.5194   14.1948 N   0  0  0  0  0  0  0  0  0  0  0  0
   48.7274   10.7454   14.5835 C   0  0  0  0  0  0  0  0  0  0  0  0
   48.5159    8.5353   17.6847 C   0  0  0  0  0  0  0  0  0  0  0  0
   48.2547    7.0365   17.7543 C   0  0  0  0  0  0  0  0  0  0  0  0
   49.8705    9.3576   12.9151 C   0  0  0  0  0  0  0  0  0  0  0  0
   50.4796    8.1557   12.6737 N   0  0  0  0  0  0  0  0  0  0  0  0
   49.7307   10.2083   12.0426 O   0  0  0  0  0  0  0  0  0  0  0  0
   51.1013    7.9099   11.3715 C   0  0  0  0  0  0  0  0  0  0  0  0
   52.4840    8.5381   11.1786 C   0  0  0  0  0  0  0  0  0  0  0  0
   53.3222    8.1348   12.1659 F   0  0  0  0  0  0  0  0  0  0  0  0
   53.0275    8.1330   10.0061 F   0  0  0  0  0  0  0  0  0  0  0  0
   52.4658    9.8839   11.1805 F   0  0  0  0  0  0  0  0  0  0  0  0
   49.0574   10.2068   16.8681 H   0  0  0  0  0  0  0  0  0  0  0  0
   49.6255    9.5311   15.6217 H   0  0  0  0  0  0  0  0  0  0  0  0
   46.2462   10.2121   21.7249 H   0  0  0  0  0  0  0  0  0  0  0  0
   48.9145   11.6492   16.4084 H   0  0  0  0  0  0  0  0  0  0  0  0
   48.3492   14.2049   17.0538 H   0  0  0  0  0  0  0  0  0  0  0  0
   47.1667   14.1798   19.2859 H   0  0  0  0  0  0  0  0  0  0  0  0
   48.0179    6.6089   18.9725 H   0  0  0  0  0  0  0  0  0  0  0  0
   48.7425    7.3052   16.6211 H   0  0  0  0  0  0  0  0  0  0  0  0
   50.9160    7.6131   17.0893 H   0  0  0  0  0  0  0  0  0  0  0  0
   50.7467    7.7137   14.7462 H   0  0  0  0  0  0  0  0  0  0  0  0
   51.5791    9.2623   14.9785 H   0  0  0  0  0  0  0  0  0  0  0  0
   47.6730    8.3633   15.0264 H   0  0  0  0  0  0  0  0  0  0  0  0
   47.7495    9.9591   15.7381 H   0  0  0  0  0  0  0  0  0  0  0  0
   50.6910    9.6922   18.5711 H   0  0  0  0  0  0  0  0  0  0  0  0
   50.8133   10.6604   17.0968 H   0  0  0  0  0  0  0  0  0  0  0  0
   52.8979    8.6566   18.0844 H   0  0  0  0  0  0  0  0  0  0  0  0
   53.0535    9.6691   16.6368 H   0  0  0  0  0  0  0  0  0  0  0  0
   52.9819   10.4187   18.2356 H   0  0  0  0  0  0  0  0  0  0  0  0
   51.2312   10.1943   13.1981 H   0  0  0  0  0  0  0  0  0  0  0  0
   50.0376   11.5345   11.4290 H   0  0  0  0  0  0  0  0  0  0  0  0
   49.4634    9.9767   10.8195 H   0  0  0  0  0  0  0  0  0  0  0  0
   51.9696   13.2669   20.0396 H   0  0  0  0  0  0  0  0  0  0  0  0
   46.4483   11.4021   18.2012 H   0  0  0  0  0  0  0  0  0  0  0  0
   45.5286   12.5035   20.5040 H   0  0  0  0  0  0  0  0  0  0  0  0
   47.5148   13.4815   21.7189 H   0  0  0  0  0  0  0  0  0  0  0  0
   51.5206   10.9128   15.7683 H   0  0  0  0  0  0  0  0  0  0  0  0
   47.5761   11.1411   16.3473 H   0  0  0  0  0  0  0  0  0  0  0  0
   47.3359    8.8417   15.9209 H   0  0  0  0  0  0  0  0  0  0  0  0
   50.3451    8.3995   15.6682 H   0  0  0  0  0  0  0  0  0  0  0  0
   49.0063    7.5595   14.8448 H   0  0  0  0  0  0  0  0  0  0  0  0
   47.7662   10.7599   14.0551 H   0  0  0  0  0  0  0  0  0  0  0  0
   49.3019   11.6254   14.2753 H   0  0  0  0  0  0  0  0  0  0  0  0
   47.8144    9.0397   18.3583 H   0  0  0  0  0  0  0  0  0  0  0  0
   49.5260    8.7265   18.0645 H   0  0  0  0  0  0  0  0  0  0  0  0
   48.3245    6.6915   18.7908 H   0  0  0  0  0  0  0  0  0  0  0  0
   48.9872    6.4767   17.1646 H   0  0  0  0  0  0  0  0  0  0  0  0
   47.2541    6.7934   17.3826 H   0  0  0  0  0  0  0  0  0  0  0  0
   50.9290    7.7324   13.4722 H   0  0  0  0  0  0  0  0  0  0  0  0
   51.1868    6.8223   11.2782 H   0  0  0  0  0  0  0  0  0  0  0  0
   50.4254    8.2607   10.5842 H   0  0  0  0  0  0  0  0  0  0  0  0
  2  3  1  0
  4  5  1  0
  6  7  1  0
  7  2  2  0
  3 10  1  0
  3  4  2  0
  4  8  1  0
  8  9  2  0
  9 10  1  0
  5 13  1  0
  5  6  1  0
  6 11  2  0
 11 12  1  0
 12 13  2  0
 14 13  1  0
 14 15  1  0
 14 18  1  0
 15 16  1  0
 16 17  1  0
 17 18  1  0
 15 19  1  0
 19 20  1  0
 17 21  1  0
 21 22  1  0
 21 23  2  0
 22 24  1  0
 24 25  1  0
 25 26  1  0
 25 27  1  0
 25 28  1  0
 29 30  1  0
 31 32  1  0
 33 34  1  0
 34 29  2  0
 30 37  1  0
 30 31  2  0
 31 35  1  0
 35 36  2  0
 36 37  1  0
 32 40  1  0
 32 33  1  0
 33 38  2  0
 38 39  1  0
 39 40  2  0
 41 40  1  0
 41 42  1  0
 41 45  1  0
 42 43  1  0
 43 44  1  0
 44 45  1  0
 42 46  1  0
 46 47  1  0
 44 48  1  0
 48 49  1  0
 48 50  2  0
 49 51  1  0
 51 52  1  0
 52 53  1  0
 52 54  1  0
 52 55  1  0
  1 56  1  0
  1 57  1  0
  7 58  1  0
  8 59  1  0
  9 60  1  0
 10 61  1  0
 12 62  1  0
 14 63  1  1
 15 64  1  1
 16 65  1  0
 16 66  1  0
 18 67  1  0
 18 68  1  0
 19 69  1  0
 19 70  1  0
 20 71  1  0
 20 72  1  0
 20 73  1  0
 22 74  1  0
 24 75  1  0
 24 76  1  0
 34 77  1  0
 35 78  1  0
 36 79  1  0
 37 80  1  0
 39 81  1  0
 41 82  1  6
 42 83  1  6
 43 84  1  0
 43 85  1  0
 45 86  1  0
 45 87  1  0
 46 88  1  0
 46 89  1  0
 47 90  1  0
 47 91  1  0
 47 92  1  0
 49 93  1  0
 51 94  1  0
 51 95  1  0
M  END
> <Uni-Dock RESULT> 
ENERGY=   -4.408  LOWER_BOUND=    3.688  UPPER_BOUND=    6.476
INTER + INTRA:          -4.408
INTER:                  -4.408
INTRA:                   0.000
UNBOUND:                 0.000

$$$$
