
     RDKit          3D

 95100  0  0  0  0  0  0  0  0999 V2000
   48.9154    9.3741   17.5342 O   0  0  0  0  0  0  0  0  0  0  0  0
   49.0020   14.9576   14.8662 N   0  0  0  0  0  0  0  0  0  0  0  0
   49.1400   13.6682   14.4509 C   0  0  0  0  0  0  0  0  0  0  0  0
   48.9034   12.4952   15.1453 C   0  0  0  0  0  0  0  0  0  0  0  0
   48.4547   12.6410   16.4740 N   0  0  0  0  0  0  0  0  0  0  0  0
   48.2539   13.9262   16.9346 C   0  0  0  0  0  0  0  0  0  0  0  0
   48.5593   15.0679   16.0968 C   0  0  0  0  0  0  0  0  0  0  0  0
   49.1423   11.4042   14.2959 C   0  0  0  0  0  0  0  0  0  0  0  0
   49.5548   11.9426   13.0898 C   0  0  0  0  0  0  0  0  0  0  0  0
   49.5496   13.3135   13.1970 N   0  0  0  0  0  0  0  0  0  0  0  0
   47.7288   13.9425   18.1377 N   0  0  0  0  0  0  0  0  0  0  0  0
   47.6108   12.6153   18.4749 C   0  0  0  0  0  0  0  0  0  0  0  0
   48.1306   11.7713   17.5022 C   0  0  0  0  0  0  0  0  0  0  0  0
   48.2896   10.2880   17.4171 C   0  0  2  0  0  0  0  0  0  0  0  0
   47.7100    9.3856   18.5441 C   0  0  1  0  0  0  0  0  0  0  0  0
   48.2805    8.0228   18.0893 C   0  0  0  0  0  0  0  0  0  0  0  0
   49.6009    8.3438   17.5558 N   0  0  0  0  0  0  0  0  0  0  0  0
   49.7336    9.7774   17.3439 C   0  0  0  0  0  0  0  0  0  0  0  0
   48.1849    9.6785   19.9913 C   0  0  0  0  0  0  0  0  0  0  0  0
   47.4573    8.8314   21.0310 C   0  0  0  0  0  0  0  0  0  0  0  0
   50.6766    7.5102   17.3939 C   0  0  0  0  0  0  0  0  0  0  0  0
   50.4211    6.1907   17.6522 N   0  0  0  0  0  0  0  0  0  0  0  0
   51.7874    7.9086   17.0559 O   0  0  0  0  0  0  0  0  0  0  0  0
   51.4622    5.1830   17.4486 C   0  0  0  0  0  0  0  0  0  0  0  0
   51.1226    3.8119   18.0225 C   0  0  0  0  0  0  0  0  0  0  0  0
   50.9927    3.8453   19.3658 F   0  0  0  0  0  0  0  0  0  0  0  0
   49.9520    3.3604   17.5087 F   0  0  0  0  0  0  0  0  0  0  0  0
   52.0812    2.9086   17.7174 F   0  0  0  0  0  0  0  0  0  0  0  0
   48.7585   14.3704   19.8983 N   0  0  0  0  0  0  0  0  0  0  0  0
   49.8985   13.9856   19.2587 C   0  0  0  0  0  0  0  0  0  0  0  0
   50.1535   12.8288   18.5418 C   0  0  0  0  0  0  0  0  0  0  0  0
   49.0873   11.9107   18.4515 N   0  0  0  0  0  0  0  0  0  0  0  0
   47.9103   12.2444   19.0915 C   0  0  0  0  0  0  0  0  0  0  0  0
   47.7849   13.4945   19.8113 C   0  0  0  0  0  0  0  0  0  0  0  0
   51.4790   12.8689   18.0753 C   0  0  0  0  0  0  0  0  0  0  0  0
   52.0116   14.0631   18.5323 C   0  0  0  0  0  0  0  0  0  0  0  0
   51.0428   14.7316   19.2464 N   0  0  0  0  0  0  0  0  0  0  0  0
   46.9932   11.3113   18.9739 N   0  0  0  0  0  0  0  0  0  0  0  0
   47.6060   10.3259   18.2471 C   0  0  0  0  0  0  0  0  0  0  0  0
   48.8994   10.6735   17.8719 C   0  0  0  0  0  0  0  0  0  0  0  0
   49.9245    9.9106   17.0796 C   0  0  2  0  0  0  0  0  0  0  0  0
   49.4939    9.4969   15.6505 C   0  0  1  0  0  0  0  0  0  0  0  0
   48.7362    8.1808   15.8590 C   0  0  0  0  0  0  0  0  0  0  0  0
   49.2887    7.6200   17.0870 N   0  0  0  0  0  0  0  0  0  0  0  0
   50.2154    8.5440   17.7223 C   0  0  0  0  0  0  0  0  0  0  0  0
   48.7057   10.5247   14.8378 C   0  0  0  0  0  0  0  0  0  0  0  0
   49.5258   11.7601   14.5025 C   0  0  0  0  0  0  0  0  0  0  0  0
   48.8232    6.5274   17.7693 C   0  0  0  0  0  0  0  0  0  0  0  0
   47.9362    5.7456   17.0697 N   0  0  0  0  0  0  0  0  0  0  0  0
   49.1445    6.2689   18.9257 O   0  0  0  0  0  0  0  0  0  0  0  0
   47.4304    4.5406   17.7308 C   0  0  0  0  0  0  0  0  0  0  0  0
   48.4041    3.3549   17.8054 C   0  0  0  0  0  0  0  0  0  0  0  0
   48.1760    2.6019   18.9100 F   0  0  0  0  0  0  0  0  0  0  0  0
   48.2407    2.5450   16.7241 F   0  0  0  0  0  0  0  0  0  0  0  0
   49.6964    3.7311   17.8188 F   0  0  0  0  0  0  0  0  0  0  0  0
   48.9369   10.3282   17.6993 H   0  0  0  0  0  0  0  0  0  0  0  0
   49.5132    9.2558   16.7809 H   0  0  0  0  0  0  0  0  0  0  0  0
   48.3988   16.0714   16.5167 H   0  0  0  0  0  0  0  0  0  0  0  0
   49.0253   10.3456   14.4871 H   0  0  0  0  0  0  0  0  0  0  0  0
   49.8524   11.4665   12.1643 H   0  0  0  0  0  0  0  0  0  0  0  0
   49.7999   13.9724   12.4731 H   0  0  0  0  0  0  0  0  0  0  0  0
   47.1481   12.3503   19.4170 H   0  0  0  0  0  0  0  0  0  0  0  0
   47.7626    9.9758   16.4995 H   0  0  0  0  0  0  0  0  0  0  0  0
   46.6121    9.3781   18.5121 H   0  0  0  0  0  0  0  0  0  0  0  0
   48.3502    7.2713   18.8809 H   0  0  0  0  0  0  0  0  0  0  0  0
   47.6888    7.6038   17.2662 H   0  0  0  0  0  0  0  0  0  0  0  0
   50.3646   10.1955   18.1366 H   0  0  0  0  0  0  0  0  0  0  0  0
   50.2297    9.9696   16.3919 H   0  0  0  0  0  0  0  0  0  0  0  0
   49.2591    9.5046   20.0965 H   0  0  0  0  0  0  0  0  0  0  0  0
   48.0201   10.7164   20.2593 H   0  0  0  0  0  0  0  0  0  0  0  0
   47.6476    7.7651   20.9045 H   0  0  0  0  0  0  0  0  0  0  0  0
   47.7972    9.1025   22.0382 H   0  0  0  0  0  0  0  0  0  0  0  0
   46.3774    8.9955   20.9857 H   0  0  0  0  0  0  0  0  0  0  0  0
   49.4727    5.9017   17.4600 H   0  0  0  0  0  0  0  0  0  0  0  0
   52.3940    5.5454   17.8967 H   0  0  0  0  0  0  0  0  0  0  0  0
   51.6205    5.1012   16.3641 H   0  0  0  0  0  0  0  0  0  0  0  0
   46.8294   13.7026   20.3123 H   0  0  0  0  0  0  0  0  0  0  0  0
   52.0284   12.1521   17.4828 H   0  0  0  0  0  0  0  0  0  0  0  0
   52.9970   14.5005   18.4152 H   0  0  0  0  0  0  0  0  0  0  0  0
   51.1463   15.6290   19.6999 H   0  0  0  0  0  0  0  0  0  0  0  0
   47.0787    9.4053   18.0277 H   0  0  0  0  0  0  0  0  0  0  0  0
   50.8544   10.4757   17.0216 H   0  0  0  0  0  0  0  0  0  0  0  0
   50.4166    9.2512   15.0974 H   0  0  0  0  0  0  0  0  0  0  0  0
   48.9000    7.4797   15.0258 H   0  0  0  0  0  0  0  0  0  0  0  0
   47.6539    8.3216   15.9841 H   0  0  0  0  0  0  0  0  0  0  0  0
   50.1243    8.5395   18.8154 H   0  0  0  0  0  0  0  0  0  0  0  0
   51.2249    8.2050   17.4560 H   0  0  0  0  0  0  0  0  0  0  0  0
   47.7955   10.8270   15.3637 H   0  0  0  0  0  0  0  0  0  0  0  0
   48.3780   10.0643   13.8990 H   0  0  0  0  0  0  0  0  0  0  0  0
   49.9069   12.2542   15.3974 H   0  0  0  0  0  0  0  0  0  0  0  0
   48.9043   12.4828   13.9648 H   0  0  0  0  0  0  0  0  0  0  0  0
   50.3756   11.5048   13.8624 H   0  0  0  0  0  0  0  0  0  0  0  0
   48.1742    5.6526   16.0909 H   0  0  0  0  0  0  0  0  0  0  0  0
   47.1153    4.8154   18.7510 H   0  0  0  0  0  0  0  0  0  0  0  0
   46.5228    4.2400   17.1873 H   0  0  0  0  0  0  0  0  0  0  0  0
  2  3  1  0
  4  5  1  0
  6  7  1  0
  7  2  2  0
  3 10  1  0
  3  4  2  0
  4  8  1  0
  8  9  2  0
  9 10  1  0
  5 13  1  0
  5  6  1  0
  6 11  2  0
 11 12  1  0
 12 13  2  0
 14 13  1  0
 14 15  1  0
 14 18  1  0
 15 16  1  0
 16 17  1  0
 17 18  1  0
 15 19  1  0
 19 20  1  0
 17 21  1  0
 21 22  1  0
 21 23  2  0
 22 24  1  0
 24 25  1  0
 25 26  1  0
 25 27  1  0
 25 28  1  0
 29 30  1  0
 31 32  1  0
 33 34  1  0
 34 29  2  0
 30 37  1  0
 30 31  2  0
 31 35  1  0
 35 36  2  0
 36 37  1  0
 32 40  1  0
 32 33  1  0
 33 38  2  0
 38 39  1  0
 39 40  2  0
 41 40  1  0
 41 42  1  0
 41 45  1  0
 42 43  1  0
 43 44  1  0
 44 45  1  0
 42 46  1  0
 46 47  1  0
 44 48  1  0
 48 49  1  0
 48 50  2  0
 49 51  1  0
 51 52  1  0
 52 53  1  0
 52 54  1  0
 52 55  1  0
  1 56  1  0
  1 57  1  0
  7 58  1  0
  8 59  1  0
  9 60  1  0
 10 61  1  0
 12 62  1  0
 14 63  1  1
 15 64  1  1
 16 65  1  0
 16 66  1  0
 18 67  1  0
 18 68  1  0
 19 69  1  0
 19 70  1  0
 20 71  1  0
 20 72  1  0
 20 73  1  0
 22 74  1  0
 24 75  1  0
 24 76  1  0
 34 77  1  0
 35 78  1  0
 36 79  1  0
 37 80  1  0
 39 81  1  0
 41 82  1  6
 42 83  1  6
 43 84  1  0
 43 85  1  0
 45 86  1  0
 45 87  1  0
 46 88  1  0
 46 89  1  0
 47 90  1  0
 47 91  1  0
 47 92  1  0
 49 93  1  0
 51 94  1  0
 51 95  1  0
M  END
> <Uni-Dock RESULT> 
ENERGY=   -5.427  LOWER_BOUND=    0.000  UPPER_BOUND=    0.000
INTER + INTRA:          -5.427
INTER:                  -5.427
INTRA:                   0.000
UNBOUND:                 0.000

$$$$

     RDKit          3D

 95100  0  0  0  0  0  0  0  0999 V2000
   50.1683    8.2800   18.1764 O   0  0  0  0  0  0  0  0  0  0  0  0
   50.4795    2.1112   17.7894 N   0  0  0  0  0  0  0  0  0  0  0  0
   49.4942    3.0498   17.7431 C   0  0  0  0  0  0  0  0  0  0  0  0
   49.6006    4.4262   17.6521 C   0  0  0  0  0  0  0  0  0  0  0  0
   50.9108    4.9447   17.5991 N   0  0  0  0  0  0  0  0  0  0  0  0
   51.9493    4.0359   17.5976 C   0  0  0  0  0  0  0  0  0  0  0  0
   51.6888    2.6156   17.7129 C   0  0  0  0  0  0  0  0  0  0  0  0
   48.3137    4.9819   17.5914 C   0  0  0  0  0  0  0  0  0  0  0  0
   47.4338    3.9174   17.6774 C   0  0  0  0  0  0  0  0  0  0  0  0
   48.1610    2.7539   17.7694 N   0  0  0  0  0  0  0  0  0  0  0  0
   53.1139    4.6182   17.4297 N   0  0  0  0  0  0  0  0  0  0  0  0
   52.8153    5.9572   17.3457 C   0  0  0  0  0  0  0  0  0  0  0  0
   51.4631    6.2131   17.5320 C   0  0  0  0  0  0  0  0  0  0  0  0
   50.6612    7.4727   17.5883 C   0  0  2  0  0  0  0  0  0  0  0  0
   51.3504    8.8377   17.3022 C   0  0  1  0  0  0  0  0  0  0  0  0
   50.1816    9.7854   17.6561 C   0  0  0  0  0  0  0  0  0  0  0  0
   49.5249    9.1412   18.7896 N   0  0  0  0  0  0  0  0  0  0  0  0
   49.9746    7.7642   18.9279 C   0  0  0  0  0  0  0  0  0  0  0  0
   52.5805    9.1992   18.1750 C   0  0  0  0  0  0  0  0  0  0  0  0
   53.2615   10.4884   17.7253 C   0  0  0  0  0  0  0  0  0  0  0  0
   48.7127    9.7104   19.7355 C   0  0  0  0  0  0  0  0  0  0  0  0
   48.3880   11.0185   19.4979 N   0  0  0  0  0  0  0  0  0  0  0  0
   48.3133    9.1056   20.7264 O   0  0  0  0  0  0  0  0  0  0  0  0
   47.4693   11.7255   20.3905 C   0  0  0  0  0  0  0  0  0  0  0  0
   47.4098   13.2312   20.1577 C   0  0  0  0  0  0  0  0  0  0  0  0
   48.5945   13.8276   20.4088 F   0  0  0  0  0  0  0  0  0  0  0  0
   47.0814   13.4982   18.8696 F   0  0  0  0  0  0  0  0  0  0  0  0
   46.4759   13.8066   20.9479 F   0  0  0  0  0  0  0  0  0  0  0  0
   54.5220    4.9548   18.9287 N   0  0  0  0  0  0  0  0  0  0  0  0
   53.4972    4.9026   19.8253 C   0  0  0  0  0  0  0  0  0  0  0  0
   52.2872    5.5757   19.8136 C   0  0  0  0  0  0  0  0  0  0  0  0
   52.0721    6.4402   18.7208 N   0  0  0  0  0  0  0  0  0  0  0  0
   53.0836    6.5412   17.7865 C   0  0  0  0  0  0  0  0  0  0  0  0
   54.3043    5.7755   17.9278 C   0  0  0  0  0  0  0  0  0  0  0  0
   51.5555    5.2103   20.9570 C   0  0  0  0  0  0  0  0  0  0  0  0
   52.3516    4.3161   21.6535 C   0  0  0  0  0  0  0  0  0  0  0  0
   53.5248    4.1364   20.9559 N   0  0  0  0  0  0  0  0  0  0  0  0
   52.7984    7.3935   16.8284 N   0  0  0  0  0  0  0  0  0  0  0  0
   51.5633    7.8790   17.1656 C   0  0  0  0  0  0  0  0  0  0  0  0
   51.0599    7.2862   18.3187 C   0  0  0  0  0  0  0  0  0  0  0  0
   49.7618    7.5086   19.0440 C   0  0  2  0  0  0  0  0  0  0  0  0
   48.4791    7.2585   18.2127 C   0  0  1  0  0  0  0  0  0  0  0  0
   48.2490    8.5850   17.4797 C   0  0  0  0  0  0  0  0  0  0  0  0
   48.8775    9.5946   18.3242 N   0  0  0  0  0  0  0  0  0  0  0  0
   49.5931    8.9864   19.4352 C   0  0  0  0  0  0  0  0  0  0  0  0
   48.4810    6.0463   17.2805 C   0  0  0  0  0  0  0  0  0  0  0  0
   48.5500    4.7279   18.0341 C   0  0  0  0  0  0  0  0  0  0  0  0
   49.0726   10.9144   18.0143 C   0  0  0  0  0  0  0  0  0  0  0  0
   48.3579   11.3638   16.9305 N   0  0  0  0  0  0  0  0  0  0  0  0
   49.8428   11.6441   18.6320 O   0  0  0  0  0  0  0  0  0  0  0  0
   48.4938   12.7770   16.5705 C   0  0  0  0  0  0  0  0  0  0  0  0
   47.7456   13.7748   17.4673 C   0  0  0  0  0  0  0  0  0  0  0  0
   48.3906   14.9665   17.5194 F   0  0  0  0  0  0  0  0  0  0  0  0
   46.5011   14.0109   16.9698 F   0  0  0  0  0  0  0  0  0  0  0  0
   47.5838   13.3346   18.7289 F   0  0  0  0  0  0  0  0  0  0  0  0
   50.7441    7.5094   18.2897 H   0  0  0  0  0  0  0  0  0  0  0  0
   49.3167    7.9874   18.5342 H   0  0  0  0  0  0  0  0  0  0  0  0
   52.5515    1.9339   17.7250 H   0  0  0  0  0  0  0  0  0  0  0  0
   48.0160    6.0163   17.4806 H   0  0  0  0  0  0  0  0  0  0  0  0
   46.3517    3.8890   17.6819 H   0  0  0  0  0  0  0  0  0  0  0  0
   47.7878    1.8177   17.8400 H   0  0  0  0  0  0  0  0  0  0  0  0
   53.6124    6.6634   17.1513 H   0  0  0  0  0  0  0  0  0  0  0  0
   49.8834    7.3753   16.8119 H   0  0  0  0  0  0  0  0  0  0  0  0
   51.6151    8.9262   16.2398 H   0  0  0  0  0  0  0  0  0  0  0  0
   50.4829   10.8064   17.9066 H   0  0  0  0  0  0  0  0  0  0  0  0
   49.4515    9.8314   16.8387 H   0  0  0  0  0  0  0  0  0  0  0  0
   50.6680    7.7016   19.7745 H   0  0  0  0  0  0  0  0  0  0  0  0
   49.1264    7.1149   19.1480 H   0  0  0  0  0  0  0  0  0  0  0  0
   52.3000    9.3069   19.2262 H   0  0  0  0  0  0  0  0  0  0  0  0
   53.3321    8.4179   18.1424 H   0  0  0  0  0  0  0  0  0  0  0  0
   52.6094   11.3572   17.8205 H   0  0  0  0  0  0  0  0  0  0  0  0
   54.1462   10.6796   18.3451 H   0  0  0  0  0  0  0  0  0  0  0  0
   53.5896   10.4172   16.6849 H   0  0  0  0  0  0  0  0  0  0  0  0
   48.3467   11.2695   18.5206 H   0  0  0  0  0  0  0  0  0  0  0  0
   47.7651   11.5282   21.4268 H   0  0  0  0  0  0  0  0  0  0  0  0
   46.4730   11.2878   20.2363 H   0  0  0  0  0  0  0  0  0  0  0  0
   55.0807    5.9045   17.1610 H   0  0  0  0  0  0  0  0  0  0  0  0
   50.5754    5.5252   21.2839 H   0  0  0  0  0  0  0  0  0  0  0  0
   52.1905    3.7890   22.5875 H   0  0  0  0  0  0  0  0  0  0  0  0
   54.2957    3.5408   21.2254 H   0  0  0  0  0  0  0  0  0  0  0  0
   51.0932    8.6394   16.5537 H   0  0  0  0  0  0  0  0  0  0  0  0
   49.7247    6.9005   19.9474 H   0  0  0  0  0  0  0  0  0  0  0  0
   47.6502    7.1418   18.9317 H   0  0  0  0  0  0  0  0  0  0  0  0
   47.1765    8.8096   17.3704 H   0  0  0  0  0  0  0  0  0  0  0  0
   48.7108    8.6126   16.4833 H   0  0  0  0  0  0  0  0  0  0  0  0
   50.5384    9.4986   19.6521 H   0  0  0  0  0  0  0  0  0  0  0  0
   48.9397    9.0759   20.3127 H   0  0  0  0  0  0  0  0  0  0  0  0
   49.3099    6.0995   16.5688 H   0  0  0  0  0  0  0  0  0  0  0  0
   47.5630    6.0529   16.6823 H   0  0  0  0  0  0  0  0  0  0  0  0
   49.4321    4.6667   18.6732 H   0  0  0  0  0  0  0  0  0  0  0  0
   48.5978    3.8970   17.3236 H   0  0  0  0  0  0  0  0  0  0  0  0
   47.6627    4.5863   18.6586 H   0  0  0  0  0  0  0  0  0  0  0  0
   47.4244   10.9774   16.8816 H   0  0  0  0  0  0  0  0  0  0  0  0
   49.5673   13.0284   16.5659 H   0  0  0  0  0  0  0  0  0  0  0  0
   48.1395   12.8739   15.5339 H   0  0  0  0  0  0  0  0  0  0  0  0
  2  3  1  0
  4  5  1  0
  6  7  1  0
  7  2  2  0
  3 10  1  0
  3  4  2  0
  4  8  1  0
  8  9  2  0
  9 10  1  0
  5 13  1  0
  5  6  1  0
  6 11  2  0
 11 12  1  0
 12 13  2  0
 14 13  1  0
 14 15  1  0
 14 18  1  0
 15 16  1  0
 16 17  1  0
 17 18  1  0
 15 19  1  0
 19 20  1  0
 17 21  1  0
 21 22  1  0
 21 23  2  0
 22 24  1  0
 24 25  1  0
 25 26  1  0
 25 27  1  0
 25 28  1  0
 29 30  1  0
 31 32  1  0
 33 34  1  0
 34 29  2  0
 30 37  1  0
 30 31  2  0
 31 35  1  0
 35 36  2  0
 36 37  1  0
 32 40  1  0
 32 33  1  0
 33 38  2  0
 38 39  1  0
 39 40  2  0
 41 40  1  0
 41 42  1  0
 41 45  1  0
 42 43  1  0
 43 44  1  0
 44 45  1  0
 42 46  1  0
 46 47  1  0
 44 48  1  0
 48 49  1  0
 48 50  2  0
 49 51  1  0
 51 52  1  0
 52 53  1  0
 52 54  1  0
 52 55  1  0
  1 56  1  0
  1 57  1  0
  7 58  1  0
  8 59  1  0
  9 60  1  0
 10 61  1  0
 12 62  1  0
 14 63  1  1
 15 64  1  1
 16 65  1  0
 16 66  1  0
 18 67  1  0
 18 68  1  0
 19 69  1  0
 19 70  1  0
 20 71  1  0
 20 72  1  0
 20 73  1  0
 22 74  1  0
 24 75  1  0
 24 76  1  0
 34 77  1  0
 35 78  1  0
 36 79  1  0
 37 80  1  0
 39 81  1  0
 41 82  1  6
 42 83  1  6
 43 84  1  0
 43 85  1  0
 45 86  1  0
 45 87  1  0
 46 88  1  0
 46 89  1  0
 47 90  1  0
 47 91  1  0
 47 92  1  0
 49 93  1  0
 51 94  1  0
 51 95  1  0
M  END
> <Uni-Dock RESULT> 
ENERGY=   -5.143  LOWER_BOUND=    4.057  UPPER_BOUND=    8.100
INTER + INTRA:          -5.143
INTER:                  -5.143
INTRA:                   0.000
UNBOUND:                 0.000

$$$$

     RDKit          3D

 95100  0  0  0  0  0  0  0  0999 V2000
   50.0869    8.2217   14.6718 O   0  0  0  0  0  0  0  0  0  0  0  0
   50.5224   12.0617    9.8380 N   0  0  0  0  0  0  0  0  0  0  0  0
   49.5172   11.5662   10.6115 C   0  0  0  0  0  0  0  0  0  0  0  0
   49.5938   10.8545   11.7954 C   0  0  0  0  0  0  0  0  0  0  0  0
   50.8922   10.5986   12.2821 N   0  0  0  0  0  0  0  0  0  0  0  0
   51.9493   11.1161   11.5617 C   0  0  0  0  0  0  0  0  0  0  0  0
   51.7199   11.8333   10.3242 C   0  0  0  0  0  0  0  0  0  0  0  0
   48.2950   10.5904   12.2557 C   0  0  0  0  0  0  0  0  0  0  0  0
   47.4385   11.1300   11.3123 C   0  0  0  0  0  0  0  0  0  0  0  0
   48.1909   11.7171   10.3222 N   0  0  0  0  0  0  0  0  0  0  0  0
   53.0996   10.9183   12.1629 N   0  0  0  0  0  0  0  0  0  0  0  0
   52.7722   10.2234   13.3026 C   0  0  0  0  0  0  0  0  0  0  0  0
   51.4171    9.9277   13.3743 C   0  0  0  0  0  0  0  0  0  0  0  0
   50.5898    9.1642   14.3569 C   0  0  2  0  0  0  0  0  0  0  0  0
   51.2471    8.6178   15.6567 C   0  0  1  0  0  0  0  0  0  0  0  0
   50.0628    7.7891   16.2047 C   0  0  0  0  0  0  0  0  0  0  0  0
   49.4326    7.2282   15.0133 N   0  0  0  0  0  0  0  0  0  0  0  0
   49.9125    7.8999   13.8149 C   0  0  0  0  0  0  0  0  0  0  0  0
   52.4792    7.6916   15.4839 C   0  0  0  0  0  0  0  0  0  0  0  0
   53.1280    7.3228   16.8147 C   0  0  0  0  0  0  0  0  0  0  0  0
   48.6196    6.1288   14.9210 C   0  0  0  0  0  0  0  0  0  0  0  0
   48.2649    5.5776   16.1225 N   0  0  0  0  0  0  0  0  0  0  0  0
   48.2441    5.6619   13.8495 O   0  0  0  0  0  0  0  0  0  0  0  0
   47.3419    4.4435   16.1713 C   0  0  0  0  0  0  0  0  0  0  0  0
   47.2483    3.7749   17.5384 C   0  0  0  0  0  0  0  0  0  0  0  0
   48.4231    3.2250   17.9124 F   0  0  0  0  0  0  0  0  0  0  0  0
   46.8999    4.6806   18.4853 F   0  0  0  0  0  0  0  0  0  0  0  0
   46.3117    2.8000   17.5373 F   0  0  0  0  0  0  0  0  0  0  0  0
   54.5173    9.4919   11.6164 N   0  0  0  0  0  0  0  0  0  0  0  0
   53.5040    8.7885   11.0374 C   0  0  0  0  0  0  0  0  0  0  0  0
   52.2802    8.4168   11.5679 C   0  0  0  0  0  0  0  0  0  0  0  0
   52.0347    8.8206   12.8962 N   0  0  0  0  0  0  0  0  0  0  0  0
   53.0332    9.5273   13.5365 C   0  0  0  0  0  0  0  0  0  0  0  0
   54.2712    9.8453   12.8563 C   0  0  0  0  0  0  0  0  0  0  0  0
   51.5693    7.6888   10.5979 C   0  0  0  0  0  0  0  0  0  0  0  0
   52.3917    7.6256    9.4851 C   0  0  0  0  0  0  0  0  0  0  0  0
   53.5604    8.2979    9.7637 N   0  0  0  0  0  0  0  0  0  0  0  0
   52.7194    9.8277   14.7762 N   0  0  0  0  0  0  0  0  0  0  0  0
   51.4784    9.2768   14.9529 C   0  0  0  0  0  0  0  0  0  0  0  0
   51.0006    8.6702   13.7961 C   0  0  0  0  0  0  0  0  0  0  0  0
   49.7064    7.9511   13.5339 C   0  0  2  0  0  0  0  0  0  0  0  0
   48.4199    8.7797   13.7730 C   0  0  1  0  0  0  0  0  0  0  0  0
   48.1539    8.6245   15.2747 C   0  0  0  0  0  0  0  0  0  0  0  0
   48.7707    7.3530   15.6358 N   0  0  0  0  0  0  0  0  0  0  0  0
   49.5114    6.7865   14.5192 C   0  0  0  0  0  0  0  0  0  0  0  0
   48.4365   10.2372   13.3106 C   0  0  0  0  0  0  0  0  0  0  0  0
   48.5415   10.3714   11.8000 C   0  0  0  0  0  0  0  0  0  0  0  0
   48.9346    6.8531   16.9004 C   0  0  0  0  0  0  0  0  0  0  0  0
   48.1985    7.4880   17.8712 N   0  0  0  0  0  0  0  0  0  0  0  0
   49.6964    5.9273   17.1646 O   0  0  0  0  0  0  0  0  0  0  0  0
   48.3008    6.9760   19.2396 C   0  0  0  0  0  0  0  0  0  0  0  0
   47.5421    5.6720   19.5287 C   0  0  0  0  0  0  0  0  0  0  0  0
   48.1627    4.9470   20.4921 F   0  0  0  0  0  0  0  0  0  0  0  0
   46.2874    5.9488   19.9771 F   0  0  0  0  0  0  0  0  0  0  0  0
   47.4039    4.8882   18.4432 F   0  0  0  0  0  0  0  0  0  0  0  0
   50.6798    8.5673   13.9884 H   0  0  0  0  0  0  0  0  0  0  0  0
   49.2457    8.0973   14.2074 H   0  0  0  0  0  0  0  0  0  0  0  0
   52.5967   12.2104    9.7782 H   0  0  0  0  0  0  0  0  0  0  0  0
   47.9745   10.0913   13.1607 H   0  0  0  0  0  0  0  0  0  0  0  0
   46.3574   11.1454   11.2608 H   0  0  0  0  0  0  0  0  0  0  0  0
   47.8380   12.1948    9.5048 H   0  0  0  0  0  0  0  0  0  0  0  0
   53.5521    9.9775   14.0119 H   0  0  0  0  0  0  0  0  0  0  0  0
   49.8054    9.8592   14.7019 H   0  0  0  0  0  0  0  0  0  0  0  0
   51.4978    9.4386   16.3421 H   0  0  0  0  0  0  0  0  0  0  0  0
   50.3456    6.9995   16.9065 H   0  0  0  0  0  0  0  0  0  0  0  0
   49.3227    8.4356   16.6918 H   0  0  0  0  0  0  0  0  0  0  0  0
   50.6167    7.2390   13.2965 H   0  0  0  0  0  0  0  0  0  0  0  0
   49.0806    8.0923   13.1364 H   0  0  0  0  0  0  0  0  0  0  0  0
   52.2085    6.7680   14.9654 H   0  0  0  0  0  0  0  0  0  0  0  0
   53.2465    8.1627   14.8792 H   0  0  0  0  0  0  0  0  0  0  0  0
   52.4590    6.7501   17.4579 H   0  0  0  0  0  0  0  0  0  0  0  0
   54.0155    6.7025   16.6385 H   0  0  0  0  0  0  0  0  0  0  0  0
   53.4456    8.2166   17.3581 H   0  0  0  0  0  0  0  0  0  0  0  0
   48.2074    6.2366   16.8856 H   0  0  0  0  0  0  0  0  0  0  0  0
   47.6534    3.7048   15.4246 H   0  0  0  0  0  0  0  0  0  0  0  0
   46.3533    4.8227   15.8766 H   0  0  0  0  0  0  0  0  0  0  0  0
   55.0359   10.3991   13.4183 H   0  0  0  0  0  0  0  0  0  0  0  0
   50.5866    7.2431   10.6465 H   0  0  0  0  0  0  0  0  0  0  0  0
   52.2523    7.1604    8.5155 H   0  0  0  0  0  0  0  0  0  0  0  0
   54.3466    8.4148    9.1393 H   0  0  0  0  0  0  0  0  0  0  0  0
   50.9856    9.3461   15.9152 H   0  0  0  0  0  0  0  0  0  0  0  0
   49.6923    7.5570   12.5181 H   0  0  0  0  0  0  0  0  0  0  0  0
   47.6018    8.2584   13.2471 H   0  0  0  0  0  0  0  0  0  0  0  0
   47.0757    8.5887   15.4961 H   0  0  0  0  0  0  0  0  0  0  0  0
   48.6036    9.4254   15.8772 H   0  0  0  0  0  0  0  0  0  0  0  0
   50.4482    6.3135   14.8380 H   0  0  0  0  0  0  0  0  0  0  0  0
   48.8662    6.0168   14.0761 H   0  0  0  0  0  0  0  0  0  0  0  0
   49.2559   10.7890   13.7802 H   0  0  0  0  0  0  0  0  0  0  0  0
   47.5119   10.7269   13.6360 H   0  0  0  0  0  0  0  0  0  0  0  0
   49.4320    9.8794   11.4058 H   0  0  0  0  0  0  0  0  0  0  0  0
   48.5986   11.4291   11.5250 H   0  0  0  0  0  0  0  0  0  0  0  0
   47.6645    9.9420   11.3063 H   0  0  0  0  0  0  0  0  0  0  0  0
   47.2727    7.7513   17.5599 H   0  0  0  0  0  0  0  0  0  0  0  0
   49.3687    6.8335   19.4738 H   0  0  0  0  0  0  0  0  0  0  0  0
   47.9328    7.7725   19.9026 H   0  0  0  0  0  0  0  0  0  0  0  0
  2  3  1  0
  4  5  1  0
  6  7  1  0
  7  2  2  0
  3 10  1  0
  3  4  2  0
  4  8  1  0
  8  9  2  0
  9 10  1  0
  5 13  1  0
  5  6  1  0
  6 11  2  0
 11 12  1  0
 12 13  2  0
 14 13  1  0
 14 15  1  0
 14 18  1  0
 15 16  1  0
 16 17  1  0
 17 18  1  0
 15 19  1  0
 19 20  1  0
 17 21  1  0
 21 22  1  0
 21 23  2  0
 22 24  1  0
 24 25  1  0
 25 26  1  0
 25 27  1  0
 25 28  1  0
 29 30  1  0
 31 32  1  0
 33 34  1  0
 34 29  2  0
 30 37  1  0
 30 31  2  0
 31 35  1  0
 35 36  2  0
 36 37  1  0
 32 40  1  0
 32 33  1  0
 33 38  2  0
 38 39  1  0
 39 40  2  0
 41 40  1  0
 41 42  1  0
 41 45  1  0
 42 43  1  0
 43 44  1  0
 44 45  1  0
 42 46  1  0
 46 47  1  0
 44 48  1  0
 48 49  1  0
 48 50  2  0
 49 51  1  0
 51 52  1  0
 52 53  1  0
 52 54  1  0
 52 55  1  0
  1 56  1  0
  1 57  1  0
  7 58  1  0
  8 59  1  0
  9 60  1  0
 10 61  1  0
 12 62  1  0
 14 63  1  1
 15 64  1  1
 16 65  1  0
 16 66  1  0
 18 67  1  0
 18 68  1  0
 19 69  1  0
 19 70  1  0
 20 71  1  0
 20 72  1  0
 20 73  1  0
 22 74  1  0
 24 75  1  0
 24 76  1  0
 34 77  1  0
 35 78  1  0
 36 79  1  0
 37 80  1  0
 39 81  1  0
 41 82  1  6
 42 83  1  6
 43 84  1  0
 43 85  1  0
 45 86  1  0
 45 87  1  0
 46 88  1  0
 46 89  1  0
 47 90  1  0
 47 91  1  0
 47 92  1  0
 49 93  1  0
 51 94  1  0
 51 95  1  0
M  END
> <Uni-Dock RESULT> 
ENERGY=   -5.110  LOWER_BOUND=    3.682  UPPER_BOUND=    5.709
INTER + INTRA:          -5.110
INTER:                  -5.110
INTRA:                   0.000
UNBOUND:                 0.000

$$$$

     RDKit          3D

 95100  0  0  0  0  0  0  0  0999 V2000
   49.6770    7.3539   17.8962 O   0  0  0  0  0  0  0  0  0  0  0  0
   52.3997    5.0939   22.9737 N   0  0  0  0  0  0  0  0  0  0  0  0
   52.4386    4.8305   21.6383 C   0  0  0  0  0  0  0  0  0  0  0  0
   51.9086    5.5576   20.5873 C   0  0  0  0  0  0  0  0  0  0  0  0
   51.2283    6.7429   20.9342 N   0  0  0  0  0  0  0  0  0  0  0  0
   51.1958    7.0835   22.2711 C   0  0  0  0  0  0  0  0  0  0  0  0
   51.7838    6.2144   23.2698 C   0  0  0  0  0  0  0  0  0  0  0  0
   52.2340    4.9209   19.3801 C   0  0  0  0  0  0  0  0  0  0  0  0
   52.9426    3.7841   19.7269 C   0  0  0  0  0  0  0  0  0  0  0  0
   53.0589    3.7409   21.0964 N   0  0  0  0  0  0  0  0  0  0  0  0
   50.6408    8.2569   22.4677 N   0  0  0  0  0  0  0  0  0  0  0  0
   50.2787    8.6765   21.2100 C   0  0  0  0  0  0  0  0  0  0  0  0
   50.5485    7.7260   20.2341 C   0  0  0  0  0  0  0  0  0  0  0  0
   50.2998    7.6762   18.7615 C   0  0  2  0  0  0  0  0  0  0  0  0
   49.7078    8.9198   18.0382 C   0  0  1  0  0  0  0  0  0  0  0  0
   49.4847    8.3088   16.6359 C   0  0  0  0  0  0  0  0  0  0  0  0
   49.0703    6.9346   16.9023 N   0  0  0  0  0  0  0  0  0  0  0  0
   49.3442    6.5756   18.2857 C   0  0  0  0  0  0  0  0  0  0  0  0
   48.3596    9.4676   18.5747 C   0  0  0  0  0  0  0  0  0  0  0  0
   47.9366   10.7626   17.8877 C   0  0  0  0  0  0  0  0  0  0  0  0
   48.3747    6.0840   16.0834 C   0  0  0  0  0  0  0  0  0  0  0  0
   48.1621    6.5565   14.8166 N   0  0  0  0  0  0  0  0  0  0  0  0
   47.9614    4.9884   16.4521 O   0  0  0  0  0  0  0  0  0  0  0  0
   47.4955    5.7199   13.8183 C   0  0  0  0  0  0  0  0  0  0  0  0
   47.0945    6.4643   12.5495 C   0  0  0  0  0  0  0  0  0  0  0  0
   46.1805    7.4264   12.7967 F   0  0  0  0  0  0  0  0  0  0  0  0
   48.1755    7.0603   11.9888 F   0  0  0  0  0  0  0  0  0  0  0  0
   46.5722    5.6161   11.6354 F   0  0  0  0  0  0  0  0  0  0  0  0
   48.7170    8.5739   23.2035 N   0  0  0  0  0  0  0  0  0  0  0  0
   48.3995    7.3282   22.7516 C   0  0  0  0  0  0  0  0  0  0  0  0
   48.6063    6.7704   21.5012 C   0  0  0  0  0  0  0  0  0  0  0  0
   49.2375    7.5998   20.5518 N   0  0  0  0  0  0  0  0  0  0  0  0
   49.5714    8.8782   20.9523 C   0  0  0  0  0  0  0  0  0  0  0  0
   49.2913    9.3316   22.2986 C   0  0  0  0  0  0  0  0  0  0  0  0
   48.0990    5.4593   21.5016 C   0  0  0  0  0  0  0  0  0  0  0  0
   47.5798    5.2482   22.7683 C   0  0  0  0  0  0  0  0  0  0  0  0
   47.7702    6.3878   23.5168 N   0  0  0  0  0  0  0  0  0  0  0  0
   50.1238    9.5781   19.9876 N   0  0  0  0  0  0  0  0  0  0  0  0
   50.1296    8.7275   18.9147 C   0  0  0  0  0  0  0  0  0  0  0  0
   49.6182    7.4737   19.2323 C   0  0  0  0  0  0  0  0  0  0  0  0
   49.4363    6.2488   18.3795 C   0  0  2  0  0  0  0  0  0  0  0  0
   50.7252    5.6893   17.7279 C   0  0  1  0  0  0  0  0  0  0  0  0
   50.8765    6.5109   16.4427 C   0  0  0  0  0  0  0  0  0  0  0  0
   49.5214    6.9308   16.1038 N   0  0  0  0  0  0  0  0  0  0  0  0
   48.5748    6.5583   17.1437 C   0  0  0  0  0  0  0  0  0  0  0  0
   51.9892    5.6766   18.5884 C   0  0  0  0  0  0  0  0  0  0  0  0
   51.8806    4.7328   19.7751 C   0  0  0  0  0  0  0  0  0  0  0  0
   49.1604    7.8171   15.1239 C   0  0  0  0  0  0  0  0  0  0  0  0
   50.1493    8.1058   14.2150 N   0  0  0  0  0  0  0  0  0  0  0  0
   48.0516    8.3407   15.0652 O   0  0  0  0  0  0  0  0  0  0  0  0
   49.8146    9.0187   13.1196 C   0  0  0  0  0  0  0  0  0  0  0  0
   48.9591    8.4278   11.9889 C   0  0  0  0  0  0  0  0  0  0  0  0
   48.1763    9.3773   11.4189 F   0  0  0  0  0  0  0  0  0  0  0  0
   49.7588    7.9233   11.0102 F   0  0  0  0  0  0  0  0  0  0  0  0
   48.1622    7.4230   12.3976 F   0  0  0  0  0  0  0  0  0  0  0  0
   49.6741    7.3631   18.8648 H   0  0  0  0  0  0  0  0  0  0  0  0
   49.8345    6.4241   17.6739 H   0  0  0  0  0  0  0  0  0  0  0  0
   51.7159    6.5219   24.3233 H   0  0  0  0  0  0  0  0  0  0  0  0
   52.0182    5.2229   18.3637 H   0  0  0  0  0  0  0  0  0  0  0  0
   53.3732    3.0016   19.1155 H   0  0  0  0  0  0  0  0  0  0  0  0
   53.5297    3.0280   21.6359 H   0  0  0  0  0  0  0  0  0  0  0  0
   49.8385    9.6580   21.0886 H   0  0  0  0  0  0  0  0  0  0  0  0
   51.2837    7.5112   18.2904 H   0  0  0  0  0  0  0  0  0  0  0  0
   50.4441    9.7337   17.9955 H   0  0  0  0  0  0  0  0  0  0  0  0
   48.7424    8.8301   16.0248 H   0  0  0  0  0  0  0  0  0  0  0  0
   50.4250    8.2629   16.0729 H   0  0  0  0  0  0  0  0  0  0  0  0
   48.4010    6.5720   18.8440 H   0  0  0  0  0  0  0  0  0  0  0  0
   49.7599    5.5685   18.3346 H   0  0  0  0  0  0  0  0  0  0  0  0
   47.5583    8.7343   18.4498 H   0  0  0  0  0  0  0  0  0  0  0  0
   48.4126    9.6775   19.6375 H   0  0  0  0  0  0  0  0  0  0  0  0
   47.7572   10.6269   16.8206 H   0  0  0  0  0  0  0  0  0  0  0  0
   47.0017   11.1310   18.3277 H   0  0  0  0  0  0  0  0  0  0  0  0
   48.6954   11.5397   18.0125 H   0  0  0  0  0  0  0  0  0  0  0  0
   48.8812    7.1774   14.4744 H   0  0  0  0  0  0  0  0  0  0  0  0
   46.6064    5.2705   14.2739 H   0  0  0  0  0  0  0  0  0  0  0  0
   48.1912    4.9072   13.5661 H   0  0  0  0  0  0  0  0  0  0  0  0
   49.5675   10.3628   22.5589 H   0  0  0  0  0  0  0  0  0  0  0  0
   48.0835    4.7207   20.7136 H   0  0  0  0  0  0  0  0  0  0  0  0
   47.0883    4.3872   23.2078 H   0  0  0  0  0  0  0  0  0  0  0  0
   47.4906    6.5256   24.4784 H   0  0  0  0  0  0  0  0  0  0  0  0
   50.5065    9.0646   17.9566 H   0  0  0  0  0  0  0  0  0  0  0  0
   48.9548    5.4572   18.9530 H   0  0  0  0  0  0  0  0  0  0  0  0
   50.5040    4.6526   17.4213 H   0  0  0  0  0  0  0  0  0  0  0  0
   51.2937    5.9086   15.6206 H   0  0  0  0  0  0  0  0  0  0  0  0
   51.5063    7.4016   16.5721 H   0  0  0  0  0  0  0  0  0  0  0  0
   47.8170    7.3328   17.3139 H   0  0  0  0  0  0  0  0  0  0  0  0
   48.0699    5.6486   16.7938 H   0  0  0  0  0  0  0  0  0  0  0  0
   52.2305    6.6814   18.9468 H   0  0  0  0  0  0  0  0  0  0  0  0
   52.8384    5.3591   17.9730 H   0  0  0  0  0  0  0  0  0  0  0  0
   51.0341    4.9785   20.4181 H   0  0  0  0  0  0  0  0  0  0  0  0
   52.7879    4.7966   20.3837 H   0  0  0  0  0  0  0  0  0  0  0  0
   51.7703    3.6961   19.4429 H   0  0  0  0  0  0  0  0  0  0  0  0
   50.7125    7.3018   13.9711 H   0  0  0  0  0  0  0  0  0  0  0  0
   49.2961    9.8926   13.5474 H   0  0  0  0  0  0  0  0  0  0  0  0
   50.7680    9.3830   12.7101 H   0  0  0  0  0  0  0  0  0  0  0  0
  2  3  1  0
  4  5  1  0
  6  7  1  0
  7  2  2  0
  3 10  1  0
  3  4  2  0
  4  8  1  0
  8  9  2  0
  9 10  1  0
  5 13  1  0
  5  6  1  0
  6 11  2  0
 11 12  1  0
 12 13  2  0
 14 13  1  0
 14 15  1  0
 14 18  1  0
 15 16  1  0
 16 17  1  0
 17 18  1  0
 15 19  1  0
 19 20  1  0
 17 21  1  0
 21 22  1  0
 21 23  2  0
 22 24  1  0
 24 25  1  0
 25 26  1  0
 25 27  1  0
 25 28  1  0
 29 30  1  0
 31 32  1  0
 33 34  1  0
 34 29  2  0
 30 37  1  0
 30 31  2  0
 31 35  1  0
 35 36  2  0
 36 37  1  0
 32 40  1  0
 32 33  1  0
 33 38  2  0
 38 39  1  0
 39 40  2  0
 41 40  1  0
 41 42  1  0
 41 45  1  0
 42 43  1  0
 43 44  1  0
 44 45  1  0
 42 46  1  0
 46 47  1  0
 44 48  1  0
 48 49  1  0
 48 50  2  0
 49 51  1  0
 51 52  1  0
 52 53  1  0
 52 54  1  0
 52 55  1  0
  1 56  1  0
  1 57  1  0
  7 58  1  0
  8 59  1  0
  9 60  1  0
 10 61  1  0
 12 62  1  0
 14 63  1  1
 15 64  1  1
 16 65  1  0
 16 66  1  0
 18 67  1  0
 18 68  1  0
 19 69  1  0
 19 70  1  0
 20 71  1  0
 20 72  1  0
 20 73  1  0
 22 74  1  0
 24 75  1  0
 24 76  1  0
 34 77  1  0
 35 78  1  0
 36 79  1  0
 37 80  1  0
 39 81  1  0
 41 82  1  6
 42 83  1  6
 43 84  1  0
 43 85  1  0
 45 86  1  0
 45 87  1  0
 46 88  1  0
 46 89  1  0
 47 90  1  0
 47 91  1  0
 47 92  1  0
 49 93  1  0
 51 94  1  0
 51 95  1  0
M  END
> <Uni-Dock RESULT> 
ENERGY=   -4.807  LOWER_BOUND=    3.776  UPPER_BOUND=    6.945
INTER + INTRA:          -4.807
INTER:                  -4.807
INTRA:                   0.000
UNBOUND:                 0.000

$$$$

     RDKit          3D

 95100  0  0  0  0  0  0  0  0999 V2000
   48.6526    8.1179   18.2195 O   0  0  0  0  0  0  0  0  0  0  0  0
   47.8174    9.8545   24.1006 N   0  0  0  0  0  0  0  0  0  0  0  0
   47.8721   10.4771   22.8909 C   0  0  0  0  0  0  0  0  0  0  0  0
   47.8756    9.9252   21.6222 C   0  0  0  0  0  0  0  0  0  0  0  0
   47.8141    8.5179   21.5581 N   0  0  0  0  0  0  0  0  0  0  0  0
   47.7120    7.8358   22.7533 C   0  0  0  0  0  0  0  0  0  0  0  0
   47.7351    8.5474   24.0148 C   0  0  0  0  0  0  0  0  0  0  0  0
   47.8992   10.9586   20.6735 C   0  0  0  0  0  0  0  0  0  0  0  0
   47.9397   12.1385   21.3951 C   0  0  0  0  0  0  0  0  0  0  0  0
   47.9235   11.8331   22.7358 N   0  0  0  0  0  0  0  0  0  0  0  0
   47.5457    6.5462   22.5724 N   0  0  0  0  0  0  0  0  0  0  0  0
   47.5675    6.3890   21.2071 C   0  0  0  0  0  0  0  0  0  0  0  0
   47.8183    7.5802   20.5387 C   0  0  0  0  0  0  0  0  0  0  0  0
   47.9918    7.9232   19.0947 C   0  0  2  0  0  0  0  0  0  0  0  0
   47.7797    6.8264   18.0120 C   0  0  1  0  0  0  0  0  0  0  0  0
   48.2404    7.6156   16.7652 C   0  0  0  0  0  0  0  0  0  0  0  0
   49.3473    8.4368   17.2462 N   0  0  0  0  0  0  0  0  0  0  0  0
   49.3718    8.4632   18.7010 C   0  0  0  0  0  0  0  0  0  0  0  0
   48.6329    5.5377   18.1422 C   0  0  0  0  0  0  0  0  0  0  0  0
   48.2526    4.4752   17.1153 C   0  0  0  0  0  0  0  0  0  0  0  0
   50.3590    9.0079   16.5190 C   0  0  0  0  0  0  0  0  0  0  0  0
   50.2263    8.8870   15.1623 N   0  0  0  0  0  0  0  0  0  0  0  0
   51.3175    9.5745   17.0358 O   0  0  0  0  0  0  0  0  0  0  0  0
   51.1983    9.5139   14.2662 C   0  0  0  0  0  0  0  0  0  0  0  0
   51.0752    9.0776   12.8104 C   0  0  0  0  0  0  0  0  0  0  0  0
   51.3269    7.7604   12.6556 F   0  0  0  0  0  0  0  0  0  0  0  0
   49.8216    9.3121   12.3504 F   0  0  0  0  0  0  0  0  0  0  0  0
   51.9363    9.7631   12.0253 F   0  0  0  0  0  0  0  0  0  0  0  0
   49.0152    5.0916   22.8333 N   0  0  0  0  0  0  0  0  0  0  0  0
   49.9407    6.0682   22.6180 C   0  0  0  0  0  0  0  0  0  0  0  0
   50.0189    6.9899   21.5876 C   0  0  0  0  0  0  0  0  0  0  0  0
   48.9984    6.9192   20.6173 N   0  0  0  0  0  0  0  0  0  0  0  0
   48.0391    5.9396   20.7794 C   0  0  0  0  0  0  0  0  0  0  0  0
   48.0833    5.0369   21.9106 C   0  0  0  0  0  0  0  0  0  0  0  0
   51.1581    7.7902   21.7823 C   0  0  0  0  0  0  0  0  0  0  0  0
   51.7612    7.3256   22.9395 C   0  0  0  0  0  0  0  0  0  0  0  0
   51.0123    6.2832   23.4374 N   0  0  0  0  0  0  0  0  0  0  0  0
   47.1546    5.9379   19.8082 N   0  0  0  0  0  0  0  0  0  0  0  0
   47.5681    6.9416   18.9737 C   0  0  0  0  0  0  0  0  0  0  0  0
   48.6928    7.6010   19.4581 C   0  0  0  0  0  0  0  0  0  0  0  0
   49.4767    8.7471   18.8812 C   0  0  2  0  0  0  0  0  0  0  0  0
   48.6746   10.0485   18.6322 C   0  0  1  0  0  0  0  0  0  0  0  0
   48.0462    9.8369   17.2502 C   0  0  0  0  0  0  0  0  0  0  0  0
   48.9381    8.9036   16.5711 N   0  0  0  0  0  0  0  0  0  0  0  0
   49.9775    8.4172   17.4650 C   0  0  0  0  0  0  0  0  0  0  0  0
   47.6592   10.4537   19.7013 C   0  0  0  0  0  0  0  0  0  0  0  0
   48.3143   10.8147   21.0247 C   0  0  0  0  0  0  0  0  0  0  0  0
   48.7163    8.2887   15.3675 C   0  0  0  0  0  0  0  0  0  0  0  0
   47.6925    8.8261   14.6255 N   0  0  0  0  0  0  0  0  0  0  0  0
   49.3572    7.3157   14.9806 O   0  0  0  0  0  0  0  0  0  0  0  0
   47.4294    8.2369   13.3107 C   0  0  0  0  0  0  0  0  0  0  0  0
   48.4203    8.6072   12.1969 C   0  0  0  0  0  0  0  0  0  0  0  0
   48.5346    7.6060   11.2894 F   0  0  0  0  0  0  0  0  0  0  0  0
   47.9843    9.7096   11.5287 F   0  0  0  0  0  0  0  0  0  0  0  0
   49.6523    8.8927   12.6576 F   0  0  0  0  0  0  0  0  0  0  0  0
   48.6908    7.8262   19.1423 H   0  0  0  0  0  0  0  0  0  0  0  0
   49.0180    9.0149   18.2448 H   0  0  0  0  0  0  0  0  0  0  0  0
   47.6687    7.9565   24.9398 H   0  0  0  0  0  0  0  0  0  0  0  0
   47.8726   10.9009   19.5933 H   0  0  0  0  0  0  0  0  0  0  0  0
   47.9797   13.1698   21.0686 H   0  0  0  0  0  0  0  0  0  0  0  0
   47.9403   12.4926   23.5011 H   0  0  0  0  0  0  0  0  0  0  0  0
   47.3963    5.4060   20.7873 H   0  0  0  0  0  0  0  0  0  0  0  0
   47.2379    8.6971   18.8712 H   0  0  0  0  0  0  0  0  0  0  0  0
   46.7178    6.5574   17.9318 H   0  0  0  0  0  0  0  0  0  0  0  0
   48.5523    6.9931   15.9218 H   0  0  0  0  0  0  0  0  0  0  0  0
   47.4542    8.2977   16.4190 H   0  0  0  0  0  0  0  0  0  0  0  0
   50.1872    7.8209   19.0531 H   0  0  0  0  0  0  0  0  0  0  0  0
   49.5744    9.4756   19.0525 H   0  0  0  0  0  0  0  0  0  0  0  0
   49.6982    5.7573   18.0316 H   0  0  0  0  0  0  0  0  0  0  0  0
   48.5187    5.0849   19.1211 H   0  0  0  0  0  0  0  0  0  0  0  0
   48.4319    4.8047   16.0913 H   0  0  0  0  0  0  0  0  0  0  0  0
   48.8534    3.5710   17.2731 H   0  0  0  0  0  0  0  0  0  0  0  0
   47.1990    4.1985   17.2078 H   0  0  0  0  0  0  0  0  0  0  0  0
   49.2713    8.8527   14.8356 H   0  0  0  0  0  0  0  0  0  0  0  0
   52.2070    9.2897   14.6301 H   0  0  0  0  0  0  0  0  0  0  0  0
   51.0479   10.6001   14.3407 H   0  0  0  0  0  0  0  0  0  0  0  0
   47.3011    4.2686   21.9827 H   0  0  0  0  0  0  0  0  0  0  0  0
   51.5404    8.6093   21.1911 H   0  0  0  0  0  0  0  0  0  0  0  0
   52.6604    7.6421   23.4566 H   0  0  0  0  0  0  0  0  0  0  0  0
   51.2119    5.7483   24.2715 H   0  0  0  0  0  0  0  0  0  0  0  0
   47.0284    7.1415   18.0559 H   0  0  0  0  0  0  0  0  0  0  0  0
   50.3353    8.9734   19.5128 H   0  0  0  0  0  0  0  0  0  0  0  0
   49.4118   10.8629   18.5277 H   0  0  0  0  0  0  0  0  0  0  0  0
   47.9904   10.7770   16.6795 H   0  0  0  0  0  0  0  0  0  0  0  0
   47.0389    9.4010   17.2968 H   0  0  0  0  0  0  0  0  0  0  0  0
   50.1974    7.3540   17.3087 H   0  0  0  0  0  0  0  0  0  0  0  0
   50.8813    8.9966   17.2361 H   0  0  0  0  0  0  0  0  0  0  0  0
   46.9247    9.6602   19.8662 H   0  0  0  0  0  0  0  0  0  0  0  0
   47.0951   11.3242   19.3480 H   0  0  0  0  0  0  0  0  0  0  0  0
   48.9164    9.9957   21.4208 H   0  0  0  0  0  0  0  0  0  0  0  0
   47.5453   11.0493   21.7671 H   0  0  0  0  0  0  0  0  0  0  0  0
   48.9575   11.6934   20.9171 H   0  0  0  0  0  0  0  0  0  0  0  0
   47.6487    9.8352   14.6805 H   0  0  0  0  0  0  0  0  0  0  0  0
   47.4055    7.1405   13.4245 H   0  0  0  0  0  0  0  0  0  0  0  0
   46.4153    8.5493   13.0223 H   0  0  0  0  0  0  0  0  0  0  0  0
  2  3  1  0
  4  5  1  0
  6  7  1  0
  7  2  2  0
  3 10  1  0
  3  4  2  0
  4  8  1  0
  8  9  2  0
  9 10  1  0
  5 13  1  0
  5  6  1  0
  6 11  2  0
 11 12  1  0
 12 13  2  0
 14 13  1  0
 14 15  1  0
 14 18  1  0
 15 16  1  0
 16 17  1  0
 17 18  1  0
 15 19  1  0
 19 20  1  0
 17 21  1  0
 21 22  1  0
 21 23  2  0
 22 24  1  0
 24 25  1  0
 25 26  1  0
 25 27  1  0
 25 28  1  0
 29 30  1  0
 31 32  1  0
 33 34  1  0
 34 29  2  0
 30 37  1  0
 30 31  2  0
 31 35  1  0
 35 36  2  0
 36 37  1  0
 32 40  1  0
 32 33  1  0
 33 38  2  0
 38 39  1  0
 39 40  2  0
 41 40  1  0
 41 42  1  0
 41 45  1  0
 42 43  1  0
 43 44  1  0
 44 45  1  0
 42 46  1  0
 46 47  1  0
 44 48  1  0
 48 49  1  0
 48 50  2  0
 49 51  1  0
 51 52  1  0
 52 53  1  0
 52 54  1  0
 52 55  1  0
  1 56  1  0
  1 57  1  0
  7 58  1  0
  8 59  1  0
  9 60  1  0
 10 61  1  0
 12 62  1  0
 14 63  1  1
 15 64  1  1
 16 65  1  0
 16 66  1  0
 18 67  1  0
 18 68  1  0
 19 69  1  0
 19 70  1  0
 20 71  1  0
 20 72  1  0
 20 73  1  0
 22 74  1  0
 24 75  1  0
 24 76  1  0
 34 77  1  0
 35 78  1  0
 36 79  1  0
 37 80  1  0
 39 81  1  0
 41 82  1  6
 42 83  1  6
 43 84  1  0
 43 85  1  0
 45 86  1  0
 45 87  1  0
 46 88  1  0
 46 89  1  0
 47 90  1  0
 47 91  1  0
 47 92  1  0
 49 93  1  0
 51 94  1  0
 51 95  1  0
M  END
> <Uni-Dock RESULT> 
ENERGY=   -4.803  LOWER_BOUND=    3.716  UPPER_BOUND=    6.403
INTER + INTRA:          -4.803
INTER:                  -4.803
INTRA:                   0.000
UNBOUND:                 0.000

$$$$

     RDKit          3D

 95100  0  0  0  0  0  0  0  0999 V2000
   49.9290    8.9861   16.4269 O   0  0  0  0  0  0  0  0  0  0  0  0
   50.2416   15.0680   17.5286 N   0  0  0  0  0  0  0  0  0  0  0  0
   49.2811   14.1052   17.5978 C   0  0  0  0  0  0  0  0  0  0  0  0
   49.4111   12.7313   17.5011 C   0  0  0  0  0  0  0  0  0  0  0  0
   50.7194   12.2446   17.3023 N   0  0  0  0  0  0  0  0  0  0  0  0
   51.7396   13.1732   17.2687 C   0  0  0  0  0  0  0  0  0  0  0  0
   51.4534   14.5898   17.3689 C   0  0  0  0  0  0  0  0  0  0  0  0
   48.1511   12.1389   17.6750 C   0  0  0  0  0  0  0  0  0  0  0  0
   47.2592   13.1826   17.8480 C   0  0  0  0  0  0  0  0  0  0  0  0
   47.9558   14.3672   17.7986 N   0  0  0  0  0  0  0  0  0  0  0  0
   52.9210   12.6055   17.1954 N   0  0  0  0  0  0  0  0  0  0  0  0
   52.6489   11.2589   17.1542 C   0  0  0  0  0  0  0  0  0  0  0  0
   51.2861   10.9923   17.1319 C   0  0  0  0  0  0  0  0  0  0  0  0
   50.4950    9.7284   17.0345 C   0  0  2  0  0  0  0  0  0  0  0  0
   51.2297    8.3572   17.0478 C   0  0  1  0  0  0  0  0  0  0  0  0
   50.0299    7.4294   16.7491 C   0  0  0  0  0  0  0  0  0  0  0  0
   49.2109    8.1893   15.8095 N   0  0  0  0  0  0  0  0  0  0  0  0
   49.6244    9.5842   15.7806 C   0  0  0  0  0  0  0  0  0  0  0  0
   52.3237    8.1369   15.9706 C   0  0  0  0  0  0  0  0  0  0  0  0
   53.0732    6.8207   16.1552 C   0  0  0  0  0  0  0  0  0  0  0  0
   48.2753    7.7185   14.9255 C   0  0  0  0  0  0  0  0  0  0  0  0
   47.9992    6.3832   15.0427 N   0  0  0  0  0  0  0  0  0  0  0  0
   47.7318    8.4287   14.0845 O   0  0  0  0  0  0  0  0  0  0  0  0
   46.9671    5.7662   14.2092 C   0  0  0  0  0  0  0  0  0  0  0  0
   46.9544    4.2424   14.2594 C   0  0  0  0  0  0  0  0  0  0  0  0
   48.0952    3.7121   13.7700 F   0  0  0  0  0  0  0  0  0  0  0  0
   46.8179    3.8121   15.5378 F   0  0  0  0  0  0  0  0  0  0  0  0
   45.9209    3.7432   13.5449 F   0  0  0  0  0  0  0  0  0  0  0  0
   54.1004   12.4906   15.4810 N   0  0  0  0  0  0  0  0  0  0  0  0
   52.9564   12.6248   14.7531 C   0  0  0  0  0  0  0  0  0  0  0  0
   51.7664   11.9239   14.8533 C   0  0  0  0  0  0  0  0  0  0  0  0
   51.7188   10.9275   15.8496 N   0  0  0  0  0  0  0  0  0  0  0  0
   52.8555   10.7400   16.6106 C   0  0  0  0  0  0  0  0  0  0  0  0
   54.0366   11.5488   16.3930 C   0  0  0  0  0  0  0  0  0  0  0  0
   50.8742   12.4064   13.8800 C   0  0  0  0  0  0  0  0  0  0  0  0
   51.5538   13.3993   13.1937 C   0  0  0  0  0  0  0  0  0  0  0  0
   52.8139   13.5233   13.7340 N   0  0  0  0  0  0  0  0  0  0  0  0
   52.7189    9.7703   17.4862 N   0  0  0  0  0  0  0  0  0  0  0  0
   51.4521    9.2973   17.2706 C   0  0  0  0  0  0  0  0  0  0  0  0
   50.7824   10.0128   16.2836 C   0  0  0  0  0  0  0  0  0  0  0  0
   49.3950    9.8464   15.7286 C   0  0  2  0  0  0  0  0  0  0  0  0
   48.2439    9.9599   16.7587 C   0  0  1  0  0  0  0  0  0  0  0  0
   48.1332    8.5485   17.3466 C   0  0  0  0  0  0  0  0  0  0  0  0
   48.6414    7.6659   16.3024 N   0  0  0  0  0  0  0  0  0  0  0  0
   49.1838    8.4233   15.1850 C   0  0  0  0  0  0  0  0  0  0  0  0
   48.3704   11.0493   17.8243 C   0  0  0  0  0  0  0  0  0  0  0  0
   48.3187   12.4510   17.2381 C   0  0  0  0  0  0  0  0  0  0  0  0
   48.8901    6.3238   16.4150 C   0  0  0  0  0  0  0  0  0  0  0  0
   48.3434    5.7273   17.5253 N   0  0  0  0  0  0  0  0  0  0  0  0
   49.5690    5.6951   15.6082 O   0  0  0  0  0  0  0  0  0  0  0  0
   48.5416    4.2849   17.6840 C   0  0  0  0  0  0  0  0  0  0  0  0
   47.6800    3.3844   16.7860 C   0  0  0  0  0  0  0  0  0  0  0  0
   48.3206    2.2251   16.4951 F   0  0  0  0  0  0  0  0  0  0  0  0
   46.5225    3.0571   17.4225 F   0  0  0  0  0  0  0  0  0  0  0  0
   47.3339    3.9704   15.6248 F   0  0  0  0  0  0  0  0  0  0  0  0
   50.4759    9.7795   16.3293 H   0  0  0  0  0  0  0  0  0  0  0  0
   49.0323    9.2977   16.2331 H   0  0  0  0  0  0  0  0  0  0  0  0
   52.2996   15.2901   17.3188 H   0  0  0  0  0  0  0  0  0  0  0  0
   47.8811   11.0913   17.6977 H   0  0  0  0  0  0  0  0  0  0  0  0
   46.1876   13.1831   18.0013 H   0  0  0  0  0  0  0  0  0  0  0  0
   47.5684   15.2950   17.8987 H   0  0  0  0  0  0  0  0  0  0  0  0
   53.4715   10.5553   17.1438 H   0  0  0  0  0  0  0  0  0  0  0  0
   49.8368    9.7103   17.9197 H   0  0  0  0  0  0  0  0  0  0  0  0
   51.6459    8.1471   18.0424 H   0  0  0  0  0  0  0  0  0  0  0  0
   50.3004    6.4547   16.3333 H   0  0  0  0  0  0  0  0  0  0  0  0
   49.4260    7.2653   17.6499 H   0  0  0  0  0  0  0  0  0  0  0  0
   50.1877    9.7675   14.8583 H   0  0  0  0  0  0  0  0  0  0  0  0
   48.7479   10.2331   15.7658 H   0  0  0  0  0  0  0  0  0  0  0  0
   51.8951    8.1506   14.9649 H   0  0  0  0  0  0  0  0  0  0  0  0
   53.0655    8.9277   15.9927 H   0  0  0  0  0  0  0  0  0  0  0  0
   52.4214    5.9532   16.0467 H   0  0  0  0  0  0  0  0  0  0  0  0
   53.8606    6.7296   15.3968 H   0  0  0  0  0  0  0  0  0  0  0  0
   53.5476    6.7733   17.1390 H   0  0  0  0  0  0  0  0  0  0  0  0
   48.1018    6.0141   15.9772 H   0  0  0  0  0  0  0  0  0  0  0  0
   47.1083    6.0959   13.1740 H   0  0  0  0  0  0  0  0  0  0  0  0
   46.0000    6.1558   14.5569 H   0  0  0  0  0  0  0  0  0  0  0  0
   54.9166   11.3478   17.0195 H   0  0  0  0  0  0  0  0  0  0  0  0
   49.8597   12.1082   13.6594 H   0  0  0  0  0  0  0  0  0  0  0  0
   51.2550   14.0317   12.3649 H   0  0  0  0  0  0  0  0  0  0  0  0
   53.5329   14.1672   13.4335 H   0  0  0  0  0  0  0  0  0  0  0  0
   51.0817    8.4562   17.8440 H   0  0  0  0  0  0  0  0  0  0  0  0
   49.2226   10.5587   14.9223 H   0  0  0  0  0  0  0  0  0  0  0  0
   47.3189   10.1416   16.1852 H   0  0  0  0  0  0  0  0  0  0  0  0
   47.0896    8.2844   17.5787 H   0  0  0  0  0  0  0  0  0  0  0  0
   48.7344    8.4119   18.2558 H   0  0  0  0  0  0  0  0  0  0  0  0
   50.0921    7.9661   14.7738 H   0  0  0  0  0  0  0  0  0  0  0  0
   48.4112    8.4242   14.4052 H   0  0  0  0  0  0  0  0  0  0  0  0
   49.2938   10.9316   18.3986 H   0  0  0  0  0  0  0  0  0  0  0  0
   47.5486   10.9460   18.5417 H   0  0  0  0  0  0  0  0  0  0  0  0
   49.0988   12.6125   16.4926 H   0  0  0  0  0  0  0  0  0  0  0  0
   48.4619   13.1903   18.0322 H   0  0  0  0  0  0  0  0  0  0  0  0
   47.3494   12.6443   16.7689 H   0  0  0  0  0  0  0  0  0  0  0  0
   47.4236    6.0805   17.7542 H   0  0  0  0  0  0  0  0  0  0  0  0
   49.6066    4.0630   17.5044 H   0  0  0  0  0  0  0  0  0  0  0  0
   48.3418    4.0534   18.7403 H   0  0  0  0  0  0  0  0  0  0  0  0
  2  3  1  0
  4  5  1  0
  6  7  1  0
  7  2  2  0
  3 10  1  0
  3  4  2  0
  4  8  1  0
  8  9  2  0
  9 10  1  0
  5 13  1  0
  5  6  1  0
  6 11  2  0
 11 12  1  0
 12 13  2  0
 14 13  1  0
 14 15  1  0
 14 18  1  0
 15 16  1  0
 16 17  1  0
 17 18  1  0
 15 19  1  0
 19 20  1  0
 17 21  1  0
 21 22  1  0
 21 23  2  0
 22 24  1  0
 24 25  1  0
 25 26  1  0
 25 27  1  0
 25 28  1  0
 29 30  1  0
 31 32  1  0
 33 34  1  0
 34 29  2  0
 30 37  1  0
 30 31  2  0
 31 35  1  0
 35 36  2  0
 36 37  1  0
 32 40  1  0
 32 33  1  0
 33 38  2  0
 38 39  1  0
 39 40  2  0
 41 40  1  0
 41 42  1  0
 41 45  1  0
 42 43  1  0
 43 44  1  0
 44 45  1  0
 42 46  1  0
 46 47  1  0
 44 48  1  0
 48 49  1  0
 48 50  2  0
 49 51  1  0
 51 52  1  0
 52 53  1  0
 52 54  1  0
 52 55  1  0
  1 56  1  0
  1 57  1  0
  7 58  1  0
  8 59  1  0
  9 60  1  0
 10 61  1  0
 12 62  1  0
 14 63  1  1
 15 64  1  1
 16 65  1  0
 16 66  1  0
 18 67  1  0
 18 68  1  0
 19 69  1  0
 19 70  1  0
 20 71  1  0
 20 72  1  0
 20 73  1  0
 22 74  1  0
 24 75  1  0
 24 76  1  0
 34 77  1  0
 35 78  1  0
 36 79  1  0
 37 80  1  0
 39 81  1  0
 41 82  1  6
 42 83  1  6
 43 84  1  0
 43 85  1  0
 45 86  1  0
 45 87  1  0
 46 88  1  0
 46 89  1  0
 47 90  1  0
 47 91  1  0
 47 92  1  0
 49 93  1  0
 51 94  1  0
 51 95  1  0
M  END
> <Uni-Dock RESULT> 
ENERGY=   -4.553  LOWER_BOUND=    2.223  UPPER_BOUND=    4.176
INTER + INTRA:          -4.553
INTER:                  -4.553
INTRA:                   0.000
UNBOUND:                 0.000

$$$$

     RDKit          3D

 95100  0  0  0  0  0  0  0  0999 V2000
   50.5487   10.2125   16.1466 O   0  0  0  0  0  0  0  0  0  0  0  0
   52.6461    8.0349   10.7466 N   0  0  0  0  0  0  0  0  0  0  0  0
   51.4602    8.0252   11.4157 C   0  0  0  0  0  0  0  0  0  0  0  0
   51.0880    8.7296   12.5468 C   0  0  0  0  0  0  0  0  0  0  0  0
   52.0669    9.5832   13.0957 N   0  0  0  0  0  0  0  0  0  0  0  0
   53.2742    9.6671   12.4326 C   0  0  0  0  0  0  0  0  0  0  0  0
   53.5320    8.8554   11.2609 C   0  0  0  0  0  0  0  0  0  0  0  0
   49.7512    8.4322   12.8521 C   0  0  0  0  0  0  0  0  0  0  0  0
   49.3377    7.5149   11.9022 C   0  0  0  0  0  0  0  0  0  0  0  0
   50.3815    7.2767   11.0392 N   0  0  0  0  0  0  0  0  0  0  0  0
   54.0650   10.5722   12.9608 N   0  0  0  0  0  0  0  0  0  0  0  0
   53.3481   11.0724   14.0215 C   0  0  0  0  0  0  0  0  0  0  0  0
   52.1321   10.4243   14.1942 C   0  0  0  0  0  0  0  0  0  0  0  0
   51.0419   10.5533   15.2079 C   0  0  2  0  0  0  0  0  0  0  0  0
   51.1236   11.6692   16.2888 C   0  0  1  0  0  0  0  0  0  0  0  0
   49.9078   11.2665   17.1543 C   0  0  0  0  0  0  0  0  0  0  0  0
   49.9136    9.8069   17.1284 N   0  0  0  0  0  0  0  0  0  0  0  0
   50.7948    9.3162   16.0794 C   0  0  0  0  0  0  0  0  0  0  0  0
   52.3947   11.6936   17.1772 C   0  0  0  0  0  0  0  0  0  0  0  0
   52.4377   12.9019   18.1080 C   0  0  0  0  0  0  0  0  0  0  0  0
   49.3342    8.9399   18.0177 C   0  0  0  0  0  0  0  0  0  0  0  0
   48.5519    9.5357   18.9697 N   0  0  0  0  0  0  0  0  0  0  0  0
   49.5071    7.7252   17.9779 O   0  0  0  0  0  0  0  0  0  0  0  0
   47.8163    8.7210   19.9371 C   0  0  0  0  0  0  0  0  0  0  0  0
   47.2082    9.5167   21.0868 C   0  0  0  0  0  0  0  0  0  0  0  0
   48.1541   10.1082   21.8468 F   0  0  0  0  0  0  0  0  0  0  0  0
   46.3965   10.4924   20.6098 F   0  0  0  0  0  0  0  0  0  0  0  0
   46.4661    8.7196   21.8878 F   0  0  0  0  0  0  0  0  0  0  0  0
   55.7137   10.1753   14.1721 N   0  0  0  0  0  0  0  0  0  0  0  0
   55.1258    8.9869   14.4866 C   0  0  0  0  0  0  0  0  0  0  0  0
   53.8366    8.7357   14.9250 C   0  0  0  0  0  0  0  0  0  0  0  0
   53.0024    9.8633   15.0680 N   0  0  0  0  0  0  0  0  0  0  0  0
   53.5503   11.0960   14.7738 C   0  0  0  0  0  0  0  0  0  0  0  0
   54.9222   11.2110   14.3254 C   0  0  0  0  0  0  0  0  0  0  0  0
   53.6911    7.3530   15.1328 C   0  0  0  0  0  0  0  0  0  0  0  0
   54.9154    6.7861   14.8195 C   0  0  0  0  0  0  0  0  0  0  0  0
   55.7756    7.7868   14.4271 N   0  0  0  0  0  0  0  0  0  0  0  0
   52.7033   12.0810   14.9691 N   0  0  0  0  0  0  0  0  0  0  0  0
   51.5695   11.4650   15.4271 C   0  0  0  0  0  0  0  0  0  0  0  0
   51.7016   10.0812   15.4708 C   0  0  0  0  0  0  0  0  0  0  0  0
   50.7265    9.0204   15.9008 C   0  0  2  0  0  0  0  0  0  0  0  0
   49.3876    8.9871   15.1228 C   0  0  1  0  0  0  0  0  0  0  0  0
   48.5156   10.0219   15.8429 C   0  0  0  0  0  0  0  0  0  0  0  0
   49.0389   10.0724   17.2035 N   0  0  0  0  0  0  0  0  0  0  0  0
   50.2417    9.2655   17.3396 C   0  0  0  0  0  0  0  0  0  0  0  0
   49.4573    9.2040   13.6108 C   0  0  0  0  0  0  0  0  0  0  0  0
   50.1909    8.0836   12.8914 C   0  0  0  0  0  0  0  0  0  0  0  0
   48.6890   10.9644   18.1821 C   0  0  0  0  0  0  0  0  0  0  0  0
   47.5465   11.6829   17.9255 N   0  0  0  0  0  0  0  0  0  0  0  0
   49.3497   11.1378   19.2022 O   0  0  0  0  0  0  0  0  0  0  0  0
   47.0977   12.6273   18.9511 C   0  0  0  0  0  0  0  0  0  0  0  0
   46.4226   12.0100   20.1851 C   0  0  0  0  0  0  0  0  0  0  0  0
   46.6345   12.7669   21.2901 F   0  0  0  0  0  0  0  0  0  0  0  0
   45.0767   11.9386   19.9969 F   0  0  0  0  0  0  0  0  0  0  0  0
   46.8458   10.7601   20.4504 F   0  0  0  0  0  0  0  0  0  0  0  0
   51.3412   10.0561   15.6121 H   0  0  0  0  0  0  0  0  0  0  0  0
   50.0079    9.4229   15.9955 H   0  0  0  0  0  0  0  0  0  0  0  0
   54.5163    8.9458   10.7791 H   0  0  0  0  0  0  0  0  0  0  0  0
   49.1226    8.8242   13.6407 H   0  0  0  0  0  0  0  0  0  0  0  0
   48.3894    7.0106   11.7674 H   0  0  0  0  0  0  0  0  0  0  0  0
   50.3710    6.6548   10.2430 H   0  0  0  0  0  0  0  0  0  0  0  0
   53.7651   11.8850   14.6026 H   0  0  0  0  0  0  0  0  0  0  0  0
   50.1206   10.7697   14.6407 H   0  0  0  0  0  0  0  0  0  0  0  0
   50.9704   12.6598   15.8395 H   0  0  0  0  0  0  0  0  0  0  0  0
   49.9365   11.6400   18.1818 H   0  0  0  0  0  0  0  0  0  0  0  0
   48.9695   11.5975   16.6925 H   0  0  0  0  0  0  0  0  0  0  0  0
   51.7157    8.9387   16.5385 H   0  0  0  0  0  0  0  0  0  0  0  0
   50.3233    8.4846   15.5546 H   0  0  0  0  0  0  0  0  0  0  0  0
   52.4681   10.7881   17.7854 H   0  0  0  0  0  0  0  0  0  0  0  0
   53.2969   11.7266   16.5762 H   0  0  0  0  0  0  0  0  0  0  0  0
   51.6171   12.9020   18.8262 H   0  0  0  0  0  0  0  0  0  0  0  0
   53.3711   12.8964   18.6845 H   0  0  0  0  0  0  0  0  0  0  0  0
   52.3987   13.8360   17.5414 H   0  0  0  0  0  0  0  0  0  0  0  0
   48.1049   10.3904   18.6705 H   0  0  0  0  0  0  0  0  0  0  0  0
   48.4918    7.9578   20.3390 H   0  0  0  0  0  0  0  0  0  0  0  0
   47.0199    8.2060   19.3817 H   0  0  0  0  0  0  0  0  0  0  0  0
   55.3096   12.2180   14.1174 H   0  0  0  0  0  0  0  0  0  0  0  0
   52.8337    6.7877   15.4674 H   0  0  0  0  0  0  0  0  0  0  0  0
   55.2558    5.7566   14.8409 H   0  0  0  0  0  0  0  0  0  0  0  0
   56.7385    7.6705   14.1426 H   0  0  0  0  0  0  0  0  0  0  0  0
   50.7050   12.0559   15.7049 H   0  0  0  0  0  0  0  0  0  0  0  0
   51.1920    8.0366   15.8506 H   0  0  0  0  0  0  0  0  0  0  0  0
   48.9335    7.9991   15.3109 H   0  0  0  0  0  0  0  0  0  0  0  0
   47.4572    9.7187   15.8646 H   0  0  0  0  0  0  0  0  0  0  0  0
   48.5786   11.0239   15.3969 H   0  0  0  0  0  0  0  0  0  0  0  0
   50.9906    9.7399   17.9854 H   0  0  0  0  0  0  0  0  0  0  0  0
   49.9315    8.3200   17.8032 H   0  0  0  0  0  0  0  0  0  0  0  0
   49.9339   10.1593   13.3726 H   0  0  0  0  0  0  0  0  0  0  0  0
   48.4392    9.2616   13.2097 H   0  0  0  0  0  0  0  0  0  0  0  0
   51.2084    7.9547   13.2636 H   0  0  0  0  0  0  0  0  0  0  0  0
   50.2558    8.3094   11.8226 H   0  0  0  0  0  0  0  0  0  0  0  0
   49.6610    7.1328   13.0031 H   0  0  0  0  0  0  0  0  0  0  0  0
   46.8251   11.1355   17.4749 H   0  0  0  0  0  0  0  0  0  0  0  0
   47.9678   13.2226   19.2740 H   0  0  0  0  0  0  0  0  0  0  0  0
   46.4022   13.3217   18.4578 H   0  0  0  0  0  0  0  0  0  0  0  0
  2  3  1  0
  4  5  1  0
  6  7  1  0
  7  2  2  0
  3 10  1  0
  3  4  2  0
  4  8  1  0
  8  9  2  0
  9 10  1  0
  5 13  1  0
  5  6  1  0
  6 11  2  0
 11 12  1  0
 12 13  2  0
 14 13  1  0
 14 15  1  0
 14 18  1  0
 15 16  1  0
 16 17  1  0
 17 18  1  0
 15 19  1  0
 19 20  1  0
 17 21  1  0
 21 22  1  0
 21 23  2  0
 22 24  1  0
 24 25  1  0
 25 26  1  0
 25 27  1  0
 25 28  1  0
 29 30  1  0
 31 32  1  0
 33 34  1  0
 34 29  2  0
 30 37  1  0
 30 31  2  0
 31 35  1  0
 35 36  2  0
 36 37  1  0
 32 40  1  0
 32 33  1  0
 33 38  2  0
 38 39  1  0
 39 40  2  0
 41 40  1  0
 41 42  1  0
 41 45  1  0
 42 43  1  0
 43 44  1  0
 44 45  1  0
 42 46  1  0
 46 47  1  0
 44 48  1  0
 48 49  1  0
 48 50  2  0
 49 51  1  0
 51 52  1  0
 52 53  1  0
 52 54  1  0
 52 55  1  0
  1 56  1  0
  1 57  1  0
  7 58  1  0
  8 59  1  0
  9 60  1  0
 10 61  1  0
 12 62  1  0
 14 63  1  1
 15 64  1  1
 16 65  1  0
 16 66  1  0
 18 67  1  0
 18 68  1  0
 19 69  1  0
 19 70  1  0
 20 71  1  0
 20 72  1  0
 20 73  1  0
 22 74  1  0
 24 75  1  0
 24 76  1  0
 34 77  1  0
 35 78  1  0
 36 79  1  0
 37 80  1  0
 39 81  1  0
 41 82  1  6
 42 83  1  6
 43 84  1  0
 43 85  1  0
 45 86  1  0
 45 87  1  0
 46 88  1  0
 46 89  1  0
 47 90  1  0
 47 91  1  0
 47 92  1  0
 49 93  1  0
 51 94  1  0
 51 95  1  0
M  END
> <Uni-Dock RESULT> 
ENERGY=   -4.343  LOWER_BOUND=    4.308  UPPER_BOUND=    6.428
INTER + INTRA:          -4.343
INTER:                  -4.343
INTRA:                   0.000
UNBOUND:                 0.000

$$$$

     RDKit          3D

 95100  0  0  0  0  0  0  0  0999 V2000
   50.0389    8.6389   18.1111 O   0  0  0  0  0  0  0  0  0  0  0  0
   50.4507   14.0227   21.1353 N   0  0  0  0  0  0  0  0  0  0  0  0
   50.2739   12.7161   21.4753 C   0  0  0  0  0  0  0  0  0  0  0  0
   50.3951   11.5836   20.6900 C   0  0  0  0  0  0  0  0  0  0  0  0
   50.7523   11.7984   19.3429 N   0  0  0  0  0  0  0  0  0  0  0  0
   50.9881   13.1009   18.9528 C   0  0  0  0  0  0  0  0  0  0  0  0
   50.8073   14.1957   19.8841 C   0  0  0  0  0  0  0  0  0  0  0  0
   50.1605   10.4497   21.4824 C   0  0  0  0  0  0  0  0  0  0  0  0
   49.8674   10.9233   22.7491 C   0  0  0  0  0  0  0  0  0  0  0  0
   49.9388   12.2964   22.7311 N   0  0  0  0  0  0  0  0  0  0  0  0
   51.4237   13.1743   17.7165 N   0  0  0  0  0  0  0  0  0  0  0  0
   51.4445   11.8692   17.2857 C   0  0  0  0  0  0  0  0  0  0  0  0
   50.9525   10.9868   18.2385 C   0  0  0  0  0  0  0  0  0  0  0  0
   50.7201    9.5107   18.2389 C   0  0  2  0  0  0  0  0  0  0  0  0
   51.1658    8.6608   17.0145 C   0  0  1  0  0  0  0  0  0  0  0  0
   50.5572    7.2995   17.4221 C   0  0  0  0  0  0  0  0  0  0  0  0
   49.2989    7.6475   18.0753 N   0  0  0  0  0  0  0  0  0  0  0  0
   49.2599    9.0678   18.3896 C   0  0  0  0  0  0  0  0  0  0  0  0
   50.6026    9.0757   15.6302 C   0  0  0  0  0  0  0  0  0  0  0  0
   51.2050    8.2675   14.4848 C   0  0  0  0  0  0  0  0  0  0  0  0
   48.1944    6.8585   18.2648 C   0  0  0  0  0  0  0  0  0  0  0  0
   48.3585    5.5490   17.9025 N   0  0  0  0  0  0  0  0  0  0  0  0
   47.1346    7.2868   18.7124 O   0  0  0  0  0  0  0  0  0  0  0  0
   47.2821    4.5820   18.1194 C   0  0  0  0  0  0  0  0  0  0  0  0
   47.5039    3.2387   17.4332 C   0  0  0  0  0  0  0  0  0  0  0  0
   47.5365    3.3582   16.0890 F   0  0  0  0  0  0  0  0  0  0  0  0
   48.6829    2.6960   17.8251 F   0  0  0  0  0  0  0  0  0  0  0  0
   46.5228    2.3647   17.7517 F   0  0  0  0  0  0  0  0  0  0  0  0
   50.2922   13.7725   16.0718 N   0  0  0  0  0  0  0  0  0  0  0  0
   49.1830   13.4010   16.7708 C   0  0  0  0  0  0  0  0  0  0  0  0
   48.9191   12.2114   17.4284 C   0  0  0  0  0  0  0  0  0  0  0  0
   49.9378   11.2381   17.3767 N   0  0  0  0  0  0  0  0  0  0  0  0
   51.0810   11.5569   16.6711 C   0  0  0  0  0  0  0  0  0  0  0  0
   51.2207   12.8459   16.0267 C   0  0  0  0  0  0  0  0  0  0  0  0
   47.6355   12.2844   17.9970 C   0  0  0  0  0  0  0  0  0  0  0  0
   47.1363   13.5319   17.6609 C   0  0  0  0  0  0  0  0  0  0  0  0
   48.0848   14.1997   16.9195 N   0  0  0  0  0  0  0  0  0  0  0  0
   51.9524   10.5740   16.6570 N   0  0  0  0  0  0  0  0  0  0  0  0
   51.3420    9.5721   17.3631 C   0  0  0  0  0  0  0  0  0  0  0  0
   50.1004    9.9562   17.8584 C   0  0  0  0  0  0  0  0  0  0  0  0
   49.0964    9.1917   18.6758 C   0  0  2  0  0  0  0  0  0  0  0  0
   49.6077    8.6599   20.0377 C   0  0  1  0  0  0  0  0  0  0  0  0
   50.2756    7.3256   19.6864 C   0  0  0  0  0  0  0  0  0  0  0  0
   49.6050    6.8786   18.4707 N   0  0  0  0  0  0  0  0  0  0  0  0
   48.6856    7.8886   17.9698 C   0  0  0  0  0  0  0  0  0  0  0  0
   50.5078    9.5893   20.8526 C   0  0  0  0  0  0  0  0  0  0  0  0
   49.7827   10.8374   21.3294 C   0  0  0  0  0  0  0  0  0  0  0  0
   49.9593    5.8141   17.6850 C   0  0  0  0  0  0  0  0  0  0  0  0
   50.8516    4.9434   18.2621 N   0  0  0  0  0  0  0  0  0  0  0  0
   49.5405    5.6520   16.5424 O   0  0  0  0  0  0  0  0  0  0  0  0
   51.2416    3.7634   17.4871 C   0  0  0  0  0  0  0  0  0  0  0  0
   50.2023    2.6349   17.4106 C   0  0  0  0  0  0  0  0  0  0  0  0
   50.3076    1.9495   16.2452 F   0  0  0  0  0  0  0  0  0  0  0  0
   50.4005    1.7454   18.4212 F   0  0  0  0  0  0  0  0  0  0  0  0
   48.9347    3.0741   17.5210 F   0  0  0  0  0  0  0  0  0  0  0  0
   50.0570    9.6021   18.0106 H   0  0  0  0  0  0  0  0  0  0  0  0
   49.4925    8.4985   18.8989 H   0  0  0  0  0  0  0  0  0  0  0  0
   50.9906   15.2167   19.5192 H   0  0  0  0  0  0  0  0  0  0  0  0
   50.2057    9.4024   21.2144 H   0  0  0  0  0  0  0  0  0  0  0  0
   49.6130   10.3998   23.6618 H   0  0  0  0  0  0  0  0  0  0  0  0
   49.7784   12.9153   23.5135 H   0  0  0  0  0  0  0  0  0  0  0  0
   51.8218   11.6474   16.2956 H   0  0  0  0  0  0  0  0  0  0  0  0
   51.2954    9.1105   19.0911 H   0  0  0  0  0  0  0  0  0  0  0  0
   52.2610    8.5972   16.9614 H   0  0  0  0  0  0  0  0  0  0  0  0
   50.3891    6.6087   16.5911 H   0  0  0  0  0  0  0  0  0  0  0  0
   51.1842    6.7963   18.1683 H   0  0  0  0  0  0  0  0  0  0  0  0
   48.5960    9.5701   17.6766 H   0  0  0  0  0  0  0  0  0  0  0  0
   48.8461    9.2181   19.3874 H   0  0  0  0  0  0  0  0  0  0  0  0
   49.5157    8.9624   15.5967 H   0  0  0  0  0  0  0  0  0  0  0  0
   50.8032   10.1203   15.4183 H   0  0  0  0  0  0  0  0  0  0  0  0
   50.9670    7.2057   14.5559 H   0  0  0  0  0  0  0  0  0  0  0  0
   50.8073    8.6238   13.5264 H   0  0  0  0  0  0  0  0  0  0  0  0
   52.2926    8.3749   14.4575 H   0  0  0  0  0  0  0  0  0  0  0  0
   49.3013    5.2012   18.0020 H   0  0  0  0  0  0  0  0  0  0  0  0
   46.3409    5.0197   17.7688 H   0  0  0  0  0  0  0  0  0  0  0  0
   47.1996    4.4335   19.2053 H   0  0  0  0  0  0  0  0  0  0  0  0
   52.1468   13.0409   15.4683 H   0  0  0  0  0  0  0  0  0  0  0  0
   47.0930   11.5563   18.5821 H   0  0  0  0  0  0  0  0  0  0  0  0
   46.1872   14.0081   17.8815 H   0  0  0  0  0  0  0  0  0  0  0  0
   47.9970   15.1302   16.5346 H   0  0  0  0  0  0  0  0  0  0  0  0
   51.8334    8.6138   17.4810 H   0  0  0  0  0  0  0  0  0  0  0  0
   48.2052    9.7964   18.8417 H   0  0  0  0  0  0  0  0  0  0  0  0
   48.7161    8.4223   20.6429 H   0  0  0  0  0  0  0  0  0  0  0  0
   50.1357    6.5777   20.4825 H   0  0  0  0  0  0  0  0  0  0  0  0
   51.3519    7.4214   19.4880 H   0  0  0  0  0  0  0  0  0  0  0  0
   48.6959    7.9549   16.8751 H   0  0  0  0  0  0  0  0  0  0  0  0
   47.6815    7.5820   18.2904 H   0  0  0  0  0  0  0  0  0  0  0  0
   51.3920    9.8820   20.2790 H   0  0  0  0  0  0  0  0  0  0  0  0
   50.8781    9.0497   21.7315 H   0  0  0  0  0  0  0  0  0  0  0  0
   49.3642   11.4102   20.5005 H   0  0  0  0  0  0  0  0  0  0  0  0
   50.4801   11.4899   21.8637 H   0  0  0  0  0  0  0  0  0  0  0  0
   48.9695   10.5806   22.0150 H   0  0  0  0  0  0  0  0  0  0  0  0
   50.6814    4.7949   19.2481 H   0  0  0  0  0  0  0  0  0  0  0  0
   51.4954    4.0921   16.4657 H   0  0  0  0  0  0  0  0  0  0  0  0
   52.1690    3.3819   17.9385 H   0  0  0  0  0  0  0  0  0  0  0  0
  2  3  1  0
  4  5  1  0
  6  7  1  0
  7  2  2  0
  3 10  1  0
  3  4  2  0
  4  8  1  0
  8  9  2  0
  9 10  1  0
  5 13  1  0
  5  6  1  0
  6 11  2  0
 11 12  1  0
 12 13  2  0
 14 13  1  0
 14 15  1  0
 14 18  1  0
 15 16  1  0
 16 17  1  0
 17 18  1  0
 15 19  1  0
 19 20  1  0
 17 21  1  0
 21 22  1  0
 21 23  2  0
 22 24  1  0
 24 25  1  0
 25 26  1  0
 25 27  1  0
 25 28  1  0
 29 30  1  0
 31 32  1  0
 33 34  1  0
 34 29  2  0
 30 37  1  0
 30 31  2  0
 31 35  1  0
 35 36  2  0
 36 37  1  0
 32 40  1  0
 32 33  1  0
 33 38  2  0
 38 39  1  0
 39 40  2  0
 41 40  1  0
 41 42  1  0
 41 45  1  0
 42 43  1  0
 43 44  1  0
 44 45  1  0
 42 46  1  0
 46 47  1  0
 44 48  1  0
 48 49  1  0
 48 50  2  0
 49 51  1  0
 51 52  1  0
 52 53  1  0
 52 54  1  0
 52 55  1  0
  1 56  1  0
  1 57  1  0
  7 58  1  0
  8 59  1  0
  9 60  1  0
 10 61  1  0
 12 62  1  0
 14 63  1  1
 15 64  1  1
 16 65  1  0
 16 66  1  0
 18 67  1  0
 18 68  1  0
 19 69  1  0
 19 70  1  0
 20 71  1  0
 20 72  1  0
 20 73  1  0
 22 74  1  0
 24 75  1  0
 24 76  1  0
 34 77  1  0
 35 78  1  0
 36 79  1  0
 37 80  1  0
 39 81  1  0
 41 82  1  6
 42 83  1  6
 43 84  1  0
 43 85  1  0
 45 86  1  0
 45 87  1  0
 46 88  1  0
 46 89  1  0
 47 90  1  0
 47 91  1  0
 47 92  1  0
 49 93  1  0
 51 94  1  0
 51 95  1  0
M  END
> <Uni-Dock RESULT> 
ENERGY=   -4.279  LOWER_BOUND=    1.787  UPPER_BOUND=    4.398
INTER + INTRA:          -4.279
INTER:                  -4.279
INTRA:                   0.000
UNBOUND:                 0.000

$$$$

     RDKit          3D

 95100  0  0  0  0  0  0  0  0999 V2000
   44.7868   12.4507   11.0069 O   0  0  0  0  0  0  0  0  0  0  0  0
   39.4090   14.4522    8.6888 N   0  0  0  0  0  0  0  0  0  0  0  0
   40.7032   14.8749    8.6736 C   0  0  0  0  0  0  0  0  0  0  0  0
   41.8455   14.2104    9.0832 C   0  0  0  0  0  0  0  0  0  0  0  0
   41.6571   12.9087    9.5912 N   0  0  0  0  0  0  0  0  0  0  0  0
   40.3701   12.4108    9.5891 C   0  0  0  0  0  0  0  0  0  0  0  0
   39.2617   13.2292    9.1417 C   0  0  0  0  0  0  0  0  0  0  0  0
   42.9615   15.0251    8.8390 C   0  0  0  0  0  0  0  0  0  0  0  0
   42.4659   16.2009    8.3035 C   0  0  0  0  0  0  0  0  0  0  0  0
   41.0979   16.0972    8.2092 N   0  0  0  0  0  0  0  0  0  0  0  0
   40.3261   11.1562    9.9731 N   0  0  0  0  0  0  0  0  0  0  0  0
   41.6334   10.8420   10.2582 C   0  0  0  0  0  0  0  0  0  0  0  0
   42.4848   11.9300   10.1163 C   0  0  0  0  0  0  0  0  0  0  0  0
   43.9479   12.1187   10.3538 C   0  0  2  0  0  0  0  0  0  0  0  0
   44.8264   10.8990   10.7547 C   0  0  1  0  0  0  0  0  0  0  0  0
   46.1541   11.6346   11.0476 C   0  0  0  0  0  0  0  0  0  0  0  0
   45.7417   12.8956   11.6565 N   0  0  0  0  0  0  0  0  0  0  0  0
   44.3190   13.1229   11.4514 C   0  0  0  0  0  0  0  0  0  0  0  0
   44.3942   10.1077   12.0167 C   0  0  0  0  0  0  0  0  0  0  0  0
   45.2381    8.8568   12.2433 C   0  0  0  0  0  0  0  0  0  0  0  0
   46.4753   13.7313   12.4575 C   0  0  0  0  0  0  0  0  0  0  0  0
   47.7936   13.3872   12.5871 N   0  0  0  0  0  0  0  0  0  0  0  0
   45.9936   14.7065   13.0268 O   0  0  0  0  0  0  0  0  0  0  0  0
   48.7062   14.2344   13.3553 C   0  0  0  0  0  0  0  0  0  0  0  0
   50.0632   13.5969   13.6326 C   0  0  0  0  0  0  0  0  0  0  0  0
   49.9543   12.4936   14.4027 F   0  0  0  0  0  0  0  0  0  0  0  0
   50.6594   13.2293   12.4717 F   0  0  0  0  0  0  0  0  0  0  0  0
   50.8868   14.4658   14.2607 F   0  0  0  0  0  0  0  0  0  0  0  0
   39.6850   10.4873   11.8399 N   0  0  0  0  0  0  0  0  0  0  0  0
   39.9981   11.7208   12.3268 C   0  0  0  0  0  0  0  0  0  0  0  0
   41.1692   12.4465   12.1883 C   0  0  0  0  0  0  0  0  0  0  0  0
   42.1907   11.8324   11.4353 N   0  0  0  0  0  0  0  0  0  0  0  0
   41.9320   10.5751   10.9268 C   0  0  0  0  0  0  0  0  0  0  0  0
   40.6555    9.9305   11.1537 C   0  0  0  0  0  0  0  0  0  0  0  0
   41.0308   13.6640   12.8774 C   0  0  0  0  0  0  0  0  0  0  0  0
   39.7629   13.6484   13.4350 C   0  0  0  0  0  0  0  0  0  0  0  0
   39.1465   12.4661   13.0920 N   0  0  0  0  0  0  0  0  0  0  0  0
   42.9558   10.0791   10.2699 N   0  0  0  0  0  0  0  0  0  0  0  0
   43.9224   11.0432   10.3740 C   0  0  0  0  0  0  0  0  0  0  0  0
   43.4757   12.1663   11.0623 C   0  0  0  0  0  0  0  0  0  0  0  0
   44.1855   13.4459   11.4080 C   0  0  2  0  0  0  0  0  0  0  0  0
   44.7323   14.2541   10.2050 C   0  0  1  0  0  0  0  0  0  0  0  0
   46.0994   13.6201    9.9244 C   0  0  0  0  0  0  0  0  0  0  0  0
   46.5218   13.0574   11.2021 N   0  0  0  0  0  0  0  0  0  0  0  0
   45.4720   13.1673   12.2032 C   0  0  0  0  0  0  0  0  0  0  0  0
   43.8418   14.3419    8.9651 C   0  0  0  0  0  0  0  0  0  0  0  0
   42.5571   15.1136    9.2198 C   0  0  0  0  0  0  0  0  0  0  0  0
   47.6072   12.2517   11.4225 C   0  0  0  0  0  0  0  0  0  0  0  0
   48.5160   12.2145   10.3929 N   0  0  0  0  0  0  0  0  0  0  0  0
   47.7566   11.5884   12.4447 O   0  0  0  0  0  0  0  0  0  0  0  0
   49.7186   11.4001   10.5823 C   0  0  0  0  0  0  0  0  0  0  0  0
   50.7963   11.9950   11.5012 C   0  0  0  0  0  0  0  0  0  0  0  0
   51.4937   11.0194   12.1344 F   0  0  0  0  0  0  0  0  0  0  0  0
   51.6875   12.7192   10.7712 F   0  0  0  0  0  0  0  0  0  0  0  0
   50.2959   12.8223   12.4375 F   0  0  0  0  0  0  0  0  0  0  0  0
   43.8263   12.3264   11.0188 H   0  0  0  0  0  0  0  0  0  0  0  0
   44.8955   13.4132   10.9813 H   0  0  0  0  0  0  0  0  0  0  0  0
   38.2531   12.7924    9.1764 H   0  0  0  0  0  0  0  0  0  0  0  0
   44.0115   14.8186    8.9986 H   0  0  0  0  0  0  0  0  0  0  0  0
   42.9705   17.1031    7.9823 H   0  0  0  0  0  0  0  0  0  0  0  0
   40.4668   16.8001    7.8507 H   0  0  0  0  0  0  0  0  0  0  0  0
   41.8797    9.8299   10.5527 H   0  0  0  0  0  0  0  0  0  0  0  0
   44.3696   12.4749    9.3985 H   0  0  0  0  0  0  0  0  0  0  0  0
   44.9430   10.2073    9.9095 H   0  0  0  0  0  0  0  0  0  0  0  0
   46.8416   11.0905   11.7014 H   0  0  0  0  0  0  0  0  0  0  0  0
   46.6820   11.8784   10.1175 H   0  0  0  0  0  0  0  0  0  0  0  0
   43.7902   12.9278   12.3915 H   0  0  0  0  0  0  0  0  0  0  0  0
   44.1424   14.1654   11.1842 H   0  0  0  0  0  0  0  0  0  0  0  0
   44.4553   10.7308   12.9129 H   0  0  0  0  0  0  0  0  0  0  0  0
   43.3619    9.7827   11.9456 H   0  0  0  0  0  0  0  0  0  0  0  0
   46.2867    9.0916   12.4288 H   0  0  0  0  0  0  0  0  0  0  0  0
   44.8695    8.3113   13.1208 H   0  0  0  0  0  0  0  0  0  0  0  0
   45.1833    8.1847   11.3829 H   0  0  0  0  0  0  0  0  0  0  0  0
   48.1857   12.9184   11.7831 H   0  0  0  0  0  0  0  0  0  0  0  0
   48.2261   14.4974   14.3043 H   0  0  0  0  0  0  0  0  0  0  0  0
   48.8433   15.1608   12.7801 H   0  0  0  0  0  0  0  0  0  0  0  0
   40.5090    8.9247   10.7361 H   0  0  0  0  0  0  0  0  0  0  0  0
   41.7280   14.4813   12.9897 H   0  0  0  0  0  0  0  0  0  0  0  0
   39.2402   14.3737   14.0488 H   0  0  0  0  0  0  0  0  0  0  0  0
   38.2155   12.1775   13.3594 H   0  0  0  0  0  0  0  0  0  0  0  0
   44.9024   10.8785    9.9427 H   0  0  0  0  0  0  0  0  0  0  0  0
   43.5376   14.0885   12.0034 H   0  0  0  0  0  0  0  0  0  0  0  0
   44.9226   15.2784   10.5685 H   0  0  0  0  0  0  0  0  0  0  0  0
   46.8344   14.3682    9.5886 H   0  0  0  0  0  0  0  0  0  0  0  0
   46.0569   12.8176    9.1754 H   0  0  0  0  0  0  0  0  0  0  0  0
   45.4136   12.2795   12.8446 H   0  0  0  0  0  0  0  0  0  0  0  0
   45.7278   14.0322   12.8289 H   0  0  0  0  0  0  0  0  0  0  0  0
   43.5958   13.3455    8.5868 H   0  0  0  0  0  0  0  0  0  0  0  0
   44.3927   14.8461    8.1632 H   0  0  0  0  0  0  0  0  0  0  0  0
   41.9704   14.6771   10.0295 H   0  0  0  0  0  0  0  0  0  0  0  0
   41.9354   15.1060    8.3193 H   0  0  0  0  0  0  0  0  0  0  0  0
   42.7699   16.1566    9.4732 H   0  0  0  0  0  0  0  0  0  0  0  0
   48.6496   13.1128    9.9475 H   0  0  0  0  0  0  0  0  0  0  0  0
   49.4093   10.4176   10.9754 H   0  0  0  0  0  0  0  0  0  0  0  0
   50.1412   11.2244    9.5824 H   0  0  0  0  0  0  0  0  0  0  0  0
  2  3  1  0
  4  5  1  0
  6  7  1  0
  7  2  2  0
  3 10  1  0
  3  4  2  0
  4  8  1  0
  8  9  2  0
  9 10  1  0
  5 13  1  0
  5  6  1  0
  6 11  2  0
 11 12  1  0
 12 13  2  0
 14 13  1  0
 14 15  1  0
 14 18  1  0
 15 16  1  0
 16 17  1  0
 17 18  1  0
 15 19  1  0
 19 20  1  0
 17 21  1  0
 21 22  1  0
 21 23  2  0
 22 24  1  0
 24 25  1  0
 25 26  1  0
 25 27  1  0
 25 28  1  0
 29 30  1  0
 31 32  1  0
 33 34  1  0
 34 29  2  0
 30 37  1  0
 30 31  2  0
 31 35  1  0
 35 36  2  0
 36 37  1  0
 32 40  1  0
 32 33  1  0
 33 38  2  0
 38 39  1  0
 39 40  2  0
 41 40  1  0
 41 42  1  0
 41 45  1  0
 42 43  1  0
 43 44  1  0
 44 45  1  0
 42 46  1  0
 46 47  1  0
 44 48  1  0
 48 49  1  0
 48 50  2  0
 49 51  1  0
 51 52  1  0
 52 53  1  0
 52 54  1  0
 52 55  1  0
  1 56  1  0
  1 57  1  0
  7 58  1  0
  8 59  1  0
  9 60  1  0
 10 61  1  0
 12 62  1  0
 14 63  1  1
 15 64  1  1
 16 65  1  0
 16 66  1  0
 18 67  1  0
 18 68  1  0
 19 69  1  0
 19 70  1  0
 20 71  1  0
 20 72  1  0
 20 73  1  0
 22 74  1  0
 24 75  1  0
 24 76  1  0
 34 77  1  0
 35 78  1  0
 36 79  1  0
 37 80  1  0
 39 81  1  0
 41 82  1  6
 42 83  1  6
 43 84  1  0
 43 85  1  0
 45 86  1  0
 45 87  1  0
 46 88  1  0
 46 89  1  0
 47 90  1  0
 47 91  1  0
 47 92  1  0
 49 93  1  0
 51 94  1  0
 51 95  1  0
M  END
> <Uni-Dock RESULT> 
ENERGY=   -4.175  LOWER_BOUND=    7.699  UPPER_BOUND=   10.103
INTER + INTRA:          -4.175
INTER:                  -4.175
INTRA:                   0.000
UNBOUND:                 0.000

$$$$
