
     RDKit          3D

 95100  0  0  0  0  0  0  0  0999 V2000
   49.3169    8.3331   16.3738 O   0  0  0  0  0  0  0  0  0  0  0  0
   51.2649    3.3917   17.7090 N   0  0  0  0  0  0  0  0  0  0  0  0
   49.9992    3.5493   17.2314 C   0  0  0  0  0  0  0  0  0  0  0  0
   49.3179    4.7115   16.9236 C   0  0  0  0  0  0  0  0  0  0  0  0
   50.0219    5.9126   17.1312 N   0  0  0  0  0  0  0  0  0  0  0  0
   51.3126    5.8183   17.6104 C   0  0  0  0  0  0  0  0  0  0  0  0
   51.9027    4.5236   17.8919 C   0  0  0  0  0  0  0  0  0  0  0  0
   48.0373    4.3821   16.4538 C   0  0  0  0  0  0  0  0  0  0  0  0
   47.9616    3.0009   16.4908 C   0  0  0  0  0  0  0  0  0  0  0  0
   49.1565    2.5069   16.9658 N   0  0  0  0  0  0  0  0  0  0  0  0
   51.8788    6.9947   17.7553 N   0  0  0  0  0  0  0  0  0  0  0  0
   50.9109    7.8866   17.3655 C   0  0  0  0  0  0  0  0  0  0  0  0
   49.7424    7.2517   16.9623 C   0  0  0  0  0  0  0  0  0  0  0  0
   48.4408    7.8103   16.4596 C   0  0  2  0  0  0  0  0  0  0  0  0
   48.4508    8.1838   14.9585 C   0  0  1  0  0  0  0  0  0  0  0  0
   49.0470    9.5956   14.9471 C   0  0  0  0  0  0  0  0  0  0  0  0
   48.6656   10.1708   16.2287 N   0  0  0  0  0  0  0  0  0  0  0  0
   48.0908    9.1620   17.1086 C   0  0  0  0  0  0  0  0  0  0  0  0
   49.1493    7.2048   14.0115 C   0  0  0  0  0  0  0  0  0  0  0  0
   49.0144    7.6114   12.5501 C   0  0  0  0  0  0  0  0  0  0  0  0
   48.8764   11.4462   16.6809 C   0  0  0  0  0  0  0  0  0  0  0  0
   49.4903   12.2838   15.7894 N   0  0  0  0  0  0  0  0  0  0  0  0
   48.5716   11.8118   17.8113 O   0  0  0  0  0  0  0  0  0  0  0  0
   49.6533   13.6996   16.1257 C   0  0  0  0  0  0  0  0  0  0  0  0
   48.4051   14.5615   15.9195 C   0  0  0  0  0  0  0  0  0  0  0  0
   48.6892   15.8674   16.1353 F   0  0  0  0  0  0  0  0  0  0  0  0
   47.3814   14.2250   16.7266 F   0  0  0  0  0  0  0  0  0  0  0  0
   47.9710   14.4557   14.6382 F   0  0  0  0  0  0  0  0  0  0  0  0
   51.1555    3.7243   18.0823 N   0  0  0  0  0  0  0  0  0  0  0  0
   49.8240    3.9532   17.9107 C   0  0  0  0  0  0  0  0  0  0  0  0
   49.1833    5.0837   17.4401 C   0  0  0  0  0  0  0  0  0  0  0  0
   50.0160    6.1618   17.0856 N   0  0  0  0  0  0  0  0  0  0  0  0
   51.3774    5.9865   17.2264 C   0  0  0  0  0  0  0  0  0  0  0  0
   51.9123    4.7386   17.7363 C   0  0  0  0  0  0  0  0  0  0  0  0
   47.7992    4.8539   17.4245 C   0  0  0  0  0  0  0  0  0  0  0  0
   47.6213    3.5673   17.9018 C   0  0  0  0  0  0  0  0  0  0  0  0
   48.8561    3.0313   18.1942 N   0  0  0  0  0  0  0  0  0  0  0  0
   52.0584    7.0450   16.8503 N   0  0  0  0  0  0  0  0  0  0  0  0
   51.0992    7.9414   16.4512 C   0  0  0  0  0  0  0  0  0  0  0  0
   49.8133    7.4351   16.5974 C   0  0  0  0  0  0  0  0  0  0  0  0
   48.4732    8.0545   16.3177 C   0  0  2  0  0  0  0  0  0  0  0  0
   48.0678    8.0515   14.8266 C   0  0  1  0  0  0  0  0  0  0  0  0
   48.7424    9.3106   14.2721 C   0  0  0  0  0  0  0  0  0  0  0  0
   48.8052   10.2289   15.3987 N   0  0  0  0  0  0  0  0  0  0  0  0
   48.4463    9.5600   16.6438 C   0  0  0  0  0  0  0  0  0  0  0  0
   48.3726    6.7757   14.0378 C   0  0  0  0  0  0  0  0  0  0  0  0
   47.8434    6.8333   12.6113 C   0  0  0  0  0  0  0  0  0  0  0  0
   49.0331   11.5633   15.1886 C   0  0  0  0  0  0  0  0  0  0  0  0
   48.9965   12.3432   16.3132 N   0  0  0  0  0  0  0  0  0  0  0  0
   49.2255   12.0395   14.0748 O   0  0  0  0  0  0  0  0  0  0  0  0
   49.3393   13.7636   16.2125 C   0  0  0  0  0  0  0  0  0  0  0  0
   50.8397   14.0671   16.1832 C   0  0  0  0  0  0  0  0  0  0  0  0
   51.4382   13.5607   17.2902 F   0  0  0  0  0  0  0  0  0  0  0  0
   51.0528   15.4039   16.1914 F   0  0  0  0  0  0  0  0  0  0  0  0
   51.4687   13.5560   15.1086 F   0  0  0  0  0  0  0  0  0  0  0  0
   49.1277    8.9959   15.6927 H   0  0  0  0  0  0  0  0  0  0  0  0
   49.2536    7.4888   15.9026 H   0  0  0  0  0  0  0  0  0  0  0  0
   52.9350    4.4983   18.2764 H   0  0  0  0  0  0  0  0  0  0  0  0
   47.2432    5.0331   16.1175 H   0  0  0  0  0  0  0  0  0  0  0  0
   47.1618    2.3238   16.2209 H   0  0  0  0  0  0  0  0  0  0  0  0
   49.3927    1.5334   17.1017 H   0  0  0  0  0  0  0  0  0  0  0  0
   51.1034    8.9535   17.3944 H   0  0  0  0  0  0  0  0  0  0  0  0
   47.6324    7.1103   16.6843 H   0  0  0  0  0  0  0  0  0  0  0  0
   47.3989    8.2673   14.6460 H   0  0  0  0  0  0  0  0  0  0  0  0
   50.1408    9.5938   14.8830 H   0  0  0  0  0  0  0  0  0  0  0  0
   48.6444   10.1999   14.1280 H   0  0  0  0  0  0  0  0  0  0  0  0
   48.4506    9.2740   18.1368 H   0  0  0  0  0  0  0  0  0  0  0  0
   47.0059    9.3215   17.1039 H   0  0  0  0  0  0  0  0  0  0  0  0
   48.7125    6.2079   14.1329 H   0  0  0  0  0  0  0  0  0  0  0  0
   50.2161    7.1231   14.2495 H   0  0  0  0  0  0  0  0  0  0  0  0
   47.9619    7.6986   12.2623 H   0  0  0  0  0  0  0  0  0  0  0  0
   49.5066    8.5691   12.3548 H   0  0  0  0  0  0  0  0  0  0  0  0
   49.4802    6.8589   11.9055 H   0  0  0  0  0  0  0  0  0  0  0  0
   49.3575   12.0693   14.8135 H   0  0  0  0  0  0  0  0  0  0  0  0
   50.4569   14.0740   15.4834 H   0  0  0  0  0  0  0  0  0  0  0  0
   49.9892   13.7830   17.1648 H   0  0  0  0  0  0  0  0  0  0  0  0
   53.0058    4.6470   17.8358 H   0  0  0  0  0  0  0  0  0  0  0  0
   46.9998    5.5076   17.1068 H   0  0  0  0  0  0  0  0  0  0  0  0
   46.7242    2.9820   18.0557 H   0  0  0  0  0  0  0  0  0  0  0  0
   49.0388    2.1051   18.5553 H   0  0  0  0  0  0  0  0  0  0  0  0
   51.3837    8.9194   16.0788 H   0  0  0  0  0  0  0  0  0  0  0  0
   47.7113    7.5667   16.9304 H   0  0  0  0  0  0  0  0  0  0  0  0
   46.9807    8.2198   14.7939 H   0  0  0  0  0  0  0  0  0  0  0  0
   49.7669    9.1236   13.9322 H   0  0  0  0  0  0  0  0  0  0  0  0
   48.1757    9.7537   13.4463 H   0  0  0  0  0  0  0  0  0  0  0  0
   49.1193    9.8467   17.4574 H   0  0  0  0  0  0  0  0  0  0  0  0
   47.4307    9.8843   16.9004 H   0  0  0  0  0  0  0  0  0  0  0  0
   47.9135    5.9188   14.5428 H   0  0  0  0  0  0  0  0  0  0  0  0
   49.4515    6.5883   13.9980 H   0  0  0  0  0  0  0  0  0  0  0  0
   48.0265    5.8812   12.1032 H   0  0  0  0  0  0  0  0  0  0  0  0
   48.3379    7.6203   12.0343 H   0  0  0  0  0  0  0  0  0  0  0  0
   46.7655    7.0219   12.5992 H   0  0  0  0  0  0  0  0  0  0  0  0
   49.2578   11.8872   17.1736 H   0  0  0  0  0  0  0  0  0  0  0  0
   48.8612   14.1844   15.3211 H   0  0  0  0  0  0  0  0  0  0  0  0
   48.8938   14.2465   17.0884 H   0  0  0  0  0  0  0  0  0  0  0  0
  2  3  1  0
  4  5  1  0
  6  7  1  0
  7  2  2  0
  3 10  1  0
  3  4  2  0
  4  8  1  0
  8  9  2  0
  9 10  1  0
  5 13  1  0
  5  6  1  0
  6 11  2  0
 11 12  1  0
 12 13  2  0
 14 13  1  0
 14 15  1  0
 14 18  1  0
 15 16  1  0
 16 17  1  0
 17 18  1  0
 15 19  1  0
 19 20  1  0
 17 21  1  0
 21 22  1  0
 21 23  2  0
 22 24  1  0
 24 25  1  0
 25 26  1  0
 25 27  1  0
 25 28  1  0
 29 30  1  0
 31 32  1  0
 33 34  1  0
 34 29  2  0
 30 37  1  0
 30 31  2  0
 31 35  1  0
 35 36  2  0
 36 37  1  0
 32 40  1  0
 32 33  1  0
 33 38  2  0
 38 39  1  0
 39 40  2  0
 41 40  1  0
 41 42  1  0
 41 45  1  0
 42 43  1  0
 43 44  1  0
 44 45  1  0
 42 46  1  0
 46 47  1  0
 44 48  1  0
 48 49  1  0
 48 50  2  0
 49 51  1  0
 51 52  1  0
 52 53  1  0
 52 54  1  0
 52 55  1  0
  1 56  1  0
  1 57  1  0
  7 58  1  0
  8 59  1  0
  9 60  1  0
 10 61  1  0
 12 62  1  0
 14 63  1  6
 15 64  1  6
 16 65  1  0
 16 66  1  0
 18 67  1  0
 18 68  1  0
 19 69  1  0
 19 70  1  0
 20 71  1  0
 20 72  1  0
 20 73  1  0
 22 74  1  0
 24 75  1  0
 24 76  1  0
 34 77  1  0
 35 78  1  0
 36 79  1  0
 37 80  1  0
 39 81  1  0
 41 82  1  6
 42 83  1  6
 43 84  1  0
 43 85  1  0
 45 86  1  0
 45 87  1  0
 46 88  1  0
 46 89  1  0
 47 90  1  0
 47 91  1  0
 47 92  1  0
 49 93  1  0
 51 94  1  0
 51 95  1  0
M  END
> <Uni-Dock RESULT> 
ENERGY=   -6.073  LOWER_BOUND=    0.000  UPPER_BOUND=    0.000
INTER + INTRA:          -6.073
INTER:                  -6.073
INTRA:                   0.000
UNBOUND:                 0.000

$$$$

     RDKit          3D

 95100  0  0  0  0  0  0  0  0999 V2000
   43.5673   10.8145    9.9168 O   0  0  0  0  0  0  0  0  0  0  0  0
   42.8782   14.7521    6.1731 N   0  0  0  0  0  0  0  0  0  0  0  0
   42.7013   14.9978    7.5010 C   0  0  0  0  0  0  0  0  0  0  0  0
   42.7506   14.1208    8.5679 C   0  0  0  0  0  0  0  0  0  0  0  0
   43.0198   12.7763    8.2493 N   0  0  0  0  0  0  0  0  0  0  0  0
   43.2134   12.4648    6.9189 C   0  0  0  0  0  0  0  0  0  0  0  0
   43.1307   13.4939    5.9002 C   0  0  0  0  0  0  0  0  0  0  0  0
   42.5143   14.8294    9.7558 C   0  0  0  0  0  0  0  0  0  0  0  0
   42.3170   16.1466    9.3808 C   0  0  0  0  0  0  0  0  0  0  0  0
   42.4307   16.2364    8.0109 N   0  0  0  0  0  0  0  0  0  0  0  0
   43.4686   11.1891    6.7367 N   0  0  0  0  0  0  0  0  0  0  0  0
   43.4266   10.6518    7.9991 C   0  0  0  0  0  0  0  0  0  0  0  0
   43.1576   11.6094    8.9696 C   0  0  0  0  0  0  0  0  0  0  0  0
   43.0227   11.4890   10.4616 C   0  0  2  0  0  0  0  0  0  0  0  0
   44.3713   11.4723   11.2191 C   0  0  1  0  0  0  0  0  0  0  0  0
   44.7993   10.0023   11.1515 C   0  0  0  0  0  0  0  0  0  0  0  0
   43.5521    9.2540   11.0946 N   0  0  0  0  0  0  0  0  0  0  0  0
   42.4146   10.1410   10.8905 C   0  0  0  0  0  0  0  0  0  0  0  0
   45.4416   12.4556   10.7385 C   0  0  0  0  0  0  0  0  0  0  0  0
   46.6890   12.4315   11.6117 C   0  0  0  0  0  0  0  0  0  0  0  0
   43.3780    7.8956   11.1104 C   0  0  0  0  0  0  0  0  0  0  0  0
   44.5284    7.1646   11.2338 N   0  0  0  0  0  0  0  0  0  0  0  0
   42.2799    7.3628   10.9900 O   0  0  0  0  0  0  0  0  0  0  0  0
   44.4454    5.7104   11.3835 C   0  0  0  0  0  0  0  0  0  0  0  0
   44.1058    5.2235   12.7945 C   0  0  0  0  0  0  0  0  0  0  0  0
   44.1759    3.8731   12.8602 F   0  0  0  0  0  0  0  0  0  0  0  0
   42.8788    5.5918   13.2084 F   0  0  0  0  0  0  0  0  0  0  0  0
   45.0047    5.7119   13.6860 F   0  0  0  0  0  0  0  0  0  0  0  0
   42.5311   14.3774    6.2057 N   0  0  0  0  0  0  0  0  0  0  0  0
   42.0624   14.5012    7.4784 C   0  0  0  0  0  0  0  0  0  0  0  0
   42.2702   13.6819    8.5718 C   0  0  0  0  0  0  0  0  0  0  0  0
   43.0800   12.5519    8.3504 N   0  0  0  0  0  0  0  0  0  0  0  0
   43.5950   12.3776    7.0822 C   0  0  0  0  0  0  0  0  0  0  0  0
   43.2910   13.3232    6.0254 C   0  0  0  0  0  0  0  0  0  0  0  0
   41.5974   14.2169    9.6807 C   0  0  0  0  0  0  0  0  0  0  0  0
   40.9758   15.3681    9.2301 C   0  0  0  0  0  0  0  0  0  0  0  0
   41.2642   15.5298    7.8929 N   0  0  0  0  0  0  0  0  0  0  0  0
   44.3488   11.3055    6.9928 N   0  0  0  0  0  0  0  0  0  0  0  0
   44.3195   10.7640    8.2533 C   0  0  0  0  0  0  0  0  0  0  0  0
   43.5270   11.5021    9.1241 C   0  0  0  0  0  0  0  0  0  0  0  0
   43.1848   11.2823   10.5706 C   0  0  2  0  0  0  0  0  0  0  0  0
   44.2900   11.7143   11.5603 C   0  0  1  0  0  0  0  0  0  0  0  0
   45.2150   10.4940   11.6152 C   0  0  0  0  0  0  0  0  0  0  0  0
   44.3484    9.3550   11.3543 N   0  0  0  0  0  0  0  0  0  0  0  0
   43.0278    9.7884   10.9131 C   0  0  0  0  0  0  0  0  0  0  0  0
   45.0054   13.0322   11.2536 C   0  0  0  0  0  0  0  0  0  0  0  0
   46.0005   13.4203   12.3388 C   0  0  0  0  0  0  0  0  0  0  0  0
   44.7655    8.0867   11.6613 C   0  0  0  0  0  0  0  0  0  0  0  0
   43.8399    7.1018   11.4430 N   0  0  0  0  0  0  0  0  0  0  0  0
   45.8736    7.8439   12.1276 O   0  0  0  0  0  0  0  0  0  0  0  0
   44.2248    5.7013   11.6315 C   0  0  0  0  0  0  0  0  0  0  0  0
   44.9996    5.0803   10.4660 C   0  0  0  0  0  0  0  0  0  0  0  0
   44.2746    5.1740    9.3233 F   0  0  0  0  0  0  0  0  0  0  0  0
   45.2195    3.7637   10.6915 F   0  0  0  0  0  0  0  0  0  0  0  0
   46.1913    5.6649   10.2430 F   0  0  0  0  0  0  0  0  0  0  0  0
   44.1320   10.3835   10.5758 H   0  0  0  0  0  0  0  0  0  0  0  0
   43.8690   11.7352    9.9164 H   0  0  0  0  0  0  0  0  0  0  0  0
   43.2890   13.1969    4.8509 H   0  0  0  0  0  0  0  0  0  0  0  0
   42.4867   14.4687   10.7740 H   0  0  0  0  0  0  0  0  0  0  0  0
   42.1049   17.0305    9.9681 H   0  0  0  0  0  0  0  0  0  0  0  0
   42.3350   17.0743    7.4536 H   0  0  0  0  0  0  0  0  0  0  0  0
   43.5934    9.5910    8.1504 H   0  0  0  0  0  0  0  0  0  0  0  0
   42.3731   12.2845   10.8345 H   0  0  0  0  0  0  0  0  0  0  0  0
   44.1462   11.7023   12.2716 H   0  0  0  0  0  0  0  0  0  0  0  0
   45.3806    9.7705   10.2521 H   0  0  0  0  0  0  0  0  0  0  0  0
   45.3765    9.7063   12.0332 H   0  0  0  0  0  0  0  0  0  0  0  0
   41.7013    9.7208   10.1738 H   0  0  0  0  0  0  0  0  0  0  0  0
   41.9122   10.2369   11.8606 H   0  0  0  0  0  0  0  0  0  0  0  0
   45.0329   13.4716   10.7505 H   0  0  0  0  0  0  0  0  0  0  0  0
   45.7389   12.2374    9.7064 H   0  0  0  0  0  0  0  0  0  0  0  0
   46.4425   12.6525   12.6550 H   0  0  0  0  0  0  0  0  0  0  0  0
   47.1850   11.4569   11.5729 H   0  0  0  0  0  0  0  0  0  0  0  0
   47.4048   13.1845   11.2663 H   0  0  0  0  0  0  0  0  0  0  0  0
   45.2957    7.6187   11.7042 H   0  0  0  0  0  0  0  0  0  0  0  0
   45.4266    5.3188   11.0962 H   0  0  0  0  0  0  0  0  0  0  0  0
   43.7085    5.3202   10.6735 H   0  0  0  0  0  0  0  0  0  0  0  0
   43.7211   13.1395    5.0278 H   0  0  0  0  0  0  0  0  0  0  0  0
   41.5514   13.8506   10.6961 H   0  0  0  0  0  0  0  0  0  0  0  0
   40.3560   16.0911    9.7440 H   0  0  0  0  0  0  0  0  0  0  0  0
   40.9507   16.2842    7.2976 H   0  0  0  0  0  0  0  0  0  0  0  0
   44.8721    9.8572    8.4735 H   0  0  0  0  0  0  0  0  0  0  0  0
   42.2389   11.7786   10.8007 H   0  0  0  0  0  0  0  0  0  0  0  0
   43.8119   11.8086   12.5471 H   0  0  0  0  0  0  0  0  0  0  0  0
   45.9863   10.5158   10.8375 H   0  0  0  0  0  0  0  0  0  0  0  0
   45.7042   10.3895   12.5895 H   0  0  0  0  0  0  0  0  0  0  0  0
   42.6684    9.1802   10.0776 H   0  0  0  0  0  0  0  0  0  0  0  0
   42.3463    9.6535   11.7615 H   0  0  0  0  0  0  0  0  0  0  0  0
   44.2646   13.8339   11.1609 H   0  0  0  0  0  0  0  0  0  0  0  0
   45.5411   12.9741   10.2995 H   0  0  0  0  0  0  0  0  0  0  0  0
   46.4428   14.3956   12.1125 H   0  0  0  0  0  0  0  0  0  0  0  0
   46.8146   12.6931   12.4114 H   0  0  0  0  0  0  0  0  0  0  0  0
   45.5107   13.4886   13.3150 H   0  0  0  0  0  0  0  0  0  0  0  0
   43.1727    7.2800   10.7085 H   0  0  0  0  0  0  0  0  0  0  0  0
   44.8117    5.6127   12.5523 H   0  0  0  0  0  0  0  0  0  0  0  0
   43.2920    5.1467   11.7767 H   0  0  0  0  0  0  0  0  0  0  0  0
  2  3  1  0
  4  5  1  0
  6  7  1  0
  7  2  2  0
  3 10  1  0
  3  4  2  0
  4  8  1  0
  8  9  2  0
  9 10  1  0
  5 13  1  0
  5  6  1  0
  6 11  2  0
 11 12  1  0
 12 13  2  0
 14 13  1  0
 14 15  1  0
 14 18  1  0
 15 16  1  0
 16 17  1  0
 17 18  1  0
 15 19  1  0
 19 20  1  0
 17 21  1  0
 21 22  1  0
 21 23  2  0
 22 24  1  0
 24 25  1  0
 25 26  1  0
 25 27  1  0
 25 28  1  0
 29 30  1  0
 31 32  1  0
 33 34  1  0
 34 29  2  0
 30 37  1  0
 30 31  2  0
 31 35  1  0
 35 36  2  0
 36 37  1  0
 32 40  1  0
 32 33  1  0
 33 38  2  0
 38 39  1  0
 39 40  2  0
 41 40  1  0
 41 42  1  0
 41 45  1  0
 42 43  1  0
 43 44  1  0
 44 45  1  0
 42 46  1  0
 46 47  1  0
 44 48  1  0
 48 49  1  0
 48 50  2  0
 49 51  1  0
 51 52  1  0
 52 53  1  0
 52 54  1  0
 52 55  1  0
  1 56  1  0
  1 57  1  0
  7 58  1  0
  8 59  1  0
  9 60  1  0
 10 61  1  0
 12 62  1  0
 14 63  1  6
 15 64  1  6
 16 65  1  0
 16 66  1  0
 18 67  1  0
 18 68  1  0
 19 69  1  0
 19 70  1  0
 20 71  1  0
 20 72  1  0
 20 73  1  0
 22 74  1  0
 24 75  1  0
 24 76  1  0
 34 77  1  0
 35 78  1  0
 36 79  1  0
 37 80  1  0
 39 81  1  0
 41 82  1  6
 42 83  1  6
 43 84  1  0
 43 85  1  0
 45 86  1  0
 45 87  1  0
 46 88  1  0
 46 89  1  0
 47 90  1  0
 47 91  1  0
 47 92  1  0
 49 93  1  0
 51 94  1  0
 51 95  1  0
M  END
> <Uni-Dock RESULT> 
ENERGY=   -6.008  LOWER_BOUND=    8.275  UPPER_BOUND=   12.005
INTER + INTRA:          -6.008
INTER:                  -6.008
INTRA:                   0.000
UNBOUND:                 0.000

$$$$

     RDKit          3D

 95100  0  0  0  0  0  0  0  0999 V2000
   49.2708    9.4162   17.4305 O   0  0  0  0  0  0  0  0  0  0  0  0
   51.9966   14.1623   17.6294 N   0  0  0  0  0  0  0  0  0  0  0  0
   50.6501   14.1261   17.4278 C   0  0  0  0  0  0  0  0  0  0  0  0
   49.8175   13.0346   17.2688 C   0  0  0  0  0  0  0  0  0  0  0  0
   50.4389   11.7725   17.3184 N   0  0  0  0  0  0  0  0  0  0  0  0
   51.8030   11.7432   17.5251 C   0  0  0  0  0  0  0  0  0  0  0  0
   52.5535   12.9752   17.6750 C   0  0  0  0  0  0  0  0  0  0  0  0
   48.4994   13.4840   17.0961 C   0  0  0  0  0  0  0  0  0  0  0  0
   48.5580   14.8655   17.1490 C   0  0  0  0  0  0  0  0  0  0  0  0
   49.8675   15.2435   17.3486 N   0  0  0  0  0  0  0  0  0  0  0  0
   52.2758   10.5183   17.5656 N   0  0  0  0  0  0  0  0  0  0  0  0
   51.1747    9.7236   17.3651 C   0  0  0  0  0  0  0  0  0  0  0  0
   50.0101   10.4667   17.2146 C   0  0  0  0  0  0  0  0  0  0  0  0
   48.5893   10.0352   16.9826 C   0  0  2  0  0  0  0  0  0  0  0  0
   47.8419    9.6036   18.2662 C   0  0  1  0  0  0  0  0  0  0  0  0
   48.2469    8.1354   18.4371 C   0  0  0  0  0  0  0  0  0  0  0  0
   48.4910    7.6570   17.0843 N   0  0  0  0  0  0  0  0  0  0  0  0
   48.4944    8.7571   16.1292 C   0  0  0  0  0  0  0  0  0  0  0  0
   48.0673   10.4614   19.5139 C   0  0  0  0  0  0  0  0  0  0  0  0
   47.2103   10.0143   20.6908 C   0  0  0  0  0  0  0  0  0  0  0  0
   48.7954    6.3851   16.6777 C   0  0  0  0  0  0  0  0  0  0  0  0
   48.8338    5.4503   17.6766 N   0  0  0  0  0  0  0  0  0  0  0  0
   49.0493    6.1005   15.5120 O   0  0  0  0  0  0  0  0  0  0  0  0
   49.0294    4.0396   17.3362 C   0  0  0  0  0  0  0  0  0  0  0  0
   47.7754    3.3129   16.8438 C   0  0  0  0  0  0  0  0  0  0  0  0
   48.0267    1.9932   16.6763 F   0  0  0  0  0  0  0  0  0  0  0  0
   47.3003    3.7918   15.6787 F   0  0  0  0  0  0  0  0  0  0  0  0
   46.7845    3.4149   17.7653 F   0  0  0  0  0  0  0  0  0  0  0  0
   52.0564   13.8589   17.2216 N   0  0  0  0  0  0  0  0  0  0  0  0
   50.7953   13.7712   16.7148 C   0  0  0  0  0  0  0  0  0  0  0  0
   49.9217   12.7003   16.7203 C   0  0  0  0  0  0  0  0  0  0  0  0
   50.3924   11.5239   17.3335 N   0  0  0  0  0  0  0  0  0  0  0  0
   51.6605   11.5538   17.8768 C   0  0  0  0  0  0  0  0  0  0  0  0
   52.4699   12.7544   17.7966 C   0  0  0  0  0  0  0  0  0  0  0  0
   48.7259   13.0802   16.0925 C   0  0  0  0  0  0  0  0  0  0  0  0
   48.9014   14.3965   15.7034 C   0  0  0  0  0  0  0  0  0  0  0  0
   50.1604   14.8045   16.0854 N   0  0  0  0  0  0  0  0  0  0  0  0
   51.9899   10.4126   18.4379 N   0  0  0  0  0  0  0  0  0  0  0  0
   50.8915    9.6121   18.2493 C   0  0  0  0  0  0  0  0  0  0  0  0
   49.8809   10.2623   17.5513 C   0  0  0  0  0  0  0  0  0  0  0  0
   48.5299    9.7834   17.1006 C   0  0  2  0  0  0  0  0  0  0  0  0
   47.4545    9.7719   18.2100 C   0  0  1  0  0  0  0  0  0  0  0  0
   47.6764    8.4251   18.9064 C   0  0  0  0  0  0  0  0  0  0  0  0
   48.2061    7.5510   17.8712 N   0  0  0  0  0  0  0  0  0  0  0  0
   48.5482    8.3042   16.6703 C   0  0  0  0  0  0  0  0  0  0  0  0
   47.4364   10.9740   19.1572 C   0  0  0  0  0  0  0  0  0  0  0  0
   46.2796   10.9185   20.1458 C   0  0  0  0  0  0  0  0  0  0  0  0
   48.1999    6.1923   18.0464 C   0  0  0  0  0  0  0  0  0  0  0  0
   48.6527    5.4664   16.9776 N   0  0  0  0  0  0  0  0  0  0  0  0
   47.7911    5.6539   19.0699 O   0  0  0  0  0  0  0  0  0  0  0  0
   48.7929    4.0141   17.1046 C   0  0  0  0  0  0  0  0  0  0  0  0
   50.0627    3.5464   17.8209 C   0  0  0  0  0  0  0  0  0  0  0  0
   51.1597    4.0274   17.1841 F   0  0  0  0  0  0  0  0  0  0  0  0
   50.1492    2.1956   17.7981 F   0  0  0  0  0  0  0  0  0  0  0  0
   50.1297    3.9420   19.1056 F   0  0  0  0  0  0  0  0  0  0  0  0
   48.7247    8.7517   17.8769 H   0  0  0  0  0  0  0  0  0  0  0  0
   49.0524   10.2429   17.8861 H   0  0  0  0  0  0  0  0  0  0  0  0
   53.6413   12.9020   17.8347 H   0  0  0  0  0  0  0  0  0  0  0  0
   47.5943   12.9115   16.9530 H   0  0  0  0  0  0  0  0  0  0  0  0
   47.7826   15.6153   17.0620 H   0  0  0  0  0  0  0  0  0  0  0  0
   50.2143   16.1897   17.4284 H   0  0  0  0  0  0  0  0  0  0  0  0
   51.2740    8.6440   17.3381 H   0  0  0  0  0  0  0  0  0  0  0  0
   48.0477   10.8283   16.4612 H   0  0  0  0  0  0  0  0  0  0  0  0
   46.7674    9.6239   18.0291 H   0  0  0  0  0  0  0  0  0  0  0  0
   49.1691    8.0142   19.0162 H   0  0  0  0  0  0  0  0  0  0  0  0
   47.4526    7.5470   18.9074 H   0  0  0  0  0  0  0  0  0  0  0  0
   49.2974    8.6471   15.3928 H   0  0  0  0  0  0  0  0  0  0  0  0
   47.5344    8.7179   15.6005 H   0  0  0  0  0  0  0  0  0  0  0  0
   47.8224   11.5043   19.2866 H   0  0  0  0  0  0  0  0  0  0  0  0
   49.1185   10.4346   19.8231 H   0  0  0  0  0  0  0  0  0  0  0  0
   46.1470   10.0321   20.4314 H   0  0  0  0  0  0  0  0  0  0  0  0
   47.4706    9.0013   21.0125 H   0  0  0  0  0  0  0  0  0  0  0  0
   47.3620   10.6848   21.5429 H   0  0  0  0  0  0  0  0  0  0  0  0
   48.2618    5.6392   18.4849 H   0  0  0  0  0  0  0  0  0  0  0  0
   49.3896    3.5538   18.2488 H   0  0  0  0  0  0  0  0  0  0  0  0
   49.8191    3.9611   16.5815 H   0  0  0  0  0  0  0  0  0  0  0  0
   53.4780   12.7290   18.2405 H   0  0  0  0  0  0  0  0  0  0  0  0
   47.8249   12.5063   15.9305 H   0  0  0  0  0  0  0  0  0  0  0  0
   48.2394   15.0826   15.1915 H   0  0  0  0  0  0  0  0  0  0  0  0
   50.5661   15.7187   15.9386 H   0  0  0  0  0  0  0  0  0  0  0  0
   50.8835    8.5947   18.6247 H   0  0  0  0  0  0  0  0  0  0  0  0
   48.2005   10.3761   16.2437 H   0  0  0  0  0  0  0  0  0  0  0  0
   46.4783    9.7230   17.7041 H   0  0  0  0  0  0  0  0  0  0  0  0
   48.4189    8.4846   19.7098 H   0  0  0  0  0  0  0  0  0  0  0  0
   46.7483    8.0147   19.3182 H   0  0  0  0  0  0  0  0  0  0  0  0
   49.5067    7.9777   16.2559 H   0  0  0  0  0  0  0  0  0  0  0  0
   47.7625    8.1042   15.9320 H   0  0  0  0  0  0  0  0  0  0  0  0
   47.3471   11.8956   18.5718 H   0  0  0  0  0  0  0  0  0  0  0  0
   48.3717   11.0398   19.7244 H   0  0  0  0  0  0  0  0  0  0  0  0
   46.2665   11.8236   20.7611 H   0  0  0  0  0  0  0  0  0  0  0  0
   46.3703   10.0595   20.8172 H   0  0  0  0  0  0  0  0  0  0  0  0
   45.3200   10.8492   19.6245 H   0  0  0  0  0  0  0  0  0  0  0  0
   49.3324    5.9247   16.3907 H   0  0  0  0  0  0  0  0  0  0  0  0
   47.9120    3.6134   17.6180 H   0  0  0  0  0  0  0  0  0  0  0  0
   48.7918    3.6183   16.0837 H   0  0  0  0  0  0  0  0  0  0  0  0
  2  3  1  0
  4  5  1  0
  6  7  1  0
  7  2  2  0
  3 10  1  0
  3  4  2  0
  4  8  1  0
  8  9  2  0
  9 10  1  0
  5 13  1  0
  5  6  1  0
  6 11  2  0
 11 12  1  0
 12 13  2  0
 14 13  1  0
 14 15  1  0
 14 18  1  0
 15 16  1  0
 16 17  1  0
 17 18  1  0
 15 19  1  0
 19 20  1  0
 17 21  1  0
 21 22  1  0
 21 23  2  0
 22 24  1  0
 24 25  1  0
 25 26  1  0
 25 27  1  0
 25 28  1  0
 29 30  1  0
 31 32  1  0
 33 34  1  0
 34 29  2  0
 30 37  1  0
 30 31  2  0
 31 35  1  0
 35 36  2  0
 36 37  1  0
 32 40  1  0
 32 33  1  0
 33 38  2  0
 38 39  1  0
 39 40  2  0
 41 40  1  0
 41 42  1  0
 41 45  1  0
 42 43  1  0
 43 44  1  0
 44 45  1  0
 42 46  1  0
 46 47  1  0
 44 48  1  0
 48 49  1  0
 48 50  2  0
 49 51  1  0
 51 52  1  0
 52 53  1  0
 52 54  1  0
 52 55  1  0
  1 56  1  0
  1 57  1  0
  7 58  1  0
  8 59  1  0
  9 60  1  0
 10 61  1  0
 12 62  1  0
 14 63  1  6
 15 64  1  6
 16 65  1  0
 16 66  1  0
 18 67  1  0
 18 68  1  0
 19 69  1  0
 19 70  1  0
 20 71  1  0
 20 72  1  0
 20 73  1  0
 22 74  1  0
 24 75  1  0
 24 76  1  0
 34 77  1  0
 35 78  1  0
 36 79  1  0
 37 80  1  0
 39 81  1  0
 41 82  1  6
 42 83  1  6
 43 84  1  0
 43 85  1  0
 45 86  1  0
 45 87  1  0
 46 88  1  0
 46 89  1  0
 47 90  1  0
 47 91  1  0
 47 92  1  0
 49 93  1  0
 51 94  1  0
 51 95  1  0
M  END
> <Uni-Dock RESULT> 
ENERGY=   -5.991  LOWER_BOUND=    4.095  UPPER_BOUND=    7.937
INTER + INTRA:          -5.991
INTER:                  -5.991
INTRA:                   0.000
UNBOUND:                 0.000

$$$$

     RDKit          3D

 95100  0  0  0  0  0  0  0  0999 V2000
   48.8028    7.6606   18.4071 O   0  0  0  0  0  0  0  0  0  0  0  0
   48.0599    5.8868   23.5351 N   0  0  0  0  0  0  0  0  0  0  0  0
   48.8745    6.9435   23.2617 C   0  0  0  0  0  0  0  0  0  0  0  0
   49.2418    7.4725   22.0390 C   0  0  0  0  0  0  0  0  0  0  0  0
   48.7049    6.8348   20.9047 N   0  0  0  0  0  0  0  0  0  0  0  0
   47.8673    5.7588   21.1171 C   0  0  0  0  0  0  0  0  0  0  0  0
   47.5690    5.3102   22.4637 C   0  0  0  0  0  0  0  0  0  0  0  0
   50.0931    8.5679   22.2498 C   0  0  0  0  0  0  0  0  0  0  0  0
   50.2337    8.6825   23.6216 C   0  0  0  0  0  0  0  0  0  0  0  0
   49.4918    7.6909   24.2248 N   0  0  0  0  0  0  0  0  0  0  0  0
   47.4154    5.2484   19.9943 N   0  0  0  0  0  0  0  0  0  0  0  0
   47.9935    6.0180   19.0157 C   0  0  0  0  0  0  0  0  0  0  0  0
   48.7975    7.0216   19.5423 C   0  0  0  0  0  0  0  0  0  0  0  0
   49.6127    8.0876   18.8655 C   0  0  2  0  0  0  0  0  0  0  0  0
   48.7958    9.3265   18.4287 C   0  0  1  0  0  0  0  0  0  0  0  0
   48.2261    8.9148   17.0669 C   0  0  0  0  0  0  0  0  0  0  0  0
   49.2028    7.9840   16.5209 N   0  0  0  0  0  0  0  0  0  0  0  0
   50.1968    7.6169   17.5208 C   0  0  0  0  0  0  0  0  0  0  0  0
   47.7434    9.8384   19.4154 C   0  0  0  0  0  0  0  0  0  0  0  0
   47.0690   11.1171   18.9364 C   0  0  0  0  0  0  0  0  0  0  0  0
   49.2104    7.3919   15.2860 C   0  0  0  0  0  0  0  0  0  0  0  0
   48.1843    7.7613   14.4591 N   0  0  0  0  0  0  0  0  0  0  0  0
   50.0510    6.5651   14.9481 O   0  0  0  0  0  0  0  0  0  0  0  0
   48.1654    7.2818   13.0757 C   0  0  0  0  0  0  0  0  0  0  0  0
   49.0795    8.0450   12.1138 C   0  0  0  0  0  0  0  0  0  0  0  0
   48.8988    7.6126   10.8438 F   0  0  0  0  0  0  0  0  0  0  0  0
   50.3880    7.9235   12.4068 F   0  0  0  0  0  0  0  0  0  0  0  0
   48.7751    9.3673   12.1305 F   0  0  0  0  0  0  0  0  0  0  0  0
   48.3362    5.6021   23.2119 N   0  0  0  0  0  0  0  0  0  0  0  0
   49.3653    6.4284   22.8757 C   0  0  0  0  0  0  0  0  0  0  0  0
   49.6135    7.0765   21.6805 C   0  0  0  0  0  0  0  0  0  0  0  0
   48.6756    6.8574   20.6540 N   0  0  0  0  0  0  0  0  0  0  0  0
   47.6026    6.0374   20.9377 C   0  0  0  0  0  0  0  0  0  0  0  0
   47.4698    5.4205   22.2435 C   0  0  0  0  0  0  0  0  0  0  0  0
   50.7884    7.8333   21.8042 C   0  0  0  0  0  0  0  0  0  0  0  0
   51.2445    7.6209   23.0933 C   0  0  0  0  0  0  0  0  0  0  0  0
   50.3738    6.7666   23.7333 N   0  0  0  0  0  0  0  0  0  0  0  0
   46.7828    5.9177   19.9183 N   0  0  0  0  0  0  0  0  0  0  0  0
   47.3485    6.6903   18.9354 C   0  0  0  0  0  0  0  0  0  0  0  0
   48.5371    7.2798   19.3490 C   0  0  0  0  0  0  0  0  0  0  0  0
   49.5002    8.1721   18.6184 C   0  0  2  0  0  0  0  0  0  0  0  0
   49.0564    9.6493   18.5258 C   0  0  1  0  0  0  0  0  0  0  0  0
   48.1395    9.6689   17.2983 C   0  0  0  0  0  0  0  0  0  0  0  0
   48.6436    8.6100   16.4374 N   0  0  0  0  0  0  0  0  0  0  0  0
   49.6334    7.7940   17.1308 C   0  0  0  0  0  0  0  0  0  0  0  0
   48.4337   10.2564   19.7853 C   0  0  0  0  0  0  0  0  0  0  0  0
   48.1265   11.7392   19.6258 C   0  0  0  0  0  0  0  0  0  0  0  0
   48.2844    8.5660   15.1161 C   0  0  0  0  0  0  0  0  0  0  0  0
   48.8774    7.5716   14.3854 N   0  0  0  0  0  0  0  0  0  0  0  0
   47.5131    9.3729   14.6076 O   0  0  0  0  0  0  0  0  0  0  0  0
   48.4750    7.3680   12.9920 C   0  0  0  0  0  0  0  0  0  0  0  0
   47.1745    6.5825   12.8018 C   0  0  0  0  0  0  0  0  0  0  0  0
   47.2727    5.3688   13.3998 F   0  0  0  0  0  0  0  0  0  0  0  0
   46.9431    6.3610   11.4865 F   0  0  0  0  0  0  0  0  0  0  0  0
   46.0944    7.2030   13.3115 F   0  0  0  0  0  0  0  0  0  0  0  0
   48.5762    8.2864   17.7029 H   0  0  0  0  0  0  0  0  0  0  0  0
   48.6425    8.1583   19.2229 H   0  0  0  0  0  0  0  0  0  0  0  0
   46.8978    4.4446   22.5837 H   0  0  0  0  0  0  0  0  0  0  0  0
   50.5621    9.2195   21.5267 H   0  0  0  0  0  0  0  0  0  0  0  0
   50.7973    9.3829   24.2240 H   0  0  0  0  0  0  0  0  0  0  0  0
   49.4033    7.5267   25.2184 H   0  0  0  0  0  0  0  0  0  0  0  0
   47.8015    5.8105   17.9686 H   0  0  0  0  0  0  0  0  0  0  0  0
   50.4458    8.3749   19.5116 H   0  0  0  0  0  0  0  0  0  0  0  0
   49.5194   10.1368   18.2523 H   0  0  0  0  0  0  0  0  0  0  0  0
   47.2647    8.3956   17.1485 H   0  0  0  0  0  0  0  0  0  0  0  0
   48.1098    9.7740   16.3987 H   0  0  0  0  0  0  0  0  0  0  0  0
   50.4302    6.5478   17.4813 H   0  0  0  0  0  0  0  0  0  0  0  0
   51.1078    8.1777   17.2797 H   0  0  0  0  0  0  0  0  0  0  0  0
   48.2191   10.0413   20.3808 H   0  0  0  0  0  0  0  0  0  0  0  0
   46.9679    9.0833   19.5878 H   0  0  0  0  0  0  0  0  0  0  0  0
   47.8059   11.9064   18.7574 H   0  0  0  0  0  0  0  0  0  0  0  0
   46.5090   10.9508   18.0111 H   0  0  0  0  0  0  0  0  0  0  0  0
   46.3645   11.4771   19.6931 H   0  0  0  0  0  0  0  0  0  0  0  0
   47.7902    8.6750   14.6202 H   0  0  0  0  0  0  0  0  0  0  0  0
   47.1291    7.3761   12.7354 H   0  0  0  0  0  0  0  0  0  0  0  0
   48.4261    6.2181   13.0633 H   0  0  0  0  0  0  0  0  0  0  0  0
   46.5989    4.7696   22.4217 H   0  0  0  0  0  0  0  0  0  0  0  0
   51.2715    8.4718   21.0787 H   0  0  0  0  0  0  0  0  0  0  0  0
   52.1107    8.0060   23.6153 H   0  0  0  0  0  0  0  0  0  0  0  0
   50.4478    6.4358   24.6856 H   0  0  0  0  0  0  0  0  0  0  0  0
   46.8702    6.7816   17.9663 H   0  0  0  0  0  0  0  0  0  0  0  0
   50.4901    8.0897   19.0736 H   0  0  0  0  0  0  0  0  0  0  0  0
   49.9541   10.2343   18.2745 H   0  0  0  0  0  0  0  0  0  0  0  0
   47.0987    9.4341   17.5472 H   0  0  0  0  0  0  0  0  0  0  0  0
   48.1655   10.6322   16.7781 H   0  0  0  0  0  0  0  0  0  0  0  0
   49.4806    6.7291   16.9316 H   0  0  0  0  0  0  0  0  0  0  0  0
   50.6168    8.0842   16.7423 H   0  0  0  0  0  0  0  0  0  0  0  0
   49.1251   10.1350   20.6263 H   0  0  0  0  0  0  0  0  0  0  0  0
   47.5054    9.7387   20.0518 H   0  0  0  0  0  0  0  0  0  0  0  0
   47.7420   12.1472   20.5659 H   0  0  0  0  0  0  0  0  0  0  0  0
   47.3699   11.9085   18.8540 H   0  0  0  0  0  0  0  0  0  0  0  0
   49.0264   12.3003   19.3559 H   0  0  0  0  0  0  0  0  0  0  0  0
   49.1291    6.7401   14.8970 H   0  0  0  0  0  0  0  0  0  0  0  0
   48.3921    8.3422   12.4978 H   0  0  0  0  0  0  0  0  0  0  0  0
   49.2957    6.8218   12.5155 H   0  0  0  0  0  0  0  0  0  0  0  0
  2  3  1  0
  4  5  1  0
  6  7  1  0
  7  2  2  0
  3 10  1  0
  3  4  2  0
  4  8  1  0
  8  9  2  0
  9 10  1  0
  5 13  1  0
  5  6  1  0
  6 11  2  0
 11 12  1  0
 12 13  2  0
 14 13  1  0
 14 15  1  0
 14 18  1  0
 15 16  1  0
 16 17  1  0
 17 18  1  0
 15 19  1  0
 19 20  1  0
 17 21  1  0
 21 22  1  0
 21 23  2  0
 22 24  1  0
 24 25  1  0
 25 26  1  0
 25 27  1  0
 25 28  1  0
 29 30  1  0
 31 32  1  0
 33 34  1  0
 34 29  2  0
 30 37  1  0
 30 31  2  0
 31 35  1  0
 35 36  2  0
 36 37  1  0
 32 40  1  0
 32 33  1  0
 33 38  2  0
 38 39  1  0
 39 40  2  0
 41 40  1  0
 41 42  1  0
 41 45  1  0
 42 43  1  0
 43 44  1  0
 44 45  1  0
 42 46  1  0
 46 47  1  0
 44 48  1  0
 48 49  1  0
 48 50  2  0
 49 51  1  0
 51 52  1  0
 52 53  1  0
 52 54  1  0
 52 55  1  0
  1 56  1  0
  1 57  1  0
  7 58  1  0
  8 59  1  0
  9 60  1  0
 10 61  1  0
 12 62  1  0
 14 63  1  6
 15 64  1  6
 16 65  1  0
 16 66  1  0
 18 67  1  0
 18 68  1  0
 19 69  1  0
 19 70  1  0
 20 71  1  0
 20 72  1  0
 20 73  1  0
 22 74  1  0
 24 75  1  0
 24 76  1  0
 34 77  1  0
 35 78  1  0
 36 79  1  0
 37 80  1  0
 39 81  1  0
 41 82  1  6
 42 83  1  6
 43 84  1  0
 43 85  1  0
 45 86  1  0
 45 87  1  0
 46 88  1  0
 46 89  1  0
 47 90  1  0
 47 91  1  0
 47 92  1  0
 49 93  1  0
 51 94  1  0
 51 95  1  0
M  END
> <Uni-Dock RESULT> 
ENERGY=   -5.906  LOWER_BOUND=    4.235  UPPER_BOUND=    6.076
INTER + INTRA:          -5.906
INTER:                  -5.906
INTRA:                   0.000
UNBOUND:                 0.000

$$$$

     RDKit          3D

 95100  0  0  0  0  0  0  0  0999 V2000
   51.5126    5.9059   19.0143 O   0  0  0  0  0  0  0  0  0  0  0  0
   52.1427    0.6523   17.6011 N   0  0  0  0  0  0  0  0  0  0  0  0
   53.0987    1.3154   18.3092 C   0  0  0  0  0  0  0  0  0  0  0  0
   53.1490    2.6459   18.6794 C   0  0  0  0  0  0  0  0  0  0  0  0
   52.0624    3.4416   18.2700 N   0  0  0  0  0  0  0  0  0  0  0  0
   51.0580    2.8252   17.5520 C   0  0  0  0  0  0  0  0  0  0  0  0
   51.1389    1.4126   17.2329 C   0  0  0  0  0  0  0  0  0  0  0  0
   54.3250    2.8748   19.4101 C   0  0  0  0  0  0  0  0  0  0  0  0
   54.9813    1.6579   19.4665 C   0  0  0  0  0  0  0  0  0  0  0  0
   54.2292    0.7202   18.7938 N   0  0  0  0  0  0  0  0  0  0  0  0
   50.0911    3.6549   17.2324 N   0  0  0  0  0  0  0  0  0  0  0  0
   50.4921    4.8593   17.7545 C   0  0  0  0  0  0  0  0  0  0  0  0
   51.7111    4.7664   18.4152 C   0  0  0  0  0  0  0  0  0  0  0  0
   52.5248    5.8069   19.1324 C   0  0  2  0  0  0  0  0  0  0  0  0
   52.0551    6.0906   20.5786 C   0  0  1  0  0  0  0  0  0  0  0  0
   50.9308    7.1154   20.3929 C   0  0  0  0  0  0  0  0  0  0  0  0
   51.2847    7.8405   19.1815 N   0  0  0  0  0  0  0  0  0  0  0  0
   52.3959    7.2003   18.4901 C   0  0  0  0  0  0  0  0  0  0  0  0
   51.6586    4.8769   21.4229 C   0  0  0  0  0  0  0  0  0  0  0  0
   51.3111    5.2533   22.8570 C   0  0  0  0  0  0  0  0  0  0  0  0
   50.6523    8.9207   18.6257 C   0  0  0  0  0  0  0  0  0  0  0  0
   49.5764    9.3889   19.3301 N   0  0  0  0  0  0  0  0  0  0  0  0
   50.9962    9.4185   17.5588 O   0  0  0  0  0  0  0  0  0  0  0  0
   48.9037   10.6126   18.8893 C   0  0  0  0  0  0  0  0  0  0  0  0
   49.6023   11.9147   19.2887 C   0  0  0  0  0  0  0  0  0  0  0  0
   48.8445   12.9836   18.9481 F   0  0  0  0  0  0  0  0  0  0  0  0
   50.8123   12.0710   18.7194 F   0  0  0  0  0  0  0  0  0  0  0  0
   49.7716   11.9602   20.6343 F   0  0  0  0  0  0  0  0  0  0  0  0
   52.1748    1.0121   17.2387 N   0  0  0  0  0  0  0  0  0  0  0  0
   53.2207    1.7780   17.6562 C   0  0  0  0  0  0  0  0  0  0  0  0
   53.2156    3.0570   18.1795 C   0  0  0  0  0  0  0  0  0  0  0  0
   51.9535    3.6681   18.3018 N   0  0  0  0  0  0  0  0  0  0  0  0
   50.8522    2.9371   17.9055 C   0  0  0  0  0  0  0  0  0  0  0  0
   51.0083    1.5980   17.3711 C   0  0  0  0  0  0  0  0  0  0  0  0
   54.5329    3.4350   18.4804 C   0  0  0  0  0  0  0  0  0  0  0  0
   55.3288    2.3618   18.1206 C   0  0  0  0  0  0  0  0  0  0  0  0
   54.5221    1.3632   17.6212 N   0  0  0  0  0  0  0  0  0  0  0  0
   49.7281    3.5941   18.0800 N   0  0  0  0  0  0  0  0  0  0  0  0
   50.1177    4.7987   18.6093 C   0  0  0  0  0  0  0  0  0  0  0  0
   51.4974    4.8902   18.7481 C   0  0  0  0  0  0  0  0  0  0  0  0
   52.3645    6.0095   19.2511 C   0  0  2  0  0  0  0  0  0  0  0  0
   52.4227    6.1288   20.7906 C   0  0  1  0  0  0  0  0  0  0  0  0
   51.1837    6.9641   21.1297 C   0  0  0  0  0  0  0  0  0  0  0  0
   50.9690    7.8062   19.9630 N   0  0  0  0  0  0  0  0  0  0  0  0
   51.8199    7.3945   18.8527 C   0  0  0  0  0  0  0  0  0  0  0  0
   52.5314    4.8185   21.5743 C   0  0  0  0  0  0  0  0  0  0  0  0
   52.6865    5.0473   23.0716 C   0  0  0  0  0  0  0  0  0  0  0  0
   50.1627    8.9105   20.0488 C   0  0  0  0  0  0  0  0  0  0  0  0
   50.0938    9.6694   18.9115 N   0  0  0  0  0  0  0  0  0  0  0  0
   49.5668    9.2228   21.0743 O   0  0  0  0  0  0  0  0  0  0  0  0
   49.1719   10.8064   18.8627 C   0  0  0  0  0  0  0  0  0  0  0  0
   47.7116   10.4443   18.5786 C   0  0  0  0  0  0  0  0  0  0  0  0
   47.6197    9.7692   17.4056 F   0  0  0  0  0  0  0  0  0  0  0  0
   46.9616   11.5643   18.4535 F   0  0  0  0  0  0  0  0  0  0  0  0
   47.1536    9.6793   19.5351 F   0  0  0  0  0  0  0  0  0  0  0  0
   51.2629    6.5633   19.6810 H   0  0  0  0  0  0  0  0  0  0  0  0
   51.8291    5.1529   19.5354 H   0  0  0  0  0  0  0  0  0  0  0  0
   50.3146    0.9650   16.6545 H   0  0  0  0  0  0  0  0  0  0  0  0
   54.6847    3.7893   19.8592 H   0  0  0  0  0  0  0  0  0  0  0  0
   55.9192    1.3749   19.9263 H   0  0  0  0  0  0  0  0  0  0  0  0
   54.4581   -0.2566   18.6689 H   0  0  0  0  0  0  0  0  0  0  0  0
   49.8782    5.7444   17.6284 H   0  0  0  0  0  0  0  0  0  0  0  0
   53.5799    5.5234   19.1111 H   0  0  0  0  0  0  0  0  0  0  0  0
   52.8866    6.6017   21.0871 H   0  0  0  0  0  0  0  0  0  0  0  0
   49.9516    6.6482   20.2402 H   0  0  0  0  0  0  0  0  0  0  0  0
   50.8664    7.8057   21.2401 H   0  0  0  0  0  0  0  0  0  0  0  0
   52.2385    7.1836   17.4066 H   0  0  0  0  0  0  0  0  0  0  0  0
   53.2868    7.8044   18.6996 H   0  0  0  0  0  0  0  0  0  0  0  0
   52.4894    4.1637   21.4462 H   0  0  0  0  0  0  0  0  0  0  0  0
   50.7981    4.3588   20.9843 H   0  0  0  0  0  0  0  0  0  0  0  0
   52.1465    5.7687   23.3413 H   0  0  0  0  0  0  0  0  0  0  0  0
   50.4329    5.9050   22.8974 H   0  0  0  0  0  0  0  0  0  0  0  0
   51.0860    4.3533   23.4384 H   0  0  0  0  0  0  0  0  0  0  0  0
   49.5868    9.2185   20.3236 H   0  0  0  0  0  0  0  0  0  0  0  0
   47.9056   10.5894   19.3386 H   0  0  0  0  0  0  0  0  0  0  0  0
   48.7817   10.5803   17.8014 H   0  0  0  0  0  0  0  0  0  0  0  0
   50.1003    1.0550   17.0634 H   0  0  0  0  0  0  0  0  0  0  0  0
   54.8998    4.3550   18.9123 H   0  0  0  0  0  0  0  0  0  0  0  0
   56.3997    2.2174   18.1797 H   0  0  0  0  0  0  0  0  0  0  0  0
   54.8239    0.4594   17.2838 H   0  0  0  0  0  0  0  0  0  0  0  0
   49.3788    5.5509   18.8628 H   0  0  0  0  0  0  0  0  0  0  0  0
   53.3675    5.9113   18.8289 H   0  0  0  0  0  0  0  0  0  0  0  0
   53.3063    6.7408   21.0274 H   0  0  0  0  0  0  0  0  0  0  0  0
   50.2880    6.3492   21.2710 H   0  0  0  0  0  0  0  0  0  0  0  0
   51.3310    7.5777   22.0248 H   0  0  0  0  0  0  0  0  0  0  0  0
   51.2686    7.3959   17.9076 H   0  0  0  0  0  0  0  0  0  0  0  0
   52.6330    8.1269   18.7835 H   0  0  0  0  0  0  0  0  0  0  0  0
   53.4005    4.2543   21.2187 H   0  0  0  0  0  0  0  0  0  0  0  0
   51.6484    4.1904   21.4112 H   0  0  0  0  0  0  0  0  0  0  0  0
   52.8231    4.0910   23.5863 H   0  0  0  0  0  0  0  0  0  0  0  0
   51.8011    5.5308   23.4946 H   0  0  0  0  0  0  0  0  0  0  0  0
   53.5575    5.6745   23.2853 H   0  0  0  0  0  0  0  0  0  0  0  0
   50.2289    9.1747   18.0434 H   0  0  0  0  0  0  0  0  0  0  0  0
   49.2370   11.3601   19.8057 H   0  0  0  0  0  0  0  0  0  0  0  0
   49.5394   11.4616   18.0660 H   0  0  0  0  0  0  0  0  0  0  0  0
  2  3  1  0
  4  5  1  0
  6  7  1  0
  7  2  2  0
  3 10  1  0
  3  4  2  0
  4  8  1  0
  8  9  2  0
  9 10  1  0
  5 13  1  0
  5  6  1  0
  6 11  2  0
 11 12  1  0
 12 13  2  0
 14 13  1  0
 14 15  1  0
 14 18  1  0
 15 16  1  0
 16 17  1  0
 17 18  1  0
 15 19  1  0
 19 20  1  0
 17 21  1  0
 21 22  1  0
 21 23  2  0
 22 24  1  0
 24 25  1  0
 25 26  1  0
 25 27  1  0
 25 28  1  0
 29 30  1  0
 31 32  1  0
 33 34  1  0
 34 29  2  0
 30 37  1  0
 30 31  2  0
 31 35  1  0
 35 36  2  0
 36 37  1  0
 32 40  1  0
 32 33  1  0
 33 38  2  0
 38 39  1  0
 39 40  2  0
 41 40  1  0
 41 42  1  0
 41 45  1  0
 42 43  1  0
 43 44  1  0
 44 45  1  0
 42 46  1  0
 46 47  1  0
 44 48  1  0
 48 49  1  0
 48 50  2  0
 49 51  1  0
 51 52  1  0
 52 53  1  0
 52 54  1  0
 52 55  1  0
  1 56  1  0
  1 57  1  0
  7 58  1  0
  8 59  1  0
  9 60  1  0
 10 61  1  0
 12 62  1  0
 14 63  1  6
 15 64  1  6
 16 65  1  0
 16 66  1  0
 18 67  1  0
 18 68  1  0
 19 69  1  0
 19 70  1  0
 20 71  1  0
 20 72  1  0
 20 73  1  0
 22 74  1  0
 24 75  1  0
 24 76  1  0
 34 77  1  0
 35 78  1  0
 36 79  1  0
 37 80  1  0
 39 81  1  0
 41 82  1  6
 42 83  1  6
 43 84  1  0
 43 85  1  0
 45 86  1  0
 45 87  1  0
 46 88  1  0
 46 89  1  0
 47 90  1  0
 47 91  1  0
 47 92  1  0
 49 93  1  0
 51 94  1  0
 51 95  1  0
M  END
> <Uni-Dock RESULT> 
ENERGY=   -5.883  LOWER_BOUND=    3.239  UPPER_BOUND=    5.616
INTER + INTRA:          -5.883
INTER:                  -5.883
INTRA:                   0.000
UNBOUND:                 0.000

$$$$

     RDKit          3D

 95100  0  0  0  0  0  0  0  0999 V2000
   48.5279    8.1163   13.0124 O   0  0  0  0  0  0  0  0  0  0  0  0
   53.5028   10.2878   12.2845 N   0  0  0  0  0  0  0  0  0  0  0  0
   52.7384   10.6131   13.3638 C   0  0  0  0  0  0  0  0  0  0  0  0
   51.4447   10.2334   13.6669 C   0  0  0  0  0  0  0  0  0  0  0  0
   50.8143    9.3905   12.7323 N   0  0  0  0  0  0  0  0  0  0  0  0
   51.5401    9.0214   11.6181 C   0  0  0  0  0  0  0  0  0  0  0  0
   52.8962    9.4996   11.4289 C   0  0  0  0  0  0  0  0  0  0  0  0
   51.0728   10.8079   14.8920 C   0  0  0  0  0  0  0  0  0  0  0  0
   52.1658   11.5435   15.3151 C   0  0  0  0  0  0  0  0  0  0  0  0
   53.1692   11.4195   14.3794 N   0  0  0  0  0  0  0  0  0  0  0  0
   50.8622    8.2271   10.8211 N   0  0  0  0  0  0  0  0  0  0  0  0
   49.6446    8.0864   11.4389 C   0  0  0  0  0  0  0  0  0  0  0  0
   49.5778    8.7893   12.6358 C   0  0  0  0  0  0  0  0  0  0  0  0
   48.4661    8.9243   13.6382 C   0  0  2  0  0  0  0  0  0  0  0  0
   48.3581    7.7388   14.6261 C   0  0  1  0  0  0  0  0  0  0  0  0
   47.5229    6.7096   13.8568 C   0  0  0  0  0  0  0  0  0  0  0  0
   46.6724    7.5011   12.9800 N   0  0  0  0  0  0  0  0  0  0  0  0
   47.0743    8.9014   12.9800 C   0  0  0  0  0  0  0  0  0  0  0  0
   49.6728    7.1850   15.1811 C   0  0  0  0  0  0  0  0  0  0  0  0
   49.4526    6.0923   16.2188 C   0  0  0  0  0  0  0  0  0  0  0  0
   45.6776    7.0654   12.1457 C   0  0  0  0  0  0  0  0  0  0  0  0
   45.4400    5.7180   12.1803 N   0  0  0  0  0  0  0  0  0  0  0  0
   45.0618    7.8142   11.3944 O   0  0  0  0  0  0  0  0  0  0  0  0
   44.3181    5.1644   11.4193 C   0  0  0  0  0  0  0  0  0  0  0  0
   42.9471    5.3198   12.0824 C   0  0  0  0  0  0  0  0  0  0  0  0
   41.9982    4.6703   11.3681 F   0  0  0  0  0  0  0  0  0  0  0  0
   42.5569    6.6016   12.2140 F   0  0  0  0  0  0  0  0  0  0  0  0
   42.9617    4.7649   13.3207 F   0  0  0  0  0  0  0  0  0  0  0  0
   53.1199   10.4376   11.9798 N   0  0  0  0  0  0  0  0  0  0  0  0
   52.2207   10.9695   12.8536 C   0  0  0  0  0  0  0  0  0  0  0  0
   50.9966   10.4737   13.2608 C   0  0  0  0  0  0  0  0  0  0  0  0
   50.6114    9.2430   12.6966 N   0  0  0  0  0  0  0  0  0  0  0  0
   51.4867    8.6477   11.8115 C   0  0  0  0  0  0  0  0  0  0  0  0
   52.7443    9.2866   11.4744 C   0  0  0  0  0  0  0  0  0  0  0  0
   50.4268   11.3611   14.1862 C   0  0  0  0  0  0  0  0  0  0  0  0
   51.3284   12.4022   14.3205 C   0  0  0  0  0  0  0  0  0  0  0  0
   52.4120   12.1542   13.5070 N   0  0  0  0  0  0  0  0  0  0  0  0
   51.0369    7.4983   11.3617 N   0  0  0  0  0  0  0  0  0  0  0  0
   49.8215    7.3443   11.9797 C   0  0  0  0  0  0  0  0  0  0  0  0
   49.5128    8.4174   12.8070 C   0  0  0  0  0  0  0  0  0  0  0  0
   48.3008    8.6933   13.6512 C   0  0  2  0  0  0  0  0  0  0  0  0
   48.2736    7.9327   14.9960 C   0  0  1  0  0  0  0  0  0  0  0  0
   47.6780    6.5712   14.6226 C   0  0  0  0  0  0  0  0  0  0  0  0
   46.8089    6.8412   13.4876 N   0  0  0  0  0  0  0  0  0  0  0  0
   47.0017    8.1975   12.9877 C   0  0  0  0  0  0  0  0  0  0  0  0
   49.5960    7.8515   15.7624 C   0  0  0  0  0  0  0  0  0  0  0  0
   49.4424    7.1749   17.1178 C   0  0  0  0  0  0  0  0  0  0  0  0
   45.8607    5.9265   13.1123 C   0  0  0  0  0  0  0  0  0  0  0  0
   45.0514    6.3185   12.0801 N   0  0  0  0  0  0  0  0  0  0  0  0
   45.7181    4.8454   13.6740 O   0  0  0  0  0  0  0  0  0  0  0  0
   44.0813    5.3697   11.5290 C   0  0  0  0  0  0  0  0  0  0  0  0
   44.6602    4.3506   10.5438 C   0  0  0  0  0  0  0  0  0  0  0  0
   45.2636    4.9922    9.5121 F   0  0  0  0  0  0  0  0  0  0  0  0
   43.6735    3.5884   10.0164 F   0  0  0  0  0  0  0  0  0  0  0  0
   45.5671    3.5250   11.0982 F   0  0  0  0  0  0  0  0  0  0  0  0
   47.9654    7.4500   13.4349 H   0  0  0  0  0  0  0  0  0  0  0  0
   49.2506    8.2471   13.6444 H   0  0  0  0  0  0  0  0  0  0  0  0
   53.4352    9.1810   10.5221 H   0  0  0  0  0  0  0  0  0  0  0  0
   50.1426   10.7205   15.4346 H   0  0  0  0  0  0  0  0  0  0  0  0
   52.3194   12.1460   16.2008 H   0  0  0  0  0  0  0  0  0  0  0  0
   54.0846   11.8465   14.4198 H   0  0  0  0  0  0  0  0  0  0  0  0
   48.8666    7.4802   10.9879 H   0  0  0  0  0  0  0  0  0  0  0  0
   48.5697    9.8719   14.1724 H   0  0  0  0  0  0  0  0  0  0  0  0
   47.7509    8.0883   15.4749 H   0  0  0  0  0  0  0  0  0  0  0  0
   48.1344    6.0461   13.2353 H   0  0  0  0  0  0  0  0  0  0  0  0
   46.9092    6.1009   14.5284 H   0  0  0  0  0  0  0  0  0  0  0  0
   47.0465    9.3271   11.9715 H   0  0  0  0  0  0  0  0  0  0  0  0
   46.3464    9.4378   13.6006 H   0  0  0  0  0  0  0  0  0  0  0  0
   50.2391    7.9962   15.6507 H   0  0  0  0  0  0  0  0  0  0  0  0
   50.2962    6.7766   14.3774 H   0  0  0  0  0  0  0  0  0  0  0  0
   48.8389    6.4567   17.0487 H   0  0  0  0  0  0  0  0  0  0  0  0
   48.9587    5.2194   15.7811 H   0  0  0  0  0  0  0  0  0  0  0  0
   50.4132    5.7625   16.6276 H   0  0  0  0  0  0  0  0  0  0  0  0
   45.6704    5.2476   13.0416 H   0  0  0  0  0  0  0  0  0  0  0  0
   44.5346    4.0990   11.2902 H   0  0  0  0  0  0  0  0  0  0  0  0
   44.2994    5.6248   10.4258 H   0  0  0  0  0  0  0  0  0  0  0  0
   53.4085    8.7756   10.7591 H   0  0  0  0  0  0  0  0  0  0  0  0
   49.4890   11.2877   14.7176 H   0  0  0  0  0  0  0  0  0  0  0  0
   51.2978   13.2976   14.9275 H   0  0  0  0  0  0  0  0  0  0  0  0
   53.2298   12.7387   13.4007 H   0  0  0  0  0  0  0  0  0  0  0  0
   49.2194    6.4617   11.7933 H   0  0  0  0  0  0  0  0  0  0  0  0
   48.2047    9.7701   13.8097 H   0  0  0  0  0  0  0  0  0  0  0  0
   47.5409    8.4474   15.6359 H   0  0  0  0  0  0  0  0  0  0  0  0
   48.4400    5.8531   14.3004 H   0  0  0  0  0  0  0  0  0  0  0  0
   47.1078    6.1294   15.4467 H   0  0  0  0  0  0  0  0  0  0  0  0
   47.0300    8.2178   11.8942 H   0  0  0  0  0  0  0  0  0  0  0  0
   46.1423    8.7887   13.3257 H   0  0  0  0  0  0  0  0  0  0  0  0
   49.9849    8.8630   15.9228 H   0  0  0  0  0  0  0  0  0  0  0  0
   50.3493    7.3024   15.1864 H   0  0  0  0  0  0  0  0  0  0  0  0
   50.3944    7.1932   17.6577 H   0  0  0  0  0  0  0  0  0  0  0  0
   49.1400    6.1292   17.0091 H   0  0  0  0  0  0  0  0  0  0  0  0
   48.6953    7.6883   17.7310 H   0  0  0  0  0  0  0  0  0  0  0  0
   45.4597    6.9632   11.4212 H   0  0  0  0  0  0  0  0  0  0  0  0
   43.5867    4.8446   12.3535 H   0  0  0  0  0  0  0  0  0  0  0  0
   43.3242    5.9724   11.0165 H   0  0  0  0  0  0  0  0  0  0  0  0
  2  3  1  0
  4  5  1  0
  6  7  1  0
  7  2  2  0
  3 10  1  0
  3  4  2  0
  4  8  1  0
  8  9  2  0
  9 10  1  0
  5 13  1  0
  5  6  1  0
  6 11  2  0
 11 12  1  0
 12 13  2  0
 14 13  1  0
 14 15  1  0
 14 18  1  0
 15 16  1  0
 16 17  1  0
 17 18  1  0
 15 19  1  0
 19 20  1  0
 17 21  1  0
 21 22  1  0
 21 23  2  0
 22 24  1  0
 24 25  1  0
 25 26  1  0
 25 27  1  0
 25 28  1  0
 29 30  1  0
 31 32  1  0
 33 34  1  0
 34 29  2  0
 30 37  1  0
 30 31  2  0
 31 35  1  0
 35 36  2  0
 36 37  1  0
 32 40  1  0
 32 33  1  0
 33 38  2  0
 38 39  1  0
 39 40  2  0
 41 40  1  0
 41 42  1  0
 41 45  1  0
 42 43  1  0
 43 44  1  0
 44 45  1  0
 42 46  1  0
 46 47  1  0
 44 48  1  0
 48 49  1  0
 48 50  2  0
 49 51  1  0
 51 52  1  0
 52 53  1  0
 52 54  1  0
 52 55  1  0
  1 56  1  0
  1 57  1  0
  7 58  1  0
  8 59  1  0
  9 60  1  0
 10 61  1  0
 12 62  1  0
 14 63  1  6
 15 64  1  6
 16 65  1  0
 16 66  1  0
 18 67  1  0
 18 68  1  0
 19 69  1  0
 19 70  1  0
 20 71  1  0
 20 72  1  0
 20 73  1  0
 22 74  1  0
 24 75  1  0
 24 76  1  0
 34 77  1  0
 35 78  1  0
 36 79  1  0
 37 80  1  0
 39 81  1  0
 41 82  1  6
 42 83  1  6
 43 84  1  0
 43 85  1  0
 45 86  1  0
 45 87  1  0
 46 88  1  0
 46 89  1  0
 47 90  1  0
 47 91  1  0
 47 92  1  0
 49 93  1  0
 51 94  1  0
 51 95  1  0
M  END
> <Uni-Dock RESULT> 
ENERGY=   -5.614  LOWER_BOUND=    5.039  UPPER_BOUND=    7.918
INTER + INTRA:          -5.614
INTER:                  -5.614
INTRA:                   0.000
UNBOUND:                 0.000

$$$$

     RDKit          3D

 95100  0  0  0  0  0  0  0  0999 V2000
   49.1304    8.8538   16.2530 O   0  0  0  0  0  0  0  0  0  0  0  0
   48.1185   14.2016   16.8635 N   0  0  0  0  0  0  0  0  0  0  0  0
   48.7451   13.7209   15.7538 C   0  0  0  0  0  0  0  0  0  0  0  0
   49.1515   12.4315   15.4671 C   0  0  0  0  0  0  0  0  0  0  0  0
   48.8875   11.4669   16.4577 N   0  0  0  0  0  0  0  0  0  0  0  0
   48.2496   11.8922   17.6052 C   0  0  0  0  0  0  0  0  0  0  0  0
   47.8801   13.2849   17.7713 C   0  0  0  0  0  0  0  0  0  0  0  0
   49.7476   12.4099   14.1969 C   0  0  0  0  0  0  0  0  0  0  0  0
   49.6958   13.7113   13.7297 C   0  0  0  0  0  0  0  0  0  0  0  0
   49.0875   14.4978   14.6831 N   0  0  0  0  0  0  0  0  0  0  0  0
   48.0427   10.9115   18.4543 N   0  0  0  0  0  0  0  0  0  0  0  0
   48.5792    9.8096   17.8361 C   0  0  0  0  0  0  0  0  0  0  0  0
   49.1082   10.1126   16.5873 C   0  0  0  0  0  0  0  0  0  0  0  0
   49.7826    9.2411   15.5654 C   0  0  2  0  0  0  0  0  0  0  0  0
   48.8051    8.4419   14.6719 C   0  0  1  0  0  0  0  0  0  0  0  0
   48.4938    7.1971   15.5100 C   0  0  0  0  0  0  0  0  0  0  0  0
   49.6884    6.9810   16.3130 N   0  0  0  0  0  0  0  0  0  0  0  0
   50.6046    8.1088   16.2081 C   0  0  0  0  0  0  0  0  0  0  0  0
   47.5625    9.1859   14.1762 C   0  0  0  0  0  0  0  0  0  0  0  0
   46.7213    8.3456   13.2246 C   0  0  0  0  0  0  0  0  0  0  0  0
   49.9585    5.9457   17.1679 C   0  0  0  0  0  0  0  0  0  0  0  0
   48.9894    4.9817   17.2359 N   0  0  0  0  0  0  0  0  0  0  0  0
   50.9754    5.8935   17.8516 O   0  0  0  0  0  0  0  0  0  0  0  0
   49.2304    3.7722   18.0255 C   0  0  0  0  0  0  0  0  0  0  0  0
   50.0933    2.7116   17.3373 C   0  0  0  0  0  0  0  0  0  0  0  0
   50.1539    1.5878   18.0898 F   0  0  0  0  0  0  0  0  0  0  0  0
   51.3555    3.1168   17.1019 F   0  0  0  0  0  0  0  0  0  0  0  0
   49.5440    2.3633   16.1464 F   0  0  0  0  0  0  0  0  0  0  0  0
   48.4811   13.9833   17.1513 N   0  0  0  0  0  0  0  0  0  0  0  0
   49.3679   13.5170   16.2289 C   0  0  0  0  0  0  0  0  0  0  0  0
   49.6324   12.2150   15.8483 C   0  0  0  0  0  0  0  0  0  0  0  0
   48.8851   11.2176   16.5026 N   0  0  0  0  0  0  0  0  0  0  0  0
   47.9607   11.6286   17.4410 C   0  0  0  0  0  0  0  0  0  0  0  0
   47.7893   13.0372   17.7409 C   0  0  0  0  0  0  0  0  0  0  0  0
   50.6185   12.2199   14.8503 C   0  0  0  0  0  0  0  0  0  0  0  0
   50.9462   13.5485   14.6450 C   0  0  0  0  0  0  0  0  0  0  0  0
   50.1820   14.3258   15.4872 N   0  0  0  0  0  0  0  0  0  0  0  0
   47.3088   10.6205   17.9742 N   0  0  0  0  0  0  0  0  0  0  0  0
   47.8331    9.5128   17.3569 C   0  0  0  0  0  0  0  0  0  0  0  0
   48.8290    9.8413   16.4449 C   0  0  0  0  0  0  0  0  0  0  0  0
   49.6871    8.9733   15.5686 C   0  0  2  0  0  0  0  0  0  0  0  0
   48.9859    8.4698   14.2871 C   0  0  1  0  0  0  0  0  0  0  0  0
   48.2383    7.2183   14.7591 C   0  0  0  0  0  0  0  0  0  0  0  0
   49.0350    6.6990   15.8600 N   0  0  0  0  0  0  0  0  0  0  0  0
   50.0696    7.6479   16.2546 C   0  0  0  0  0  0  0  0  0  0  0  0
   48.1108    9.4820   13.5438 C   0  0  0  0  0  0  0  0  0  0  0  0
   47.5497    8.9221   12.2438 C   0  0  0  0  0  0  0  0  0  0  0  0
   48.8543    5.4127   16.2951 C   0  0  0  0  0  0  0  0  0  0  0  0
   49.7095    5.0083   17.2847 N   0  0  0  0  0  0  0  0  0  0  0  0
   48.0118    4.6597   15.8180 O   0  0  0  0  0  0  0  0  0  0  0  0
   49.5257    3.6909   17.8976 C   0  0  0  0  0  0  0  0  0  0  0  0
   48.4309    3.6206   18.9655 C   0  0  0  0  0  0  0  0  0  0  0  0
   48.6839    4.5184   19.9505 F   0  0  0  0  0  0  0  0  0  0  0  0
   48.4075    2.3950   19.5400 F   0  0  0  0  0  0  0  0  0  0  0  0
   47.1988    3.8751   18.4872 F   0  0  0  0  0  0  0  0  0  0  0  0
   48.8767    7.9972   15.8776 H   0  0  0  0  0  0  0  0  0  0  0  0
   48.7804    9.4992   15.6206 H   0  0  0  0  0  0  0  0  0  0  0  0
   47.3756   13.5782   18.7060 H   0  0  0  0  0  0  0  0  0  0  0  0
   50.1690   11.5770   13.6527 H   0  0  0  0  0  0  0  0  0  0  0  0
   50.0388   14.1492   12.8014 H   0  0  0  0  0  0  0  0  0  0  0  0
   48.9115   15.4912   14.6195 H   0  0  0  0  0  0  0  0  0  0  0  0
   48.5590    8.8416   18.3245 H   0  0  0  0  0  0  0  0  0  0  0  0
   50.4612    9.8471   14.9600 H   0  0  0  0  0  0  0  0  0  0  0  0
   49.3778    8.1123   13.7918 H   0  0  0  0  0  0  0  0  0  0  0  0
   47.6457    7.3432   16.1881 H   0  0  0  0  0  0  0  0  0  0  0  0
   48.2990    6.3224   14.8813 H   0  0  0  0  0  0  0  0  0  0  0  0
   51.0397    8.3645   17.1800 H   0  0  0  0  0  0  0  0  0  0  0  0
   51.4153    7.7948   15.5396 H   0  0  0  0  0  0  0  0  0  0  0  0
   47.8699   10.0964   13.6509 H   0  0  0  0  0  0  0  0  0  0  0  0
   46.9292    9.4937   15.0160 H   0  0  0  0  0  0  0  0  0  0  0  0
   47.3114    8.0199   12.3621 H   0  0  0  0  0  0  0  0  0  0  0  0
   46.3199    7.4583   13.7237 H   0  0  0  0  0  0  0  0  0  0  0  0
   45.8745    8.9318   12.8533 H   0  0  0  0  0  0  0  0  0  0  0  0
   48.4125    4.8722   16.4166 H   0  0  0  0  0  0  0  0  0  0  0  0
   48.2443    3.3476   18.2397 H   0  0  0  0  0  0  0  0  0  0  0  0
   49.6875    4.0545   18.9798 H   0  0  0  0  0  0  0  0  0  0  0  0
   47.0425   13.3168   18.5011 H   0  0  0  0  0  0  0  0  0  0  0  0
   51.0565   11.3891   14.3160 H   0  0  0  0  0  0  0  0  0  0  0  0
   51.6535   14.0119   13.9697 H   0  0  0  0  0  0  0  0  0  0  0  0
   50.2009   15.3341   15.5564 H   0  0  0  0  0  0  0  0  0  0  0  0
   47.4678    8.5223   17.6050 H   0  0  0  0  0  0  0  0  0  0  0  0
   50.6118    9.5023   15.3255 H   0  0  0  0  0  0  0  0  0  0  0  0
   49.7802    8.1387   13.6010 H   0  0  0  0  0  0  0  0  0  0  0  0
   47.2385    7.4462   15.1447 H   0  0  0  0  0  0  0  0  0  0  0  0
   48.1443    6.4691   13.9658 H   0  0  0  0  0  0  0  0  0  0  0  0
   50.1470    7.7216   17.3434 H   0  0  0  0  0  0  0  0  0  0  0  0
   51.0201    7.2671   15.8621 H   0  0  0  0  0  0  0  0  0  0  0  0
   48.7050   10.3718   13.3092 H   0  0  0  0  0  0  0  0  0  0  0  0
   47.2720    9.8081   14.1691 H   0  0  0  0  0  0  0  0  0  0  0  0
   46.9832    9.6949   11.7146 H   0  0  0  0  0  0  0  0  0  0  0  0
   46.8744    8.0819   12.4305 H   0  0  0  0  0  0  0  0  0  0  0  0
   48.3529    8.5794   11.5843 H   0  0  0  0  0  0  0  0  0  0  0  0
   50.0502    5.7344   17.8957 H   0  0  0  0  0  0  0  0  0  0  0  0
   49.3205    2.9563   17.1112 H   0  0  0  0  0  0  0  0  0  0  0  0
   50.4869    3.4309   18.3531 H   0  0  0  0  0  0  0  0  0  0  0  0
  2  3  1  0
  4  5  1  0
  6  7  1  0
  7  2  2  0
  3 10  1  0
  3  4  2  0
  4  8  1  0
  8  9  2  0
  9 10  1  0
  5 13  1  0
  5  6  1  0
  6 11  2  0
 11 12  1  0
 12 13  2  0
 14 13  1  0
 14 15  1  0
 14 18  1  0
 15 16  1  0
 16 17  1  0
 17 18  1  0
 15 19  1  0
 19 20  1  0
 17 21  1  0
 21 22  1  0
 21 23  2  0
 22 24  1  0
 24 25  1  0
 25 26  1  0
 25 27  1  0
 25 28  1  0
 29 30  1  0
 31 32  1  0
 33 34  1  0
 34 29  2  0
 30 37  1  0
 30 31  2  0
 31 35  1  0
 35 36  2  0
 36 37  1  0
 32 40  1  0
 32 33  1  0
 33 38  2  0
 38 39  1  0
 39 40  2  0
 41 40  1  0
 41 42  1  0
 41 45  1  0
 42 43  1  0
 43 44  1  0
 44 45  1  0
 42 46  1  0
 46 47  1  0
 44 48  1  0
 48 49  1  0
 48 50  2  0
 49 51  1  0
 51 52  1  0
 52 53  1  0
 52 54  1  0
 52 55  1  0
  1 56  1  0
  1 57  1  0
  7 58  1  0
  8 59  1  0
  9 60  1  0
 10 61  1  0
 12 62  1  0
 14 63  1  6
 15 64  1  6
 16 65  1  0
 16 66  1  0
 18 67  1  0
 18 68  1  0
 19 69  1  0
 19 70  1  0
 20 71  1  0
 20 72  1  0
 20 73  1  0
 22 74  1  0
 24 75  1  0
 24 76  1  0
 34 77  1  0
 35 78  1  0
 36 79  1  0
 37 80  1  0
 39 81  1  0
 41 82  1  6
 42 83  1  6
 43 84  1  0
 43 85  1  0
 45 86  1  0
 45 87  1  0
 46 88  1  0
 46 89  1  0
 47 90  1  0
 47 91  1  0
 47 92  1  0
 49 93  1  0
 51 94  1  0
 51 95  1  0
M  END
> <Uni-Dock RESULT> 
ENERGY=   -5.409  LOWER_BOUND=    3.930  UPPER_BOUND=    7.878
INTER + INTRA:          -5.409
INTER:                  -5.409
INTRA:                   0.000
UNBOUND:                 0.000

$$$$

     RDKit          3D

 95100  0  0  0  0  0  0  0  0999 V2000
   49.0963    8.7154   19.1565 O   0  0  0  0  0  0  0  0  0  0  0  0
   51.1874   13.6506   20.2815 N   0  0  0  0  0  0  0  0  0  0  0  0
   49.8462   13.4199   20.3360 C   0  0  0  0  0  0  0  0  0  0  0  0
   49.1404   12.2773   20.0104 C   0  0  0  0  0  0  0  0  0  0  0  0
   49.9064   11.1884   19.5532 N   0  0  0  0  0  0  0  0  0  0  0  0
   51.2738   11.3592   19.4800 C   0  0  0  0  0  0  0  0  0  0  0  0
   51.8811   12.6216   19.8556 C   0  0  0  0  0  0  0  0  0  0  0  0
   47.7736   12.5023   20.2352 C   0  0  0  0  0  0  0  0  0  0  0  0
   47.6726   13.8030   20.6965 C   0  0  0  0  0  0  0  0  0  0  0  0
   48.9357   14.3501   20.7517 N   0  0  0  0  0  0  0  0  0  0  0  0
   51.8898   10.2801   19.0537 N   0  0  0  0  0  0  0  0  0  0  0  0
   50.8788    9.3789   18.8308 C   0  0  0  0  0  0  0  0  0  0  0  0
   49.6292    9.9039   19.1374 C   0  0  0  0  0  0  0  0  0  0  0  0
   48.2578    9.2943   19.0565 C   0  0  2  0  0  0  0  0  0  0  0  0
   47.8920    8.3981   20.2631 C   0  0  1  0  0  0  0  0  0  0  0  0
   48.5032    7.0413   19.8967 C   0  0  0  0  0  0  0  0  0  0  0  0
   48.4795    7.0033   18.4418 N   0  0  0  0  0  0  0  0  0  0  0  0
   48.1229    8.3022   17.8867 C   0  0  0  0  0  0  0  0  0  0  0  0
   48.2971    8.9106   21.6474 C   0  0  0  0  0  0  0  0  0  0  0  0
   47.8024    8.0084   22.7702 C   0  0  0  0  0  0  0  0  0  0  0  0
   48.8337    5.9700   17.6157 C   0  0  0  0  0  0  0  0  0  0  0  0
   49.2206    4.8230   18.2544 N   0  0  0  0  0  0  0  0  0  0  0  0
   48.8395    6.0658   16.3930 O   0  0  0  0  0  0  0  0  0  0  0  0
   49.5027    3.6205   17.4680 C   0  0  0  0  0  0  0  0  0  0  0  0
   48.2672    2.8342   17.0223 C   0  0  0  0  0  0  0  0  0  0  0  0
   48.6324    1.6809   16.4146 F   0  0  0  0  0  0  0  0  0  0  0  0
   47.4764    3.5145   16.1712 F   0  0  0  0  0  0  0  0  0  0  0  0
   47.5159    2.4947   18.1002 F   0  0  0  0  0  0  0  0  0  0  0  0
   51.1865   13.4863   19.7968 N   0  0  0  0  0  0  0  0  0  0  0  0
   49.8623   13.3058   19.5347 C   0  0  0  0  0  0  0  0  0  0  0  0
   49.1531   12.1303   19.3766 C   0  0  0  0  0  0  0  0  0  0  0  0
   49.8957   10.9409   19.4999 N   0  0  0  0  0  0  0  0  0  0  0  0
   51.2423   11.0581   19.7770 C   0  0  0  0  0  0  0  0  0  0  0  0
   51.8563   12.3645   19.9173 C   0  0  0  0  0  0  0  0  0  0  0  0
   47.8057   12.4365   19.1324 C   0  0  0  0  0  0  0  0  0  0  0  0
   47.7216   13.8176   19.1393 C   0  0  0  0  0  0  0  0  0  0  0  0
   48.9751   14.3340   19.3834 N   0  0  0  0  0  0  0  0  0  0  0  0
   51.8322    9.8898   19.8893 N   0  0  0  0  0  0  0  0  0  0  0  0
   50.8273    8.9802   19.6751 C   0  0  0  0  0  0  0  0  0  0  0  0
   49.6089    9.5952   19.4133 C   0  0  0  0  0  0  0  0  0  0  0  0
   48.2592    9.0135   19.1007 C   0  0  2  0  0  0  0  0  0  0  0  0
   47.4846    8.4999   20.3351 C   0  0  1  0  0  0  0  0  0  0  0  0
   48.0279    7.0806   20.5308 C   0  0  0  0  0  0  0  0  0  0  0  0
   48.4028    6.6359   19.1974 N   0  0  0  0  0  0  0  0  0  0  0  0
   48.3577    7.7375   18.2429 C   0  0  0  0  0  0  0  0  0  0  0  0
   47.5419    9.3737   21.5905 C   0  0  0  0  0  0  0  0  0  0  0  0
   46.6658    8.8364   22.7140 C   0  0  0  0  0  0  0  0  0  0  0  0
   48.6050    5.3045   18.9461 C   0  0  0  0  0  0  0  0  0  0  0  0
   48.8797    4.9945   17.6412 N   0  0  0  0  0  0  0  0  0  0  0  0
   48.5177    4.4416   19.8133 O   0  0  0  0  0  0  0  0  0  0  0  0
   49.2234    3.6152   17.2886 C   0  0  0  0  0  0  0  0  0  0  0  0
   50.6735    3.2160   17.5745 C   0  0  0  0  0  0  0  0  0  0  0  0
   51.5224    4.0481   16.9208 F   0  0  0  0  0  0  0  0  0  0  0  0
   50.9177    1.9632   17.1234 F   0  0  0  0  0  0  0  0  0  0  0  0
   50.9915    3.2525   18.8818 F   0  0  0  0  0  0  0  0  0  0  0  0
   48.7564    7.8647   19.4726 H   0  0  0  0  0  0  0  0  0  0  0  0
   48.8912    9.3311   19.8760 H   0  0  0  0  0  0  0  0  0  0  0  0
   52.9765   12.7122   19.7773 H   0  0  0  0  0  0  0  0  0  0  0  0
   46.9377   11.8318   20.0971 H   0  0  0  0  0  0  0  0  0  0  0  0
   46.8123   14.3897   20.9910 H   0  0  0  0  0  0  0  0  0  0  0  0
   49.1724   15.2864   21.0505 H   0  0  0  0  0  0  0  0  0  0  0  0
   51.1010    8.3856   18.4564 H   0  0  0  0  0  0  0  0  0  0  0  0
   47.5155   10.0837   18.9149 H   0  0  0  0  0  0  0  0  0  0  0  0
   46.7977    8.2812   20.2505 H   0  0  0  0  0  0  0  0  0  0  0  0
   49.5434    6.9416   20.2262 H   0  0  0  0  0  0  0  0  0  0  0  0
   47.9203    6.2097   20.3050 H   0  0  0  0  0  0  0  0  0  0  0  0
   48.7375    8.5486   17.0146 H   0  0  0  0  0  0  0  0  0  0  0  0
   47.0778    8.2297   17.5624 H   0  0  0  0  0  0  0  0  0  0  0  0
   47.8793    9.9112   21.8008 H   0  0  0  0  0  0  0  0  0  0  0  0
   49.3866    8.9975   21.7296 H   0  0  0  0  0  0  0  0  0  0  0  0
   46.7141    7.8972   22.7341 H   0  0  0  0  0  0  0  0  0  0  0  0
   48.2537    7.0133   22.7113 H   0  0  0  0  0  0  0  0  0  0  0  0
   48.0666    8.4379   23.7421 H   0  0  0  0  0  0  0  0  0  0  0  0
   48.8358    4.6746   19.1742 H   0  0  0  0  0  0  0  0  0  0  0  0
   50.1243    2.9809   18.1029 H   0  0  0  0  0  0  0  0  0  0  0  0
   50.0963    3.8991   16.5908 H   0  0  0  0  0  0  0  0  0  0  0  0
   52.9357   12.4080   20.1337 H   0  0  0  0  0  0  0  0  0  0  0  0
   46.9696   11.7705   18.9754 H   0  0  0  0  0  0  0  0  0  0  0  0
   46.8786   14.4810   18.9964 H   0  0  0  0  0  0  0  0  0  0  0  0
   49.2193   15.3126   19.4498 H   0  0  0  0  0  0  0  0  0  0  0  0
   51.0330    7.9162   19.7155 H   0  0  0  0  0  0  0  0  0  0  0  0
   47.6673    9.7445   18.5447 H   0  0  0  0  0  0  0  0  0  0  0  0
   46.4304    8.4091   20.0320 H   0  0  0  0  0  0  0  0  0  0  0  0
   48.9253    7.0569   21.1588 H   0  0  0  0  0  0  0  0  0  0  0  0
   47.2803    6.4079   20.9643 H   0  0  0  0  0  0  0  0  0  0  0  0
   49.2245    7.7210   17.5756 H   0  0  0  0  0  0  0  0  0  0  0  0
   47.4512    7.6028   17.6408 H   0  0  0  0  0  0  0  0  0  0  0  0
   47.2048   10.3863   21.3432 H   0  0  0  0  0  0  0  0  0  0  0  0
   48.5689    9.4562   21.9635 H   0  0  0  0  0  0  0  0  0  0  0  0
   46.6865    9.5211   23.5677 H   0  0  0  0  0  0  0  0  0  0  0  0
   47.0167    7.8598   23.0604 H   0  0  0  0  0  0  0  0  0  0  0  0
   45.6265    8.7336   22.3871 H   0  0  0  0  0  0  0  0  0  0  0  0
   49.3407    5.7137   17.1057 H   0  0  0  0  0  0  0  0  0  0  0  0
   48.5440    2.9328   17.8110 H   0  0  0  0  0  0  0  0  0  0  0  0
   49.0309    3.5191   16.2150 H   0  0  0  0  0  0  0  0  0  0  0  0
  2  3  1  0
  4  5  1  0
  6  7  1  0
  7  2  2  0
  3 10  1  0
  3  4  2  0
  4  8  1  0
  8  9  2  0
  9 10  1  0
  5 13  1  0
  5  6  1  0
  6 11  2  0
 11 12  1  0
 12 13  2  0
 14 13  1  0
 14 15  1  0
 14 18  1  0
 15 16  1  0
 16 17  1  0
 17 18  1  0
 15 19  1  0
 19 20  1  0
 17 21  1  0
 21 22  1  0
 21 23  2  0
 22 24  1  0
 24 25  1  0
 25 26  1  0
 25 27  1  0
 25 28  1  0
 29 30  1  0
 31 32  1  0
 33 34  1  0
 34 29  2  0
 30 37  1  0
 30 31  2  0
 31 35  1  0
 35 36  2  0
 36 37  1  0
 32 40  1  0
 32 33  1  0
 33 38  2  0
 38 39  1  0
 39 40  2  0
 41 40  1  0
 41 42  1  0
 41 45  1  0
 42 43  1  0
 43 44  1  0
 44 45  1  0
 42 46  1  0
 46 47  1  0
 44 48  1  0
 48 49  1  0
 48 50  2  0
 49 51  1  0
 51 52  1  0
 52 53  1  0
 52 54  1  0
 52 55  1  0
  1 56  1  0
  1 57  1  0
  7 58  1  0
  8 59  1  0
  9 60  1  0
 10 61  1  0
 12 62  1  0
 14 63  1  6
 15 64  1  6
 16 65  1  0
 16 66  1  0
 18 67  1  0
 18 68  1  0
 19 69  1  0
 19 70  1  0
 20 71  1  0
 20 72  1  0
 20 73  1  0
 22 74  1  0
 24 75  1  0
 24 76  1  0
 34 77  1  0
 35 78  1  0
 36 79  1  0
 37 80  1  0
 39 81  1  0
 41 82  1  6
 42 83  1  6
 43 84  1  0
 43 85  1  0
 45 86  1  0
 45 87  1  0
 46 88  1  0
 46 89  1  0
 47 90  1  0
 47 91  1  0
 47 92  1  0
 49 93  1  0
 51 94  1  0
 51 95  1  0
M  END
> <Uni-Dock RESULT> 
ENERGY=   -5.404  LOWER_BOUND=    4.848  UPPER_BOUND=    8.239
INTER + INTRA:          -5.404
INTER:                  -5.404
INTRA:                   0.000
UNBOUND:                 0.000

$$$$

     RDKit          3D

 95100  0  0  0  0  0  0  0  0999 V2000
   49.2093    8.0889   18.3954 O   0  0  0  0  0  0  0  0  0  0  0  0
   50.7327    2.9161   17.4382 N   0  0  0  0  0  0  0  0  0  0  0  0
   49.5311    3.3921   17.0087 C   0  0  0  0  0  0  0  0  0  0  0  0
   48.9504    4.6272   17.2257 C   0  0  0  0  0  0  0  0  0  0  0  0
   49.6978    5.5322   18.0029 N   0  0  0  0  0  0  0  0  0  0  0  0
   50.9277    5.1092   18.4642 C   0  0  0  0  0  0  0  0  0  0  0  0
   51.4127    3.7771   18.1577 C   0  0  0  0  0  0  0  0  0  0  0  0
   47.7056    4.6691   16.5793 C   0  0  0  0  0  0  0  0  0  0  0  0
   47.5483    3.4341   15.9753 C   0  0  0  0  0  0  0  0  0  0  0  0
   48.6607    2.6674   16.2442 N   0  0  0  0  0  0  0  0  0  0  0  0
   51.5427    6.0336   19.1661 N   0  0  0  0  0  0  0  0  0  0  0  0
   50.6701    7.0931   19.1689 C   0  0  0  0  0  0  0  0  0  0  0  0
   49.5127    6.8232   18.4487 C   0  0  0  0  0  0  0  0  0  0  0  0
   48.3007    7.6698   18.1783 C   0  0  2  0  0  0  0  0  0  0  0  0
   48.4794    8.6776   17.0184 C   0  0  1  0  0  0  0  0  0  0  0  0
   49.1531    9.8785   17.6912 C   0  0  0  0  0  0  0  0  0  0  0  0
   48.6809    9.8471   19.0677 N   0  0  0  0  0  0  0  0  0  0  0  0
   47.9660    8.6097   19.3511 C   0  0  0  0  0  0  0  0  0  0  0  0
   49.2109    8.1697   15.7734 C   0  0  0  0  0  0  0  0  0  0  0  0
   49.2436    9.2027   14.6549 C   0  0  0  0  0  0  0  0  0  0  0  0
   48.9183   10.7546   20.0655 C   0  0  0  0  0  0  0  0  0  0  0  0
   49.6635   11.8415   19.6960 N   0  0  0  0  0  0  0  0  0  0  0  0
   48.5252   10.5980   21.2167 O   0  0  0  0  0  0  0  0  0  0  0  0
   49.8728   12.9305   20.6522 C   0  0  0  0  0  0  0  0  0  0  0  0
   48.7019   13.9072   20.7869 C   0  0  0  0  0  0  0  0  0  0  0  0
   49.0371   14.9415   21.5935 F   0  0  0  0  0  0  0  0  0  0  0  0
   47.5863   13.3422   21.2858 F   0  0  0  0  0  0  0  0  0  0  0  0
   48.3905   14.4329   19.5753 F   0  0  0  0  0  0  0  0  0  0  0  0
   50.6062    3.0532   17.9147 N   0  0  0  0  0  0  0  0  0  0  0  0
   49.3132    3.4608   17.7853 C   0  0  0  0  0  0  0  0  0  0  0  0
   48.7871    4.7373   17.8459 C   0  0  0  0  0  0  0  0  0  0  0  0
   49.7105    5.7744   18.0761 N   0  0  0  0  0  0  0  0  0  0  0  0
   51.0393    5.4255   18.2046 C   0  0  0  0  0  0  0  0  0  0  0  0
   51.4498    4.0371   18.1187 C   0  0  0  0  0  0  0  0  0  0  0  0
   47.4005    4.6724   17.6416 C   0  0  0  0  0  0  0  0  0  0  0  0
   47.1037    3.3324   17.4652 C   0  0  0  0  0  0  0  0  0  0  0  0
   48.2713    2.6072   17.5552 N   0  0  0  0  0  0  0  0  0  0  0  0
   51.8130    6.4695   18.3974 N   0  0  0  0  0  0  0  0  0  0  0  0
   50.9501    7.5364   18.3946 C   0  0  0  0  0  0  0  0  0  0  0  0
   49.6294    7.1438   18.2133 C   0  0  0  0  0  0  0  0  0  0  0  0
   48.3607    7.9475   18.1662 C   0  0  2  0  0  0  0  0  0  0  0  0
   48.1044    8.6563   16.8173 C   0  0  1  0  0  0  0  0  0  0  0  0
   48.9006    9.9593   16.9433 C   0  0  0  0  0  0  0  0  0  0  0  0
   48.9044   10.2598   18.3667 N   0  0  0  0  0  0  0  0  0  0  0  0
   48.3874    9.1387   19.1429 C   0  0  0  0  0  0  0  0  0  0  0  0
   48.4122    7.8511   15.5526 C   0  0  0  0  0  0  0  0  0  0  0  0
   48.0299    8.5963   14.2810 C   0  0  0  0  0  0  0  0  0  0  0  0
   49.2273   11.5169   18.8051 C   0  0  0  0  0  0  0  0  0  0  0  0
   49.1247   11.7050   20.1573 N   0  0  0  0  0  0  0  0  0  0  0  0
   49.5550   12.4237   18.0470 O   0  0  0  0  0  0  0  0  0  0  0  0
   49.5559   12.9780   20.7392 C   0  0  0  0  0  0  0  0  0  0  0  0
   51.0667   13.1174   20.9444 C   0  0  0  0  0  0  0  0  0  0  0  0
   51.5238   12.1115   21.7315 F   0  0  0  0  0  0  0  0  0  0  0  0
   51.3536   14.2796   21.5767 F   0  0  0  0  0  0  0  0  0  0  0  0
   51.7683   13.0888   19.7962 F   0  0  0  0  0  0  0  0  0  0  0  0
   49.1259    9.0023   18.0830 H   0  0  0  0  0  0  0  0  0  0  0  0
   49.1447    7.5584   17.5872 H   0  0  0  0  0  0  0  0  0  0  0  0
   52.3991    3.4827   18.5507 H   0  0  0  0  0  0  0  0  0  0  0  0
   46.9866    5.4742   16.5301 H   0  0  0  0  0  0  0  0  0  0  0  0
   46.7417    3.0313   15.3768 H   0  0  0  0  0  0  0  0  0  0  0  0
   48.8267    1.7198   15.9337 H   0  0  0  0  0  0  0  0  0  0  0  0
   50.9191    8.0084   19.6946 H   0  0  0  0  0  0  0  0  0  0  0  0
   47.4357    7.0244   18.0075 H   0  0  0  0  0  0  0  0  0  0  0  0
   47.4697    8.9931   16.7147 H   0  0  0  0  0  0  0  0  0  0  0  0
   50.2460    9.8016   17.7009 H   0  0  0  0  0  0  0  0  0  0  0  0
   48.8680   10.8227   17.2164 H   0  0  0  0  0  0  0  0  0  0  0  0
   48.2287    8.2108   20.3365 H   0  0  0  0  0  0  0  0  0  0  0  0
   46.8975    8.8568   19.3531 H   0  0  0  0  0  0  0  0  0  0  0  0
   48.7083    7.2719   15.3979 H   0  0  0  0  0  0  0  0  0  0  0  0
   50.2427    7.8880   16.0128 H   0  0  0  0  0  0  0  0  0  0  0  0
   48.2311    9.5104   14.3748 H   0  0  0  0  0  0  0  0  0  0  0  0
   49.8062   10.0936   14.9504 H   0  0  0  0  0  0  0  0  0  0  0  0
   49.7270    8.7814   13.7675 H   0  0  0  0  0  0  0  0  0  0  0  0
   49.6153   12.1042   18.7239 H   0  0  0  0  0  0  0  0  0  0  0  0
   50.7556   13.4759   20.3034 H   0  0  0  0  0  0  0  0  0  0  0  0
   50.1091   12.5036   21.6327 H   0  0  0  0  0  0  0  0  0  0  0  0
   52.5212    3.8067   18.2324 H   0  0  0  0  0  0  0  0  0  0  0  0
   46.6746    5.4721   17.6098 H   0  0  0  0  0  0  0  0  0  0  0  0
   46.1640    2.8292   17.2785 H   0  0  0  0  0  0  0  0  0  0  0  0
   48.3647    1.6049   17.4629 H   0  0  0  0  0  0  0  0  0  0  0  0
   51.3250    8.5451   18.5295 H   0  0  0  0  0  0  0  0  0  0  0  0
   47.5158    7.3108   18.4395 H   0  0  0  0  0  0  0  0  0  0  0  0
   47.0370    8.9241   16.7984 H   0  0  0  0  0  0  0  0  0  0  0  0
   49.9413    9.8490   16.6193 H   0  0  0  0  0  0  0  0  0  0  0  0
   48.4439   10.7791   16.3787 H   0  0  0  0  0  0  0  0  0  0  0  0
   48.9924    8.9619   20.0372 H   0  0  0  0  0  0  0  0  0  0  0  0
   47.3716    9.4075   19.4563 H   0  0  0  0  0  0  0  0  0  0  0  0
   47.8578    6.9067   15.5800 H   0  0  0  0  0  0  0  0  0  0  0  0
   49.4774    7.5999   15.4979 H   0  0  0  0  0  0  0  0  0  0  0  0
   48.2077    7.9634   13.4059 H   0  0  0  0  0  0  0  0  0  0  0  0
   48.6227    9.5078   14.1599 H   0  0  0  0  0  0  0  0  0  0  0  0
   46.9709    8.8720   14.2902 H   0  0  0  0  0  0  0  0  0  0  0  0
   49.2739   10.8872   20.7279 H   0  0  0  0  0  0  0  0  0  0  0  0
   49.1924   13.7992   20.1117 H   0  0  0  0  0  0  0  0  0  0  0  0
   49.0546   13.0538   21.7096 H   0  0  0  0  0  0  0  0  0  0  0  0
  2  3  1  0
  4  5  1  0
  6  7  1  0
  7  2  2  0
  3 10  1  0
  3  4  2  0
  4  8  1  0
  8  9  2  0
  9 10  1  0
  5 13  1  0
  5  6  1  0
  6 11  2  0
 11 12  1  0
 12 13  2  0
 14 13  1  0
 14 15  1  0
 14 18  1  0
 15 16  1  0
 16 17  1  0
 17 18  1  0
 15 19  1  0
 19 20  1  0
 17 21  1  0
 21 22  1  0
 21 23  2  0
 22 24  1  0
 24 25  1  0
 25 26  1  0
 25 27  1  0
 25 28  1  0
 29 30  1  0
 31 32  1  0
 33 34  1  0
 34 29  2  0
 30 37  1  0
 30 31  2  0
 31 35  1  0
 35 36  2  0
 36 37  1  0
 32 40  1  0
 32 33  1  0
 33 38  2  0
 38 39  1  0
 39 40  2  0
 41 40  1  0
 41 42  1  0
 41 45  1  0
 42 43  1  0
 43 44  1  0
 44 45  1  0
 42 46  1  0
 46 47  1  0
 44 48  1  0
 48 49  1  0
 48 50  2  0
 49 51  1  0
 51 52  1  0
 52 53  1  0
 52 54  1  0
 52 55  1  0
  1 56  1  0
  1 57  1  0
  7 58  1  0
  8 59  1  0
  9 60  1  0
 10 61  1  0
 12 62  1  0
 14 63  1  6
 15 64  1  6
 16 65  1  0
 16 66  1  0
 18 67  1  0
 18 68  1  0
 19 69  1  0
 19 70  1  0
 20 71  1  0
 20 72  1  0
 20 73  1  0
 22 74  1  0
 24 75  1  0
 24 76  1  0
 34 77  1  0
 35 78  1  0
 36 79  1  0
 37 80  1  0
 39 81  1  0
 41 82  1  6
 42 83  1  6
 43 84  1  0
 43 85  1  0
 45 86  1  0
 45 87  1  0
 46 88  1  0
 46 89  1  0
 47 90  1  0
 47 91  1  0
 47 92  1  0
 49 93  1  0
 51 94  1  0
 51 95  1  0
M  END
> <Uni-Dock RESULT> 
ENERGY=   -5.381  LOWER_BOUND=    2.364  UPPER_BOUND=    2.835
INTER + INTRA:          -5.381
INTER:                  -5.381
INTRA:                   0.000
UNBOUND:                 0.000

$$$$
