
     RDKit          3D

 95100  0  0  0  0  0  0  0  0999 V2000
   49.2241    8.4684   17.1310 O   0  0  0  0  0  0  0  0  0  0  0  0
   48.4164    2.7923   17.8072 N   0  0  0  0  0  0  0  0  0  0  0  0
   48.0920    3.6194   16.7747 C   0  0  0  0  0  0  0  0  0  0  0  0
   48.1217    4.9993   16.7171 C   0  0  0  0  0  0  0  0  0  0  0  0
   48.5477    5.6557   17.8855 N   0  0  0  0  0  0  0  0  0  0  0  0
   48.8902    4.8730   18.9681 C   0  0  0  0  0  0  0  0  0  0  0  0
   48.8090    3.4272   18.8867 C   0  0  0  0  0  0  0  0  0  0  0  0
   47.6984    5.4179   15.4473 C   0  0  0  0  0  0  0  0  0  0  0  0
   47.4154    4.2619   14.7417 C   0  0  0  0  0  0  0  0  0  0  0  0
   47.6574    3.1774   15.5568 N   0  0  0  0  0  0  0  0  0  0  0  0
   49.2736    5.5914   19.9989 N   0  0  0  0  0  0  0  0  0  0  0  0
   49.1756    6.8903   19.5634 C   0  0  0  0  0  0  0  0  0  0  0  0
   48.7324    6.9716   18.2496 C   0  0  0  0  0  0  0  0  0  0  0  0
   48.4725    8.1411   17.3656 C   0  0  2  0  0  0  0  0  0  0  0  0
   49.5901    8.5082   16.3581 C   0  0  1  0  0  0  0  0  0  0  0  0
   49.1294    9.9124   15.9197 C   0  0  0  0  0  0  0  0  0  0  0  0
   48.4728   10.4822   17.0866 N   0  0  0  0  0  0  0  0  0  0  0  0
   48.2289    9.4675   18.0971 C   0  0  0  0  0  0  0  0  0  0  0  0
   51.0258    8.5747   16.9255 C   0  0  0  0  0  0  0  0  0  0  0  0
   51.7707    7.2483   16.8402 C   0  0  0  0  0  0  0  0  0  0  0  0
   48.2105   11.8013   17.3457 C   0  0  0  0  0  0  0  0  0  0  0  0
   48.4727   12.6506   16.3057 N   0  0  0  0  0  0  0  0  0  0  0  0
   47.7836   12.1977   18.4252 O   0  0  0  0  0  0  0  0  0  0  0  0
   48.1625   14.0750   16.4470 C   0  0  0  0  0  0  0  0  0  0  0  0
   48.6789   14.9484   15.3098 C   0  0  0  0  0  0  0  0  0  0  0  0
   50.0283   14.9455   15.2476 F   0  0  0  0  0  0  0  0  0  0  0  0
   48.2137   14.5024   14.1178 F   0  0  0  0  0  0  0  0  0  0  0  0
   48.2739   16.2290   15.4531 F   0  0  0  0  0  0  0  0  0  0  0  0
   50.6641    3.4554   17.6417 N   0  0  0  0  0  0  0  0  0  0  0  0
   49.3555    3.7598   17.4181 C   0  0  0  0  0  0  0  0  0  0  0  0
   48.7599    4.9956   17.2522 C   0  0  0  0  0  0  0  0  0  0  0  0
   49.6183    6.1085   17.3248 N   0  0  0  0  0  0  0  0  0  0  0  0
   50.9594    5.8641   17.5392 C   0  0  0  0  0  0  0  0  0  0  0  0
   51.4466    4.5071   17.6961 C   0  0  0  0  0  0  0  0  0  0  0  0
   47.3857    4.8170   17.0315 C   0  0  0  0  0  0  0  0  0  0  0  0
   47.1671    3.4515   17.0761 C   0  0  0  0  0  0  0  0  0  0  0  0
   48.3687    2.8206   17.3123 N   0  0  0  0  0  0  0  0  0  0  0  0
   51.6689    6.9690   17.5713 N   0  0  0  0  0  0  0  0  0  0  0  0
   50.7503    7.9683   17.3698 C   0  0  0  0  0  0  0  0  0  0  0  0
   49.4592    7.4745   17.2280 C   0  0  0  0  0  0  0  0  0  0  0  0
   48.1509    8.1833   17.0194 C   0  0  2  0  0  0  0  0  0  0  0  0
   47.8984    8.6437   15.5663 C   0  0  1  0  0  0  0  0  0  0  0  0
   48.6142    9.9963   15.4916 C   0  0  0  0  0  0  0  0  0  0  0  0
   48.5598   10.5248   16.8456 N   0  0  0  0  0  0  0  0  0  0  0  0
   48.0813    9.5179   17.7854 C   0  0  0  0  0  0  0  0  0  0  0  0
   48.2951    7.6627   14.4602 C   0  0  0  0  0  0  0  0  0  0  0  0
   47.9081    8.1604   13.0741 C   0  0  0  0  0  0  0  0  0  0  0  0
   48.7990   11.8539   17.0765 C   0  0  0  0  0  0  0  0  0  0  0  0
   48.6543   12.2527   18.3782 N   0  0  0  0  0  0  0  0  0  0  0  0
   49.0923   12.6433   16.1847 O   0  0  0  0  0  0  0  0  0  0  0  0
   48.9982   13.6272   18.7494 C   0  0  0  0  0  0  0  0  0  0  0  0
   50.4942   13.8934   18.9374 C   0  0  0  0  0  0  0  0  0  0  0  0
   51.2112   13.7446   17.8081 F   0  0  0  0  0  0  0  0  0  0  0  0
   51.0051   13.0456   19.8652 F   0  0  0  0  0  0  0  0  0  0  0  0
   50.6975   15.1515   19.3940 F   0  0  0  0  0  0  0  0  0  0  0  0
   48.8140    9.2383   16.7091 H   0  0  0  0  0  0  0  0  0  0  0  0
   48.7135    7.7170   16.7938 H   0  0  0  0  0  0  0  0  0  0  0  0
   49.0928    2.8422   19.7762 H   0  0  0  0  0  0  0  0  0  0  0  0
   47.5959    6.4206   15.0583 H   0  0  0  0  0  0  0  0  0  0  0  0
   47.0606    4.1131   13.7303 H   0  0  0  0  0  0  0  0  0  0  0  0
   47.5377    2.2038   15.3128 H   0  0  0  0  0  0  0  0  0  0  0  0
   49.4368    7.7078   20.2254 H   0  0  0  0  0  0  0  0  0  0  0  0
   47.5558    7.9405   16.7932 H   0  0  0  0  0  0  0  0  0  0  0  0
   49.5851    7.8384   15.4907 H   0  0  0  0  0  0  0  0  0  0  0  0
   49.9382   10.5577   15.5641 H   0  0  0  0  0  0  0  0  0  0  0  0
   48.3730    9.8383   15.1295 H   0  0  0  0  0  0  0  0  0  0  0  0
   48.9268    9.6458   18.9227 H   0  0  0  0  0  0  0  0  0  0  0  0
   47.2081    9.5525   18.4852 H   0  0  0  0  0  0  0  0  0  0  0  0
   51.6114    9.2991   16.3457 H   0  0  0  0  0  0  0  0  0  0  0  0
   51.0305    8.9330   17.9606 H   0  0  0  0  0  0  0  0  0  0  0  0
   52.8057    7.3809   17.1723 H   0  0  0  0  0  0  0  0  0  0  0  0
   51.7957    6.8791   15.8098 H   0  0  0  0  0  0  0  0  0  0  0  0
   51.3226    6.4773   17.4684 H   0  0  0  0  0  0  0  0  0  0  0  0
   48.3226   12.2507   15.3904 H   0  0  0  0  0  0  0  0  0  0  0  0
   48.5760   14.4268   17.3987 H   0  0  0  0  0  0  0  0  0  0  0  0
   47.0718   14.1615   16.5093 H   0  0  0  0  0  0  0  0  0  0  0  0
   52.5249    4.3616   17.8699 H   0  0  0  0  0  0  0  0  0  0  0  0
   46.6195    5.5567   16.8496 H   0  0  0  0  0  0  0  0  0  0  0  0
   46.2620    2.8706   16.9562 H   0  0  0  0  0  0  0  0  0  0  0  0
   48.5187    1.8241   17.3913 H   0  0  0  0  0  0  0  0  0  0  0  0
   51.0656    9.0055   17.3421 H   0  0  0  0  0  0  0  0  0  0  0  0
   47.3338    7.5518   17.3759 H   0  0  0  0  0  0  0  0  0  0  0  0
   46.8185    8.8377   15.4787 H   0  0  0  0  0  0  0  0  0  0  0  0
   49.6684    9.8987   15.2097 H   0  0  0  0  0  0  0  0  0  0  0  0
   48.1274   10.6831   14.7913 H   0  0  0  0  0  0  0  0  0  0  0  0
   48.6666    9.5262   18.7097 H   0  0  0  0  0  0  0  0  0  0  0  0
   47.0430    9.7741   18.0277 H   0  0  0  0  0  0  0  0  0  0  0  0
   49.3750    7.4768   14.4711 H   0  0  0  0  0  0  0  0  0  0  0  0
   47.7992    6.7012   14.6331 H   0  0  0  0  0  0  0  0  0  0  0  0
   48.1591    7.4071   12.3205 H   0  0  0  0  0  0  0  0  0  0  0  0
   48.4413    9.0808   12.8172 H   0  0  0  0  0  0  0  0  0  0  0  0
   46.8328    8.3550   13.0126 H   0  0  0  0  0  0  0  0  0  0  0  0
   48.8413   11.5492   19.0758 H   0  0  0  0  0  0  0  0  0  0  0  0
   48.4785   13.8260   19.6925 H   0  0  0  0  0  0  0  0  0  0  0  0
   48.5950   14.3117   17.9953 H   0  0  0  0  0  0  0  0  0  0  0  0
  2  3  1  0
  4  5  1  0
  6  7  1  0
  7  2  2  0
  3 10  1  0
  3  4  2  0
  4  8  1  0
  8  9  2  0
  9 10  1  0
  5 13  1  0
  5  6  1  0
  6 11  2  0
 11 12  1  0
 12 13  2  0
 14 13  1  0
 14 15  1  0
 14 18  1  0
 15 16  1  0
 16 17  1  0
 17 18  1  0
 15 19  1  0
 19 20  1  0
 17 21  1  0
 21 22  1  0
 21 23  2  0
 22 24  1  0
 24 25  1  0
 25 26  1  0
 25 27  1  0
 25 28  1  0
 29 30  1  0
 31 32  1  0
 33 34  1  0
 34 29  2  0
 30 37  1  0
 30 31  2  0
 31 35  1  0
 35 36  2  0
 36 37  1  0
 32 40  1  0
 32 33  1  0
 33 38  2  0
 38 39  1  0
 39 40  2  0
 41 40  1  0
 41 42  1  0
 41 45  1  0
 42 43  1  0
 43 44  1  0
 44 45  1  0
 42 46  1  0
 46 47  1  0
 44 48  1  0
 48 49  1  0
 48 50  2  0
 49 51  1  0
 51 52  1  0
 52 53  1  0
 52 54  1  0
 52 55  1  0
  1 56  1  0
  1 57  1  0
  7 58  1  0
  8 59  1  0
  9 60  1  0
 10 61  1  0
 12 62  1  0
 14 63  1  1
 15 64  1  1
 16 65  1  0
 16 66  1  0
 18 67  1  0
 18 68  1  0
 19 69  1  0
 19 70  1  0
 20 71  1  0
 20 72  1  0
 20 73  1  0
 22 74  1  0
 24 75  1  0
 24 76  1  0
 34 77  1  0
 35 78  1  0
 36 79  1  0
 37 80  1  0
 39 81  1  0
 41 82  1  6
 42 83  1  6
 43 84  1  0
 43 85  1  0
 45 86  1  0
 45 87  1  0
 46 88  1  0
 46 89  1  0
 47 90  1  0
 47 91  1  0
 47 92  1  0
 49 93  1  0
 51 94  1  0
 51 95  1  0
M  END
> <Uni-Dock RESULT> 
ENERGY=   -5.335  LOWER_BOUND=    0.000  UPPER_BOUND=    0.000
INTER + INTRA:          -5.335
INTER:                  -5.335
INTRA:                   0.000
UNBOUND:                 0.000

$$$$

     RDKit          3D

 95100  0  0  0  0  0  0  0  0999 V2000
   49.6195    9.0923   16.7028 O   0  0  0  0  0  0  0  0  0  0  0  0
   49.2262   14.4156   14.5037 N   0  0  0  0  0  0  0  0  0  0  0  0
   48.8529   13.2112   13.9883 C   0  0  0  0  0  0  0  0  0  0  0  0
   49.1309   11.9390   14.4490 C   0  0  0  0  0  0  0  0  0  0  0  0
   49.9089   11.8632   15.6180 N   0  0  0  0  0  0  0  0  0  0  0  0
   50.3196   13.0495   16.1888 C   0  0  0  0  0  0  0  0  0  0  0  0
   49.9526   14.3197   15.5925 C   0  0  0  0  0  0  0  0  0  0  0  0
   48.5394   10.9982   13.5933 C   0  0  0  0  0  0  0  0  0  0  0  0
   47.8986   11.7306   12.6098 C   0  0  0  0  0  0  0  0  0  0  0  0
   48.0958   13.0714   12.8593 N   0  0  0  0  0  0  0  0  0  0  0  0
   51.0356   12.8572   17.2733 N   0  0  0  0  0  0  0  0  0  0  0  0
   51.0880   11.4914   17.4083 C   0  0  0  0  0  0  0  0  0  0  0  0
   50.3928   10.8370   16.3996 C   0  0  0  0  0  0  0  0  0  0  0  0
   50.1757    9.3891   16.1287 C   0  0  2  0  0  0  0  0  0  0  0  0
   48.8245    8.7933   16.5957 C   0  0  1  0  0  0  0  0  0  0  0  0
   49.1229    7.2852   16.4819 C   0  0  0  0  0  0  0  0  0  0  0  0
   50.5417    7.1518   16.7760 N   0  0  0  0  0  0  0  0  0  0  0  0
   51.2006    8.4465   16.7727 C   0  0  0  0  0  0  0  0  0  0  0  0
   48.3874    9.1396   18.0367 C   0  0  0  0  0  0  0  0  0  0  0  0
   47.5407   10.4034   18.1235 C   0  0  0  0  0  0  0  0  0  0  0  0
   51.2215    6.0247   17.1547 C   0  0  0  0  0  0  0  0  0  0  0  0
   50.4886    4.8707   17.1006 N   0  0  0  0  0  0  0  0  0  0  0  0
   52.3913    6.0425   17.5232 O   0  0  0  0  0  0  0  0  0  0  0  0
   51.1351    3.5948   17.4157 C   0  0  0  0  0  0  0  0  0  0  0  0
   50.1794    2.4120   17.5171 C   0  0  0  0  0  0  0  0  0  0  0  0
   49.3052    2.5589   18.5364 F   0  0  0  0  0  0  0  0  0  0  0  0
   49.4595    2.2823   16.3765 F   0  0  0  0  0  0  0  0  0  0  0  0
   50.8501    1.2556   17.7106 F   0  0  0  0  0  0  0  0  0  0  0  0
   47.8879   14.0291   16.3954 N   0  0  0  0  0  0  0  0  0  0  0  0
   48.5966   13.4993   15.3600 C   0  0  0  0  0  0  0  0  0  0  0  0
   49.1408   12.2361   15.2270 C   0  0  0  0  0  0  0  0  0  0  0  0
   48.9431   11.3622   16.3123 N   0  0  0  0  0  0  0  0  0  0  0  0
   48.2223   11.8379   17.3885 C   0  0  0  0  0  0  0  0  0  0  0  0
   47.7079   13.1940   17.3911 C   0  0  0  0  0  0  0  0  0  0  0  0
   49.7730   12.1379   13.9781 C   0  0  0  0  0  0  0  0  0  0  0  0
   49.6047   13.3683   13.3681 C   0  0  0  0  0  0  0  0  0  0  0  0
   48.8907   14.1862   14.2159 N   0  0  0  0  0  0  0  0  0  0  0  0
   48.0836   10.9364   18.3336 N   0  0  0  0  0  0  0  0  0  0  0  0
   48.7407    9.8333   17.8496 C   0  0  0  0  0  0  0  0  0  0  0  0
   49.3039   10.0631   16.6003 C   0  0  0  0  0  0  0  0  0  0  0  0
   50.1231    9.1721   15.7101 C   0  0  2  0  0  0  0  0  0  0  0  0
   49.2997    8.1417   14.9055 C   0  0  1  0  0  0  0  0  0  0  0  0
   49.1377    6.9734   15.8833 C   0  0  0  0  0  0  0  0  0  0  0  0
   50.3179    7.0277   16.7317 N   0  0  0  0  0  0  0  0  0  0  0  0
   51.0693    8.2576   16.5108 C   0  0  0  0  0  0  0  0  0  0  0  0
   47.9846    8.6402   14.3012 C   0  0  0  0  0  0  0  0  0  0  0  0
   47.3030    7.5858   13.4395 C   0  0  0  0  0  0  0  0  0  0  0  0
   50.6716    5.9430   17.4902 C   0  0  0  0  0  0  0  0  0  0  0  0
   51.8360    6.0830   18.1966 N   0  0  0  0  0  0  0  0  0  0  0  0
   50.0163    4.9066   17.5181 O   0  0  0  0  0  0  0  0  0  0  0  0
   52.2423    5.0263   19.1260 C   0  0  0  0  0  0  0  0  0  0  0  0
   51.5323    5.0473   20.4824 C   0  0  0  0  0  0  0  0  0  0  0  0
   50.2082    4.8210   20.3979 F   0  0  0  0  0  0  0  0  0  0  0  0
   51.7077    6.2519   21.0812 F   0  0  0  0  0  0  0  0  0  0  0  0
   52.0601    4.1128   21.3075 F   0  0  0  0  0  0  0  0  0  0  0  0
   49.7432    8.1733   16.4221 H   0  0  0  0  0  0  0  0  0  0  0  0
   49.4943    9.5759   15.8724 H   0  0  0  0  0  0  0  0  0  0  0  0
   50.3029   15.2420   16.0831 H   0  0  0  0  0  0  0  0  0  0  0  0
   48.5567    9.9194   13.6488 H   0  0  0  0  0  0  0  0  0  0  0  0
   47.3197   11.4170   11.7510 H   0  0  0  0  0  0  0  0  0  0  0  0
   47.7464   13.8430   12.3076 H   0  0  0  0  0  0  0  0  0  0  0  0
   51.6262   11.0463   18.2371 H   0  0  0  0  0  0  0  0  0  0  0  0
   50.2582    9.2276   15.0445 H   0  0  0  0  0  0  0  0  0  0  0  0
   48.0113    9.0542   15.9089 H   0  0  0  0  0  0  0  0  0  0  0  0
   48.5190    6.6586   17.1449 H   0  0  0  0  0  0  0  0  0  0  0  0
   48.9746    6.9418   15.4513 H   0  0  0  0  0  0  0  0  0  0  0  0
   51.4369    8.7019   17.8116 H   0  0  0  0  0  0  0  0  0  0  0  0
   52.1384    8.3963   16.2089 H   0  0  0  0  0  0  0  0  0  0  0  0
   47.7713    8.3235   18.4346 H   0  0  0  0  0  0  0  0  0  0  0  0
   49.2500    9.2285   18.7059 H   0  0  0  0  0  0  0  0  0  0  0  0
   47.1887   10.5454   19.1506 H   0  0  0  0  0  0  0  0  0  0  0  0
   46.6607   10.3300   17.4763 H   0  0  0  0  0  0  0  0  0  0  0  0
   48.0974   11.2983   17.8426 H   0  0  0  0  0  0  0  0  0  0  0  0
   49.7947    4.8491   16.3669 H   0  0  0  0  0  0  0  0  0  0  0  0
   51.6831    3.7075   18.3578 H   0  0  0  0  0  0  0  0  0  0  0  0
   51.8714    3.4044   16.6267 H   0  0  0  0  0  0  0  0  0  0  0  0
   47.1420   13.5308   18.2745 H   0  0  0  0  0  0  0  0  0  0  0  0
   50.2879   11.2973   13.5354 H   0  0  0  0  0  0  0  0  0  0  0  0
   49.9263   13.7343   12.4019 H   0  0  0  0  0  0  0  0  0  0  0  0
   48.6130   15.1414   14.0366 H   0  0  0  0  0  0  0  0  0  0  0  0
   48.7819    8.9199   18.4328 H   0  0  0  0  0  0  0  0  0  0  0  0
   50.7362    9.7856   15.0457 H   0  0  0  0  0  0  0  0  0  0  0  0
   49.9432    7.7951   14.0826 H   0  0  0  0  0  0  0  0  0  0  0  0
   48.2560    7.0815   16.5247 H   0  0  0  0  0  0  0  0  0  0  0  0
   49.0788    6.0088   15.3683 H   0  0  0  0  0  0  0  0  0  0  0  0
   51.4070    8.6929   17.4560 H   0  0  0  0  0  0  0  0  0  0  0  0
   51.9504    7.9916   15.9148 H   0  0  0  0  0  0  0  0  0  0  0  0
   47.2853    8.9487   15.0865 H   0  0  0  0  0  0  0  0  0  0  0  0
   48.1818    9.5202   13.6791 H   0  0  0  0  0  0  0  0  0  0  0  0
   46.3980    8.0002   12.9840 H   0  0  0  0  0  0  0  0  0  0  0  0
   47.0098    6.7142   14.0325 H   0  0  0  0  0  0  0  0  0  0  0  0
   47.9636    7.2497   12.6341 H   0  0  0  0  0  0  0  0  0  0  0  0
   52.0724    7.0240   18.4706 H   0  0  0  0  0  0  0  0  0  0  0  0
   53.3178    5.1575   19.2835 H   0  0  0  0  0  0  0  0  0  0  0  0
   52.0912    4.0528   18.6472 H   0  0  0  0  0  0  0  0  0  0  0  0
  2  3  1  0
  4  5  1  0
  6  7  1  0
  7  2  2  0
  3 10  1  0
  3  4  2  0
  4  8  1  0
  8  9  2  0
  9 10  1  0
  5 13  1  0
  5  6  1  0
  6 11  2  0
 11 12  1  0
 12 13  2  0
 14 13  1  0
 14 15  1  0
 14 18  1  0
 15 16  1  0
 16 17  1  0
 17 18  1  0
 15 19  1  0
 19 20  1  0
 17 21  1  0
 21 22  1  0
 21 23  2  0
 22 24  1  0
 24 25  1  0
 25 26  1  0
 25 27  1  0
 25 28  1  0
 29 30  1  0
 31 32  1  0
 33 34  1  0
 34 29  2  0
 30 37  1  0
 30 31  2  0
 31 35  1  0
 35 36  2  0
 36 37  1  0
 32 40  1  0
 32 33  1  0
 33 38  2  0
 38 39  1  0
 39 40  2  0
 41 40  1  0
 41 42  1  0
 41 45  1  0
 42 43  1  0
 43 44  1  0
 44 45  1  0
 42 46  1  0
 46 47  1  0
 44 48  1  0
 48 49  1  0
 48 50  2  0
 49 51  1  0
 51 52  1  0
 52 53  1  0
 52 54  1  0
 52 55  1  0
  1 56  1  0
  1 57  1  0
  7 58  1  0
  8 59  1  0
  9 60  1  0
 10 61  1  0
 12 62  1  0
 14 63  1  1
 15 64  1  1
 16 65  1  0
 16 66  1  0
 18 67  1  0
 18 68  1  0
 19 69  1  0
 19 70  1  0
 20 71  1  0
 20 72  1  0
 20 73  1  0
 22 74  1  0
 24 75  1  0
 24 76  1  0
 34 77  1  0
 35 78  1  0
 36 79  1  0
 37 80  1  0
 39 81  1  0
 41 82  1  6
 42 83  1  6
 43 84  1  0
 43 85  1  0
 45 86  1  0
 45 87  1  0
 46 88  1  0
 46 89  1  0
 47 90  1  0
 47 91  1  0
 47 92  1  0
 49 93  1  0
 51 94  1  0
 51 95  1  0
M  END
> <Uni-Dock RESULT> 
ENERGY=   -4.687  LOWER_BOUND=    3.758  UPPER_BOUND=    7.854
INTER + INTRA:          -4.687
INTER:                  -4.687
INTRA:                   0.000
UNBOUND:                 0.000

$$$$

     RDKit          3D

 95100  0  0  0  0  0  0  0  0999 V2000
   43.9869   11.4813   10.3354 O   0  0  0  0  0  0  0  0  0  0  0  0
   40.3041   15.7374    9.0505 N   0  0  0  0  0  0  0  0  0  0  0  0
   41.5601   15.7774    9.5762 C   0  0  0  0  0  0  0  0  0  0  0  0
   42.3426   14.7428   10.0512 C   0  0  0  0  0  0  0  0  0  0  0  0
   41.7721   13.4590    9.9867 N   0  0  0  0  0  0  0  0  0  0  0  0
   40.5003   13.3517    9.4644 C   0  0  0  0  0  0  0  0  0  0  0  0
   39.7920   14.5301    9.0023 C   0  0  0  0  0  0  0  0  0  0  0  0
   43.5672   15.2582   10.5003 C   0  0  0  0  0  0  0  0  0  0  0  0
   43.5061   16.6234   10.2839 C   0  0  0  0  0  0  0  0  0  0  0  0
   42.2843   16.9269    9.7235 N   0  0  0  0  0  0  0  0  0  0  0  0
   40.0717   12.1100    9.4517 N   0  0  0  0  0  0  0  0  0  0  0  0
   41.1096   11.3866    9.9864 C   0  0  0  0  0  0  0  0  0  0  0  0
   42.1896   12.1909   10.3267 C   0  0  0  0  0  0  0  0  0  0  0  0
   43.5116   11.8659   10.9297 C   0  0  2  0  0  0  0  0  0  0  0  0
   44.7062   11.7426    9.9516 C   0  0  1  0  0  0  0  0  0  0  0  0
   45.7511   11.0664   10.8610 C   0  0  0  0  0  0  0  0  0  0  0  0
   44.9838   10.2263   11.7681 N   0  0  0  0  0  0  0  0  0  0  0  0
   43.5670   10.5395   11.6986 C   0  0  0  0  0  0  0  0  0  0  0  0
   44.4686   10.8847    8.6887 C   0  0  0  0  0  0  0  0  0  0  0  0
   43.9429   11.6864    7.5044 C   0  0  0  0  0  0  0  0  0  0  0  0
   45.4279    9.1681   12.5157 C   0  0  0  0  0  0  0  0  0  0  0  0
   46.7845    8.9910   12.5052 N   0  0  0  0  0  0  0  0  0  0  0  0
   44.6743    8.4282   13.1395 O   0  0  0  0  0  0  0  0  0  0  0  0
   47.3763    7.9328   13.3268 C   0  0  0  0  0  0  0  0  0  0  0  0
   48.8626    7.7016   13.0820 C   0  0  0  0  0  0  0  0  0  0  0  0
   49.1031    7.2681   11.8254 F   0  0  0  0  0  0  0  0  0  0  0  0
   49.5587    8.8508   13.2583 F   0  0  0  0  0  0  0  0  0  0  0  0
   49.3634    6.7852   13.9388 F   0  0  0  0  0  0  0  0  0  0  0  0
   41.1098   14.5381    7.1980 N   0  0  0  0  0  0  0  0  0  0  0  0
   41.2738   14.8816    8.5057 C   0  0  0  0  0  0  0  0  0  0  0  0
   41.9827   14.2335    9.4991 C   0  0  0  0  0  0  0  0  0  0  0  0
   42.6315   13.0442    9.1178 N   0  0  0  0  0  0  0  0  0  0  0  0
   42.5115   12.6485    7.8013 C   0  0  0  0  0  0  0  0  0  0  0  0
   41.7307   13.4320    6.8632 C   0  0  0  0  0  0  0  0  0  0  0  0
   41.8795   14.9678   10.6903 C   0  0  0  0  0  0  0  0  0  0  0  0
   41.0889   16.0642   10.3948 C   0  0  0  0  0  0  0  0  0  0  0  0
   40.7265   16.0007    9.0673 N   0  0  0  0  0  0  0  0  0  0  0  0
   43.1690   11.5391    7.5521 N   0  0  0  0  0  0  0  0  0  0  0  0
   43.7372   11.2035    8.7552 C   0  0  0  0  0  0  0  0  0  0  0  0
   43.4129   12.1072    9.7597 C   0  0  0  0  0  0  0  0  0  0  0  0
   43.7784   12.1332   11.2169 C   0  0  2  0  0  0  0  0  0  0  0  0
   45.2024   12.6566   11.5090 C   0  0  1  0  0  0  0  0  0  0  0  0
   46.0813   11.4135   11.3367 C   0  0  0  0  0  0  0  0  0  0  0  0
   45.2202   10.2941   11.6847 N   0  0  0  0  0  0  0  0  0  0  0  0
   43.8337   10.7213   11.8302 C   0  0  0  0  0  0  0  0  0  0  0  0
   45.6648   13.8686   10.6963 C   0  0  0  0  0  0  0  0  0  0  0  0
   47.0336   14.3740   11.1320 C   0  0  0  0  0  0  0  0  0  0  0  0
   45.7639    9.0691   11.9689 C   0  0  0  0  0  0  0  0  0  0  0  0
   44.8653    8.1087   12.3490 N   0  0  0  0  0  0  0  0  0  0  0  0
   46.9691    8.8467   11.9189 O   0  0  0  0  0  0  0  0  0  0  0  0
   45.3302    6.7364   12.5636 C   0  0  0  0  0  0  0  0  0  0  0  0
   45.5242    5.9105   11.2890 C   0  0  0  0  0  0  0  0  0  0  0  0
   46.4914    6.3871   10.4835 F   0  0  0  0  0  0  0  0  0  0  0  0
   44.3711    5.8783   10.5750 F   0  0  0  0  0  0  0  0  0  0  0  0
   45.8364    4.6299   11.5977 F   0  0  0  0  0  0  0  0  0  0  0  0
   44.6896   11.2638   10.9660 H   0  0  0  0  0  0  0  0  0  0  0  0
   43.7996   12.4165   10.5069 H   0  0  0  0  0  0  0  0  0  0  0  0
   38.7780   14.3966    8.5924 H   0  0  0  0  0  0  0  0  0  0  0  0
   44.4088   14.7377   10.9339 H   0  0  0  0  0  0  0  0  0  0  0  0
   44.2238   17.4089   10.4809 H   0  0  0  0  0  0  0  0  0  0  0  0
   41.9565   17.8455    9.4582 H   0  0  0  0  0  0  0  0  0  0  0  0
   41.0249   10.3116   10.0953 H   0  0  0  0  0  0  0  0  0  0  0  0
   43.7555   12.6485   11.6620 H   0  0  0  0  0  0  0  0  0  0  0  0
   45.0769   12.7269    9.6439 H   0  0  0  0  0  0  0  0  0  0  0  0
   46.5039   10.4842   10.3212 H   0  0  0  0  0  0  0  0  0  0  0  0
   46.2668   11.8145   11.4745 H   0  0  0  0  0  0  0  0  0  0  0  0
   43.0686    9.7128   11.1804 H   0  0  0  0  0  0  0  0  0  0  0  0
   43.1436   10.6192   12.7058 H   0  0  0  0  0  0  0  0  0  0  0  0
   45.4194   10.4411    8.3676 H   0  0  0  0  0  0  0  0  0  0  0  0
   43.7926   10.0479    8.8950 H   0  0  0  0  0  0  0  0  0  0  0  0
   43.8808   11.0448    6.6191 H   0  0  0  0  0  0  0  0  0  0  0  0
   44.6133   12.5187    7.2668 H   0  0  0  0  0  0  0  0  0  0  0  0
   42.9463   12.0915    7.6845 H   0  0  0  0  0  0  0  0  0  0  0  0
   47.3178    9.8453   12.4274 H   0  0  0  0  0  0  0  0  0  0  0  0
   46.8242    7.0039   13.1454 H   0  0  0  0  0  0  0  0  0  0  0  0
   47.2164    8.2122   14.3743 H   0  0  0  0  0  0  0  0  0  0  0  0
   41.6600   13.0740    5.8235 H   0  0  0  0  0  0  0  0  0  0  0  0
   42.3153   14.7671   11.6585 H   0  0  0  0  0  0  0  0  0  0  0  0
   40.7546   16.8883   11.0112 H   0  0  0  0  0  0  0  0  0  0  0  0
   40.1543   16.6680    8.5682 H   0  0  0  0  0  0  0  0  0  0  0  0
   44.3535   10.3154    8.8419 H   0  0  0  0  0  0  0  0  0  0  0  0
   43.0309   12.7073   11.7695 H   0  0  0  0  0  0  0  0  0  0  0  0
   45.2265   12.9313   12.5745 H   0  0  0  0  0  0  0  0  0  0  0  0
   46.4139   11.2743   10.3021 H   0  0  0  0  0  0  0  0  0  0  0  0
   46.9622   11.4372   11.9867 H   0  0  0  0  0  0  0  0  0  0  0  0
   43.1470   10.0103   11.3614 H   0  0  0  0  0  0  0  0  0  0  0  0
   43.6205   10.7552   12.9053 H   0  0  0  0  0  0  0  0  0  0  0  0
   45.7093   13.6293    9.6279 H   0  0  0  0  0  0  0  0  0  0  0  0
   44.9416   14.6829   10.8160 H   0  0  0  0  0  0  0  0  0  0  0  0
   47.3010   15.2714   10.5650 H   0  0  0  0  0  0  0  0  0  0  0  0
   47.8106   13.6238   10.9563 H   0  0  0  0  0  0  0  0  0  0  0  0
   47.0367   14.6325   12.1955 H   0  0  0  0  0  0  0  0  0  0  0  0
   43.9356    8.2036   11.9706 H   0  0  0  0  0  0  0  0  0  0  0  0
   44.5731    6.2539   13.1904 H   0  0  0  0  0  0  0  0  0  0  0  0
   46.2667    6.7619   13.1311 H   0  0  0  0  0  0  0  0  0  0  0  0
  2  3  1  0
  4  5  1  0
  6  7  1  0
  7  2  2  0
  3 10  1  0
  3  4  2  0
  4  8  1  0
  8  9  2  0
  9 10  1  0
  5 13  1  0
  5  6  1  0
  6 11  2  0
 11 12  1  0
 12 13  2  0
 14 13  1  0
 14 15  1  0
 14 18  1  0
 15 16  1  0
 16 17  1  0
 17 18  1  0
 15 19  1  0
 19 20  1  0
 17 21  1  0
 21 22  1  0
 21 23  2  0
 22 24  1  0
 24 25  1  0
 25 26  1  0
 25 27  1  0
 25 28  1  0
 29 30  1  0
 31 32  1  0
 33 34  1  0
 34 29  2  0
 30 37  1  0
 30 31  2  0
 31 35  1  0
 35 36  2  0
 36 37  1  0
 32 40  1  0
 32 33  1  0
 33 38  2  0
 38 39  1  0
 39 40  2  0
 41 40  1  0
 41 42  1  0
 41 45  1  0
 42 43  1  0
 43 44  1  0
 44 45  1  0
 42 46  1  0
 46 47  1  0
 44 48  1  0
 48 49  1  0
 48 50  2  0
 49 51  1  0
 51 52  1  0
 52 53  1  0
 52 54  1  0
 52 55  1  0
  1 56  1  0
  1 57  1  0
  7 58  1  0
  8 59  1  0
  9 60  1  0
 10 61  1  0
 12 62  1  0
 14 63  1  1
 15 64  1  1
 16 65  1  0
 16 66  1  0
 18 67  1  0
 18 68  1  0
 19 69  1  0
 19 70  1  0
 20 71  1  0
 20 72  1  0
 20 73  1  0
 22 74  1  0
 24 75  1  0
 24 76  1  0
 34 77  1  0
 35 78  1  0
 36 79  1  0
 37 80  1  0
 39 81  1  0
 41 82  1  6
 42 83  1  6
 43 84  1  0
 43 85  1  0
 45 86  1  0
 45 87  1  0
 46 88  1  0
 46 89  1  0
 47 90  1  0
 47 91  1  0
 47 92  1  0
 49 93  1  0
 51 94  1  0
 51 95  1  0
M  END
> <Uni-Dock RESULT> 
ENERGY=   -4.468  LOWER_BOUND=    7.645  UPPER_BOUND=   11.664
INTER + INTRA:          -4.468
INTER:                  -4.468
INTRA:                   0.000
UNBOUND:                 0.000

$$$$

     RDKit          3D

 95100  0  0  0  0  0  0  0  0999 V2000
   49.3871    9.7203   18.3176 O   0  0  0  0  0  0  0  0  0  0  0  0
   49.6204   12.2196   23.5164 N   0  0  0  0  0  0  0  0  0  0  0  0
   48.9635   11.1029   23.0958 C   0  0  0  0  0  0  0  0  0  0  0  0
   48.7683   10.6351   21.8108 C   0  0  0  0  0  0  0  0  0  0  0  0
   49.3241   11.4142   20.7804 N   0  0  0  0  0  0  0  0  0  0  0  0
   50.0021   12.5594   21.1415 C   0  0  0  0  0  0  0  0  0  0  0  0
   50.1286   12.9311   22.5378 C   0  0  0  0  0  0  0  0  0  0  0  0
   48.0288    9.4444   21.8598 C   0  0  0  0  0  0  0  0  0  0  0  0
   47.7849    9.2046   23.2005 C   0  0  0  0  0  0  0  0  0  0  0  0
   48.3561   10.2169   23.9406 N   0  0  0  0  0  0  0  0  0  0  0  0
   50.4784   13.2038   20.1006 N   0  0  0  0  0  0  0  0  0  0  0  0
   50.0931   12.4428   19.0241 C   0  0  0  0  0  0  0  0  0  0  0  0
   49.3769   11.3161   19.4071 C   0  0  0  0  0  0  0  0  0  0  0  0
   48.7609   10.2195   18.6104 C   0  0  2  0  0  0  0  0  0  0  0  0
   49.5722    8.9047   18.5006 C   0  0  1  0  0  0  0  0  0  0  0  0
   48.8199    8.1998   17.3547 C   0  0  0  0  0  0  0  0  0  0  0  0
   48.3433    9.2710   16.4928 N   0  0  0  0  0  0  0  0  0  0  0  0
   48.4756   10.5634   17.1428 C   0  0  0  0  0  0  0  0  0  0  0  0
   51.0674    9.0534   18.1402 C   0  0  0  0  0  0  0  0  0  0  0  0
   51.9724    9.1819   19.3593 C   0  0  0  0  0  0  0  0  0  0  0  0
   47.9419    9.1857   15.1861 C   0  0  0  0  0  0  0  0  0  0  0  0
   47.8465    7.9104   14.7001 N   0  0  0  0  0  0  0  0  0  0  0  0
   47.6954   10.1705   14.4976 O   0  0  0  0  0  0  0  0  0  0  0  0
   47.3580    7.6971   13.3359 C   0  0  0  0  0  0  0  0  0  0  0  0
   47.4839    6.2621   12.8384 C   0  0  0  0  0  0  0  0  0  0  0  0
   48.7742    5.8715   12.7537 F   0  0  0  0  0  0  0  0  0  0  0  0
   46.8530    5.4089   13.6811 F   0  0  0  0  0  0  0  0  0  0  0  0
   46.9264    6.1166   11.6167 F   0  0  0  0  0  0  0  0  0  0  0  0
   51.6542   11.3148   22.7654 N   0  0  0  0  0  0  0  0  0  0  0  0
   50.2970   11.3425   22.6549 C   0  0  0  0  0  0  0  0  0  0  0  0
   49.4974   10.9720   21.5905 C   0  0  0  0  0  0  0  0  0  0  0  0
   50.1707   10.4982   20.4491 N   0  0  0  0  0  0  0  0  0  0  0  0
   51.5482   10.4362   20.5035 C   0  0  0  0  0  0  0  0  0  0  0  0
   52.2599   10.8610   21.6937 C   0  0  0  0  0  0  0  0  0  0  0  0
   48.1516   11.1612   21.9398 C   0  0  0  0  0  0  0  0  0  0  0  0
   48.1595   11.6595   23.2306 C   0  0  0  0  0  0  0  0  0  0  0  0
   49.4661   11.7663   23.6534 N   0  0  0  0  0  0  0  0  0  0  0  0
   52.0704    9.9642   19.3945 N   0  0  0  0  0  0  0  0  0  0  0  0
   50.9877    9.7106   18.5906 C   0  0  0  0  0  0  0  0  0  0  0  0
   49.7871   10.0450   19.2049 C   0  0  0  0  0  0  0  0  0  0  0  0
   48.3712    9.9671   18.7081 C   0  0  2  0  0  0  0  0  0  0  0  0
   47.7517    8.5528   18.7634 C   0  0  1  0  0  0  0  0  0  0  0  0
   48.2196    7.9075   17.4549 C   0  0  0  0  0  0  0  0  0  0  0  0
   48.3702    9.0145   16.5235 N   0  0  0  0  0  0  0  0  0  0  0  0
   48.2599   10.2973   17.2077 C   0  0  0  0  0  0  0  0  0  0  0  0
   48.0533    7.7234   20.0141 C   0  0  0  0  0  0  0  0  0  0  0  0
   47.3123    6.3930   20.0233 C   0  0  0  0  0  0  0  0  0  0  0  0
   48.4456    8.7760   15.1765 C   0  0  0  0  0  0  0  0  0  0  0  0
   48.5179    9.8954   14.3915 N   0  0  0  0  0  0  0  0  0  0  0  0
   48.4205    7.6475   14.6967 O   0  0  0  0  0  0  0  0  0  0  0  0
   48.7168    9.7473   12.9480 C   0  0  0  0  0  0  0  0  0  0  0  0
   50.1600    9.4719   12.5170 C   0  0  0  0  0  0  0  0  0  0  0  0
   50.6382    8.2962   12.9649 F   0  0  0  0  0  0  0  0  0  0  0  0
   50.9781   10.4519   12.9761 F   0  0  0  0  0  0  0  0  0  0  0  0
   50.2590    9.4717   11.1668 F   0  0  0  0  0  0  0  0  0  0  0  0
   48.7845    9.2052   17.7606 H   0  0  0  0  0  0  0  0  0  0  0  0
   48.9386    9.7573   19.1758 H   0  0  0  0  0  0  0  0  0  0  0  0
   50.6791   13.8545   22.7796 H   0  0  0  0  0  0  0  0  0  0  0  0
   47.6943    8.8149   21.0480 H   0  0  0  0  0  0  0  0  0  0  0  0
   47.2529    8.4029   23.6957 H   0  0  0  0  0  0  0  0  0  0  0  0
   48.3387   10.3087   24.9471 H   0  0  0  0  0  0  0  0  0  0  0  0
   50.3587   12.7479   18.0186 H   0  0  0  0  0  0  0  0  0  0  0  0
   47.7863    9.9773   19.0575 H   0  0  0  0  0  0  0  0  0  0  0  0
   49.4882    8.3032   19.4128 H   0  0  0  0  0  0  0  0  0  0  0  0
   49.4272    7.4810   16.7965 H   0  0  0  0  0  0  0  0  0  0  0  0
   47.9350    7.6796   17.7400 H   0  0  0  0  0  0  0  0  0  0  0  0
   49.2954   11.0999   16.6523 H   0  0  0  0  0  0  0  0  0  0  0  0
   47.5583   11.1490   17.0186 H   0  0  0  0  0  0  0  0  0  0  0  0
   51.4000    8.1597   17.5976 H   0  0  0  0  0  0  0  0  0  0  0  0
   51.2343    9.9017   17.4676 H   0  0  0  0  0  0  0  0  0  0  0  0
   53.0212    9.1931   19.0444 H   0  0  0  0  0  0  0  0  0  0  0  0
   51.8370    8.3338   20.0382 H   0  0  0  0  0  0  0  0  0  0  0  0
   51.7899   10.1000   19.9191 H   0  0  0  0  0  0  0  0  0  0  0  0
   47.5708    7.2208   15.3848 H   0  0  0  0  0  0  0  0  0  0  0  0
   47.9030    8.3692   12.6638 H   0  0  0  0  0  0  0  0  0  0  0  0
   46.3046    7.9990   13.3212 H   0  0  0  0  0  0  0  0  0  0  0  0
   53.3599   10.7974   21.6889 H   0  0  0  0  0  0  0  0  0  0  0  0
   47.2600   10.9646   21.3620 H   0  0  0  0  0  0  0  0  0  0  0  0
   47.3494   11.9443   23.8892 H   0  0  0  0  0  0  0  0  0  0  0  0
   49.7805   12.0961   24.5557 H   0  0  0  0  0  0  0  0  0  0  0  0
   51.1271    9.3009   17.5962 H   0  0  0  0  0  0  0  0  0  0  0  0
   47.7539   10.6847   19.2537 H   0  0  0  0  0  0  0  0  0  0  0  0
   46.6609    8.6819   18.6948 H   0  0  0  0  0  0  0  0  0  0  0  0
   49.1934    7.4152   17.5540 H   0  0  0  0  0  0  0  0  0  0  0  0
   47.4972    7.1789   17.0722 H   0  0  0  0  0  0  0  0  0  0  0  0
   49.0177   11.0030   16.8547 H   0  0  0  0  0  0  0  0  0  0  0  0
   47.2688   10.7023   16.9706 H   0  0  0  0  0  0  0  0  0  0  0  0
   49.1268    7.5210   20.0998 H   0  0  0  0  0  0  0  0  0  0  0  0
   47.7583    8.2894   20.9046 H   0  0  0  0  0  0  0  0  0  0  0  0
   47.5121    5.8579   20.9571 H   0  0  0  0  0  0  0  0  0  0  0  0
   47.6319    5.7524   19.1958 H   0  0  0  0  0  0  0  0  0  0  0  0
   46.2312    6.5450   19.9453 H   0  0  0  0  0  0  0  0  0  0  0  0
   48.9528   10.7005   14.8147 H   0  0  0  0  0  0  0  0  0  0  0  0
   48.3825   10.6875   12.4973 H   0  0  0  0  0  0  0  0  0  0  0  0
   48.0642    8.9490   12.5781 H   0  0  0  0  0  0  0  0  0  0  0  0
  2  3  1  0
  4  5  1  0
  6  7  1  0
  7  2  2  0
  3 10  1  0
  3  4  2  0
  4  8  1  0
  8  9  2  0
  9 10  1  0
  5 13  1  0
  5  6  1  0
  6 11  2  0
 11 12  1  0
 12 13  2  0
 14 13  1  0
 14 15  1  0
 14 18  1  0
 15 16  1  0
 16 17  1  0
 17 18  1  0
 15 19  1  0
 19 20  1  0
 17 21  1  0
 21 22  1  0
 21 23  2  0
 22 24  1  0
 24 25  1  0
 25 26  1  0
 25 27  1  0
 25 28  1  0
 29 30  1  0
 31 32  1  0
 33 34  1  0
 34 29  2  0
 30 37  1  0
 30 31  2  0
 31 35  1  0
 35 36  2  0
 36 37  1  0
 32 40  1  0
 32 33  1  0
 33 38  2  0
 38 39  1  0
 39 40  2  0
 41 40  1  0
 41 42  1  0
 41 45  1  0
 42 43  1  0
 43 44  1  0
 44 45  1  0
 42 46  1  0
 46 47  1  0
 44 48  1  0
 48 49  1  0
 48 50  2  0
 49 51  1  0
 51 52  1  0
 52 53  1  0
 52 54  1  0
 52 55  1  0
  1 56  1  0
  1 57  1  0
  7 58  1  0
  8 59  1  0
  9 60  1  0
 10 61  1  0
 12 62  1  0
 14 63  1  1
 15 64  1  1
 16 65  1  0
 16 66  1  0
 18 67  1  0
 18 68  1  0
 19 69  1  0
 19 70  1  0
 20 71  1  0
 20 72  1  0
 20 73  1  0
 22 74  1  0
 24 75  1  0
 24 76  1  0
 34 77  1  0
 35 78  1  0
 36 79  1  0
 37 80  1  0
 39 81  1  0
 41 82  1  6
 42 83  1  6
 43 84  1  0
 43 85  1  0
 45 86  1  0
 45 87  1  0
 46 88  1  0
 46 89  1  0
 47 90  1  0
 47 91  1  0
 47 92  1  0
 49 93  1  0
 51 94  1  0
 51 95  1  0
M  END
> <Uni-Dock RESULT> 
ENERGY=   -4.262  LOWER_BOUND=    3.843  UPPER_BOUND=    6.812
INTER + INTRA:          -4.262
INTER:                  -4.262
INTRA:                   0.000
UNBOUND:                 0.000

$$$$

     RDKit          3D

 95100  0  0  0  0  0  0  0  0999 V2000
   48.9478   11.8394   18.5330 O   0  0  0  0  0  0  0  0  0  0  0  0
   48.0718    9.0180   23.4929 N   0  0  0  0  0  0  0  0  0  0  0  0
   47.9986    8.5897   22.2019 C   0  0  0  0  0  0  0  0  0  0  0  0
   48.0239    9.3263   21.0335 C   0  0  0  0  0  0  0  0  0  0  0  0
   48.1435   10.7192   21.1856 N   0  0  0  0  0  0  0  0  0  0  0  0
   48.2214   11.2162   22.4697 C   0  0  0  0  0  0  0  0  0  0  0  0
   48.1810   10.3206   23.6098 C   0  0  0  0  0  0  0  0  0  0  0  0
   47.9180    8.4578   19.9374 C   0  0  0  0  0  0  0  0  0  0  0  0
   47.8305    7.1839   20.4702 C   0  0  0  0  0  0  0  0  0  0  0  0
   47.8801    7.2762   21.8442 N   0  0  0  0  0  0  0  0  0  0  0  0
   48.3325   12.5250   22.4898 N   0  0  0  0  0  0  0  0  0  0  0  0
   48.3273   12.8871   21.1649 C   0  0  0  0  0  0  0  0  0  0  0  0
   48.2171   11.7894   20.3211 C   0  0  0  0  0  0  0  0  0  0  0  0
   48.1659   11.6861   18.8367 C   0  0  2  0  0  0  0  0  0  0  0  0
   49.4908   11.3199   18.1229 C   0  0  1  0  0  0  0  0  0  0  0  0
   49.1332   11.6633   16.6634 C   0  0  0  0  0  0  0  0  0  0  0  0
   48.2044   12.7802   16.7486 N   0  0  0  0  0  0  0  0  0  0  0  0
   47.7343   12.9667   18.1104 C   0  0  0  0  0  0  0  0  0  0  0  0
   50.7436   12.1109   18.5615 C   0  0  0  0  0  0  0  0  0  0  0  0
   51.5036   11.4517   19.7059 C   0  0  0  0  0  0  0  0  0  0  0  0
   47.8701   13.6750   15.7671 C   0  0  0  0  0  0  0  0  0  0  0  0
   48.3673   13.3757   14.5281 N   0  0  0  0  0  0  0  0  0  0  0  0
   47.1876   14.6724   15.9769 O   0  0  0  0  0  0  0  0  0  0  0  0
   48.0139   14.2254   13.3888 C   0  0  0  0  0  0  0  0  0  0  0  0
   48.7810   13.9150   12.1090 C   0  0  0  0  0  0  0  0  0  0  0  0
   50.1047   14.1452   12.2488 F   0  0  0  0  0  0  0  0  0  0  0  0
   48.6265   12.6135   11.7650 F   0  0  0  0  0  0  0  0  0  0  0  0
   48.3371   14.6657   11.0775 F   0  0  0  0  0  0  0  0  0  0  0  0
   50.2833    9.7278   23.1397 N   0  0  0  0  0  0  0  0  0  0  0  0
   49.0651    9.4471   22.5992 C   0  0  0  0  0  0  0  0  0  0  0  0
   48.5123    9.8854   21.4110 C   0  0  0  0  0  0  0  0  0  0  0  0
   49.3128   10.7489   20.6401 N   0  0  0  0  0  0  0  0  0  0  0  0
   50.5640   11.0627   21.1301 C   0  0  0  0  0  0  0  0  0  0  0  0
   51.0154   10.5264   22.3998 C   0  0  0  0  0  0  0  0  0  0  0  0
   47.2359    9.3216   21.2630 C   0  0  0  0  0  0  0  0  0  0  0  0
   47.0304    8.5433   22.3884 C   0  0  0  0  0  0  0  0  0  0  0  0
   48.1459    8.6281   23.1921 N   0  0  0  0  0  0  0  0  0  0  0  0
   51.2300   11.8582   20.3246 N   0  0  0  0  0  0  0  0  0  0  0  0
   50.3758   12.0675   19.2714 C   0  0  0  0  0  0  0  0  0  0  0  0
   49.1647   11.4068   19.4376 C   0  0  0  0  0  0  0  0  0  0  0  0
   47.9380   11.3658   18.5711 C   0  0  2  0  0  0  0  0  0  0  0  0
   48.0418   10.4098   17.3618 C   0  0  1  0  0  0  0  0  0  0  0  0
   48.7369   11.2605   16.2938 C   0  0  0  0  0  0  0  0  0  0  0  0
   48.3471   12.6296   16.5923 N   0  0  0  0  0  0  0  0  0  0  0  0
   47.6665   12.7149   17.8790 C   0  0  0  0  0  0  0  0  0  0  0  0
   48.7090    9.0559   17.6166 C   0  0  0  0  0  0  0  0  0  0  0  0
   48.6656    8.1464   16.3960 C   0  0  0  0  0  0  0  0  0  0  0  0
   48.5058   13.6120   15.6507 C   0  0  0  0  0  0  0  0  0  0  0  0
   48.0427   14.8475   16.0164 N   0  0  0  0  0  0  0  0  0  0  0  0
   48.9978   13.4041   14.5466 O   0  0  0  0  0  0  0  0  0  0  0  0
   48.2681   15.9896   15.1275 C   0  0  0  0  0  0  0  0  0  0  0  0
   49.6695   16.6020   15.2007 C   0  0  0  0  0  0  0  0  0  0  0  0
   50.6422   15.7645   14.7957 F   0  0  0  0  0  0  0  0  0  0  0  0
   49.9492   16.9737   16.4751 F   0  0  0  0  0  0  0  0  0  0  0  0
   49.7391   17.7176   14.4370 F   0  0  0  0  0  0  0  0  0  0  0  0
   48.6433   11.8495   17.6132 H   0  0  0  0  0  0  0  0  0  0  0  0
   48.5444   11.0404   18.9043 H   0  0  0  0  0  0  0  0  0  0  0  0
   48.2465   10.7622   24.6172 H   0  0  0  0  0  0  0  0  0  0  0  0
   47.9008    8.6894   18.8823 H   0  0  0  0  0  0  0  0  0  0  0  0
   47.7352    6.2171   19.9935 H   0  0  0  0  0  0  0  0  0  0  0  0
   47.8359    6.5082   22.5000 H   0  0  0  0  0  0  0  0  0  0  0  0
   48.4085   13.9311   20.8854 H   0  0  0  0  0  0  0  0  0  0  0  0
   47.4191   10.9241   18.5721 H   0  0  0  0  0  0  0  0  0  0  0  0
   49.7062   10.2482   18.2004 H   0  0  0  0  0  0  0  0  0  0  0  0
   49.9960   11.9107   16.0378 H   0  0  0  0  0  0  0  0  0  0  0  0
   48.5935   10.8316   16.1951 H   0  0  0  0  0  0  0  0  0  0  0  0
   48.2072   13.8731   18.5044 H   0  0  0  0  0  0  0  0  0  0  0  0
   46.6486   13.1119   18.1231 H   0  0  0  0  0  0  0  0  0  0  0  0
   51.4437   12.1770   17.7194 H   0  0  0  0  0  0  0  0  0  0  0  0
   50.4911   13.1414   18.8335 H   0  0  0  0  0  0  0  0  0  0  0  0
   52.4245   12.0081   19.9099 H   0  0  0  0  0  0  0  0  0  0  0  0
   51.7840   10.4250   19.4493 H   0  0  0  0  0  0  0  0  0  0  0  0
   50.9257   11.4269   20.6306 H   0  0  0  0  0  0  0  0  0  0  0  0
   48.4502   12.3872   14.3377 H   0  0  0  0  0  0  0  0  0  0  0  0
   48.1781   15.2710   13.6723 H   0  0  0  0  0  0  0  0  0  0  0  0
   46.9400   14.0963   13.2128 H   0  0  0  0  0  0  0  0  0  0  0  0
   52.0205   10.8085   22.7524 H   0  0  0  0  0  0  0  0  0  0  0  0
   46.5279    9.4324   20.4544 H   0  0  0  0  0  0  0  0  0  0  0  0
   46.1894    7.9317   22.6876 H   0  0  0  0  0  0  0  0  0  0  0  0
   48.2848    8.1618   24.0781 H   0  0  0  0  0  0  0  0  0  0  0  0
   50.6750   12.6948   18.4389 H   0  0  0  0  0  0  0  0  0  0  0  0
   47.0666   11.1251   19.1847 H   0  0  0  0  0  0  0  0  0  0  0  0
   47.0137   10.2235   17.0161 H   0  0  0  0  0  0  0  0  0  0  0  0
   49.8292   11.2001   16.3539 H   0  0  0  0  0  0  0  0  0  0  0  0
   48.4271   10.9851   15.2802 H   0  0  0  0  0  0  0  0  0  0  0  0
   48.0084   13.5810   18.4534 H   0  0  0  0  0  0  0  0  0  0  0  0
   46.5973   12.8362   17.6681 H   0  0  0  0  0  0  0  0  0  0  0  0
   49.7558    9.1853   17.9135 H   0  0  0  0  0  0  0  0  0  0  0  0
   48.1981    8.5496   18.4431 H   0  0  0  0  0  0  0  0  0  0  0  0
   49.1025    7.1721   16.6374 H   0  0  0  0  0  0  0  0  0  0  0  0
   49.2336    8.5700   15.5622 H   0  0  0  0  0  0  0  0  0  0  0  0
   47.6354    7.9823   16.0648 H   0  0  0  0  0  0  0  0  0  0  0  0
   48.0627   15.0487   17.0041 H   0  0  0  0  0  0  0  0  0  0  0  0
   47.5315   16.7474   15.4142 H   0  0  0  0  0  0  0  0  0  0  0  0
   48.0524   15.6874   14.0970 H   0  0  0  0  0  0  0  0  0  0  0  0
  2  3  1  0
  4  5  1  0
  6  7  1  0
  7  2  2  0
  3 10  1  0
  3  4  2  0
  4  8  1  0
  8  9  2  0
  9 10  1  0
  5 13  1  0
  5  6  1  0
  6 11  2  0
 11 12  1  0
 12 13  2  0
 14 13  1  0
 14 15  1  0
 14 18  1  0
 15 16  1  0
 16 17  1  0
 17 18  1  0
 15 19  1  0
 19 20  1  0
 17 21  1  0
 21 22  1  0
 21 23  2  0
 22 24  1  0
 24 25  1  0
 25 26  1  0
 25 27  1  0
 25 28  1  0
 29 30  1  0
 31 32  1  0
 33 34  1  0
 34 29  2  0
 30 37  1  0
 30 31  2  0
 31 35  1  0
 35 36  2  0
 36 37  1  0
 32 40  1  0
 32 33  1  0
 33 38  2  0
 38 39  1  0
 39 40  2  0
 41 40  1  0
 41 42  1  0
 41 45  1  0
 42 43  1  0
 43 44  1  0
 44 45  1  0
 42 46  1  0
 46 47  1  0
 44 48  1  0
 48 49  1  0
 48 50  2  0
 49 51  1  0
 51 52  1  0
 52 53  1  0
 52 54  1  0
 52 55  1  0
  1 56  1  0
  1 57  1  0
  7 58  1  0
  8 59  1  0
  9 60  1  0
 10 61  1  0
 12 62  1  0
 14 63  1  1
 15 64  1  1
 16 65  1  0
 16 66  1  0
 18 67  1  0
 18 68  1  0
 19 69  1  0
 19 70  1  0
 20 71  1  0
 20 72  1  0
 20 73  1  0
 22 74  1  0
 24 75  1  0
 24 76  1  0
 34 77  1  0
 35 78  1  0
 36 79  1  0
 37 80  1  0
 39 81  1  0
 41 82  1  6
 42 83  1  6
 43 84  1  0
 43 85  1  0
 45 86  1  0
 45 87  1  0
 46 88  1  0
 46 89  1  0
 47 90  1  0
 47 91  1  0
 47 92  1  0
 49 93  1  0
 51 94  1  0
 51 95  1  0
M  END
> <Uni-Dock RESULT> 
ENERGY=   -4.240  LOWER_BOUND=    3.326  UPPER_BOUND=    5.202
INTER + INTRA:          -4.240
INTER:                  -4.240
INTRA:                   0.000
UNBOUND:                 0.000

$$$$

     RDKit          3D

 95100  0  0  0  0  0  0  0  0999 V2000
   51.0716    9.3313   13.0818 O   0  0  0  0  0  0  0  0  0  0  0  0
   49.0582   12.3735   17.5562 N   0  0  0  0  0  0  0  0  0  0  0  0
   48.9052   12.5578   16.2152 C   0  0  0  0  0  0  0  0  0  0  0  0
   49.5517   11.9319   15.1672 C   0  0  0  0  0  0  0  0  0  0  0  0
   50.5062   10.9623   15.5228 N   0  0  0  0  0  0  0  0  0  0  0  0
   50.7085   10.7294   16.8669 C   0  0  0  0  0  0  0  0  0  0  0  0
   49.9549   11.4659   17.8637 C   0  0  0  0  0  0  0  0  0  0  0  0
   49.0709   12.4465   13.9543 C   0  0  0  0  0  0  0  0  0  0  0  0
   48.1207   13.3930   14.2942 C   0  0  0  0  0  0  0  0  0  0  0  0
   48.0289   13.4522   15.6679 N   0  0  0  0  0  0  0  0  0  0  0  0
   51.6177    9.8054   17.0796 N   0  0  0  0  0  0  0  0  0  0  0  0
   52.0174    9.4258   15.8216 C   0  0  0  0  0  0  0  0  0  0  0  0
   51.3435   10.1197   14.8249 C   0  0  0  0  0  0  0  0  0  0  0  0
   51.4385   10.0563   13.3404 C   0  0  2  0  0  0  0  0  0  0  0  0
   50.3650    9.2080   12.6145 C   0  0  1  0  0  0  0  0  0  0  0  0
   50.9934    9.0919   11.2117 C   0  0  0  0  0  0  0  0  0  0  0  0
   52.4313    9.0858   11.4349 N   0  0  0  0  0  0  0  0  0  0  0  0
   52.7508    9.4764   12.7971 C   0  0  0  0  0  0  0  0  0  0  0  0
   50.1003    7.8005   13.1944 C   0  0  0  0  0  0  0  0  0  0  0  0
   49.0014    7.7793   14.2498 C   0  0  0  0  0  0  0  0  0  0  0  0
   53.4141    8.6516   10.5855 C   0  0  0  0  0  0  0  0  0  0  0  0
   52.9807    8.3271    9.3291 N   0  0  0  0  0  0  0  0  0  0  0  0
   54.5896    8.5502   10.9207 O   0  0  0  0  0  0  0  0  0  0  0  0
   53.9568    7.9183    8.3166 C   0  0  0  0  0  0  0  0  0  0  0  0
   53.3426    7.3920    7.0250 C   0  0  0  0  0  0  0  0  0  0  0  0
   52.6381    6.2578    7.2298 F   0  0  0  0  0  0  0  0  0  0  0  0
   52.4976    8.3074    6.4919 F   0  0  0  0  0  0  0  0  0  0  0  0
   54.2933    7.1278    6.1026 F   0  0  0  0  0  0  0  0  0  0  0  0
   48.1807   10.2026   17.3653 N   0  0  0  0  0  0  0  0  0  0  0  0
   48.8159   11.2439   16.7594 C   0  0  0  0  0  0  0  0  0  0  0  0
   49.6177   11.2453   15.6339 C   0  0  0  0  0  0  0  0  0  0  0  0
   49.8162    9.9961   15.0168 N   0  0  0  0  0  0  0  0  0  0  0  0
   49.1891    8.9028   15.5784 C   0  0  0  0  0  0  0  0  0  0  0  0
   48.3722    9.0505   16.7677 C   0  0  0  0  0  0  0  0  0  0  0  0
   50.0412   12.5575   15.3737 C   0  0  0  0  0  0  0  0  0  0  0  0
   49.4850   13.3417   16.3687 C   0  0  0  0  0  0  0  0  0  0  0  0
   48.7450   12.5341   17.2039 N   0  0  0  0  0  0  0  0  0  0  0  0
   49.4275    7.7952   14.9138 N   0  0  0  0  0  0  0  0  0  0  0  0
   50.2413    8.1874   13.8811 C   0  0  0  0  0  0  0  0  0  0  0  0
   50.5201    9.5482   13.9193 C   0  0  0  0  0  0  0  0  0  0  0  0
   51.3715   10.4048   13.0254 C   0  0  2  0  0  0  0  0  0  0  0  0
   50.6986   10.8040   11.6932 C   0  0  1  0  0  0  0  0  0  0  0  0
   50.9841    9.6090   10.7777 C   0  0  0  0  0  0  0  0  0  0  0  0
   52.2397    9.0570   11.2620 N   0  0  0  0  0  0  0  0  0  0  0  0
   52.6275    9.6635   12.5300 C   0  0  0  0  0  0  0  0  0  0  0  0
   49.2215   11.1992   11.7655 C   0  0  0  0  0  0  0  0  0  0  0  0
   48.6806   11.6786   10.4251 C   0  0  0  0  0  0  0  0  0  0  0  0
   52.9626    8.1977   10.4772 C   0  0  0  0  0  0  0  0  0  0  0  0
   54.1592    7.7947   11.0066 N   0  0  0  0  0  0  0  0  0  0  0  0
   52.5886    7.8337    9.3672 O   0  0  0  0  0  0  0  0  0  0  0  0
   54.9538    6.7882   10.2988 C   0  0  0  0  0  0  0  0  0  0  0  0
   54.4920    5.3416   10.4952 C   0  0  0  0  0  0  0  0  0  0  0  0
   53.2654    5.0982    9.9975 F   0  0  0  0  0  0  0  0  0  0  0  0
   54.4693    5.0354   11.8167 F   0  0  0  0  0  0  0  0  0  0  0  0
   55.3565    4.4842    9.9035 F   0  0  0  0  0  0  0  0  0  0  0  0
   51.3642    9.4508   12.1659 H   0  0  0  0  0  0  0  0  0  0  0  0
   50.6996   10.1930   13.3230 H   0  0  0  0  0  0  0  0  0  0  0  0
   50.1496   11.2465   18.9257 H   0  0  0  0  0  0  0  0  0  0  0  0
   49.3551   12.1905   12.9439 H   0  0  0  0  0  0  0  0  0  0  0  0
   47.5011   14.0331   13.6800 H   0  0  0  0  0  0  0  0  0  0  0  0
   47.4191   14.0543   16.2039 H   0  0  0  0  0  0  0  0  0  0  0  0
   52.7752    8.6607   15.6986 H   0  0  0  0  0  0  0  0  0  0  0  0
   51.3782   11.0819   12.9493 H   0  0  0  0  0  0  0  0  0  0  0  0
   49.4117    9.7434   12.5409 H   0  0  0  0  0  0  0  0  0  0  0  0
   50.6746    8.2085   10.6505 H   0  0  0  0  0  0  0  0  0  0  0  0
   50.7647    9.9824   10.6143 H   0  0  0  0  0  0  0  0  0  0  0  0
   53.0862    8.5799   13.3301 H   0  0  0  0  0  0  0  0  0  0  0  0
   53.5677   10.2062   12.8035 H   0  0  0  0  0  0  0  0  0  0  0  0
   49.7717    7.1323   12.3886 H   0  0  0  0  0  0  0  0  0  0  0  0
   51.0142    7.3594   13.6067 H   0  0  0  0  0  0  0  0  0  0  0  0
   48.7990    6.7474   14.5554 H   0  0  0  0  0  0  0  0  0  0  0  0
   48.0707    8.1987   13.8540 H   0  0  0  0  0  0  0  0  0  0  0  0
   49.2734    8.3379   15.1463 H   0  0  0  0  0  0  0  0  0  0  0  0
   52.2014    8.8788    8.9993 H   0  0  0  0  0  0  0  0  0  0  0  0
   54.6088    7.1534    8.7529 H   0  0  0  0  0  0  0  0  0  0  0  0
   54.5776    8.7943    8.0969 H   0  0  0  0  0  0  0  0  0  0  0  0
   47.8949    8.1481   17.1826 H   0  0  0  0  0  0  0  0  0  0  0  0
   50.6627   12.9303   14.5722 H   0  0  0  0  0  0  0  0  0  0  0  0
   49.5465   14.4059   16.5549 H   0  0  0  0  0  0  0  0  0  0  0  0
   48.2208   12.8297   18.0161 H   0  0  0  0  0  0  0  0  0  0  0  0
   50.5954    7.4627   13.1562 H   0  0  0  0  0  0  0  0  0  0  0  0
   51.7020   11.2890   13.5756 H   0  0  0  0  0  0  0  0  0  0  0  0
   51.2623   11.6628   11.2984 H   0  0  0  0  0  0  0  0  0  0  0  0
   50.2198    8.8279   10.8558 H   0  0  0  0  0  0  0  0  0  0  0  0
   51.0745    9.9056    9.7275 H   0  0  0  0  0  0  0  0  0  0  0  0
   53.0014    8.9126   13.2324 H   0  0  0  0  0  0  0  0  0  0  0  0
   53.4366   10.3708   12.3122 H   0  0  0  0  0  0  0  0  0  0  0  0
   48.6073   10.3572   12.1041 H   0  0  0  0  0  0  0  0  0  0  0  0
   49.0971   12.0056   12.4967 H   0  0  0  0  0  0  0  0  0  0  0  0
   47.6406   12.0023   10.5334 H   0  0  0  0  0  0  0  0  0  0  0  0
   48.7063   10.8813    9.6761 H   0  0  0  0  0  0  0  0  0  0  0  0
   49.2611   12.5264   10.0478 H   0  0  0  0  0  0  0  0  0  0  0  0
   54.2048    7.7623   12.0132 H   0  0  0  0  0  0  0  0  0  0  0  0
   55.9773    6.8907   10.6739 H   0  0  0  0  0  0  0  0  0  0  0  0
   54.9640    7.0288    9.2302 H   0  0  0  0  0  0  0  0  0  0  0  0
  2  3  1  0
  4  5  1  0
  6  7  1  0
  7  2  2  0
  3 10  1  0
  3  4  2  0
  4  8  1  0
  8  9  2  0
  9 10  1  0
  5 13  1  0
  5  6  1  0
  6 11  2  0
 11 12  1  0
 12 13  2  0
 14 13  1  0
 14 15  1  0
 14 18  1  0
 15 16  1  0
 16 17  1  0
 17 18  1  0
 15 19  1  0
 19 20  1  0
 17 21  1  0
 21 22  1  0
 21 23  2  0
 22 24  1  0
 24 25  1  0
 25 26  1  0
 25 27  1  0
 25 28  1  0
 29 30  1  0
 31 32  1  0
 33 34  1  0
 34 29  2  0
 30 37  1  0
 30 31  2  0
 31 35  1  0
 35 36  2  0
 36 37  1  0
 32 40  1  0
 32 33  1  0
 33 38  2  0
 38 39  1  0
 39 40  2  0
 41 40  1  0
 41 42  1  0
 41 45  1  0
 42 43  1  0
 43 44  1  0
 44 45  1  0
 42 46  1  0
 46 47  1  0
 44 48  1  0
 48 49  1  0
 48 50  2  0
 49 51  1  0
 51 52  1  0
 52 53  1  0
 52 54  1  0
 52 55  1  0
  1 56  1  0
  1 57  1  0
  7 58  1  0
  8 59  1  0
  9 60  1  0
 10 61  1  0
 12 62  1  0
 14 63  1  1
 15 64  1  1
 16 65  1  0
 16 66  1  0
 18 67  1  0
 18 68  1  0
 19 69  1  0
 19 70  1  0
 20 71  1  0
 20 72  1  0
 20 73  1  0
 22 74  1  0
 24 75  1  0
 24 76  1  0
 34 77  1  0
 35 78  1  0
 36 79  1  0
 37 80  1  0
 39 81  1  0
 41 82  1  6
 42 83  1  6
 43 84  1  0
 43 85  1  0
 45 86  1  0
 45 87  1  0
 46 88  1  0
 46 89  1  0
 47 90  1  0
 47 91  1  0
 47 92  1  0
 49 93  1  0
 51 94  1  0
 51 95  1  0
M  END
> <Uni-Dock RESULT> 
ENERGY=   -4.238  LOWER_BOUND=    5.626  UPPER_BOUND=    8.306
INTER + INTRA:          -4.238
INTER:                  -4.238
INTRA:                   0.000
UNBOUND:                 0.000

$$$$

     RDKit          3D

 95100  0  0  0  0  0  0  0  0999 V2000
   51.4159    8.7290   15.7301 O   0  0  0  0  0  0  0  0  0  0  0  0
   54.9250   12.3485   12.9170 N   0  0  0  0  0  0  0  0  0  0  0  0
   53.8813   11.5958   12.4704 C   0  0  0  0  0  0  0  0  0  0  0  0
   53.1826   10.5968   13.1201 C   0  0  0  0  0  0  0  0  0  0  0  0
   53.5982   10.3072   14.4319 N   0  0  0  0  0  0  0  0  0  0  0  0
   54.6522   11.0354   14.9425 C   0  0  0  0  0  0  0  0  0  0  0  0
   55.2962   12.0593   14.1421 C   0  0  0  0  0  0  0  0  0  0  0  0
   52.1876   10.0986   12.2664 C   0  0  0  0  0  0  0  0  0  0  0  0
   52.3008   10.8196   11.0909 C   0  0  0  0  0  0  0  0  0  0  0  0
   53.3313   11.7243   11.2260 N   0  0  0  0  0  0  0  0  0  0  0  0
   54.9509   10.6817   16.1718 N   0  0  0  0  0  0  0  0  0  0  0  0
   54.0524    9.6857   16.4670 C   0  0  0  0  0  0  0  0  0  0  0  0
   53.1888    9.4277   15.4103 C   0  0  0  0  0  0  0  0  0  0  0  0
   52.0731    8.4530   15.2621 C   0  0  2  0  0  0  0  0  0  0  0  0
   50.6418    9.0012   15.4857 C   0  0  1  0  0  0  0  0  0  0  0  0
   49.8482    7.6855   15.6094 C   0  0  0  0  0  0  0  0  0  0  0  0
   50.7689    6.7383   16.2198 N   0  0  0  0  0  0  0  0  0  0  0  0
   52.1274    7.2528   16.2160 C   0  0  0  0  0  0  0  0  0  0  0  0
   50.4320    9.8670   16.7482 C   0  0  0  0  0  0  0  0  0  0  0  0
   50.6620   11.3537   16.5057 C   0  0  0  0  0  0  0  0  0  0  0  0
   50.4692    5.5660   16.8617 C   0  0  0  0  0  0  0  0  0  0  0  0
   49.1568    5.1886   16.7780 N   0  0  0  0  0  0  0  0  0  0  0  0
   51.3039    4.9071   17.4729 O   0  0  0  0  0  0  0  0  0  0  0  0
   48.7376    3.9151   17.3676 C   0  0  0  0  0  0  0  0  0  0  0  0
   47.2295    3.6966   17.3890 C   0  0  0  0  0  0  0  0  0  0  0  0
   46.6019    4.6033   18.1693 F   0  0  0  0  0  0  0  0  0  0  0  0
   46.7147    3.8058   16.1404 F   0  0  0  0  0  0  0  0  0  0  0  0
   46.9193    2.4664   17.8527 F   0  0  0  0  0  0  0  0  0  0  0  0
   53.5213   13.3681   14.5011 N   0  0  0  0  0  0  0  0  0  0  0  0
   53.7701   12.2864   13.7117 C   0  0  0  0  0  0  0  0  0  0  0  0
   53.3236   10.9853   13.8432 C   0  0  0  0  0  0  0  0  0  0  0  0
   52.4931   10.7272   14.9497 N   0  0  0  0  0  0  0  0  0  0  0  0
   52.1954   11.7868   15.7820 C   0  0  0  0  0  0  0  0  0  0  0  0
   52.7379   13.1062   15.5203 C   0  0  0  0  0  0  0  0  0  0  0  0
   53.8273   10.2178   12.7820 C   0  0  0  0  0  0  0  0  0  0  0  0
   54.5906   11.0811   12.0162 C   0  0  0  0  0  0  0  0  0  0  0  0
   54.5495   12.3325   12.5903 N   0  0  0  0  0  0  0  0  0  0  0  0
   51.4014   11.4384   16.7686 N   0  0  0  0  0  0  0  0  0  0  0  0
   51.1763   10.0999   16.5666 C   0  0  0  0  0  0  0  0  0  0  0  0
   51.8517    9.6155   15.4531 C   0  0  0  0  0  0  0  0  0  0  0  0
   51.9239    8.2330   14.8691 C   0  0  2  0  0  0  0  0  0  0  0  0
   50.6943    7.8315   14.0242 C   0  0  1  0  0  0  0  0  0  0  0  0
   49.6997    7.3115   15.0672 C   0  0  0  0  0  0  0  0  0  0  0  0
   50.5252    6.7826   16.1418 N   0  0  0  0  0  0  0  0  0  0  0  0
   51.9263    7.1401   15.9545 C   0  0  0  0  0  0  0  0  0  0  0  0
   50.1236    8.9057   13.0949 C   0  0  0  0  0  0  0  0  0  0  0  0
   48.9863    8.3818   12.2285 C   0  0  0  0  0  0  0  0  0  0  0  0
   49.9831    5.9395   17.0758 C   0  0  0  0  0  0  0  0  0  0  0  0
   50.8672    5.4505   17.9996 N   0  0  0  0  0  0  0  0  0  0  0  0
   48.7999    5.6162   17.0753 O   0  0  0  0  0  0  0  0  0  0  0  0
   50.3676    4.6331   19.1076 C   0  0  0  0  0  0  0  0  0  0  0  0
   49.7455    5.4194   20.2647 C   0  0  0  0  0  0  0  0  0  0  0  0
   48.6322    6.0919   19.9184 F   0  0  0  0  0  0  0  0  0  0  0  0
   50.6376    6.3196   20.7488 F   0  0  0  0  0  0  0  0  0  0  0  0
   49.4266    4.5882   21.2845 F   0  0  0  0  0  0  0  0  0  0  0  0
   50.9081    7.9162   15.5878 H   0  0  0  0  0  0  0  0  0  0  0  0
   51.7240    8.9707   14.8437 H   0  0  0  0  0  0  0  0  0  0  0  0
   56.1343   12.6160   14.5912 H   0  0  0  0  0  0  0  0  0  0  0  0
   51.4646    9.3158   12.4447 H   0  0  0  0  0  0  0  0  0  0  0  0
   51.7400   10.7685   10.1669 H   0  0  0  0  0  0  0  0  0  0  0  0
   53.6466   12.3845   10.5285 H   0  0  0  0  0  0  0  0  0  0  0  0
   54.0723    9.2045   17.4379 H   0  0  0  0  0  0  0  0  0  0  0  0
   52.1179    8.0330   14.2473 H   0  0  0  0  0  0  0  0  0  0  0  0
   50.2841    9.5591   14.6129 H   0  0  0  0  0  0  0  0  0  0  0  0
   48.9251    7.7729   16.1900 H   0  0  0  0  0  0  0  0  0  0  0  0
   49.5967    7.2948   14.6163 H   0  0  0  0  0  0  0  0  0  0  0  0
   52.3830    7.5245   17.2462 H   0  0  0  0  0  0  0  0  0  0  0  0
   52.8275    6.4800   15.8803 H   0  0  0  0  0  0  0  0  0  0  0  0
   49.3947    9.7637   17.0904 H   0  0  0  0  0  0  0  0  0  0  0  0
   51.0644    9.5276   17.5756 H   0  0  0  0  0  0  0  0  0  0  0  0
   50.4119   11.9208   17.4085 H   0  0  0  0  0  0  0  0  0  0  0  0
   50.0256   11.7207   15.6941 H   0  0  0  0  0  0  0  0  0  0  0  0
   51.6993   11.5797   16.2551 H   0  0  0  0  0  0  0  0  0  0  0  0
   48.6990    5.4531   15.9174 H   0  0  0  0  0  0  0  0  0  0  0  0
   49.1325    3.8592   18.3881 H   0  0  0  0  0  0  0  0  0  0  0  0
   49.2150    3.1190   16.7852 H   0  0  0  0  0  0  0  0  0  0  0  0
   52.4759   13.9203   16.2151 H   0  0  0  0  0  0  0  0  0  0  0  0
   53.6725    9.1718   12.5595 H   0  0  0  0  0  0  0  0  0  0  0  0
   55.1573   10.9170   11.1090 H   0  0  0  0  0  0  0  0  0  0  0  0
   55.0092   13.1655   12.2489 H   0  0  0  0  0  0  0  0  0  0  0  0
   50.5371    9.5432   17.2430 H   0  0  0  0  0  0  0  0  0  0  0  0
   52.8450    8.1298   14.2906 H   0  0  0  0  0  0  0  0  0  0  0  0
   51.0010    6.9740   13.4061 H   0  0  0  0  0  0  0  0  0  0  0  0
   49.0732    8.1079   15.4840 H   0  0  0  0  0  0  0  0  0  0  0  0
   49.0481    6.5298   14.6630 H   0  0  0  0  0  0  0  0  0  0  0  0
   52.3858    7.4555   16.8960 H   0  0  0  0  0  0  0  0  0  0  0  0
   52.4415    6.2397   15.5993 H   0  0  0  0  0  0  0  0  0  0  0  0
   49.7536    9.7629   13.6687 H   0  0  0  0  0  0  0  0  0  0  0  0
   50.9177    9.2750   12.4367 H   0  0  0  0  0  0  0  0  0  0  0  0
   48.6453    9.1638   11.5425 H   0  0  0  0  0  0  0  0  0  0  0  0
   48.1303    8.0741   12.8366 H   0  0  0  0  0  0  0  0  0  0  0  0
   49.3111    7.5249   11.6298 H   0  0  0  0  0  0  0  0  0  0  0  0
   51.6535    6.0448   18.2117 H   0  0  0  0  0  0  0  0  0  0  0  0
   51.2286    4.0689   19.4810 H   0  0  0  0  0  0  0  0  0  0  0  0
   49.6395    3.9128   18.7192 H   0  0  0  0  0  0  0  0  0  0  0  0
  2  3  1  0
  4  5  1  0
  6  7  1  0
  7  2  2  0
  3 10  1  0
  3  4  2  0
  4  8  1  0
  8  9  2  0
  9 10  1  0
  5 13  1  0
  5  6  1  0
  6 11  2  0
 11 12  1  0
 12 13  2  0
 14 13  1  0
 14 15  1  0
 14 18  1  0
 15 16  1  0
 16 17  1  0
 17 18  1  0
 15 19  1  0
 19 20  1  0
 17 21  1  0
 21 22  1  0
 21 23  2  0
 22 24  1  0
 24 25  1  0
 25 26  1  0
 25 27  1  0
 25 28  1  0
 29 30  1  0
 31 32  1  0
 33 34  1  0
 34 29  2  0
 30 37  1  0
 30 31  2  0
 31 35  1  0
 35 36  2  0
 36 37  1  0
 32 40  1  0
 32 33  1  0
 33 38  2  0
 38 39  1  0
 39 40  2  0
 41 40  1  0
 41 42  1  0
 41 45  1  0
 42 43  1  0
 43 44  1  0
 44 45  1  0
 42 46  1  0
 46 47  1  0
 44 48  1  0
 48 49  1  0
 48 50  2  0
 49 51  1  0
 51 52  1  0
 52 53  1  0
 52 54  1  0
 52 55  1  0
  1 56  1  0
  1 57  1  0
  7 58  1  0
  8 59  1  0
  9 60  1  0
 10 61  1  0
 12 62  1  0
 14 63  1  1
 15 64  1  1
 16 65  1  0
 16 66  1  0
 18 67  1  0
 18 68  1  0
 19 69  1  0
 19 70  1  0
 20 71  1  0
 20 72  1  0
 20 73  1  0
 22 74  1  0
 24 75  1  0
 24 76  1  0
 34 77  1  0
 35 78  1  0
 36 79  1  0
 37 80  1  0
 39 81  1  0
 41 82  1  6
 42 83  1  6
 43 84  1  0
 43 85  1  0
 45 86  1  0
 45 87  1  0
 46 88  1  0
 46 89  1  0
 47 90  1  0
 47 91  1  0
 47 92  1  0
 49 93  1  0
 51 94  1  0
 51 95  1  0
M  END
> <Uni-Dock RESULT> 
ENERGY=   -4.206  LOWER_BOUND=    4.710  UPPER_BOUND=    7.930
INTER + INTRA:          -4.206
INTER:                  -4.206
INTRA:                   0.000
UNBOUND:                 0.000

$$$$

     RDKit          3D

 95100  0  0  0  0  0  0  0  0999 V2000
   49.2067    9.4973   12.9423 O   0  0  0  0  0  0  0  0  0  0  0  0
   53.4329    8.0099   16.5831 N   0  0  0  0  0  0  0  0  0  0  0  0
   52.2041    7.4600   16.3755 C   0  0  0  0  0  0  0  0  0  0  0  0
   51.1413    7.9467   15.6396 C   0  0  0  0  0  0  0  0  0  0  0  0
   51.3454    9.1866   15.0081 N   0  0  0  0  0  0  0  0  0  0  0  0
   52.5705    9.7961   15.1805 C   0  0  0  0  0  0  0  0  0  0  0  0
   53.5994    9.1667   15.9860 C   0  0  0  0  0  0  0  0  0  0  0  0
   50.0749    7.0386   15.7117 C   0  0  0  0  0  0  0  0  0  0  0  0
   50.5187    5.9950   16.5043 C   0  0  0  0  0  0  0  0  0  0  0  0
   51.8111    6.2615   16.9014 N   0  0  0  0  0  0  0  0  0  0  0  0
   52.6481   10.9435   14.5456 N   0  0  0  0  0  0  0  0  0  0  0  0
   51.4239   11.0793   13.9379 C   0  0  0  0  0  0  0  0  0  0  0  0
   50.5865   10.0020   14.1974 C   0  0  0  0  0  0  0  0  0  0  0  0
   49.1912    9.7099   13.7679 C   0  0  2  0  0  0  0  0  0  0  0  0
   49.0249    8.7521   12.5622 C   0  0  1  0  0  0  0  0  0  0  0  0
   47.5429    8.9895   12.2111 C   0  0  0  0  0  0  0  0  0  0  0  0
   47.2863   10.3808   12.5514 N   0  0  0  0  0  0  0  0  0  0  0  0
   48.3726   10.9351   13.3407 C   0  0  0  0  0  0  0  0  0  0  0  0
   49.9138    9.0425   11.3321 C   0  0  0  0  0  0  0  0  0  0  0  0
   51.2516    8.3140   11.3686 C   0  0  0  0  0  0  0  0  0  0  0  0
   46.2628   11.1800   12.1157 C   0  0  0  0  0  0  0  0  0  0  0  0
   45.2990   10.5307   11.3937 N   0  0  0  0  0  0  0  0  0  0  0  0
   46.2129   12.3843   12.3429 O   0  0  0  0  0  0  0  0  0  0  0  0
   44.1217   11.2732   10.9381 C   0  0  0  0  0  0  0  0  0  0  0  0
   43.2218   10.5018    9.9802 C   0  0  0  0  0  0  0  0  0  0  0  0
   43.8533   10.2114    8.8219 F   0  0  0  0  0  0  0  0  0  0  0  0
   42.8279    9.3304   10.5359 F   0  0  0  0  0  0  0  0  0  0  0  0
   42.1089   11.2058    9.6794 F   0  0  0  0  0  0  0  0  0  0  0  0
   53.9490    7.7336   14.3079 N   0  0  0  0  0  0  0  0  0  0  0  0
   52.9854    7.8778   15.2596 C   0  0  0  0  0  0  0  0  0  0  0  0
   51.6823    8.3180   15.1266 C   0  0  0  0  0  0  0  0  0  0  0  0
   51.2815    8.6740   13.8254 N   0  0  0  0  0  0  0  0  0  0  0  0
   52.2112    8.5395   12.8146 C   0  0  0  0  0  0  0  0  0  0  0  0
   53.5503    8.0621   13.1019 C   0  0  0  0  0  0  0  0  0  0  0  0
   51.0566    8.2858   16.3822 C   0  0  0  0  0  0  0  0  0  0  0  0
   52.0112    7.8256   17.2718 C   0  0  0  0  0  0  0  0  0  0  0  0
   53.1772    7.5826   16.5799 N   0  0  0  0  0  0  0  0  0  0  0  0
   51.7267    8.8815   11.6426 N   0  0  0  0  0  0  0  0  0  0  0  0
   50.4320    9.2521   11.9054 C   0  0  0  0  0  0  0  0  0  0  0  0
   50.1207    9.1525   13.2560 C   0  0  0  0  0  0  0  0  0  0  0  0
   48.8550    9.4696   14.0011 C   0  0  2  0  0  0  0  0  0  0  0  0
   47.7618    8.3831   13.8947 C   0  0  1  0  0  0  0  0  0  0  0  0
   47.0459    8.7251   12.5839 C   0  0  0  0  0  0  0  0  0  0  0  0
   47.1933   10.1651   12.4406 N   0  0  0  0  0  0  0  0  0  0  0  0
   48.1294   10.6991   13.4227 C   0  0  0  0  0  0  0  0  0  0  0  0
   48.2317    6.9294   13.9913 C   0  0  0  0  0  0  0  0  0  0  0  0
   47.0731    5.9412   13.9848 C   0  0  0  0  0  0  0  0  0  0  0  0
   46.3940   10.8560   11.5685 C   0  0  0  0  0  0  0  0  0  0  0  0
   46.5741   12.2132   11.5660 N   0  0  0  0  0  0  0  0  0  0  0  0
   45.5542   10.3115   10.8594 O   0  0  0  0  0  0  0  0  0  0  0  0
   45.8508   13.0307   10.5893 C   0  0  0  0  0  0  0  0  0  0  0  0
   46.4551   13.0469    9.1825 C   0  0  0  0  0  0  0  0  0  0  0  0
   46.4358   11.8450    8.5771 F   0  0  0  0  0  0  0  0  0  0  0  0
   47.7456   13.4620    9.2348 F   0  0  0  0  0  0  0  0  0  0  0  0
   45.7886   13.9198    8.3911 F   0  0  0  0  0  0  0  0  0  0  0  0
   48.2403    9.4907   12.8739 H   0  0  0  0  0  0  0  0  0  0  0  0
   49.3881    8.9850   13.7446 H   0  0  0  0  0  0  0  0  0  0  0  0
   54.5628    9.6900   16.0959 H   0  0  0  0  0  0  0  0  0  0  0  0
   49.0943    7.1005   15.2624 H   0  0  0  0  0  0  0  0  0  0  0  0
   50.0287    5.0847   16.8239 H   0  0  0  0  0  0  0  0  0  0  0  0
   52.3916    5.6781   17.4882 H   0  0  0  0  0  0  0  0  0  0  0  0
   51.2092   11.9540   13.3349 H   0  0  0  0  0  0  0  0  0  0  0  0
   48.6546    9.2726   14.6218 H   0  0  0  0  0  0  0  0  0  0  0  0
   49.1639    7.7060   12.8577 H   0  0  0  0  0  0  0  0  0  0  0  0
   47.2921    8.7832   11.1663 H   0  0  0  0  0  0  0  0  0  0  0  0
   46.8949    8.3776   12.8497 H   0  0  0  0  0  0  0  0  0  0  0  0
   48.9275   11.6301   12.7009 H   0  0  0  0  0  0  0  0  0  0  0  0
   47.9768   11.4953   14.1949 H   0  0  0  0  0  0  0  0  0  0  0  0
   49.3988    8.7036   10.4246 H   0  0  0  0  0  0  0  0  0  0  0  0
   50.0840   10.1172   11.2064 H   0  0  0  0  0  0  0  0  0  0  0  0
   51.7950    8.4873   10.4338 H   0  0  0  0  0  0  0  0  0  0  0  0
   51.1063    7.2341   11.4747 H   0  0  0  0  0  0  0  0  0  0  0  0
   51.8897    8.6545   12.1850 H   0  0  0  0  0  0  0  0  0  0  0  0
   45.1410    9.5727   11.6725 H   0  0  0  0  0  0  0  0  0  0  0  0
   44.4599   12.1995   10.4604 H   0  0  0  0  0  0  0  0  0  0  0  0
   43.5521   11.5520   11.8318 H   0  0  0  0  0  0  0  0  0  0  0  0
   54.2595    7.9753   12.2631 H   0  0  0  0  0  0  0  0  0  0  0  0
   50.0422    8.5456   16.6487 H   0  0  0  0  0  0  0  0  0  0  0  0
   51.9632    7.6448   18.3377 H   0  0  0  0  0  0  0  0  0  0  0  0
   54.0441    7.2351   16.9667 H   0  0  0  0  0  0  0  0  0  0  0  0
   49.7821    9.5815   11.1022 H   0  0  0  0  0  0  0  0  0  0  0  0
   49.0916    9.6836   15.0460 H   0  0  0  0  0  0  0  0  0  0  0  0
   47.0515    8.5670   14.7150 H   0  0  0  0  0  0  0  0  0  0  0  0
   47.5127    8.2500   11.7139 H   0  0  0  0  0  0  0  0  0  0  0  0
   45.9869    8.4477   12.6071 H   0  0  0  0  0  0  0  0  0  0  0  0
   48.8016   11.4356   12.9724 H   0  0  0  0  0  0  0  0  0  0  0  0
   47.5325   11.1981   14.1954 H   0  0  0  0  0  0  0  0  0  0  0  0
   48.9030    6.6794   13.1620 H   0  0  0  0  0  0  0  0  0  0  0  0
   48.7979    6.7921   14.9191 H   0  0  0  0  0  0  0  0  0  0  0  0
   47.4486    4.9208   14.1108 H   0  0  0  0  0  0  0  0  0  0  0  0
   46.5206    5.9801   13.0412 H   0  0  0  0  0  0  0  0  0  0  0  0
   46.3757    6.1482   14.8027 H   0  0  0  0  0  0  0  0  0  0  0  0
   47.4990   12.5333   11.8080 H   0  0  0  0  0  0  0  0  0  0  0  0
   45.8485   14.0501   10.9890 H   0  0  0  0  0  0  0  0  0  0  0  0
   44.8112   12.6894   10.5388 H   0  0  0  0  0  0  0  0  0  0  0  0
  2  3  1  0
  4  5  1  0
  6  7  1  0
  7  2  2  0
  3 10  1  0
  3  4  2  0
  4  8  1  0
  8  9  2  0
  9 10  1  0
  5 13  1  0
  5  6  1  0
  6 11  2  0
 11 12  1  0
 12 13  2  0
 14 13  1  0
 14 15  1  0
 14 18  1  0
 15 16  1  0
 16 17  1  0
 17 18  1  0
 15 19  1  0
 19 20  1  0
 17 21  1  0
 21 22  1  0
 21 23  2  0
 22 24  1  0
 24 25  1  0
 25 26  1  0
 25 27  1  0
 25 28  1  0
 29 30  1  0
 31 32  1  0
 33 34  1  0
 34 29  2  0
 30 37  1  0
 30 31  2  0
 31 35  1  0
 35 36  2  0
 36 37  1  0
 32 40  1  0
 32 33  1  0
 33 38  2  0
 38 39  1  0
 39 40  2  0
 41 40  1  0
 41 42  1  0
 41 45  1  0
 42 43  1  0
 43 44  1  0
 44 45  1  0
 42 46  1  0
 46 47  1  0
 44 48  1  0
 48 49  1  0
 48 50  2  0
 49 51  1  0
 51 52  1  0
 52 53  1  0
 52 54  1  0
 52 55  1  0
  1 56  1  0
  1 57  1  0
  7 58  1  0
  8 59  1  0
  9 60  1  0
 10 61  1  0
 12 62  1  0
 14 63  1  1
 15 64  1  1
 16 65  1  0
 16 66  1  0
 18 67  1  0
 18 68  1  0
 19 69  1  0
 19 70  1  0
 20 71  1  0
 20 72  1  0
 20 73  1  0
 22 74  1  0
 24 75  1  0
 24 76  1  0
 34 77  1  0
 35 78  1  0
 36 79  1  0
 37 80  1  0
 39 81  1  0
 41 82  1  6
 42 83  1  6
 43 84  1  0
 43 85  1  0
 45 86  1  0
 45 87  1  0
 46 88  1  0
 46 89  1  0
 47 90  1  0
 47 91  1  0
 47 92  1  0
 49 93  1  0
 51 94  1  0
 51 95  1  0
M  END
> <Uni-Dock RESULT> 
ENERGY=   -4.193  LOWER_BOUND=    4.315  UPPER_BOUND=    6.491
INTER + INTRA:          -4.193
INTER:                  -4.193
INTRA:                   0.000
UNBOUND:                 0.000

$$$$

     RDKit          3D

 95100  0  0  0  0  0  0  0  0999 V2000
   49.0141    7.6729   18.0351 O   0  0  0  0  0  0  0  0  0  0  0  0
   48.9761    5.7075   23.4632 N   0  0  0  0  0  0  0  0  0  0  0  0
   49.9946    6.1957   22.7018 C   0  0  0  0  0  0  0  0  0  0  0  0
   50.0179    6.4787   21.3499 C   0  0  0  0  0  0  0  0  0  0  0  0
   48.8241    6.2331   20.6483 N   0  0  0  0  0  0  0  0  0  0  0  0
   47.7545    5.7369   21.3635 C   0  0  0  0  0  0  0  0  0  0  0  0
   47.8737    5.4845   22.7869 C   0  0  0  0  0  0  0  0  0  0  0  0
   51.2873    6.9621   21.0008 C   0  0  0  0  0  0  0  0  0  0  0  0
   52.0264    6.9660   22.1705 C   0  0  0  0  0  0  0  0  0  0  0  0
   51.2324    6.4989   23.1953 N   0  0  0  0  0  0  0  0  0  0  0  0
   46.6963    5.5489   20.6083 N   0  0  0  0  0  0  0  0  0  0  0  0
   47.0991    5.9408   19.3550 C   0  0  0  0  0  0  0  0  0  0  0  0
   48.4169    6.3793   19.3403 C   0  0  0  0  0  0  0  0  0  0  0  0
   49.2765    6.8868   18.2356 C   0  0  2  0  0  0  0  0  0  0  0  0
   49.4147    8.4249   18.1179 C   0  0  1  0  0  0  0  0  0  0  0  0
   50.0362    8.5491   16.7127 C   0  0  0  0  0  0  0  0  0  0  0  0
   49.4912    7.4344   15.9525 N   0  0  0  0  0  0  0  0  0  0  0  0
   48.8308    6.4792   16.8253 C   0  0  0  0  0  0  0  0  0  0  0  0
   48.1013    9.2358   18.1897 C   0  0  0  0  0  0  0  0  0  0  0  0
   47.7293    9.6581   19.6057 C   0  0  0  0  0  0  0  0  0  0  0  0
   49.4354    7.2897   14.5917 C   0  0  0  0  0  0  0  0  0  0  0  0
   50.1091    8.2496   13.8873 N   0  0  0  0  0  0  0  0  0  0  0  0
   48.8238    6.3798   14.0415 O   0  0  0  0  0  0  0  0  0  0  0  0
   50.1760    8.1539   12.4273 C   0  0  0  0  0  0  0  0  0  0  0  0
   50.7756    9.3761   11.7423 C   0  0  0  0  0  0  0  0  0  0  0  0
   50.0188   10.4790   11.9308 F   0  0  0  0  0  0  0  0  0  0  0  0
   52.0109    9.6391   12.2332 F   0  0  0  0  0  0  0  0  0  0  0  0
   50.8981    9.1808   10.4113 F   0  0  0  0  0  0  0  0  0  0  0  0
   47.7626    7.6903   23.1241 N   0  0  0  0  0  0  0  0  0  0  0  0
   48.7230    6.8377   22.6707 C   0  0  0  0  0  0  0  0  0  0  0  0
   49.2074    6.6668   21.3878 C   0  0  0  0  0  0  0  0  0  0  0  0
   48.6318    7.4844   20.3974 N   0  0  0  0  0  0  0  0  0  0  0  0
   47.6592    8.3780   20.7969 C   0  0  0  0  0  0  0  0  0  0  0  0
   47.2472    8.4486   22.1857 C   0  0  0  0  0  0  0  0  0  0  0  0
   50.2065    5.6816   21.4019 C   0  0  0  0  0  0  0  0  0  0  0  0
   50.3065    5.2593   22.7157 C   0  0  0  0  0  0  0  0  0  0  0  0
   49.4013    5.9665   23.4758 N   0  0  0  0  0  0  0  0  0  0  0  0
   47.2051    9.1004   19.7983 N   0  0  0  0  0  0  0  0  0  0  0  0
   47.9121    8.6566   18.7092 C   0  0  0  0  0  0  0  0  0  0  0  0
   48.7995    7.6390   19.0377 C   0  0  0  0  0  0  0  0  0  0  0  0
   49.7462    6.8438   18.1839 C   0  0  2  0  0  0  0  0  0  0  0  0
   51.0602    7.5772   17.8338 C   0  0  1  0  0  0  0  0  0  0  0  0
   50.6871    8.4082   16.6019 C   0  0  0  0  0  0  0  0  0  0  0  0
   49.6322    7.6524   15.9449 N   0  0  0  0  0  0  0  0  0  0  0  0
   49.1688    6.5548   16.7854 C   0  0  0  0  0  0  0  0  0  0  0  0
   51.7133    8.3834   18.9593 C   0  0  0  0  0  0  0  0  0  0  0  0
   53.0540    8.9771   18.5480 C   0  0  0  0  0  0  0  0  0  0  0  0
   49.2992    7.9224   14.6437 C   0  0  0  0  0  0  0  0  0  0  0  0
   48.3407    7.1048   14.1076 N   0  0  0  0  0  0  0  0  0  0  0  0
   49.8358    8.8097   13.9885 O   0  0  0  0  0  0  0  0  0  0  0  0
   47.8324    7.3822   12.7623 C   0  0  0  0  0  0  0  0  0  0  0  0
   46.7863    8.4973   12.6811 C   0  0  0  0  0  0  0  0  0  0  0  0
   47.2636    9.7063   13.0305 F   0  0  0  0  0  0  0  0  0  0  0  0
   45.7404    8.2148   13.4977 F   0  0  0  0  0  0  0  0  0  0  0  0
   46.2941    8.5941   11.4238 F   0  0  0  0  0  0  0  0  0  0  0  0
   49.5945    7.7236   17.2610 H   0  0  0  0  0  0  0  0  0  0  0  0
   49.5924    7.3455   18.7403 H   0  0  0  0  0  0  0  0  0  0  0  0
   46.9932    5.0880   23.3175 H   0  0  0  0  0  0  0  0  0  0  0  0
   51.6566    7.2747   20.0348 H   0  0  0  0  0  0  0  0  0  0  0  0
   53.0498    7.2582   22.3658 H   0  0  0  0  0  0  0  0  0  0  0  0
   51.5032    6.3891   24.1630 H   0  0  0  0  0  0  0  0  0  0  0  0
   46.4092    5.8901   18.5206 H   0  0  0  0  0  0  0  0  0  0  0  0
   50.2842    6.4672   18.3656 H   0  0  0  0  0  0  0  0  0  0  0  0
   50.1154    8.8236   18.8602 H   0  0  0  0  0  0  0  0  0  0  0  0
   49.8353    9.5038   16.2176 H   0  0  0  0  0  0  0  0  0  0  0  0
   51.1221    8.4055   16.7599 H   0  0  0  0  0  0  0  0  0  0  0  0
   47.7511    6.5727   16.6642 H   0  0  0  0  0  0  0  0  0  0  0  0
   49.1297    5.4571   16.5687 H   0  0  0  0  0  0  0  0  0  0  0  0
   48.2132   10.1593   17.6080 H   0  0  0  0  0  0  0  0  0  0  0  0
   47.2674    8.6871   17.7389 H   0  0  0  0  0  0  0  0  0  0  0  0
   46.8438   10.3019   19.5812 H   0  0  0  0  0  0  0  0  0  0  0  0
   48.5417   10.2257   20.0709 H   0  0  0  0  0  0  0  0  0  0  0  0
   47.4965    8.8071   20.2471 H   0  0  0  0  0  0  0  0  0  0  0  0
   50.9341    8.6060   14.3485 H   0  0  0  0  0  0  0  0  0  0  0  0
   49.1646    7.9765   12.0451 H   0  0  0  0  0  0  0  0  0  0  0  0
   50.7778    7.2691   12.1908 H   0  0  0  0  0  0  0  0  0  0  0  0
   46.4638    9.1747   22.4565 H   0  0  0  0  0  0  0  0  0  0  0  0
   50.8077    5.3042   20.5872 H   0  0  0  0  0  0  0  0  0  0  0  0
   50.9460    4.5197   23.1795 H   0  0  0  0  0  0  0  0  0  0  0  0
   49.2520    5.8756   24.4714 H   0  0  0  0  0  0  0  0  0  0  0  0
   47.7419    9.0917   17.7305 H   0  0  0  0  0  0  0  0  0  0  0  0
   49.9513    5.8842   18.6644 H   0  0  0  0  0  0  0  0  0  0  0  0
   51.7753    6.8071   17.5068 H   0  0  0  0  0  0  0  0  0  0  0  0
   50.2832    9.3920   16.8653 H   0  0  0  0  0  0  0  0  0  0  0  0
   51.5369    8.5491   15.9258 H   0  0  0  0  0  0  0  0  0  0  0  0
   48.0779    6.4732   16.7677 H   0  0  0  0  0  0  0  0  0  0  0  0
   49.5943    5.6329   16.3714 H   0  0  0  0  0  0  0  0  0  0  0  0
   51.0598    9.2002   19.2855 H   0  0  0  0  0  0  0  0  0  0  0  0
   51.8749    7.7322   19.8254 H   0  0  0  0  0  0  0  0  0  0  0  0
   53.5108    9.4971   19.3960 H   0  0  0  0  0  0  0  0  0  0  0  0
   52.9377    9.7006   17.7354 H   0  0  0  0  0  0  0  0  0  0  0  0
   53.7454    8.1951   18.2186 H   0  0  0  0  0  0  0  0  0  0  0  0
   47.6724    6.7258   14.7604 H   0  0  0  0  0  0  0  0  0  0  0  0
   47.3864    6.4472   12.4075 H   0  0  0  0  0  0  0  0  0  0  0  0
   48.6754    7.6205   12.1047 H   0  0  0  0  0  0  0  0  0  0  0  0
  2  3  1  0
  4  5  1  0
  6  7  1  0
  7  2  2  0
  3 10  1  0
  3  4  2  0
  4  8  1  0
  8  9  2  0
  9 10  1  0
  5 13  1  0
  5  6  1  0
  6 11  2  0
 11 12  1  0
 12 13  2  0
 14 13  1  0
 14 15  1  0
 14 18  1  0
 15 16  1  0
 16 17  1  0
 17 18  1  0
 15 19  1  0
 19 20  1  0
 17 21  1  0
 21 22  1  0
 21 23  2  0
 22 24  1  0
 24 25  1  0
 25 26  1  0
 25 27  1  0
 25 28  1  0
 29 30  1  0
 31 32  1  0
 33 34  1  0
 34 29  2  0
 30 37  1  0
 30 31  2  0
 31 35  1  0
 35 36  2  0
 36 37  1  0
 32 40  1  0
 32 33  1  0
 33 38  2  0
 38 39  1  0
 39 40  2  0
 41 40  1  0
 41 42  1  0
 41 45  1  0
 42 43  1  0
 43 44  1  0
 44 45  1  0
 42 46  1  0
 46 47  1  0
 44 48  1  0
 48 49  1  0
 48 50  2  0
 49 51  1  0
 51 52  1  0
 52 53  1  0
 52 54  1  0
 52 55  1  0
  1 56  1  0
  1 57  1  0
  7 58  1  0
  8 59  1  0
  9 60  1  0
 10 61  1  0
 12 62  1  0
 14 63  1  1
 15 64  1  1
 16 65  1  0
 16 66  1  0
 18 67  1  0
 18 68  1  0
 19 69  1  0
 19 70  1  0
 20 71  1  0
 20 72  1  0
 20 73  1  0
 22 74  1  0
 24 75  1  0
 24 76  1  0
 34 77  1  0
 35 78  1  0
 36 79  1  0
 37 80  1  0
 39 81  1  0
 41 82  1  6
 42 83  1  6
 43 84  1  0
 43 85  1  0
 45 86  1  0
 45 87  1  0
 46 88  1  0
 46 89  1  0
 47 90  1  0
 47 91  1  0
 47 92  1  0
 49 93  1  0
 51 94  1  0
 51 95  1  0
M  END
> <Uni-Dock RESULT> 
ENERGY=   -4.173  LOWER_BOUND=    3.641  UPPER_BOUND=    5.798
INTER + INTRA:          -4.173
INTER:                  -4.173
INTRA:                   0.000
UNBOUND:                 0.000

$$$$
