
     RDKit          3D

 95100  0  0  0  0  0  0  0  0999 V2000
   47.9584    8.5352   12.1361 O   0  0  0  0  0  0  0  0  0  0  0  0
   51.9545   11.6272   10.2441 N   0  0  0  0  0  0  0  0  0  0  0  0
   50.8645   12.1126   10.8999 C   0  0  0  0  0  0  0  0  0  0  0  0
   49.8722   11.4287   11.5781 C   0  0  0  0  0  0  0  0  0  0  0  0
   49.9964   10.0254   11.6022 N   0  0  0  0  0  0  0  0  0  0  0  0
   51.0680    9.4733   10.9303 C   0  0  0  0  0  0  0  0  0  0  0  0
   52.0393   10.3186   10.2634 C   0  0  0  0  0  0  0  0  0  0  0  0
   48.9389   12.3523   12.0736 C   0  0  0  0  0  0  0  0  0  0  0  0
   49.3949   13.6011   11.6893 C   0  0  0  0  0  0  0  0  0  0  0  0
   50.5643   13.4431   10.9799 N   0  0  0  0  0  0  0  0  0  0  0  0
   51.0592    8.1609   10.9685 N   0  0  0  0  0  0  0  0  0  0  0  0
   49.9383    7.8522   11.6963 C   0  0  0  0  0  0  0  0  0  0  0  0
   49.2761    8.9847   12.1537 C   0  0  0  0  0  0  0  0  0  0  0  0
   48.0457    9.1441   13.0014 C   0  0  2  0  0  0  0  0  0  0  0  0
   47.9607    8.2422   14.2532 C   0  0  1  0  0  0  0  0  0  0  0  0
   47.3398    6.9423   13.7356 C   0  0  0  0  0  0  0  0  0  0  0  0
   46.5515    7.3392   12.5781 N   0  0  0  0  0  0  0  0  0  0  0  0
   46.7799    8.7363   12.2320 C   0  0  0  0  0  0  0  0  0  0  0  0
   49.2314    8.0239   15.0767 C   0  0  0  0  0  0  0  0  0  0  0  0
   49.8099    9.3198   15.6264 C   0  0  0  0  0  0  0  0  0  0  0  0
   45.7367    6.5600   11.8011 C   0  0  0  0  0  0  0  0  0  0  0  0
   45.6396    5.2515   12.1931 N   0  0  0  0  0  0  0  0  0  0  0  0
   45.1534    6.9855   10.8097 O   0  0  0  0  0  0  0  0  0  0  0  0
   44.6940    4.3670   11.5091 C   0  0  0  0  0  0  0  0  0  0  0  0
   43.2373    4.5108   11.9585 C   0  0  0  0  0  0  0  0  0  0  0  0
   42.4639    3.5705   11.3684 F   0  0  0  0  0  0  0  0  0  0  0  0
   42.7051    5.7148   11.6757 F   0  0  0  0  0  0  0  0  0  0  0  0
   43.1425    4.3231   13.2992 F   0  0  0  0  0  0  0  0  0  0  0  0
   52.4027   12.0401   11.6720 N   0  0  0  0  0  0  0  0  0  0  0  0
   51.0664   12.2355   11.4934 C   0  0  0  0  0  0  0  0  0  0  0  0
   50.0255   11.3389   11.6375 C   0  0  0  0  0  0  0  0  0  0  0  0
   50.3832   10.0356   12.0252 N   0  0  0  0  0  0  0  0  0  0  0  0
   51.7227    9.7740   12.2227 C   0  0  0  0  0  0  0  0  0  0  0  0
   52.7124   10.8170   12.0325 C   0  0  0  0  0  0  0  0  0  0  0  0
   48.8151   11.9859   11.3488 C   0  0  0  0  0  0  0  0  0  0  0  0
   49.1494   13.2902   11.0298 C   0  0  0  0  0  0  0  0  0  0  0  0
   50.5172   13.4296   11.1191 N   0  0  0  0  0  0  0  0  0  0  0  0
   51.9376    8.5290   12.5830 N   0  0  0  0  0  0  0  0  0  0  0  0
   50.6858    7.9668   12.6261 C   0  0  0  0  0  0  0  0  0  0  0  0
   49.6906    8.8725   12.2839 C   0  0  0  0  0  0  0  0  0  0  0  0
   48.2121    8.7257   12.1786 C   0  0  2  0  0  0  0  0  0  0  0  0
   47.3801    9.2099   13.3904 C   0  0  1  0  0  0  0  0  0  0  0  0
   46.0148    8.5774   13.0636 C   0  0  0  0  0  0  0  0  0  0  0  0
   46.3248    7.3220   12.4030 N   0  0  0  0  0  0  0  0  0  0  0  0
   47.7142    7.2872   11.9723 C   0  0  0  0  0  0  0  0  0  0  0  0
   47.8644    8.7453   14.7807 C   0  0  0  0  0  0  0  0  0  0  0  0
   48.8541    9.7069   15.4272 C   0  0  0  0  0  0  0  0  0  0  0  0
   45.3323    6.4252   12.1077 C   0  0  0  0  0  0  0  0  0  0  0  0
   45.7588    5.2869   11.4775 N   0  0  0  0  0  0  0  0  0  0  0  0
   44.1504    6.6280   12.3611 O   0  0  0  0  0  0  0  0  0  0  0  0
   44.8008    4.2125   11.2091 C   0  0  0  0  0  0  0  0  0  0  0  0
   44.4748    3.3157   12.4069 C   0  0  0  0  0  0  0  0  0  0  0  0
   43.8425    3.9613   13.4054 F   0  0  0  0  0  0  0  0  0  0  0  0
   43.6917    2.2796   12.0228 F   0  0  0  0  0  0  0  0  0  0  0  0
   45.6153    2.7852   12.9162 F   0  0  0  0  0  0  0  0  0  0  0  0
   47.6978    7.9147   12.8331 H   0  0  0  0  0  0  0  0  0  0  0  0
   48.5605    9.1487   12.5835 H   0  0  0  0  0  0  0  0  0  0  0  0
   52.8837    9.8304    9.7512 H   0  0  0  0  0  0  0  0  0  0  0  0
   48.0302   12.1797   12.6321 H   0  0  0  0  0  0  0  0  0  0  0  0
   48.9859   14.5897   11.8511 H   0  0  0  0  0  0  0  0  0  0  0  0
   51.1192   14.1793   10.5664 H   0  0  0  0  0  0  0  0  0  0  0  0
   49.6722    6.8164   11.8659 H   0  0  0  0  0  0  0  0  0  0  0  0
   47.9579   10.1810   13.3291 H   0  0  0  0  0  0  0  0  0  0  0  0
   47.2138    8.7021   14.9197 H   0  0  0  0  0  0  0  0  0  0  0  0
   48.0839    6.2057   13.4167 H   0  0  0  0  0  0  0  0  0  0  0  0
   46.6941    6.4797   14.4893 H   0  0  0  0  0  0  0  0  0  0  0  0
   46.8539    8.8698   11.1473 H   0  0  0  0  0  0  0  0  0  0  0  0
   45.9097    9.2986   12.5925 H   0  0  0  0  0  0  0  0  0  0  0  0
   48.9933    7.3655   15.9213 H   0  0  0  0  0  0  0  0  0  0  0  0
   49.9982    7.5031   14.4941 H   0  0  0  0  0  0  0  0  0  0  0  0
   50.1425    9.9847   14.8250 H   0  0  0  0  0  0  0  0  0  0  0  0
   50.6757    9.1059   16.2617 H   0  0  0  0  0  0  0  0  0  0  0  0
   49.0710    9.8542   16.2315 H   0  0  0  0  0  0  0  0  0  0  0  0
   45.7835    5.0734   13.1746 H   0  0  0  0  0  0  0  0  0  0  0  0
   45.0318    3.3452   11.7127 H   0  0  0  0  0  0  0  0  0  0  0  0
   44.7642    4.5354   10.4288 H   0  0  0  0  0  0  0  0  0  0  0  0
   53.7708   10.5632   12.2014 H   0  0  0  0  0  0  0  0  0  0  0  0
   47.8092   11.5903   11.3569 H   0  0  0  0  0  0  0  0  0  0  0  0
   48.5331   14.1333   10.7456 H   0  0  0  0  0  0  0  0  0  0  0  0
   51.0473   14.2725   10.9428 H   0  0  0  0  0  0  0  0  0  0  0  0
   50.5678    6.9277   12.9085 H   0  0  0  0  0  0  0  0  0  0  0  0
   47.8753    9.2870   11.2959 H   0  0  0  0  0  0  0  0  0  0  0  0
   47.2799   10.3008   13.3983 H   0  0  0  0  0  0  0  0  0  0  0  0
   45.3728    8.4101   13.9340 H   0  0  0  0  0  0  0  0  0  0  0  0
   45.4635    9.1990   12.3472 H   0  0  0  0  0  0  0  0  0  0  0  0
   48.2317    6.5528   12.5981 H   0  0  0  0  0  0  0  0  0  0  0  0
   47.7901    6.9702   10.9272 H   0  0  0  0  0  0  0  0  0  0  0  0
   48.3008    7.7414   14.7361 H   0  0  0  0  0  0  0  0  0  0  0  0
   47.0051    8.6784   15.4595 H   0  0  0  0  0  0  0  0  0  0  0  0
   49.0816    9.3761   16.4458 H   0  0  0  0  0  0  0  0  0  0  0  0
   49.7980    9.7608   14.8826 H   0  0  0  0  0  0  0  0  0  0  0  0
   48.4361   10.7162   15.4910 H   0  0  0  0  0  0  0  0  0  0  0  0
   46.6974    4.9969   11.7086 H   0  0  0  0  0  0  0  0  0  0  0  0
   45.2455    3.6010   10.4168 H   0  0  0  0  0  0  0  0  0  0  0  0
   43.8769    4.6497   10.8151 H   0  0  0  0  0  0  0  0  0  0  0  0
  2  3  1  0
  4  5  1  0
  6  7  1  0
  7  2  2  0
  3 10  1  0
  3  4  2  0
  4  8  1  0
  8  9  2  0
  9 10  1  0
  5 13  1  0
  5  6  1  0
  6 11  2  0
 11 12  1  0
 12 13  2  0
 14 13  1  0
 14 15  1  0
 14 18  1  0
 15 16  1  0
 16 17  1  0
 17 18  1  0
 15 19  1  0
 19 20  1  0
 17 21  1  0
 21 22  1  0
 21 23  2  0
 22 24  1  0
 24 25  1  0
 25 26  1  0
 25 27  1  0
 25 28  1  0
 29 30  1  0
 31 32  1  0
 33 34  1  0
 34 29  2  0
 30 37  1  0
 30 31  2  0
 31 35  1  0
 35 36  2  0
 36 37  1  0
 32 40  1  0
 32 33  1  0
 33 38  2  0
 38 39  1  0
 39 40  2  0
 41 40  1  0
 41 42  1  0
 41 45  1  0
 42 43  1  0
 43 44  1  0
 44 45  1  0
 42 46  1  0
 46 47  1  0
 44 48  1  0
 48 49  1  0
 48 50  2  0
 49 51  1  0
 51 52  1  0
 52 53  1  0
 52 54  1  0
 52 55  1  0
  1 56  1  0
  1 57  1  0
  7 58  1  0
  8 59  1  0
  9 60  1  0
 10 61  1  0
 12 62  1  0
 14 63  1  6
 15 64  1  6
 16 65  1  0
 16 66  1  0
 18 67  1  0
 18 68  1  0
 19 69  1  0
 19 70  1  0
 20 71  1  0
 20 72  1  0
 20 73  1  0
 22 74  1  0
 24 75  1  0
 24 76  1  0
 34 77  1  0
 35 78  1  0
 36 79  1  0
 37 80  1  0
 39 81  1  0
 41 82  1  6
 42 83  1  6
 43 84  1  0
 43 85  1  0
 45 86  1  0
 45 87  1  0
 46 88  1  0
 46 89  1  0
 47 90  1  0
 47 91  1  0
 47 92  1  0
 49 93  1  0
 51 94  1  0
 51 95  1  0
M  END
> <Uni-Dock RESULT> 
ENERGY=   -7.083  LOWER_BOUND=    0.000  UPPER_BOUND=    0.000
INTER + INTRA:          -7.083
INTER:                  -7.083
INTRA:                   0.000
UNBOUND:                 0.000

$$$$

     RDKit          3D

 95100  0  0  0  0  0  0  0  0999 V2000
   47.6293    8.7407   13.2164 O   0  0  0  0  0  0  0  0  0  0  0  0
   48.6707   13.7937   14.7949 N   0  0  0  0  0  0  0  0  0  0  0  0
   49.0305   12.6878   15.5030 C   0  0  0  0  0  0  0  0  0  0  0  0
   48.9816   11.3559   15.1344 C   0  0  0  0  0  0  0  0  0  0  0  0
   48.4911   11.0917   13.8402 N   0  0  0  0  0  0  0  0  0  0  0  0
   48.0847   12.1727   13.0846 C   0  0  0  0  0  0  0  0  0  0  0  0
   48.1996   13.5227   13.6012 C   0  0  0  0  0  0  0  0  0  0  0  0
   49.4347   10.5697   16.2050 C   0  0  0  0  0  0  0  0  0  0  0  0
   49.7652   11.4541   17.2166 C   0  0  0  0  0  0  0  0  0  0  0  0
   49.5177   12.7357   16.7785 N   0  0  0  0  0  0  0  0  0  0  0  0
   47.5949   11.8128   11.9207 N   0  0  0  0  0  0  0  0  0  0  0  0
   47.6907   10.4445   11.9231 C   0  0  0  0  0  0  0  0  0  0  0  0
   48.2905    9.9582   13.0780 C   0  0  0  0  0  0  0  0  0  0  0  0
   48.6340    8.5601   13.5084 C   0  0  2  0  0  0  0  0  0  0  0  0
   49.3072    7.6665   12.4426 C   0  0  1  0  0  0  0  0  0  0  0  0
   48.1340    7.0565   11.6714 C   0  0  0  0  0  0  0  0  0  0  0  0
   47.0305    7.0403   12.6204 N   0  0  0  0  0  0  0  0  0  0  0  0
   47.3712    7.7526   13.8453 C   0  0  0  0  0  0  0  0  0  0  0  0
   50.3701    8.2930   11.5380 C   0  0  0  0  0  0  0  0  0  0  0  0
   51.5538    8.8510   12.3148 C   0  0  0  0  0  0  0  0  0  0  0  0
   45.7746    6.5222   12.4499 C   0  0  0  0  0  0  0  0  0  0  0  0
   45.5545    5.9214   11.2391 N   0  0  0  0  0  0  0  0  0  0  0  0
   44.8959    6.6076   13.3013 O   0  0  0  0  0  0  0  0  0  0  0  0
   44.2893    5.2222   11.0057 C   0  0  0  0  0  0  0  0  0  0  0  0
   44.2089    3.8176   11.6102 C   0  0  0  0  0  0  0  0  0  0  0  0
   43.0623    3.2050   11.2355 F   0  0  0  0  0  0  0  0  0  0  0  0
   44.2563    3.8094   12.9558 F   0  0  0  0  0  0  0  0  0  0  0  0
   45.2363    3.0557   11.1571 F   0  0  0  0  0  0  0  0  0  0  0  0
   50.2026   13.6014   14.6317 N   0  0  0  0  0  0  0  0  0  0  0  0
   49.6535   12.6087   15.3859 C   0  0  0  0  0  0  0  0  0  0  0  0
   49.0509   11.4341   14.9790 C   0  0  0  0  0  0  0  0  0  0  0  0
   48.9909   11.2205   13.5906 N   0  0  0  0  0  0  0  0  0  0  0  0
   49.5309   12.1901   12.7721 C   0  0  0  0  0  0  0  0  0  0  0  0
   50.1343   13.3805   13.3400 C   0  0  0  0  0  0  0  0  0  0  0  0
   48.6319   10.7147   16.1076 C   0  0  0  0  0  0  0  0  0  0  0  0
   48.9964   11.4799   17.2014 C   0  0  0  0  0  0  0  0  0  0  0  0
   49.6135   12.6268   16.7517 N   0  0  0  0  0  0  0  0  0  0  0  0
   49.4201   11.8837   11.4994 N   0  0  0  0  0  0  0  0  0  0  0  0
   48.7892   10.6644   11.4971 C   0  0  0  0  0  0  0  0  0  0  0  0
   48.5038   10.2176   12.7804 C   0  0  0  0  0  0  0  0  0  0  0  0
   47.8309    8.9831   13.2721 C   0  0  2  0  0  0  0  0  0  0  0  0
   48.7528    7.8314   13.7400 C   0  0  1  0  0  0  0  0  0  0  0  0
   47.7405    6.6734   13.8113 C   0  0  0  0  0  0  0  0  0  0  0  0
   46.7948    6.9275   12.7391 N   0  0  0  0  0  0  0  0  0  0  0  0
   46.9103    8.2942   12.2534 C   0  0  0  0  0  0  0  0  0  0  0  0
   49.9187    7.4639   12.7972 C   0  0  0  0  0  0  0  0  0  0  0  0
   51.1983    8.2378   13.0899 C   0  0  0  0  0  0  0  0  0  0  0  0
   45.8371    6.0017   12.4194 C   0  0  0  0  0  0  0  0  0  0  0  0
   45.0049    6.3695   11.3962 N   0  0  0  0  0  0  0  0  0  0  0  0
   45.7118    4.9366   13.0128 O   0  0  0  0  0  0  0  0  0  0  0  0
   44.0121    5.4148   10.8993 C   0  0  0  0  0  0  0  0  0  0  0  0
   44.5559    4.3447    9.9482 C   0  0  0  0  0  0  0  0  0  0  0  0
   45.4320    3.5036   10.5299 F   0  0  0  0  0  0  0  0  0  0  0  0
   43.5424    3.6020    9.4427 F   0  0  0  0  0  0  0  0  0  0  0  0
   45.1828    4.9305    8.8969 F   0  0  0  0  0  0  0  0  0  0  0  0
   47.8816    8.0330   12.6046 H   0  0  0  0  0  0  0  0  0  0  0  0
   48.4650    9.1931   13.4066 H   0  0  0  0  0  0  0  0  0  0  0  0
   47.8730   14.3528   12.9548 H   0  0  0  0  0  0  0  0  0  0  0  0
   49.5163    9.4951   16.2831 H   0  0  0  0  0  0  0  0  0  0  0  0
   50.1478   11.2846   18.2144 H   0  0  0  0  0  0  0  0  0  0  0  0
   49.6559   13.5869   17.3051 H   0  0  0  0  0  0  0  0  0  0  0  0
   47.3301    9.8760   11.0751 H   0  0  0  0  0  0  0  0  0  0  0  0
   49.2904    8.5952   14.3791 H   0  0  0  0  0  0  0  0  0  0  0  0
   49.7880    6.8385   12.9873 H   0  0  0  0  0  0  0  0  0  0  0  0
   47.8372    7.6472   10.7991 H   0  0  0  0  0  0  0  0  0  0  0  0
   48.3598    6.0375   11.3402 H   0  0  0  0  0  0  0  0  0  0  0  0
   46.5316    8.3621   14.1970 H   0  0  0  0  0  0  0  0  0  0  0  0
   47.5894    6.9914   14.6045 H   0  0  0  0  0  0  0  0  0  0  0  0
   50.7403    7.5249   10.8476 H   0  0  0  0  0  0  0  0  0  0  0  0
   49.9433    9.0826   10.9110 H   0  0  0  0  0  0  0  0  0  0  0  0
   51.2563    9.6800   12.9623 H   0  0  0  0  0  0  0  0  0  0  0  0
   52.3150    9.2262   11.6230 H   0  0  0  0  0  0  0  0  0  0  0  0
   52.0149    8.0777   12.9371 H   0  0  0  0  0  0  0  0  0  0  0  0
   46.3665    5.5331   10.7855 H   0  0  0  0  0  0  0  0  0  0  0  0
   44.1777    5.1504    9.9185 H   0  0  0  0  0  0  0  0  0  0  0  0
   43.4660    5.8353   11.3886 H   0  0  0  0  0  0  0  0  0  0  0  0
   50.5531   14.1286   12.6487 H   0  0  0  0  0  0  0  0  0  0  0  0
   48.1247    9.7617   16.1619 H   0  0  0  0  0  0  0  0  0  0  0  0
   48.8702   11.3093   18.2628 H   0  0  0  0  0  0  0  0  0  0  0  0
   49.9861   13.3720   17.3249 H   0  0  0  0  0  0  0  0  0  0  0  0
   48.5754   10.1665   10.5591 H   0  0  0  0  0  0  0  0  0  0  0  0
   47.1856    9.2595   14.1175 H   0  0  0  0  0  0  0  0  0  0  0  0
   49.1553    8.0211   14.7411 H   0  0  0  0  0  0  0  0  0  0  0  0
   48.1833    5.6776   13.7108 H   0  0  0  0  0  0  0  0  0  0  0  0
   47.1837    6.7057   14.7560 H   0  0  0  0  0  0  0  0  0  0  0  0
   47.3337    8.2476   11.2448 H   0  0  0  0  0  0  0  0  0  0  0  0
   45.9268    8.7719   12.1970 H   0  0  0  0  0  0  0  0  0  0  0  0
   49.6390    7.5972   11.7463 H   0  0  0  0  0  0  0  0  0  0  0  0
   50.1615    6.4010   12.9193 H   0  0  0  0  0  0  0  0  0  0  0  0
   52.0110    7.8635   12.4588 H   0  0  0  0  0  0  0  0  0  0  0  0
   51.0940    9.3052   12.8896 H   0  0  0  0  0  0  0  0  0  0  0  0
   51.5029    8.1122   14.1334 H   0  0  0  0  0  0  0  0  0  0  0  0
   45.4196    6.9780   10.7060 H   0  0  0  0  0  0  0  0  0  0  0  0
   43.2574    6.0088   10.3730 H   0  0  0  0  0  0  0  0  0  0  0  0
   43.5229    4.9333   11.7530 H   0  0  0  0  0  0  0  0  0  0  0  0
  2  3  1  0
  4  5  1  0
  6  7  1  0
  7  2  2  0
  3 10  1  0
  3  4  2  0
  4  8  1  0
  8  9  2  0
  9 10  1  0
  5 13  1  0
  5  6  1  0
  6 11  2  0
 11 12  1  0
 12 13  2  0
 14 13  1  0
 14 15  1  0
 14 18  1  0
 15 16  1  0
 16 17  1  0
 17 18  1  0
 15 19  1  0
 19 20  1  0
 17 21  1  0
 21 22  1  0
 21 23  2  0
 22 24  1  0
 24 25  1  0
 25 26  1  0
 25 27  1  0
 25 28  1  0
 29 30  1  0
 31 32  1  0
 33 34  1  0
 34 29  2  0
 30 37  1  0
 30 31  2  0
 31 35  1  0
 35 36  2  0
 36 37  1  0
 32 40  1  0
 32 33  1  0
 33 38  2  0
 38 39  1  0
 39 40  2  0
 41 40  1  0
 41 42  1  0
 41 45  1  0
 42 43  1  0
 43 44  1  0
 44 45  1  0
 42 46  1  0
 46 47  1  0
 44 48  1  0
 48 49  1  0
 48 50  2  0
 49 51  1  0
 51 52  1  0
 52 53  1  0
 52 54  1  0
 52 55  1  0
  1 56  1  0
  1 57  1  0
  7 58  1  0
  8 59  1  0
  9 60  1  0
 10 61  1  0
 12 62  1  0
 14 63  1  6
 15 64  1  6
 16 65  1  0
 16 66  1  0
 18 67  1  0
 18 68  1  0
 19 69  1  0
 19 70  1  0
 20 71  1  0
 20 72  1  0
 20 73  1  0
 22 74  1  0
 24 75  1  0
 24 76  1  0
 34 77  1  0
 35 78  1  0
 36 79  1  0
 37 80  1  0
 39 81  1  0
 41 82  1  6
 42 83  1  6
 43 84  1  0
 43 85  1  0
 45 86  1  0
 45 87  1  0
 46 88  1  0
 46 89  1  0
 47 90  1  0
 47 91  1  0
 47 92  1  0
 49 93  1  0
 51 94  1  0
 51 95  1  0
M  END
> <Uni-Dock RESULT> 
ENERGY=   -6.496  LOWER_BOUND=    2.039  UPPER_BOUND=    3.443
INTER + INTRA:          -6.496
INTER:                  -6.496
INTRA:                   0.000
UNBOUND:                 0.000

$$$$

     RDKit          3D

 95100  0  0  0  0  0  0  0  0999 V2000
   48.4457    7.5454   14.1363 O   0  0  0  0  0  0  0  0  0  0  0  0
   51.4785    9.9026   17.9250 N   0  0  0  0  0  0  0  0  0  0  0  0
   51.9351    8.9397   17.0776 C   0  0  0  0  0  0  0  0  0  0  0  0
   51.3246    8.3877   15.9665 C   0  0  0  0  0  0  0  0  0  0  0  0
   50.0442    8.8865   15.6546 N   0  0  0  0  0  0  0  0  0  0  0  0
   49.5170    9.8460   16.4949 C   0  0  0  0  0  0  0  0  0  0  0  0
   50.2780   10.3383   17.6268 C   0  0  0  0  0  0  0  0  0  0  0  0
   52.1695    7.4088   15.4210 C   0  0  0  0  0  0  0  0  0  0  0  0
   53.3003    7.3916   16.2185 C   0  0  0  0  0  0  0  0  0  0  0  0
   53.1474    8.3255   17.2186 N   0  0  0  0  0  0  0  0  0  0  0  0
   48.3017   10.2012   16.1473 N   0  0  0  0  0  0  0  0  0  0  0  0
   48.0334    9.4426   15.0365 C   0  0  0  0  0  0  0  0  0  0  0  0
   49.1111    8.6481   14.6655 C   0  0  0  0  0  0  0  0  0  0  0  0
   49.2967    7.6945   13.5192 C   0  0  2  0  0  0  0  0  0  0  0  0
   48.8246    8.1943   12.1355 C   0  0  1  0  0  0  0  0  0  0  0  0
   47.3382    7.8307   12.0941 C   0  0  0  0  0  0  0  0  0  0  0  0
   47.2087    6.6843   12.9816 N   0  0  0  0  0  0  0  0  0  0  0  0
   48.4483    6.4269   13.7033 C   0  0  0  0  0  0  0  0  0  0  0  0
   49.1059    9.6493   11.7558 C   0  0  0  0  0  0  0  0  0  0  0  0
   50.5907    9.9833   11.7526 C   0  0  0  0  0  0  0  0  0  0  0  0
   46.0934    5.9317   13.2354 C   0  0  0  0  0  0  0  0  0  0  0  0
   44.9745    6.2990   12.5363 N   0  0  0  0  0  0  0  0  0  0  0  0
   46.0790    5.0117   14.0463 O   0  0  0  0  0  0  0  0  0  0  0  0
   43.7656    5.4788   12.6368 C   0  0  0  0  0  0  0  0  0  0  0  0
   43.7728    4.2132   11.7749 C   0  0  0  0  0  0  0  0  0  0  0  0
   42.5722    3.5923   11.8339 F   0  0  0  0  0  0  0  0  0  0  0  0
   44.7131    3.3211   12.1399 F   0  0  0  0  0  0  0  0  0  0  0  0
   43.9932    4.5356   10.4753 F   0  0  0  0  0  0  0  0  0  0  0  0
   52.3855   10.5892   16.8685 N   0  0  0  0  0  0  0  0  0  0  0  0
   52.2695    9.2526   16.6322 C   0  0  0  0  0  0  0  0  0  0  0  0
   51.2869    8.5695   15.9421 C   0  0  0  0  0  0  0  0  0  0  0  0
   50.2545    9.3551   15.3999 N   0  0  0  0  0  0  0  0  0  0  0  0
   50.3151   10.7175   15.6044 C   0  0  0  0  0  0  0  0  0  0  0  0
   51.4109   11.3014   16.3540 C   0  0  0  0  0  0  0  0  0  0  0  0
   51.5815    7.1984   15.9549 C   0  0  0  0  0  0  0  0  0  0  0  0
   52.7621    7.0713   16.6653 C   0  0  0  0  0  0  0  0  0  0  0  0
   53.1691    8.3230   17.0726 N   0  0  0  0  0  0  0  0  0  0  0  0
   49.3027   11.3478   15.0532 N   0  0  0  0  0  0  0  0  0  0  0  0
   48.5629   10.3527   14.4640 C   0  0  0  0  0  0  0  0  0  0  0  0
   49.1219    9.0967   14.6584 C   0  0  0  0  0  0  0  0  0  0  0  0
   48.6830    7.7402   14.2270 C   0  0  2  0  0  0  0  0  0  0  0  0
   49.3566    7.1654   12.9578 C   0  0  1  0  0  0  0  0  0  0  0  0
   48.4166    5.9850   12.6518 C   0  0  0  0  0  0  0  0  0  0  0  0
   47.0974    6.4322   13.0617 N   0  0  0  0  0  0  0  0  0  0  0  0
   47.1855    7.6113   13.9098 C   0  0  0  0  0  0  0  0  0  0  0  0
   49.4393    8.1114   11.7406 C   0  0  0  0  0  0  0  0  0  0  0  0
   50.7167    8.9416   11.7073 C   0  0  0  0  0  0  0  0  0  0  0  0
   45.9881    5.6761   12.7888 C   0  0  0  0  0  0  0  0  0  0  0  0
   44.8089    6.2078   13.2376 N   0  0  0  0  0  0  0  0  0  0  0  0
   46.0402    4.5963   12.2114 O   0  0  0  0  0  0  0  0  0  0  0  0
   43.5484    5.5386   12.9097 C   0  0  0  0  0  0  0  0  0  0  0  0
   43.0205    5.7996   11.4960 C   0  0  0  0  0  0  0  0  0  0  0  0
   43.8156    5.3089   10.5262 F   0  0  0  0  0  0  0  0  0  0  0  0
   41.7920    5.2509   11.3411 F   0  0  0  0  0  0  0  0  0  0  0  0
   42.8898    7.1339   11.2862 F   0  0  0  0  0  0  0  0  0  0  0  0
   48.0335    7.6582   13.2667 H   0  0  0  0  0  0  0  0  0  0  0  0
   49.2661    8.0573   14.0733 H   0  0  0  0  0  0  0  0  0  0  0  0
   49.8182   11.1133   18.2606 H   0  0  0  0  0  0  0  0  0  0  0  0
   52.0148    6.7645   14.5676 H   0  0  0  0  0  0  0  0  0  0  0  0
   54.1987    6.7908   16.1678 H   0  0  0  0  0  0  0  0  0  0  0  0
   53.8086    8.5299   17.9547 H   0  0  0  0  0  0  0  0  0  0  0  0
   47.0699    9.5205   14.5485 H   0  0  0  0  0  0  0  0  0  0  0  0
   50.3499    7.4222   13.4356 H   0  0  0  0  0  0  0  0  0  0  0  0
   49.3232    7.5585   11.3867 H   0  0  0  0  0  0  0  0  0  0  0  0
   46.6878    8.6316   12.4594 H   0  0  0  0  0  0  0  0  0  0  0  0
   47.0207    7.5601   11.0818 H   0  0  0  0  0  0  0  0  0  0  0  0
   48.2524    6.1684   14.7497 H   0  0  0  0  0  0  0  0  0  0  0  0
   48.9258    5.5673   13.2170 H   0  0  0  0  0  0  0  0  0  0  0  0
   48.7078    9.8328   10.7500 H   0  0  0  0  0  0  0  0  0  0  0  0
   48.5799   10.3425   12.4202 H   0  0  0  0  0  0  0  0  0  0  0  0
   51.0254    9.8972   12.7520 H   0  0  0  0  0  0  0  0  0  0  0  0
   50.7444   11.0122   11.4109 H   0  0  0  0  0  0  0  0  0  0  0  0
   51.1414    9.3184   11.0801 H   0  0  0  0  0  0  0  0  0  0  0  0
   45.1367    6.7433   11.6463 H   0  0  0  0  0  0  0  0  0  0  0  0
   42.9357    6.1207   12.3224 H   0  0  0  0  0  0  0  0  0  0  0  0
   43.6030    5.2086   13.6859 H   0  0  0  0  0  0  0  0  0  0  0  0
   51.4187   12.3940   16.4928 H   0  0  0  0  0  0  0  0  0  0  0  0
   51.0314    6.3765   15.5188 H   0  0  0  0  0  0  0  0  0  0  0  0
   53.3497    6.1981   16.9182 H   0  0  0  0  0  0  0  0  0  0  0  0
   53.9985    8.5393   17.6092 H   0  0  0  0  0  0  0  0  0  0  0  0
   47.6581   10.5988   13.9217 H   0  0  0  0  0  0  0  0  0  0  0  0
   48.8739    7.0409   15.0529 H   0  0  0  0  0  0  0  0  0  0  0  0
   50.3595    6.7814   13.1747 H   0  0  0  0  0  0  0  0  0  0  0  0
   48.4115    5.6696   11.6038 H   0  0  0  0  0  0  0  0  0  0  0  0
   48.6760    5.1156   13.2686 H   0  0  0  0  0  0  0  0  0  0  0  0
   46.7867    8.4553   13.3378 H   0  0  0  0  0  0  0  0  0  0  0  0
   46.5814    7.4864   14.8143 H   0  0  0  0  0  0  0  0  0  0  0  0
   48.5677    8.7731   11.6898 H   0  0  0  0  0  0  0  0  0  0  0  0
   49.4292    7.5166   10.8187 H   0  0  0  0  0  0  0  0  0  0  0  0
   50.7629    9.5143   10.7752 H   0  0  0  0  0  0  0  0  0  0  0  0
   50.7713    9.6541   12.5317 H   0  0  0  0  0  0  0  0  0  0  0  0
   51.6026    8.3006   11.7480 H   0  0  0  0  0  0  0  0  0  0  0  0
   44.7803    7.2161   13.2711 H   0  0  0  0  0  0  0  0  0  0  0  0
   42.8144    5.9019   13.6368 H   0  0  0  0  0  0  0  0  0  0  0  0
   43.6670    4.4607   13.0645 H   0  0  0  0  0  0  0  0  0  0  0  0
  2  3  1  0
  4  5  1  0
  6  7  1  0
  7  2  2  0
  3 10  1  0
  3  4  2  0
  4  8  1  0
  8  9  2  0
  9 10  1  0
  5 13  1  0
  5  6  1  0
  6 11  2  0
 11 12  1  0
 12 13  2  0
 14 13  1  0
 14 15  1  0
 14 18  1  0
 15 16  1  0
 16 17  1  0
 17 18  1  0
 15 19  1  0
 19 20  1  0
 17 21  1  0
 21 22  1  0
 21 23  2  0
 22 24  1  0
 24 25  1  0
 25 26  1  0
 25 27  1  0
 25 28  1  0
 29 30  1  0
 31 32  1  0
 33 34  1  0
 34 29  2  0
 30 37  1  0
 30 31  2  0
 31 35  1  0
 35 36  2  0
 36 37  1  0
 32 40  1  0
 32 33  1  0
 33 38  2  0
 38 39  1  0
 39 40  2  0
 41 40  1  0
 41 42  1  0
 41 45  1  0
 42 43  1  0
 43 44  1  0
 44 45  1  0
 42 46  1  0
 46 47  1  0
 44 48  1  0
 48 49  1  0
 48 50  2  0
 49 51  1  0
 51 52  1  0
 52 53  1  0
 52 54  1  0
 52 55  1  0
  1 56  1  0
  1 57  1  0
  7 58  1  0
  8 59  1  0
  9 60  1  0
 10 61  1  0
 12 62  1  0
 14 63  1  6
 15 64  1  6
 16 65  1  0
 16 66  1  0
 18 67  1  0
 18 68  1  0
 19 69  1  0
 19 70  1  0
 20 71  1  0
 20 72  1  0
 20 73  1  0
 22 74  1  0
 24 75  1  0
 24 76  1  0
 34 77  1  0
 35 78  1  0
 36 79  1  0
 37 80  1  0
 39 81  1  0
 41 82  1  6
 42 83  1  6
 43 84  1  0
 43 85  1  0
 45 86  1  0
 45 87  1  0
 46 88  1  0
 46 89  1  0
 47 90  1  0
 47 91  1  0
 47 92  1  0
 49 93  1  0
 51 94  1  0
 51 95  1  0
M  END
> <Uni-Dock RESULT> 
ENERGY=   -6.373  LOWER_BOUND=    2.365  UPPER_BOUND=    4.543
INTER + INTRA:          -6.373
INTER:                  -6.373
INTRA:                   0.000
UNBOUND:                 0.000

$$$$

     RDKit          3D

 95100  0  0  0  0  0  0  0  0999 V2000
   48.8035    8.5765   19.8466 O   0  0  0  0  0  0  0  0  0  0  0  0
   50.8283   13.4362   21.0269 N   0  0  0  0  0  0  0  0  0  0  0  0
   49.4959   13.1698   20.9393 C   0  0  0  0  0  0  0  0  0  0  0  0
   48.8507   11.9526   20.8196 C   0  0  0  0  0  0  0  0  0  0  0  0
   49.6815   10.8151   20.7831 N   0  0  0  0  0  0  0  0  0  0  0  0
   51.0444   11.0248   20.8406 C   0  0  0  0  0  0  0  0  0  0  0  0
   51.5828   12.3648   20.9718 C   0  0  0  0  0  0  0  0  0  0  0  0
   47.4675   12.1757   20.7392 C   0  0  0  0  0  0  0  0  0  0  0  0
   47.2952   13.5462   20.8232 C   0  0  0  0  0  0  0  0  0  0  0  0
   48.5322   14.1382   20.9462 N   0  0  0  0  0  0  0  0  0  0  0  0
   51.7263    9.9070   20.7440 N   0  0  0  0  0  0  0  0  0  0  0  0
   50.7658    8.9355   20.6214 C   0  0  0  0  0  0  0  0  0  0  0  0
   49.4783    9.4526   20.6928 C   0  0  0  0  0  0  0  0  0  0  0  0
   48.1332    8.7847   20.6432 C   0  0  2  0  0  0  0  0  0  0  0  0
   47.9741    7.5110   21.5033 C   0  0  1  0  0  0  0  0  0  0  0  0
   48.4793    6.3840   20.5989 C   0  0  0  0  0  0  0  0  0  0  0  0
   48.2530    6.8626   19.2431 N   0  0  0  0  0  0  0  0  0  0  0  0
   47.8234    8.2551   19.2346 C   0  0  0  0  0  0  0  0  0  0  0  0
   48.5988    7.4969   22.8998 C   0  0  0  0  0  0  0  0  0  0  0  0
   48.0511    8.5917   23.8039 C   0  0  0  0  0  0  0  0  0  0  0  0
   48.4632    6.1980   18.0645 C   0  0  0  0  0  0  0  0  0  0  0  0
   48.9158    4.9123   18.1963 N   0  0  0  0  0  0  0  0  0  0  0  0
   48.2878    6.7149   16.9662 O   0  0  0  0  0  0  0  0  0  0  0  0
   49.0474    4.0731   17.0035 C   0  0  0  0  0  0  0  0  0  0  0  0
   47.7378    3.4597   16.5002 C   0  0  0  0  0  0  0  0  0  0  0  0
   47.9763    2.6036   15.4801 F   0  0  0  0  0  0  0  0  0  0  0  0
   46.8487    4.3738   16.0679 F   0  0  0  0  0  0  0  0  0  0  0  0
   47.1462    2.7462   17.4914 F   0  0  0  0  0  0  0  0  0  0  0  0
   50.2540   13.4006   22.4689 N   0  0  0  0  0  0  0  0  0  0  0  0
   49.2944   13.1202   21.5435 C   0  0  0  0  0  0  0  0  0  0  0  0
   48.9789   11.9132   20.9504 C   0  0  0  0  0  0  0  0  0  0  0  0
   49.7500   10.8083   21.3522 N   0  0  0  0  0  0  0  0  0  0  0  0
   50.7387   11.0271   22.2884 C   0  0  0  0  0  0  0  0  0  0  0  0
   50.9610   12.3550   22.8277 C   0  0  0  0  0  0  0  0  0  0  0  0
   47.9162   12.1022   20.0549 C   0  0  0  0  0  0  0  0  0  0  0  0
   47.5982   13.4472   20.1229 C   0  0  0  0  0  0  0  0  0  0  0  0
   48.4415   14.0548   21.0274 N   0  0  0  0  0  0  0  0  0  0  0  0
   51.3909    9.9267   22.5882 N   0  0  0  0  0  0  0  0  0  0  0  0
   50.7946    8.9581   21.8194 C   0  0  0  0  0  0  0  0  0  0  0  0
   49.7688    9.4673   21.0345 C   0  0  0  0  0  0  0  0  0  0  0  0
   48.8592    8.8172   20.0503 C   0  0  2  0  0  0  0  0  0  0  0  0
   47.4490    8.4333   20.5591 C   0  0  1  0  0  0  0  0  0  0  0  0
   46.9836    7.5055   19.4218 C   0  0  0  0  0  0  0  0  0  0  0  0
   48.1849    6.8289   18.9663 N   0  0  0  0  0  0  0  0  0  0  0  0
   49.3799    7.5006   19.4542 C   0  0  0  0  0  0  0  0  0  0  0  0
   47.3896    7.6910   21.9114 C   0  0  0  0  0  0  0  0  0  0  0  0
   47.2651    8.6262   23.1081 C   0  0  0  0  0  0  0  0  0  0  0  0
   48.1087    5.8107   18.0530 C   0  0  0  0  0  0  0  0  0  0  0  0
   49.3146    5.2652   17.7024 N   0  0  0  0  0  0  0  0  0  0  0  0
   47.0517    5.4283   17.5643 O   0  0  0  0  0  0  0  0  0  0  0  0
   49.3455    4.1011   16.8148 C   0  0  0  0  0  0  0  0  0  0  0  0
   49.0398    2.7599   17.4880 C   0  0  0  0  0  0  0  0  0  0  0  0
   47.7825    2.6707   17.9621 F   0  0  0  0  0  0  0  0  0  0  0  0
   49.2269    1.7399   16.6169 F   0  0  0  0  0  0  0  0  0  0  0  0
   49.8878    2.5561   18.5276 F   0  0  0  0  0  0  0  0  0  0  0  0
   48.6289    7.6862   20.1866 H   0  0  0  0  0  0  0  0  0  0  0  0
   48.6871    9.1484   20.6203 H   0  0  0  0  0  0  0  0  0  0  0  0
   52.6772   12.4788   21.0259 H   0  0  0  0  0  0  0  0  0  0  0  0
   46.6618   11.4654   20.6219 H   0  0  0  0  0  0  0  0  0  0  0  0
   46.4009   14.1547   20.7981 H   0  0  0  0  0  0  0  0  0  0  0  0
   48.7187   15.1286   21.0187 H   0  0  0  0  0  0  0  0  0  0  0  0
   51.0570    7.8996   20.5004 H   0  0  0  0  0  0  0  0  0  0  0  0
   47.3607    9.4927   20.9471 H   0  0  0  0  0  0  0  0  0  0  0  0
   46.8913    7.3509   21.6276 H   0  0  0  0  0  0  0  0  0  0  0  0
   49.5467    6.1763   20.7235 H   0  0  0  0  0  0  0  0  0  0  0  0
   47.9230    5.4561   20.7677 H   0  0  0  0  0  0  0  0  0  0  0  0
   48.3100    8.8160   18.4293 H   0  0  0  0  0  0  0  0  0  0  0  0
   46.7418    8.2521   19.0512 H   0  0  0  0  0  0  0  0  0  0  0  0
   48.3915    6.5262   23.3671 H   0  0  0  0  0  0  0  0  0  0  0  0
   49.6892    7.5810   22.8484 H   0  0  0  0  0  0  0  0  0  0  0  0
   48.3011    9.5874   23.4282 H   0  0  0  0  0  0  0  0  0  0  0  0
   48.4771    8.4988   24.8082 H   0  0  0  0  0  0  0  0  0  0  0  0
   46.9624    8.5210   23.8911 H   0  0  0  0  0  0  0  0  0  0  0  0
   48.6543    4.4377   19.0462 H   0  0  0  0  0  0  0  0  0  0  0  0
   49.7390    3.2678   17.2731 H   0  0  0  0  0  0  0  0  0  0  0  0
   49.5105    4.6601   16.2027 H   0  0  0  0  0  0  0  0  0  0  0  0
   51.7615   12.4834   23.5732 H   0  0  0  0  0  0  0  0  0  0  0  0
   47.4192   11.3812   19.4213 H   0  0  0  0  0  0  0  0  0  0  0  0
   46.8447   14.0270   19.6056 H   0  0  0  0  0  0  0  0  0  0  0  0
   48.4424   15.0331   21.2834 H   0  0  0  0  0  0  0  0  0  0  0  0
   51.1389    7.9326   21.8766 H   0  0  0  0  0  0  0  0  0  0  0  0
   48.7331    9.5003   19.1988 H   0  0  0  0  0  0  0  0  0  0  0  0
   46.7881    9.3058   20.6065 H   0  0  0  0  0  0  0  0  0  0  0  0
   46.2165    6.7812   19.7129 H   0  0  0  0  0  0  0  0  0  0  0  0
   46.5968    8.0924   18.5794 H   0  0  0  0  0  0  0  0  0  0  0  0
   49.8459    6.8414   20.1938 H   0  0  0  0  0  0  0  0  0  0  0  0
   50.0918    7.6694   18.6398 H   0  0  0  0  0  0  0  0  0  0  0  0
   48.2567    7.0347   22.0447 H   0  0  0  0  0  0  0  0  0  0  0  0
   46.5055    7.0415   21.9292 H   0  0  0  0  0  0  0  0  0  0  0  0
   47.1270    8.0414   24.0234 H   0  0  0  0  0  0  0  0  0  0  0  0
   48.1528    9.2451   23.2465 H   0  0  0  0  0  0  0  0  0  0  0  0
   46.3990    9.2865   23.0017 H   0  0  0  0  0  0  0  0  0  0  0  0
   50.0215    5.2932   18.4223 H   0  0  0  0  0  0  0  0  0  0  0  0
   50.3565    4.0668   16.3952 H   0  0  0  0  0  0  0  0  0  0  0  0
   48.6459    4.2652   15.9881 H   0  0  0  0  0  0  0  0  0  0  0  0
  2  3  1  0
  4  5  1  0
  6  7  1  0
  7  2  2  0
  3 10  1  0
  3  4  2  0
  4  8  1  0
  8  9  2  0
  9 10  1  0
  5 13  1  0
  5  6  1  0
  6 11  2  0
 11 12  1  0
 12 13  2  0
 14 13  1  0
 14 15  1  0
 14 18  1  0
 15 16  1  0
 16 17  1  0
 17 18  1  0
 15 19  1  0
 19 20  1  0
 17 21  1  0
 21 22  1  0
 21 23  2  0
 22 24  1  0
 24 25  1  0
 25 26  1  0
 25 27  1  0
 25 28  1  0
 29 30  1  0
 31 32  1  0
 33 34  1  0
 34 29  2  0
 30 37  1  0
 30 31  2  0
 31 35  1  0
 35 36  2  0
 36 37  1  0
 32 40  1  0
 32 33  1  0
 33 38  2  0
 38 39  1  0
 39 40  2  0
 41 40  1  0
 41 42  1  0
 41 45  1  0
 42 43  1  0
 43 44  1  0
 44 45  1  0
 42 46  1  0
 46 47  1  0
 44 48  1  0
 48 49  1  0
 48 50  2  0
 49 51  1  0
 51 52  1  0
 52 53  1  0
 52 54  1  0
 52 55  1  0
  1 56  1  0
  1 57  1  0
  7 58  1  0
  8 59  1  0
  9 60  1  0
 10 61  1  0
 12 62  1  0
 14 63  1  6
 15 64  1  6
 16 65  1  0
 16 66  1  0
 18 67  1  0
 18 68  1  0
 19 69  1  0
 19 70  1  0
 20 71  1  0
 20 72  1  0
 20 73  1  0
 22 74  1  0
 24 75  1  0
 24 76  1  0
 34 77  1  0
 35 78  1  0
 36 79  1  0
 37 80  1  0
 39 81  1  0
 41 82  1  6
 42 83  1  6
 43 84  1  0
 43 85  1  0
 45 86  1  0
 45 87  1  0
 46 88  1  0
 46 89  1  0
 47 90  1  0
 47 91  1  0
 47 92  1  0
 49 93  1  0
 51 94  1  0
 51 95  1  0
M  END
> <Uni-Dock RESULT> 
ENERGY=   -5.884  LOWER_BOUND=    6.952  UPPER_BOUND=    8.369
INTER + INTRA:          -5.884
INTER:                  -5.884
INTRA:                   0.000
UNBOUND:                 0.000

$$$$

     RDKit          3D

 95100  0  0  0  0  0  0  0  0999 V2000
   50.3623    5.4843   16.8693 O   0  0  0  0  0  0  0  0  0  0  0  0
   47.8275    7.1322   12.4008 N   0  0  0  0  0  0  0  0  0  0  0  0
   47.3523    6.1616   13.2289 C   0  0  0  0  0  0  0  0  0  0  0  0
   47.8056    5.7735   14.4763 C   0  0  0  0  0  0  0  0  0  0  0  0
   48.9197    6.4778   14.9743 N   0  0  0  0  0  0  0  0  0  0  0  0
   49.4626    7.4562   14.1664 C   0  0  0  0  0  0  0  0  0  0  0  0
   48.8755    7.7614   12.8761 C   0  0  0  0  0  0  0  0  0  0  0  0
   47.0141    4.7108   14.9388 C   0  0  0  0  0  0  0  0  0  0  0  0
   46.0731    4.4764   13.9516 C   0  0  0  0  0  0  0  0  0  0  0  0
   46.2870    5.3636   12.9206 N   0  0  0  0  0  0  0  0  0  0  0  0
   50.5264    8.0110   14.6998 N   0  0  0  0  0  0  0  0  0  0  0  0
   50.6759    7.3671   15.9016 C   0  0  0  0  0  0  0  0  0  0  0  0
   49.6668    6.4410   16.1347 C   0  0  0  0  0  0  0  0  0  0  0  0
   49.3954    5.5379   17.3045 C   0  0  2  0  0  0  0  0  0  0  0  0
   49.5162    6.1823   18.7037 C   0  0  1  0  0  0  0  0  0  0  0  0
   51.0019    6.0513   19.0483 C   0  0  0  0  0  0  0  0  0  0  0  0
   51.4582    4.8887   18.3009 N   0  0  0  0  0  0  0  0  0  0  0  0
   50.4300    4.4052   17.3883 C   0  0  0  0  0  0  0  0  0  0  0  0
   48.9685    7.5973   18.8996 C   0  0  0  0  0  0  0  0  0  0  0  0
   47.4798    7.7018   18.6014 C   0  0  0  0  0  0  0  0  0  0  0  0
   52.6945    4.3006   18.3215 C   0  0  0  0  0  0  0  0  0  0  0  0
   53.5948    4.8730   19.1802 N   0  0  0  0  0  0  0  0  0  0  0  0
   52.9929    3.3483   17.6086 O   0  0  0  0  0  0  0  0  0  0  0  0
   54.9015    4.2412   19.3740 C   0  0  0  0  0  0  0  0  0  0  0  0
   54.9017    3.0409   20.3247 C   0  0  0  0  0  0  0  0  0  0  0  0
   56.1649    2.6070   20.5405 F   0  0  0  0  0  0  0  0  0  0  0  0
   54.1825    1.9970   19.8707 F   0  0  0  0  0  0  0  0  0  0  0  0
   54.3907    3.4004   21.5294 F   0  0  0  0  0  0  0  0  0  0  0  0
   46.6467    7.7330   13.2102 N   0  0  0  0  0  0  0  0  0  0  0  0
   46.8979    6.4453   13.5770 C   0  0  0  0  0  0  0  0  0  0  0  0
   47.8123    5.9600   14.4916 C   0  0  0  0  0  0  0  0  0  0  0  0
   48.6014    6.9229   15.1451 N   0  0  0  0  0  0  0  0  0  0  0  0
   48.3943    8.2464   14.8175 C   0  0  0  0  0  0  0  0  0  0  0  0
   47.3951    8.6132   13.8322 C   0  0  0  0  0  0  0  0  0  0  0  0
   47.7178    4.5617   14.5420 C   0  0  0  0  0  0  0  0  0  0  0  0
   46.7268    4.2162   13.6402 C   0  0  0  0  0  0  0  0  0  0  0  0
   46.2380    5.3662   13.0598 N   0  0  0  0  0  0  0  0  0  0  0  0
   49.1836    9.0536   15.4894 N   0  0  0  0  0  0  0  0  0  0  0  0
   49.9248    8.2178   16.2873 C   0  0  0  0  0  0  0  0  0  0  0  0
   49.5930    6.8824   16.1014 C   0  0  0  0  0  0  0  0  0  0  0  0
   50.1226    5.6354   16.7203 C   0  0  2  0  0  0  0  0  0  0  0  0
   49.3011    5.0390   17.8885 C   0  0  1  0  0  0  0  0  0  0  0  0
   50.3175    4.0344   18.4616 C   0  0  0  0  0  0  0  0  0  0  0  0
   51.6167    4.6522   18.2644 N   0  0  0  0  0  0  0  0  0  0  0  0
   51.5332    5.7535   17.3170 C   0  0  0  0  0  0  0  0  0  0  0  0
   48.8539    6.0300   18.9845 C   0  0  0  0  0  0  0  0  0  0  0  0
   47.4923    6.6574   18.7116 C   0  0  0  0  0  0  0  0  0  0  0  0
   52.7453    4.0901   18.7999 C   0  0  0  0  0  0  0  0  0  0  0  0
   53.9044    4.7677   18.5317 N   0  0  0  0  0  0  0  0  0  0  0  0
   52.7315    3.0499   19.4480 O   0  0  0  0  0  0  0  0  0  0  0  0
   55.1572    4.3174   19.1415 C   0  0  0  0  0  0  0  0  0  0  0  0
   55.3593    4.7365   20.6006 C   0  0  0  0  0  0  0  0  0  0  0  0
   54.4665    4.1875   21.4461 F   0  0  0  0  0  0  0  0  0  0  0  0
   56.5981    4.3902   21.0248 F   0  0  0  0  0  0  0  0  0  0  0  0
   55.2614    6.0850   20.7162 F   0  0  0  0  0  0  0  0  0  0  0  0
   50.5782    5.7082   17.7870 H   0  0  0  0  0  0  0  0  0  0  0  0
   49.4827    5.8687   16.7366 H   0  0  0  0  0  0  0  0  0  0  0  0
   49.3382    8.5594   12.2738 H   0  0  0  0  0  0  0  0  0  0  0  0
   47.0875    4.1476   15.8580 H   0  0  0  0  0  0  0  0  0  0  0  0
   45.2736    3.7502   13.8874 H   0  0  0  0  0  0  0  0  0  0  0  0
   45.7596    5.4226   12.0608 H   0  0  0  0  0  0  0  0  0  0  0  0
   51.5061    7.6182   16.5498 H   0  0  0  0  0  0  0  0  0  0  0  0
   48.3938    5.1143   17.2162 H   0  0  0  0  0  0  0  0  0  0  0  0
   48.9742    5.5224   19.3996 H   0  0  0  0  0  0  0  0  0  0  0  0
   51.5941    6.9193   18.7417 H   0  0  0  0  0  0  0  0  0  0  0  0
   51.1510    5.8907   20.1211 H   0  0  0  0  0  0  0  0  0  0  0  0
   50.8591    4.1195   16.4217 H   0  0  0  0  0  0  0  0  0  0  0  0
   49.9904    3.5125   17.8503 H   0  0  0  0  0  0  0  0  0  0  0  0
   49.1345    7.8965   19.9420 H   0  0  0  0  0  0  0  0  0  0  0  0
   49.5128    8.3227   18.2864 H   0  0  0  0  0  0  0  0  0  0  0  0
   47.2636    7.4934   17.5503 H   0  0  0  0  0  0  0  0  0  0  0  0
   47.1222    8.7134   18.8200 H   0  0  0  0  0  0  0  0  0  0  0  0
   46.9060    7.0009   19.2155 H   0  0  0  0  0  0  0  0  0  0  0  0
   53.2031    5.3380   19.9841 H   0  0  0  0  0  0  0  0  0  0  0  0
   55.5579    5.0186   19.7795 H   0  0  0  0  0  0  0  0  0  0  0  0
   55.3005    3.9388   18.3995 H   0  0  0  0  0  0  0  0  0  0  0  0
   47.2637    9.6822   13.6016 H   0  0  0  0  0  0  0  0  0  0  0  0
   48.2808    3.8591   15.1402 H   0  0  0  0  0  0  0  0  0  0  0  0
   46.3257    3.2509   13.3592 H   0  0  0  0  0  0  0  0  0  0  0  0
   45.5068    5.4230   12.3635 H   0  0  0  0  0  0  0  0  0  0  0  0
   50.6643    8.6290   16.9636 H   0  0  0  0  0  0  0  0  0  0  0  0
   50.1941    4.8688   15.9361 H   0  0  0  0  0  0  0  0  0  0  0  0
   48.4222    4.4955   17.5247 H   0  0  0  0  0  0  0  0  0  0  0  0
   50.1624    3.7843   19.5158 H   0  0  0  0  0  0  0  0  0  0  0  0
   50.3053    3.1017   17.8841 H   0  0  0  0  0  0  0  0  0  0  0  0
   51.6929    6.6798   17.8783 H   0  0  0  0  0  0  0  0  0  0  0  0
   52.3128    5.6699   16.5530 H   0  0  0  0  0  0  0  0  0  0  0  0
   49.5993    6.8181   19.1379 H   0  0  0  0  0  0  0  0  0  0  0  0
   48.7667    5.4976   19.9399 H   0  0  0  0  0  0  0  0  0  0  0  0
   47.1874    7.2691   19.5669 H   0  0  0  0  0  0  0  0  0  0  0  0
   47.5012    7.3047   17.8334 H   0  0  0  0  0  0  0  0  0  0  0  0
   46.7282    5.8882   18.5637 H   0  0  0  0  0  0  0  0  0  0  0  0
   53.7996    5.7651   18.4181 H   0  0  0  0  0  0  0  0  0  0  0  0
   55.9611    4.7454   18.5333 H   0  0  0  0  0  0  0  0  0  0  0  0
   55.2208    3.2269   19.0601 H   0  0  0  0  0  0  0  0  0  0  0  0
  2  3  1  0
  4  5  1  0
  6  7  1  0
  7  2  2  0
  3 10  1  0
  3  4  2  0
  4  8  1  0
  8  9  2  0
  9 10  1  0
  5 13  1  0
  5  6  1  0
  6 11  2  0
 11 12  1  0
 12 13  2  0
 14 13  1  0
 14 15  1  0
 14 18  1  0
 15 16  1  0
 16 17  1  0
 17 18  1  0
 15 19  1  0
 19 20  1  0
 17 21  1  0
 21 22  1  0
 21 23  2  0
 22 24  1  0
 24 25  1  0
 25 26  1  0
 25 27  1  0
 25 28  1  0
 29 30  1  0
 31 32  1  0
 33 34  1  0
 34 29  2  0
 30 37  1  0
 30 31  2  0
 31 35  1  0
 35 36  2  0
 36 37  1  0
 32 40  1  0
 32 33  1  0
 33 38  2  0
 38 39  1  0
 39 40  2  0
 41 40  1  0
 41 42  1  0
 41 45  1  0
 42 43  1  0
 43 44  1  0
 44 45  1  0
 42 46  1  0
 46 47  1  0
 44 48  1  0
 48 49  1  0
 48 50  2  0
 49 51  1  0
 51 52  1  0
 52 53  1  0
 52 54  1  0
 52 55  1  0
  1 56  1  0
  1 57  1  0
  7 58  1  0
  8 59  1  0
  9 60  1  0
 10 61  1  0
 12 62  1  0
 14 63  1  6
 15 64  1  6
 16 65  1  0
 16 66  1  0
 18 67  1  0
 18 68  1  0
 19 69  1  0
 19 70  1  0
 20 71  1  0
 20 72  1  0
 20 73  1  0
 22 74  1  0
 24 75  1  0
 24 76  1  0
 34 77  1  0
 35 78  1  0
 36 79  1  0
 37 80  1  0
 39 81  1  0
 41 82  1  6
 42 83  1  6
 43 84  1  0
 43 85  1  0
 45 86  1  0
 45 87  1  0
 46 88  1  0
 46 89  1  0
 47 90  1  0
 47 91  1  0
 47 92  1  0
 49 93  1  0
 51 94  1  0
 51 95  1  0
M  END
> <Uni-Dock RESULT> 
ENERGY=   -5.312  LOWER_BOUND=    6.114  UPPER_BOUND=    8.882
INTER + INTRA:          -5.312
INTER:                  -5.312
INTRA:                   0.000
UNBOUND:                 0.000

$$$$

     RDKit          3D

 95100  0  0  0  0  0  0  0  0999 V2000
   47.7295    9.0729   13.7463 O   0  0  0  0  0  0  0  0  0  0  0  0
   50.6106    8.8259   18.3012 N   0  0  0  0  0  0  0  0  0  0  0  0
   50.2463    7.7345   17.5733 C   0  0  0  0  0  0  0  0  0  0  0  0
   49.6694    7.6698   16.3183 C   0  0  0  0  0  0  0  0  0  0  0  0
   49.4182    8.9060   15.6905 N   0  0  0  0  0  0  0  0  0  0  0  0
   49.7418   10.0494   16.3922 C   0  0  0  0  0  0  0  0  0  0  0  0
   50.3503    9.9651   17.7057 C   0  0  0  0  0  0  0  0  0  0  0  0
   49.4515    6.3240   15.9855 C   0  0  0  0  0  0  0  0  0  0  0  0
   49.9172    5.5840   17.0582 C   0  0  0  0  0  0  0  0  0  0  0  0
   50.3985    6.4503   18.0140 N   0  0  0  0  0  0  0  0  0  0  0  0
   49.4175   11.1431   15.7421 N   0  0  0  0  0  0  0  0  0  0  0  0
   48.8641   10.6885   14.5723 C   0  0  0  0  0  0  0  0  0  0  0  0
   48.8921    9.3027   14.4773 C   0  0  0  0  0  0  0  0  0  0  0  0
   48.4407    8.3702   13.3889 C   0  0  2  0  0  0  0  0  0  0  0  0
   48.8429    8.7603   11.9490 C   0  0  1  0  0  0  0  0  0  0  0  0
   47.7285    9.7055   11.4929 C   0  0  0  0  0  0  0  0  0  0  0  0
   46.5618    9.3098   12.2680 N   0  0  0  0  0  0  0  0  0  0  0  0
   46.9082    8.3285   13.2883 C   0  0  0  0  0  0  0  0  0  0  0  0
   50.2480    9.3185   11.7150 C   0  0  0  0  0  0  0  0  0  0  0  0
   51.3459    8.3485   12.1267 C   0  0  0  0  0  0  0  0  0  0  0  0
   45.2839    9.7938   12.1816 C   0  0  0  0  0  0  0  0  0  0  0  0
   45.0893   10.7493   11.2201 N   0  0  0  0  0  0  0  0  0  0  0  0
   44.3789    9.4254   12.9229 O   0  0  0  0  0  0  0  0  0  0  0  0
   43.7336   11.2366   10.9582 C   0  0  0  0  0  0  0  0  0  0  0  0
   42.8768   10.3174   10.0833 C   0  0  0  0  0  0  0  0  0  0  0  0
   41.6946   10.9071    9.7913 F   0  0  0  0  0  0  0  0  0  0  0  0
   42.6104    9.1279   10.6552 F   0  0  0  0  0  0  0  0  0  0  0  0
   43.5055   10.0764    8.9051 F   0  0  0  0  0  0  0  0  0  0  0  0
   51.8706    8.3079   17.5566 N   0  0  0  0  0  0  0  0  0  0  0  0
   50.7696    7.5676   17.2473 C   0  0  0  0  0  0  0  0  0  0  0  0
   49.8000    7.8013   16.2915 C   0  0  0  0  0  0  0  0  0  0  0  0
   49.9623    8.9655   15.5202 N   0  0  0  0  0  0  0  0  0  0  0  0
   51.0593    9.7583   15.7848 C   0  0  0  0  0  0  0  0  0  0  0  0
   52.0006    9.3893   16.8247 C   0  0  0  0  0  0  0  0  0  0  0  0
   48.8530    6.7676   16.3318 C   0  0  0  0  0  0  0  0  0  0  0  0
   49.2739    5.9069   17.3301 C   0  0  0  0  0  0  0  0  0  0  0  0
   50.4361    6.4029   17.8794 N   0  0  0  0  0  0  0  0  0  0  0  0
   51.1089   10.8139   15.0043 N   0  0  0  0  0  0  0  0  0  0  0  0
   50.0031   10.6938   14.1995 C   0  0  0  0  0  0  0  0  0  0  0  0
   49.2622    9.5562   14.4903 C   0  0  0  0  0  0  0  0  0  0  0  0
   48.0022    9.0190   13.9052 C   0  0  2  0  0  0  0  0  0  0  0  0
   48.1521    7.9015   12.8451 C   0  0  1  0  0  0  0  0  0  0  0  0
   46.7315    7.8858   12.2515 C   0  0  0  0  0  0  0  0  0  0  0  0
   46.2808    9.2651   12.3054 N   0  0  0  0  0  0  0  0  0  0  0  0
   47.1233   10.0560   13.1897 C   0  0  0  0  0  0  0  0  0  0  0  0
   49.1929    8.1510   11.7325 C   0  0  0  0  0  0  0  0  0  0  0  0
   50.5823    7.6291   12.0779 C   0  0  0  0  0  0  0  0  0  0  0  0
   45.1028    9.6379   11.7139 C   0  0  0  0  0  0  0  0  0  0  0  0
   44.7910   10.9646   11.8463 N   0  0  0  0  0  0  0  0  0  0  0  0
   44.3676    8.8488   11.1317 O   0  0  0  0  0  0  0  0  0  0  0  0
   43.6094   11.4962   11.1642 C   0  0  0  0  0  0  0  0  0  0  0  0
   43.7931   11.7841    9.6713 C   0  0  0  0  0  0  0  0  0  0  0  0
   44.0223   10.6799    8.9352 F   0  0  0  0  0  0  0  0  0  0  0  0
   42.6941   12.3956    9.1688 F   0  0  0  0  0  0  0  0  0  0  0  0
   44.8389   12.6284    9.4845 F   0  0  0  0  0  0  0  0  0  0  0  0
   47.7551    9.2906   12.8026 H   0  0  0  0  0  0  0  0  0  0  0  0
   48.6125    8.7170   13.9274 H   0  0  0  0  0  0  0  0  0  0  0  0
   50.6012   10.9064   18.2201 H   0  0  0  0  0  0  0  0  0  0  0  0
   49.0053    5.8982   15.0983 H   0  0  0  0  0  0  0  0  0  0  0  0
   49.9415    4.5160   17.2301 H   0  0  0  0  0  0  0  0  0  0  0  0
   50.7932    6.1969   18.9090 H   0  0  0  0  0  0  0  0  0  0  0  0
   48.4823   11.3940   13.8449 H   0  0  0  0  0  0  0  0  0  0  0  0
   48.8231    7.3672   13.5834 H   0  0  0  0  0  0  0  0  0  0  0  0
   48.7478    7.8475   11.3397 H   0  0  0  0  0  0  0  0  0  0  0  0
   47.9448   10.7586   11.6983 H   0  0  0  0  0  0  0  0  0  0  0  0
   47.5238    9.5955   10.4229 H   0  0  0  0  0  0  0  0  0  0  0  0
   46.3925    8.5377   14.2319 H   0  0  0  0  0  0  0  0  0  0  0  0
   46.5709    7.3528   12.9172 H   0  0  0  0  0  0  0  0  0  0  0  0
   50.3642    9.5397   10.6467 H   0  0  0  0  0  0  0  0  0  0  0  0
   50.3900   10.2699   12.2379 H   0  0  0  0  0  0  0  0  0  0  0  0
   51.3299    8.1545   13.2024 H   0  0  0  0  0  0  0  0  0  0  0  0
   52.3280    8.7642   11.8786 H   0  0  0  0  0  0  0  0  0  0  0  0
   51.2420    7.3927   11.6039 H   0  0  0  0  0  0  0  0  0  0  0  0
   45.7070   10.7067   10.4247 H   0  0  0  0  0  0  0  0  0  0  0  0
   43.8496   12.2027   10.4553 H   0  0  0  0  0  0  0  0  0  0  0  0
   43.2265   11.4133   11.9131 H   0  0  0  0  0  0  0  0  0  0  0  0
   52.8623   10.0520   17.0016 H   0  0  0  0  0  0  0  0  0  0  0  0
   47.9641    6.6306   15.7322 H   0  0  0  0  0  0  0  0  0  0  0  0
   48.8475    4.9831   17.6994 H   0  0  0  0  0  0  0  0  0  0  0  0
   50.9719    5.9850   18.6284 H   0  0  0  0  0  0  0  0  0  0  0  0
   49.8003   11.4411   13.4421 H   0  0  0  0  0  0  0  0  0  0  0  0
   47.3871    8.6221   14.7249 H   0  0  0  0  0  0  0  0  0  0  0  0
   48.3595    6.9317   13.3108 H   0  0  0  0  0  0  0  0  0  0  0  0
   46.6715    7.4972   11.2301 H   0  0  0  0  0  0  0  0  0  0  0  0
   46.0567    7.2939   12.8822 H   0  0  0  0  0  0  0  0  0  0  0  0
   47.6917   10.7513   12.5634 H   0  0  0  0  0  0  0  0  0  0  0  0
   46.5151   10.6359   13.8913 H   0  0  0  0  0  0  0  0  0  0  0  0
   49.2519    9.2136   11.4725 H   0  0  0  0  0  0  0  0  0  0  0  0
   48.8802    7.6272   10.8205 H   0  0  0  0  0  0  0  0  0  0  0  0
   51.2470    7.7445   11.2155 H   0  0  0  0  0  0  0  0  0  0  0  0
   51.0333    8.1677   12.9126 H   0  0  0  0  0  0  0  0  0  0  0  0
   50.5499    6.5654   12.3326 H   0  0  0  0  0  0  0  0  0  0  0  0
   45.5841   11.5856   11.9089 H   0  0  0  0  0  0  0  0  0  0  0  0
   43.3571   12.4296   11.6785 H   0  0  0  0  0  0  0  0  0  0  0  0
   42.7746   10.8011   11.3045 H   0  0  0  0  0  0  0  0  0  0  0  0
  2  3  1  0
  4  5  1  0
  6  7  1  0
  7  2  2  0
  3 10  1  0
  3  4  2  0
  4  8  1  0
  8  9  2  0
  9 10  1  0
  5 13  1  0
  5  6  1  0
  6 11  2  0
 11 12  1  0
 12 13  2  0
 14 13  1  0
 14 15  1  0
 14 18  1  0
 15 16  1  0
 16 17  1  0
 17 18  1  0
 15 19  1  0
 19 20  1  0
 17 21  1  0
 21 22  1  0
 21 23  2  0
 22 24  1  0
 24 25  1  0
 25 26  1  0
 25 27  1  0
 25 28  1  0
 29 30  1  0
 31 32  1  0
 33 34  1  0
 34 29  2  0
 30 37  1  0
 30 31  2  0
 31 35  1  0
 35 36  2  0
 36 37  1  0
 32 40  1  0
 32 33  1  0
 33 38  2  0
 38 39  1  0
 39 40  2  0
 41 40  1  0
 41 42  1  0
 41 45  1  0
 42 43  1  0
 43 44  1  0
 44 45  1  0
 42 46  1  0
 46 47  1  0
 44 48  1  0
 48 49  1  0
 48 50  2  0
 49 51  1  0
 51 52  1  0
 52 53  1  0
 52 54  1  0
 52 55  1  0
  1 56  1  0
  1 57  1  0
  7 58  1  0
  8 59  1  0
  9 60  1  0
 10 61  1  0
 12 62  1  0
 14 63  1  6
 15 64  1  6
 16 65  1  0
 16 66  1  0
 18 67  1  0
 18 68  1  0
 19 69  1  0
 19 70  1  0
 20 71  1  0
 20 72  1  0
 20 73  1  0
 22 74  1  0
 24 75  1  0
 24 76  1  0
 34 77  1  0
 35 78  1  0
 36 79  1  0
 37 80  1  0
 39 81  1  0
 41 82  1  6
 42 83  1  6
 43 84  1  0
 43 85  1  0
 45 86  1  0
 45 87  1  0
 46 88  1  0
 46 89  1  0
 47 90  1  0
 47 91  1  0
 47 92  1  0
 49 93  1  0
 51 94  1  0
 51 95  1  0
M  END
> <Uni-Dock RESULT> 
ENERGY=   -5.246  LOWER_BOUND=    3.344  UPPER_BOUND=    5.853
INTER + INTRA:          -5.246
INTER:                  -5.246
INTRA:                   0.000
UNBOUND:                 0.000

$$$$

     RDKit          3D

 95100  0  0  0  0  0  0  0  0999 V2000
   48.7279    8.2141   15.4082 O   0  0  0  0  0  0  0  0  0  0  0  0
   46.9573    5.2424   19.5485 N   0  0  0  0  0  0  0  0  0  0  0  0
   47.4828    4.7176   18.4073 C   0  0  0  0  0  0  0  0  0  0  0  0
   48.1234    5.3567   17.3618 C   0  0  0  0  0  0  0  0  0  0  0  0
   48.2595    6.7539   17.4836 N   0  0  0  0  0  0  0  0  0  0  0  0
   47.7213    7.3465   18.6078 C   0  0  0  0  0  0  0  0  0  0  0  0
   47.0785    6.5457   19.6315 C   0  0  0  0  0  0  0  0  0  0  0  0
   48.4709    4.4055   16.3902 C   0  0  0  0  0  0  0  0  0  0  0  0
   48.0365    3.1850   16.8766 C   0  0  0  0  0  0  0  0  0  0  0  0
   47.4407    3.3867   18.1014 N   0  0  0  0  0  0  0  0  0  0  0  0
   47.8538    8.6528   18.5959 N   0  0  0  0  0  0  0  0  0  0  0  0
   48.5058    8.9149   17.4179 C   0  0  0  0  0  0  0  0  0  0  0  0
   48.8229    7.7564   16.7197 C   0  0  0  0  0  0  0  0  0  0  0  0
   49.5510    7.5437   15.4226 C   0  0  2  0  0  0  0  0  0  0  0  0
   50.8534    8.3533   15.2331 C   0  0  1  0  0  0  0  0  0  0  0  0
   50.3814    9.6910   14.6577 C   0  0  0  0  0  0  0  0  0  0  0  0
   49.1364    9.3836   13.9692 N   0  0  0  0  0  0  0  0  0  0  0  0
   48.7102    8.0139   14.2257 C   0  0  0  0  0  0  0  0  0  0  0  0
   51.7939    8.5037   16.4303 C   0  0  0  0  0  0  0  0  0  0  0  0
   52.2947    7.1680   16.9606 C   0  0  0  0  0  0  0  0  0  0  0  0
   48.3525   10.2219   13.2225 C   0  0  0  0  0  0  0  0  0  0  0  0
   48.8288   11.4993   13.0929 N   0  0  0  0  0  0  0  0  0  0  0  0
   47.2876    9.8728   12.7242 O   0  0  0  0  0  0  0  0  0  0  0  0
   48.1342   12.4367   12.2080 C   0  0  0  0  0  0  0  0  0  0  0  0
   48.4487   12.2698   10.7188 C   0  0  0  0  0  0  0  0  0  0  0  0
   47.8657   13.2549    9.9976 F   0  0  0  0  0  0  0  0  0  0  0  0
   48.0357   11.0926   10.2121 F   0  0  0  0  0  0  0  0  0  0  0  0
   49.7868   12.3606   10.5120 F   0  0  0  0  0  0  0  0  0  0  0  0
   48.3840    4.7246   19.8754 N   0  0  0  0  0  0  0  0  0  0  0  0
   48.0806    4.5509   18.5588 C   0  0  0  0  0  0  0  0  0  0  0  0
   48.2018    5.4411   17.5095 C   0  0  0  0  0  0  0  0  0  0  0  0
   48.7115    6.7108   17.8336 N   0  0  0  0  0  0  0  0  0  0  0  0
   49.0387    6.9492   19.1519 C   0  0  0  0  0  0  0  0  0  0  0  0
   48.8568    5.9166   20.1540 C   0  0  0  0  0  0  0  0  0  0  0  0
   47.7668    4.8242   16.3276 C   0  0  0  0  0  0  0  0  0  0  0  0
   47.3831    3.5443   16.6873 C   0  0  0  0  0  0  0  0  0  0  0  0
   47.5761    3.3904   18.0429 N   0  0  0  0  0  0  0  0  0  0  0  0
   49.5051    8.1636   19.3359 N   0  0  0  0  0  0  0  0  0  0  0  0
   49.4841    8.7288   18.0849 C   0  0  0  0  0  0  0  0  0  0  0  0
   48.9951    7.8564   17.1218 C   0  0  0  0  0  0  0  0  0  0  0  0
   48.7775    8.0195   15.6574 C   0  0  2  0  0  0  0  0  0  0  0  0
   49.8772    7.4541   14.7266 C   0  0  1  0  0  0  0  0  0  0  0  0
   49.4842    8.1169   13.3936 C   0  0  0  0  0  0  0  0  0  0  0  0
   48.9446    9.4149   13.7579 N   0  0  0  0  0  0  0  0  0  0  0  0
   48.6352    9.4721   15.1786 C   0  0  0  0  0  0  0  0  0  0  0  0
   51.3331    7.8140   15.0929 C   0  0  0  0  0  0  0  0  0  0  0  0
   51.9886    6.8022   16.0248 C   0  0  0  0  0  0  0  0  0  0  0  0
   48.6332   10.3368   12.7937 C   0  0  0  0  0  0  0  0  0  0  0  0
   48.1250   11.5150   13.2717 N   0  0  0  0  0  0  0  0  0  0  0  0
   48.7716   10.1235   11.5948 O   0  0  0  0  0  0  0  0  0  0  0  0
   47.8561   12.6118   12.3396 C   0  0  0  0  0  0  0  0  0  0  0  0
   49.0844   13.4217   11.9144 C   0  0  0  0  0  0  0  0  0  0  0  0
   49.9771   12.7096   11.2006 F   0  0  0  0  0  0  0  0  0  0  0  0
   48.7123   14.4876   11.1663 F   0  0  0  0  0  0  0  0  0  0  0  0
   49.7243   13.9070   13.0082 F   0  0  0  0  0  0  0  0  0  0  0  0
   49.4438    8.7842   15.0900 H   0  0  0  0  0  0  0  0  0  0  0  0
   49.1784    7.5662   15.9706 H   0  0  0  0  0  0  0  0  0  0  0  0
   46.6754    7.0644   20.5159 H   0  0  0  0  0  0  0  0  0  0  0  0
   48.9626    4.5429   15.4378 H   0  0  0  0  0  0  0  0  0  0  0  0
   48.0914    2.1898   16.4555 H   0  0  0  0  0  0  0  0  0  0  0  0
   47.0227    2.6789   18.6889 H   0  0  0  0  0  0  0  0  0  0  0  0
   48.7272    9.9373   17.1386 H   0  0  0  0  0  0  0  0  0  0  0  0
   49.7941    6.4864   15.3075 H   0  0  0  0  0  0  0  0  0  0  0  0
   51.4200    7.8511   14.4329 H   0  0  0  0  0  0  0  0  0  0  0  0
   50.1801   10.4442   15.4260 H   0  0  0  0  0  0  0  0  0  0  0  0
   51.1100   10.1019   13.9512 H   0  0  0  0  0  0  0  0  0  0  0  0
   47.6286    7.9586   14.3903 H   0  0  0  0  0  0  0  0  0  0  0  0
   48.9549    7.4323   13.3283 H   0  0  0  0  0  0  0  0  0  0  0  0
   52.6612    9.1009   16.1222 H   0  0  0  0  0  0  0  0  0  0  0  0
   51.3168    9.0606   17.2432 H   0  0  0  0  0  0  0  0  0  0  0  0
   51.4777    6.5607   17.3591 H   0  0  0  0  0  0  0  0  0  0  0  0
   53.0139    7.3301   17.7701 H   0  0  0  0  0  0  0  0  0  0  0  0
   52.7955    6.5958   16.1735 H   0  0  0  0  0  0  0  0  0  0  0  0
   49.8293   11.6051   13.1540 H   0  0  0  0  0  0  0  0  0  0  0  0
   48.4388   13.4390   12.5276 H   0  0  0  0  0  0  0  0  0  0  0  0
   47.0542   12.3464   12.3685 H   0  0  0  0  0  0  0  0  0  0  0  0
   49.1315    6.1511   21.1945 H   0  0  0  0  0  0  0  0  0  0  0  0
   47.7195    5.2242   15.3245 H   0  0  0  0  0  0  0  0  0  0  0  0
   46.9880    2.7276   16.0969 H   0  0  0  0  0  0  0  0  0  0  0  0
   47.3840    2.5591   18.5858 H   0  0  0  0  0  0  0  0  0  0  0  0
   49.8302    9.7455   17.9437 H   0  0  0  0  0  0  0  0  0  0  0  0
   47.8314    7.5255   15.3957 H   0  0  0  0  0  0  0  0  0  0  0  0
   49.7976    6.3661   14.6261 H   0  0  0  0  0  0  0  0  0  0  0  0
   50.3078    8.2248   12.6810 H   0  0  0  0  0  0  0  0  0  0  0  0
   48.6810    7.5521   12.9042 H   0  0  0  0  0  0  0  0  0  0  0  0
   49.3536   10.1562   15.6419 H   0  0  0  0  0  0  0  0  0  0  0  0
   47.6259    9.8634   15.3419 H   0  0  0  0  0  0  0  0  0  0  0  0
   51.3981    8.8158   15.5314 H   0  0  0  0  0  0  0  0  0  0  0  0
   51.9408    7.8370   14.1796 H   0  0  0  0  0  0  0  0  0  0  0  0
   53.0440    7.0571   16.1661 H   0  0  0  0  0  0  0  0  0  0  0  0
   51.5224    6.7820   17.0110 H   0  0  0  0  0  0  0  0  0  0  0  0
   51.9439    5.7935   15.6029 H   0  0  0  0  0  0  0  0  0  0  0  0
   48.4542   11.7817   14.1877 H   0  0  0  0  0  0  0  0  0  0  0  0
   47.1503   13.2762   12.8492 H   0  0  0  0  0  0  0  0  0  0  0  0
   47.3557   12.2099   11.4520 H   0  0  0  0  0  0  0  0  0  0  0  0
  2  3  1  0
  4  5  1  0
  6  7  1  0
  7  2  2  0
  3 10  1  0
  3  4  2  0
  4  8  1  0
  8  9  2  0
  9 10  1  0
  5 13  1  0
  5  6  1  0
  6 11  2  0
 11 12  1  0
 12 13  2  0
 14 13  1  0
 14 15  1  0
 14 18  1  0
 15 16  1  0
 16 17  1  0
 17 18  1  0
 15 19  1  0
 19 20  1  0
 17 21  1  0
 21 22  1  0
 21 23  2  0
 22 24  1  0
 24 25  1  0
 25 26  1  0
 25 27  1  0
 25 28  1  0
 29 30  1  0
 31 32  1  0
 33 34  1  0
 34 29  2  0
 30 37  1  0
 30 31  2  0
 31 35  1  0
 35 36  2  0
 36 37  1  0
 32 40  1  0
 32 33  1  0
 33 38  2  0
 38 39  1  0
 39 40  2  0
 41 40  1  0
 41 42  1  0
 41 45  1  0
 42 43  1  0
 43 44  1  0
 44 45  1  0
 42 46  1  0
 46 47  1  0
 44 48  1  0
 48 49  1  0
 48 50  2  0
 49 51  1  0
 51 52  1  0
 52 53  1  0
 52 54  1  0
 52 55  1  0
  1 56  1  0
  1 57  1  0
  7 58  1  0
  8 59  1  0
  9 60  1  0
 10 61  1  0
 12 62  1  0
 14 63  1  6
 15 64  1  6
 16 65  1  0
 16 66  1  0
 18 67  1  0
 18 68  1  0
 19 69  1  0
 19 70  1  0
 20 71  1  0
 20 72  1  0
 20 73  1  0
 22 74  1  0
 24 75  1  0
 24 76  1  0
 34 77  1  0
 35 78  1  0
 36 79  1  0
 37 80  1  0
 39 81  1  0
 41 82  1  6
 42 83  1  6
 43 84  1  0
 43 85  1  0
 45 86  1  0
 45 87  1  0
 46 88  1  0
 46 89  1  0
 47 90  1  0
 47 91  1  0
 47 92  1  0
 49 93  1  0
 51 94  1  0
 51 95  1  0
M  END
> <Uni-Dock RESULT> 
ENERGY=   -5.093  LOWER_BOUND=    4.811  UPPER_BOUND=    8.106
INTER + INTRA:          -5.093
INTER:                  -5.093
INTRA:                   0.000
UNBOUND:                 0.000

$$$$

     RDKit          3D

 95100  0  0  0  0  0  0  0  0999 V2000
   43.5633   11.7237   11.6346 O   0  0  0  0  0  0  0  0  0  0  0  0
   40.5379   15.9046   13.2078 N   0  0  0  0  0  0  0  0  0  0  0  0
   41.8303   16.0159   12.7942 C   0  0  0  0  0  0  0  0  0  0  0  0
   42.6488   15.0674   12.2090 C   0  0  0  0  0  0  0  0  0  0  0  0
   42.0731   13.7977   12.0044 N   0  0  0  0  0  0  0  0  0  0  0  0
   40.7725   13.6168   12.4291 C   0  0  0  0  0  0  0  0  0  0  0  0
   40.0290   14.7097   13.0252 C   0  0  0  0  0  0  0  0  0  0  0  0
   43.9114   15.6348   11.9779 C   0  0  0  0  0  0  0  0  0  0  0  0
   43.8315   16.9418   12.4253 C   0  0  0  0  0  0  0  0  0  0  0  0
   42.5642   17.1618   12.9164 N   0  0  0  0  0  0  0  0  0  0  0  0
   40.3526   12.3868   12.2423 N   0  0  0  0  0  0  0  0  0  0  0  0
   41.4238   11.7477   11.6719 C   0  0  0  0  0  0  0  0  0  0  0  0
   42.4979   12.6027   11.4590 C   0  0  0  0  0  0  0  0  0  0  0  0
   43.8482   12.3702   10.8422 C   0  0  2  0  0  0  0  0  0  0  0  0
   43.8643   11.5629    9.5248 C   0  0  1  0  0  0  0  0  0  0  0  0
   43.9092   10.1027    9.9820 C   0  0  0  0  0  0  0  0  0  0  0  0
   44.5506   10.1393   11.2881 N   0  0  0  0  0  0  0  0  0  0  0  0
   44.7374   11.5082   11.7515 C   0  0  0  0  0  0  0  0  0  0  0  0
   42.7732   11.8432    8.4897 C   0  0  0  0  0  0  0  0  0  0  0  0
   42.7723   13.2865    8.0073 C   0  0  0  0  0  0  0  0  0  0  0  0
   44.8983    9.0856   12.0905 C   0  0  0  0  0  0  0  0  0  0  0  0
   44.6282    7.8474   11.5714 N   0  0  0  0  0  0  0  0  0  0  0  0
   45.3912    9.2289   13.2044 O   0  0  0  0  0  0  0  0  0  0  0  0
   45.0794    6.6548   12.2912 C   0  0  0  0  0  0  0  0  0  0  0  0
   46.5584    6.3080   12.0992 C   0  0  0  0  0  0  0  0  0  0  0  0
   46.8498    5.1278   12.6932 F   0  0  0  0  0  0  0  0  0  0  0  0
   47.3962    7.2357   12.5996 F   0  0  0  0  0  0  0  0  0  0  0  0
   46.8373    6.1708   10.7782 F   0  0  0  0  0  0  0  0  0  0  0  0
   40.5305   16.5228   11.7837 N   0  0  0  0  0  0  0  0  0  0  0  0
   41.7967   16.2326   12.1943 C   0  0  0  0  0  0  0  0  0  0  0  0
   42.4886   15.0396   12.1159 C   0  0  0  0  0  0  0  0  0  0  0  0
   41.7989   13.9640   11.5292 N   0  0  0  0  0  0  0  0  0  0  0  0
   40.5115   14.1942   11.0920 C   0  0  0  0  0  0  0  0  0  0  0  0
   39.9067   15.5041   11.2405 C   0  0  0  0  0  0  0  0  0  0  0  0
   43.7673   15.2101   12.6662 C   0  0  0  0  0  0  0  0  0  0  0  0
   43.8306   16.5304   13.0755 C   0  0  0  0  0  0  0  0  0  0  0  0
   42.6295   17.1402   12.7859 N   0  0  0  0  0  0  0  0  0  0  0  0
   39.9680   13.1222   10.5615 N   0  0  0  0  0  0  0  0  0  0  0  0
   40.9467   12.1638   10.6542 C   0  0  0  0  0  0  0  0  0  0  0  0
   42.1022   12.6483   11.2524 C   0  0  0  0  0  0  0  0  0  0  0  0
   43.4001   11.9924   11.5744 C   0  0  2  0  0  0  0  0  0  0  0  0
   44.5589   12.2216   10.5744 C   0  0  1  0  0  0  0  0  0  0  0  0
   45.5491   11.1383   11.0398 C   0  0  0  0  0  0  0  0  0  0  0  0
   44.7213   10.0351   11.4940 N   0  0  0  0  0  0  0  0  0  0  0  0
   43.3442   10.4617   11.6909 C   0  0  0  0  0  0  0  0  0  0  0  0
   44.2199   12.0287    9.0807 C   0  0  0  0  0  0  0  0  0  0  0  0
   43.7464   13.3068    8.3994 C   0  0  0  0  0  0  0  0  0  0  0  0
   45.2854    8.8353   11.8388 C   0  0  0  0  0  0  0  0  0  0  0  0
   44.3944    7.8839   12.2581 N   0  0  0  0  0  0  0  0  0  0  0  0
   46.4929    8.6287   11.8019 O   0  0  0  0  0  0  0  0  0  0  0  0
   44.8728    6.5312   12.5506 C   0  0  0  0  0  0  0  0  0  0  0  0
   45.1031    5.6421   11.3251 C   0  0  0  0  0  0  0  0  0  0  0  0
   46.0904    6.0804   10.5209 F   0  0  0  0  0  0  0  0  0  0  0  0
   45.4106    4.3798   11.7076 F   0  0  0  0  0  0  0  0  0  0  0  0
   43.9693    5.5682   10.5831 F   0  0  0  0  0  0  0  0  0  0  0  0
   43.7302   11.0894   10.9215 H   0  0  0  0  0  0  0  0  0  0  0  0
   43.2950   12.5309   11.1704 H   0  0  0  0  0  0  0  0  0  0  0  0
   38.9899   14.5182   13.3368 H   0  0  0  0  0  0  0  0  0  0  0  0
   44.7997   15.1877   11.5553 H   0  0  0  0  0  0  0  0  0  0  0  0
   44.5680   17.7343   12.4454 H   0  0  0  0  0  0  0  0  0  0  0  0
   42.2174   18.0217   13.3180 H   0  0  0  0  0  0  0  0  0  0  0  0
   41.3583   10.6944   11.4291 H   0  0  0  0  0  0  0  0  0  0  0  0
   44.3353   13.3281   10.6539 H   0  0  0  0  0  0  0  0  0  0  0  0
   44.8332   11.7699    9.0431 H   0  0  0  0  0  0  0  0  0  0  0  0
   42.9169    9.6541   10.0915 H   0  0  0  0  0  0  0  0  0  0  0  0
   44.4950    9.4857    9.2928 H   0  0  0  0  0  0  0  0  0  0  0  0
   44.5083   11.6012   12.8187 H   0  0  0  0  0  0  0  0  0  0  0  0
   45.7964   11.7520   11.6013 H   0  0  0  0  0  0  0  0  0  0  0  0
   42.9346   11.1889    7.6239 H   0  0  0  0  0  0  0  0  0  0  0  0
   41.7816   11.5905    8.8790 H   0  0  0  0  0  0  0  0  0  0  0  0
   42.5339   13.9819    8.8164 H   0  0  0  0  0  0  0  0  0  0  0  0
   42.0212   13.4204    7.2218 H   0  0  0  0  0  0  0  0  0  0  0  0
   43.7469   13.5628    7.5931 H   0  0  0  0  0  0  0  0  0  0  0  0
   44.6217    7.7829   10.5656 H   0  0  0  0  0  0  0  0  0  0  0  0
   44.4668    5.8260   11.9204 H   0  0  0  0  0  0  0  0  0  0  0  0
   44.8662    6.7793   13.3585 H   0  0  0  0  0  0  0  0  0  0  0  0
   38.8762   15.6426   10.8771 H   0  0  0  0  0  0  0  0  0  0  0  0
   44.5674   14.4912   12.7732 H   0  0  0  0  0  0  0  0  0  0  0  0
   44.6262   17.0910   13.5491 H   0  0  0  0  0  0  0  0  0  0  0  0
   42.3858   18.1041   12.9710 H   0  0  0  0  0  0  0  0  0  0  0  0
   40.7645   11.1649   10.2769 H   0  0  0  0  0  0  0  0  0  0  0  0
   43.7307   12.3541   12.5580 H   0  0  0  0  0  0  0  0  0  0  0  0
   45.0148   13.2088   10.7078 H   0  0  0  0  0  0  0  0  0  0  0  0
   46.2515   10.8053   10.2694 H   0  0  0  0  0  0  0  0  0  0  0  0
   46.1294   11.4910   11.9015 H   0  0  0  0  0  0  0  0  0  0  0  0
   42.7406    9.9868   10.9106 H   0  0  0  0  0  0  0  0  0  0  0  0
   42.9713   10.1355   12.6671 H   0  0  0  0  0  0  0  0  0  0  0  0
   43.4752   11.2376    8.9396 H   0  0  0  0  0  0  0  0  0  0  0  0
   45.1203   11.7040    8.5444 H   0  0  0  0  0  0  0  0  0  0  0  0
   43.6190   13.1302    7.3264 H   0  0  0  0  0  0  0  0  0  0  0  0
   42.7890   13.6557    8.7892 H   0  0  0  0  0  0  0  0  0  0  0  0
   44.4795   14.1103    8.5194 H   0  0  0  0  0  0  0  0  0  0  0  0
   43.4744    7.9503   11.8486 H   0  0  0  0  0  0  0  0  0  0  0  0
   44.1091    6.0707   13.1863 H   0  0  0  0  0  0  0  0  0  0  0  0
   45.7972    6.5991   13.1343 H   0  0  0  0  0  0  0  0  0  0  0  0
  2  3  1  0
  4  5  1  0
  6  7  1  0
  7  2  2  0
  3 10  1  0
  3  4  2  0
  4  8  1  0
  8  9  2  0
  9 10  1  0
  5 13  1  0
  5  6  1  0
  6 11  2  0
 11 12  1  0
 12 13  2  0
 14 13  1  0
 14 15  1  0
 14 18  1  0
 15 16  1  0
 16 17  1  0
 17 18  1  0
 15 19  1  0
 19 20  1  0
 17 21  1  0
 21 22  1  0
 21 23  2  0
 22 24  1  0
 24 25  1  0
 25 26  1  0
 25 27  1  0
 25 28  1  0
 29 30  1  0
 31 32  1  0
 33 34  1  0
 34 29  2  0
 30 37  1  0
 30 31  2  0
 31 35  1  0
 35 36  2  0
 36 37  1  0
 32 40  1  0
 32 33  1  0
 33 38  2  0
 38 39  1  0
 39 40  2  0
 41 40  1  0
 41 42  1  0
 41 45  1  0
 42 43  1  0
 43 44  1  0
 44 45  1  0
 42 46  1  0
 46 47  1  0
 44 48  1  0
 48 49  1  0
 48 50  2  0
 49 51  1  0
 51 52  1  0
 52 53  1  0
 52 54  1  0
 52 55  1  0
  1 56  1  0
  1 57  1  0
  7 58  1  0
  8 59  1  0
  9 60  1  0
 10 61  1  0
 12 62  1  0
 14 63  1  6
 15 64  1  6
 16 65  1  0
 16 66  1  0
 18 67  1  0
 18 68  1  0
 19 69  1  0
 19 70  1  0
 20 71  1  0
 20 72  1  0
 20 73  1  0
 22 74  1  0
 24 75  1  0
 24 76  1  0
 34 77  1  0
 35 78  1  0
 36 79  1  0
 37 80  1  0
 39 81  1  0
 41 82  1  6
 42 83  1  6
 43 84  1  0
 43 85  1  0
 45 86  1  0
 45 87  1  0
 46 88  1  0
 46 89  1  0
 47 90  1  0
 47 91  1  0
 47 92  1  0
 49 93  1  0
 51 94  1  0
 51 95  1  0
M  END
> <Uni-Dock RESULT> 
ENERGY=   -4.919  LOWER_BOUND=    5.833  UPPER_BOUND=    7.703
INTER + INTRA:          -4.919
INTER:                  -4.919
INTRA:                   0.000
UNBOUND:                 0.000

$$$$

     RDKit          3D

 95100  0  0  0  0  0  0  0  0999 V2000
   50.5224    9.2876   13.3217 O   0  0  0  0  0  0  0  0  0  0  0  0
   49.4095   10.5243   18.4540 N   0  0  0  0  0  0  0  0  0  0  0  0
   49.0779   11.3122   17.3942 C   0  0  0  0  0  0  0  0  0  0  0  0
   49.1464   11.0366   16.0409 C   0  0  0  0  0  0  0  0  0  0  0  0
   49.6261    9.7575   15.6954 N   0  0  0  0  0  0  0  0  0  0  0  0
   50.0041    8.9234   16.7279 C   0  0  0  0  0  0  0  0  0  0  0  0
   49.8711    9.3463   18.1085 C   0  0  0  0  0  0  0  0  0  0  0  0
   48.7202   12.1651   15.3236 C   0  0  0  0  0  0  0  0  0  0  0  0
   48.3858   13.1170   16.2707 C   0  0  0  0  0  0  0  0  0  0  0  0
   48.6051   12.5876   17.5227 N   0  0  0  0  0  0  0  0  0  0  0  0
   50.4864    7.7810   16.2961 N   0  0  0  0  0  0  0  0  0  0  0  0
   50.4152    7.8798   14.9298 C   0  0  0  0  0  0  0  0  0  0  0  0
   49.8379    9.0735   14.5151 C   0  0  0  0  0  0  0  0  0  0  0  0
   49.5246    9.6045   13.1448 C   0  0  2  0  0  0  0  0  0  0  0  0
   48.8550    8.6123   12.1677 C   0  0  1  0  0  0  0  0  0  0  0  0
   50.0297    7.8702   11.5254 C   0  0  0  0  0  0  0  0  0  0  0  0
   51.1445    8.8035   11.5943 N   0  0  0  0  0  0  0  0  0  0  0  0
   50.8057    9.9803   12.3844 C   0  0  0  0  0  0  0  0  0  0  0  0
   47.7704    7.6803   12.7113 C   0  0  0  0  0  0  0  0  0  0  0  0
   46.5862    8.4319   13.3019 C   0  0  0  0  0  0  0  0  0  0  0  0
   52.4073    8.6530   11.0870 C   0  0  0  0  0  0  0  0  0  0  0  0
   52.6238    7.4842   10.4071 N   0  0  0  0  0  0  0  0  0  0  0  0
   53.2944    9.4848   11.2465 O   0  0  0  0  0  0  0  0  0  0  0  0
   53.8985    7.2834    9.7149 C   0  0  0  0  0  0  0  0  0  0  0  0
   54.0112    7.9830    8.3575 C   0  0  0  0  0  0  0  0  0  0  0  0
   55.1641    7.6369    7.7399 F   0  0  0  0  0  0  0  0  0  0  0  0
   53.9799    9.3265    8.4423 F   0  0  0  0  0  0  0  0  0  0  0  0
   52.9923    7.5974    7.5485 F   0  0  0  0  0  0  0  0  0  0  0  0
   47.8794   10.3949   18.2247 N   0  0  0  0  0  0  0  0  0  0  0  0
   48.4551   11.2091   17.2965 C   0  0  0  0  0  0  0  0  0  0  0  0
   49.0738   10.8770   16.1069 C   0  0  0  0  0  0  0  0  0  0  0  0
   49.1212    9.5062   15.7980 N   0  0  0  0  0  0  0  0  0  0  0  0
   48.5542    8.6294   16.6988 C   0  0  0  0  0  0  0  0  0  0  0  0
   47.9364    9.1210   17.9154 C   0  0  0  0  0  0  0  0  0  0  0  0
   49.5190   12.0473   15.4752 C   0  0  0  0  0  0  0  0  0  0  0  0
   49.1538   13.0900   16.3085 C   0  0  0  0  0  0  0  0  0  0  0  0
   48.5109   12.5697   17.4105 N   0  0  0  0  0  0  0  0  0  0  0  0
   48.6554    7.3797   16.3063 N   0  0  0  0  0  0  0  0  0  0  0  0
   49.3079    7.4540   15.1007 C   0  0  0  0  0  0  0  0  0  0  0  0
   49.6165    8.7613   14.7495 C   0  0  0  0  0  0  0  0  0  0  0  0
   50.3172    9.3288   13.5638 C   0  0  2  0  0  0  0  0  0  0  0  0
   49.4217    9.8878   12.4321 C   0  0  1  0  0  0  0  0  0  0  0  0
   50.4553   10.0262   11.2994 C   0  0  0  0  0  0  0  0  0  0  0  0
   51.3836    8.9266   11.4940 N   0  0  0  0  0  0  0  0  0  0  0  0
   51.2379    8.3486   12.8214 C   0  0  0  0  0  0  0  0  0  0  0  0
   48.2515    8.9881   11.9799 C   0  0  0  0  0  0  0  0  0  0  0  0
   46.9617    9.2430   12.7504 C   0  0  0  0  0  0  0  0  0  0  0  0
   52.3538    8.6595   10.5646 C   0  0  0  0  0  0  0  0  0  0  0  0
   53.1671    7.6025   10.8744 N   0  0  0  0  0  0  0  0  0  0  0  0
   52.5052    9.3239    9.5459 O   0  0  0  0  0  0  0  0  0  0  0  0
   54.1709    7.1603    9.9043 C   0  0  0  0  0  0  0  0  0  0  0  0
   53.6351    6.2930    8.7614 C   0  0  0  0  0  0  0  0  0  0  0  0
   52.7812    6.9433    7.9481 F   0  0  0  0  0  0  0  0  0  0  0  0
   54.6557    5.8272    8.0026 F   0  0  0  0  0  0  0  0  0  0  0  0
   52.9854    5.2119    9.2617 F   0  0  0  0  0  0  0  0  0  0  0  0
   50.2757    8.7297   12.5689 H   0  0  0  0  0  0  0  0  0  0  0  0
   49.6811    9.4567   13.7719 H   0  0  0  0  0  0  0  0  0  0  0  0
   50.1752    8.6395   18.8968 H   0  0  0  0  0  0  0  0  0  0  0  0
   48.6587   12.3187   14.2558 H   0  0  0  0  0  0  0  0  0  0  0  0
   48.0182   14.1291   16.1647 H   0  0  0  0  0  0  0  0  0  0  0  0
   48.4579   13.0555   18.4061 H   0  0  0  0  0  0  0  0  0  0  0  0
   50.7759    7.0687   14.3097 H   0  0  0  0  0  0  0  0  0  0  0  0
   48.8781   10.4792   13.2294 H   0  0  0  0  0  0  0  0  0  0  0  0
   48.3956    9.2195   11.3716 H   0  0  0  0  0  0  0  0  0  0  0  0
   50.3055    6.9551   12.0588 H   0  0  0  0  0  0  0  0  0  0  0  0
   49.8183    7.6135   10.4822 H   0  0  0  0  0  0  0  0  0  0  0  0
   51.6383   10.2777   13.0312 H   0  0  0  0  0  0  0  0  0  0  0  0
   50.6101   10.7933   11.6743 H   0  0  0  0  0  0  0  0  0  0  0  0
   47.4059    7.0499   11.8907 H   0  0  0  0  0  0  0  0  0  0  0  0
   48.1755    6.9944   13.4625 H   0  0  0  0  0  0  0  0  0  0  0  0
   46.8764    9.0162   14.1791 H   0  0  0  0  0  0  0  0  0  0  0  0
   45.8103    7.7256   13.6149 H   0  0  0  0  0  0  0  0  0  0  0  0
   46.1464    9.1123   12.5662 H   0  0  0  0  0  0  0  0  0  0  0  0
   51.8136    7.0693    9.9743 H   0  0  0  0  0  0  0  0  0  0  0  0
   53.9985    6.2025    9.5694 H   0  0  0  0  0  0  0  0  0  0  0  0
   54.7151    7.6119   10.3672 H   0  0  0  0  0  0  0  0  0  0  0  0
   47.4960    8.3848   18.6063 H   0  0  0  0  0  0  0  0  0  0  0  0
   50.0437   12.1611   14.5371 H   0  0  0  0  0  0  0  0  0  0  0  0
   49.2957   14.1589   16.2145 H   0  0  0  0  0  0  0  0  0  0  0  0
   48.1319   13.0944   18.1874 H   0  0  0  0  0  0  0  0  0  0  0  0
   49.5195    6.5502   14.5423 H   0  0  0  0  0  0  0  0  0  0  0  0
   50.9674   10.1445   13.9096 H   0  0  0  0  0  0  0  0  0  0  0  0
   49.0277   10.8784   12.6843 H   0  0  0  0  0  0  0  0  0  0  0  0
   50.0293   10.0010   10.2916 H   0  0  0  0  0  0  0  0  0  0  0  0
   51.0226   10.9590   11.4069 H   0  0  0  0  0  0  0  0  0  0  0  0
   50.8034    7.3514   12.6973 H   0  0  0  0  0  0  0  0  0  0  0  0
   52.2119    8.2462   13.3107 H   0  0  0  0  0  0  0  0  0  0  0  0
   48.5162    7.9269   12.0444 H   0  0  0  0  0  0  0  0  0  0  0  0
   48.0292    9.1870   10.9241 H   0  0  0  0  0  0  0  0  0  0  0  0
   46.1485    8.6501   12.3192 H   0  0  0  0  0  0  0  0  0  0  0  0
   47.0445    8.9676   13.8028 H   0  0  0  0  0  0  0  0  0  0  0  0
   46.6718   10.2966   12.6928 H   0  0  0  0  0  0  0  0  0  0  0  0
   52.7334    6.8772   11.4260 H   0  0  0  0  0  0  0  0  0  0  0  0
   54.9085    6.5841   10.4730 H   0  0  0  0  0  0  0  0  0  0  0  0
   54.6787    8.0389    9.4920 H   0  0  0  0  0  0  0  0  0  0  0  0
  2  3  1  0
  4  5  1  0
  6  7  1  0
  7  2  2  0
  3 10  1  0
  3  4  2  0
  4  8  1  0
  8  9  2  0
  9 10  1  0
  5 13  1  0
  5  6  1  0
  6 11  2  0
 11 12  1  0
 12 13  2  0
 14 13  1  0
 14 15  1  0
 14 18  1  0
 15 16  1  0
 16 17  1  0
 17 18  1  0
 15 19  1  0
 19 20  1  0
 17 21  1  0
 21 22  1  0
 21 23  2  0
 22 24  1  0
 24 25  1  0
 25 26  1  0
 25 27  1  0
 25 28  1  0
 29 30  1  0
 31 32  1  0
 33 34  1  0
 34 29  2  0
 30 37  1  0
 30 31  2  0
 31 35  1  0
 35 36  2  0
 36 37  1  0
 32 40  1  0
 32 33  1  0
 33 38  2  0
 38 39  1  0
 39 40  2  0
 41 40  1  0
 41 42  1  0
 41 45  1  0
 42 43  1  0
 43 44  1  0
 44 45  1  0
 42 46  1  0
 46 47  1  0
 44 48  1  0
 48 49  1  0
 48 50  2  0
 49 51  1  0
 51 52  1  0
 52 53  1  0
 52 54  1  0
 52 55  1  0
  1 56  1  0
  1 57  1  0
  7 58  1  0
  8 59  1  0
  9 60  1  0
 10 61  1  0
 12 62  1  0
 14 63  1  6
 15 64  1  6
 16 65  1  0
 16 66  1  0
 18 67  1  0
 18 68  1  0
 19 69  1  0
 19 70  1  0
 20 71  1  0
 20 72  1  0
 20 73  1  0
 22 74  1  0
 24 75  1  0
 24 76  1  0
 34 77  1  0
 35 78  1  0
 36 79  1  0
 37 80  1  0
 39 81  1  0
 41 82  1  6
 42 83  1  6
 43 84  1  0
 43 85  1  0
 45 86  1  0
 45 87  1  0
 46 88  1  0
 46 89  1  0
 47 90  1  0
 47 91  1  0
 47 92  1  0
 49 93  1  0
 51 94  1  0
 51 95  1  0
M  END
> <Uni-Dock RESULT> 
ENERGY=   -4.762  LOWER_BOUND=    4.510  UPPER_BOUND=    6.869
INTER + INTRA:          -4.762
INTER:                  -4.762
INTRA:                   0.000
UNBOUND:                 0.000

$$$$
