
     RDKit          3D

 95100  0  0  0  0  0  0  0  0999 V2000
   48.5275    8.6258   20.3265 O   0  0  0  0  0  0  0  0  0  0  0  0
   49.0011   14.0715   22.1010 N   0  0  0  0  0  0  0  0  0  0  0  0
   48.3048   13.3027   21.2183 C   0  0  0  0  0  0  0  0  0  0  0  0
   48.1775   11.9274   21.1650 C   0  0  0  0  0  0  0  0  0  0  0  0
   48.8695   11.2030   22.1555 N   0  0  0  0  0  0  0  0  0  0  0  0
   49.5486   11.9315   23.1100 C   0  0  0  0  0  0  0  0  0  0  0  0
   49.6056   13.3787   23.0363 C   0  0  0  0  0  0  0  0  0  0  0  0
   47.3182   11.5891   20.1084 C   0  0  0  0  0  0  0  0  0  0  0  0
   46.9585   12.7836   19.5105 C   0  0  0  0  0  0  0  0  0  0  0  0
   47.5668   13.8159   20.1893 N   0  0  0  0  0  0  0  0  0  0  0  0
   50.0510   11.1677   24.0510 N   0  0  0  0  0  0  0  0  0  0  0  0
   49.7008    9.8940   23.6745 C   0  0  0  0  0  0  0  0  0  0  0  0
   49.0346    9.8618   22.4562 C   0  0  0  0  0  0  0  0  0  0  0  0
   48.4977    8.7489   21.6171 C   0  0  2  0  0  0  0  0  0  0  0  0
   48.5687    7.2936   22.1529 C   0  0  1  0  0  0  0  0  0  0  0  0
   48.0724    6.5364   20.9020 C   0  0  0  0  0  0  0  0  0  0  0  0
   48.6280    7.2950   19.7826 N   0  0  0  0  0  0  0  0  0  0  0  0
   49.1315    8.5880   20.2317 C   0  0  0  0  0  0  0  0  0  0  0  0
   49.9713    6.7542   22.5300 C   0  0  0  0  0  0  0  0  0  0  0  0
   49.8892    5.4391   23.2989 C   0  0  0  0  0  0  0  0  0  0  0  0
   48.8296    6.8723   18.4958 C   0  0  0  0  0  0  0  0  0  0  0  0
   48.2968    5.6451   18.2094 N   0  0  0  0  0  0  0  0  0  0  0  0
   49.4437    7.5319   17.6640 O   0  0  0  0  0  0  0  0  0  0  0  0
   48.3897    5.1235   16.8441 C   0  0  0  0  0  0  0  0  0  0  0  0
   47.9348    3.6773   16.6900 C   0  0  0  0  0  0  0  0  0  0  0  0
   47.9553    3.2926   15.3953 F   0  0  0  0  0  0  0  0  0  0  0  0
   46.6664    3.5262   17.1421 F   0  0  0  0  0  0  0  0  0  0  0  0
   48.7196    2.8273   17.3872 F   0  0  0  0  0  0  0  0  0  0  0  0
   51.6676   13.0644   21.3512 N   0  0  0  0  0  0  0  0  0  0  0  0
   50.3307   13.0902   21.0921 C   0  0  0  0  0  0  0  0  0  0  0  0
   49.4266   12.0460   21.0508 C   0  0  0  0  0  0  0  0  0  0  0  0
   49.9498   10.7662   21.3151 N   0  0  0  0  0  0  0  0  0  0  0  0
   51.3045   10.6714   21.5570 C   0  0  0  0  0  0  0  0  0  0  0  0
   52.1362   11.8593   21.5746 C   0  0  0  0  0  0  0  0  0  0  0  0
   48.1588   12.5486   20.7200 C   0  0  0  0  0  0  0  0  0  0  0  0
   48.3172   13.9156   20.5760 C   0  0  0  0  0  0  0  0  0  0  0  0
   49.6379   14.2327   20.8052 N   0  0  0  0  0  0  0  0  0  0  0  0
   51.6930    9.4291   21.7306 N   0  0  0  0  0  0  0  0  0  0  0  0
   50.5410    8.6942   21.5990 C   0  0  0  0  0  0  0  0  0  0  0  0
   49.4239    9.4918   21.3873 C   0  0  0  0  0  0  0  0  0  0  0  0
   47.9677    9.1684   21.2010 C   0  0  2  0  0  0  0  0  0  0  0  0
   47.4178    7.9374   21.9586 C   0  0  1  0  0  0  0  0  0  0  0  0
   47.7403    6.7583   21.0366 C   0  0  0  0  0  0  0  0  0  0  0  0
   47.7866    7.3371   19.7009 N   0  0  0  0  0  0  0  0  0  0  0  0
   47.6690    8.7879   19.7438 C   0  0  0  0  0  0  0  0  0  0  0  0
   47.8566    7.7702   23.4142 C   0  0  0  0  0  0  0  0  0  0  0  0
   47.1060    6.6470   24.1180 C   0  0  0  0  0  0  0  0  0  0  0  0
   47.7365    6.6727   18.5034 C   0  0  0  0  0  0  0  0  0  0  0  0
   47.8581    5.3127   18.6014 N   0  0  0  0  0  0  0  0  0  0  0  0
   47.5827    7.2426   17.4282 O   0  0  0  0  0  0  0  0  0  0  0  0
   47.9011    4.5096   17.3773 C   0  0  0  0  0  0  0  0  0  0  0  0
   47.8448    3.0044   17.6078 C   0  0  0  0  0  0  0  0  0  0  0  0
   47.9926    2.3258   16.4493 F   0  0  0  0  0  0  0  0  0  0  0  0
   48.8376    2.6125   18.4422 F   0  0  0  0  0  0  0  0  0  0  0  0
   46.6730    2.6251   18.1623 F   0  0  0  0  0  0  0  0  0  0  0  0
   48.4007    7.6842   20.5174 H   0  0  0  0  0  0  0  0  0  0  0  0
   48.7212    9.0158   21.1922 H   0  0  0  0  0  0  0  0  0  0  0  0
   50.1842   13.9132   23.8067 H   0  0  0  0  0  0  0  0  0  0  0  0
   46.9700   10.6154   19.7941 H   0  0  0  0  0  0  0  0  0  0  0  0
   46.3171   12.9912   18.6638 H   0  0  0  0  0  0  0  0  0  0  0  0
   47.4812   14.8022   19.9848 H   0  0  0  0  0  0  0  0  0  0  0  0
   49.9624    9.0644   24.3178 H   0  0  0  0  0  0  0  0  0  0  0  0
   47.4257    8.9626   21.4799 H   0  0  0  0  0  0  0  0  0  0  0  0
   47.8826    7.1583   22.9970 H   0  0  0  0  0  0  0  0  0  0  0  0
   48.3770    5.4877   20.8552 H   0  0  0  0  0  0  0  0  0  0  0  0
   46.9804    6.5886   20.8209 H   0  0  0  0  0  0  0  0  0  0  0  0
   48.8579    9.3641   19.5145 H   0  0  0  0  0  0  0  0  0  0  0  0
   50.2262    8.5419   20.2735 H   0  0  0  0  0  0  0  0  0  0  0  0
   50.5871    6.5947   21.6366 H   0  0  0  0  0  0  0  0  0  0  0  0
   50.5253    7.4576   23.1496 H   0  0  0  0  0  0  0  0  0  0  0  0
   50.8946    5.0986   23.5674 H   0  0  0  0  0  0  0  0  0  0  0  0
   49.4175    4.6502   22.7061 H   0  0  0  0  0  0  0  0  0  0  0  0
   49.3175    5.5633   24.2243 H   0  0  0  0  0  0  0  0  0  0  0  0
   47.4466    5.4317   18.7109 H   0  0  0  0  0  0  0  0  0  0  0  0
   49.4273    5.2215   16.5061 H   0  0  0  0  0  0  0  0  0  0  0  0
   47.7733    5.7707   16.2101 H   0  0  0  0  0  0  0  0  0  0  0  0
   53.2103   11.7355   21.7861 H   0  0  0  0  0  0  0  0  0  0  0  0
   47.2263   12.0204   20.5835 H   0  0  0  0  0  0  0  0  0  0  0  0
   47.6071   14.6922   20.3231 H   0  0  0  0  0  0  0  0  0  0  0  0
   50.0500   15.1545   20.7620 H   0  0  0  0  0  0  0  0  0  0  0  0
   50.5793    7.6155   21.6782 H   0  0  0  0  0  0  0  0  0  0  0  0
   47.3726   10.0354   21.5006 H   0  0  0  0  0  0  0  0  0  0  0  0
   46.3217    8.0467   21.9591 H   0  0  0  0  0  0  0  0  0  0  0  0
   46.9736    5.9779   21.0828 H   0  0  0  0  0  0  0  0  0  0  0  0
   48.7131    6.3053   21.2494 H   0  0  0  0  0  0  0  0  0  0  0  0
   46.6336    9.0379   19.4821 H   0  0  0  0  0  0  0  0  0  0  0  0
   48.3341    9.2513   19.0071 H   0  0  0  0  0  0  0  0  0  0  0  0
   47.6766    8.7065   23.9558 H   0  0  0  0  0  0  0  0  0  0  0  0
   48.9273    7.5580   23.4864 H   0  0  0  0  0  0  0  0  0  0  0  0
   47.4157    6.5866   25.1662 H   0  0  0  0  0  0  0  0  0  0  0  0
   47.3105    5.6784   23.6516 H   0  0  0  0  0  0  0  0  0  0  0  0
   46.0256    6.8208   24.0947 H   0  0  0  0  0  0  0  0  0  0  0  0
   48.4557    5.0039   19.3550 H   0  0  0  0  0  0  0  0  0  0  0  0
   48.8309    4.7665   16.8572 H   0  0  0  0  0  0  0  0  0  0  0  0
   47.0681    4.8148   16.7343 H   0  0  0  0  0  0  0  0  0  0  0  0
  2  3  1  0
  4  5  1  0
  6  7  1  0
  7  2  2  0
  3 10  1  0
  3  4  2  0
  4  8  1  0
  8  9  2  0
  9 10  1  0
  5 13  1  0
  5  6  1  0
  6 11  2  0
 11 12  1  0
 12 13  2  0
 14 13  1  0
 14 15  1  0
 14 18  1  0
 15 16  1  0
 16 17  1  0
 17 18  1  0
 15 19  1  0
 19 20  1  0
 17 21  1  0
 21 22  1  0
 21 23  2  0
 22 24  1  0
 24 25  1  0
 25 26  1  0
 25 27  1  0
 25 28  1  0
 29 30  1  0
 31 32  1  0
 33 34  1  0
 34 29  2  0
 30 37  1  0
 30 31  2  0
 31 35  1  0
 35 36  2  0
 36 37  1  0
 32 40  1  0
 32 33  1  0
 33 38  2  0
 38 39  1  0
 39 40  2  0
 41 40  1  0
 41 42  1  0
 41 45  1  0
 42 43  1  0
 43 44  1  0
 44 45  1  0
 42 46  1  0
 46 47  1  0
 44 48  1  0
 48 49  1  0
 48 50  2  0
 49 51  1  0
 51 52  1  0
 52 53  1  0
 52 54  1  0
 52 55  1  0
  1 56  1  0
  1 57  1  0
  7 58  1  0
  8 59  1  0
  9 60  1  0
 10 61  1  0
 12 62  1  0
 14 63  1  6
 15 64  1  6
 16 65  1  0
 16 66  1  0
 18 67  1  0
 18 68  1  0
 19 69  1  0
 19 70  1  0
 20 71  1  0
 20 72  1  0
 20 73  1  0
 22 74  1  0
 24 75  1  0
 24 76  1  0
 34 77  1  0
 35 78  1  0
 36 79  1  0
 37 80  1  0
 39 81  1  0
 41 82  1  6
 42 83  1  6
 43 84  1  0
 43 85  1  0
 45 86  1  0
 45 87  1  0
 46 88  1  0
 46 89  1  0
 47 90  1  0
 47 91  1  0
 47 92  1  0
 49 93  1  0
 51 94  1  0
 51 95  1  0
M  END
> <Uni-Dock RESULT> 
ENERGY=   -6.542  LOWER_BOUND=    0.000  UPPER_BOUND=    0.000
INTER + INTRA:          -6.542
INTER:                  -6.542
INTRA:                   0.000
UNBOUND:                 0.000

$$$$

     RDKit          3D

 95100  0  0  0  0  0  0  0  0999 V2000
   50.5627    8.6019   15.8370 O   0  0  0  0  0  0  0  0  0  0  0  0
   53.7855   13.3235   15.2461 N   0  0  0  0  0  0  0  0  0  0  0  0
   53.8799   12.0178   15.6221 C   0  0  0  0  0  0  0  0  0  0  0  0
   52.9901   10.9805   15.4161 C   0  0  0  0  0  0  0  0  0  0  0  0
   51.8060   11.3085   14.7267 N   0  0  0  0  0  0  0  0  0  0  0  0
   51.6795   12.6053   14.2736 C   0  0  0  0  0  0  0  0  0  0  0  0
   52.6939   13.5975   14.5728 C   0  0  0  0  0  0  0  0  0  0  0  0
   53.5373    9.7989   15.9390 C   0  0  0  0  0  0  0  0  0  0  0  0
   54.7561   10.1527   16.4895 C   0  0  0  0  0  0  0  0  0  0  0  0
   54.9511   11.5021   16.2955 N   0  0  0  0  0  0  0  0  0  0  0  0
   50.6038   12.7709   13.5409 N   0  0  0  0  0  0  0  0  0  0  0  0
   50.0016   11.5364   13.5418 C   0  0  0  0  0  0  0  0  0  0  0  0
   50.6729   10.6158   14.3361 C   0  0  0  0  0  0  0  0  0  0  0  0
   50.4055    9.1900   14.6920 C   0  0  2  0  0  0  0  0  0  0  0  0
   49.2049    8.4573   14.0349 C   0  0  1  0  0  0  0  0  0  0  0  0
   49.2501    7.1323   14.8266 C   0  0  0  0  0  0  0  0  0  0  0  0
   49.6537    7.5351   16.1727 N   0  0  0  0  0  0  0  0  0  0  0  0
   50.1526    8.9056   16.1759 C   0  0  0  0  0  0  0  0  0  0  0  0
   47.8062    9.0960   14.2245 C   0  0  0  0  0  0  0  0  0  0  0  0
   46.7602    8.4600   13.3140 C   0  0  0  0  0  0  0  0  0  0  0  0
   49.4810    6.8489   17.3450 C   0  0  0  0  0  0  0  0  0  0  0  0
   49.0153    5.5713   17.1937 N   0  0  0  0  0  0  0  0  0  0  0  0
   49.7155    7.3362   18.4457 O   0  0  0  0  0  0  0  0  0  0  0  0
   48.8602    4.7195   18.3748 C   0  0  0  0  0  0  0  0  0  0  0  0
   48.1585    3.3935   18.1075 C   0  0  0  0  0  0  0  0  0  0  0  0
   48.1352    2.6197   19.2144 F   0  0  0  0  0  0  0  0  0  0  0  0
   48.8024    2.7010   17.1370 F   0  0  0  0  0  0  0  0  0  0  0  0
   46.8830    3.5738   17.7012 F   0  0  0  0  0  0  0  0  0  0  0  0
   51.4410   13.9568   16.9162 N   0  0  0  0  0  0  0  0  0  0  0  0
   52.4037   13.0555   16.5755 C   0  0  0  0  0  0  0  0  0  0  0  0
   52.2661   11.7758   16.0725 C   0  0  0  0  0  0  0  0  0  0  0  0
   50.9459   11.3283   15.8772 N   0  0  0  0  0  0  0  0  0  0  0  0
   49.9255   12.1865   16.2309 C   0  0  0  0  0  0  0  0  0  0  0  0
   50.2191   13.5105   16.7448 C   0  0  0  0  0  0  0  0  0  0  0  0
   53.5392   11.2128   15.8944 C   0  0  0  0  0  0  0  0  0  0  0  0
   54.4430   12.1836   16.2883 C   0  0  0  0  0  0  0  0  0  0  0  0
   53.7431   13.2969   16.6981 N   0  0  0  0  0  0  0  0  0  0  0  0
   48.7405   11.6458   16.0640 N   0  0  0  0  0  0  0  0  0  0  0  0
   49.0085   10.3897   15.5794 C   0  0  0  0  0  0  0  0  0  0  0  0
   50.3680   10.1679   15.4026 C   0  0  0  0  0  0  0  0  0  0  0  0
   51.1449    8.9851   14.8953 C   0  0  2  0  0  0  0  0  0  0  0  0
   50.4732    8.1170   13.8058 C   0  0  1  0  0  0  0  0  0  0  0  0
   49.6028    7.1359   14.5957 C   0  0  0  0  0  0  0  0  0  0  0  0
   50.2613    7.0184   15.8895 N   0  0  0  0  0  0  0  0  0  0  0  0
   51.3707    7.9540   16.0102 C   0  0  0  0  0  0  0  0  0  0  0  0
   49.7618    8.8591   12.6734 C   0  0  0  0  0  0  0  0  0  0  0  0
   49.3122    7.9206   11.5610 C   0  0  0  0  0  0  0  0  0  0  0  0
   50.0647    6.0501   16.8390 C   0  0  0  0  0  0  0  0  0  0  0  0
   48.9888    5.2360   16.6075 N   0  0  0  0  0  0  0  0  0  0  0  0
   50.7967    5.9101   17.8132 O   0  0  0  0  0  0  0  0  0  0  0  0
   48.6362    4.2190   17.6008 C   0  0  0  0  0  0  0  0  0  0  0  0
   47.5475    3.2511   17.1538 C   0  0  0  0  0  0  0  0  0  0  0  0
   47.2007    2.4094   18.1516 F   0  0  0  0  0  0  0  0  0  0  0  0
   46.4335    3.9259   16.7809 F   0  0  0  0  0  0  0  0  0  0  0  0
   47.9424    2.5031   16.1006 F   0  0  0  0  0  0  0  0  0  0  0  0
   49.9331    7.9596   15.4764 H   0  0  0  0  0  0  0  0  0  0  0  0
   50.5352    9.3362   15.2053 H   0  0  0  0  0  0  0  0  0  0  0  0
   52.5330   14.6262   14.2126 H   0  0  0  0  0  0  0  0  0  0  0  0
   53.1360    8.7953   15.9287 H   0  0  0  0  0  0  0  0  0  0  0  0
   55.5064    9.5612   16.9980 H   0  0  0  0  0  0  0  0  0  0  0  0
   55.7571   12.0401   16.5834 H   0  0  0  0  0  0  0  0  0  0  0  0
   49.1004   11.3901   12.9613 H   0  0  0  0  0  0  0  0  0  0  0  0
   51.3012    8.6275   14.3838 H   0  0  0  0  0  0  0  0  0  0  0  0
   49.3916    8.2887   12.9680 H   0  0  0  0  0  0  0  0  0  0  0  0
   48.3051    6.5834   14.8479 H   0  0  0  0  0  0  0  0  0  0  0  0
   50.0318    6.4700   14.4365 H   0  0  0  0  0  0  0  0  0  0  0  0
   51.0387    8.9782   16.8093 H   0  0  0  0  0  0  0  0  0  0  0  0
   49.3815    9.5577   16.6031 H   0  0  0  0  0  0  0  0  0  0  0  0
   47.4652    9.0006   15.2624 H   0  0  0  0  0  0  0  0  0  0  0  0
   47.8138   10.1640   14.0123 H   0  0  0  0  0  0  0  0  0  0  0  0
   45.7911    8.9486   13.4582 H   0  0  0  0  0  0  0  0  0  0  0  0
   46.6310    7.3947   13.5253 H   0  0  0  0  0  0  0  0  0  0  0  0
   47.0400    8.5711   12.2614 H   0  0  0  0  0  0  0  0  0  0  0  0
   49.3258    5.1109   16.3501 H   0  0  0  0  0  0  0  0  0  0  0  0
   48.3085    5.2815   19.1366 H   0  0  0  0  0  0  0  0  0  0  0  0
   49.8652    4.5292   18.7680 H   0  0  0  0  0  0  0  0  0  0  0  0
   49.3712   14.1657   17.0005 H   0  0  0  0  0  0  0  0  0  0  0  0
   53.8100   10.2294   15.5385 H   0  0  0  0  0  0  0  0  0  0  0  0
   55.5248   12.1786   16.3203 H   0  0  0  0  0  0  0  0  0  0  0  0
   54.1381   14.1593   17.0471 H   0  0  0  0  0  0  0  0  0  0  0  0
   48.1935    9.7091   15.3695 H   0  0  0  0  0  0  0  0  0  0  0  0
   52.1012    9.3353   14.4975 H   0  0  0  0  0  0  0  0  0  0  0  0
   51.2819    7.5243   13.3494 H   0  0  0  0  0  0  0  0  0  0  0  0
   49.5448    6.1553   14.1120 H   0  0  0  0  0  0  0  0  0  0  0  0
   48.5861    7.5053   14.7593 H   0  0  0  0  0  0  0  0  0  0  0  0
   52.2937    7.3881   15.8340 H   0  0  0  0  0  0  0  0  0  0  0  0
   51.4112    8.3770   17.0198 H   0  0  0  0  0  0  0  0  0  0  0  0
   50.4414    9.6074   12.2486 H   0  0  0  0  0  0  0  0  0  0  0  0
   48.8814    9.3956   13.0391 H   0  0  0  0  0  0  0  0  0  0  0  0
   48.8470    8.4922   10.7516 H   0  0  0  0  0  0  0  0  0  0  0  0
   48.5775    7.1956   11.9247 H   0  0  0  0  0  0  0  0  0  0  0  0
   50.1614    7.3718   11.1421 H   0  0  0  0  0  0  0  0  0  0  0  0
   48.2143    5.6942   16.1486 H   0  0  0  0  0  0  0  0  0  0  0  0
   48.3077    4.7500   18.5014 H   0  0  0  0  0  0  0  0  0  0  0  0
   49.5422    3.6597   17.8594 H   0  0  0  0  0  0  0  0  0  0  0  0
  2  3  1  0
  4  5  1  0
  6  7  1  0
  7  2  2  0
  3 10  1  0
  3  4  2  0
  4  8  1  0
  8  9  2  0
  9 10  1  0
  5 13  1  0
  5  6  1  0
  6 11  2  0
 11 12  1  0
 12 13  2  0
 14 13  1  0
 14 15  1  0
 14 18  1  0
 15 16  1  0
 16 17  1  0
 17 18  1  0
 15 19  1  0
 19 20  1  0
 17 21  1  0
 21 22  1  0
 21 23  2  0
 22 24  1  0
 24 25  1  0
 25 26  1  0
 25 27  1  0
 25 28  1  0
 29 30  1  0
 31 32  1  0
 33 34  1  0
 34 29  2  0
 30 37  1  0
 30 31  2  0
 31 35  1  0
 35 36  2  0
 36 37  1  0
 32 40  1  0
 32 33  1  0
 33 38  2  0
 38 39  1  0
 39 40  2  0
 41 40  1  0
 41 42  1  0
 41 45  1  0
 42 43  1  0
 43 44  1  0
 44 45  1  0
 42 46  1  0
 46 47  1  0
 44 48  1  0
 48 49  1  0
 48 50  2  0
 49 51  1  0
 51 52  1  0
 52 53  1  0
 52 54  1  0
 52 55  1  0
  1 56  1  0
  1 57  1  0
  7 58  1  0
  8 59  1  0
  9 60  1  0
 10 61  1  0
 12 62  1  0
 14 63  1  6
 15 64  1  6
 16 65  1  0
 16 66  1  0
 18 67  1  0
 18 68  1  0
 19 69  1  0
 19 70  1  0
 20 71  1  0
 20 72  1  0
 20 73  1  0
 22 74  1  0
 24 75  1  0
 24 76  1  0
 34 77  1  0
 35 78  1  0
 36 79  1  0
 37 80  1  0
 39 81  1  0
 41 82  1  6
 42 83  1  6
 43 84  1  0
 43 85  1  0
 45 86  1  0
 45 87  1  0
 46 88  1  0
 46 89  1  0
 47 90  1  0
 47 91  1  0
 47 92  1  0
 49 93  1  0
 51 94  1  0
 51 95  1  0
M  END
> <Uni-Dock RESULT> 
ENERGY=   -5.212  LOWER_BOUND=    4.499  UPPER_BOUND=    6.548
INTER + INTRA:          -5.212
INTER:                  -5.212
INTRA:                   0.000
UNBOUND:                 0.000

$$$$

     RDKit          3D

 95100  0  0  0  0  0  0  0  0999 V2000
   44.2643   12.8151   10.1382 O   0  0  0  0  0  0  0  0  0  0  0  0
   49.4958   13.6844    7.9236 N   0  0  0  0  0  0  0  0  0  0  0  0
   48.2716   13.1925    7.5853 C   0  0  0  0  0  0  0  0  0  0  0  0
   47.0584   13.3431    8.2301 C   0  0  0  0  0  0  0  0  0  0  0  0
   47.0774   14.1060    9.4144 N   0  0  0  0  0  0  0  0  0  0  0  0
   48.2803   14.6752    9.7779 C   0  0  0  0  0  0  0  0  0  0  0  0
   49.4828   14.4227    9.0075 C   0  0  0  0  0  0  0  0  0  0  0  0
   46.0612   12.6974    7.4833 C   0  0  0  0  0  0  0  0  0  0  0  0
   46.7035   12.1309    6.3968 C   0  0  0  0  0  0  0  0  0  0  0  0
   48.0448   12.4338    6.4719 N   0  0  0  0  0  0  0  0  0  0  0  0
   48.1604   15.4625   10.8205 N   0  0  0  0  0  0  0  0  0  0  0  0
   46.8311   15.3784   11.1557 C   0  0  0  0  0  0  0  0  0  0  0  0
   46.1351   14.4803   10.3569 C   0  0  0  0  0  0  0  0  0  0  0  0
   44.7167   14.0125   10.3463 C   0  0  2  0  0  0  0  0  0  0  0  0
   43.7006   14.6513   11.3310 C   0  0  1  0  0  0  0  0  0  0  0  0
   42.4793   13.7458   11.0608 C   0  0  0  0  0  0  0  0  0  0  0  0
   43.0600   12.4248   10.8269 N   0  0  0  0  0  0  0  0  0  0  0  0
   44.5006   12.5209   10.6207 C   0  0  0  0  0  0  0  0  0  0  0  0
   44.0453   14.5750   12.8396 C   0  0  0  0  0  0  0  0  0  0  0  0
   43.1364   15.4681   13.6785 C   0  0  0  0  0  0  0  0  0  0  0  0
   42.4450   11.2051   10.9226 C   0  0  0  0  0  0  0  0  0  0  0  0
   41.0905   11.2631   11.1068 N   0  0  0  0  0  0  0  0  0  0  0  0
   43.0537   10.1425   10.8570 O   0  0  0  0  0  0  0  0  0  0  0  0
   40.3186   10.0194   11.1518 C   0  0  0  0  0  0  0  0  0  0  0  0
   38.8586   10.1983   11.5501 C   0  0  0  0  0  0  0  0  0  0  0  0
   38.1845    9.0300   11.4781 F   0  0  0  0  0  0  0  0  0  0  0  0
   38.2435   11.0778   10.7229 F   0  0  0  0  0  0  0  0  0  0  0  0
   38.7362   10.6701   12.8098 F   0  0  0  0  0  0  0  0  0  0  0  0
   49.7512   12.1723   10.4407 N   0  0  0  0  0  0  0  0  0  0  0  0
   49.0477   12.3938    9.2956 C   0  0  0  0  0  0  0  0  0  0  0  0
   47.7328   12.7885    9.1385 C   0  0  0  0  0  0  0  0  0  0  0  0
   47.0053   12.9973   10.3253 N   0  0  0  0  0  0  0  0  0  0  0  0
   47.6557   12.7615   11.5188 C   0  0  0  0  0  0  0  0  0  0  0  0
   49.0473   12.3536   11.5331 C   0  0  0  0  0  0  0  0  0  0  0  0
   47.4366   12.8651    7.7689 C   0  0  0  0  0  0  0  0  0  0  0  0
   48.6022   12.5210    7.1077 C   0  0  0  0  0  0  0  0  0  0  0  0
   49.5727   12.2386    8.0435 N   0  0  0  0  0  0  0  0  0  0  0  0
   46.8679   12.9285   12.5559 N   0  0  0  0  0  0  0  0  0  0  0  0
   45.6621   13.2905   12.0085 C   0  0  0  0  0  0  0  0  0  0  0  0
   45.7167   13.3920   10.6245 C   0  0  0  0  0  0  0  0  0  0  0  0
   44.6872   13.7623    9.5936 C   0  0  2  0  0  0  0  0  0  0  0  0
   43.6166   14.7982   10.0089 C   0  0  1  0  0  0  0  0  0  0  0  0
   42.5388   13.9617   10.7037 C   0  0  0  0  0  0  0  0  0  0  0  0
   42.6616   12.6370   10.1109 N   0  0  0  0  0  0  0  0  0  0  0  0
   43.8150   12.5534    9.2258 C   0  0  0  0  0  0  0  0  0  0  0  0
   44.1041   16.0189   10.7908 C   0  0  0  0  0  0  0  0  0  0  0  0
   43.0097   17.0625   10.9733 C   0  0  0  0  0  0  0  0  0  0  0  0
   41.7495   11.6154   10.1592 C   0  0  0  0  0  0  0  0  0  0  0  0
   40.7131   11.8184   11.0301 N   0  0  0  0  0  0  0  0  0  0  0  0
   41.8411   10.6038    9.4716 O   0  0  0  0  0  0  0  0  0  0  0  0
   39.7242   10.7553   11.2234 C   0  0  0  0  0  0  0  0  0  0  0  0
   38.5185   11.1600   12.0628 C   0  0  0  0  0  0  0  0  0  0  0  0
   37.7022   10.1074   12.2866 F   0  0  0  0  0  0  0  0  0  0  0  0
   38.9147   11.6352   13.2681 F   0  0  0  0  0  0  0  0  0  0  0  0
   37.7910   12.1270   11.4627 F   0  0  0  0  0  0  0  0  0  0  0  0
   43.4787   13.1436   10.6007 H   0  0  0  0  0  0  0  0  0  0  0  0
   44.9258   13.5091   10.2791 H   0  0  0  0  0  0  0  0  0  0  0  0
   50.4243   14.8776    9.3549 H   0  0  0  0  0  0  0  0  0  0  0  0
   44.9982   12.6364    7.6689 H   0  0  0  0  0  0  0  0  0  0  0  0
   46.3228   11.5428    5.5719 H   0  0  0  0  0  0  0  0  0  0  0  0
   48.7599   12.1615    5.8114 H   0  0  0  0  0  0  0  0  0  0  0  0
   46.4553   15.9800   11.9727 H   0  0  0  0  0  0  0  0  0  0  0  0
   44.3319   14.2338    9.3380 H   0  0  0  0  0  0  0  0  0  0  0  0
   43.4933   15.6910   11.0524 H   0  0  0  0  0  0  0  0  0  0  0  0
   41.7482   13.7151   11.8728 H   0  0  0  0  0  0  0  0  0  0  0  0
   41.9673   14.0447   10.1388 H   0  0  0  0  0  0  0  0  0  0  0  0
   44.8054   11.8608    9.8065 H   0  0  0  0  0  0  0  0  0  0  0  0
   45.0078   12.1838   11.5325 H   0  0  0  0  0  0  0  0  0  0  0  0
   43.9608   13.5473   13.2131 H   0  0  0  0  0  0  0  0  0  0  0  0
   45.0717   14.8790   13.0389 H   0  0  0  0  0  0  0  0  0  0  0  0
   43.4211   15.4065   14.7339 H   0  0  0  0  0  0  0  0  0  0  0  0
   42.0872   15.1702   13.5985 H   0  0  0  0  0  0  0  0  0  0  0  0
   43.2223   16.5142   13.3672 H   0  0  0  0  0  0  0  0  0  0  0  0
   40.6418   12.0500   10.6603 H   0  0  0  0  0  0  0  0  0  0  0  0
   40.8096    9.3325   11.8502 H   0  0  0  0  0  0  0  0  0  0  0  0
   40.3735    9.5707   10.1537 H   0  0  0  0  0  0  0  0  0  0  0  0
   49.5283   12.1906   12.5107 H   0  0  0  0  0  0  0  0  0  0  0  0
   46.5071   13.1226    7.2820 H   0  0  0  0  0  0  0  0  0  0  0  0
   48.8262   12.4449    6.0516 H   0  0  0  0  0  0  0  0  0  0  0  0
   50.5229   11.9504    7.8546 H   0  0  0  0  0  0  0  0  0  0  0  0
   44.8121   13.4730   12.6531 H   0  0  0  0  0  0  0  0  0  0  0  0
   45.1981   14.1500    8.7081 H   0  0  0  0  0  0  0  0  0  0  0  0
   43.1729   15.1680    9.0708 H   0  0  0  0  0  0  0  0  0  0  0  0
   41.5336   14.3599   10.5313 H   0  0  0  0  0  0  0  0  0  0  0  0
   42.6989   13.8723   11.7822 H   0  0  0  0  0  0  0  0  0  0  0  0
   43.4428   12.6421    8.1978 H   0  0  0  0  0  0  0  0  0  0  0  0
   44.3134   11.5838    9.3314 H   0  0  0  0  0  0  0  0  0  0  0  0
   44.9432   16.4795   10.2556 H   0  0  0  0  0  0  0  0  0  0  0  0
   44.4711   15.7374   11.7821 H   0  0  0  0  0  0  0  0  0  0  0  0
   43.4073   17.9369   11.4983 H   0  0  0  0  0  0  0  0  0  0  0  0
   42.1772   16.6671   11.5634 H   0  0  0  0  0  0  0  0  0  0  0  0
   42.6201   17.3973   10.0067 H   0  0  0  0  0  0  0  0  0  0  0  0
   40.9624   12.3466   11.8543 H   0  0  0  0  0  0  0  0  0  0  0  0
   40.2425    9.9185   11.7053 H   0  0  0  0  0  0  0  0  0  0  0  0
   39.3884   10.4123   10.2384 H   0  0  0  0  0  0  0  0  0  0  0  0
  2  3  1  0
  4  5  1  0
  6  7  1  0
  7  2  2  0
  3 10  1  0
  3  4  2  0
  4  8  1  0
  8  9  2  0
  9 10  1  0
  5 13  1  0
  5  6  1  0
  6 11  2  0
 11 12  1  0
 12 13  2  0
 14 13  1  0
 14 15  1  0
 14 18  1  0
 15 16  1  0
 16 17  1  0
 17 18  1  0
 15 19  1  0
 19 20  1  0
 17 21  1  0
 21 22  1  0
 21 23  2  0
 22 24  1  0
 24 25  1  0
 25 26  1  0
 25 27  1  0
 25 28  1  0
 29 30  1  0
 31 32  1  0
 33 34  1  0
 34 29  2  0
 30 37  1  0
 30 31  2  0
 31 35  1  0
 35 36  2  0
 36 37  1  0
 32 40  1  0
 32 33  1  0
 33 38  2  0
 38 39  1  0
 39 40  2  0
 41 40  1  0
 41 42  1  0
 41 45  1  0
 42 43  1  0
 43 44  1  0
 44 45  1  0
 42 46  1  0
 46 47  1  0
 44 48  1  0
 48 49  1  0
 48 50  2  0
 49 51  1  0
 51 52  1  0
 52 53  1  0
 52 54  1  0
 52 55  1  0
  1 56  1  0
  1 57  1  0
  7 58  1  0
  8 59  1  0
  9 60  1  0
 10 61  1  0
 12 62  1  0
 14 63  1  6
 15 64  1  6
 16 65  1  0
 16 66  1  0
 18 67  1  0
 18 68  1  0
 19 69  1  0
 19 70  1  0
 20 71  1  0
 20 72  1  0
 20 73  1  0
 22 74  1  0
 24 75  1  0
 24 76  1  0
 34 77  1  0
 35 78  1  0
 36 79  1  0
 37 80  1  0
 39 81  1  0
 41 82  1  6
 42 83  1  6
 43 84  1  0
 43 85  1  0
 45 86  1  0
 45 87  1  0
 46 88  1  0
 46 89  1  0
 47 90  1  0
 47 91  1  0
 47 92  1  0
 49 93  1  0
 51 94  1  0
 51 95  1  0
M  END
> <Uni-Dock RESULT> 
ENERGY=   -4.940  LOWER_BOUND=   10.636  UPPER_BOUND=   12.862
INTER + INTRA:          -4.940
INTER:                  -4.940
INTRA:                   0.000
UNBOUND:                 0.000

$$$$

     RDKit          3D

 95100  0  0  0  0  0  0  0  0999 V2000
   51.6571    5.5636   18.6146 O   0  0  0  0  0  0  0  0  0  0  0  0
   54.8249    0.8827   17.5739 N   0  0  0  0  0  0  0  0  0  0  0  0
   53.5265    1.2874   17.6460 C   0  0  0  0  0  0  0  0  0  0  0  0
   53.0071    2.5682   17.6491 C   0  0  0  0  0  0  0  0  0  0  0  0
   53.9453    3.6167   17.5764 N   0  0  0  0  0  0  0  0  0  0  0  0
   55.2732    3.2660   17.4470 C   0  0  0  0  0  0  0  0  0  0  0  0
   55.6777    1.8735   17.4683 C   0  0  0  0  0  0  0  0  0  0  0  0
   51.6064    2.4928   17.6875 C   0  0  0  0  0  0  0  0  0  0  0  0
   51.2972    1.1455   17.7393 C   0  0  0  0  0  0  0  0  0  0  0  0
   52.4700    0.4240   17.7184 N   0  0  0  0  0  0  0  0  0  0  0  0
   56.0455    4.3106   17.2630 N   0  0  0  0  0  0  0  0  0  0  0  0
   55.1825    5.3786   17.2987 C   0  0  0  0  0  0  0  0  0  0  0  0
   53.8750    4.9992   17.5739 C   0  0  0  0  0  0  0  0  0  0  0  0
   52.6076    5.7680   17.7564 C   0  0  2  0  0  0  0  0  0  0  0  0
   52.6150    7.3048   17.5363 C   0  0  1  0  0  0  0  0  0  0  0  0
   51.1789    7.6357   17.9974 C   0  0  0  0  0  0  0  0  0  0  0  0
   50.9387    6.7125   19.1052 N   0  0  0  0  0  0  0  0  0  0  0  0
   51.9559    5.6679   19.1392 C   0  0  0  0  0  0  0  0  0  0  0  0
   53.6087    8.1297   18.3923 C   0  0  0  0  0  0  0  0  0  0  0  0
   53.7297    9.5681   17.8986 C   0  0  0  0  0  0  0  0  0  0  0  0
   50.0113    6.8214   20.1067 C   0  0  0  0  0  0  0  0  0  0  0  0
   49.1127    7.8399   19.9426 N   0  0  0  0  0  0  0  0  0  0  0  0
   49.9868    6.0745   21.0791 O   0  0  0  0  0  0  0  0  0  0  0  0
   48.0315    8.0068   20.9162 C   0  0  0  0  0  0  0  0  0  0  0  0
   47.2135    9.2799   20.7371 C   0  0  0  0  0  0  0  0  0  0  0  0
   46.1781    9.3229   21.6035 F   0  0  0  0  0  0  0  0  0  0  0  0
   46.7020    9.3452   19.4840 F   0  0  0  0  0  0  0  0  0  0  0  0
   47.9612   10.3882   20.9300 F   0  0  0  0  0  0  0  0  0  0  0  0
   55.6590    2.0620   20.1430 N   0  0  0  0  0  0  0  0  0  0  0  0
   54.6419    1.7677   19.2862 C   0  0  0  0  0  0  0  0  0  0  0  0
   53.7413    2.6168   18.6718 C   0  0  0  0  0  0  0  0  0  0  0  0
   53.8869    3.9862   18.9635 N   0  0  0  0  0  0  0  0  0  0  0  0
   54.8825    4.3448   19.8484 C   0  0  0  0  0  0  0  0  0  0  0  0
   55.7625    3.3413   20.4158 C   0  0  0  0  0  0  0  0  0  0  0  0
   52.8548    1.8593   17.8910 C   0  0  0  0  0  0  0  0  0  0  0  0
   53.2486    0.5412   18.0388 C   0  0  0  0  0  0  0  0  0  0  0  0
   54.3338    0.4979   18.8859 N   0  0  0  0  0  0  0  0  0  0  0  0
   54.8890    5.6347   20.0936 N   0  0  0  0  0  0  0  0  0  0  0  0
   53.8581    6.1277   19.3328 C   0  0  0  0  0  0  0  0  0  0  0  0
   53.2381    5.1416   18.5765 C   0  0  0  0  0  0  0  0  0  0  0  0
   52.0972    5.1811   17.5984 C   0  0  2  0  0  0  0  0  0  0  0  0
   51.9415    6.4649   16.7503 C   0  0  1  0  0  0  0  0  0  0  0  0
   51.1330    7.4072   17.6462 C   0  0  0  0  0  0  0  0  0  0  0  0
   50.3650    6.5233   18.5123 N   0  0  0  0  0  0  0  0  0  0  0  0
   50.7455    5.1302   18.3250 C   0  0  0  0  0  0  0  0  0  0  0  0
   53.2200    7.0601   16.1582 C   0  0  0  0  0  0  0  0  0  0  0  0
   52.9313    8.1966   15.1860 C   0  0  0  0  0  0  0  0  0  0  0  0
   49.2740    6.8472   19.2757 C   0  0  0  0  0  0  0  0  0  0  0  0
   49.0245    8.1897   19.3711 N   0  0  0  0  0  0  0  0  0  0  0  0
   48.5665    6.0071   19.8218 O   0  0  0  0  0  0  0  0  0  0  0  0
   47.9321    8.6537   20.2295 C   0  0  0  0  0  0  0  0  0  0  0  0
   47.6245   10.1414   20.1108 C   0  0  0  0  0  0  0  0  0  0  0  0
   46.6816   10.5190   21.0011 F   0  0  0  0  0  0  0  0  0  0  0  0
   48.7352   10.8786   20.3524 F   0  0  0  0  0  0  0  0  0  0  0  0
   47.1810   10.4652   18.8767 F   0  0  0  0  0  0  0  0  0  0  0  0
   51.4411    6.4920   18.4403 H   0  0  0  0  0  0  0  0  0  0  0  0
   52.5181    5.4397   18.1875 H   0  0  0  0  0  0  0  0  0  0  0  0
   56.7530    1.6463   17.3898 H   0  0  0  0  0  0  0  0  0  0  0  0
   50.8771    3.2904   17.6703 H   0  0  0  0  0  0  0  0  0  0  0  0
   50.3439    0.6349   17.7832 H   0  0  0  0  0  0  0  0  0  0  0  0
   52.5561   -0.5831   17.7370 H   0  0  0  0  0  0  0  0  0  0  0  0
   55.5695    6.3738   17.1251 H   0  0  0  0  0  0  0  0  0  0  0  0
   51.8993    5.3656   17.0147 H   0  0  0  0  0  0  0  0  0  0  0  0
   52.7562    7.5430   16.4757 H   0  0  0  0  0  0  0  0  0  0  0  0
   51.0300    8.6723   18.3108 H   0  0  0  0  0  0  0  0  0  0  0  0
   50.4516    7.3987   17.2121 H   0  0  0  0  0  0  0  0  0  0  0  0
   51.4923    4.7032   19.3536 H   0  0  0  0  0  0  0  0  0  0  0  0
   52.6581    5.8896   19.9515 H   0  0  0  0  0  0  0  0  0  0  0  0
   53.3018    8.1499   19.4450 H   0  0  0  0  0  0  0  0  0  0  0  0
   54.6088    7.6991   18.3836 H   0  0  0  0  0  0  0  0  0  0  0  0
   54.4541   10.1148   18.5110 H   0  0  0  0  0  0  0  0  0  0  0  0
   52.7756   10.0997   17.9569 H   0  0  0  0  0  0  0  0  0  0  0  0
   54.0770    9.5964   16.8607 H   0  0  0  0  0  0  0  0  0  0  0  0
   48.8806    8.0410   18.9804 H   0  0  0  0  0  0  0  0  0  0  0  0
   48.4656    7.9861   21.9221 H   0  0  0  0  0  0  0  0  0  0  0  0
   47.3759    7.1340   20.8214 H   0  0  0  0  0  0  0  0  0  0  0  0
   56.5520    3.6771   21.1069 H   0  0  0  0  0  0  0  0  0  0  0  0
   52.0181    2.1871   17.2912 H   0  0  0  0  0  0  0  0  0  0  0  0
   52.8475   -0.3731   17.6211 H   0  0  0  0  0  0  0  0  0  0  0  0
   54.8296   -0.3308   19.1844 H   0  0  0  0  0  0  0  0  0  0  0  0
   53.6247    7.1841   19.3632 H   0  0  0  0  0  0  0  0  0  0  0  0
   52.1939    4.3379   16.9091 H   0  0  0  0  0  0  0  0  0  0  0  0
   51.2874    6.1933   15.9066 H   0  0  0  0  0  0  0  0  0  0  0  0
   50.4586    8.0473   17.0680 H   0  0  0  0  0  0  0  0  0  0  0  0
   51.7639    8.0423   18.2750 H   0  0  0  0  0  0  0  0  0  0  0  0
   49.9808    4.6670   17.6896 H   0  0  0  0  0  0  0  0  0  0  0  0
   50.7645    4.6025   19.2847 H   0  0  0  0  0  0  0  0  0  0  0  0
   53.7719    6.2752   15.6274 H   0  0  0  0  0  0  0  0  0  0  0  0
   53.8808    7.4445   16.9406 H   0  0  0  0  0  0  0  0  0  0  0  0
   53.8655    8.5669   14.7520 H   0  0  0  0  0  0  0  0  0  0  0  0
   52.4397    9.0351   15.6888 H   0  0  0  0  0  0  0  0  0  0  0  0
   52.2885    7.8598   14.3666 H   0  0  0  0  0  0  0  0  0  0  0  0
   49.8535    8.7668   19.3586 H   0  0  0  0  0  0  0  0  0  0  0  0
   48.2133    8.4185   21.2624 H   0  0  0  0  0  0  0  0  0  0  0  0
   47.0345    8.0722   19.9913 H   0  0  0  0  0  0  0  0  0  0  0  0
  2  3  1  0
  4  5  1  0
  6  7  1  0
  7  2  2  0
  3 10  1  0
  3  4  2  0
  4  8  1  0
  8  9  2  0
  9 10  1  0
  5 13  1  0
  5  6  1  0
  6 11  2  0
 11 12  1  0
 12 13  2  0
 14 13  1  0
 14 15  1  0
 14 18  1  0
 15 16  1  0
 16 17  1  0
 17 18  1  0
 15 19  1  0
 19 20  1  0
 17 21  1  0
 21 22  1  0
 21 23  2  0
 22 24  1  0
 24 25  1  0
 25 26  1  0
 25 27  1  0
 25 28  1  0
 29 30  1  0
 31 32  1  0
 33 34  1  0
 34 29  2  0
 30 37  1  0
 30 31  2  0
 31 35  1  0
 35 36  2  0
 36 37  1  0
 32 40  1  0
 32 33  1  0
 33 38  2  0
 38 39  1  0
 39 40  2  0
 41 40  1  0
 41 42  1  0
 41 45  1  0
 42 43  1  0
 43 44  1  0
 44 45  1  0
 42 46  1  0
 46 47  1  0
 44 48  1  0
 48 49  1  0
 48 50  2  0
 49 51  1  0
 51 52  1  0
 52 53  1  0
 52 54  1  0
 52 55  1  0
  1 56  1  0
  1 57  1  0
  7 58  1  0
  8 59  1  0
  9 60  1  0
 10 61  1  0
 12 62  1  0
 14 63  1  6
 15 64  1  6
 16 65  1  0
 16 66  1  0
 18 67  1  0
 18 68  1  0
 19 69  1  0
 19 70  1  0
 20 71  1  0
 20 72  1  0
 20 73  1  0
 22 74  1  0
 24 75  1  0
 24 76  1  0
 34 77  1  0
 35 78  1  0
 36 79  1  0
 37 80  1  0
 39 81  1  0
 41 82  1  6
 42 83  1  6
 43 84  1  0
 43 85  1  0
 45 86  1  0
 45 87  1  0
 46 88  1  0
 46 89  1  0
 47 90  1  0
 47 91  1  0
 47 92  1  0
 49 93  1  0
 51 94  1  0
 51 95  1  0
M  END
> <Uni-Dock RESULT> 
ENERGY=   -4.866  LOWER_BOUND=    5.285  UPPER_BOUND=    8.759
INTER + INTRA:          -4.866
INTER:                  -4.866
INTRA:                   0.000
UNBOUND:                 0.000

$$$$

     RDKit          3D

 95100  0  0  0  0  0  0  0  0999 V2000
   51.7054    8.4724   12.3847 O   0  0  0  0  0  0  0  0  0  0  0  0
   50.8193    7.2656   17.9333 N   0  0  0  0  0  0  0  0  0  0  0  0
   51.8063    7.2659   16.9948 C   0  0  0  0  0  0  0  0  0  0  0  0
   51.8349    7.8742   15.7540 C   0  0  0  0  0  0  0  0  0  0  0  0
   50.6796    8.5941   15.3909 N   0  0  0  0  0  0  0  0  0  0  0  0
   49.6675    8.6738   16.3248 C   0  0  0  0  0  0  0  0  0  0  0  0
   49.7696    7.9731   17.5904 C   0  0  0  0  0  0  0  0  0  0  0  0
   53.0839    7.6393   15.1591 C   0  0  0  0  0  0  0  0  0  0  0  0
   53.7909    6.8535   16.0515 C   0  0  0  0  0  0  0  0  0  0  0  0
   53.0041    6.6294   17.1593 N   0  0  0  0  0  0  0  0  0  0  0  0
   48.6967    9.4663   15.9363 N   0  0  0  0  0  0  0  0  0  0  0  0
   49.0891    9.8956   14.6920 C   0  0  0  0  0  0  0  0  0  0  0  0
   50.2796    9.3126   14.2772 C   0  0  0  0  0  0  0  0  0  0  0  0
   51.0809    9.4142   13.0209 C   0  0  2  0  0  0  0  0  0  0  0  0
   50.6324   10.4061   11.9141 C   0  0  1  0  0  0  0  0  0  0  0  0
   51.6373   10.0236   10.8059 C   0  0  0  0  0  0  0  0  0  0  0  0
   51.7933    8.5772   10.9501 N   0  0  0  0  0  0  0  0  0  0  0  0
   51.2339    8.1193   12.2168 C   0  0  0  0  0  0  0  0  0  0  0  0
   49.1968   10.2318   11.3578 C   0  0  0  0  0  0  0  0  0  0  0  0
   48.7712   11.4163   10.4957 C   0  0  0  0  0  0  0  0  0  0  0  0
   52.2453    7.6814   10.0183 C   0  0  0  0  0  0  0  0  0  0  0  0
   52.7517    8.2492    8.8811 N   0  0  0  0  0  0  0  0  0  0  0  0
   52.1965    6.4667   10.1799 O   0  0  0  0  0  0  0  0  0  0  0  0
   53.3292    7.3896    7.8457 C   0  0  0  0  0  0  0  0  0  0  0  0
   53.6842    8.1128    6.5522 C   0  0  0  0  0  0  0  0  0  0  0  0
   54.2982    7.2840    5.6802 F   0  0  0  0  0  0  0  0  0  0  0  0
   54.5269    9.1447    6.7993 F   0  0  0  0  0  0  0  0  0  0  0  0
   52.5895    8.6179    5.9430 F   0  0  0  0  0  0  0  0  0  0  0  0
   48.8413    5.8131   16.3008 N   0  0  0  0  0  0  0  0  0  0  0  0
   50.1201    6.2635   16.4314 C   0  0  0  0  0  0  0  0  0  0  0  0
   50.8333    7.1221   15.6169 C   0  0  0  0  0  0  0  0  0  0  0  0
   50.1502    7.6106   14.4871 N   0  0  0  0  0  0  0  0  0  0  0  0
   48.8596    7.1678   14.2846 C   0  0  0  0  0  0  0  0  0  0  0  0
   48.2317    6.2655   15.2306 C   0  0  0  0  0  0  0  0  0  0  0  0
   52.1269    7.2808   16.1373 C   0  0  0  0  0  0  0  0  0  0  0  0
   52.1719    6.5110   17.2861 C   0  0  0  0  0  0  0  0  0  0  0  0
   50.9492    5.8999   17.4552 N   0  0  0  0  0  0  0  0  0  0  0  0
   48.3412    7.6377   13.1735 N   0  0  0  0  0  0  0  0  0  0  0  0
   49.3370    8.4181   12.6406 C   0  0  0  0  0  0  0  0  0  0  0  0
   50.4637    8.4673   13.4510 C   0  0  0  0  0  0  0  0  0  0  0  0
   51.7800    9.1805   13.3151 C   0  0  2  0  0  0  0  0  0  0  0  0
   51.7671   10.5508   12.5983 C   0  0  1  0  0  0  0  0  0  0  0  0
   51.8701   10.1948   11.1127 C   0  0  0  0  0  0  0  0  0  0  0  0
   52.5585    8.9115   11.0883 N   0  0  0  0  0  0  0  0  0  0  0  0
   52.7507    8.3836   12.4318 C   0  0  0  0  0  0  0  0  0  0  0  0
   50.6345   11.5109   12.9651 C   0  0  0  0  0  0  0  0  0  0  0  0
   50.8293   12.8932   12.3556 C   0  0  0  0  0  0  0  0  0  0  0  0
   53.1615    8.3103   10.0146 C   0  0  0  0  0  0  0  0  0  0  0  0
   52.9008    8.9044    8.8092 N   0  0  0  0  0  0  0  0  0  0  0  0
   53.8873    7.3271   10.1189 O   0  0  0  0  0  0  0  0  0  0  0  0
   53.4268    8.2964    7.5849 C   0  0  0  0  0  0  0  0  0  0  0  0
   53.2394    9.1405    6.3302 C   0  0  0  0  0  0  0  0  0  0  0  0
   53.6519    8.4776    5.2279 F   0  0  0  0  0  0  0  0  0  0  0  0
   51.9325    9.4522    6.1561 F   0  0  0  0  0  0  0  0  0  0  0  0
   53.9293   10.2998    6.3976 F   0  0  0  0  0  0  0  0  0  0  0  0
   51.6427    9.0810   11.6332 H   0  0  0  0  0  0  0  0  0  0  0  0
   51.1277    8.8680   13.0547 H   0  0  0  0  0  0  0  0  0  0  0  0
   48.9224    8.0453   18.2911 H   0  0  0  0  0  0  0  0  0  0  0  0
   53.4664    7.9871   14.2099 H   0  0  0  0  0  0  0  0  0  0  0  0
   54.7889    6.4381   15.9988 H   0  0  0  0  0  0  0  0  0  0  0  0
   53.2590    6.0960   17.9792 H   0  0  0  0  0  0  0  0  0  0  0  0
   48.4715   10.6087   14.1624 H   0  0  0  0  0  0  0  0  0  0  0  0
   52.0853    9.7467   13.3279 H   0  0  0  0  0  0  0  0  0  0  0  0
   50.7776   11.4422   12.2413 H   0  0  0  0  0  0  0  0  0  0  0  0
   51.3184   10.2851    9.7935 H   0  0  0  0  0  0  0  0  0  0  0  0
   52.6175   10.4774   10.9931 H   0  0  0  0  0  0  0  0  0  0  0  0
   51.8955    7.3789   12.6703 H   0  0  0  0  0  0  0  0  0  0  0  0
   50.2720    7.6318   12.0186 H   0  0  0  0  0  0  0  0  0  0  0  0
   49.1140    9.3186   10.7562 H   0  0  0  0  0  0  0  0  0  0  0  0
   48.4610   10.1297   12.1539 H   0  0  0  0  0  0  0  0  0  0  0  0
   47.7468   11.2703   10.1379 H   0  0  0  0  0  0  0  0  0  0  0  0
   49.4162   11.5347    9.6204 H   0  0  0  0  0  0  0  0  0  0  0  0
   48.7973   12.3471   11.0714 H   0  0  0  0  0  0  0  0  0  0  0  0
   53.2064    9.1394    9.0258 H   0  0  0  0  0  0  0  0  0  0  0  0
   52.6215    6.5805    7.6333 H   0  0  0  0  0  0  0  0  0  0  0  0
   54.2315    6.9359    8.2710 H   0  0  0  0  0  0  0  0  0  0  0  0
   47.1946    5.9502   15.0342 H   0  0  0  0  0  0  0  0  0  0  0  0
   52.9535    7.8613   15.7539 H   0  0  0  0  0  0  0  0  0  0  0  0
   52.9697    6.3377   17.9965 H   0  0  0  0  0  0  0  0  0  0  0  0
   50.6906    5.2713   18.2033 H   0  0  0  0  0  0  0  0  0  0  0  0
   49.1792    8.9190   11.6942 H   0  0  0  0  0  0  0  0  0  0  0  0
   52.2042    9.3313   14.3116 H   0  0  0  0  0  0  0  0  0  0  0  0
   52.7137   11.0442   12.8707 H   0  0  0  0  0  0  0  0  0  0  0  0
   52.4417   10.9397   10.5495 H   0  0  0  0  0  0  0  0  0  0  0  0
   50.8933   10.0705   10.6361 H   0  0  0  0  0  0  0  0  0  0  0  0
   53.7903    8.5881   12.7157 H   0  0  0  0  0  0  0  0  0  0  0  0
   52.5943    7.2996   12.4470 H   0  0  0  0  0  0  0  0  0  0  0  0
   50.5850   11.6115   14.0559 H   0  0  0  0  0  0  0  0  0  0  0  0
   49.6645   11.1291   12.6334 H   0  0  0  0  0  0  0  0  0  0  0  0
   50.0237   13.5621   12.6748 H   0  0  0  0  0  0  0  0  0  0  0  0
   50.8168   12.8513   11.2621 H   0  0  0  0  0  0  0  0  0  0  0  0
   51.7796   13.3332   12.6740 H   0  0  0  0  0  0  0  0  0  0  0  0
   51.9799    9.3139    8.7400 H   0  0  0  0  0  0  0  0  0  0  0  0
   52.9169    7.3344    7.4594 H   0  0  0  0  0  0  0  0  0  0  0  0
   54.4924    8.0883    7.7326 H   0  0  0  0  0  0  0  0  0  0  0  0
  2  3  1  0
  4  5  1  0
  6  7  1  0
  7  2  2  0
  3 10  1  0
  3  4  2  0
  4  8  1  0
  8  9  2  0
  9 10  1  0
  5 13  1  0
  5  6  1  0
  6 11  2  0
 11 12  1  0
 12 13  2  0
 14 13  1  0
 14 15  1  0
 14 18  1  0
 15 16  1  0
 16 17  1  0
 17 18  1  0
 15 19  1  0
 19 20  1  0
 17 21  1  0
 21 22  1  0
 21 23  2  0
 22 24  1  0
 24 25  1  0
 25 26  1  0
 25 27  1  0
 25 28  1  0
 29 30  1  0
 31 32  1  0
 33 34  1  0
 34 29  2  0
 30 37  1  0
 30 31  2  0
 31 35  1  0
 35 36  2  0
 36 37  1  0
 32 40  1  0
 32 33  1  0
 33 38  2  0
 38 39  1  0
 39 40  2  0
 41 40  1  0
 41 42  1  0
 41 45  1  0
 42 43  1  0
 43 44  1  0
 44 45  1  0
 42 46  1  0
 46 47  1  0
 44 48  1  0
 48 49  1  0
 48 50  2  0
 49 51  1  0
 51 52  1  0
 52 53  1  0
 52 54  1  0
 52 55  1  0
  1 56  1  0
  1 57  1  0
  7 58  1  0
  8 59  1  0
  9 60  1  0
 10 61  1  0
 12 62  1  0
 14 63  1  6
 15 64  1  6
 16 65  1  0
 16 66  1  0
 18 67  1  0
 18 68  1  0
 19 69  1  0
 19 70  1  0
 20 71  1  0
 20 72  1  0
 20 73  1  0
 22 74  1  0
 24 75  1  0
 24 76  1  0
 34 77  1  0
 35 78  1  0
 36 79  1  0
 37 80  1  0
 39 81  1  0
 41 82  1  6
 42 83  1  6
 43 84  1  0
 43 85  1  0
 45 86  1  0
 45 87  1  0
 46 88  1  0
 46 89  1  0
 47 90  1  0
 47 91  1  0
 47 92  1  0
 49 93  1  0
 51 94  1  0
 51 95  1  0
M  END
> <Uni-Dock RESULT> 
ENERGY=   -4.864  LOWER_BOUND=    7.662  UPPER_BOUND=   10.289
INTER + INTRA:          -4.864
INTER:                  -4.864
INTRA:                   0.000
UNBOUND:                 0.000

$$$$

     RDKit          3D

 95100  0  0  0  0  0  0  0  0999 V2000
   49.9305    6.3795   17.0064 O   0  0  0  0  0  0  0  0  0  0  0  0
   46.5900    7.2095   12.4042 N   0  0  0  0  0  0  0  0  0  0  0  0
   46.8904    6.2639   13.3373 C   0  0  0  0  0  0  0  0  0  0  0  0
   47.5521    6.4022   14.5428 C   0  0  0  0  0  0  0  0  0  0  0  0
   47.9929    7.7018   14.8614 N   0  0  0  0  0  0  0  0  0  0  0  0
   47.6695    8.7110   13.9782 C   0  0  0  0  0  0  0  0  0  0  0  0
   46.9756    8.4175   12.7391 C   0  0  0  0  0  0  0  0  0  0  0  0
   47.5843    5.1582   15.1913 C   0  0  0  0  0  0  0  0  0  0  0  0
   46.9583    4.2663   14.3390 C   0  0  0  0  0  0  0  0  0  0  0  0
   46.5458    4.9474   13.2154 N   0  0  0  0  0  0  0  0  0  0  0  0
   48.0166    9.8933   14.4288 N   0  0  0  0  0  0  0  0  0  0  0  0
   48.6082    9.6322   15.6406 C   0  0  0  0  0  0  0  0  0  0  0  0
   48.6892    8.2726   15.9130 C   0  0  0  0  0  0  0  0  0  0  0  0
   49.2675    7.4932   17.0483 C   0  0  2  0  0  0  0  0  0  0  0  0
   49.8516    8.2532   18.2695 C   0  0  1  0  0  0  0  0  0  0  0  0
   50.4543    7.0627   19.0467 C   0  0  0  0  0  0  0  0  0  0  0  0
   50.9519    6.1700   18.0014 N   0  0  0  0  0  0  0  0  0  0  0  0
   50.4281    6.5572   16.6965 C   0  0  0  0  0  0  0  0  0  0  0  0
   50.9800    9.2756   17.9834 C   0  0  0  0  0  0  0  0  0  0  0  0
   51.2754   10.1537   19.1955 C   0  0  0  0  0  0  0  0  0  0  0  0
   51.8960    5.1846   18.1139 C   0  0  0  0  0  0  0  0  0  0  0  0
   52.2911    4.9182   19.3964 N   0  0  0  0  0  0  0  0  0  0  0  0
   52.3599    4.5896   17.1471 O   0  0  0  0  0  0  0  0  0  0  0  0
   53.2443    3.8342   19.6431 C   0  0  0  0  0  0  0  0  0  0  0  0
   53.7527    3.7566   21.0776 C   0  0  0  0  0  0  0  0  0  0  0  0
   54.5497    2.6810   21.2574 F   0  0  0  0  0  0  0  0  0  0  0  0
   52.7171    3.6487   21.9448 F   0  0  0  0  0  0  0  0  0  0  0  0
   54.4579    4.8565   21.4203 F   0  0  0  0  0  0  0  0  0  0  0  0
   49.3805    7.8456   11.6999 N   0  0  0  0  0  0  0  0  0  0  0  0
   48.5191    7.0454   12.3877 C   0  0  0  0  0  0  0  0  0  0  0  0
   48.4403    6.8082   13.7467 C   0  0  0  0  0  0  0  0  0  0  0  0
   49.3782    7.4874   14.5470 N   0  0  0  0  0  0  0  0  0  0  0  0
   50.2967    8.2918   13.9049 C   0  0  0  0  0  0  0  0  0  0  0  0
   50.2578    8.4522   12.4641 C   0  0  0  0  0  0  0  0  0  0  0  0
   47.4078    5.8904   13.9938 C   0  0  0  0  0  0  0  0  0  0  0  0
   46.8610    5.5912   12.7585 C   0  0  0  0  0  0  0  0  0  0  0  0
   47.5419    6.2983   11.7923 N   0  0  0  0  0  0  0  0  0  0  0  0
   51.1582    8.8268   14.7391 N   0  0  0  0  0  0  0  0  0  0  0  0
   50.7768    8.3506   15.9689 C   0  0  0  0  0  0  0  0  0  0  0  0
   49.6433    7.5511   15.9002 C   0  0  0  0  0  0  0  0  0  0  0  0
   48.8489    6.8260   16.9504 C   0  0  2  0  0  0  0  0  0  0  0  0
   48.7676    7.4816   18.3488 C   0  0  1  0  0  0  0  0  0  0  0  0
   50.0371    7.0034   19.0585 C   0  0  0  0  0  0  0  0  0  0  0  0
   50.3598    5.7343   18.4209 N   0  0  0  0  0  0  0  0  0  0  0  0
   49.4862    5.4701   17.2862 C   0  0  0  0  0  0  0  0  0  0  0  0
   48.5225    8.9907   18.3903 C   0  0  0  0  0  0  0  0  0  0  0  0
   48.2634    9.4949   19.8041 C   0  0  0  0  0  0  0  0  0  0  0  0
   51.2109    4.7638   18.8811 C   0  0  0  0  0  0  0  0  0  0  0  0
   51.9763    5.1393   19.9521 N   0  0  0  0  0  0  0  0  0  0  0  0
   51.2778    3.6434   18.3866 O   0  0  0  0  0  0  0  0  0  0  0  0
   52.9799    4.2087   20.4736 C   0  0  0  0  0  0  0  0  0  0  0  0
   53.6351    4.6520   21.7760 C   0  0  0  0  0  0  0  0  0  0  0  0
   54.6190    3.8024   22.1432 F   0  0  0  0  0  0  0  0  0  0  0  0
   54.1858    5.8821   21.6380 F   0  0  0  0  0  0  0  0  0  0  0  0
   52.7445    4.7157   22.7896 F   0  0  0  0  0  0  0  0  0  0  0  0
   50.2535    6.6596   17.8761 H   0  0  0  0  0  0  0  0  0  0  0  0
   49.4766    7.1633   16.6621 H   0  0  0  0  0  0  0  0  0  0  0  0
   46.7650    9.2542   12.0539 H   0  0  0  0  0  0  0  0  0  0  0  0
   47.9904    4.9009   16.1593 H   0  0  0  0  0  0  0  0  0  0  0  0
   46.7640    3.2060   14.4355 H   0  0  0  0  0  0  0  0  0  0  0  0
   46.0521    4.5576   12.4241 H   0  0  0  0  0  0  0  0  0  0  0  0
   48.9496   10.4594   16.2486 H   0  0  0  0  0  0  0  0  0  0  0  0
   48.4430    6.8807   17.4466 H   0  0  0  0  0  0  0  0  0  0  0  0
   49.0522    8.7372   18.8423 H   0  0  0  0  0  0  0  0  0  0  0  0
   51.2511    7.3325   19.7446 H   0  0  0  0  0  0  0  0  0  0  0  0
   49.6760    6.5198   19.5956 H   0  0  0  0  0  0  0  0  0  0  0  0
   50.1394    5.6685   16.1321 H   0  0  0  0  0  0  0  0  0  0  0  0
   51.2227    7.0653   16.1372 H   0  0  0  0  0  0  0  0  0  0  0  0
   51.9072    8.7692   17.6889 H   0  0  0  0  0  0  0  0  0  0  0  0
   50.7293    9.9383   17.1567 H   0  0  0  0  0  0  0  0  0  0  0  0
   52.0605   10.8768   18.9519 H   0  0  0  0  0  0  0  0  0  0  0  0
   51.6187    9.5644   20.0505 H   0  0  0  0  0  0  0  0  0  0  0  0
   50.3844   10.7132   19.4981 H   0  0  0  0  0  0  0  0  0  0  0  0
   51.5678    5.0419   20.0904 H   0  0  0  0  0  0  0  0  0  0  0  0
   54.0909    3.9553   18.9581 H   0  0  0  0  0  0  0  0  0  0  0  0
   52.7399    2.8970   19.3823 H   0  0  0  0  0  0  0  0  0  0  0  0
   51.0029    9.1161   11.9974 H   0  0  0  0  0  0  0  0  0  0  0  0
   47.0771    5.4667   14.9310 H   0  0  0  0  0  0  0  0  0  0  0  0
   46.0502    4.9308   12.4796 H   0  0  0  0  0  0  0  0  0  0  0  0
   47.3690    6.2737   10.7968 H   0  0  0  0  0  0  0  0  0  0  0  0
   51.3414    8.6251   16.8505 H   0  0  0  0  0  0  0  0  0  0  0  0
   47.8263    6.6898   16.5880 H   0  0  0  0  0  0  0  0  0  0  0  0
   47.9195    6.9995   18.8606 H   0  0  0  0  0  0  0  0  0  0  0  0
   49.8782    6.8561   20.1318 H   0  0  0  0  0  0  0  0  0  0  0  0
   50.8834    7.6828   18.9207 H   0  0  0  0  0  0  0  0  0  0  0  0
   48.7243    4.7560   17.6220 H   0  0  0  0  0  0  0  0  0  0  0  0
   50.0484    5.0154   16.4634 H   0  0  0  0  0  0  0  0  0  0  0  0
   47.6542    9.2332   17.7660 H   0  0  0  0  0  0  0  0  0  0  0  0
   49.3743    9.5447   17.9849 H   0  0  0  0  0  0  0  0  0  0  0  0
   48.0506   10.5685   19.7876 H   0  0  0  0  0  0  0  0  0  0  0  0
   49.1329    9.3353   20.4491 H   0  0  0  0  0  0  0  0  0  0  0  0
   47.4031    8.9870   20.2514 H   0  0  0  0  0  0  0  0  0  0  0  0
   52.2343    6.1160   19.9544 H   0  0  0  0  0  0  0  0  0  0  0  0
   53.7458    4.0946   19.6980 H   0  0  0  0  0  0  0  0  0  0  0  0
   52.5049    3.2314   20.6147 H   0  0  0  0  0  0  0  0  0  0  0  0
  2  3  1  0
  4  5  1  0
  6  7  1  0
  7  2  2  0
  3 10  1  0
  3  4  2  0
  4  8  1  0
  8  9  2  0
  9 10  1  0
  5 13  1  0
  5  6  1  0
  6 11  2  0
 11 12  1  0
 12 13  2  0
 14 13  1  0
 14 15  1  0
 14 18  1  0
 15 16  1  0
 16 17  1  0
 17 18  1  0
 15 19  1  0
 19 20  1  0
 17 21  1  0
 21 22  1  0
 21 23  2  0
 22 24  1  0
 24 25  1  0
 25 26  1  0
 25 27  1  0
 25 28  1  0
 29 30  1  0
 31 32  1  0
 33 34  1  0
 34 29  2  0
 30 37  1  0
 30 31  2  0
 31 35  1  0
 35 36  2  0
 36 37  1  0
 32 40  1  0
 32 33  1  0
 33 38  2  0
 38 39  1  0
 39 40  2  0
 41 40  1  0
 41 42  1  0
 41 45  1  0
 42 43  1  0
 43 44  1  0
 44 45  1  0
 42 46  1  0
 46 47  1  0
 44 48  1  0
 48 49  1  0
 48 50  2  0
 49 51  1  0
 51 52  1  0
 52 53  1  0
 52 54  1  0
 52 55  1  0
  1 56  1  0
  1 57  1  0
  7 58  1  0
  8 59  1  0
  9 60  1  0
 10 61  1  0
 12 62  1  0
 14 63  1  6
 15 64  1  6
 16 65  1  0
 16 66  1  0
 18 67  1  0
 18 68  1  0
 19 69  1  0
 19 70  1  0
 20 71  1  0
 20 72  1  0
 20 73  1  0
 22 74  1  0
 24 75  1  0
 24 76  1  0
 34 77  1  0
 35 78  1  0
 36 79  1  0
 37 80  1  0
 39 81  1  0
 41 82  1  6
 42 83  1  6
 43 84  1  0
 43 85  1  0
 45 86  1  0
 45 87  1  0
 46 88  1  0
 46 89  1  0
 47 90  1  0
 47 91  1  0
 47 92  1  0
 49 93  1  0
 51 94  1  0
 51 95  1  0
M  END
> <Uni-Dock RESULT> 
ENERGY=   -4.739  LOWER_BOUND=    4.448  UPPER_BOUND=    7.552
INTER + INTRA:          -4.739
INTER:                  -4.739
INTRA:                   0.000
UNBOUND:                 0.000

$$$$

     RDKit          3D

 95100  0  0  0  0  0  0  0  0999 V2000
   49.4125   12.0487   17.9483 O   0  0  0  0  0  0  0  0  0  0  0  0
   50.7558   16.9386   20.6526 N   0  0  0  0  0  0  0  0  0  0  0  0
   50.4088   16.4709   19.4213 C   0  0  0  0  0  0  0  0  0  0  0  0
   49.8566   15.2534   19.0705 C   0  0  0  0  0  0  0  0  0  0  0  0
   49.6212   14.3528   20.1281 N   0  0  0  0  0  0  0  0  0  0  0  0
   49.9032   14.7928   21.4048 C   0  0  0  0  0  0  0  0  0  0  0  0
   50.4925   16.0993   21.6254 C   0  0  0  0  0  0  0  0  0  0  0  0
   49.6248   15.2390   17.6866 C   0  0  0  0  0  0  0  0  0  0  0  0
   50.0769   16.4566   17.2104 C   0  0  0  0  0  0  0  0  0  0  0  0
   50.5547   17.1936   18.2710 N   0  0  0  0  0  0  0  0  0  0  0  0
   49.5327   13.9282   22.3195 N   0  0  0  0  0  0  0  0  0  0  0  0
   49.0125   12.8793   21.6012 C   0  0  0  0  0  0  0  0  0  0  0  0
   49.1225   13.0654   20.2292 C   0  0  0  0  0  0  0  0  0  0  0  0
   48.7560   12.2205   19.0534 C   0  0  2  0  0  0  0  0  0  0  0  0
   48.0210   10.8733   19.2878 C   0  0  1  0  0  0  0  0  0  0  0  0
   48.0263   10.3249   17.8444 C   0  0  0  0  0  0  0  0  0  0  0  0
   49.3099   10.7654   17.3006 N   0  0  0  0  0  0  0  0  0  0  0  0
   49.9179   11.7748   18.1599 C   0  0  0  0  0  0  0  0  0  0  0  0
   48.7236    9.8435   20.2078 C   0  0  0  0  0  0  0  0  0  0  0  0
   47.7966    8.6935   20.5896 C   0  0  0  0  0  0  0  0  0  0  0  0
   49.9929   10.2511   16.2310 C   0  0  0  0  0  0  0  0  0  0  0  0
   49.2999    9.3195   15.5072 N   0  0  0  0  0  0  0  0  0  0  0  0
   51.1365   10.5881   15.9434 O   0  0  0  0  0  0  0  0  0  0  0  0
   49.9050    8.7538   14.2996 C   0  0  0  0  0  0  0  0  0  0  0  0
   49.1265    7.5951   13.6883 C   0  0  0  0  0  0  0  0  0  0  0  0
   49.6864    7.1861   12.5292 F   0  0  0  0  0  0  0  0  0  0  0  0
   47.8518    7.9674   13.4187 F   0  0  0  0  0  0  0  0  0  0  0  0
   49.0730    6.5322   14.5202 F   0  0  0  0  0  0  0  0  0  0  0  0
   52.8667   14.9444   21.1567 N   0  0  0  0  0  0  0  0  0  0  0  0
   51.9735   15.4804   20.2792 C   0  0  0  0  0  0  0  0  0  0  0  0
   50.9278   14.8709   19.6125 C   0  0  0  0  0  0  0  0  0  0  0  0
   50.7476   13.4989   19.8707 N   0  0  0  0  0  0  0  0  0  0  0  0
   51.6395   12.8919   20.7303 C   0  0  0  0  0  0  0  0  0  0  0  0
   52.6918   13.6610   21.3663 C   0  0  0  0  0  0  0  0  0  0  0  0
   50.2928   15.8160   18.7922 C   0  0  0  0  0  0  0  0  0  0  0  0
   50.9696   17.0066   18.9890 C   0  0  0  0  0  0  0  0  0  0  0  0
   51.9858   16.7914   19.8936 N   0  0  0  0  0  0  0  0  0  0  0  0
   51.4154   11.6037   20.8513 N   0  0  0  0  0  0  0  0  0  0  0  0
   50.3327   11.3723   20.0396 C   0  0  0  0  0  0  0  0  0  0  0  0
   49.8555   12.5342   19.4472 C   0  0  0  0  0  0  0  0  0  0  0  0
   48.7094   12.7981   18.5110 C   0  0  2  0  0  0  0  0  0  0  0  0
   47.4546   11.9076   18.6664 C   0  0  1  0  0  0  0  0  0  0  0  0
   47.7755   10.6635   17.8337 C   0  0  0  0  0  0  0  0  0  0  0  0
   48.7141   11.1294   16.8221 N   0  0  0  0  0  0  0  0  0  0  0  0
   49.1081   12.5116   17.0562 C   0  0  0  0  0  0  0  0  0  0  0  0
   46.9738   11.6354   20.0926 C   0  0  0  0  0  0  0  0  0  0  0  0
   45.6291   10.9205   20.1220 C   0  0  0  0  0  0  0  0  0  0  0  0
   49.0703   10.4942   15.6612 C   0  0  0  0  0  0  0  0  0  0  0  0
   48.6375    9.1991   15.5651 N   0  0  0  0  0  0  0  0  0  0  0  0
   49.7139   11.0395   14.7708 O   0  0  0  0  0  0  0  0  0  0  0  0
   49.0314    8.3990   14.4033 C   0  0  0  0  0  0  0  0  0  0  0  0
   48.3401    7.0445   14.3061 C   0  0  0  0  0  0  0  0  0  0  0  0
   48.8246    6.3203   13.2740 F   0  0  0  0  0  0  0  0  0  0  0  0
   48.5364    6.3268   15.4383 F   0  0  0  0  0  0  0  0  0  0  0  0
   47.0069    7.1728   14.1312 F   0  0  0  0  0  0  0  0  0  0  0  0
   48.8845   11.2388   17.8819 H   0  0  0  0  0  0  0  0  0  0  0  0
   49.2456   12.3634   18.8495 H   0  0  0  0  0  0  0  0  0  0  0  0
   50.7250   16.3933   22.6615 H   0  0  0  0  0  0  0  0  0  0  0  0
   49.1785   14.4675   17.0752 H   0  0  0  0  0  0  0  0  0  0  0  0
   50.0954   16.8671   16.2092 H   0  0  0  0  0  0  0  0  0  0  0  0
   50.9406   18.1270   18.2285 H   0  0  0  0  0  0  0  0  0  0  0  0
   48.5881   12.0374   22.1319 H   0  0  0  0  0  0  0  0  0  0  0  0
   48.0704   12.8303   18.4437 H   0  0  0  0  0  0  0  0  0  0  0  0
   46.9986   11.0472   19.6426 H   0  0  0  0  0  0  0  0  0  0  0  0
   47.9203    9.2395   17.7704 H   0  0  0  0  0  0  0  0  0  0  0  0
   47.2392   10.7960   17.2441 H   0  0  0  0  0  0  0  0  0  0  0  0
   50.3529   12.5696   17.5510 H   0  0  0  0  0  0  0  0  0  0  0  0
   50.7298   11.3068   18.7291 H   0  0  0  0  0  0  0  0  0  0  0  0
   49.6141    9.4240   19.7243 H   0  0  0  0  0  0  0  0  0  0  0  0
   49.0751   10.2970   21.1332 H   0  0  0  0  0  0  0  0  0  0  0  0
   48.3173    7.9978   21.2556 H   0  0  0  0  0  0  0  0  0  0  0  0
   47.4650    8.1303   19.7127 H   0  0  0  0  0  0  0  0  0  0  0  0
   46.9112    9.0645   21.1159 H   0  0  0  0  0  0  0  0  0  0  0  0
   48.3022    9.4731   15.4756 H   0  0  0  0  0  0  0  0  0  0  0  0
   50.9221    8.4268   14.5428 H   0  0  0  0  0  0  0  0  0  0  0  0
   49.9853    9.5667   13.5692 H   0  0  0  0  0  0  0  0  0  0  0  0
   53.3715   13.1357   22.0561 H   0  0  0  0  0  0  0  0  0  0  0  0
   49.4554   15.6889   18.1214 H   0  0  0  0  0  0  0  0  0  0  0  0
   50.8226   17.9889   18.5593 H   0  0  0  0  0  0  0  0  0  0  0  0
   52.6510   17.4771   20.2233 H   0  0  0  0  0  0  0  0  0  0  0  0
   49.9435   10.3677   19.9358 H   0  0  0  0  0  0  0  0  0  0  0  0
   48.3937   13.8388   18.6241 H   0  0  0  0  0  0  0  0  0  0  0  0
   46.6414   12.4359   18.1436 H   0  0  0  0  0  0  0  0  0  0  0  0
   46.8830   10.2463   17.3559 H   0  0  0  0  0  0  0  0  0  0  0  0
   48.2607    9.8749   18.4162 H   0  0  0  0  0  0  0  0  0  0  0  0
   48.5288   13.1361   16.3651 H   0  0  0  0  0  0  0  0  0  0  0  0
   50.1727   12.6517   16.8402 H   0  0  0  0  0  0  0  0  0  0  0  0
   46.8779   12.5868   20.6294 H   0  0  0  0  0  0  0  0  0  0  0  0
   47.6930   11.0251   20.6466 H   0  0  0  0  0  0  0  0  0  0  0  0
   45.2990   10.7822   21.1565 H   0  0  0  0  0  0  0  0  0  0  0  0
   45.6933    9.9326   19.6556 H   0  0  0  0  0  0  0  0  0  0  0  0
   44.8633   11.5011   19.5981 H   0  0  0  0  0  0  0  0  0  0  0  0
   48.5984    8.7092   16.4477 H   0  0  0  0  0  0  0  0  0  0  0  0
   50.1158    8.2537   14.4662 H   0  0  0  0  0  0  0  0  0  0  0  0
   48.8285    8.9814   13.4976 H   0  0  0  0  0  0  0  0  0  0  0  0
  2  3  1  0
  4  5  1  0
  6  7  1  0
  7  2  2  0
  3 10  1  0
  3  4  2  0
  4  8  1  0
  8  9  2  0
  9 10  1  0
  5 13  1  0
  5  6  1  0
  6 11  2  0
 11 12  1  0
 12 13  2  0
 14 13  1  0
 14 15  1  0
 14 18  1  0
 15 16  1  0
 16 17  1  0
 17 18  1  0
 15 19  1  0
 19 20  1  0
 17 21  1  0
 21 22  1  0
 21 23  2  0
 22 24  1  0
 24 25  1  0
 25 26  1  0
 25 27  1  0
 25 28  1  0
 29 30  1  0
 31 32  1  0
 33 34  1  0
 34 29  2  0
 30 37  1  0
 30 31  2  0
 31 35  1  0
 35 36  2  0
 36 37  1  0
 32 40  1  0
 32 33  1  0
 33 38  2  0
 38 39  1  0
 39 40  2  0
 41 40  1  0
 41 42  1  0
 41 45  1  0
 42 43  1  0
 43 44  1  0
 44 45  1  0
 42 46  1  0
 46 47  1  0
 44 48  1  0
 48 49  1  0
 48 50  2  0
 49 51  1  0
 51 52  1  0
 52 53  1  0
 52 54  1  0
 52 55  1  0
  1 56  1  0
  1 57  1  0
  7 58  1  0
  8 59  1  0
  9 60  1  0
 10 61  1  0
 12 62  1  0
 14 63  1  6
 15 64  1  6
 16 65  1  0
 16 66  1  0
 18 67  1  0
 18 68  1  0
 19 69  1  0
 19 70  1  0
 20 71  1  0
 20 72  1  0
 20 73  1  0
 22 74  1  0
 24 75  1  0
 24 76  1  0
 34 77  1  0
 35 78  1  0
 36 79  1  0
 37 80  1  0
 39 81  1  0
 41 82  1  6
 42 83  1  6
 43 84  1  0
 43 85  1  0
 45 86  1  0
 45 87  1  0
 46 88  1  0
 46 89  1  0
 47 90  1  0
 47 91  1  0
 47 92  1  0
 49 93  1  0
 51 94  1  0
 51 95  1  0
M  END
> <Uni-Dock RESULT> 
ENERGY=   -4.660  LOWER_BOUND=    3.195  UPPER_BOUND=    4.402
INTER + INTRA:          -4.660
INTER:                  -4.660
INTRA:                   0.000
UNBOUND:                 0.000

$$$$

     RDKit          3D

 95100  0  0  0  0  0  0  0  0999 V2000
   49.2398    9.5763   17.3293 O   0  0  0  0  0  0  0  0  0  0  0  0
   50.8244   14.9648   16.1114 N   0  0  0  0  0  0  0  0  0  0  0  0
   50.2461   13.8753   15.5336 C   0  0  0  0  0  0  0  0  0  0  0  0
   49.7107   12.7487   16.1289 C   0  0  0  0  0  0  0  0  0  0  0  0
   49.7729   12.7032   17.5357 N   0  0  0  0  0  0  0  0  0  0  0  0
   50.2996   13.8040   18.1789 C   0  0  0  0  0  0  0  0  0  0  0  0
   50.8368   14.9183   17.4221 C   0  0  0  0  0  0  0  0  0  0  0  0
   49.1814   11.9139   15.1329 C   0  0  0  0  0  0  0  0  0  0  0  0
   49.4374   12.5451   13.9289 C   0  0  0  0  0  0  0  0  0  0  0  0
   50.0880   13.7318   14.1841 N   0  0  0  0  0  0  0  0  0  0  0  0
   50.1967   13.7113   19.4836 N   0  0  0  0  0  0  0  0  0  0  0  0
   49.6005   12.4911   19.6891 C   0  0  0  0  0  0  0  0  0  0  0  0
   49.3935   11.7924   18.5067 C   0  0  0  0  0  0  0  0  0  0  0  0
   48.8329   10.4410   18.2059 C   0  0  2  0  0  0  0  0  0  0  0  0
   48.2568    9.5844   19.3654 C   0  0  1  0  0  0  0  0  0  0  0  0
   47.9800    8.2721   18.6002 C   0  0  0  0  0  0  0  0  0  0  0  0
   49.0809    8.1787   17.6429 N   0  0  0  0  0  0  0  0  0  0  0  0
   49.7962    9.4464   17.5504 C   0  0  0  0  0  0  0  0  0  0  0  0
   49.2101    9.2733   20.5465 C   0  0  0  0  0  0  0  0  0  0  0  0
   48.4667    8.6782   21.7384 C   0  0  0  0  0  0  0  0  0  0  0  0
   49.5438    7.0635   16.9972 C   0  0  0  0  0  0  0  0  0  0  0  0
   48.7707    5.9470   17.1635 N   0  0  0  0  0  0  0  0  0  0  0  0
   50.5717    7.0566   16.3282 O   0  0  0  0  0  0  0  0  0  0  0  0
   49.1306    4.7137   16.4607 C   0  0  0  0  0  0  0  0  0  0  0  0
   48.3138    3.4941   16.8699 C   0  0  0  0  0  0  0  0  0  0  0  0
   48.6302    2.4177   16.1177 F   0  0  0  0  0  0  0  0  0  0  0  0
   46.9895    3.7317   16.7084 F   0  0  0  0  0  0  0  0  0  0  0  0
   48.5139    3.1676   18.1652 F   0  0  0  0  0  0  0  0  0  0  0  0
   53.1197   13.5203   17.2656 N   0  0  0  0  0  0  0  0  0  0  0  0
   52.0223   13.4841   16.4596 C   0  0  0  0  0  0  0  0  0  0  0  0
   50.8974   12.6863   16.5475 C   0  0  0  0  0  0  0  0  0  0  0  0
   50.8681   11.7774   17.6220 N   0  0  0  0  0  0  0  0  0  0  0  0
   51.9649   11.7468   18.4580 C   0  0  0  0  0  0  0  0  0  0  0  0
   53.0790   12.6511   18.2477 C   0  0  0  0  0  0  0  0  0  0  0  0
   50.0373   12.9856   15.4797 C   0  0  0  0  0  0  0  0  0  0  0  0
   50.6620   13.9865   14.7570 C   0  0  0  0  0  0  0  0  0  0  0  0
   51.8641   14.2816   15.3612 N   0  0  0  0  0  0  0  0  0  0  0  0
   51.8572   10.8240   19.3860 N   0  0  0  0  0  0  0  0  0  0  0  0
   50.6398   10.2391   19.1401 C   0  0  0  0  0  0  0  0  0  0  0  0
   49.9694   10.8348   18.0797 C   0  0  0  0  0  0  0  0  0  0  0  0
   48.6306   10.5698   17.4493 C   0  0  2  0  0  0  0  0  0  0  0  0
   47.5014   10.0693   18.3800 C   0  0  1  0  0  0  0  0  0  0  0  0
   47.7115    8.5538   18.4383 C   0  0  0  0  0  0  0  0  0  0  0  0
   48.3721    8.2248   17.1827 N   0  0  0  0  0  0  0  0  0  0  0  0
   48.7171    9.4236   16.4314 C   0  0  0  0  0  0  0  0  0  0  0  0
   47.3650   10.7647   19.7354 C   0  0  0  0  0  0  0  0  0  0  0  0
   46.1092   10.3334   20.4818 C   0  0  0  0  0  0  0  0  0  0  0  0
   48.5047    6.9864   16.6111 C   0  0  0  0  0  0  0  0  0  0  0  0
   48.1464    5.9437   17.4225 N   0  0  0  0  0  0  0  0  0  0  0  0
   48.8996    6.8189   15.4620 O   0  0  0  0  0  0  0  0  0  0  0  0
   48.3262    4.5715   16.9430 C   0  0  0  0  0  0  0  0  0  0  0  0
   47.7201    3.5033   17.8450 C   0  0  0  0  0  0  0  0  0  0  0  0
   48.0116    2.2623   17.3985 F   0  0  0  0  0  0  0  0  0  0  0  0
   48.2071    3.6108   19.1047 F   0  0  0  0  0  0  0  0  0  0  0  0
   46.3757    3.6113   17.9173 F   0  0  0  0  0  0  0  0  0  0  0  0
   48.7640    8.9424   17.8868 H   0  0  0  0  0  0  0  0  0  0  0  0
   49.2553   10.3878   17.8588 H   0  0  0  0  0  0  0  0  0  0  0  0
   51.2720   15.7616   17.9819 H   0  0  0  0  0  0  0  0  0  0  0  0
   48.6627   10.9711   15.2343 H   0  0  0  0  0  0  0  0  0  0  0  0
   49.2084   12.2571   12.9111 H   0  0  0  0  0  0  0  0  0  0  0  0
   50.3935   14.4088   13.4984 H   0  0  0  0  0  0  0  0  0  0  0  0
   49.3589   12.1868   20.6988 H   0  0  0  0  0  0  0  0  0  0  0  0
   47.9918   10.6086   17.5146 H   0  0  0  0  0  0  0  0  0  0  0  0
   47.3284   10.0247   19.7472 H   0  0  0  0  0  0  0  0  0  0  0  0
   47.9312    7.3803   19.2305 H   0  0  0  0  0  0  0  0  0  0  0  0
   47.0511    8.3446   18.0225 H   0  0  0  0  0  0  0  0  0  0  0  0
   50.0339    9.6649   16.5076 H   0  0  0  0  0  0  0  0  0  0  0  0
   50.7421    9.3552   18.0972 H   0  0  0  0  0  0  0  0  0  0  0  0
   49.9977    8.5722   20.2450 H   0  0  0  0  0  0  0  0  0  0  0  0
   49.7264   10.1648   20.8990 H   0  0  0  0  0  0  0  0  0  0  0  0
   49.1653    8.4913   22.5604 H   0  0  0  0  0  0  0  0  0  0  0  0
   47.9876    7.7281   21.4857 H   0  0  0  0  0  0  0  0  0  0  0  0
   47.6966    9.3668   22.1011 H   0  0  0  0  0  0  0  0  0  0  0  0
   47.7826    6.1337   17.2581 H   0  0  0  0  0  0  0  0  0  0  0  0
   50.1954    4.5176   16.6293 H   0  0  0  0  0  0  0  0  0  0  0  0
   48.9951    4.9027   15.3899 H   0  0  0  0  0  0  0  0  0  0  0  0
   53.9265   12.5994   18.9497 H   0  0  0  0  0  0  0  0  0  0  0  0
   49.0830   12.5479   15.2250 H   0  0  0  0  0  0  0  0  0  0  0  0
   50.3604   14.5116   13.8600 H   0  0  0  0  0  0  0  0  0  0  0  0
   52.5396   14.9665   15.0510 H   0  0  0  0  0  0  0  0  0  0  0  0
   50.3035    9.4170   19.7585 H   0  0  0  0  0  0  0  0  0  0  0  0
   48.2806   11.4861   16.9661 H   0  0  0  0  0  0  0  0  0  0  0  0
   46.5606   10.2364   17.8319 H   0  0  0  0  0  0  0  0  0  0  0  0
   46.7648    8.0098   18.5199 H   0  0  0  0  0  0  0  0  0  0  0  0
   48.3633    8.2458   19.2612 H   0  0  0  0  0  0  0  0  0  0  0  0
   47.9606    9.5442   15.6464 H   0  0  0  0  0  0  0  0  0  0  0  0
   49.6967    9.3119   15.9543 H   0  0  0  0  0  0  0  0  0  0  0  0
   47.3279   11.8499   19.5827 H   0  0  0  0  0  0  0  0  0  0  0  0
   48.2267   10.5599   20.3775 H   0  0  0  0  0  0  0  0  0  0  0  0
   46.0247   10.8828   21.4248 H   0  0  0  0  0  0  0  0  0  0  0  0
   46.1334    9.2650   20.7172 H   0  0  0  0  0  0  0  0  0  0  0  0
   45.2108   10.5370   19.8907 H   0  0  0  0  0  0  0  0  0  0  0  0
   48.3345    6.0986   18.4028 H   0  0  0  0  0  0  0  0  0  0  0  0
   49.4050    4.4030   16.8487 H   0  0  0  0  0  0  0  0  0  0  0  0
   47.8915    4.4961   15.9400 H   0  0  0  0  0  0  0  0  0  0  0  0
  2  3  1  0
  4  5  1  0
  6  7  1  0
  7  2  2  0
  3 10  1  0
  3  4  2  0
  4  8  1  0
  8  9  2  0
  9 10  1  0
  5 13  1  0
  5  6  1  0
  6 11  2  0
 11 12  1  0
 12 13  2  0
 14 13  1  0
 14 15  1  0
 14 18  1  0
 15 16  1  0
 16 17  1  0
 17 18  1  0
 15 19  1  0
 19 20  1  0
 17 21  1  0
 21 22  1  0
 21 23  2  0
 22 24  1  0
 24 25  1  0
 25 26  1  0
 25 27  1  0
 25 28  1  0
 29 30  1  0
 31 32  1  0
 33 34  1  0
 34 29  2  0
 30 37  1  0
 30 31  2  0
 31 35  1  0
 35 36  2  0
 36 37  1  0
 32 40  1  0
 32 33  1  0
 33 38  2  0
 38 39  1  0
 39 40  2  0
 41 40  1  0
 41 42  1  0
 41 45  1  0
 42 43  1  0
 43 44  1  0
 44 45  1  0
 42 46  1  0
 46 47  1  0
 44 48  1  0
 48 49  1  0
 48 50  2  0
 49 51  1  0
 51 52  1  0
 52 53  1  0
 52 54  1  0
 52 55  1  0
  1 56  1  0
  1 57  1  0
  7 58  1  0
  8 59  1  0
  9 60  1  0
 10 61  1  0
 12 62  1  0
 14 63  1  6
 15 64  1  6
 16 65  1  0
 16 66  1  0
 18 67  1  0
 18 68  1  0
 19 69  1  0
 19 70  1  0
 20 71  1  0
 20 72  1  0
 20 73  1  0
 22 74  1  0
 24 75  1  0
 24 76  1  0
 34 77  1  0
 35 78  1  0
 36 79  1  0
 37 80  1  0
 39 81  1  0
 41 82  1  6
 42 83  1  6
 43 84  1  0
 43 85  1  0
 45 86  1  0
 45 87  1  0
 46 88  1  0
 46 89  1  0
 47 90  1  0
 47 91  1  0
 47 92  1  0
 49 93  1  0
 51 94  1  0
 51 95  1  0
M  END
> <Uni-Dock RESULT> 
ENERGY=   -4.612  LOWER_BOUND=    3.130  UPPER_BOUND=    3.905
INTER + INTRA:          -4.612
INTER:                  -4.612
INTRA:                   0.000
UNBOUND:                 0.000

$$$$

     RDKit          3D

 95100  0  0  0  0  0  0  0  0999 V2000
   49.0137    8.3680   17.3335 O   0  0  0  0  0  0  0  0  0  0  0  0
   49.9301    9.0178   11.6972 N   0  0  0  0  0  0  0  0  0  0  0  0
   49.1771    8.2929   12.5705 C   0  0  0  0  0  0  0  0  0  0  0  0
   48.9357    8.5153   13.9131 C   0  0  0  0  0  0  0  0  0  0  0  0
   49.5593    9.6467   14.4749 N   0  0  0  0  0  0  0  0  0  0  0  0
   50.2915   10.4496   13.6250 C   0  0  0  0  0  0  0  0  0  0  0  0
   50.4695   10.0868   12.2323 C   0  0  0  0  0  0  0  0  0  0  0  0
   48.0571    7.5297   14.3884 C   0  0  0  0  0  0  0  0  0  0  0  0
   47.8016    6.6953   13.3150 C   0  0  0  0  0  0  0  0  0  0  0  0
   48.4902    7.1653   12.2189 N   0  0  0  0  0  0  0  0  0  0  0  0
   50.7232   11.5364   14.2200 N   0  0  0  0  0  0  0  0  0  0  0  0
   50.2701   11.4168   15.5112 C   0  0  0  0  0  0  0  0  0  0  0  0
   49.6103   10.2154   15.7360 C   0  0  0  0  0  0  0  0  0  0  0  0
   48.9871    9.6063   16.9490 C   0  0  2  0  0  0  0  0  0  0  0  0
   48.9335   10.4261   18.2663 C   0  0  1  0  0  0  0  0  0  0  0  0
   48.3827    9.3428   19.2190 C   0  0  0  0  0  0  0  0  0  0  0  0
   49.0059    8.1061   18.7506 N   0  0  0  0  0  0  0  0  0  0  0  0
   49.6130    8.2964   17.4382 C   0  0  0  0  0  0  0  0  0  0  0  0
   50.2841   10.9355   18.8292 C   0  0  0  0  0  0  0  0  0  0  0  0
   50.0882   11.9518   19.9500 C   0  0  0  0  0  0  0  0  0  0  0  0
   49.1787    6.9359   19.4404 C   0  0  0  0  0  0  0  0  0  0  0  0
   48.5469    6.8910   20.6531 N   0  0  0  0  0  0  0  0  0  0  0  0
   49.8502    6.0021   19.0150 O   0  0  0  0  0  0  0  0  0  0  0  0
   48.6035    5.6615   21.4466 C   0  0  0  0  0  0  0  0  0  0  0  0
   48.0304    5.7921   22.8526 C   0  0  0  0  0  0  0  0  0  0  0  0
   48.0260    4.6025   23.4923 F   0  0  0  0  0  0  0  0  0  0  0  0
   46.7513    6.2370   22.8061 F   0  0  0  0  0  0  0  0  0  0  0  0
   48.7377    6.6638   23.6038 F   0  0  0  0  0  0  0  0  0  0  0  0
   52.5075    8.5463   13.0471 N   0  0  0  0  0  0  0  0  0  0  0  0
   51.1788    8.2575   12.9667 C   0  0  0  0  0  0  0  0  0  0  0  0
   50.1910    8.4074   13.9213 C   0  0  0  0  0  0  0  0  0  0  0  0
   50.6041    8.9362   15.1587 N   0  0  0  0  0  0  0  0  0  0  0  0
   51.9449    9.2224   15.3113 C   0  0  0  0  0  0  0  0  0  0  0  0
   52.8727    9.0186   14.2155 C   0  0  0  0  0  0  0  0  0  0  0  0
   48.9715    7.9538   13.3957 C   0  0  0  0  0  0  0  0  0  0  0  0
   49.2442    7.5406   12.1037 C   0  0  0  0  0  0  0  0  0  0  0  0
   50.5853    7.7307   11.8541 N   0  0  0  0  0  0  0  0  0  0  0  0
   52.2273    9.6517   16.5197 N   0  0  0  0  0  0  0  0  0  0  0  0
   51.0187    9.6453   17.1708 C   0  0  0  0  0  0  0  0  0  0  0  0
   49.9734    9.2521   16.3454 C   0  0  0  0  0  0  0  0  0  0  0  0
   48.4963    9.1024   16.5814 C   0  0  2  0  0  0  0  0  0  0  0  0
   47.8414   10.0802   17.5847 C   0  0  1  0  0  0  0  0  0  0  0  0
   48.0695    9.4225   18.9484 C   0  0  0  0  0  0  0  0  0  0  0  0
   48.1713    7.9989   18.6583 N   0  0  0  0  0  0  0  0  0  0  0  0
   48.1750    7.7456   17.2243 C   0  0  0  0  0  0  0  0  0  0  0  0
   48.2566   11.5490   17.4879 C   0  0  0  0  0  0  0  0  0  0  0  0
   47.4110   12.4480   18.3807 C   0  0  0  0  0  0  0  0  0  0  0  0
   48.0726    6.9591   19.5456 C   0  0  0  0  0  0  0  0  0  0  0  0
   48.0798    7.3322   20.8626 N   0  0  0  0  0  0  0  0  0  0  0  0
   47.9729    5.7879   19.1952 O   0  0  0  0  0  0  0  0  0  0  0  0
   48.0625    6.2965   21.8982 C   0  0  0  0  0  0  0  0  0  0  0  0
   47.8795    6.8245   23.3158 C   0  0  0  0  0  0  0  0  0  0  0  0
   47.9766    5.8304   24.2250 F   0  0  0  0  0  0  0  0  0  0  0  0
   48.8314    7.7428   23.6090 F   0  0  0  0  0  0  0  0  0  0  0  0
   46.6771    7.4179   23.4790 F   0  0  0  0  0  0  0  0  0  0  0  0
   48.8077    8.7420   18.2034 H   0  0  0  0  0  0  0  0  0  0  0  0
   49.2344    9.1414   16.7928 H   0  0  0  0  0  0  0  0  0  0  0  0
   51.0864   10.7463   11.6010 H   0  0  0  0  0  0  0  0  0  0  0  0
   47.6307    7.4105   15.3743 H   0  0  0  0  0  0  0  0  0  0  0  0
   47.1845    5.8100   13.2325 H   0  0  0  0  0  0  0  0  0  0  0  0
   48.4883    6.7642   11.2910 H   0  0  0  0  0  0  0  0  0  0  0  0
   50.4580   12.2199   16.2113 H   0  0  0  0  0  0  0  0  0  0  0  0
   47.9375    9.4048   16.6820 H   0  0  0  0  0  0  0  0  0  0  0  0
   48.2338   11.2645   18.1718 H   0  0  0  0  0  0  0  0  0  0  0  0
   48.5990    9.5153   20.2765 H   0  0  0  0  0  0  0  0  0  0  0  0
   47.2993    9.2285   19.0966 H   0  0  0  0  0  0  0  0  0  0  0  0
   49.4090    7.4314   16.8043 H   0  0  0  0  0  0  0  0  0  0  0  0
   50.6998    8.3710   17.5630 H   0  0  0  0  0  0  0  0  0  0  0  0
   50.8893   10.1066   19.2158 H   0  0  0  0  0  0  0  0  0  0  0  0
   50.8913   11.4127   18.0617 H   0  0  0  0  0  0  0  0  0  0  0  0
   51.0602   12.3059   20.3088 H   0  0  0  0  0  0  0  0  0  0  0  0
   49.5557   11.5200   20.8021 H   0  0  0  0  0  0  0  0  0  0  0  0
   49.5238   12.8201   19.5950 H   0  0  0  0  0  0  0  0  0  0  0  0
   47.6791    7.4062   20.6911 H   0  0  0  0  0  0  0  0  0  0  0  0
   49.6476    5.3340   21.5032 H   0  0  0  0  0  0  0  0  0  0  0  0
   48.0469    4.8963   20.8940 H   0  0  0  0  0  0  0  0  0  0  0  0
   53.9315    9.2747   14.3800 H   0  0  0  0  0  0  0  0  0  0  0  0
   47.9989    7.9058   13.8637 H   0  0  0  0  0  0  0  0  0  0  0  0
   48.6028    7.1204   11.3399 H   0  0  0  0  0  0  0  0  0  0  0  0
   51.0732    7.5116   10.9965 H   0  0  0  0  0  0  0  0  0  0  0  0
   50.9665    9.9413   18.2105 H   0  0  0  0  0  0  0  0  0  0  0  0
   47.9739    9.2075   15.6266 H   0  0  0  0  0  0  0  0  0  0  0  0
   46.7582   10.0342   17.3896 H   0  0  0  0  0  0  0  0  0  0  0  0
   47.2401    9.6079   19.6388 H   0  0  0  0  0  0  0  0  0  0  0  0
   48.9999    9.7439   19.4257 H   0  0  0  0  0  0  0  0  0  0  0  0
   47.1655    7.4157   16.9499 H   0  0  0  0  0  0  0  0  0  0  0  0
   48.8805    6.9456   16.9751 H   0  0  0  0  0  0  0  0  0  0  0  0
   48.1523   11.8865   16.4498 H   0  0  0  0  0  0  0  0  0  0  0  0
   49.3054   11.6865   17.7666 H   0  0  0  0  0  0  0  0  0  0  0  0
   47.7088   13.4935   18.2520 H   0  0  0  0  0  0  0  0  0  0  0  0
   47.5366   12.1913   19.4371 H   0  0  0  0  0  0  0  0  0  0  0  0
   46.3490   12.3660   18.1288 H   0  0  0  0  0  0  0  0  0  0  0  0
   48.6454    8.1458   21.0593 H   0  0  0  0  0  0  0  0  0  0  0  0
   49.0134    5.7562   21.8279 H   0  0  0  0  0  0  0  0  0  0  0  0
   47.2614    5.5866   21.6637 H   0  0  0  0  0  0  0  0  0  0  0  0
  2  3  1  0
  4  5  1  0
  6  7  1  0
  7  2  2  0
  3 10  1  0
  3  4  2  0
  4  8  1  0
  8  9  2  0
  9 10  1  0
  5 13  1  0
  5  6  1  0
  6 11  2  0
 11 12  1  0
 12 13  2  0
 14 13  1  0
 14 15  1  0
 14 18  1  0
 15 16  1  0
 16 17  1  0
 17 18  1  0
 15 19  1  0
 19 20  1  0
 17 21  1  0
 21 22  1  0
 21 23  2  0
 22 24  1  0
 24 25  1  0
 25 26  1  0
 25 27  1  0
 25 28  1  0
 29 30  1  0
 31 32  1  0
 33 34  1  0
 34 29  2  0
 30 37  1  0
 30 31  2  0
 31 35  1  0
 35 36  2  0
 36 37  1  0
 32 40  1  0
 32 33  1  0
 33 38  2  0
 38 39  1  0
 39 40  2  0
 41 40  1  0
 41 42  1  0
 41 45  1  0
 42 43  1  0
 43 44  1  0
 44 45  1  0
 42 46  1  0
 46 47  1  0
 44 48  1  0
 48 49  1  0
 48 50  2  0
 49 51  1  0
 51 52  1  0
 52 53  1  0
 52 54  1  0
 52 55  1  0
  1 56  1  0
  1 57  1  0
  7 58  1  0
  8 59  1  0
  9 60  1  0
 10 61  1  0
 12 62  1  0
 14 63  1  6
 15 64  1  6
 16 65  1  0
 16 66  1  0
 18 67  1  0
 18 68  1  0
 19 69  1  0
 19 70  1  0
 20 71  1  0
 20 72  1  0
 20 73  1  0
 22 74  1  0
 24 75  1  0
 24 76  1  0
 34 77  1  0
 35 78  1  0
 36 79  1  0
 37 80  1  0
 39 81  1  0
 41 82  1  6
 42 83  1  6
 43 84  1  0
 43 85  1  0
 45 86  1  0
 45 87  1  0
 46 88  1  0
 46 89  1  0
 47 90  1  0
 47 91  1  0
 47 92  1  0
 49 93  1  0
 51 94  1  0
 51 95  1  0
M  END
> <Uni-Dock RESULT> 
ENERGY=   -4.317  LOWER_BOUND=    4.433  UPPER_BOUND=    6.945
INTER + INTRA:          -4.317
INTER:                  -4.317
INTRA:                   0.000
UNBOUND:                 0.000

$$$$
