
     RDKit          3D

 95100  0  0  0  0  0  0  0  0999 V2000
   48.7621    7.3910   13.8296 O   0  0  0  0  0  0  0  0  0  0  0  0
   51.6965   10.0859   17.5643 N   0  0  0  0  0  0  0  0  0  0  0  0
   52.1848    9.1679   16.6853 C   0  0  0  0  0  0  0  0  0  0  0  0
   51.5333    8.4884   15.6723 C   0  0  0  0  0  0  0  0  0  0  0  0
   50.1627    8.7792   15.5149 N   0  0  0  0  0  0  0  0  0  0  0  0
   49.6082    9.6964   16.3868 C   0  0  0  0  0  0  0  0  0  0  0  0
   50.4187   10.3346   17.4060 C   0  0  0  0  0  0  0  0  0  0  0  0
   52.4509    7.6404   15.0315 C   0  0  0  0  0  0  0  0  0  0  0  0
   53.6602    7.8242   15.6789 C   0  0  0  0  0  0  0  0  0  0  0  0
   53.4866    8.7535   16.6788 N   0  0  0  0  0  0  0  0  0  0  0  0
   48.3251    9.8795   16.1740 N   0  0  0  0  0  0  0  0  0  0  0  0
   48.0345    9.0414   15.1293 C   0  0  0  0  0  0  0  0  0  0  0  0
   49.1550    8.3597   14.6688 C   0  0  0  0  0  0  0  0  0  0  0  0
   49.2986    7.3610   13.5538 C   0  0  2  0  0  0  0  0  0  0  0  0
   48.9811    7.9020   12.1389 C   0  0  1  0  0  0  0  0  0  0  0  0
   47.4599    7.7555   12.0201 C   0  0  0  0  0  0  0  0  0  0  0  0
   47.1206    6.6520   12.9061 N   0  0  0  0  0  0  0  0  0  0  0  0
   48.2751    6.2186   13.6808 C   0  0  0  0  0  0  0  0  0  0  0  0
   49.4707    9.3049   11.7709 C   0  0  0  0  0  0  0  0  0  0  0  0
   50.9873    9.4091   11.7329 C   0  0  0  0  0  0  0  0  0  0  0  0
   45.9424    5.9567   12.9727 C   0  0  0  0  0  0  0  0  0  0  0  0
   44.9304    6.4586   12.2033 N   0  0  0  0  0  0  0  0  0  0  0  0
   45.7965    4.9557   13.6654 O   0  0  0  0  0  0  0  0  0  0  0  0
   43.6187    5.8143   12.2007 C   0  0  0  0  0  0  0  0  0  0  0  0
   43.4921    4.5725   11.3120 C   0  0  0  0  0  0  0  0  0  0  0  0
   44.3292    3.5747   11.6533 F   0  0  0  0  0  0  0  0  0  0  0  0
   43.7235    4.8859   10.0149 F   0  0  0  0  0  0  0  0  0  0  0  0
   42.2299    4.0846   11.3788 F   0  0  0  0  0  0  0  0  0  0  0  0
   52.3231    9.6267   17.2841 N   0  0  0  0  0  0  0  0  0  0  0  0
   52.6297    9.2217   16.0206 C   0  0  0  0  0  0  0  0  0  0  0  0
   51.8065    8.6841   15.0497 C   0  0  0  0  0  0  0  0  0  0  0  0
   50.4543    8.5255   15.4059 N   0  0  0  0  0  0  0  0  0  0  0  0
   50.0784    8.9285   16.6707 C   0  0  0  0  0  0  0  0  0  0  0  0
   51.0558    9.4784   17.5904 C   0  0  0  0  0  0  0  0  0  0  0  0
   52.5630    8.4313   13.8954 C   0  0  0  0  0  0  0  0  0  0  0  0
   53.8563    8.8202   14.1944 C   0  0  0  0  0  0  0  0  0  0  0  0
   53.8854    9.2971   15.4865 N   0  0  0  0  0  0  0  0  0  0  0  0
   48.7957    8.7509   16.8905 N   0  0  0  0  0  0  0  0  0  0  0  0
   48.3236    8.2099   15.7209 C   0  0  0  0  0  0  0  0  0  0  0  0
   49.3286    8.0398   14.7766 C   0  0  0  0  0  0  0  0  0  0  0  0
   49.2905    7.4653   13.3895 C   0  0  2  0  0  0  0  0  0  0  0  0
   48.7580    8.4333   12.3080 C   0  0  1  0  0  0  0  0  0  0  0  0
   47.2395    8.2552   12.3918 C   0  0  0  0  0  0  0  0  0  0  0  0
   47.0487    6.8817   12.8272 N   0  0  0  0  0  0  0  0  0  0  0  0
   48.3026    6.2887   13.2740 C   0  0  0  0  0  0  0  0  0  0  0  0
   49.2230    9.8884   12.4050 C   0  0  0  0  0  0  0  0  0  0  0  0
   48.7323   10.7371   11.2398 C   0  0  0  0  0  0  0  0  0  0  0  0
   45.7973    6.3248   12.8320 C   0  0  0  0  0  0  0  0  0  0  0  0
   45.7435    5.0267   13.2602 N   0  0  0  0  0  0  0  0  0  0  0  0
   44.7907    6.9409   12.4974 O   0  0  0  0  0  0  0  0  0  0  0  0
   44.4832    4.2860   13.1594 C   0  0  0  0  0  0  0  0  0  0  0  0
   44.1830    3.7190   11.7688 C   0  0  0  0  0  0  0  0  0  0  0  0
   44.0142    4.6676   10.8275 F   0  0  0  0  0  0  0  0  0  0  0  0
   43.0624    2.9595   11.7959 F   0  0  0  0  0  0  0  0  0  0  0  0
   45.1996    2.9154   11.3633 F   0  0  0  0  0  0  0  0  0  0  0  0
   49.1678    8.2664   13.9178 H   0  0  0  0  0  0  0  0  0  0  0  0
   48.1676    7.4845   13.0703 H   0  0  0  0  0  0  0  0  0  0  0  0
   49.9288   11.0623   18.0729 H   0  0  0  0  0  0  0  0  0  0  0  0
   52.3005    6.9660   14.2013 H   0  0  0  0  0  0  0  0  0  0  0  0
   54.6307    7.3743   15.5166 H   0  0  0  0  0  0  0  0  0  0  0  0
   54.1945    9.0884   17.3177 H   0  0  0  0  0  0  0  0  0  0  0  0
   47.0207    8.9684   14.7542 H   0  0  0  0  0  0  0  0  0  0  0  0
   50.2984    6.9286   13.5639 H   0  0  0  0  0  0  0  0  0  0  0  0
   49.4240    7.1935   11.4210 H   0  0  0  0  0  0  0  0  0  0  0  0
   46.9219    8.6465   12.3595 H   0  0  0  0  0  0  0  0  0  0  0  0
   47.1480    7.5317   10.9950 H   0  0  0  0  0  0  0  0  0  0  0  0
   47.9880    5.9811   14.7108 H   0  0  0  0  0  0  0  0  0  0  0  0
   48.6557    5.3048   13.2081 H   0  0  0  0  0  0  0  0  0  0  0  0
   49.0686   10.0585   12.4572 H   0  0  0  0  0  0  0  0  0  0  0  0
   49.0857    9.5599   10.7754 H   0  0  0  0  0  0  0  0  0  0  0  0
   51.4186    8.6587   11.0621 H   0  0  0  0  0  0  0  0  0  0  0  0
   51.4242    9.2757   12.7240 H   0  0  0  0  0  0  0  0  0  0  0  0
   51.2866   10.3968   11.3679 H   0  0  0  0  0  0  0  0  0  0  0  0
   44.9852    7.4291   11.9376 H   0  0  0  0  0  0  0  0  0  0  0  0
   42.9045    6.5692   11.8545 H   0  0  0  0  0  0  0  0  0  0  0  0
   43.3516    5.5571   13.2317 H   0  0  0  0  0  0  0  0  0  0  0  0
   50.7097    9.7834   18.5911 H   0  0  0  0  0  0  0  0  0  0  0  0
   52.2463    8.0286   12.9446 H   0  0  0  0  0  0  0  0  0  0  0  0
   54.7610    8.8037   13.6005 H   0  0  0  0  0  0  0  0  0  0  0  0
   54.6943    9.6556   15.9751 H   0  0  0  0  0  0  0  0  0  0  0  0
   47.2740    7.9587   15.6157 H   0  0  0  0  0  0  0  0  0  0  0  0
   50.2830    7.0943   13.1224 H   0  0  0  0  0  0  0  0  0  0  0  0
   49.0832    8.0342   11.3353 H   0  0  0  0  0  0  0  0  0  0  0  0
   46.7780    8.9174   13.1331 H   0  0  0  0  0  0  0  0  0  0  0  0
   46.7447    8.4147   11.4289 H   0  0  0  0  0  0  0  0  0  0  0  0
   48.1658    5.7245   14.2017 H   0  0  0  0  0  0  0  0  0  0  0  0
   48.6224    5.5946   12.4877 H   0  0  0  0  0  0  0  0  0  0  0  0
   48.8754   10.3484   13.3366 H   0  0  0  0  0  0  0  0  0  0  0  0
   50.3176    9.9185   12.4172 H   0  0  0  0  0  0  0  0  0  0  0  0
   49.0556   10.3148   10.2825 H   0  0  0  0  0  0  0  0  0  0  0  0
   47.6406   10.8123   11.2331 H   0  0  0  0  0  0  0  0  0  0  0  0
   49.1360   11.7523   11.3173 H   0  0  0  0  0  0  0  0  0  0  0  0
   46.5913    4.4871   13.1697 H   0  0  0  0  0  0  0  0  0  0  0  0
   43.6589    4.9344   13.4779 H   0  0  0  0  0  0  0  0  0  0  0  0
   44.5554    3.4604   13.8755 H   0  0  0  0  0  0  0  0  0  0  0  0
  2  3  1  0
  4  5  1  0
  6  7  1  0
  7  2  2  0
  3 10  1  0
  3  4  2  0
  4  8  1  0
  8  9  2  0
  9 10  1  0
  5 13  1  0
  5  6  1  0
  6 11  2  0
 11 12  1  0
 12 13  2  0
 14 13  1  0
 14 15  1  0
 14 18  1  0
 15 16  1  0
 16 17  1  0
 17 18  1  0
 15 19  1  0
 19 20  1  0
 17 21  1  0
 21 22  1  0
 21 23  2  0
 22 24  1  0
 24 25  1  0
 25 26  1  0
 25 27  1  0
 25 28  1  0
 29 30  1  0
 31 32  1  0
 33 34  1  0
 34 29  2  0
 30 37  1  0
 30 31  2  0
 31 35  1  0
 35 36  2  0
 36 37  1  0
 32 40  1  0
 32 33  1  0
 33 38  2  0
 38 39  1  0
 39 40  2  0
 41 40  1  0
 41 42  1  0
 41 45  1  0
 42 43  1  0
 43 44  1  0
 44 45  1  0
 42 46  1  0
 46 47  1  0
 44 48  1  0
 48 49  1  0
 48 50  2  0
 49 51  1  0
 51 52  1  0
 52 53  1  0
 52 54  1  0
 52 55  1  0
  1 56  1  0
  1 57  1  0
  7 58  1  0
  8 59  1  0
  9 60  1  0
 10 61  1  0
 12 62  1  0
 14 63  1  6
 15 64  1  6
 16 65  1  0
 16 66  1  0
 18 67  1  0
 18 68  1  0
 19 69  1  0
 19 70  1  0
 20 71  1  0
 20 72  1  0
 20 73  1  0
 22 74  1  0
 24 75  1  0
 24 76  1  0
 34 77  1  0
 35 78  1  0
 36 79  1  0
 37 80  1  0
 39 81  1  0
 41 82  1  6
 42 83  1  6
 43 84  1  0
 43 85  1  0
 45 86  1  0
 45 87  1  0
 46 88  1  0
 46 89  1  0
 47 90  1  0
 47 91  1  0
 47 92  1  0
 49 93  1  0
 51 94  1  0
 51 95  1  0
M  END
> <Uni-Dock RESULT> 
ENERGY=   -6.932  LOWER_BOUND=    0.000  UPPER_BOUND=    0.000
INTER + INTRA:          -6.932
INTER:                  -6.932
INTRA:                   0.000
UNBOUND:                 0.000

$$$$

     RDKit          3D

 95100  0  0  0  0  0  0  0  0999 V2000
   47.6873    9.0598   13.1505 O   0  0  0  0  0  0  0  0  0  0  0  0
   49.1304   14.3265   13.1687 N   0  0  0  0  0  0  0  0  0  0  0  0
   49.1998   13.4829   14.2351 C   0  0  0  0  0  0  0  0  0  0  0  0
   48.9178   12.1308   14.3054 C   0  0  0  0  0  0  0  0  0  0  0  0
   48.4962   11.5240   13.1046 N   0  0  0  0  0  0  0  0  0  0  0  0
   48.3961   12.3340   11.9897 C   0  0  0  0  0  0  0  0  0  0  0  0
   48.7279   13.7437   12.0651 C   0  0  0  0  0  0  0  0  0  0  0  0
   49.1331   11.6902   15.6211 C   0  0  0  0  0  0  0  0  0  0  0  0
   49.5474   12.8011   16.3350 C   0  0  0  0  0  0  0  0  0  0  0  0
   49.5851   13.8816   15.4837 N   0  0  0  0  0  0  0  0  0  0  0  0
   47.9736   11.6814   10.9311 N   0  0  0  0  0  0  0  0  0  0  0  0
   47.7837   10.4003   11.3795 C   0  0  0  0  0  0  0  0  0  0  0  0
   48.1250   10.2510   12.7187 C   0  0  0  0  0  0  0  0  0  0  0  0
   48.0832    9.0377   13.6060 C   0  0  2  0  0  0  0  0  0  0  0  0
   49.0188    7.8794   13.1840 C   0  0  1  0  0  0  0  0  0  0  0  0
   48.1992    7.1008   12.1488 C   0  0  0  0  0  0  0  0  0  0  0  0
   46.8109    7.3546   12.5040 N   0  0  0  0  0  0  0  0  0  0  0  0
   46.7069    8.3503   13.5617 C   0  0  0  0  0  0  0  0  0  0  0  0
   50.4245    8.2256   12.6864 C   0  0  0  0  0  0  0  0  0  0  0  0
   51.2931    8.8552   13.7641 C   0  0  0  0  0  0  0  0  0  0  0  0
   45.6942    6.6972   12.0607 C   0  0  0  0  0  0  0  0  0  0  0  0
   45.9158    5.7873   11.0651 N   0  0  0  0  0  0  0  0  0  0  0  0
   44.5748    6.9000   12.5178 O   0  0  0  0  0  0  0  0  0  0  0  0
   44.8011    5.0323   10.4965 C   0  0  0  0  0  0  0  0  0  0  0  0
   44.3373    3.8205   11.3114 C   0  0  0  0  0  0  0  0  0  0  0  0
   43.9043    4.1326   12.5475 F   0  0  0  0  0  0  0  0  0  0  0  0
   45.3373    2.9155   11.4359 F   0  0  0  0  0  0  0  0  0  0  0  0
   43.3202    3.1959   10.6704 F   0  0  0  0  0  0  0  0  0  0  0  0
   49.2793   14.1984   13.9708 N   0  0  0  0  0  0  0  0  0  0  0  0
   49.8059   13.1195   14.6136 C   0  0  0  0  0  0  0  0  0  0  0  0
   49.5120   11.7783   14.4578 C   0  0  0  0  0  0  0  0  0  0  0  0
   48.5270   11.4696   13.5013 N   0  0  0  0  0  0  0  0  0  0  0  0
   47.9628   12.5203   12.8076 C   0  0  0  0  0  0  0  0  0  0  0  0
   48.3705   13.8858   13.0775 C   0  0  0  0  0  0  0  0  0  0  0  0
   50.3181   11.0280   15.3272 C   0  0  0  0  0  0  0  0  0  0  0  0
   51.0953   11.9443   16.0126 C   0  0  0  0  0  0  0  0  0  0  0  0
   50.7756   13.2099   15.5724 N   0  0  0  0  0  0  0  0  0  0  0  0
   47.0702   12.1182   11.9319 N   0  0  0  0  0  0  0  0  0  0  0  0
   47.0559   10.7525   12.0658 C   0  0  0  0  0  0  0  0  0  0  0  0
   47.9384   10.3105   13.0439 C   0  0  0  0  0  0  0  0  0  0  0  0
   48.2351    8.9286   13.5518 C   0  0  2  0  0  0  0  0  0  0  0  0
   49.1835    8.1036   12.6518 C   0  0  1  0  0  0  0  0  0  0  0  0
   48.2396    7.4880   11.6151 C   0  0  0  0  0  0  0  0  0  0  0  0
   46.9728    7.3325   12.3103 N   0  0  0  0  0  0  0  0  0  0  0  0
   46.9780    8.0387   13.5851 C   0  0  0  0  0  0  0  0  0  0  0  0
   50.3739    8.8520   12.0467 C   0  0  0  0  0  0  0  0  0  0  0  0
   51.3045    7.9342   11.2654 C   0  0  0  0  0  0  0  0  0  0  0  0
   45.9455    6.6372   11.7296 C   0  0  0  0  0  0  0  0  0  0  0  0
   44.8044    6.5567   12.4799 N   0  0  0  0  0  0  0  0  0  0  0  0
   46.0253    6.1363   10.6126 O   0  0  0  0  0  0  0  0  0  0  0  0
   43.7002    5.7082   12.0239 C   0  0  0  0  0  0  0  0  0  0  0  0
   43.8695    4.2172   12.3303 C   0  0  0  0  0  0  0  0  0  0  0  0
   44.9191    3.6557   11.6998 F   0  0  0  0  0  0  0  0  0  0  0  0
   42.7583    3.5292   11.9765 F   0  0  0  0  0  0  0  0  0  0  0  0
   44.0454    4.0321   13.6639 F   0  0  0  0  0  0  0  0  0  0  0  0
   48.4527    9.5876   12.8777 H   0  0  0  0  0  0  0  0  0  0  0  0
   47.8365    8.1985   12.7325 H   0  0  0  0  0  0  0  0  0  0  0  0
   48.6356   14.3445   11.1459 H   0  0  0  0  0  0  0  0  0  0  0  0
   49.0177   10.7028   16.0435 H   0  0  0  0  0  0  0  0  0  0  0  0
   49.8184   12.9187   17.3758 H   0  0  0  0  0  0  0  0  0  0  0  0
   49.8507   14.8268   15.7234 H   0  0  0  0  0  0  0  0  0  0  0  0
   47.4063    9.6378   10.7086 H   0  0  0  0  0  0  0  0  0  0  0  0
   48.2928    9.3196   14.6371 H   0  0  0  0  0  0  0  0  0  0  0  0
   49.1265    7.2220   14.0613 H   0  0  0  0  0  0  0  0  0  0  0  0
   48.3627    7.4564   11.1263 H   0  0  0  0  0  0  0  0  0  0  0  0
   48.4113    6.0274   12.1806 H   0  0  0  0  0  0  0  0  0  0  0  0
   45.8677    9.0298   13.3778 H   0  0  0  0  0  0  0  0  0  0  0  0
   46.5154    7.8088   14.4963 H   0  0  0  0  0  0  0  0  0  0  0  0
   50.3851    8.8878   11.8142 H   0  0  0  0  0  0  0  0  0  0  0  0
   50.9136    7.3028   12.3493 H   0  0  0  0  0  0  0  0  0  0  0  0
   51.3418    8.2195   14.6543 H   0  0  0  0  0  0  0  0  0  0  0  0
   50.9167    9.8353   14.0619 H   0  0  0  0  0  0  0  0  0  0  0  0
   52.3138    8.9902   13.3922 H   0  0  0  0  0  0  0  0  0  0  0  0
   46.7484    5.8998   10.5087 H   0  0  0  0  0  0  0  0  0  0  0  0
   45.1324    4.6878    9.5109 H   0  0  0  0  0  0  0  0  0  0  0  0
   43.9581    5.7145   10.3403 H   0  0  0  0  0  0  0  0  0  0  0  0
   47.8896   14.6924   12.5010 H   0  0  0  0  0  0  0  0  0  0  0  0
   50.3663    9.9576   15.4626 H   0  0  0  0  0  0  0  0  0  0  0  0
   51.8524   11.8087   16.7740 H   0  0  0  0  0  0  0  0  0  0  0  0
   51.1862   14.0769   15.8906 H   0  0  0  0  0  0  0  0  0  0  0  0
   46.3990   10.1467   11.4517 H   0  0  0  0  0  0  0  0  0  0  0  0
   48.6255    8.9919   14.5704 H   0  0  0  0  0  0  0  0  0  0  0  0
   49.5746    7.2815   13.2702 H   0  0  0  0  0  0  0  0  0  0  0  0
   48.0785    8.1426   10.7509 H   0  0  0  0  0  0  0  0  0  0  0  0
   48.5898    6.5165   11.2534 H   0  0  0  0  0  0  0  0  0  0  0  0
   46.0434    8.5871   13.7381 H   0  0  0  0  0  0  0  0  0  0  0  0
   47.0675    7.2768   14.3686 H   0  0  0  0  0  0  0  0  0  0  0  0
   50.0344    9.6496   11.3769 H   0  0  0  0  0  0  0  0  0  0  0  0
   50.9494    9.3253   12.8492 H   0  0  0  0  0  0  0  0  0  0  0  0
   51.6708    7.1169   11.8956 H   0  0  0  0  0  0  0  0  0  0  0  0
   50.8001    7.5009   10.3964 H   0  0  0  0  0  0  0  0  0  0  0  0
   52.1706    8.4975   10.9018 H   0  0  0  0  0  0  0  0  0  0  0  0
   44.9140    6.6553   13.4781 H   0  0  0  0  0  0  0  0  0  0  0  0
   43.5607    5.8485   10.9460 H   0  0  0  0  0  0  0  0  0  0  0  0
   42.8014    6.0783   12.5287 H   0  0  0  0  0  0  0  0  0  0  0  0
  2  3  1  0
  4  5  1  0
  6  7  1  0
  7  2  2  0
  3 10  1  0
  3  4  2  0
  4  8  1  0
  8  9  2  0
  9 10  1  0
  5 13  1  0
  5  6  1  0
  6 11  2  0
 11 12  1  0
 12 13  2  0
 14 13  1  0
 14 15  1  0
 14 18  1  0
 15 16  1  0
 16 17  1  0
 17 18  1  0
 15 19  1  0
 19 20  1  0
 17 21  1  0
 21 22  1  0
 21 23  2  0
 22 24  1  0
 24 25  1  0
 25 26  1  0
 25 27  1  0
 25 28  1  0
 29 30  1  0
 31 32  1  0
 33 34  1  0
 34 29  2  0
 30 37  1  0
 30 31  2  0
 31 35  1  0
 35 36  2  0
 36 37  1  0
 32 40  1  0
 32 33  1  0
 33 38  2  0
 38 39  1  0
 39 40  2  0
 41 40  1  0
 41 42  1  0
 41 45  1  0
 42 43  1  0
 43 44  1  0
 44 45  1  0
 42 46  1  0
 46 47  1  0
 44 48  1  0
 48 49  1  0
 48 50  2  0
 49 51  1  0
 51 52  1  0
 52 53  1  0
 52 54  1  0
 52 55  1  0
  1 56  1  0
  1 57  1  0
  7 58  1  0
  8 59  1  0
  9 60  1  0
 10 61  1  0
 12 62  1  0
 14 63  1  6
 15 64  1  6
 16 65  1  0
 16 66  1  0
 18 67  1  0
 18 68  1  0
 19 69  1  0
 19 70  1  0
 20 71  1  0
 20 72  1  0
 20 73  1  0
 22 74  1  0
 24 75  1  0
 24 76  1  0
 34 77  1  0
 35 78  1  0
 36 79  1  0
 37 80  1  0
 39 81  1  0
 41 82  1  6
 42 83  1  6
 43 84  1  0
 43 85  1  0
 45 86  1  0
 45 87  1  0
 46 88  1  0
 46 89  1  0
 47 90  1  0
 47 91  1  0
 47 92  1  0
 49 93  1  0
 51 94  1  0
 51 95  1  0
M  END
> <Uni-Dock RESULT> 
ENERGY=   -6.396  LOWER_BOUND=    2.393  UPPER_BOUND=    3.744
INTER + INTRA:          -6.396
INTER:                  -6.396
INTRA:                   0.000
UNBOUND:                 0.000

$$$$

     RDKit          3D

 95100  0  0  0  0  0  0  0  0999 V2000
   43.2533   10.6647   10.2725 O   0  0  0  0  0  0  0  0  0  0  0  0
   42.5696   14.3388    6.2908 N   0  0  0  0  0  0  0  0  0  0  0  0
   41.8781   14.3039    7.4631 C   0  0  0  0  0  0  0  0  0  0  0  0
   42.0263   13.4559    8.5455 C   0  0  0  0  0  0  0  0  0  0  0  0
   43.0381   12.4805    8.4325 N   0  0  0  0  0  0  0  0  0  0  0  0
   43.7668   12.4603    7.2589 C   0  0  0  0  0  0  0  0  0  0  0  0
   43.4992   13.4179    6.2033 C   0  0  0  0  0  0  0  0  0  0  0  0
   41.0821   13.8018    9.5255 C   0  0  0  0  0  0  0  0  0  0  0  0
   40.3675   14.8692    9.0103 C   0  0  0  0  0  0  0  0  0  0  0  0
   40.8601   15.1652    7.7599 N   0  0  0  0  0  0  0  0  0  0  0  0
   44.6657   11.5028    7.2422 N   0  0  0  0  0  0  0  0  0  0  0  0
   44.5073   10.8718    8.4485 C   0  0  0  0  0  0  0  0  0  0  0  0
   43.5255   11.4660    9.2329 C   0  0  0  0  0  0  0  0  0  0  0  0
   43.0323   11.1147   10.6093 C   0  0  2  0  0  0  0  0  0  0  0  0
   44.0837   11.2388   11.7383 C   0  0  1  0  0  0  0  0  0  0  0  0
   44.8226    9.8963   11.7042 C   0  0  0  0  0  0  0  0  0  0  0  0
   43.8563    8.9516   11.1643 N   0  0  0  0  0  0  0  0  0  0  0  0
   42.6485    9.6278   10.7115 C   0  0  0  0  0  0  0  0  0  0  0  0
   45.0348   12.4381   11.7165 C   0  0  0  0  0  0  0  0  0  0  0  0
   44.3162   13.7641   11.9109 C   0  0  0  0  0  0  0  0  0  0  0  0
   43.9235    7.5836   11.1669 C   0  0  0  0  0  0  0  0  0  0  0  0
   45.1066    7.0636   11.6116 N   0  0  0  0  0  0  0  0  0  0  0  0
   42.9962    6.8692   10.8022 O   0  0  0  0  0  0  0  0  0  0  0  0
   45.3075    5.6164   11.6470 C   0  0  0  0  0  0  0  0  0  0  0  0
   44.6960    4.8916   12.8505 C   0  0  0  0  0  0  0  0  0  0  0  0
   43.3590    5.0233   12.9399 F   0  0  0  0  0  0  0  0  0  0  0  0
   45.2377    5.3422   14.0072 F   0  0  0  0  0  0  0  0  0  0  0  0
   44.9698    3.5667   12.7787 F   0  0  0  0  0  0  0  0  0  0  0  0
   41.9672   14.6301    6.7747 N   0  0  0  0  0  0  0  0  0  0  0  0
   41.8977   14.7489    8.1296 C   0  0  0  0  0  0  0  0  0  0  0  0
   42.2348   13.8323    9.1071 C   0  0  0  0  0  0  0  0  0  0  0  0
   42.7195   12.5928    8.6499 N   0  0  0  0  0  0  0  0  0  0  0  0
   42.8241   12.4149    7.2857 C   0  0  0  0  0  0  0  0  0  0  0  0
   42.4306   13.4704    6.3721 C   0  0  0  0  0  0  0  0  0  0  0  0
   42.0078   14.4027   10.3687 C   0  0  0  0  0  0  0  0  0  0  0  0
   41.5212   15.6753   10.1298 C   0  0  0  0  0  0  0  0  0  0  0  0
   41.4577   15.8742    8.7681 N   0  0  0  0  0  0  0  0  0  0  0  0
   43.3011   11.2321    6.9717 N   0  0  0  0  0  0  0  0  0  0  0  0
   43.5122   10.6200    8.1818 C   0  0  0  0  0  0  0  0  0  0  0  0
   43.1481   11.4291    9.2511 C   0  0  0  0  0  0  0  0  0  0  0  0
   43.1713   11.1758   10.7313 C   0  0  2  0  0  0  0  0  0  0  0  0
   44.5624   11.3314   11.3876 C   0  0  1  0  0  0  0  0  0  0  0  0
   45.2095    9.9604   11.1726 C   0  0  0  0  0  0  0  0  0  0  0  0
   44.0995    9.0222   11.1592 N   0  0  0  0  0  0  0  0  0  0  0  0
   42.8206    9.7160   11.0772 C   0  0  0  0  0  0  0  0  0  0  0  0
   45.4163   12.5077   10.9080 C   0  0  0  0  0  0  0  0  0  0  0  0
   46.7193   12.6386   11.6852 C   0  0  0  0  0  0  0  0  0  0  0  0
   44.3338    7.6728   11.1684 C   0  0  0  0  0  0  0  0  0  0  0  0
   43.2116    6.8906   11.1560 N   0  0  0  0  0  0  0  0  0  0  0  0
   45.4619    7.1906   11.1686 O   0  0  0  0  0  0  0  0  0  0  0  0
   43.3417    5.4403   11.3200 C   0  0  0  0  0  0  0  0  0  0  0  0
   43.5123    4.9723   12.7683 C   0  0  0  0  0  0  0  0  0  0  0  0
   44.6480    5.4118   13.3440 F   0  0  0  0  0  0  0  0  0  0  0  0
   43.5115    3.6200   12.8350 F   0  0  0  0  0  0  0  0  0  0  0  0
   42.4732    5.4095   13.5252 F   0  0  0  0  0  0  0  0  0  0  0  0
   43.6899   11.4757    9.9716 H   0  0  0  0  0  0  0  0  0  0  0  0
   43.8913   10.2696   10.8855 H   0  0  0  0  0  0  0  0  0  0  0  0
   44.1122   13.3619    5.2892 H   0  0  0  0  0  0  0  0  0  0  0  0
   40.9066   13.3631   10.4968 H   0  0  0  0  0  0  0  0  0  0  0  0
   39.5499   15.4448    9.4233 H   0  0  0  0  0  0  0  0  0  0  0  0
   40.5345   15.8969    7.1433 H   0  0  0  0  0  0  0  0  0  0  0  0
   45.1151   10.0102    8.6975 H   0  0  0  0  0  0  0  0  0  0  0  0
   42.1566   11.7129   10.8581 H   0  0  0  0  0  0  0  0  0  0  0  0
   43.5275   11.2695   12.6886 H   0  0  0  0  0  0  0  0  0  0  0  0
   45.6951    9.9109   11.0430 H   0  0  0  0  0  0  0  0  0  0  0  0
   45.1482    9.5817   12.7008 H   0  0  0  0  0  0  0  0  0  0  0  0
   42.2825    9.1899    9.7765 H   0  0  0  0  0  0  0  0  0  0  0  0
   41.8859    9.4781   11.4857 H   0  0  0  0  0  0  0  0  0  0  0  0
   45.6146   12.4682   10.7872 H   0  0  0  0  0  0  0  0  0  0  0  0
   45.7631   12.3219   12.5290 H   0  0  0  0  0  0  0  0  0  0  0  0
   43.7183   13.7592   12.8281 H   0  0  0  0  0  0  0  0  0  0  0  0
   43.6564   13.9904   11.0717 H   0  0  0  0  0  0  0  0  0  0  0  0
   45.0446   14.5776   11.9897 H   0  0  0  0  0  0  0  0  0  0  0  0
   45.9202    7.6568   11.5713 H   0  0  0  0  0  0  0  0  0  0  0  0
   46.3909    5.4551   11.6522 H   0  0  0  0  0  0  0  0  0  0  0  0
   44.9151    5.1844   10.7197 H   0  0  0  0  0  0  0  0  0  0  0  0
   42.5286   13.2814    5.2909 H   0  0  0  0  0  0  0  0  0  0  0  0
   42.1723   13.9815   11.3495 H   0  0  0  0  0  0  0  0  0  0  0  0
   41.2169   16.4613   10.8088 H   0  0  0  0  0  0  0  0  0  0  0  0
   41.1453   16.7130    8.2987 H   0  0  0  0  0  0  0  0  0  0  0  0
   43.9125    9.6133    8.2264 H   0  0  0  0  0  0  0  0  0  0  0  0
   42.4374   11.8199   11.2218 H   0  0  0  0  0  0  0  0  0  0  0  0
   44.3932   11.4496   12.4687 H   0  0  0  0  0  0  0  0  0  0  0  0
   45.7320    9.8873   10.2119 H   0  0  0  0  0  0  0  0  0  0  0  0
   45.9116    9.6981   11.9698 H   0  0  0  0  0  0  0  0  0  0  0  0
   42.1526    9.2321   10.3580 H   0  0  0  0  0  0  0  0  0  0  0  0
   42.3637    9.6563   12.0722 H   0  0  0  0  0  0  0  0  0  0  0  0
   45.6584   12.4067    9.8443 H   0  0  0  0  0  0  0  0  0  0  0  0
   44.8496   13.4375   11.0249 H   0  0  0  0  0  0  0  0  0  0  0  0
   46.5279   12.7417   12.7586 H   0  0  0  0  0  0  0  0  0  0  0  0
   47.3645   11.7684   11.5314 H   0  0  0  0  0  0  0  0  0  0  0  0
   47.2693   13.5249   11.3513 H   0  0  0  0  0  0  0  0  0  0  0  0
   42.3663    7.3101   11.5135 H   0  0  0  0  0  0  0  0  0  0  0  0
   44.1851    5.0848   10.7171 H   0  0  0  0  0  0  0  0  0  0  0  0
   42.4268    5.0023   10.9069 H   0  0  0  0  0  0  0  0  0  0  0  0
  2  3  1  0
  4  5  1  0
  6  7  1  0
  7  2  2  0
  3 10  1  0
  3  4  2  0
  4  8  1  0
  8  9  2  0
  9 10  1  0
  5 13  1  0
  5  6  1  0
  6 11  2  0
 11 12  1  0
 12 13  2  0
 14 13  1  0
 14 15  1  0
 14 18  1  0
 15 16  1  0
 16 17  1  0
 17 18  1  0
 15 19  1  0
 19 20  1  0
 17 21  1  0
 21 22  1  0
 21 23  2  0
 22 24  1  0
 24 25  1  0
 25 26  1  0
 25 27  1  0
 25 28  1  0
 29 30  1  0
 31 32  1  0
 33 34  1  0
 34 29  2  0
 30 37  1  0
 30 31  2  0
 31 35  1  0
 35 36  2  0
 36 37  1  0
 32 40  1  0
 32 33  1  0
 33 38  2  0
 38 39  1  0
 39 40  2  0
 41 40  1  0
 41 42  1  0
 41 45  1  0
 42 43  1  0
 43 44  1  0
 44 45  1  0
 42 46  1  0
 46 47  1  0
 44 48  1  0
 48 49  1  0
 48 50  2  0
 49 51  1  0
 51 52  1  0
 52 53  1  0
 52 54  1  0
 52 55  1  0
  1 56  1  0
  1 57  1  0
  7 58  1  0
  8 59  1  0
  9 60  1  0
 10 61  1  0
 12 62  1  0
 14 63  1  6
 15 64  1  6
 16 65  1  0
 16 66  1  0
 18 67  1  0
 18 68  1  0
 19 69  1  0
 19 70  1  0
 20 71  1  0
 20 72  1  0
 20 73  1  0
 22 74  1  0
 24 75  1  0
 24 76  1  0
 34 77  1  0
 35 78  1  0
 36 79  1  0
 37 80  1  0
 39 81  1  0
 41 82  1  6
 42 83  1  6
 43 84  1  0
 43 85  1  0
 45 86  1  0
 45 87  1  0
 46 88  1  0
 46 89  1  0
 47 90  1  0
 47 91  1  0
 47 92  1  0
 49 93  1  0
 51 94  1  0
 51 95  1  0
M  END
> <Uni-Dock RESULT> 
ENERGY=   -6.117  LOWER_BOUND=    5.836  UPPER_BOUND=    9.213
INTER + INTRA:          -6.117
INTER:                  -6.117
INTRA:                   0.000
UNBOUND:                 0.000

$$$$

     RDKit          3D

 95100  0  0  0  0  0  0  0  0999 V2000
   48.9597    8.4659   16.1582 O   0  0  0  0  0  0  0  0  0  0  0  0
   51.4074    3.9131   17.9194 N   0  0  0  0  0  0  0  0  0  0  0  0
   50.0654    4.1429   17.9235 C   0  0  0  0  0  0  0  0  0  0  0  0
   49.3589    5.2306   17.4436 C   0  0  0  0  0  0  0  0  0  0  0  0
   50.1278    6.2593   16.8619 N   0  0  0  0  0  0  0  0  0  0  0  0
   51.4985    6.0866   16.8392 C   0  0  0  0  0  0  0  0  0  0  0  0
   52.1037    4.8859   17.3822 C   0  0  0  0  0  0  0  0  0  0  0  0
   47.9898    5.0195   17.6732 C   0  0  0  0  0  0  0  0  0  0  0  0
   47.8907    3.7888   18.2984 C   0  0  0  0  0  0  0  0  0  0  0  0
   49.1555    3.2665   18.4436 N   0  0  0  0  0  0  0  0  0  0  0  0
   52.1245    7.1078   16.3004 N   0  0  0  0  0  0  0  0  0  0  0  0
   51.1210    7.9807   15.9692 C   0  0  0  0  0  0  0  0  0  0  0  0
   49.8605    7.4800   16.2739 C   0  0  0  0  0  0  0  0  0  0  0  0
   48.4979    8.0850   16.0784 C   0  0  2  0  0  0  0  0  0  0  0  0
   48.0967    8.3449   14.6064 C   0  0  1  0  0  0  0  0  0  0  0  0
   48.7060    9.7163   14.2940 C   0  0  0  0  0  0  0  0  0  0  0  0
   48.7754   10.3957   15.5791 N   0  0  0  0  0  0  0  0  0  0  0  0
   48.4167    9.5026   16.6720 C   0  0  0  0  0  0  0  0  0  0  0  0
   48.4527    7.2870   13.5588 C   0  0  0  0  0  0  0  0  0  0  0  0
   47.7226    5.9712   13.7778 C   0  0  0  0  0  0  0  0  0  0  0  0
   49.0005   11.7254   15.8179 C   0  0  0  0  0  0  0  0  0  0  0  0
   49.3311   12.4631   14.7158 N   0  0  0  0  0  0  0  0  0  0  0  0
   48.9120   12.2275   16.9329 O   0  0  0  0  0  0  0  0  0  0  0  0
   49.6110   13.8919   14.8432 C   0  0  0  0  0  0  0  0  0  0  0  0
   48.3820   14.8042   14.9141 C   0  0  0  0  0  0  0  0  0  0  0  0
   47.5779   14.5490   15.9635 F   0  0  0  0  0  0  0  0  0  0  0  0
   47.6409   14.6985   13.7854 F   0  0  0  0  0  0  0  0  0  0  0  0
   48.7731   16.0980   15.0072 F   0  0  0  0  0  0  0  0  0  0  0  0
   50.6420    3.6773   18.1210 N   0  0  0  0  0  0  0  0  0  0  0  0
   49.4568    3.8703   17.4785 C   0  0  0  0  0  0  0  0  0  0  0  0
   48.9480    5.0209   16.9072 C   0  0  0  0  0  0  0  0  0  0  0  0
   49.7612    6.1659   16.9967 N   0  0  0  0  0  0  0  0  0  0  0  0
   50.9811    6.0318   17.6271 C   0  0  0  0  0  0  0  0  0  0  0  0
   51.3871    4.7556   18.1838 C   0  0  0  0  0  0  0  0  0  0  0  0
   47.6937    4.7383   16.3457 C   0  0  0  0  0  0  0  0  0  0  0  0
   47.4563    3.3990   16.5974 C   0  0  0  0  0  0  0  0  0  0  0  0
   48.5320    2.8827   17.2859 N   0  0  0  0  0  0  0  0  0  0  0  0
   51.6627    7.1546   17.6395 N   0  0  0  0  0  0  0  0  0  0  0  0
   50.8499    8.0511   16.9921 C   0  0  0  0  0  0  0  0  0  0  0  0
   49.6498    7.4779   16.5896 C   0  0  0  0  0  0  0  0  0  0  0  0
   48.4613    8.0698   15.8877 C   0  0  2  0  0  0  0  0  0  0  0  0
   48.6311    8.2271   14.3591 C   0  0  1  0  0  0  0  0  0  0  0  0
   49.3468    9.5737   14.2202 C   0  0  0  0  0  0  0  0  0  0  0  0
   48.8991   10.3534   15.3621 N   0  0  0  0  0  0  0  0  0  0  0  0
   48.1904    9.5217   16.3263 C   0  0  0  0  0  0  0  0  0  0  0  0
   49.3211    7.0740   13.6262 C   0  0  0  0  0  0  0  0  0  0  0  0
   49.3465    7.2735   12.1167 C   0  0  0  0  0  0  0  0  0  0  0  0
   49.2050   11.6853   15.4533 C   0  0  0  0  0  0  0  0  0  0  0  0
   48.7281   12.3132   16.5712 N   0  0  0  0  0  0  0  0  0  0  0  0
   49.8722   12.2767   14.6107 O   0  0  0  0  0  0  0  0  0  0  0  0
   48.8633   13.7670   16.6946 C   0  0  0  0  0  0  0  0  0  0  0  0
   47.8099   14.5754   15.9313 C   0  0  0  0  0  0  0  0  0  0  0  0
   47.8715   14.4112   14.5958 F   0  0  0  0  0  0  0  0  0  0  0  0
   47.9431   15.8974   16.1919 F   0  0  0  0  0  0  0  0  0  0  0  0
   46.5640   14.2136   16.3319 F   0  0  0  0  0  0  0  0  0  0  0  0
   49.3297    7.6610   15.7657 H   0  0  0  0  0  0  0  0  0  0  0  0
   48.8423    9.0613   15.4029 H   0  0  0  0  0  0  0  0  0  0  0  0
   53.2010    4.7954   17.3351 H   0  0  0  0  0  0  0  0  0  0  0  0
   47.1466    5.6499   17.4317 H   0  0  0  0  0  0  0  0  0  0  0  0
   47.0303    3.2378   18.6543 H   0  0  0  0  0  0  0  0  0  0  0  0
   49.3950    2.3798   18.8655 H   0  0  0  0  0  0  0  0  0  0  0  0
   51.3570    8.9387   15.5217 H   0  0  0  0  0  0  0  0  0  0  0  0
   47.7407    7.4675   16.5599 H   0  0  0  0  0  0  0  0  0  0  0  0
   47.0029    8.4746   14.5932 H   0  0  0  0  0  0  0  0  0  0  0  0
   49.7202    9.6453   13.8878 H   0  0  0  0  0  0  0  0  0  0  0  0
   48.0909   10.2885   13.5924 H   0  0  0  0  0  0  0  0  0  0  0  0
   49.0642    9.6672   17.5400 H   0  0  0  0  0  0  0  0  0  0  0  0
   47.3855    9.7426   16.9590 H   0  0  0  0  0  0  0  0  0  0  0  0
   49.5330    7.1061   13.5285 H   0  0  0  0  0  0  0  0  0  0  0  0
   48.1776    7.6695   12.5677 H   0  0  0  0  0  0  0  0  0  0  0  0
   46.6391    6.1230   13.8239 H   0  0  0  0  0  0  0  0  0  0  0  0
   48.0409    5.4838   14.7008 H   0  0  0  0  0  0  0  0  0  0  0  0
   47.9301    5.2847   12.9507 H   0  0  0  0  0  0  0  0  0  0  0  0
   49.7142   11.9711   13.9242 H   0  0  0  0  0  0  0  0  0  0  0  0
   50.2053   14.1695   13.9660 H   0  0  0  0  0  0  0  0  0  0  0  0
   50.2373   14.0496   15.7282 H   0  0  0  0  0  0  0  0  0  0  0  0
   52.3687    4.6973   18.6811 H   0  0  0  0  0  0  0  0  0  0  0  0
   47.0209    5.3919   15.8103 H   0  0  0  0  0  0  0  0  0  0  0  0
   46.6173    2.7639   16.3442 H   0  0  0  0  0  0  0  0  0  0  0  0
   48.6404    1.9283   17.6003 H   0  0  0  0  0  0  0  0  0  0  0  0
   51.1665    9.0786   16.8520 H   0  0  0  0  0  0  0  0  0  0  0  0
   47.5712    7.4801   16.1198 H   0  0  0  0  0  0  0  0  0  0  0  0
   47.6217    8.3457   13.9370 H   0  0  0  0  0  0  0  0  0  0  0  0
   50.4373    9.4787   14.2759 H   0  0  0  0  0  0  0  0  0  0  0  0
   49.0911   10.0907   13.2904 H   0  0  0  0  0  0  0  0  0  0  0  0
   48.5036    9.7474   17.3502 H   0  0  0  0  0  0  0  0  0  0  0  0
   47.1247    9.7601   16.2270 H   0  0  0  0  0  0  0  0  0  0  0  0
   50.3524    6.9508   13.9748 H   0  0  0  0  0  0  0  0  0  0  0  0
   48.7920    6.1398   13.8422 H   0  0  0  0  0  0  0  0  0  0  0  0
   48.3338    7.4025   11.7203 H   0  0  0  0  0  0  0  0  0  0  0  0
   49.9400    8.1502   11.8403 H   0  0  0  0  0  0  0  0  0  0  0  0
   49.7938    6.4007   11.6292 H   0  0  0  0  0  0  0  0  0  0  0  0
   47.9212   11.8972   17.0118 H   0  0  0  0  0  0  0  0  0  0  0  0
   49.8652   14.0640   16.3639 H   0  0  0  0  0  0  0  0  0  0  0  0
   48.7832   13.9922   17.7634 H   0  0  0  0  0  0  0  0  0  0  0  0
  2  3  1  0
  4  5  1  0
  6  7  1  0
  7  2  2  0
  3 10  1  0
  3  4  2  0
  4  8  1  0
  8  9  2  0
  9 10  1  0
  5 13  1  0
  5  6  1  0
  6 11  2  0
 11 12  1  0
 12 13  2  0
 14 13  1  0
 14 15  1  0
 14 18  1  0
 15 16  1  0
 16 17  1  0
 17 18  1  0
 15 19  1  0
 19 20  1  0
 17 21  1  0
 21 22  1  0
 21 23  2  0
 22 24  1  0
 24 25  1  0
 25 26  1  0
 25 27  1  0
 25 28  1  0
 29 30  1  0
 31 32  1  0
 33 34  1  0
 34 29  2  0
 30 37  1  0
 30 31  2  0
 31 35  1  0
 35 36  2  0
 36 37  1  0
 32 40  1  0
 32 33  1  0
 33 38  2  0
 38 39  1  0
 39 40  2  0
 41 40  1  0
 41 42  1  0
 41 45  1  0
 42 43  1  0
 43 44  1  0
 44 45  1  0
 42 46  1  0
 46 47  1  0
 44 48  1  0
 48 49  1  0
 48 50  2  0
 49 51  1  0
 51 52  1  0
 52 53  1  0
 52 54  1  0
 52 55  1  0
  1 56  1  0
  1 57  1  0
  7 58  1  0
  8 59  1  0
  9 60  1  0
 10 61  1  0
 12 62  1  0
 14 63  1  6
 15 64  1  6
 16 65  1  0
 16 66  1  0
 18 67  1  0
 18 68  1  0
 19 69  1  0
 19 70  1  0
 20 71  1  0
 20 72  1  0
 20 73  1  0
 22 74  1  0
 24 75  1  0
 24 76  1  0
 34 77  1  0
 35 78  1  0
 36 79  1  0
 37 80  1  0
 39 81  1  0
 41 82  1  6
 42 83  1  6
 43 84  1  0
 43 85  1  0
 45 86  1  0
 45 87  1  0
 46 88  1  0
 46 89  1  0
 47 90  1  0
 47 91  1  0
 47 92  1  0
 49 93  1  0
 51 94  1  0
 51 95  1  0
M  END
> <Uni-Dock RESULT> 
ENERGY=   -6.040  LOWER_BOUND=    5.022  UPPER_BOUND=    7.047
INTER + INTRA:          -6.040
INTER:                  -6.040
INTRA:                   0.000
UNBOUND:                 0.000

$$$$

     RDKit          3D

 95100  0  0  0  0  0  0  0  0999 V2000
   50.5499    5.0051   18.7329 O   0  0  0  0  0  0  0  0  0  0  0  0
   47.2457    7.8125   22.0528 N   0  0  0  0  0  0  0  0  0  0  0  0
   47.9520    8.3343   21.0123 C   0  0  0  0  0  0  0  0  0  0  0  0
   48.7572    7.6937   20.0881 C   0  0  0  0  0  0  0  0  0  0  0  0
   48.8721    6.2959   20.2321 N   0  0  0  0  0  0  0  0  0  0  0  0
   48.1853    5.7109   21.2787 C   0  0  0  0  0  0  0  0  0  0  0  0
   47.3738    6.5130   22.1736 C   0  0  0  0  0  0  0  0  0  0  0  0
   49.2799    8.6493   19.2021 C   0  0  0  0  0  0  0  0  0  0  0  0
   48.7744    9.8705   19.6127 C   0  0  0  0  0  0  0  0  0  0  0  0
   47.9698    9.6665   20.7102 N   0  0  0  0  0  0  0  0  0  0  0  0
   48.3759    4.4129   21.3413 N   0  0  0  0  0  0  0  0  0  0  0  0
   49.2268    4.1473   20.3001 C   0  0  0  0  0  0  0  0  0  0  0  0
   49.5376    5.2859   19.5656 C   0  0  0  0  0  0  0  0  0  0  0  0
   50.4134    5.4562   18.3552 C   0  0  2  0  0  0  0  0  0  0  0  0
   49.9408    4.7036   17.0880 C   0  0  1  0  0  0  0  0  0  0  0  0
   50.5189    3.2942   17.2582 C   0  0  0  0  0  0  0  0  0  0  0  0
   51.7025    3.4733   18.0857 N   0  0  0  0  0  0  0  0  0  0  0  0
   51.8075    4.8416   18.5733 C   0  0  0  0  0  0  0  0  0  0  0  0
   48.4446    4.6941   16.7645 C   0  0  0  0  0  0  0  0  0  0  0  0
   47.9030    6.0770   16.4383 C   0  0  0  0  0  0  0  0  0  0  0  0
   52.7120    2.5771   18.3175 C   0  0  0  0  0  0  0  0  0  0  0  0
   52.5002    1.3245   17.8134 N   0  0  0  0  0  0  0  0  0  0  0  0
   53.7349    2.8673   18.9279 O   0  0  0  0  0  0  0  0  0  0  0  0
   53.4975    0.2741   18.0088 C   0  0  0  0  0  0  0  0  0  0  0  0
   54.6919    0.3076   17.0496 C   0  0  0  0  0  0  0  0  0  0  0  0
   55.4143    1.4415   17.1236 F   0  0  0  0  0  0  0  0  0  0  0  0
   54.2814    0.1576   15.7677 F   0  0  0  0  0  0  0  0  0  0  0  0
   55.5274   -0.7246   17.3176 F   0  0  0  0  0  0  0  0  0  0  0  0
   47.4932    8.4660   21.6126 N   0  0  0  0  0  0  0  0  0  0  0  0
   47.7490    8.5924   20.2809 C   0  0  0  0  0  0  0  0  0  0  0  0
   48.4697    7.7609   19.4452 C   0  0  0  0  0  0  0  0  0  0  0  0
   49.0262    6.6157   20.0444 N   0  0  0  0  0  0  0  0  0  0  0  0
   48.7925    6.4251   21.3907 C   0  0  0  0  0  0  0  0  0  0  0  0
   48.0136    7.3865   22.1473 C   0  0  0  0  0  0  0  0  0  0  0  0
   48.4528    8.2900   18.1458 C   0  0  0  0  0  0  0  0  0  0  0  0
   47.7151    9.4579   18.2193 C   0  0  0  0  0  0  0  0  0  0  0  0
   47.2940    9.6319   19.5193 N   0  0  0  0  0  0  0  0  0  0  0  0
   49.3425    5.3207   21.8414 N   0  0  0  0  0  0  0  0  0  0  0  0
   49.9577    4.7760   20.7422 C   0  0  0  0  0  0  0  0  0  0  0  0
   49.7967    5.5602   19.6065 C   0  0  0  0  0  0  0  0  0  0  0  0
   50.3105    5.3842   18.2062 C   0  0  2  0  0  0  0  0  0  0  0  0
   49.5032    4.3841   17.3471 C   0  0  1  0  0  0  0  0  0  0  0  0
   50.1176    3.0297   17.7114 C   0  0  0  0  0  0  0  0  0  0  0  0
   51.5011    3.3254   18.0445 N   0  0  0  0  0  0  0  0  0  0  0  0
   51.7188    4.7602   18.1775 C   0  0  0  0  0  0  0  0  0  0  0  0
   47.9799    4.4374   17.4872 C   0  0  0  0  0  0  0  0  0  0  0  0
   47.2718    3.4913   16.5267 C   0  0  0  0  0  0  0  0  0  0  0  0
   52.3974    2.3090   18.2435 C   0  0  0  0  0  0  0  0  0  0  0  0
   53.6688    2.7105   18.5497 N   0  0  0  0  0  0  0  0  0  0  0  0
   52.0895    1.1235   18.1734 O   0  0  0  0  0  0  0  0  0  0  0  0
   54.7399    1.7138   18.6300 C   0  0  0  0  0  0  0  0  0  0  0  0
   55.3226    1.2895   17.2788 C   0  0  0  0  0  0  0  0  0  0  0  0
   54.4329    0.6656   16.4828 F   0  0  0  0  0  0  0  0  0  0  0  0
   56.3754    0.4564   17.4546 F   0  0  0  0  0  0  0  0  0  0  0  0
   55.7821    2.3764   16.6069 F   0  0  0  0  0  0  0  0  0  0  0  0
   49.5978    5.1615   18.8215 H   0  0  0  0  0  0  0  0  0  0  0  0
   50.6077    4.2586   18.1180 H   0  0  0  0  0  0  0  0  0  0  0  0
   46.8427    5.9968   22.9895 H   0  0  0  0  0  0  0  0  0  0  0  0
   49.9406    8.5161   18.3581 H   0  0  0  0  0  0  0  0  0  0  0  0
   48.9172   10.8688   19.2207 H   0  0  0  0  0  0  0  0  0  0  0  0
   47.4653   10.3745   21.2257 H   0  0  0  0  0  0  0  0  0  0  0  0
   49.5786    3.1373   20.1270 H   0  0  0  0  0  0  0  0  0  0  0  0
   50.5367    6.5142   18.1272 H   0  0  0  0  0  0  0  0  0  0  0  0
   50.4654    5.1595   16.2334 H   0  0  0  0  0  0  0  0  0  0  0  0
   49.8346    2.6169   17.7793 H   0  0  0  0  0  0  0  0  0  0  0  0
   50.7891    2.8428   16.2983 H   0  0  0  0  0  0  0  0  0  0  0  0
   52.1526    4.8609   19.6127 H   0  0  0  0  0  0  0  0  0  0  0  0
   52.5548    5.3490   17.9509 H   0  0  0  0  0  0  0  0  0  0  0  0
   47.8639    4.2571   17.5845 H   0  0  0  0  0  0  0  0  0  0  0  0
   48.2792    4.0481   15.8930 H   0  0  0  0  0  0  0  0  0  0  0  0
   48.4727    6.5439   15.6280 H   0  0  0  0  0  0  0  0  0  0  0  0
   47.9369    6.7370   17.3067 H   0  0  0  0  0  0  0  0  0  0  0  0
   46.8592    6.0050   16.1162 H   0  0  0  0  0  0  0  0  0  0  0  0
   51.5473    1.0497   17.6347 H   0  0  0  0  0  0  0  0  0  0  0  0
   52.9715   -0.6783   17.8829 H   0  0  0  0  0  0  0  0  0  0  0  0
   53.8557    0.3179   19.0433 H   0  0  0  0  0  0  0  0  0  0  0  0
   47.8561    7.1941   23.2208 H   0  0  0  0  0  0  0  0  0  0  0  0
   48.8980    7.8998   17.2425 H   0  0  0  0  0  0  0  0  0  0  0  0
   47.4481   10.1813   17.4598 H   0  0  0  0  0  0  0  0  0  0  0  0
   46.7327   10.3955   19.8705 H   0  0  0  0  0  0  0  0  0  0  0  0
   50.4994    3.8401   20.8226 H   0  0  0  0  0  0  0  0  0  0  0  0
   50.3679    6.3586   17.7150 H   0  0  0  0  0  0  0  0  0  0  0  0
   49.7577    4.5891   16.2962 H   0  0  0  0  0  0  0  0  0  0  0  0
   49.6434    2.5742   18.5882 H   0  0  0  0  0  0  0  0  0  0  0  0
   50.0765    2.3143   16.8844 H   0  0  0  0  0  0  0  0  0  0  0  0
   52.3293    4.9886   19.0566 H   0  0  0  0  0  0  0  0  0  0  0  0
   52.2632    5.0820   17.2818 H   0  0  0  0  0  0  0  0  0  0  0  0
   47.6723    4.1857   18.5081 H   0  0  0  0  0  0  0  0  0  0  0  0
   47.6335    5.4567   17.2860 H   0  0  0  0  0  0  0  0  0  0  0  0
   47.5495    3.7044   15.4890 H   0  0  0  0  0  0  0  0  0  0  0  0
   47.5169    2.4470   16.7425 H   0  0  0  0  0  0  0  0  0  0  0  0
   46.1863    3.6050   16.6184 H   0  0  0  0  0  0  0  0  0  0  0  0
   53.9354    3.6342   18.2434 H   0  0  0  0  0  0  0  0  0  0  0  0
   54.3701    0.8312   19.1643 H   0  0  0  0  0  0  0  0  0  0  0  0
   55.5325    2.1646   19.2368 H   0  0  0  0  0  0  0  0  0  0  0  0
  2  3  1  0
  4  5  1  0
  6  7  1  0
  7  2  2  0
  3 10  1  0
  3  4  2  0
  4  8  1  0
  8  9  2  0
  9 10  1  0
  5 13  1  0
  5  6  1  0
  6 11  2  0
 11 12  1  0
 12 13  2  0
 14 13  1  0
 14 15  1  0
 14 18  1  0
 15 16  1  0
 16 17  1  0
 17 18  1  0
 15 19  1  0
 19 20  1  0
 17 21  1  0
 21 22  1  0
 21 23  2  0
 22 24  1  0
 24 25  1  0
 25 26  1  0
 25 27  1  0
 25 28  1  0
 29 30  1  0
 31 32  1  0
 33 34  1  0
 34 29  2  0
 30 37  1  0
 30 31  2  0
 31 35  1  0
 35 36  2  0
 36 37  1  0
 32 40  1  0
 32 33  1  0
 33 38  2  0
 38 39  1  0
 39 40  2  0
 41 40  1  0
 41 42  1  0
 41 45  1  0
 42 43  1  0
 43 44  1  0
 44 45  1  0
 42 46  1  0
 46 47  1  0
 44 48  1  0
 48 49  1  0
 48 50  2  0
 49 51  1  0
 51 52  1  0
 52 53  1  0
 52 54  1  0
 52 55  1  0
  1 56  1  0
  1 57  1  0
  7 58  1  0
  8 59  1  0
  9 60  1  0
 10 61  1  0
 12 62  1  0
 14 63  1  6
 15 64  1  6
 16 65  1  0
 16 66  1  0
 18 67  1  0
 18 68  1  0
 19 69  1  0
 19 70  1  0
 20 71  1  0
 20 72  1  0
 20 73  1  0
 22 74  1  0
 24 75  1  0
 24 76  1  0
 34 77  1  0
 35 78  1  0
 36 79  1  0
 37 80  1  0
 39 81  1  0
 41 82  1  6
 42 83  1  6
 43 84  1  0
 43 85  1  0
 45 86  1  0
 45 87  1  0
 46 88  1  0
 46 89  1  0
 47 90  1  0
 47 91  1  0
 47 92  1  0
 49 93  1  0
 51 94  1  0
 51 95  1  0
M  END
> <Uni-Dock RESULT> 
ENERGY=   -5.912  LOWER_BOUND=    6.333  UPPER_BOUND=    8.505
INTER + INTRA:          -5.912
INTER:                  -5.912
INTRA:                   0.000
UNBOUND:                 0.000

$$$$

     RDKit          3D

 95100  0  0  0  0  0  0  0  0999 V2000
   48.0120    8.5238   12.6735 O   0  0  0  0  0  0  0  0  0  0  0  0
   52.5809   11.2046   11.3472 N   0  0  0  0  0  0  0  0  0  0  0  0
   51.3996   11.7809   11.7026 C   0  0  0  0  0  0  0  0  0  0  0  0
   50.2199   11.1861   12.1114 C   0  0  0  0  0  0  0  0  0  0  0  0
   50.2273    9.7776   12.1746 N   0  0  0  0  0  0  0  0  0  0  0  0
   51.3968    9.1361   11.8145 C   0  0  0  0  0  0  0  0  0  0  0  0
   52.5628    9.8946   11.4046 C   0  0  0  0  0  0  0  0  0  0  0  0
   49.2715   12.1890   12.3687 C   0  0  0  0  0  0  0  0  0  0  0  0
   49.9039   13.3918   12.1063 C   0  0  0  0  0  0  0  0  0  0  0  0
   51.1940   13.1315   11.7043 N   0  0  0  0  0  0  0  0  0  0  0  0
   51.2942    7.8285   11.8837 N   0  0  0  0  0  0  0  0  0  0  0  0
   50.0049    7.6137   12.2961 C   0  0  0  0  0  0  0  0  0  0  0  0
   49.3145    8.7997   12.5177 C   0  0  0  0  0  0  0  0  0  0  0  0
   47.9020    9.0342   12.9769 C   0  0  2  0  0  0  0  0  0  0  0  0
   47.5765    8.5176   14.3992 C   0  0  1  0  0  0  0  0  0  0  0  0
   47.2189    7.0428   14.1836 C   0  0  0  0  0  0  0  0  0  0  0  0
   46.7177    6.9755   12.8190 N   0  0  0  0  0  0  0  0  0  0  0  0
   46.8910    8.2448   12.1265 C   0  0  0  0  0  0  0  0  0  0  0  0
   48.6198    8.7182   15.5012 C   0  0  0  0  0  0  0  0  0  0  0  0
   48.8587   10.1842   15.8273 C   0  0  0  0  0  0  0  0  0  0  0  0
   46.0341    5.9496   12.2223 C   0  0  0  0  0  0  0  0  0  0  0  0
   45.9374    4.8082   12.9678 N   0  0  0  0  0  0  0  0  0  0  0  0
   45.5392    6.0389   11.1041 O   0  0  0  0  0  0  0  0  0  0  0  0
   45.2451    3.6369   12.4342 C   0  0  0  0  0  0  0  0  0  0  0  0
   43.7166    3.6672   12.5355 C   0  0  0  0  0  0  0  0  0  0  0  0
   43.1501    4.6933   11.8727 F   0  0  0  0  0  0  0  0  0  0  0  0
   43.3233    3.7389   13.8296 F   0  0  0  0  0  0  0  0  0  0  0  0
   43.1982    2.5219   12.0306 F   0  0  0  0  0  0  0  0  0  0  0  0
   52.1172   11.8801   11.4507 N   0  0  0  0  0  0  0  0  0  0  0  0
   51.1449   12.1568   12.3633 C   0  0  0  0  0  0  0  0  0  0  0  0
   50.0877   11.3714   12.7812 C   0  0  0  0  0  0  0  0  0  0  0  0
   49.9891   10.1008   12.1843 N   0  0  0  0  0  0  0  0  0  0  0  0
   50.9526    9.7566   11.2586 C   0  0  0  0  0  0  0  0  0  0  0  0
   52.0106   10.6871   10.9148 C   0  0  0  0  0  0  0  0  0  0  0  0
   49.3520   12.0703   13.7502 C   0  0  0  0  0  0  0  0  0  0  0  0
   49.9831   13.2921   13.9001 C   0  0  0  0  0  0  0  0  0  0  0  0
   51.0689   13.3340   13.0532 N   0  0  0  0  0  0  0  0  0  0  0  0
   50.7740    8.5471   10.7786 N   0  0  0  0  0  0  0  0  0  0  0  0
   49.6488    8.0915   11.4188 C   0  0  0  0  0  0  0  0  0  0  0  0
   49.1214    9.0355   12.2914 C   0  0  0  0  0  0  0  0  0  0  0  0
   47.9023    8.9950   13.1678 C   0  0  2  0  0  0  0  0  0  0  0  0
   48.0881    8.2165   14.4905 C   0  0  1  0  0  0  0  0  0  0  0  0
   47.8108    6.7654   14.0878 C   0  0  0  0  0  0  0  0  0  0  0  0
   46.8615    6.8577   12.9911 N   0  0  0  0  0  0  0  0  0  0  0  0
   46.7388    8.2281   12.5108 C   0  0  0  0  0  0  0  0  0  0  0  0
   49.4176    8.4192   15.2215 C   0  0  0  0  0  0  0  0  0  0  0  0
   49.4633    7.6966   16.5612 C   0  0  0  0  0  0  0  0  0  0  0  0
   46.2537    5.7306   12.5053 C   0  0  0  0  0  0  0  0  0  0  0  0
   45.3796    5.9432   11.4747 N   0  0  0  0  0  0  0  0  0  0  0  0
   46.4828    4.6072   12.9417 O   0  0  0  0  0  0  0  0  0  0  0  0
   44.5602    4.8321   10.9835 C   0  0  0  0  0  0  0  0  0  0  0  0
   43.3161    4.5328   11.8250 C   0  0  0  0  0  0  0  0  0  0  0  0
   43.6004    4.1252   13.0770 F   0  0  0  0  0  0  0  0  0  0  0  0
   42.5641    3.5719   11.2382 F   0  0  0  0  0  0  0  0  0  0  0  0
   42.5402    5.6430   11.9215 F   0  0  0  0  0  0  0  0  0  0  0  0
   48.8418    8.7715   13.1081 H   0  0  0  0  0  0  0  0  0  0  0  0
   47.6237    7.8658   13.2693 H   0  0  0  0  0  0  0  0  0  0  0  0
   53.4720    9.3347   11.1319 H   0  0  0  0  0  0  0  0  0  0  0  0
   48.2491   12.0989   12.7050 H   0  0  0  0  0  0  0  0  0  0  0  0
   49.5490   14.4119   12.1692 H   0  0  0  0  0  0  0  0  0  0  0  0
   51.8926   13.8147   11.4461 H   0  0  0  0  0  0  0  0  0  0  0  0
   49.6314    6.6038   12.4156 H   0  0  0  0  0  0  0  0  0  0  0  0
   47.6559   10.0931   12.9076 H   0  0  0  0  0  0  0  0  0  0  0  0
   46.6515    9.0240   14.7173 H   0  0  0  0  0  0  0  0  0  0  0  0
   48.0876    6.3813   14.2635 H   0  0  0  0  0  0  0  0  0  0  0  0
   46.4552    6.6985   14.8881 H   0  0  0  0  0  0  0  0  0  0  0  0
   47.2011    8.0846   11.0882 H   0  0  0  0  0  0  0  0  0  0  0  0
   45.9151    8.7457   12.1228 H   0  0  0  0  0  0  0  0  0  0  0  0
   49.5709    8.2413   15.2392 H   0  0  0  0  0  0  0  0  0  0  0  0
   48.2668    8.2188   16.4124 H   0  0  0  0  0  0  0  0  0  0  0  0
   47.9219   10.6904   16.0824 H   0  0  0  0  0  0  0  0  0  0  0  0
   49.3178   10.7124   14.9899 H   0  0  0  0  0  0  0  0  0  0  0  0
   49.5324   10.2728   16.6856 H   0  0  0  0  0  0  0  0  0  0  0  0
   46.6212    4.6677   13.6945 H   0  0  0  0  0  0  0  0  0  0  0  0
   45.6182    2.7746   12.9974 H   0  0  0  0  0  0  0  0  0  0  0  0
   45.5414    3.4999   11.3883 H   0  0  0  0  0  0  0  0  0  0  0  0
   52.7557   10.3696   10.1676 H   0  0  0  0  0  0  0  0  0  0  0  0
   48.4761   11.7592   14.3002 H   0  0  0  0  0  0  0  0  0  0  0  0
   49.7584   14.1369   14.5382 H   0  0  0  0  0  0  0  0  0  0  0  0
   51.7195   14.1005   12.9502 H   0  0  0  0  0  0  0  0  0  0  0  0
   49.2632    7.0991   11.2135 H   0  0  0  0  0  0  0  0  0  0  0  0
   47.5611   10.0146   13.3631 H   0  0  0  0  0  0  0  0  0  0  0  0
   47.2761    8.5326   15.1628 H   0  0  0  0  0  0  0  0  0  0  0  0
   48.7072    6.2508   13.7234 H   0  0  0  0  0  0  0  0  0  0  0  0
   47.3821    6.1778   14.9054 H   0  0  0  0  0  0  0  0  0  0  0  0
   46.7367    8.2660   11.4171 H   0  0  0  0  0  0  0  0  0  0  0  0
   45.7759    8.6060   12.8746 H   0  0  0  0  0  0  0  0  0  0  0  0
   50.2566    8.0671   14.6113 H   0  0  0  0  0  0  0  0  0  0  0  0
   49.5728    9.4884   15.4004 H   0  0  0  0  0  0  0  0  0  0  0  0
   48.6397    8.0162   17.2084 H   0  0  0  0  0  0  0  0  0  0  0  0
   49.3999    6.6119   16.4316 H   0  0  0  0  0  0  0  0  0  0  0  0
   50.4050    7.9166   17.0754 H   0  0  0  0  0  0  0  0  0  0  0  0
   44.9729    6.8645   11.4119 H   0  0  0  0  0  0  0  0  0  0  0  0
   45.1812    3.9318   10.9124 H   0  0  0  0  0  0  0  0  0  0  0  0
   44.2501    5.1056    9.9693 H   0  0  0  0  0  0  0  0  0  0  0  0
  2  3  1  0
  4  5  1  0
  6  7  1  0
  7  2  2  0
  3 10  1  0
  3  4  2  0
  4  8  1  0
  8  9  2  0
  9 10  1  0
  5 13  1  0
  5  6  1  0
  6 11  2  0
 11 12  1  0
 12 13  2  0
 14 13  1  0
 14 15  1  0
 14 18  1  0
 15 16  1  0
 16 17  1  0
 17 18  1  0
 15 19  1  0
 19 20  1  0
 17 21  1  0
 21 22  1  0
 21 23  2  0
 22 24  1  0
 24 25  1  0
 25 26  1  0
 25 27  1  0
 25 28  1  0
 29 30  1  0
 31 32  1  0
 33 34  1  0
 34 29  2  0
 30 37  1  0
 30 31  2  0
 31 35  1  0
 35 36  2  0
 36 37  1  0
 32 40  1  0
 32 33  1  0
 33 38  2  0
 38 39  1  0
 39 40  2  0
 41 40  1  0
 41 42  1  0
 41 45  1  0
 42 43  1  0
 43 44  1  0
 44 45  1  0
 42 46  1  0
 46 47  1  0
 44 48  1  0
 48 49  1  0
 48 50  2  0
 49 51  1  0
 51 52  1  0
 52 53  1  0
 52 54  1  0
 52 55  1  0
  1 56  1  0
  1 57  1  0
  7 58  1  0
  8 59  1  0
  9 60  1  0
 10 61  1  0
 12 62  1  0
 14 63  1  6
 15 64  1  6
 16 65  1  0
 16 66  1  0
 18 67  1  0
 18 68  1  0
 19 69  1  0
 19 70  1  0
 20 71  1  0
 20 72  1  0
 20 73  1  0
 22 74  1  0
 24 75  1  0
 24 76  1  0
 34 77  1  0
 35 78  1  0
 36 79  1  0
 37 80  1  0
 39 81  1  0
 41 82  1  6
 42 83  1  6
 43 84  1  0
 43 85  1  0
 45 86  1  0
 45 87  1  0
 46 88  1  0
 46 89  1  0
 47 90  1  0
 47 91  1  0
 47 92  1  0
 49 93  1  0
 51 94  1  0
 51 95  1  0
M  END
> <Uni-Dock RESULT> 
ENERGY=   -5.845  LOWER_BOUND=    2.379  UPPER_BOUND=    4.083
INTER + INTRA:          -5.845
INTER:                  -5.845
INTRA:                   0.000
UNBOUND:                 0.000

$$$$

     RDKit          3D

 95100  0  0  0  0  0  0  0  0999 V2000
   49.1089    8.1567   17.6844 O   0  0  0  0  0  0  0  0  0  0  0  0
   50.8390    2.9776   17.6203 N   0  0  0  0  0  0  0  0  0  0  0  0
   49.5431    3.3808   17.5113 C   0  0  0  0  0  0  0  0  0  0  0  0
   49.0233    4.6612   17.4550 C   0  0  0  0  0  0  0  0  0  0  0  0
   49.9608    5.7122   17.5181 N   0  0  0  0  0  0  0  0  0  0  0  0
   51.2922    5.3636   17.6405 C   0  0  0  0  0  0  0  0  0  0  0  0
   51.6928    3.9707   17.6865 C   0  0  0  0  0  0  0  0  0  0  0  0
   47.6258    4.5791   17.3462 C   0  0  0  0  0  0  0  0  0  0  0  0
   47.3199    3.2293   17.3392 C   0  0  0  0  0  0  0  0  0  0  0  0
   48.4906    2.5129   17.4386 N   0  0  0  0  0  0  0  0  0  0  0  0
   52.0808    6.4112   17.7154 N   0  0  0  0  0  0  0  0  0  0  0  0
   51.2265    7.4808   17.6481 C   0  0  0  0  0  0  0  0  0  0  0  0
   49.9007    7.0918   17.4951 C   0  0  0  0  0  0  0  0  0  0  0  0
   48.6504    7.9179   17.3722 C   0  0  2  0  0  0  0  0  0  0  0  0
   48.5821    8.8293   16.1231 C   0  0  1  0  0  0  0  0  0  0  0  0
   49.3298   10.0975   16.5498 C   0  0  0  0  0  0  0  0  0  0  0  0
   49.1733   10.1549   17.9955 N   0  0  0  0  0  0  0  0  0  0  0  0
   48.5383    8.9491   18.5091 C   0  0  0  0  0  0  0  0  0  0  0  0
   49.0800    8.2701   14.7879 C   0  0  0  0  0  0  0  0  0  0  0  0
   48.2375    7.1089   14.2839 C   0  0  0  0  0  0  0  0  0  0  0  0
   49.4285   11.2111   18.8292 C   0  0  0  0  0  0  0  0  0  0  0  0
   50.0280   12.2857   18.2344 N   0  0  0  0  0  0  0  0  0  0  0  0
   49.1420   11.2047   20.0213 O   0  0  0  0  0  0  0  0  0  0  0  0
   50.3662   13.4693   19.0222 C   0  0  0  0  0  0  0  0  0  0  0  0
   49.2105   14.4386   19.2915 C   0  0  0  0  0  0  0  0  0  0  0  0
   48.1907   13.8883   19.9772 F   0  0  0  0  0  0  0  0  0  0  0  0
   48.7156   14.9288   18.1300 F   0  0  0  0  0  0  0  0  0  0  0  0
   49.6557   15.4993   20.0072 F   0  0  0  0  0  0  0  0  0  0  0  0
   50.0349    2.7955   17.5722 N   0  0  0  0  0  0  0  0  0  0  0  0
   49.0244    3.4144   16.9010 C   0  0  0  0  0  0  0  0  0  0  0  0
   48.7206    4.7601   16.8233 C   0  0  0  0  0  0  0  0  0  0  0  0
   49.5690    5.6265   17.5375 N   0  0  0  0  0  0  0  0  0  0  0  0
   50.6196    5.0600   18.2295 C   0  0  0  0  0  0  0  0  0  0  0  0
   50.8181    3.6234   18.2225 C   0  0  0  0  0  0  0  0  0  0  0  0
   47.5953    4.9297   16.0026 C   0  0  0  0  0  0  0  0  0  0  0  0
   47.2254    3.6604   15.5958 C   0  0  0  0  0  0  0  0  0  0  0  0
   48.0986    2.7489   16.1475 N   0  0  0  0  0  0  0  0  0  0  0  0
   51.3542    5.9585   18.8447 N   0  0  0  0  0  0  0  0  0  0  0  0
   50.7533    7.1539   18.5392 C   0  0  0  0  0  0  0  0  0  0  0  0
   49.6292    6.9884   17.7393 C   0  0  0  0  0  0  0  0  0  0  0  0
   48.6535    7.9900   17.1912 C   0  0  2  0  0  0  0  0  0  0  0  0
   49.1477    8.7485   15.9380 C   0  0  1  0  0  0  0  0  0  0  0  0
   49.9615    9.9057   16.5239 C   0  0  0  0  0  0  0  0  0  0  0  0
   49.3365   10.1899   17.8049 N   0  0  0  0  0  0  0  0  0  0  0  0
   48.3907    9.1452   18.1761 C   0  0  0  0  0  0  0  0  0  0  0  0
   49.8999    7.9221   14.8918 C   0  0  0  0  0  0  0  0  0  0  0  0
   50.2519    8.7317   13.6511 C   0  0  0  0  0  0  0  0  0  0  0  0
   49.7014   11.2982   18.5222 C   0  0  0  0  0  0  0  0  0  0  0  0
   49.0433   11.4608   19.7104 N   0  0  0  0  0  0  0  0  0  0  0  0
   50.5661   12.0827   18.1456 O   0  0  0  0  0  0  0  0  0  0  0  0
   49.2428   12.6900   20.4826 C   0  0  0  0  0  0  0  0  0  0  0  0
   48.4256   13.8910   19.9975 C   0  0  0  0  0  0  0  0  0  0  0  0
   48.7533   14.2966   18.7555 F   0  0  0  0  0  0  0  0  0  0  0  0
   48.5860   14.9448   20.8324 F   0  0  0  0  0  0  0  0  0  0  0  0
   47.1029   13.5838   19.9927 F   0  0  0  0  0  0  0  0  0  0  0  0
   49.5001    7.5464   17.0416 H   0  0  0  0  0  0  0  0  0  0  0  0
   49.1898    9.0247   17.2616 H   0  0  0  0  0  0  0  0  0  0  0  0
   52.7677    3.7465   17.7800 H   0  0  0  0  0  0  0  0  0  0  0  0
   46.8936    5.3701   17.2767 H   0  0  0  0  0  0  0  0  0  0  0  0
   46.3707    2.7143   17.2730 H   0  0  0  0  0  0  0  0  0  0  0  0
   48.5796    1.5063   17.4579 H   0  0  0  0  0  0  0  0  0  0  0  0
   51.6114    8.4915   17.7135 H   0  0  0  0  0  0  0  0  0  0  0  0
   47.7715    7.2752   17.4040 H   0  0  0  0  0  0  0  0  0  0  0  0
   47.5257    9.1134   15.9942 H   0  0  0  0  0  0  0  0  0  0  0  0
   50.3997   10.0542   16.3215 H   0  0  0  0  0  0  0  0  0  0  0  0
   48.9123   10.9961   16.0847 H   0  0  0  0  0  0  0  0  0  0  0  0
   49.0000    8.6352   19.4515 H   0  0  0  0  0  0  0  0  0  0  0  0
   47.4875    9.1964   18.7040 H   0  0  0  0  0  0  0  0  0  0  0  0
   50.1291    7.9605   14.8535 H   0  0  0  0  0  0  0  0  0  0  0  0
   49.0426    9.0702   14.0377 H   0  0  0  0  0  0  0  0  0  0  0  0
   47.1803    7.3862   14.2189 H   0  0  0  0  0  0  0  0  0  0  0  0
   48.3247    6.2371   14.9346 H   0  0  0  0  0  0  0  0  0  0  0  0
   48.5684    6.8114   13.2837 H   0  0  0  0  0  0  0  0  0  0  0  0
   50.5353   12.1213   17.3794 H   0  0  0  0  0  0  0  0  0  0  0  0
   51.1468   13.9984   18.4650 H   0  0  0  0  0  0  0  0  0  0  0  0
   50.8032   13.1452   19.9732 H   0  0  0  0  0  0  0  0  0  0  0  0
   51.6688    3.2162   18.7925 H   0  0  0  0  0  0  0  0  0  0  0  0
   47.0921    5.8398   15.7110 H   0  0  0  0  0  0  0  0  0  0  0  0
   46.4185    3.3231   14.9581 H   0  0  0  0  0  0  0  0  0  0  0  0
   48.0778    1.7464   16.0211 H   0  0  0  0  0  0  0  0  0  0  0  0
   51.1573    8.0855   18.9196 H   0  0  0  0  0  0  0  0  0  0  0  0
   47.6986    7.4968   16.9939 H   0  0  0  0  0  0  0  0  0  0  0  0
   48.2581    9.1821   15.4566 H   0  0  0  0  0  0  0  0  0  0  0  0
   51.0080    9.6353   16.7051 H   0  0  0  0  0  0  0  0  0  0  0  0
   49.9387   10.7975   15.8903 H   0  0  0  0  0  0  0  0  0  0  0  0
   48.4975    8.8701   19.2299 H   0  0  0  0  0  0  0  0  0  0  0  0
   47.3866    9.5587   18.0238 H   0  0  0  0  0  0  0  0  0  0  0  0
   50.8259    7.5121   15.3098 H   0  0  0  0  0  0  0  0  0  0  0  0
   49.2786    7.0738   14.5858 H   0  0  0  0  0  0  0  0  0  0  0  0
   49.3545    9.1644   13.1965 H   0  0  0  0  0  0  0  0  0  0  0  0
   50.9450    9.5445   13.8887 H   0  0  0  0  0  0  0  0  0  0  0  0
   50.7341    8.0891   12.9067 H   0  0  0  0  0  0  0  0  0  0  0  0
   48.1374   11.0230   19.7871 H   0  0  0  0  0  0  0  0  0  0  0  0
   50.3085   12.9460   20.4816 H   0  0  0  0  0  0  0  0  0  0  0  0
   48.9564   12.4539   21.5131 H   0  0  0  0  0  0  0  0  0  0  0  0
  2  3  1  0
  4  5  1  0
  6  7  1  0
  7  2  2  0
  3 10  1  0
  3  4  2  0
  4  8  1  0
  8  9  2  0
  9 10  1  0
  5 13  1  0
  5  6  1  0
  6 11  2  0
 11 12  1  0
 12 13  2  0
 14 13  1  0
 14 15  1  0
 14 18  1  0
 15 16  1  0
 16 17  1  0
 17 18  1  0
 15 19  1  0
 19 20  1  0
 17 21  1  0
 21 22  1  0
 21 23  2  0
 22 24  1  0
 24 25  1  0
 25 26  1  0
 25 27  1  0
 25 28  1  0
 29 30  1  0
 31 32  1  0
 33 34  1  0
 34 29  2  0
 30 37  1  0
 30 31  2  0
 31 35  1  0
 35 36  2  0
 36 37  1  0
 32 40  1  0
 32 33  1  0
 33 38  2  0
 38 39  1  0
 39 40  2  0
 41 40  1  0
 41 42  1  0
 41 45  1  0
 42 43  1  0
 43 44  1  0
 44 45  1  0
 42 46  1  0
 46 47  1  0
 44 48  1  0
 48 49  1  0
 48 50  2  0
 49 51  1  0
 51 52  1  0
 52 53  1  0
 52 54  1  0
 52 55  1  0
  1 56  1  0
  1 57  1  0
  7 58  1  0
  8 59  1  0
  9 60  1  0
 10 61  1  0
 12 62  1  0
 14 63  1  6
 15 64  1  6
 16 65  1  0
 16 66  1  0
 18 67  1  0
 18 68  1  0
 19 69  1  0
 19 70  1  0
 20 71  1  0
 20 72  1  0
 20 73  1  0
 22 74  1  0
 24 75  1  0
 24 76  1  0
 34 77  1  0
 35 78  1  0
 36 79  1  0
 37 80  1  0
 39 81  1  0
 41 82  1  6
 42 83  1  6
 43 84  1  0
 43 85  1  0
 45 86  1  0
 45 87  1  0
 46 88  1  0
 46 89  1  0
 47 90  1  0
 47 91  1  0
 47 92  1  0
 49 93  1  0
 51 94  1  0
 51 95  1  0
M  END
> <Uni-Dock RESULT> 
ENERGY=   -5.461  LOWER_BOUND=    5.756  UPPER_BOUND=    8.142
INTER + INTRA:          -5.461
INTER:                  -5.461
INTRA:                   0.000
UNBOUND:                 0.000

$$$$

     RDKit          3D

 95100  0  0  0  0  0  0  0  0999 V2000
   49.8670    6.9053   19.5134 O   0  0  0  0  0  0  0  0  0  0  0  0
   50.4212    1.9565   17.2720 N   0  0  0  0  0  0  0  0  0  0  0  0
   51.4428    2.7725   17.6521 C   0  0  0  0  0  0  0  0  0  0  0  0
   51.3965    4.0040   18.2796 C   0  0  0  0  0  0  0  0  0  0  0  0
   50.1099    4.4989   18.5756 N   0  0  0  0  0  0  0  0  0  0  0  0
   49.0325    3.7183   18.2029 C   0  0  0  0  0  0  0  0  0  0  0  0
   49.2340    2.4400   17.5486 C   0  0  0  0  0  0  0  0  0  0  0  0
   52.7086    4.4672   18.4673 C   0  0  0  0  0  0  0  0  0  0  0  0
   53.5387    3.4928   17.9411 C   0  0  0  0  0  0  0  0  0  0  0  0
   52.7597    2.4698   17.4509 N   0  0  0  0  0  0  0  0  0  0  0  0
   47.8813    4.2765   18.4999 N   0  0  0  0  0  0  0  0  0  0  0  0
   48.2257    5.4698   19.0795 C   0  0  0  0  0  0  0  0  0  0  0  0
   49.6027    5.6358   19.1736 C   0  0  0  0  0  0  0  0  0  0  0  0
   50.4114    6.7711   19.7376 C   0  0  2  0  0  0  0  0  0  0  0  0
   50.2242    7.0253   21.2528 C   0  0  1  0  0  0  0  0  0  0  0  0
   48.9851    7.9247   21.3261 C   0  0  0  0  0  0  0  0  0  0  0  0
   48.9608    8.6315   20.0543 N   0  0  0  0  0  0  0  0  0  0  0  0
   49.9790    8.1241   19.1452 C   0  0  0  0  0  0  0  0  0  0  0  0
   50.1331    5.8157   22.1865 C   0  0  0  0  0  0  0  0  0  0  0  0
   51.4221    5.0104   22.2358 C   0  0  0  0  0  0  0  0  0  0  0  0
   48.2150    9.7288   19.7144 C   0  0  0  0  0  0  0  0  0  0  0  0
   47.2905   10.1108   20.6459 N   0  0  0  0  0  0  0  0  0  0  0  0
   48.3596   10.3327   18.6573 O   0  0  0  0  0  0  0  0  0  0  0  0
   46.4219   11.2587   20.3931 C   0  0  0  0  0  0  0  0  0  0  0  0
   47.0474   12.6331   20.6528 C   0  0  0  0  0  0  0  0  0  0  0  0
   48.1298   12.8877   19.8935 F   0  0  0  0  0  0  0  0  0  0  0  0
   47.4108   12.7565   21.9517 F   0  0  0  0  0  0  0  0  0  0  0  0
   46.1391   13.6072   20.4051 F   0  0  0  0  0  0  0  0  0  0  0  0
   51.2299    2.1194   17.3110 N   0  0  0  0  0  0  0  0  0  0  0  0
   51.9600    2.7616   18.2645 C   0  0  0  0  0  0  0  0  0  0  0  0
   51.6930    3.9486   18.9195 C   0  0  0  0  0  0  0  0  0  0  0  0
   50.4986    4.5984   18.5570 N   0  0  0  0  0  0  0  0  0  0  0  0
   49.7085    3.9909   17.6029 C   0  0  0  0  0  0  0  0  0  0  0  0
   50.1166    2.7383   16.9962 C   0  0  0  0  0  0  0  0  0  0  0  0
   52.7258    4.2111   19.8323 C   0  0  0  0  0  0  0  0  0  0  0  0
   53.6206    3.1637   19.7072 C   0  0  0  0  0  0  0  0  0  0  0  0
   53.1464    2.2908   18.7527 N   0  0  0  0  0  0  0  0  0  0  0  0
   48.6140    4.6728   17.3533 N   0  0  0  0  0  0  0  0  0  0  0  0
   48.7006    5.7659   18.1786 C   0  0  0  0  0  0  0  0  0  0  0  0
   49.8671    5.7641   18.9335 C   0  0  0  0  0  0  0  0  0  0  0  0
   50.3970    6.7538   19.9311 C   0  0  2  0  0  0  0  0  0  0  0  0
   49.7624    6.6507   21.3371 C   0  0  1  0  0  0  0  0  0  0  0  0
   48.4931    7.4983   21.2144 C   0  0  0  0  0  0  0  0  0  0  0  0
   48.8172    8.5143   20.2270 N   0  0  0  0  0  0  0  0  0  0  0  0
   50.0657    8.2070   19.5410 C   0  0  0  0  0  0  0  0  0  0  0  0
   49.5213    5.2384   21.8758 C   0  0  0  0  0  0  0  0  0  0  0  0
   48.9936    5.2405   23.3042 C   0  0  0  0  0  0  0  0  0  0  0  0
   47.9621    9.5609   20.0046 C   0  0  0  0  0  0  0  0  0  0  0  0
   48.3752   10.4534   19.0538 N   0  0  0  0  0  0  0  0  0  0  0  0
   46.8941    9.6879   20.5947 O   0  0  0  0  0  0  0  0  0  0  0  0
   47.6153   11.6890   18.8463 C   0  0  0  0  0  0  0  0  0  0  0  0
   47.9137   12.8016   19.8556 C   0  0  0  0  0  0  0  0  0  0  0  0
   47.5732   12.4848   21.1197 F   0  0  0  0  0  0  0  0  0  0  0  0
   47.2547   13.9364   19.5221 F   0  0  0  0  0  0  0  0  0  0  0  0
   49.2397   13.0939   19.8491 F   0  0  0  0  0  0  0  0  0  0  0  0
   49.8251    5.9832   19.8081 H   0  0  0  0  0  0  0  0  0  0  0  0
   49.4804    7.4034   20.2490 H   0  0  0  0  0  0  0  0  0  0  0  0
   48.3412    1.8542   17.2763 H   0  0  0  0  0  0  0  0  0  0  0  0
   53.0564    5.3829   18.9226 H   0  0  0  0  0  0  0  0  0  0  0  0
   54.6169    3.4372   17.8712 H   0  0  0  0  0  0  0  0  0  0  0  0
   53.0886    1.6228   17.0083 H   0  0  0  0  0  0  0  0  0  0  0  0
   47.4568    6.1601   19.4053 H   0  0  0  0  0  0  0  0  0  0  0  0
   51.4684    6.6232   19.5198 H   0  0  0  0  0  0  0  0  0  0  0  0
   51.0792    7.6377   21.5804 H   0  0  0  0  0  0  0  0  0  0  0  0
   48.0548    7.3554   21.4207 H   0  0  0  0  0  0  0  0  0  0  0  0
   49.0425    8.6354   22.1567 H   0  0  0  0  0  0  0  0  0  0  0  0
   49.5954    8.0673   18.1207 H   0  0  0  0  0  0  0  0  0  0  0  0
   50.8120    8.8377   19.1637 H   0  0  0  0  0  0  0  0  0  0  0  0
   49.3015    5.1595   21.9062 H   0  0  0  0  0  0  0  0  0  0  0  0
   49.9142    6.1724   23.2009 H   0  0  0  0  0  0  0  0  0  0  0  0
   52.2743    5.6440   22.5028 H   0  0  0  0  0  0  0  0  0  0  0  0
   51.6351    4.5339   21.2774 H   0  0  0  0  0  0  0  0  0  0  0  0
   51.3424    4.2203   22.9893 H   0  0  0  0  0  0  0  0  0  0  0  0
   46.9820    9.4162   21.3075 H   0  0  0  0  0  0  0  0  0  0  0  0
   45.5525   11.1381   21.0484 H   0  0  0  0  0  0  0  0  0  0  0  0
   46.0639   11.2074   19.3589 H   0  0  0  0  0  0  0  0  0  0  0  0
   49.4549    2.2923   16.2362 H   0  0  0  0  0  0  0  0  0  0  0  0
   52.8390    5.0379   20.5180 H   0  0  0  0  0  0  0  0  0  0  0  0
   54.5535    2.9585   20.2161 H   0  0  0  0  0  0  0  0  0  0  0  0
   53.5877    1.4322   18.4535 H   0  0  0  0  0  0  0  0  0  0  0  0
   47.9156    6.5138   18.1846 H   0  0  0  0  0  0  0  0  0  0  0  0
   51.4845    6.6643   19.9895 H   0  0  0  0  0  0  0  0  0  0  0  0
   50.4398    7.1708   22.0313 H   0  0  0  0  0  0  0  0  0  0  0  0
   47.6363    6.9227   20.8460 H   0  0  0  0  0  0  0  0  0  0  0  0
   48.2117    7.9716   22.1600 H   0  0  0  0  0  0  0  0  0  0  0  0
   49.9771    8.3736   18.4631 H   0  0  0  0  0  0  0  0  0  0  0  0
   50.8227    8.8934   19.9389 H   0  0  0  0  0  0  0  0  0  0  0  0
   48.8076    4.6964   21.2457 H   0  0  0  0  0  0  0  0  0  0  0  0
   50.4621    4.6781   21.8561 H   0  0  0  0  0  0  0  0  0  0  0  0
   49.6758    5.7741   23.9745 H   0  0  0  0  0  0  0  0  0  0  0  0
   48.0091    5.7142   23.3649 H   0  0  0  0  0  0  0  0  0  0  0  0
   48.8924    4.2129   23.6696 H   0  0  0  0  0  0  0  0  0  0  0  0
   49.3685   10.5017   18.8826 H   0  0  0  0  0  0  0  0  0  0  0  0
   46.5439   11.4584   18.8595 H   0  0  0  0  0  0  0  0  0  0  0  0
   47.8698   12.0395   17.8403 H   0  0  0  0  0  0  0  0  0  0  0  0
  2  3  1  0
  4  5  1  0
  6  7  1  0
  7  2  2  0
  3 10  1  0
  3  4  2  0
  4  8  1  0
  8  9  2  0
  9 10  1  0
  5 13  1  0
  5  6  1  0
  6 11  2  0
 11 12  1  0
 12 13  2  0
 14 13  1  0
 14 15  1  0
 14 18  1  0
 15 16  1  0
 16 17  1  0
 17 18  1  0
 15 19  1  0
 19 20  1  0
 17 21  1  0
 21 22  1  0
 21 23  2  0
 22 24  1  0
 24 25  1  0
 25 26  1  0
 25 27  1  0
 25 28  1  0
 29 30  1  0
 31 32  1  0
 33 34  1  0
 34 29  2  0
 30 37  1  0
 30 31  2  0
 31 35  1  0
 35 36  2  0
 36 37  1  0
 32 40  1  0
 32 33  1  0
 33 38  2  0
 38 39  1  0
 39 40  2  0
 41 40  1  0
 41 42  1  0
 41 45  1  0
 42 43  1  0
 43 44  1  0
 44 45  1  0
 42 46  1  0
 46 47  1  0
 44 48  1  0
 48 49  1  0
 48 50  2  0
 49 51  1  0
 51 52  1  0
 52 53  1  0
 52 54  1  0
 52 55  1  0
  1 56  1  0
  1 57  1  0
  7 58  1  0
  8 59  1  0
  9 60  1  0
 10 61  1  0
 12 62  1  0
 14 63  1  6
 15 64  1  6
 16 65  1  0
 16 66  1  0
 18 67  1  0
 18 68  1  0
 19 69  1  0
 19 70  1  0
 20 71  1  0
 20 72  1  0
 20 73  1  0
 22 74  1  0
 24 75  1  0
 24 76  1  0
 34 77  1  0
 35 78  1  0
 36 79  1  0
 37 80  1  0
 39 81  1  0
 41 82  1  6
 42 83  1  6
 43 84  1  0
 43 85  1  0
 45 86  1  0
 45 87  1  0
 46 88  1  0
 46 89  1  0
 47 90  1  0
 47 91  1  0
 47 92  1  0
 49 93  1  0
 51 94  1  0
 51 95  1  0
M  END
> <Uni-Dock RESULT> 
ENERGY=   -5.347  LOWER_BOUND=    6.852  UPPER_BOUND=    8.753
INTER + INTRA:          -5.347
INTER:                  -5.347
INTRA:                   0.000
UNBOUND:                 0.000

$$$$

     RDKit          3D

 95100  0  0  0  0  0  0  0  0999 V2000
   48.8248    9.8919   18.5611 O   0  0  0  0  0  0  0  0  0  0  0  0
   52.4217   11.8821   22.1558 N   0  0  0  0  0  0  0  0  0  0  0  0
   51.1229   12.2727   22.0364 C   0  0  0  0  0  0  0  0  0  0  0  0
   50.1316   11.7844   21.2048 C   0  0  0  0  0  0  0  0  0  0  0  0
   50.5065   10.7271   20.3508 N   0  0  0  0  0  0  0  0  0  0  0  0
   51.8170   10.2949   20.4196 C   0  0  0  0  0  0  0  0  0  0  0  0
   52.7511   10.9042   21.3466 C   0  0  0  0  0  0  0  0  0  0  0  0
   48.9492   12.5056   21.4363 C   0  0  0  0  0  0  0  0  0  0  0  0
   49.2510   13.4325   22.4187 C   0  0  0  0  0  0  0  0  0  0  0  0
   50.5713   13.2808   22.7754 N   0  0  0  0  0  0  0  0  0  0  0  0
   52.0716    9.3261   19.5702 N   0  0  0  0  0  0  0  0  0  0  0  0
   50.8820    9.1288   18.9187 C   0  0  0  0  0  0  0  0  0  0  0  0
   49.8732    9.9589   19.3937 C   0  0  0  0  0  0  0  0  0  0  0  0
   48.4319   10.0758   18.9813 C   0  0  2  0  0  0  0  0  0  0  0  0
   47.5735    8.8097   19.2175 C   0  0  1  0  0  0  0  0  0  0  0  0
   47.8203    7.9576   17.9674 C   0  0  0  0  0  0  0  0  0  0  0  0
   48.1515    8.9147   16.9224 N   0  0  0  0  0  0  0  0  0  0  0  0
   48.2909   10.2609   17.4600 C   0  0  0  0  0  0  0  0  0  0  0  0
   47.7768    8.0263   20.5168 C   0  0  0  0  0  0  0  0  0  0  0  0
   47.3795    8.8194   21.7519 C   0  0  0  0  0  0  0  0  0  0  0  0
   48.2079    8.7003   15.5708 C   0  0  0  0  0  0  0  0  0  0  0  0
   48.0658    7.3967   15.1856 N   0  0  0  0  0  0  0  0  0  0  0  0
   48.3706    9.6037   14.7581 O   0  0  0  0  0  0  0  0  0  0  0  0
   48.1238    7.0368   13.7703 C   0  0  0  0  0  0  0  0  0  0  0  0
   46.8350    7.2678   12.9744 C   0  0  0  0  0  0  0  0  0  0  0  0
   46.4344    8.5531   12.9534 F   0  0  0  0  0  0  0  0  0  0  0  0
   45.8214    6.5232   13.4771 F   0  0  0  0  0  0  0  0  0  0  0  0
   47.0102    6.8759   11.6895 F   0  0  0  0  0  0  0  0  0  0  0  0
   51.8024   12.3829   22.3744 N   0  0  0  0  0  0  0  0  0  0  0  0
   50.4652   12.1465   22.4772 C   0  0  0  0  0  0  0  0  0  0  0  0
   49.6219   11.4928   21.5993 C   0  0  0  0  0  0  0  0  0  0  0  0
   50.2179   10.9964   20.4252 N   0  0  0  0  0  0  0  0  0  0  0  0
   51.5742   11.1946   20.2677 C   0  0  0  0  0  0  0  0  0  0  0  0
   52.3380   11.9030   21.2768 C   0  0  0  0  0  0  0  0  0  0  0  0
   48.3245   11.4796   22.1335 C   0  0  0  0  0  0  0  0  0  0  0  0
   48.4039   12.1440   23.3442 C   0  0  0  0  0  0  0  0  0  0  0  0
   49.7069   12.5450   23.5420 N   0  0  0  0  0  0  0  0  0  0  0  0
   52.0274   10.6783   19.1482 N   0  0  0  0  0  0  0  0  0  0  0  0
   50.9190   10.1252   18.5574 C   0  0  0  0  0  0  0  0  0  0  0  0
   49.7693   10.3152   19.3142 C   0  0  0  0  0  0  0  0  0  0  0  0
   48.3435    9.9196   19.0571 C   0  0  2  0  0  0  0  0  0  0  0  0
   48.0224    8.4391   19.3656 C   0  0  1  0  0  0  0  0  0  0  0  0
   48.4247    7.7150   18.0778 C   0  0  0  0  0  0  0  0  0  0  0  0
   48.2105    8.6885   17.0201 N   0  0  0  0  0  0  0  0  0  0  0  0
   47.9723   10.0189   17.5651 C   0  0  0  0  0  0  0  0  0  0  0  0
   48.6491    7.8540   20.6336 C   0  0  0  0  0  0  0  0  0  0  0  0
   48.1908    6.4278   20.9069 C   0  0  0  0  0  0  0  0  0  0  0  0
   48.2986    8.3131   15.7058 C   0  0  0  0  0  0  0  0  0  0  0  0
   48.0757    9.3153   14.8018 N   0  0  0  0  0  0  0  0  0  0  0  0
   48.5748    7.1707   15.3545 O   0  0  0  0  0  0  0  0  0  0  0  0
   47.9923    8.9934   13.3747 C   0  0  0  0  0  0  0  0  0  0  0  0
   46.6384    8.4395   12.9211 C   0  0  0  0  0  0  0  0  0  0  0  0
   46.3275    7.2555   13.4831 F   0  0  0  0  0  0  0  0  0  0  0  0
   46.6162    8.2776   11.5770 F   0  0  0  0  0  0  0  0  0  0  0  0
   45.6481    9.3144   13.2337 F   0  0  0  0  0  0  0  0  0  0  0  0
   49.1927    9.6285   19.4179 H   0  0  0  0  0  0  0  0  0  0  0  0
   48.3889    9.0894   18.2374 H   0  0  0  0  0  0  0  0  0  0  0  0
   53.7835   10.5193   21.3652 H   0  0  0  0  0  0  0  0  0  0  0  0
   47.9780   12.4006   20.9753 H   0  0  0  0  0  0  0  0  0  0  0  0
   48.6418   14.1887   22.8959 H   0  0  0  0  0  0  0  0  0  0  0  0
   51.0723   13.8189   23.4689 H   0  0  0  0  0  0  0  0  0  0  0  0
   50.8079    8.3896   18.1301 H   0  0  0  0  0  0  0  0  0  0  0  0
   47.9683   10.9288   19.4752 H   0  0  0  0  0  0  0  0  0  0  0  0
   46.5198    9.1285   19.1799 H   0  0  0  0  0  0  0  0  0  0  0  0
   48.6646    7.2706   18.0843 H   0  0  0  0  0  0  0  0  0  0  0  0
   46.9366    7.3760   17.6863 H   0  0  0  0  0  0  0  0  0  0  0  0
   49.1291   10.7854   16.9886 H   0  0  0  0  0  0  0  0  0  0  0  0
   47.3663   10.8007   17.2207 H   0  0  0  0  0  0  0  0  0  0  0  0
   48.8137    7.6864   20.6175 H   0  0  0  0  0  0  0  0  0  0  0  0
   47.1590    7.1201   20.4794 H   0  0  0  0  0  0  0  0  0  0  0  0
   46.3494    9.1825   21.6743 H   0  0  0  0  0  0  0  0  0  0  0  0
   48.0356    9.6776   21.9066 H   0  0  0  0  0  0  0  0  0  0  0  0
   47.4457    8.1858   22.6422 H   0  0  0  0  0  0  0  0  0  0  0  0
   48.2745    6.6845   15.8674 H   0  0  0  0  0  0  0  0  0  0  0  0
   48.3746    5.9712   13.7326 H   0  0  0  0  0  0  0  0  0  0  0  0
   48.9483    7.5856   13.3018 H   0  0  0  0  0  0  0  0  0  0  0  0
   53.4179   12.0402   21.1061 H   0  0  0  0  0  0  0  0  0  0  0  0
   47.4222   11.0458   21.7283 H   0  0  0  0  0  0  0  0  0  0  0  0
   47.6483   12.3650   24.0869 H   0  0  0  0  0  0  0  0  0  0  0  0
   50.0644   13.0478   24.3426 H   0  0  0  0  0  0  0  0  0  0  0  0
   51.0002    9.6185   17.6022 H   0  0  0  0  0  0  0  0  0  0  0  0
   47.6763   10.5842   19.6113 H   0  0  0  0  0  0  0  0  0  0  0  0
   46.9283    8.3630   19.4580 H   0  0  0  0  0  0  0  0  0  0  0  0
   49.4820    7.4265   18.0695 H   0  0  0  0  0  0  0  0  0  0  0  0
   47.8204    6.8218   17.8924 H   0  0  0  0  0  0  0  0  0  0  0  0
   48.5323   10.7796   17.0126 H   0  0  0  0  0  0  0  0  0  0  0  0
   46.9009   10.2215   17.4487 H   0  0  0  0  0  0  0  0  0  0  0  0
   49.7426    7.8576   20.5664 H   0  0  0  0  0  0  0  0  0  0  0  0
   48.3748    8.4754   21.4926 H   0  0  0  0  0  0  0  0  0  0  0  0
   47.0995    6.3732   20.9818 H   0  0  0  0  0  0  0  0  0  0  0  0
   48.5173    5.7456   20.1162 H   0  0  0  0  0  0  0  0  0  0  0  0
   48.6147    6.0707   21.8516 H   0  0  0  0  0  0  0  0  0  0  0  0
   47.5191   10.0941   15.1209 H   0  0  0  0  0  0  0  0  0  0  0  0
   48.7850    8.2807   13.1202 H   0  0  0  0  0  0  0  0  0  0  0  0
   48.1961    9.9263   12.8382 H   0  0  0  0  0  0  0  0  0  0  0  0
  2  3  1  0
  4  5  1  0
  6  7  1  0
  7  2  2  0
  3 10  1  0
  3  4  2  0
  4  8  1  0
  8  9  2  0
  9 10  1  0
  5 13  1  0
  5  6  1  0
  6 11  2  0
 11 12  1  0
 12 13  2  0
 14 13  1  0
 14 15  1  0
 14 18  1  0
 15 16  1  0
 16 17  1  0
 17 18  1  0
 15 19  1  0
 19 20  1  0
 17 21  1  0
 21 22  1  0
 21 23  2  0
 22 24  1  0
 24 25  1  0
 25 26  1  0
 25 27  1  0
 25 28  1  0
 29 30  1  0
 31 32  1  0
 33 34  1  0
 34 29  2  0
 30 37  1  0
 30 31  2  0
 31 35  1  0
 35 36  2  0
 36 37  1  0
 32 40  1  0
 32 33  1  0
 33 38  2  0
 38 39  1  0
 39 40  2  0
 41 40  1  0
 41 42  1  0
 41 45  1  0
 42 43  1  0
 43 44  1  0
 44 45  1  0
 42 46  1  0
 46 47  1  0
 44 48  1  0
 48 49  1  0
 48 50  2  0
 49 51  1  0
 51 52  1  0
 52 53  1  0
 52 54  1  0
 52 55  1  0
  1 56  1  0
  1 57  1  0
  7 58  1  0
  8 59  1  0
  9 60  1  0
 10 61  1  0
 12 62  1  0
 14 63  1  6
 15 64  1  6
 16 65  1  0
 16 66  1  0
 18 67  1  0
 18 68  1  0
 19 69  1  0
 19 70  1  0
 20 71  1  0
 20 72  1  0
 20 73  1  0
 22 74  1  0
 24 75  1  0
 24 76  1  0
 34 77  1  0
 35 78  1  0
 36 79  1  0
 37 80  1  0
 39 81  1  0
 41 82  1  6
 42 83  1  6
 43 84  1  0
 43 85  1  0
 45 86  1  0
 45 87  1  0
 46 88  1  0
 46 89  1  0
 47 90  1  0
 47 91  1  0
 47 92  1  0
 49 93  1  0
 51 94  1  0
 51 95  1  0
M  END
> <Uni-Dock RESULT> 
ENERGY=   -5.159  LOWER_BOUND=    3.779  UPPER_BOUND=    6.438
INTER + INTRA:          -5.159
INTER:                  -5.159
INTRA:                   0.000
UNBOUND:                 0.000

$$$$
