
     RDKit          3D

 45 48  0  0  0  0  0  0  0  0999 V2000
   31.6315   12.5731   20.8661 C   0  0  0  0  0  0  0  0  0  0  0  0
   31.9437   13.7560   21.5432 C   0  0  0  0  0  0  0  0  0  0  0  0
   31.1363   14.1727   22.6269 C   0  0  0  0  0  0  0  0  0  0  0  0
   29.9908   13.4216   23.0010 C   0  0  0  0  0  0  0  0  0  0  0  0
   30.4743   11.8548   21.1729 C   0  0  0  0  0  0  0  0  0  0  0  0
   29.6141   12.2980   22.2101 C   0  0  0  0  0  0  0  0  0  0  0  0
   28.3976   11.6078   22.4049 C   0  0  0  0  0  0  0  0  0  0  0  0
   28.0849   10.4759   21.6493 C   0  0  0  0  0  0  0  0  0  0  0  0
   28.9649   10.0203   20.6709 C   0  0  0  0  0  0  0  0  0  0  0  0
   30.1502   10.7107   20.4244 C   0  0  0  0  0  0  0  0  0  0  0  0
   29.1952   13.8472   24.2389 C   0  0  0  0  0  0  0  0  0  0  0  0
   29.0283   12.7415   25.2861 C   0  0  0  0  0  0  0  0  0  0  0  0
   28.6280   10.5696   27.0445 C   0  0  0  0  0  0  0  0  0  0  0  0
   27.5258   11.3106   26.6072 C   0  0  0  0  0  0  0  0  0  0  0  0
   27.7205   12.3859   25.7095 C   0  0  0  0  0  0  0  0  0  0  0  0
   29.9273   10.9419   26.6946 C   0  0  0  0  0  0  0  0  0  0  0  0
   30.1454   12.0622   25.8523 C   0  0  0  0  0  0  0  0  0  0  0  0
   31.4773   12.4714   25.6225 C   0  0  0  0  0  0  0  0  0  0  0  0
   32.5513   11.7494   26.1470 C   0  0  0  0  0  0  0  0  0  0  0  0
   32.3225   10.6192   26.9277 C   0  0  0  0  0  0  0  0  0  0  0  0
   31.0173   10.2209   27.2107 C   0  0  0  0  0  0  0  0  0  0  0  0
   31.4735   15.3070   23.3744 O   0  0  0  0  0  0  0  0  0  0  0  0
   33.1010   14.5469   21.0710 C   0  0  0  0  0  0  0  0  0  0  0  0
   33.0282   15.9355   21.0050 O   0  0  0  0  0  0  0  0  0  0  0  0
   34.1432   13.9618   20.6699 O   0  0  0  0  0  0  0  0  0  0  0  0
   26.6281   13.0908   25.1912 O   0  0  0  0  0  0  0  0  0  0  0  0
   26.1904   10.9535   27.1335 C   0  0  0  0  0  0  0  0  0  0  0  0
   25.2850   11.9467   27.4964 O   0  0  0  0  0  0  0  0  0  0  0  0
   25.8854    9.7430   27.3108 O   0  0  0  0  0  0  0  0  0  0  0  0
   32.2635   12.2425   20.0486 H   0  0  0  0  0  0  0  0  0  0  0  0
   27.6599   11.9488   23.1088 H   0  0  0  0  0  0  0  0  0  0  0  0
   27.1502    9.9562   21.8170 H   0  0  0  0  0  0  0  0  0  0  0  0
   28.7177    9.1431   20.0870 H   0  0  0  0  0  0  0  0  0  0  0  0
   30.8079   10.3583   19.6383 H   0  0  0  0  0  0  0  0  0  0  0  0
   28.2213   14.2315   23.8742 H   0  0  0  0  0  0  0  0  0  0  0  0
   29.6567   14.7106   24.7593 H   0  0  0  0  0  0  0  0  0  0  0  0
   28.4759    9.7313   27.7164 H   0  0  0  0  0  0  0  0  0  0  0  0
   31.7076   13.3661   25.0727 H   0  0  0  0  0  0  0  0  0  0  0  0
   33.5657   12.0749   25.9551 H   0  0  0  0  0  0  0  0  0  0  0  0
   33.1582   10.0634   27.3330 H   0  0  0  0  0  0  0  0  0  0  0  0
   30.8593    9.3565   27.8450 H   0  0  0  0  0  0  0  0  0  0  0  0
   32.3627   15.7820   23.3043 H   0  0  0  0  0  0  0  0  0  0  0  0
   33.8101   16.4818   20.6638 H   0  0  0  0  0  0  0  0  0  0  0  0
   25.6686   12.7865   25.2827 H   0  0  0  0  0  0  0  0  0  0  0  0
   24.3765   11.7089   27.8761 H   0  0  0  0  0  0  0  0  0  0  0  0
  1  5  2  0
  2  3  2  0
  3  4  1  0
  4  6  2  0
  5  6  1  0
  5 10  1  0
  6  7  1  0
  7  8  2  0
  8  9  1  0
  9 10  2  0
  4 11  1  0
 11 12  1  0
 12 17  2  0
 12 15  1  0
 16 13  2  0
 13 14  1  0
 14 15  2  0
 16 17  1  0
 16 21  1  0
 17 18  1  0
 18 19  2  0
 19 20  1  0
 20 21  2  0
  3 22  1  0
  2 23  1  0
 23 24  1  0
 23 25  2  0
 15 26  1  0
 14 27  1  0
  1  2  1  0
 27 28  1  0
 27 29  2  0
  1 30  1  0
  7 31  1  0
  8 32  1  0
  9 33  1  0
 10 34  1  0
 11 35  1  0
 11 36  1  0
 13 37  1  0
 18 38  1  0
 19 39  1  0
 20 40  1  0
 21 41  1  0
 22 42  1  0
 24 43  1  0
 26 44  1  0
 28 45  1  0
M  END
> <Uni-Dock RESULT> 
ENERGY=   -4.052  LOWER_BOUND=    0.000  UPPER_BOUND=    0.000
INTER + INTRA:          -4.052
INTER:                  -4.052
INTRA:                   0.000
UNBOUND:                 0.000

$$$$

     RDKit          3D

 45 48  0  0  0  0  0  0  0  0999 V2000
   28.6314   10.5728   27.0442 C   0  0  0  0  0  0  0  0  0  0  0  0
   27.5289   11.3134   26.6073 C   0  0  0  0  0  0  0  0  0  0  0  0
   27.7228   12.3882   25.7087 C   0  0  0  0  0  0  0  0  0  0  0  0
   29.0303   12.7437   25.2842 C   0  0  0  0  0  0  0  0  0  0  0  0
   29.9304   10.9450   26.6931 C   0  0  0  0  0  0  0  0  0  0  0  0
   30.1479   12.0648   25.8499 C   0  0  0  0  0  0  0  0  0  0  0  0
   31.4796   12.4740   25.6189 C   0  0  0  0  0  0  0  0  0  0  0  0
   32.5540   11.7524   26.1431 C   0  0  0  0  0  0  0  0  0  0  0  0
   32.3259   10.6226   26.9246 C   0  0  0  0  0  0  0  0  0  0  0  0
   31.0209   10.2244   27.2088 C   0  0  0  0  0  0  0  0  0  0  0  0
   29.1964   13.8487   24.2363 C   0  0  0  0  0  0  0  0  0  0  0  0
   29.9911   13.4224   22.9979 C   0  0  0  0  0  0  0  0  0  0  0  0
   31.6303   12.5728   20.8624 C   0  0  0  0  0  0  0  0  0  0  0  0
   31.9429   13.7561   21.5385 C   0  0  0  0  0  0  0  0  0  0  0  0
   31.1362   14.1734   22.6226 C   0  0  0  0  0  0  0  0  0  0  0  0
   30.4734   11.8545   21.1704 C   0  0  0  0  0  0  0  0  0  0  0  0
   29.6139   12.2983   22.2080 C   0  0  0  0  0  0  0  0  0  0  0  0
   28.3976   11.6082   22.4041 C   0  0  0  0  0  0  0  0  0  0  0  0
   28.0844   10.4758   21.6494 C   0  0  0  0  0  0  0  0  0  0  0  0
   28.9638   10.0196   20.6707 C   0  0  0  0  0  0  0  0  0  0  0  0
   30.1488   10.7100   20.4228 C   0  0  0  0  0  0  0  0  0  0  0  0
   26.6299   13.0927   25.1908 O   0  0  0  0  0  0  0  0  0  0  0  0
   26.1938   10.9565   27.1347 C   0  0  0  0  0  0  0  0  0  0  0  0
   25.2887   11.9499   27.4976 O   0  0  0  0  0  0  0  0  0  0  0  0
   25.8891    9.7462   27.3130 O   0  0  0  0  0  0  0  0  0  0  0  0
   31.4738   15.3082   23.3692 O   0  0  0  0  0  0  0  0  0  0  0  0
   33.0997   14.5468   21.0650 C   0  0  0  0  0  0  0  0  0  0  0  0
   33.0268   15.9354   20.9982 O   0  0  0  0  0  0  0  0  0  0  0  0
   34.1418   13.9616   20.6635 O   0  0  0  0  0  0  0  0  0  0  0  0
   28.4800    9.7350   27.7167 H   0  0  0  0  0  0  0  0  0  0  0  0
   31.7094   13.3684   25.0684 H   0  0  0  0  0  0  0  0  0  0  0  0
   33.5683   12.0779   25.9502 H   0  0  0  0  0  0  0  0  0  0  0  0
   33.1619   10.0672   27.3297 H   0  0  0  0  0  0  0  0  0  0  0  0
   30.8634    9.3603   27.8438 H   0  0  0  0  0  0  0  0  0  0  0  0
   29.6581   14.7125   24.7557 H   0  0  0  0  0  0  0  0  0  0  0  0
   28.2221   14.2327   23.8719 H   0  0  0  0  0  0  0  0  0  0  0  0
   32.2618   12.2417   20.0446 H   0  0  0  0  0  0  0  0  0  0  0  0
   27.6604   11.9495   23.1082 H   0  0  0  0  0  0  0  0  0  0  0  0
   27.1499    9.9561   21.8181 H   0  0  0  0  0  0  0  0  0  0  0  0
   28.7161    9.1420   20.0875 H   0  0  0  0  0  0  0  0  0  0  0  0
   30.8060   10.3571   19.6366 H   0  0  0  0  0  0  0  0  0  0  0  0
   25.6706   12.7884   25.2831 H   0  0  0  0  0  0  0  0  0  0  0  0
   24.3804   11.7123   27.8781 H   0  0  0  0  0  0  0  0  0  0  0  0
   32.3631   15.7832   23.2980 H   0  0  0  0  0  0  0  0  0  0  0  0
   33.8084   16.4814   20.6561 H   0  0  0  0  0  0  0  0  0  0  0  0
  1  5  2  0
  2  3  2  0
  3  4  1  0
  4  6  2  0
  5  6  1  0
  5 10  1  0
  6  7  1  0
  7  8  2  0
  8  9  1  0
  9 10  2  0
  4 11  1  0
 11 12  1  0
 12 17  2  0
 12 15  1  0
 16 13  2  0
 13 14  1  0
 14 15  2  0
 16 17  1  0
 16 21  1  0
 17 18  1  0
 18 19  2  0
 19 20  1  0
 20 21  2  0
  3 22  1  0
  2 23  1  0
 23 24  1  0
 23 25  2  0
 15 26  1  0
 14 27  1  0
  1  2  1  0
 27 28  1  0
 27 29  2  0
  1 30  1  0
  7 31  1  0
  8 32  1  0
  9 33  1  0
 10 34  1  0
 11 35  1  0
 11 36  1  0
 13 37  1  0
 18 38  1  0
 19 39  1  0
 20 40  1  0
 21 41  1  0
 22 42  1  0
 24 43  1  0
 26 44  1  0
 28 45  1  0
M  END
> <Uni-Dock RESULT> 
ENERGY=   -4.050  LOWER_BOUND=    0.004  UPPER_BOUND=    7.027
INTER + INTRA:          -4.050
INTER:                  -4.050
INTRA:                   0.000
UNBOUND:                 0.000

$$$$

     RDKit          3D

 45 48  0  0  0  0  0  0  0  0999 V2000
   31.8121   11.4596   18.1970 C   0  0  0  0  0  0  0  0  0  0  0  0
   31.9342   12.8512   18.2583 C   0  0  0  0  0  0  0  0  0  0  0  0
   31.1538   13.5793   19.1862 C   0  0  0  0  0  0  0  0  0  0  0  0
   30.2203   12.9109   20.0217 C   0  0  0  0  0  0  0  0  0  0  0  0
   30.8548   10.7892   18.9605 C   0  0  0  0  0  0  0  0  0  0  0  0
   30.0136   11.5124   19.8445 C   0  0  0  0  0  0  0  0  0  0  0  0
   28.9832   10.8089   20.5060 C   0  0  0  0  0  0  0  0  0  0  0  0
   28.8436    9.4279   20.3533 C   0  0  0  0  0  0  0  0  0  0  0  0
   29.7116    8.7223   19.5238 C   0  0  0  0  0  0  0  0  0  0  0  0
   30.7071    9.3988   18.8211 C   0  0  0  0  0  0  0  0  0  0  0  0
   29.4627   13.7163   21.0818 C   0  0  0  0  0  0  0  0  0  0  0  0
   29.6127   13.1726   22.5062 C   0  0  0  0  0  0  0  0  0  0  0  0
   29.8112   11.9627   25.0490 C   0  0  0  0  0  0  0  0  0  0  0  0
   28.5488   12.2662   24.5303 C   0  0  0  0  0  0  0  0  0  0  0  0
   28.4448   12.8527   23.2476 C   0  0  0  0  0  0  0  0  0  0  0  0
   30.9737   12.3284   24.3678 C   0  0  0  0  0  0  0  0  0  0  0  0
   30.8881   12.9826   23.1120 C   0  0  0  0  0  0  0  0  0  0  0  0
   32.0850   13.4386   22.5174 C   0  0  0  0  0  0  0  0  0  0  0  0
   33.3236   13.1862   23.1109 C   0  0  0  0  0  0  0  0  0  0  0  0
   33.3956   12.4945   24.3174 C   0  0  0  0  0  0  0  0  0  0  0  0
   32.2269   12.0755   24.9507 C   0  0  0  0  0  0  0  0  0  0  0  0
   31.3161   14.9624   19.3266 O   0  0  0  0  0  0  0  0  0  0  0  0
   32.8630   13.5135   17.3165 C   0  0  0  0  0  0  0  0  0  0  0  0
   32.5049   14.7043   16.6909 O   0  0  0  0  0  0  0  0  0  0  0  0
   33.9644   12.9706   17.0305 O   0  0  0  0  0  0  0  0  0  0  0  0
   27.1922   13.0901   22.6699 O   0  0  0  0  0  0  0  0  0  0  0  0
   27.3629   11.9862   25.3689 C   0  0  0  0  0  0  0  0  0  0  0  0
   26.3091   12.8938   25.4282 O   0  0  0  0  0  0  0  0  0  0  0  0
   27.3257   10.9469   26.0818 O   0  0  0  0  0  0  0  0  0  0  0  0
   32.4265   10.8994   17.5000 H   0  0  0  0  0  0  0  0  0  0  0  0
   28.2540   11.3129   21.1143 H   0  0  0  0  0  0  0  0  0  0  0  0
   28.0512    8.9047   20.8732 H   0  0  0  0  0  0  0  0  0  0  0  0
   29.5987    7.6521   19.4077 H   0  0  0  0  0  0  0  0  0  0  0  0
   31.3536    8.8368   18.1571 H   0  0  0  0  0  0  0  0  0  0  0  0
   28.4038   13.7543   20.7555 H   0  0  0  0  0  0  0  0  0  0  0  0
   29.7820   14.7777   21.1116 H   0  0  0  0  0  0  0  0  0  0  0  0
   29.8897   11.4931   26.0240 H   0  0  0  0  0  0  0  0  0  0  0  0
   32.0818   14.0233   21.6153 H   0  0  0  0  0  0  0  0  0  0  0  0
   34.2310   13.5383   22.6371 H   0  0  0  0  0  0  0  0  0  0  0  0
   34.3579   12.3022   24.7741 H   0  0  0  0  0  0  0  0  0  0  0  0
   32.3017   11.5653   25.9039 H   0  0  0  0  0  0  0  0  0  0  0  0
   32.0815   15.4823   18.9200 H   0  0  0  0  0  0  0  0  0  0  0  0
   33.1280   15.1525   16.0299 H   0  0  0  0  0  0  0  0  0  0  0  0
   26.3256   12.7206   23.0359 H   0  0  0  0  0  0  0  0  0  0  0  0
   25.5031   12.7175   26.0159 H   0  0  0  0  0  0  0  0  0  0  0  0
  1  5  2  0
  2  3  2  0
  3  4  1  0
  4  6  2  0
  5  6  1  0
  5 10  1  0
  6  7  1  0
  7  8  2  0
  8  9  1  0
  9 10  2  0
  4 11  1  0
 11 12  1  0
 12 17  2  0
 12 15  1  0
 16 13  2  0
 13 14  1  0
 14 15  2  0
 16 17  1  0
 16 21  1  0
 17 18  1  0
 18 19  2  0
 19 20  1  0
 20 21  2  0
  3 22  1  0
  2 23  1  0
 23 24  1  0
 23 25  2  0
 15 26  1  0
 14 27  1  0
  1  2  1  0
 27 28  1  0
 27 29  2  0
  1 30  1  0
  7 31  1  0
  8 32  1  0
  9 33  1  0
 10 34  1  0
 11 35  1  0
 11 36  1  0
 13 37  1  0
 18 38  1  0
 19 39  1  0
 20 40  1  0
 21 41  1  0
 22 42  1  0
 24 43  1  0
 26 44  1  0
 28 45  1  0
M  END
> <Uni-Dock RESULT> 
ENERGY=   -3.794  LOWER_BOUND=    2.070  UPPER_BOUND=    2.996
INTER + INTRA:          -3.794
INTER:                  -3.794
INTRA:                   0.000
UNBOUND:                 0.000

$$$$

     RDKit          3D

 45 48  0  0  0  0  0  0  0  0999 V2000
   29.8339   11.9815   25.0132 C   0  0  0  0  0  0  0  0  0  0  0  0
   28.5670   12.2710   24.4971 C   0  0  0  0  0  0  0  0  0  0  0  0
   28.4534   12.8474   23.2107 C   0  0  0  0  0  0  0  0  0  0  0  0
   29.6159   13.1715   22.4626 C   0  0  0  0  0  0  0  0  0  0  0  0
   30.9907   12.3518   24.3249 C   0  0  0  0  0  0  0  0  0  0  0  0
   30.8951   12.9962   23.0649 C   0  0  0  0  0  0  0  0  0  0  0  0
   32.0861   13.4577   22.4624 C   0  0  0  0  0  0  0  0  0  0  0  0
   33.3288   13.2197   23.0529 C   0  0  0  0  0  0  0  0  0  0  0  0
   33.4110   12.5373   24.2640 C   0  0  0  0  0  0  0  0  0  0  0  0
   32.2482   12.1133   24.9047 C   0  0  0  0  0  0  0  0  0  0  0  0
   29.4561   13.7038   21.0350 C   0  0  0  0  0  0  0  0  0  0  0  0
   30.2163   12.8970   19.9777 C   0  0  0  0  0  0  0  0  0  0  0  0
   31.8130   11.4458   18.1573 C   0  0  0  0  0  0  0  0  0  0  0  0
   31.9240   12.8387   18.2082 C   0  0  0  0  0  0  0  0  0  0  0  0
   31.1411   13.5670   19.1339 C   0  0  0  0  0  0  0  0  0  0  0  0
   30.8641   10.7729   18.9292 C   0  0  0  0  0  0  0  0  0  0  0  0
   30.0203   11.4957   19.8112 C   0  0  0  0  0  0  0  0  0  0  0  0
   28.9982   10.7885   20.4816 C   0  0  0  0  0  0  0  0  0  0  0  0
   28.8693    9.4054   20.3393 C   0  0  0  0  0  0  0  0  0  0  0  0
   29.7400    8.7010   19.5116 C   0  0  0  0  0  0  0  0  0  0  0  0
   30.7273    9.3805   18.8003 C   0  0  0  0  0  0  0  0  0  0  0  0
   27.1968   13.0705   22.6361 O   0  0  0  0  0  0  0  0  0  0  0  0
   27.3866   11.9873   25.3422 C   0  0  0  0  0  0  0  0  0  0  0  0
   26.3257   12.8868   25.3990 O   0  0  0  0  0  0  0  0  0  0  0  0
   27.3607   10.9530   26.0626 O   0  0  0  0  0  0  0  0  0  0  0  0
   31.2927   14.9523   19.2638 O   0  0  0  0  0  0  0  0  0  0  0  0
   32.8437   13.5016   17.2582 C   0  0  0  0  0  0  0  0  0  0  0  0
   32.4736   14.6851   16.6255 O   0  0  0  0  0  0  0  0  0  0  0  0
   33.9485   12.9659   16.9719 O   0  0  0  0  0  0  0  0  0  0  0  0
   29.9199   11.5196   25.9911 H   0  0  0  0  0  0  0  0  0  0  0  0
   32.0746   14.0360   21.5561 H   0  0  0  0  0  0  0  0  0  0  0  0
   34.2315   13.5758   22.5732 H   0  0  0  0  0  0  0  0  0  0  0  0
   34.3765   12.3561   24.7185 H   0  0  0  0  0  0  0  0  0  0  0  0
   32.3308   11.6105   25.8614 H   0  0  0  0  0  0  0  0  0  0  0  0
   29.7668   14.7679   21.0559 H   0  0  0  0  0  0  0  0  0  0  0  0
   28.3957   13.7308   20.7124 H   0  0  0  0  0  0  0  0  0  0  0  0
   32.4294   10.8856   17.4619 H   0  0  0  0  0  0  0  0  0  0  0  0
   28.2672   11.2909   21.0891 H   0  0  0  0  0  0  0  0  0  0  0  0
   28.0833    8.8795   20.8659 H   0  0  0  0  0  0  0  0  0  0  0  0
   29.6354    7.6291   19.4036 H   0  0  0  0  0  0  0  0  0  0  0  0
   31.3758    8.8190   18.1380 H   0  0  0  0  0  0  0  0  0  0  0  0
   26.3347   12.6966   23.0080 H   0  0  0  0  0  0  0  0  0  0  0  0
   25.5234   12.7081   25.9910 H   0  0  0  0  0  0  0  0  0  0  0  0
   32.0523   15.4755   18.8505 H   0  0  0  0  0  0  0  0  0  0  0  0
   33.0906   15.1335   15.9589 H   0  0  0  0  0  0  0  0  0  0  0  0
  1  5  2  0
  2  3  2  0
  3  4  1  0
  4  6  2  0
  5  6  1  0
  5 10  1  0
  6  7  1  0
  7  8  2  0
  8  9  1  0
  9 10  2  0
  4 11  1  0
 11 12  1  0
 12 17  2  0
 12 15  1  0
 16 13  2  0
 13 14  1  0
 14 15  2  0
 16 17  1  0
 16 21  1  0
 17 18  1  0
 18 19  2  0
 19 20  1  0
 20 21  2  0
  3 22  1  0
  2 23  1  0
 23 24  1  0
 23 25  2  0
 15 26  1  0
 14 27  1  0
  1  2  1  0
 27 28  1  0
 27 29  2  0
  1 30  1  0
  7 31  1  0
  8 32  1  0
  9 33  1  0
 10 34  1  0
 11 35  1  0
 11 36  1  0
 13 37  1  0
 18 38  1  0
 19 39  1  0
 20 40  1  0
 21 41  1  0
 22 42  1  0
 24 43  1  0
 26 44  1  0
 28 45  1  0
M  END
> <Uni-Dock RESULT> 
ENERGY=   -3.791  LOWER_BOUND=    2.098  UPPER_BOUND=    7.415
INTER + INTRA:          -3.791
INTER:                  -3.791
INTRA:                   0.000
UNBOUND:                 0.000

$$$$

     RDKit          3D

 45 48  0  0  0  0  0  0  0  0999 V2000
   29.7453   11.7944   25.4357 C   0  0  0  0  0  0  0  0  0  0  0  0
   28.4878   12.1606   24.9461 C   0  0  0  0  0  0  0  0  0  0  0  0
   28.3919   12.8379   23.7082 C   0  0  0  0  0  0  0  0  0  0  0  0
   29.5638   13.1840   22.9851 C   0  0  0  0  0  0  0  0  0  0  0  0
   30.9128   12.1820   24.7757 C   0  0  0  0  0  0  0  0  0  0  0  0
   30.8370   12.9245   23.5695 C   0  0  0  0  0  0  0  0  0  0  0  0
   32.0415   13.3953   23.0021 C   0  0  0  0  0  0  0  0  0  0  0  0
   33.2763   13.0753   23.5700 C   0  0  0  0  0  0  0  0  0  0  0  0
   33.3377   12.2992   24.7246 C   0  0  0  0  0  0  0  0  0  0  0  0
   32.1624   11.8619   25.3330 C   0  0  0  0  0  0  0  0  0  0  0  0
   29.4205   13.8295   21.6032 C   0  0  0  0  0  0  0  0  0  0  0  0
   30.1566   13.0845   20.4852 C   0  0  0  0  0  0  0  0  0  0  0  0
   31.7097   11.7312   18.5550 C   0  0  0  0  0  0  0  0  0  0  0  0
   31.8623   13.1120   18.7131 C   0  0  0  0  0  0  0  0  0  0  0  0
   31.1013   13.7897   19.6939 C   0  0  0  0  0  0  0  0  0  0  0  0
   30.7407   11.0294   19.2745 C   0  0  0  0  0  0  0  0  0  0  0  0
   29.9188   11.7067   20.2114 C   0  0  0  0  0  0  0  0  0  0  0  0
   28.8757   10.9807   20.8272 C   0  0  0  0  0  0  0  0  0  0  0  0
   28.7055    9.6172   20.5787 C   0  0  0  0  0  0  0  0  0  0  0  0
   29.5549    8.9532   19.6973 C   0  0  0  0  0  0  0  0  0  0  0  0
   30.5623    9.6557   19.0387 C   0  0  0  0  0  0  0  0  0  0  0  0
   27.1427   13.1422   23.1551 O   0  0  0  0  0  0  0  0  0  0  0  0
   27.2991   11.8479   25.7690 C   0  0  0  0  0  0  0  0  0  0  0  0
   26.2656   12.7716   25.8973 O   0  0  0  0  0  0  0  0  0  0  0  0
   27.2420   10.7623   26.4075 O   0  0  0  0  0  0  0  0  0  0  0  0
   31.2943   15.1557   19.9301 O   0  0  0  0  0  0  0  0  0  0  0  0
   32.8018   13.8187   17.8154 C   0  0  0  0  0  0  0  0  0  0  0  0
   32.4675   15.0580   17.2767 O   0  0  0  0  0  0  0  0  0  0  0  0
   33.8902   13.2738   17.4863 O   0  0  0  0  0  0  0  0  0  0  0  0
   29.8170   11.2559   26.3748 H   0  0  0  0  0  0  0  0  0  0  0  0
   32.0476   14.0420   22.1432 H   0  0  0  0  0  0  0  0  0  0  0  0
   34.1894   13.4403   23.1175 H   0  0  0  0  0  0  0  0  0  0  0  0
   34.2971   12.0547   25.1618 H   0  0  0  0  0  0  0  0  0  0  0  0
   32.2296   11.2845   26.2477 H   0  0  0  0  0  0  0  0  0  0  0  0
   29.7629   14.8790   21.7056 H   0  0  0  0  0  0  0  0  0  0  0  0
   28.3615   13.9131   21.2858 H   0  0  0  0  0  0  0  0  0  0  0  0
   32.3092   11.2082   17.8172 H   0  0  0  0  0  0  0  0  0  0  0  0
   28.1599   11.4562   21.4731 H   0  0  0  0  0  0  0  0  0  0  0  0
   27.9038    9.0759   21.0647 H   0  0  0  0  0  0  0  0  0  0  0  0
   29.4183    7.8964   19.5071 H   0  0  0  0  0  0  0  0  0  0  0  0
   31.1940    9.1281   18.3336 H   0  0  0  0  0  0  0  0  0  0  0  0
   26.2697   12.7666   23.4987 H   0  0  0  0  0  0  0  0  0  0  0  0
   25.4581   12.5717   26.4753 H   0  0  0  0  0  0  0  0  0  0  0  0
   32.0693   15.6863   19.5570 H   0  0  0  0  0  0  0  0  0  0  0  0
   33.0978   15.5380   16.6456 H   0  0  0  0  0  0  0  0  0  0  0  0
  1  5  2  0
  2  3  2  0
  3  4  1  0
  4  6  2  0
  5  6  1  0
  5 10  1  0
  6  7  1  0
  7  8  2  0
  8  9  1  0
  9 10  2  0
  4 11  1  0
 11 12  1  0
 12 17  2  0
 12 15  1  0
 16 13  2  0
 13 14  1  0
 14 15  2  0
 16 17  1  0
 16 21  1  0
 17 18  1  0
 18 19  2  0
 19 20  1  0
 20 21  2  0
  3 22  1  0
  2 23  1  0
 23 24  1  0
 23 25  2  0
 15 26  1  0
 14 27  1  0
  1  2  1  0
 27 28  1  0
 27 29  2  0
  1 30  1  0
  7 31  1  0
  8 32  1  0
  9 33  1  0
 10 34  1  0
 11 35  1  0
 11 36  1  0
 13 37  1  0
 18 38  1  0
 19 39  1  0
 20 40  1  0
 21 41  1  0
 22 42  1  0
 24 43  1  0
 26 44  1  0
 28 45  1  0
M  END
> <Uni-Dock RESULT> 
ENERGY=   -3.752  LOWER_BOUND=    1.827  UPPER_BOUND=    7.287
INTER + INTRA:          -3.752
INTER:                  -3.752
INTRA:                   0.000
UNBOUND:                 0.000

$$$$

     RDKit          3D

 45 48  0  0  0  0  0  0  0  0999 V2000
   30.8860    1.3661   31.8305 C   0  0  0  0  0  0  0  0  0  0  0  0
   30.6707    1.3224   33.2114 C   0  0  0  0  0  0  0  0  0  0  0  0
   29.5987    2.0540   33.7733 C   0  0  0  0  0  0  0  0  0  0  0  0
   28.7708    2.8629   32.9508 C   0  0  0  0  0  0  0  0  0  0  0  0
   30.1274    2.2053   31.0124 C   0  0  0  0  0  0  0  0  0  0  0  0
   29.0942    3.0012   31.5702 C   0  0  0  0  0  0  0  0  0  0  0  0
   28.4341    3.9206   30.7256 C   0  0  0  0  0  0  0  0  0  0  0  0
   28.7371    3.9910   29.3643 C   0  0  0  0  0  0  0  0  0  0  0  0
   29.7166    3.1644   28.8198 C   0  0  0  0  0  0  0  0  0  0  0  0
   30.4177    2.2820   29.6397 C   0  0  0  0  0  0  0  0  0  0  0  0
   27.5607    3.5640   33.5760 C   0  0  0  0  0  0  0  0  0  0  0  0
   26.2295    3.2481   32.8869 C   0  0  0  0  0  0  0  0  0  0  0  0
   23.8752    2.7384   31.4149 C   0  0  0  0  0  0  0  0  0  0  0  0
   24.2428    4.0601   31.6852 C   0  0  0  0  0  0  0  0  0  0  0  0
   25.4329    4.3196   32.4040 C   0  0  0  0  0  0  0  0  0  0  0  0
   24.6064    1.6694   31.9361 C   0  0  0  0  0  0  0  0  0  0  0  0
   25.7634    1.9121   32.7202 C   0  0  0  0  0  0  0  0  0  0  0  0
   26.4011    0.8061   33.3236 C   0  0  0  0  0  0  0  0  0  0  0  0
   25.9515   -0.4958   33.0937 C   0  0  0  0  0  0  0  0  0  0  0  0
   24.8465   -0.7226   32.2771 C   0  0  0  0  0  0  0  0  0  0  0  0
   24.1686    0.3539   31.7079 C   0  0  0  0  0  0  0  0  0  0  0  0
   29.3096    1.9623   35.1397 O   0  0  0  0  0  0  0  0  0  0  0  0
   31.6040    0.5279   34.0395 C   0  0  0  0  0  0  0  0  0  0  0  0
   32.0503    1.0141   35.2651 O   0  0  0  0  0  0  0  0  0  0  0  0
   32.0469   -0.5721   33.6114 O   0  0  0  0  0  0  0  0  0  0  0  0
   25.8675    5.6330   32.6162 O   0  0  0  0  0  0  0  0  0  0  0  0
   23.3438    5.1427   31.2296 C   0  0  0  0  0  0  0  0  0  0  0  0
   23.0859    6.2387   32.0482 O   0  0  0  0  0  0  0  0  0  0  0  0
   22.7588    5.0501   30.1165 O   0  0  0  0  0  0  0  0  0  0  0  0
   31.6953    0.7878   31.3972 H   0  0  0  0  0  0  0  0  0  0  0  0
   27.7093    4.6181   31.1051 H   0  0  0  0  0  0  0  0  0  0  0  0
   28.2163    4.6980   28.7313 H   0  0  0  0  0  0  0  0  0  0  0  0
   29.9488    3.2234   27.7642 H   0  0  0  0  0  0  0  0  0  0  0  0
   31.1972    1.6684   29.2032 H   0  0  0  0  0  0  0  0  0  0  0  0
   27.7872    4.6493   33.5759 H   0  0  0  0  0  0  0  0  0  0  0  0
   27.4329    3.3075   34.6471 H   0  0  0  0  0  0  0  0  0  0  0  0
   22.9734    2.5404   30.8449 H   0  0  0  0  0  0  0  0  0  0  0  0
   27.2237    0.9294   34.0047 H   0  0  0  0  0  0  0  0  0  0  0  0
   26.4569   -1.3318   33.5601 H   0  0  0  0  0  0  0  0  0  0  0  0
   24.5010   -1.7335   32.1028 H   0  0  0  0  0  0  0  0  0  0  0  0
   23.2928    0.1591   31.1000 H   0  0  0  0  0  0  0  0  0  0  0  0
   29.7164    1.2713   35.7548 H   0  0  0  0  0  0  0  0  0  0  0  0
   32.7050    0.4841   35.8278 H   0  0  0  0  0  0  0  0  0  0  0  0
   25.4741    6.4375   32.1476 H   0  0  0  0  0  0  0  0  0  0  0  0
   22.4557    6.9736   31.7503 H   0  0  0  0  0  0  0  0  0  0  0  0
  1  5  2  0
  2  3  2  0
  3  4  1  0
  4  6  2  0
  5  6  1  0
  5 10  1  0
  6  7  1  0
  7  8  2  0
  8  9  1  0
  9 10  2  0
  4 11  1  0
 11 12  1  0
 12 17  2  0
 12 15  1  0
 16 13  2  0
 13 14  1  0
 14 15  2  0
 16 17  1  0
 16 21  1  0
 17 18  1  0
 18 19  2  0
 19 20  1  0
 20 21  2  0
  3 22  1  0
  2 23  1  0
 23 24  1  0
 23 25  2  0
 15 26  1  0
 14 27  1  0
  1  2  1  0
 27 28  1  0
 27 29  2  0
  1 30  1  0
  7 31  1  0
  8 32  1  0
  9 33  1  0
 10 34  1  0
 11 35  1  0
 11 36  1  0
 13 37  1  0
 18 38  1  0
 19 39  1  0
 20 40  1  0
 21 41  1  0
 22 42  1  0
 24 43  1  0
 26 44  1  0
 28 45  1  0
M  END
> <Uni-Dock RESULT> 
ENERGY=   -3.751  LOWER_BOUND=   10.811  UPPER_BOUND=   13.728
INTER + INTRA:          -3.751
INTER:                  -3.751
INTRA:                   0.000
UNBOUND:                 0.000

$$$$

     RDKit          3D

 45 48  0  0  0  0  0  0  0  0999 V2000
   31.5782   11.7661   18.6993 C   0  0  0  0  0  0  0  0  0  0  0  0
   31.7518   13.1416   18.8809 C   0  0  0  0  0  0  0  0  0  0  0  0
   31.0116   13.8114   19.8827 C   0  0  0  0  0  0  0  0  0  0  0  0
   30.0662   13.1048   20.6720 C   0  0  0  0  0  0  0  0  0  0  0  0
   30.6079   11.0646   19.4172 C   0  0  0  0  0  0  0  0  0  0  0  0
   29.8062   11.7356   20.3759 C   0  0  0  0  0  0  0  0  0  0  0  0
   28.7602   11.0128   20.9905 C   0  0  0  0  0  0  0  0  0  0  0  0
   28.5682    9.6566   20.7192 C   0  0  0  0  0  0  0  0  0  0  0  0
   29.3981    8.9973   19.8159 C   0  0  0  0  0  0  0  0  0  0  0  0
   30.4076    9.6981   19.1584 C   0  0  0  0  0  0  0  0  0  0  0  0
   29.3535   13.8391   21.8120 C   0  0  0  0  0  0  0  0  0  0  0  0
   29.5036   13.1663   23.1800 C   0  0  0  0  0  0  0  0  0  0  0  0
   29.6938   11.7294   25.6026 C   0  0  0  0  0  0  0  0  0  0  0  0
   28.4360   12.1218   25.1345 C   0  0  0  0  0  0  0  0  0  0  0  0
   28.3354   12.8231   23.9104 C   0  0  0  0  0  0  0  0  0  0  0  0
   30.8591   12.1131   24.9362 C   0  0  0  0  0  0  0  0  0  0  0  0
   30.7797   12.8787   23.7447 C   0  0  0  0  0  0  0  0  0  0  0  0
   31.9839   13.3434   23.1720 C   0  0  0  0  0  0  0  0  0  0  0  0
   33.2207   12.9961   23.7194 C   0  0  0  0  0  0  0  0  0  0  0  0
   33.2844   12.1980   24.8588 C   0  0  0  0  0  0  0  0  0  0  0  0
   32.1103   11.7657   25.4728 C   0  0  0  0  0  0  0  0  0  0  0  0
   31.2262   15.1701   20.1416 O   0  0  0  0  0  0  0  0  0  0  0  0
   32.6907   13.8518   17.9853 C   0  0  0  0  0  0  0  0  0  0  0  0
   32.3675   15.1053   17.4733 O   0  0  0  0  0  0  0  0  0  0  0  0
   33.7674   13.2982   17.6336 O   0  0  0  0  0  0  0  0  0  0  0  0
   27.0843   13.1545   23.3776 O   0  0  0  0  0  0  0  0  0  0  0  0
   27.2527   11.8104   25.9655 C   0  0  0  0  0  0  0  0  0  0  0  0
   26.2336   12.7456   26.1227 O   0  0  0  0  0  0  0  0  0  0  0  0
   27.1877   10.7139   26.5846 O   0  0  0  0  0  0  0  0  0  0  0  0
   32.1618   11.2487   17.9452 H   0  0  0  0  0  0  0  0  0  0  0  0
   28.0585   11.4861   21.6534 H   0  0  0  0  0  0  0  0  0  0  0  0
   27.7648    9.1174   21.2046 H   0  0  0  0  0  0  0  0  0  0  0  0
   29.2447    7.9462   19.6080 H   0  0  0  0  0  0  0  0  0  0  0  0
   31.0238    9.1749   18.4365 H   0  0  0  0  0  0  0  0  0  0  0  0
   28.2922   13.9430   21.5086 H   0  0  0  0  0  0  0  0  0  0  0  0
   29.7117   14.8818   21.9296 H   0  0  0  0  0  0  0  0  0  0  0  0
   29.7688   11.1728   26.5309 H   0  0  0  0  0  0  0  0  0  0  0  0
   31.9893   14.0056   22.3251 H   0  0  0  0  0  0  0  0  0  0  0  0
   34.1336   13.3568   23.2630 H   0  0  0  0  0  0  0  0  0  0  0  0
   34.2454   11.9323   25.2802 H   0  0  0  0  0  0  0  0  0  0  0  0
   32.1799   11.1707   26.3760 H   0  0  0  0  0  0  0  0  0  0  0  0
   32.0042   15.6969   19.7692 H   0  0  0  0  0  0  0  0  0  0  0  0
   32.9972   15.5882   16.8437 H   0  0  0  0  0  0  0  0  0  0  0  0
   26.2101   12.7846   23.7246 H   0  0  0  0  0  0  0  0  0  0  0  0
   25.4301   12.5462   26.7064 H   0  0  0  0  0  0  0  0  0  0  0  0
  1  5  2  0
  2  3  2  0
  3  4  1  0
  4  6  2  0
  5  6  1  0
  5 10  1  0
  6  7  1  0
  7  8  2  0
  8  9  1  0
  9 10  2  0
  4 11  1  0
 11 12  1  0
 12 17  2  0
 12 15  1  0
 16 13  2  0
 13 14  1  0
 14 15  2  0
 16 17  1  0
 16 21  1  0
 17 18  1  0
 18 19  2  0
 19 20  1  0
 20 21  2  0
  3 22  1  0
  2 23  1  0
 23 24  1  0
 23 25  2  0
 15 26  1  0
 14 27  1  0
  1  2  1  0
 27 28  1  0
 27 29  2  0
  1 30  1  0
  7 31  1  0
  8 32  1  0
  9 33  1  0
 10 34  1  0
 11 35  1  0
 11 36  1  0
 13 37  1  0
 18 38  1  0
 19 39  1  0
 20 40  1  0
 21 41  1  0
 22 42  1  0
 24 43  1  0
 26 44  1  0
 28 45  1  0
M  END
> <Uni-Dock RESULT> 
ENERGY=   -3.730  LOWER_BOUND=    1.753  UPPER_BOUND=    2.368
INTER + INTRA:          -3.730
INTER:                  -3.730
INTRA:                   0.000
UNBOUND:                 0.000

$$$$

     RDKit          3D

 45 48  0  0  0  0  0  0  0  0999 V2000
   25.6218   14.0150   22.4811 C   0  0  0  0  0  0  0  0  0  0  0  0
   26.4073   13.7739   23.6126 C   0  0  0  0  0  0  0  0  0  0  0  0
   27.5049   12.8866   23.5230 C   0  0  0  0  0  0  0  0  0  0  0  0
   27.7853   12.2099   22.3066 C   0  0  0  0  0  0  0  0  0  0  0  0
   25.8379   13.3117   21.2947 C   0  0  0  0  0  0  0  0  0  0  0  0
   26.8902   12.3645   21.2089 C   0  0  0  0  0  0  0  0  0  0  0  0
   26.9959   11.5933   20.0306 C   0  0  0  0  0  0  0  0  0  0  0  0
   26.1367   11.8094   18.9513 C   0  0  0  0  0  0  0  0  0  0  0  0
   25.1423   12.7811   19.0296 C   0  0  0  0  0  0  0  0  0  0  0  0
   24.9844   13.5232   20.1987 C   0  0  0  0  0  0  0  0  0  0  0  0
   29.0375   11.3321   22.2165 C   0  0  0  0  0  0  0  0  0  0  0  0
   29.9792   11.7017   21.0661 C   0  0  0  0  0  0  0  0  0  0  0  0
   31.5301   12.3570   18.8002 C   0  0  0  0  0  0  0  0  0  0  0  0
   31.1349   11.0309   19.0009 C   0  0  0  0  0  0  0  0  0  0  0  0
   30.3399   10.7028   20.1236 C   0  0  0  0  0  0  0  0  0  0  0  0
   31.2440   13.3422   19.7471 C   0  0  0  0  0  0  0  0  0  0  0  0
   30.5086   13.0158   20.9154 C   0  0  0  0  0  0  0  0  0  0  0  0
   30.3460   14.0157   21.8991 C   0  0  0  0  0  0  0  0  0  0  0  0
   30.8292   15.3098   21.6948 C   0  0  0  0  0  0  0  0  0  0  0  0
   31.5020   15.6300   20.5184 C   0  0  0  0  0  0  0  0  0  0  0  0
   31.7192   14.6499   19.5516 C   0  0  0  0  0  0  0  0  0  0  0  0
   28.3567   12.6911   24.6163 O   0  0  0  0  0  0  0  0  0  0  0  0
   26.0329   14.4414   24.8784 C   0  0  0  0  0  0  0  0  0  0  0  0
   26.0877   13.7496   26.0851 O   0  0  0  0  0  0  0  0  0  0  0  0
   25.6056   15.6275   24.8635 O   0  0  0  0  0  0  0  0  0  0  0  0
   29.8610    9.4000   20.3040 O   0  0  0  0  0  0  0  0  0  0  0  0
   31.5973   10.0101   18.0355 C   0  0  0  0  0  0  0  0  0  0  0  0
   32.0255    8.7616   18.4780 O   0  0  0  0  0  0  0  0  0  0  0  0
   31.6604   10.2866   16.8070 O   0  0  0  0  0  0  0  0  0  0  0  0
   24.7929   14.7122   22.5446 H   0  0  0  0  0  0  0  0  0  0  0  0
   27.7101   10.7950   19.9389 H   0  0  0  0  0  0  0  0  0  0  0  0
   26.2368   11.2125   18.0537 H   0  0  0  0  0  0  0  0  0  0  0  0
   24.4779   12.9442   18.1908 H   0  0  0  0  0  0  0  0  0  0  0  0
   24.1855   14.2537   20.2515 H   0  0  0  0  0  0  0  0  0  0  0  0
   28.6860   10.2826   22.1518 H   0  0  0  0  0  0  0  0  0  0  0  0
   29.6421   11.3652   23.1453 H   0  0  0  0  0  0  0  0  0  0  0  0
   32.1221   12.6119   17.9273 H   0  0  0  0  0  0  0  0  0  0  0  0
   29.8825   13.8075   22.8465 H   0  0  0  0  0  0  0  0  0  0  0  0
   30.6898   16.0649   22.4579 H   0  0  0  0  0  0  0  0  0  0  0  0
   31.8758   16.6342   20.3650 H   0  0  0  0  0  0  0  0  0  0  0  0
   32.2712   14.9107   18.6561 H   0  0  0  0  0  0  0  0  0  0  0  0
   28.3489   13.2695   25.4449 H   0  0  0  0  0  0  0  0  0  0  0  0
   25.8137   14.1948   26.9528 H   0  0  0  0  0  0  0  0  0  0  0  0
   29.9035    8.6826   19.5934 H   0  0  0  0  0  0  0  0  0  0  0  0
   32.3621    8.0652   17.8239 H   0  0  0  0  0  0  0  0  0  0  0  0
  1  5  2  0
  2  3  2  0
  3  4  1  0
  4  6  2  0
  5  6  1  0
  5 10  1  0
  6  7  1  0
  7  8  2  0
  8  9  1  0
  9 10  2  0
  4 11  1  0
 11 12  1  0
 12 17  2  0
 12 15  1  0
 16 13  2  0
 13 14  1  0
 14 15  2  0
 16 17  1  0
 16 21  1  0
 17 18  1  0
 18 19  2  0
 19 20  1  0
 20 21  2  0
  3 22  1  0
  2 23  1  0
 23 24  1  0
 23 25  2  0
 15 26  1  0
 14 27  1  0
  1  2  1  0
 27 28  1  0
 27 29  2  0
  1 30  1  0
  7 31  1  0
  8 32  1  0
  9 33  1  0
 10 34  1  0
 11 35  1  0
 11 36  1  0
 13 37  1  0
 18 38  1  0
 19 39  1  0
 20 40  1  0
 21 41  1  0
 22 42  1  0
 24 43  1  0
 26 44  1  0
 28 45  1  0
M  END
> <Uni-Dock RESULT> 
ENERGY=   -3.674  LOWER_BOUND=    3.454  UPPER_BOUND=    6.968
INTER + INTRA:          -3.674
INTER:                  -3.674
INTRA:                   0.000
UNBOUND:                 0.000

$$$$

     RDKit          3D

 45 48  0  0  0  0  0  0  0  0999 V2000
   31.5380   12.4761   18.9473 C   0  0  0  0  0  0  0  0  0  0  0  0
   31.1183   11.1495   19.0855 C   0  0  0  0  0  0  0  0  0  0  0  0
   30.3144   10.7841   20.1903 C   0  0  0  0  0  0  0  0  0  0  0  0
   29.9693   11.7446   21.1775 C   0  0  0  0  0  0  0  0  0  0  0  0
   31.2670   13.4212   19.9385 C   0  0  0  0  0  0  0  0  0  0  0  0
   30.5228   13.0544   21.0889 C   0  0  0  0  0  0  0  0  0  0  0  0
   30.3755   14.0105   22.1178 C   0  0  0  0  0  0  0  0  0  0  0  0
   30.8825   15.3036   21.9747 C   0  0  0  0  0  0  0  0  0  0  0  0
   31.5643   15.6658   20.8157 C   0  0  0  0  0  0  0  0  0  0  0  0
   31.7663   14.7278   19.8049 C   0  0  0  0  0  0  0  0  0  0  0  0
   29.0180   11.3392   22.3077 C   0  0  0  0  0  0  0  0  0  0  0  0
   27.7815   12.2344   22.4361 C   0  0  0  0  0  0  0  0  0  0  0  0
   25.6506   14.0684   22.6903 C   0  0  0  0  0  0  0  0  0  0  0  0
   26.4284   13.7609   23.8107 C   0  0  0  0  0  0  0  0  0  0  0  0
   27.5101   12.8589   23.6821 C   0  0  0  0  0  0  0  0  0  0  0  0
   25.8570   13.4171   21.4727 C   0  0  0  0  0  0  0  0  0  0  0  0
   26.8924   12.4559   21.3451 C   0  0  0  0  0  0  0  0  0  0  0  0
   26.9873   11.7386   20.1325 C   0  0  0  0  0  0  0  0  0  0  0  0
   26.1351   12.0201   19.0627 C   0  0  0  0  0  0  0  0  0  0  0  0
   25.1582   13.0050   19.1842 C   0  0  0  0  0  0  0  0  0  0  0  0
   25.0105   13.6948   20.3862 C   0  0  0  0  0  0  0  0  0  0  0  0
   29.8117    9.4833   20.3090 O   0  0  0  0  0  0  0  0  0  0  0  0
   31.5648   10.1663   18.0746 C   0  0  0  0  0  0  0  0  0  0  0  0
   31.9692    8.8911   18.4594 O   0  0  0  0  0  0  0  0  0  0  0  0
   31.6363   10.4984   16.8605 O   0  0  0  0  0  0  0  0  0  0  0  0
   28.3553   12.5974   24.7667 O   0  0  0  0  0  0  0  0  0  0  0  0
   26.0627   14.3755   25.1054 C   0  0  0  0  0  0  0  0  0  0  0  0
   26.1017   13.6276   26.2789 O   0  0  0  0  0  0  0  0  0  0  0  0
   25.6570   15.5686   25.1449 O   0  0  0  0  0  0  0  0  0  0  0  0
   32.1367   12.7605   18.0884 H   0  0  0  0  0  0  0  0  0  0  0  0
   29.9057   13.7669   23.0537 H   0  0  0  0  0  0  0  0  0  0  0  0
   30.7547   16.0248   22.7718 H   0  0  0  0  0  0  0  0  0  0  0  0
   31.9565   16.6690   20.7098 H   0  0  0  0  0  0  0  0  0  0  0  0
   32.3254   15.0198   18.9235 H   0  0  0  0  0  0  0  0  0  0  0  0
   29.6206   11.3181   23.2381 H   0  0  0  0  0  0  0  0  0  0  0  0
   28.6477   10.3003   22.1936 H   0  0  0  0  0  0  0  0  0  0  0  0
   24.8341   14.7769   22.7845 H   0  0  0  0  0  0  0  0  0  0  0  0
   27.6872   10.9325   20.0050 H   0  0  0  0  0  0  0  0  0  0  0  0
   26.2268   11.4638   18.1386 H   0  0  0  0  0  0  0  0  0  0  0  0
   24.4992   13.2189   18.3526 H   0  0  0  0  0  0  0  0  0  0  0  0
   24.2249   14.4364   20.4714 H   0  0  0  0  0  0  0  0  0  0  0  0
   29.8431    8.7989   19.5660 H   0  0  0  0  0  0  0  0  0  0  0  0
   32.2949    8.2198   17.7743 H   0  0  0  0  0  0  0  0  0  0  0  0
   28.3556   13.1368   25.6214 H   0  0  0  0  0  0  0  0  0  0  0  0
   25.8334   14.0369   27.1658 H   0  0  0  0  0  0  0  0  0  0  0  0
  1  5  2  0
  2  3  2  0
  3  4  1  0
  4  6  2  0
  5  6  1  0
  5 10  1  0
  6  7  1  0
  7  8  2  0
  8  9  1  0
  9 10  2  0
  4 11  1  0
 11 12  1  0
 12 17  2  0
 12 15  1  0
 16 13  2  0
 13 14  1  0
 14 15  2  0
 16 17  1  0
 16 21  1  0
 17 18  1  0
 18 19  2  0
 19 20  1  0
 20 21  2  0
  3 22  1  0
  2 23  1  0
 23 24  1  0
 23 25  2  0
 15 26  1  0
 14 27  1  0
  1  2  1  0
 27 28  1  0
 27 29  2  0
  1 30  1  0
  7 31  1  0
  8 32  1  0
  9 33  1  0
 10 34  1  0
 11 35  1  0
 11 36  1  0
 13 37  1  0
 18 38  1  0
 19 39  1  0
 20 40  1  0
 21 41  1  0
 22 42  1  0
 24 43  1  0
 26 44  1  0
 28 45  1  0
M  END
> <Uni-Dock RESULT> 
ENERGY=   -3.654  LOWER_BOUND=    3.380  UPPER_BOUND=    5.544
INTER + INTRA:          -3.654
INTER:                  -3.654
INTRA:                   0.000
UNBOUND:                 0.000

$$$$
