
     RDKit          3D

 45 48  0  0  0  0  0  0  0  0999 V2000
   29.8556    1.6476   29.5492 C   0  0  0  0  0  0  0  0  0  0  0  0
   29.2652    2.8721   29.2301 C   0  0  0  0  0  0  0  0  0  0  0  0
   28.4331    3.5100   30.1763 C   0  0  0  0  0  0  0  0  0  0  0  0
   28.2422    2.9513   31.4656 C   0  0  0  0  0  0  0  0  0  0  0  0
   29.6900    1.0750   30.8117 C   0  0  0  0  0  0  0  0  0  0  0  0
   28.8990    1.7245   31.7986 C   0  0  0  0  0  0  0  0  0  0  0  0
   28.8031    1.1105   33.0735 C   0  0  0  0  0  0  0  0  0  0  0  0
   29.4485   -0.0990   33.3404 C   0  0  0  0  0  0  0  0  0  0  0  0
   30.2066   -0.7249   32.3566 C   0  0  0  0  0  0  0  0  0  0  0  0
   30.3305   -0.1421   31.0990 C   0  0  0  0  0  0  0  0  0  0  0  0
   27.3232    3.7039   32.4283 C   0  0  0  0  0  0  0  0  0  0  0  0
   25.8671    3.6816   31.9615 C   0  0  0  0  0  0  0  0  0  0  0  0
   23.1841    3.4691   31.1055 C   0  0  0  0  0  0  0  0  0  0  0  0
   23.8727    2.3192   31.4955 C   0  0  0  0  0  0  0  0  0  0  0  0
   25.1986    2.4316   31.9710 C   0  0  0  0  0  0  0  0  0  0  0  0
   23.7982    4.7226   31.1358 C   0  0  0  0  0  0  0  0  0  0  0  0
   25.1508    4.8519   31.5552 C   0  0  0  0  0  0  0  0  0  0  0  0
   25.7183    6.1519   31.5539 C   0  0  0  0  0  0  0  0  0  0  0  0
   24.9732    7.2623   31.1508 C   0  0  0  0  0  0  0  0  0  0  0  0
   23.6521    7.1138   30.7425 C   0  0  0  0  0  0  0  0  0  0  0  0
   23.0654    5.8518   30.7333 C   0  0  0  0  0  0  0  0  0  0  0  0
   27.7560    4.6894   29.8515 O   0  0  0  0  0  0  0  0  0  0  0  0
   29.5725    3.4766   27.9151 C   0  0  0  0  0  0  0  0  0  0  0  0
   29.7934    4.8463   27.8013 O   0  0  0  0  0  0  0  0  0  0  0  0
   29.6922    2.7436   26.8964 O   0  0  0  0  0  0  0  0  0  0  0  0
   25.8665    1.3215   32.4969 O   0  0  0  0  0  0  0  0  0  0  0  0
   23.1836    1.0166   31.3592 C   0  0  0  0  0  0  0  0  0  0  0  0
   21.8093    0.9337   31.5675 O   0  0  0  0  0  0  0  0  0  0  0  0
   23.8175   -0.0115   30.9993 O   0  0  0  0  0  0  0  0  0  0  0  0
   30.4861    1.1534   28.8173 H   0  0  0  0  0  0  0  0  0  0  0  0
   28.2374    1.5268   33.8876 H   0  0  0  0  0  0  0  0  0  0  0  0
   29.3585   -0.5541   34.3187 H   0  0  0  0  0  0  0  0  0  0  0  0
   30.7038   -1.6622   32.5709 H   0  0  0  0  0  0  0  0  0  0  0  0
   30.9329   -0.6419   30.3492 H   0  0  0  0  0  0  0  0  0  0  0  0
   27.3429    3.3273   33.4623 H   0  0  0  0  0  0  0  0  0  0  0  0
   27.7431    4.7132   32.5548 H   0  0  0  0  0  0  0  0  0  0  0  0
   22.1623    3.3842   30.7509 H   0  0  0  0  0  0  0  0  0  0  0  0
   26.7329    6.3533   31.8468 H   0  0  0  0  0  0  0  0  0  0  0  0
   25.4259    8.2458   31.1541 H   0  0  0  0  0  0  0  0  0  0  0  0
   23.0812    7.9790   30.4310 H   0  0  0  0  0  0  0  0  0  0  0  0
   22.0352    5.7577   30.4099 H   0  0  0  0  0  0  0  0  0  0  0  0
   27.6745    5.0498   28.9108 H   0  0  0  0  0  0  0  0  0  0  0  0
   30.0235    5.2636   26.9072 H   0  0  0  0  0  0  0  0  0  0  0  0
   25.4148    0.4450   32.7186 H   0  0  0  0  0  0  0  0  0  0  0  0
   21.3185    0.0545   31.4565 H   0  0  0  0  0  0  0  0  0  0  0  0
  1  5  2  0
  2  3  2  0
  3  4  1  0
  4  6  2  0
  5  6  1  0
  5 10  1  0
  6  7  1  0
  7  8  2  0
  8  9  1  0
  9 10  2  0
  4 11  1  0
 11 12  1  0
 12 17  2  0
 12 15  1  0
 16 13  2  0
 13 14  1  0
 14 15  2  0
 16 17  1  0
 16 21  1  0
 17 18  1  0
 18 19  2  0
 19 20  1  0
 20 21  2  0
  3 22  1  0
  2 23  1  0
 23 24  1  0
 23 25  2  0
 15 26  1  0
 14 27  1  0
  1  2  1  0
 27 28  1  0
 27 29  2  0
  1 30  1  0
  7 31  1  0
  8 32  1  0
  9 33  1  0
 10 34  1  0
 11 35  1  0
 11 36  1  0
 13 37  1  0
 18 38  1  0
 19 39  1  0
 20 40  1  0
 21 41  1  0
 22 42  1  0
 24 43  1  0
 26 44  1  0
 28 45  1  0
M  END
> <Uni-Dock RESULT> 
ENERGY=   -5.847  LOWER_BOUND=    0.000  UPPER_BOUND=    0.000
INTER + INTRA:          -5.847
INTER:                  -5.847
INTRA:                   0.000
UNBOUND:                 0.000

$$$$

     RDKit          3D

 45 48  0  0  0  0  0  0  0  0999 V2000
   29.8695    1.6446   29.6357 C   0  0  0  0  0  0  0  0  0  0  0  0
   29.2559    2.8561   29.3107 C   0  0  0  0  0  0  0  0  0  0  0  0
   28.3970    3.4733   30.2467 C   0  0  0  0  0  0  0  0  0  0  0  0
   28.2014    2.9080   31.5323 C   0  0  0  0  0  0  0  0  0  0  0  0
   29.6999    1.0660   30.8950 C   0  0  0  0  0  0  0  0  0  0  0  0
   28.8813    1.6957   31.8722 C   0  0  0  0  0  0  0  0  0  0  0  0
   28.7821    1.0772   33.1447 C   0  0  0  0  0  0  0  0  0  0  0  0
   29.4510   -0.1180   33.4183 C   0  0  0  0  0  0  0  0  0  0  0  0
   30.2361   -0.7248   32.4438 C   0  0  0  0  0  0  0  0  0  0  0  0
   30.3638   -0.1369   31.1889 C   0  0  0  0  0  0  0  0  0  0  0  0
   27.2529    3.6378   32.4838 C   0  0  0  0  0  0  0  0  0  0  0  0
   25.8040    3.5837   31.9974 C   0  0  0  0  0  0  0  0  0  0  0  0
   23.1383    3.3124   31.1050 C   0  0  0  0  0  0  0  0  0  0  0  0
   23.8474    2.1776   31.5025 C   0  0  0  0  0  0  0  0  0  0  0  0
   25.1639    2.3189   31.9959 C   0  0  0  0  0  0  0  0  0  0  0  0
   23.7235    4.5793   31.1456 C   0  0  0  0  0  0  0  0  0  0  0  0
   25.0671    4.7383   31.5834 C   0  0  0  0  0  0  0  0  0  0  0  0
   25.6051    6.0508   31.5918 C   0  0  0  0  0  0  0  0  0  0  0  0
   24.8406    7.1448   31.1805 C   0  0  0  0  0  0  0  0  0  0  0  0
   23.5288    6.9674   30.7543 C   0  0  0  0  0  0  0  0  0  0  0  0
   22.9709    5.6925   30.7351 C   0  0  0  0  0  0  0  0  0  0  0  0
   27.6979    4.6377   29.9147 O   0  0  0  0  0  0  0  0  0  0  0  0
   29.5671    3.4699   28.0009 C   0  0  0  0  0  0  0  0  0  0  0  0
   29.7586    4.8445   27.8923 O   0  0  0  0  0  0  0  0  0  0  0  0
   29.7169    2.7417   26.9827 O   0  0  0  0  0  0  0  0  0  0  0  0
   25.8496    1.2232   32.5290 O   0  0  0  0  0  0  0  0  0  0  0  0
   23.1897    0.8601   31.3547 C   0  0  0  0  0  0  0  0  0  0  0  0
   21.8150    0.7458   31.5445 O   0  0  0  0  0  0  0  0  0  0  0  0
   23.8514   -0.1528   31.0018 O   0  0  0  0  0  0  0  0  0  0  0  0
   30.5207    1.1661   28.9116 H   0  0  0  0  0  0  0  0  0  0  0  0
   28.1963    1.4791   33.9517 H   0  0  0  0  0  0  0  0  0  0  0  0
   29.3582   -0.5768   34.3945 H   0  0  0  0  0  0  0  0  0  0  0  0
   30.7514   -1.6510   32.6632 H   0  0  0  0  0  0  0  0  0  0  0  0
   30.9873   -0.6216   30.4465 H   0  0  0  0  0  0  0  0  0  0  0  0
   27.2672    3.2598   33.5174 H   0  0  0  0  0  0  0  0  0  0  0  0
   27.6482    4.6561   32.6176 H   0  0  0  0  0  0  0  0  0  0  0  0
   22.1235    3.2052   30.7366 H   0  0  0  0  0  0  0  0  0  0  0  0
   26.6109    6.2744   31.8986 H   0  0  0  0  0  0  0  0  0  0  0  0
   25.2709    8.1383   31.1915 H   0  0  0  0  0  0  0  0  0  0  0  0
   22.9427    7.8202   30.4365 H   0  0  0  0  0  0  0  0  0  0  0  0
   21.9475    5.5759   30.3978 H   0  0  0  0  0  0  0  0  0  0  0  0
   27.6210    4.9981   28.9735 H   0  0  0  0  0  0  0  0  0  0  0  0
   29.9912    5.2686   27.0021 H   0  0  0  0  0  0  0  0  0  0  0  0
   25.4147    0.3362   32.7431 H   0  0  0  0  0  0  0  0  0  0  0  0
   21.3456   -0.1440   31.4254 H   0  0  0  0  0  0  0  0  0  0  0  0
  1  5  2  0
  2  3  2  0
  3  4  1  0
  4  6  2  0
  5  6  1  0
  5 10  1  0
  6  7  1  0
  7  8  2  0
  8  9  1  0
  9 10  2  0
  4 11  1  0
 11 12  1  0
 12 17  2  0
 12 15  1  0
 16 13  2  0
 13 14  1  0
 14 15  2  0
 16 17  1  0
 16 21  1  0
 17 18  1  0
 18 19  2  0
 19 20  1  0
 20 21  2  0
  3 22  1  0
  2 23  1  0
 23 24  1  0
 23 25  2  0
 15 26  1  0
 14 27  1  0
  1  2  1  0
 27 28  1  0
 27 29  2  0
  1 30  1  0
  7 31  1  0
  8 32  1  0
  9 33  1  0
 10 34  1  0
 11 35  1  0
 11 36  1  0
 13 37  1  0
 18 38  1  0
 19 39  1  0
 20 40  1  0
 21 41  1  0
 22 42  1  0
 24 43  1  0
 26 44  1  0
 28 45  1  0
M  END
> <Uni-Dock RESULT> 
ENERGY=   -5.821  LOWER_BOUND=    0.127  UPPER_BOUND=    0.127
INTER + INTRA:          -5.821
INTER:                  -5.821
INTRA:                   0.000
UNBOUND:                 0.000

$$$$

     RDKit          3D

 45 48  0  0  0  0  0  0  0  0999 V2000
   28.5922   10.2354   27.7334 C   0  0  0  0  0  0  0  0  0  0  0  0
   27.5979    9.7892   28.6064 C   0  0  0  0  0  0  0  0  0  0  0  0
   27.9370    8.9000   29.6498 C   0  0  0  0  0  0  0  0  0  0  0  0
   29.2835    8.5063   29.8566 C   0  0  0  0  0  0  0  0  0  0  0  0
   29.9272    9.8690   27.9142 C   0  0  0  0  0  0  0  0  0  0  0  0
   30.3006    9.0162   28.9889 C   0  0  0  0  0  0  0  0  0  0  0  0
   31.6779    8.7139   29.1408 C   0  0  0  0  0  0  0  0  0  0  0  0
   32.6287    9.2221   28.2529 C   0  0  0  0  0  0  0  0  0  0  0  0
   32.2409   10.0438   27.2000 C   0  0  0  0  0  0  0  0  0  0  0  0
   30.8984   10.3693   27.0306 C   0  0  0  0  0  0  0  0  0  0  0  0
   29.5638    7.5383   31.0064 C   0  0  0  0  0  0  0  0  0  0  0  0
   28.9680    6.1543   30.7448 C   0  0  0  0  0  0  0  0  0  0  0  0
   27.9634    3.5900   30.1192 C   0  0  0  0  0  0  0  0  0  0  0  0
   28.9929    4.1304   29.3469 C   0  0  0  0  0  0  0  0  0  0  0  0
   29.5297    5.3917   29.6899 C   0  0  0  0  0  0  0  0  0  0  0  0
   27.4255    4.2941   31.1982 C   0  0  0  0  0  0  0  0  0  0  0  0
   27.9101    5.5901   31.5260 C   0  0  0  0  0  0  0  0  0  0  0  0
   27.3145    6.2558   32.6279 C   0  0  0  0  0  0  0  0  0  0  0  0
   26.2862    5.6579   33.3599 C   0  0  0  0  0  0  0  0  0  0  0  0
   25.8256    4.3901   33.0217 C   0  0  0  0  0  0  0  0  0  0  0  0
   26.3897    3.7099   31.9465 C   0  0  0  0  0  0  0  0  0  0  0  0
   26.9486    8.3652   30.4817 O   0  0  0  0  0  0  0  0  0  0  0  0
   26.2231   10.3049   28.4247 C   0  0  0  0  0  0  0  0  0  0  0  0
   25.4452   10.6474   29.5272 O   0  0  0  0  0  0  0  0  0  0  0  0
   25.7674   10.4909   27.2640 O   0  0  0  0  0  0  0  0  0  0  0  0
   30.6495    5.8981   29.0232 O   0  0  0  0  0  0  0  0  0  0  0  0
   29.4563    3.3614   28.1704 C   0  0  0  0  0  0  0  0  0  0  0  0
   29.4716    1.9697   28.2135 O   0  0  0  0  0  0  0  0  0  0  0  0
   29.7842    3.9506   27.1057 O   0  0  0  0  0  0  0  0  0  0  0  0
   28.3284   10.9102   26.9257 H   0  0  0  0  0  0  0  0  0  0  0  0
   32.0610    8.0867   29.9256 H   0  0  0  0  0  0  0  0  0  0  0  0
   33.6747    8.9752   28.3832 H   0  0  0  0  0  0  0  0  0  0  0  0
   32.9834   10.4338   26.5158 H   0  0  0  0  0  0  0  0  0  0  0  0
   30.6183   11.0180   26.2087 H   0  0  0  0  0  0  0  0  0  0  0  0
   30.6319    7.3992   31.2325 H   0  0  0  0  0  0  0  0  0  0  0  0
   29.2053    8.0187   31.9293 H   0  0  0  0  0  0  0  0  0  0  0  0
   27.5588    2.6166   29.8626 H   0  0  0  0  0  0  0  0  0  0  0  0
   27.6053    7.2391   32.9509 H   0  0  0  0  0  0  0  0  0  0  0  0
   25.8427    6.1841   34.1957 H   0  0  0  0  0  0  0  0  0  0  0  0
   25.0279    3.9335   33.5934 H   0  0  0  0  0  0  0  0  0  0  0  0
   26.0149    2.7235   31.6986 H   0  0  0  0  0  0  0  0  0  0  0  0
   25.9581    8.4303   30.2914 H   0  0  0  0  0  0  0  0  0  0  0  0
   24.5104   11.0193   29.4090 H   0  0  0  0  0  0  0  0  0  0  0  0
   31.2264    5.3535   28.3969 H   0  0  0  0  0  0  0  0  0  0  0  0
   29.7646    1.4275   27.4095 H   0  0  0  0  0  0  0  0  0  0  0  0
  1  5  2  0
  2  3  2  0
  3  4  1  0
  4  6  2  0
  5  6  1  0
  5 10  1  0
  6  7  1  0
  7  8  2  0
  8  9  1  0
  9 10  2  0
  4 11  1  0
 11 12  1  0
 12 17  2  0
 12 15  1  0
 16 13  2  0
 13 14  1  0
 14 15  2  0
 16 17  1  0
 16 21  1  0
 17 18  1  0
 18 19  2  0
 19 20  1  0
 20 21  2  0
  3 22  1  0
  2 23  1  0
 23 24  1  0
 23 25  2  0
 15 26  1  0
 14 27  1  0
  1  2  1  0
 27 28  1  0
 27 29  2  0
  1 30  1  0
  7 31  1  0
  8 32  1  0
  9 33  1  0
 10 34  1  0
 11 35  1  0
 11 36  1  0
 13 37  1  0
 18 38  1  0
 19 39  1  0
 20 40  1  0
 21 41  1  0
 22 42  1  0
 24 43  1  0
 26 44  1  0
 28 45  1  0
M  END
> <Uni-Dock RESULT> 
ENERGY=   -4.443  LOWER_BOUND=    4.196  UPPER_BOUND=    7.124
INTER + INTRA:          -4.443
INTER:                  -4.443
INTRA:                   0.000
UNBOUND:                 0.000

$$$$

     RDKit          3D

 45 48  0  0  0  0  0  0  0  0999 V2000
   23.1510    6.4156   30.1385 C   0  0  0  0  0  0  0  0  0  0  0  0
   23.0564    5.1338   30.6843 C   0  0  0  0  0  0  0  0  0  0  0  0
   24.0763    4.6669   31.5424 C   0  0  0  0  0  0  0  0  0  0  0  0
   25.1601    5.5071   31.9031 C   0  0  0  0  0  0  0  0  0  0  0  0
   24.2036    7.2676   30.4783 C   0  0  0  0  0  0  0  0  0  0  0  0
   25.2146    6.8382   31.3811 C   0  0  0  0  0  0  0  0  0  0  0  0
   26.2345    7.7653   31.7159 C   0  0  0  0  0  0  0  0  0  0  0  0
   26.2523    9.0472   31.1617 C   0  0  0  0  0  0  0  0  0  0  0  0
   25.2610    9.4429   30.2700 C   0  0  0  0  0  0  0  0  0  0  0  0
   24.2396    8.5609   29.9303 C   0  0  0  0  0  0  0  0  0  0  0  0
   26.2229    4.9224   32.8338 C   0  0  0  0  0  0  0  0  0  0  0  0
   27.0238    3.8093   32.1569 C   0  0  0  0  0  0  0  0  0  0  0  0
   28.5493    1.8672   30.7866 C   0  0  0  0  0  0  0  0  0  0  0  0
   28.5939    3.1972   30.3650 C   0  0  0  0  0  0  0  0  0  0  0  0
   27.8701    4.1772   31.0808 C   0  0  0  0  0  0  0  0  0  0  0  0
   27.7667    1.4822   31.8769 C   0  0  0  0  0  0  0  0  0  0  0  0
   26.9841    2.4417   32.5762 C   0  0  0  0  0  0  0  0  0  0  0  0
   26.2040    1.9838   33.6688 C   0  0  0  0  0  0  0  0  0  0  0  0
   26.2042    0.6371   34.0391 C   0  0  0  0  0  0  0  0  0  0  0  0
   26.9755   -0.2856   33.3407 C   0  0  0  0  0  0  0  0  0  0  0  0
   27.7529    0.1318   32.2645 C   0  0  0  0  0  0  0  0  0  0  0  0
   24.0549    3.3566   32.0299 O   0  0  0  0  0  0  0  0  0  0  0  0
   21.8579    4.3253   30.3700 C   0  0  0  0  0  0  0  0  0  0  0  0
   21.2468    3.5549   31.3555 O   0  0  0  0  0  0  0  0  0  0  0  0
   21.3484    4.3740   29.2179 O   0  0  0  0  0  0  0  0  0  0  0  0
   28.0021    5.5338   30.7692 O   0  0  0  0  0  0  0  0  0  0  0  0
   29.3808    3.5159   29.1528 C   0  0  0  0  0  0  0  0  0  0  0  0
   30.5505    2.8114   28.8799 O   0  0  0  0  0  0  0  0  0  0  0  0
   28.9740    4.3806   28.3312 O   0  0  0  0  0  0  0  0  0  0  0  0
   22.3722    6.7692   29.4708 H   0  0  0  0  0  0  0  0  0  0  0  0
   27.0370    7.5395   32.3948 H   0  0  0  0  0  0  0  0  0  0  0  0
   27.0425    9.7383   31.4263 H   0  0  0  0  0  0  0  0  0  0  0  0
   25.2816   10.4380   29.8445 H   0  0  0  0  0  0  0  0  0  0  0  0
   23.4721    8.8920   29.2402 H   0  0  0  0  0  0  0  0  0  0  0  0
   26.9442    5.6592   33.2187 H   0  0  0  0  0  0  0  0  0  0  0  0
   25.7105    4.6143   33.7578 H   0  0  0  0  0  0  0  0  0  0  0  0
   29.1139    1.1165   30.2438 H   0  0  0  0  0  0  0  0  0  0  0  0
   25.5749    2.6281   34.2560 H   0  0  0  0  0  0  0  0  0  0  0  0
   25.5993    0.3072   34.8743 H   0  0  0  0  0  0  0  0  0  0  0  0
   26.9700   -1.3277   33.6333 H   0  0  0  0  0  0  0  0  0  0  0  0
   28.3454   -0.6036   31.7326 H   0  0  0  0  0  0  0  0  0  0  0  0
   23.4408    2.6355   31.6770 H   0  0  0  0  0  0  0  0  0  0  0  0
   20.4146    3.0144   31.1518 H   0  0  0  0  0  0  0  0  0  0  0  0
   28.7144    5.9042   30.1551 H   0  0  0  0  0  0  0  0  0  0  0  0
   31.0890    3.0015   28.0433 H   0  0  0  0  0  0  0  0  0  0  0  0
  1  5  2  0
  2  3  2  0
  3  4  1  0
  4  6  2  0
  5  6  1  0
  5 10  1  0
  6  7  1  0
  7  8  2  0
  8  9  1  0
  9 10  2  0
  4 11  1  0
 11 12  1  0
 12 17  2  0
 12 15  1  0
 16 13  2  0
 13 14  1  0
 14 15  2  0
 16 17  1  0
 16 21  1  0
 17 18  1  0
 18 19  2  0
 19 20  1  0
 20 21  2  0
  3 22  1  0
  2 23  1  0
 23 24  1  0
 23 25  2  0
 15 26  1  0
 14 27  1  0
  1  2  1  0
 27 28  1  0
 27 29  2  0
  1 30  1  0
  7 31  1  0
  8 32  1  0
  9 33  1  0
 10 34  1  0
 11 35  1  0
 11 36  1  0
 13 37  1  0
 18 38  1  0
 19 39  1  0
 20 40  1  0
 21 41  1  0
 22 42  1  0
 24 43  1  0
 26 44  1  0
 28 45  1  0
M  END
> <Uni-Dock RESULT> 
ENERGY=   -4.220  LOWER_BOUND=    1.811  UPPER_BOUND=    7.043
INTER + INTRA:          -4.220
INTER:                  -4.220
INTRA:                   0.000
UNBOUND:                 0.000

$$$$

     RDKit          3D

 45 48  0  0  0  0  0  0  0  0999 V2000
   31.6106   12.6524   19.6215 C   0  0  0  0  0  0  0  0  0  0  0  0
   31.2111   13.5325   20.6293 C   0  0  0  0  0  0  0  0  0  0  0  0
   30.1459   13.1728   21.4841 C   0  0  0  0  0  0  0  0  0  0  0  0
   29.5217   11.9049   21.3688 C   0  0  0  0  0  0  0  0  0  0  0  0
   31.0184   11.3954   19.4860 C   0  0  0  0  0  0  0  0  0  0  0  0
   29.9793   10.9903   20.3680 C   0  0  0  0  0  0  0  0  0  0  0  0
   29.4470    9.6861   20.2024 C   0  0  0  0  0  0  0  0  0  0  0  0
   29.9161    8.8397   19.1953 C   0  0  0  0  0  0  0  0  0  0  0  0
   30.9241    9.2604   18.3344 C   0  0  0  0  0  0  0  0  0  0  0  0
   31.4759   10.5298   18.4782 C   0  0  0  0  0  0  0  0  0  0  0  0
   28.3742   11.5966   22.3310 C   0  0  0  0  0  0  0  0  0  0  0  0
   27.1494   12.4702   22.0564 C   0  0  0  0  0  0  0  0  0  0  0  0
   24.8836   14.0189   21.3902 C   0  0  0  0  0  0  0  0  0  0  0  0
   25.3561   13.0693   20.4829 C   0  0  0  0  0  0  0  0  0  0  0  0
   26.4591   12.2598   20.8362 C   0  0  0  0  0  0  0  0  0  0  0  0
   25.5097   14.2125   22.6231 C   0  0  0  0  0  0  0  0  0  0  0  0
   26.6569   13.4499   22.9758 C   0  0  0  0  0  0  0  0  0  0  0  0
   27.2513   13.7020   24.2389 C   0  0  0  0  0  0  0  0  0  0  0  0
   26.7279   14.6682   25.1008 C   0  0  0  0  0  0  0  0  0  0  0  0
   25.6059   15.4045   24.7359 C   0  0  0  0  0  0  0  0  0  0  0  0
   24.9986   15.1805   23.5039 C   0  0  0  0  0  0  0  0  0  0  0  0
   29.6644   14.0708   22.4415 O   0  0  0  0  0  0  0  0  0  0  0  0
   31.9557   14.8012   20.7872 C   0  0  0  0  0  0  0  0  0  0  0  0
   32.2624   15.2875   22.0551 O   0  0  0  0  0  0  0  0  0  0  0  0
   32.3672   15.4220   19.7700 O   0  0  0  0  0  0  0  0  0  0  0  0
   26.8698   11.2096   20.0096 O   0  0  0  0  0  0  0  0  0  0  0  0
   24.6914   12.9774   19.1638 C   0  0  0  0  0  0  0  0  0  0  0  0
   23.3218   13.2058   19.0597 O   0  0  0  0  0  0  0  0  0  0  0  0
   25.3615   12.7508   18.1207 O   0  0  0  0  0  0  0  0  0  0  0  0
   32.4220   12.9345   18.9586 H   0  0  0  0  0  0  0  0  0  0  0  0
   28.6666    9.2844   20.8233 H   0  0  0  0  0  0  0  0  0  0  0  0
   29.4929    7.8496   19.0823 H   0  0  0  0  0  0  0  0  0  0  0  0
   31.2824    8.5988   17.5562 H   0  0  0  0  0  0  0  0  0  0  0  0
   32.2663   10.8350   17.8023 H   0  0  0  0  0  0  0  0  0  0  0  0
   28.0400   10.5480   22.3178 H   0  0  0  0  0  0  0  0  0  0  0  0
   28.7747   11.6859   23.3522 H   0  0  0  0  0  0  0  0  0  0  0  0
   24.0297   14.6328   21.1235 H   0  0  0  0  0  0  0  0  0  0  0  0
   28.1236   13.1840   24.5946 H   0  0  0  0  0  0  0  0  0  0  0  0
   27.1983   14.8476   26.0594 H   0  0  0  0  0  0  0  0  0  0  0  0
   25.2064   16.1520   25.4091 H   0  0  0  0  0  0  0  0  0  0  0  0
   24.1262   15.7664   23.2381 H   0  0  0  0  0  0  0  0  0  0  0  0
   29.9092   15.0511   22.4660 H   0  0  0  0  0  0  0  0  0  0  0  0
   32.7889   16.1454   22.1699 H   0  0  0  0  0  0  0  0  0  0  0  0
   26.3319   10.8661   19.2258 H   0  0  0  0  0  0  0  0  0  0  0  0
   22.8551   13.1690   18.1614 H   0  0  0  0  0  0  0  0  0  0  0  0
  1  5  2  0
  2  3  2  0
  3  4  1  0
  4  6  2  0
  5  6  1  0
  5 10  1  0
  6  7  1  0
  7  8  2  0
  8  9  1  0
  9 10  2  0
  4 11  1  0
 11 12  1  0
 12 17  2  0
 12 15  1  0
 16 13  2  0
 13 14  1  0
 14 15  2  0
 16 17  1  0
 16 21  1  0
 17 18  1  0
 18 19  2  0
 19 20  1  0
 20 21  2  0
  3 22  1  0
  2 23  1  0
 23 24  1  0
 23 25  2  0
 15 26  1  0
 14 27  1  0
  1  2  1  0
 27 28  1  0
 27 29  2  0
  1 30  1  0
  7 31  1  0
  8 32  1  0
  9 33  1  0
 10 34  1  0
 11 35  1  0
 11 36  1  0
 13 37  1  0
 18 38  1  0
 19 39  1  0
 20 40  1  0
 21 41  1  0
 22 42  1  0
 24 43  1  0
 26 44  1  0
 28 45  1  0
M  END
> <Uni-Dock RESULT> 
ENERGY=   -4.143  LOWER_BOUND=   13.048  UPPER_BOUND=   14.371
INTER + INTRA:          -4.143
INTER:                  -4.143
INTRA:                   0.000
UNBOUND:                 0.000

$$$$

     RDKit          3D

 45 48  0  0  0  0  0  0  0  0999 V2000
   30.9272   11.2673   19.4535 C   0  0  0  0  0  0  0  0  0  0  0  0
   29.9798   10.7536   20.3415 C   0  0  0  0  0  0  0  0  0  0  0  0
   29.7158   11.4376   21.5485 C   0  0  0  0  0  0  0  0  0  0  0  0
   30.3561   12.6694   21.8375 C   0  0  0  0  0  0  0  0  0  0  0  0
   31.5704   12.4800   19.7083 C   0  0  0  0  0  0  0  0  0  0  0  0
   31.2826   13.2128   20.8922 C   0  0  0  0  0  0  0  0  0  0  0  0
   31.9404   14.4564   21.0723 C   0  0  0  0  0  0  0  0  0  0  0  0
   32.8522   14.9320   20.1274 C   0  0  0  0  0  0  0  0  0  0  0  0
   33.1298   14.1931   18.9822 C   0  0  0  0  0  0  0  0  0  0  0  0
   32.4919   12.9746   18.7699 C   0  0  0  0  0  0  0  0  0  0  0  0
   30.0164   13.3427   23.1675 C   0  0  0  0  0  0  0  0  0  0  0  0
   30.5348   12.5403   24.3618 C   0  0  0  0  0  0  0  0  0  0  0  0
   31.6504   11.0745   26.5026 C   0  0  0  0  0  0  0  0  0  0  0  0
   32.4960   11.6768   25.5695 C   0  0  0  0  0  0  0  0  0  0  0  0
   31.9399   12.4517   24.5269 C   0  0  0  0  0  0  0  0  0  0  0  0
   30.2628   11.1884   26.3974 C   0  0  0  0  0  0  0  0  0  0  0  0
   29.6792   11.9144   25.3230 C   0  0  0  0  0  0  0  0  0  0  0  0
   28.2635   11.9842   25.2687 C   0  0  0  0  0  0  0  0  0  0  0  0
   27.4742   11.3575   26.2356 C   0  0  0  0  0  0  0  0  0  0  0  0
   28.0650   10.6508   27.2775 C   0  0  0  0  0  0  0  0  0  0  0  0
   29.4516   10.5643   27.3600 C   0  0  0  0  0  0  0  0  0  0  0  0
   28.8411   10.8998   22.4974 O   0  0  0  0  0  0  0  0  0  0  0  0
   29.2545    9.5226   19.9572 C   0  0  0  0  0  0  0  0  0  0  0  0
   27.8920    9.3961   20.2132 O   0  0  0  0  0  0  0  0  0  0  0  0
   29.8569    8.6013   19.3426 O   0  0  0  0  0  0  0  0  0  0  0  0
   32.7610   13.1787   23.6597 O   0  0  0  0  0  0  0  0  0  0  0  0
   33.9518   11.4445   25.6994 C   0  0  0  0  0  0  0  0  0  0  0  0
   34.5244   11.3193   26.9624 O   0  0  0  0  0  0  0  0  0  0  0  0
   34.6736   11.3008   24.6763 O   0  0  0  0  0  0  0  0  0  0  0  0
   31.1368   10.7351   18.5315 H   0  0  0  0  0  0  0  0  0  0  0  0
   31.7838   15.0878   21.9283 H   0  0  0  0  0  0  0  0  0  0  0  0
   33.3477   15.8815   20.2860 H   0  0  0  0  0  0  0  0  0  0  0  0
   33.8377   14.5682   18.2543 H   0  0  0  0  0  0  0  0  0  0  0  0
   32.7160   12.4185   17.8669 H   0  0  0  0  0  0  0  0  0  0  0  0
   30.4019   14.3687   23.2684 H   0  0  0  0  0  0  0  0  0  0  0  0
   28.9295   13.5154   23.1752 H   0  0  0  0  0  0  0  0  0  0  0  0
   32.0778   10.4887   27.3096 H   0  0  0  0  0  0  0  0  0  0  0  0
   27.7273   12.5024   24.4943 H   0  0  0  0  0  0  0  0  0  0  0  0
   26.3951   11.4200   26.1745 H   0  0  0  0  0  0  0  0  0  0  0  0
   27.4467   10.1673   28.0229 H   0  0  0  0  0  0  0  0  0  0  0  0
   29.8919   10.0073   28.1790 H   0  0  0  0  0  0  0  0  0  0  0  0
   28.4962    9.9501   22.4694 H   0  0  0  0  0  0  0  0  0  0  0  0
   27.3855    8.5640   19.9351 H   0  0  0  0  0  0  0  0  0  0  0  0
   33.7488   13.3290   23.8125 H   0  0  0  0  0  0  0  0  0  0  0  0
   35.5154   11.1379   27.0686 H   0  0  0  0  0  0  0  0  0  0  0  0
  1  5  2  0
  2  3  2  0
  3  4  1  0
  4  6  2  0
  5  6  1  0
  5 10  1  0
  6  7  1  0
  7  8  2  0
  8  9  1  0
  9 10  2  0
  4 11  1  0
 11 12  1  0
 12 17  2  0
 12 15  1  0
 16 13  2  0
 13 14  1  0
 14 15  2  0
 16 17  1  0
 16 21  1  0
 17 18  1  0
 18 19  2  0
 19 20  1  0
 20 21  2  0
  3 22  1  0
  2 23  1  0
 23 24  1  0
 23 25  2  0
 15 26  1  0
 14 27  1  0
  1  2  1  0
 27 28  1  0
 27 29  2  0
  1 30  1  0
  7 31  1  0
  8 32  1  0
  9 33  1  0
 10 34  1  0
 11 35  1  0
 11 36  1  0
 13 37  1  0
 18 38  1  0
 19 39  1  0
 20 40  1  0
 21 41  1  0
 22 42  1  0
 24 43  1  0
 26 44  1  0
 28 45  1  0
M  END
> <Uni-Dock RESULT> 
ENERGY=   -4.117  LOWER_BOUND=   10.149  UPPER_BOUND=   13.752
INTER + INTRA:          -4.117
INTER:                  -4.117
INTRA:                   0.000
UNBOUND:                 0.000

$$$$

     RDKit          3D

 45 48  0  0  0  0  0  0  0  0999 V2000
   27.0740    2.2379   32.0587 C   0  0  0  0  0  0  0  0  0  0  0  0
   26.9584    3.5220   31.5223 C   0  0  0  0  0  0  0  0  0  0  0  0
   27.9905    4.0280   30.7017 C   0  0  0  0  0  0  0  0  0  0  0  0
   29.1099    3.2241   30.3680 C   0  0  0  0  0  0  0  0  0  0  0  0
   28.1619    1.4211   31.7446 C   0  0  0  0  0  0  0  0  0  0  0  0
   29.1877    1.8897   30.8788 C   0  0  0  0  0  0  0  0  0  0  0  0
   30.2450    0.9969   30.5680 C   0  0  0  0  0  0  0  0  0  0  0  0
   30.2837   -0.2896   31.1102 C   0  0  0  0  0  0  0  0  0  0  0  0
   29.2769   -0.7239   31.9660 C   0  0  0  0  0  0  0  0  0  0  0  0
   28.2192    0.1238   32.2812 C   0  0  0  0  0  0  0  0  0  0  0  0
   30.1836    3.8497   29.4773 C   0  0  0  0  0  0  0  0  0  0  0  0
   30.9290    4.9790   30.1901 C   0  0  0  0  0  0  0  0  0  0  0  0
   32.3514    6.9509   31.6269 C   0  0  0  0  0  0  0  0  0  0  0  0
   32.4224    5.6186   32.0370 C   0  0  0  0  0  0  0  0  0  0  0  0
   31.7514    4.6251   31.2892 C   0  0  0  0  0  0  0  0  0  0  0  0
   31.5926    7.3240   30.5158 C   0  0  0  0  0  0  0  0  0  0  0  0
   30.8616    6.3491   29.7827 C   0  0  0  0  0  0  0  0  0  0  0  0
   30.1031    6.7951   28.6701 C   0  0  0  0  0  0  0  0  0  0  0  0
   30.0747    8.1450   28.3129 C   0  0  0  0  0  0  0  0  0  0  0  0
   30.7955    9.0827   29.0443 C   0  0  0  0  0  0  0  0  0  0  0  0
   31.5506    8.6774   30.1409 C   0  0  0  0  0  0  0  0  0  0  0  0
   27.9453    5.3421   30.2263 O   0  0  0  0  0  0  0  0  0  0  0  0
   25.7268    4.2914   31.8057 C   0  0  0  0  0  0  0  0  0  0  0  0
   25.1245    5.0535   30.8086 O   0  0  0  0  0  0  0  0  0  0  0  0
   25.1827    4.2155   32.9405 O   0  0  0  0  0  0  0  0  0  0  0  0
   31.9140    3.2698   31.5919 O   0  0  0  0  0  0  0  0  0  0  0  0
   33.1797    5.3107   33.2707 C   0  0  0  0  0  0  0  0  0  0  0  0
   34.3185    6.0467   33.5876 O   0  0  0  0  0  0  0  0  0  0  0  0
   32.7731    4.4257   34.0706 O   0  0  0  0  0  0  0  0  0  0  0  0
   26.2854    1.8545   32.6977 H   0  0  0  0  0  0  0  0  0  0  0  0
   31.0615    1.2534   29.9172 H   0  0  0  0  0  0  0  0  0  0  0  0
   31.1022   -0.9542   30.8645 H   0  0  0  0  0  0  0  0  0  0  0  0
   29.3138   -1.7223   32.3824 H   0  0  0  0  0  0  0  0  0  0  0  0
   27.4406   -0.2371   32.9432 H   0  0  0  0  0  0  0  0  0  0  0  0
   30.9386    3.1387   29.1088 H   0  0  0  0  0  0  0  0  0  0  0  0
   29.6918    4.1521   28.5404 H   0  0  0  0  0  0  0  0  0  0  0  0
   32.8757    7.7124   32.1946 H   0  0  0  0  0  0  0  0  0  0  0  0
   29.5125    6.1385   28.0570 H   0  0  0  0  0  0  0  0  0  0  0  0
   29.4870    8.4655   27.4619 H   0  0  0  0  0  0  0  0  0  0  0  0
   30.7681   10.1272   28.7616 H   0  0  0  0  0  0  0  0  0  0  0  0
   32.1036    9.4244   30.6984 H   0  0  0  0  0  0  0  0  0  0  0  0
   27.2990    6.0408   30.5663 H   0  0  0  0  0  0  0  0  0  0  0  0
   24.2703    5.5670   30.9907 H   0  0  0  0  0  0  0  0  0  0  0  0
   32.6173    2.9143   32.2249 H   0  0  0  0  0  0  0  0  0  0  0  0
   34.8357    5.8639   34.4392 H   0  0  0  0  0  0  0  0  0  0  0  0
  1  5  2  0
  2  3  2  0
  3  4  1  0
  4  6  2  0
  5  6  1  0
  5 10  1  0
  6  7  1  0
  7  8  2  0
  8  9  1  0
  9 10  2  0
  4 11  1  0
 11 12  1  0
 12 17  2  0
 12 15  1  0
 16 13  2  0
 13 14  1  0
 14 15  2  0
 16 17  1  0
 16 21  1  0
 17 18  1  0
 18 19  2  0
 19 20  1  0
 20 21  2  0
  3 22  1  0
  2 23  1  0
 23 24  1  0
 23 25  2  0
 15 26  1  0
 14 27  1  0
  1  2  1  0
 27 28  1  0
 27 29  2  0
  1 30  1  0
  7 31  1  0
  8 32  1  0
  9 33  1  0
 10 34  1  0
 11 35  1  0
 11 36  1  0
 13 37  1  0
 18 38  1  0
 19 39  1  0
 20 40  1  0
 21 41  1  0
 22 42  1  0
 24 43  1  0
 26 44  1  0
 28 45  1  0
M  END
> <Uni-Dock RESULT> 
ENERGY=   -4.077  LOWER_BOUND=    3.711  UPPER_BOUND=    6.478
INTER + INTRA:          -4.077
INTER:                  -4.077
INTRA:                   0.000
UNBOUND:                 0.000

$$$$

     RDKit          3D

 45 48  0  0  0  0  0  0  0  0999 V2000
   24.9332   13.9120   21.3761 C   0  0  0  0  0  0  0  0  0  0  0  0
   25.3378   12.9222   20.4780 C   0  0  0  0  0  0  0  0  0  0  0  0
   26.5017   12.1703   20.7505 C   0  0  0  0  0  0  0  0  0  0  0  0
   27.2260   12.3676   21.9535 C   0  0  0  0  0  0  0  0  0  0  0  0
   25.6230   14.1265   22.5708 C   0  0  0  0  0  0  0  0  0  0  0  0
   26.7676   13.3462   22.8914 C   0  0  0  0  0  0  0  0  0  0  0  0
   27.3995   13.5867   24.1382 C   0  0  0  0  0  0  0  0  0  0  0  0
   26.9230   14.5690   25.0092 C   0  0  0  0  0  0  0  0  0  0  0  0
   25.8096   15.3306   24.6705 C   0  0  0  0  0  0  0  0  0  0  0  0
   25.1596   15.1111   23.4598 C   0  0  0  0  0  0  0  0  0  0  0  0
   28.4764   11.5144   22.1688 C   0  0  0  0  0  0  0  0  0  0  0  0
   29.5882   11.8728   21.1818 C   0  0  0  0  0  0  0  0  0  0  0  0
   31.6372   12.6948   19.4206 C   0  0  0  0  0  0  0  0  0  0  0  0
   31.1753   13.5799   20.3962 C   0  0  0  0  0  0  0  0  0  0  0  0
   30.1855   13.1521   21.3092 C   0  0  0  0  0  0  0  0  0  0  0  0
   31.1062   11.4088   19.3042 C   0  0  0  0  0  0  0  0  0  0  0  0
   30.0682   10.9767   20.1747 C   0  0  0  0  0  0  0  0  0  0  0  0
   29.5659    9.6620   19.9976 C   0  0  0  0  0  0  0  0  0  0  0  0
   30.0728    8.8260   19.0001 C   0  0  0  0  0  0  0  0  0  0  0  0
   31.0871    9.2687   18.1580 C   0  0  0  0  0  0  0  0  0  0  0  0
   31.6024   10.5530   18.3064 C   0  0  0  0  0  0  0  0  0  0  0  0
   26.9816   11.2372   19.8264 O   0  0  0  0  0  0  0  0  0  0  0  0
   24.4978   12.6721   19.2860 C   0  0  0  0  0  0  0  0  0  0  0  0
   24.2601   11.3718   18.8493 O   0  0  0  0  0  0  0  0  0  0  0  0
   23.9444   13.6358   18.6908 O   0  0  0  0  0  0  0  0  0  0  0  0
   29.8012   13.9644   22.3804 O   0  0  0  0  0  0  0  0  0  0  0  0
   31.7279   14.9528   20.4064 C   0  0  0  0  0  0  0  0  0  0  0  0
   33.0568   15.1685   20.0510 O   0  0  0  0  0  0  0  0  0  0  0  0
   30.9926   15.9397   20.6784 O   0  0  0  0  0  0  0  0  0  0  0  0
   24.0448   14.4964   21.1602 H   0  0  0  0  0  0  0  0  0  0  0  0
   28.2644   13.0442   24.4753 H   0  0  0  0  0  0  0  0  0  0  0  0
   27.4228   14.7405   25.9541 H   0  0  0  0  0  0  0  0  0  0  0  0
   25.4462   16.0903   25.3507 H   0  0  0  0  0  0  0  0  0  0  0  0
   24.2887   15.7097   23.2188 H   0  0  0  0  0  0  0  0  0  0  0  0
   28.9019   11.5803   23.1817 H   0  0  0  0  0  0  0  0  0  0  0  0
   28.1602   10.4610   22.1322 H   0  0  0  0  0  0  0  0  0  0  0  0
   32.4053   13.0195   18.7266 H   0  0  0  0  0  0  0  0  0  0  0  0
   28.7787    9.2448   20.5992 H   0  0  0  0  0  0  0  0  0  0  0  0
   29.6736    7.8269   18.8793 H   0  0  0  0  0  0  0  0  0  0  0  0
   31.4745    8.6152   17.3869 H   0  0  0  0  0  0  0  0  0  0  0  0
   32.3914   10.8790   17.6386 H   0  0  0  0  0  0  0  0  0  0  0  0
   26.6519   11.1693   18.8734 H   0  0  0  0  0  0  0  0  0  0  0  0
   23.6701   11.1927   18.0455 H   0  0  0  0  0  0  0  0  0  0  0  0
   30.2974   14.7990   22.6610 H   0  0  0  0  0  0  0  0  0  0  0  0
   33.4446   16.1041   20.0311 H   0  0  0  0  0  0  0  0  0  0  0  0
  1  5  2  0
  2  3  2  0
  3  4  1  0
  4  6  2  0
  5  6  1  0
  5 10  1  0
  6  7  1  0
  7  8  2  0
  8  9  1  0
  9 10  2  0
  4 11  1  0
 11 12  1  0
 12 17  2  0
 12 15  1  0
 16 13  2  0
 13 14  1  0
 14 15  2  0
 16 17  1  0
 16 21  1  0
 17 18  1  0
 18 19  2  0
 19 20  1  0
 20 21  2  0
  3 22  1  0
  2 23  1  0
 23 24  1  0
 23 25  2  0
 15 26  1  0
 14 27  1  0
  1  2  1  0
 27 28  1  0
 27 29  2  0
  1 30  1  0
  7 31  1  0
  8 32  1  0
  9 33  1  0
 10 34  1  0
 11 35  1  0
 11 36  1  0
 13 37  1  0
 18 38  1  0
 19 39  1  0
 20 40  1  0
 21 41  1  0
 22 42  1  0
 24 43  1  0
 26 44  1  0
 28 45  1  0
M  END
> <Uni-Dock RESULT> 
ENERGY=   -4.046  LOWER_BOUND=   13.116  UPPER_BOUND=   15.677
INTER + INTRA:          -4.046
INTER:                  -4.046
INTRA:                   0.000
UNBOUND:                 0.000

$$$$
