
     RDKit          3D

 45 48  0  0  0  0  0  0  0  0999 V2000
   22.7126    4.7959   30.2323 C   0  0  0  0  0  0  0  0  0  0  0  0
   23.7258    5.2412   31.0881 C   0  0  0  0  0  0  0  0  0  0  0  0
   23.6165    6.5139   31.6943 C   0  0  0  0  0  0  0  0  0  0  0  0
   22.5347    7.3708   31.3707 C   0  0  0  0  0  0  0  0  0  0  0  0
   21.6092    5.6019   29.9425 C   0  0  0  0  0  0  0  0  0  0  0  0
   21.5052    6.8982   30.5082 C   0  0  0  0  0  0  0  0  0  0  0  0
   20.3627    7.6725   30.2012 C   0  0  0  0  0  0  0  0  0  0  0  0
   19.3752    7.1828   29.3440 C   0  0  0  0  0  0  0  0  0  0  0  0
   19.4986    5.9141   28.7825 C   0  0  0  0  0  0  0  0  0  0  0  0
   20.6077    5.1241   29.0806 C   0  0  0  0  0  0  0  0  0  0  0  0
   22.4868    8.7745   31.9696 C   0  0  0  0  0  0  0  0  0  0  0  0
   22.6386    9.8697   30.9110 C   0  0  0  0  0  0  0  0  0  0  0  0
   22.9121   11.7246   28.8006 C   0  0  0  0  0  0  0  0  0  0  0  0
   23.8372   10.6850   28.9256 C   0  0  0  0  0  0  0  0  0  0  0  0
   23.7367    9.7940   30.0165 C   0  0  0  0  0  0  0  0  0  0  0  0
   21.8909   11.8954   29.7373 C   0  0  0  0  0  0  0  0  0  0  0  0
   21.7491   10.9846   30.8188 C   0  0  0  0  0  0  0  0  0  0  0  0
   20.7328   11.2446   31.7721 C   0  0  0  0  0  0  0  0  0  0  0  0
   19.8662   12.3294   31.6203 C   0  0  0  0  0  0  0  0  0  0  0  0
   19.9957   13.1873   30.5327 C   0  0  0  0  0  0  0  0  0  0  0  0
   21.0059   12.9775   29.5978 C   0  0  0  0  0  0  0  0  0  0  0  0
   24.5546    6.9404   32.6410 O   0  0  0  0  0  0  0  0  0  0  0  0
   24.9068    4.3728   31.2877 C   0  0  0  0  0  0  0  0  0  0  0  0
   26.1840    4.9223   31.3573 O   0  0  0  0  0  0  0  0  0  0  0  0
   24.7680    3.1208   31.3396 O   0  0  0  0  0  0  0  0  0  0  0  0
   24.7377    8.8481   30.2593 O   0  0  0  0  0  0  0  0  0  0  0  0
   24.8678   10.5289   27.8753 C   0  0  0  0  0  0  0  0  0  0  0  0
   25.2565    9.2615   27.4504 O   0  0  0  0  0  0  0  0  0  0  0  0
   25.3624   11.5467   27.3191 O   0  0  0  0  0  0  0  0  0  0  0  0
   22.7948    3.8179   29.7698 H   0  0  0  0  0  0  0  0  0  0  0  0
   20.2075    8.6523   30.6235 H   0  0  0  0  0  0  0  0  0  0  0  0
   18.5078    7.7896   29.1177 H   0  0  0  0  0  0  0  0  0  0  0  0
   18.7300    5.5394   28.1189 H   0  0  0  0  0  0  0  0  0  0  0  0
   20.6823    4.1375   28.6384 H   0  0  0  0  0  0  0  0  0  0  0  0
   23.2781    8.9374   32.7293 H   0  0  0  0  0  0  0  0  0  0  0  0
   21.5424    8.8213   32.5348 H   0  0  0  0  0  0  0  0  0  0  0  0
   22.9887   12.4098   27.9628 H   0  0  0  0  0  0  0  0  0  0  0  0
   20.5967   10.6523   32.6604 H   0  0  0  0  0  0  0  0  0  0  0  0
   19.0937   12.5099   32.3571 H   0  0  0  0  0  0  0  0  0  0  0  0
   19.3205   14.0261   30.4216 H   0  0  0  0  0  0  0  0  0  0  0  0
   21.1010   13.6678   28.7676 H   0  0  0  0  0  0  0  0  0  0  0  0
   25.2418    6.3305   33.0625 H   0  0  0  0  0  0  0  0  0  0  0  0
   26.9988    4.3318   31.4741 H   0  0  0  0  0  0  0  0  0  0  0  0
   25.6348    8.8495   29.7935 H   0  0  0  0  0  0  0  0  0  0  0  0
   25.9479    9.1472   26.7188 H   0  0  0  0  0  0  0  0  0  0  0  0
  1  5  2  0
  2  3  2  0
  3  4  1  0
  4  6  2  0
  5  6  1  0
  5 10  1  0
  6  7  1  0
  7  8  2  0
  8  9  1  0
  9 10  2  0
  4 11  1  0
 11 12  1  0
 12 17  2  0
 12 15  1  0
 16 13  2  0
 13 14  1  0
 14 15  2  0
 16 17  1  0
 16 21  1  0
 17 18  1  0
 18 19  2  0
 19 20  1  0
 20 21  2  0
  3 22  1  0
  2 23  1  0
 23 24  1  0
 23 25  2  0
 15 26  1  0
 14 27  1  0
  1  2  1  0
 27 28  1  0
 27 29  2  0
  1 30  1  0
  7 31  1  0
  8 32  1  0
  9 33  1  0
 10 34  1  0
 11 35  1  0
 11 36  1  0
 13 37  1  0
 18 38  1  0
 19 39  1  0
 20 40  1  0
 21 41  1  0
 22 42  1  0
 24 43  1  0
 26 44  1  0
 28 45  1  0
M  END
> <Uni-Dock RESULT> 
ENERGY=   -4.584  LOWER_BOUND=    0.000  UPPER_BOUND=    0.000
INTER + INTRA:          -4.584
INTER:                  -4.584
INTRA:                   0.000
UNBOUND:                 0.000

$$$$

     RDKit          3D

 45 48  0  0  0  0  0  0  0  0999 V2000
   29.8183    6.4771   29.8830 C   0  0  0  0  0  0  0  0  0  0  0  0
   29.5177    6.9291   31.1725 C   0  0  0  0  0  0  0  0  0  0  0  0
   29.0060    6.0207   32.1276 C   0  0  0  0  0  0  0  0  0  0  0  0
   28.7151    4.6831   31.7597 C   0  0  0  0  0  0  0  0  0  0  0  0
   29.5915    5.1490   29.5146 C   0  0  0  0  0  0  0  0  0  0  0  0
   29.0385    4.2351   30.4475 C   0  0  0  0  0  0  0  0  0  0  0  0
   28.8422    2.8965   30.0368 C   0  0  0  0  0  0  0  0  0  0  0  0
   29.1615    2.4916   28.7392 C   0  0  0  0  0  0  0  0  0  0  0  0
   29.6886    3.4041   27.8284 C   0  0  0  0  0  0  0  0  0  0  0  0
   29.9062    4.7264   28.2122 C   0  0  0  0  0  0  0  0  0  0  0  0
   28.0795    3.7464   32.7844 C   0  0  0  0  0  0  0  0  0  0  0  0
   26.6597    3.3274   32.3953 C   0  0  0  0  0  0  0  0  0  0  0  0
   24.0730    2.6642   31.4796 C   0  0  0  0  0  0  0  0  0  0  0  0
   24.4540    4.0066   31.5487 C   0  0  0  0  0  0  0  0  0  0  0  0
   25.7250    4.3417   32.0649 C   0  0  0  0  0  0  0  0  0  0  0  0
   24.9293    1.6501   31.9129 C   0  0  0  0  0  0  0  0  0  0  0  0
   26.2278    1.9650   32.3970 C   0  0  0  0  0  0  0  0  0  0  0  0
   27.0283    0.8999   32.8808 C   0  0  0  0  0  0  0  0  0  0  0  0
   26.5744   -0.4200   32.8306 C   0  0  0  0  0  0  0  0  0  0  0  0
   25.3154   -0.7126   32.3158 C   0  0  0  0  0  0  0  0  0  0  0  0
   24.4924    0.3157   31.8644 C   0  0  0  0  0  0  0  0  0  0  0  0
   28.8026    6.4144   33.4548 O   0  0  0  0  0  0  0  0  0  0  0  0
   29.7038    8.3658   31.4728 C   0  0  0  0  0  0  0  0  0  0  0  0
   28.7786    9.0490   32.2573 O   0  0  0  0  0  0  0  0  0  0  0  0
   30.6748    8.9947   30.9717 O   0  0  0  0  0  0  0  0  0  0  0  0
   26.0706    5.6764   32.2987 O   0  0  0  0  0  0  0  0  0  0  0  0
   23.5207    5.0315   31.0309 C   0  0  0  0  0  0  0  0  0  0  0  0
   24.0020    6.1402   30.3401 O   0  0  0  0  0  0  0  0  0  0  0  0
   22.2763    4.8786   31.1654 O   0  0  0  0  0  0  0  0  0  0  0  0
   30.2141    7.1734   29.1511 H   0  0  0  0  0  0  0  0  0  0  0  0
   28.4559    2.1453   30.7068 H   0  0  0  0  0  0  0  0  0  0  0  0
   29.0029    1.4633   28.4404 H   0  0  0  0  0  0  0  0  0  0  0  0
   29.9346    3.0847   26.8239 H   0  0  0  0  0  0  0  0  0  0  0  0
   30.3227    5.4196   27.4906 H   0  0  0  0  0  0  0  0  0  0  0  0
   28.0250    4.1998   33.7950 H   0  0  0  0  0  0  0  0  0  0  0  0
   28.7842    2.9065   32.8922 H   0  0  0  0  0  0  0  0  0  0  0  0
   23.0965    2.4059   31.0834 H   0  0  0  0  0  0  0  0  0  0  0  0
   27.9941    1.0503   33.3313 H   0  0  0  0  0  0  0  0  0  0  0  0
   27.2016   -1.2206   33.2017 H   0  0  0  0  0  0  0  0  0  0  0  0
   24.9701   -1.7379   32.2802 H   0  0  0  0  0  0  0  0  0  0  0  0
   23.5081    0.0684   31.4839 H   0  0  0  0  0  0  0  0  0  0  0  0
   29.1522    7.2804   33.8419 H   0  0  0  0  0  0  0  0  0  0  0  0
   28.8895   10.0372   32.4505 H   0  0  0  0  0  0  0  0  0  0  0  0
   25.4081    6.4395   32.2730 H   0  0  0  0  0  0  0  0  0  0  0  0
   23.3677    6.8363   29.9666 H   0  0  0  0  0  0  0  0  0  0  0  0
  1  5  2  0
  2  3  2  0
  3  4  1  0
  4  6  2  0
  5  6  1  0
  5 10  1  0
  6  7  1  0
  7  8  2  0
  8  9  1  0
  9 10  2  0
  4 11  1  0
 11 12  1  0
 12 17  2  0
 12 15  1  0
 16 13  2  0
 13 14  1  0
 14 15  2  0
 16 17  1  0
 16 21  1  0
 17 18  1  0
 18 19  2  0
 19 20  1  0
 20 21  2  0
  3 22  1  0
  2 23  1  0
 23 24  1  0
 23 25  2  0
 15 26  1  0
 14 27  1  0
  1  2  1  0
 27 28  1  0
 27 29  2  0
  1 30  1  0
  7 31  1  0
  8 32  1  0
  9 33  1  0
 10 34  1  0
 11 35  1  0
 11 36  1  0
 13 37  1  0
 18 38  1  0
 19 39  1  0
 20 40  1  0
 21 41  1  0
 22 42  1  0
 24 43  1  0
 26 44  1  0
 28 45  1  0
M  END
> <Uni-Dock RESULT> 
ENERGY=   -4.454  LOWER_BOUND=    5.015  UPPER_BOUND=    8.874
INTER + INTRA:          -4.454
INTER:                  -4.454
INTRA:                   0.000
UNBOUND:                 0.000

$$$$

     RDKit          3D

 45 48  0  0  0  0  0  0  0  0999 V2000
   23.1075    4.5755   30.2669 C   0  0  0  0  0  0  0  0  0  0  0  0
   24.0721    5.0847   31.1431 C   0  0  0  0  0  0  0  0  0  0  0  0
   23.8581    6.3372   31.7634 C   0  0  0  0  0  0  0  0  0  0  0  0
   22.7189    7.1139   31.4345 C   0  0  0  0  0  0  0  0  0  0  0  0
   21.9503    5.2994   29.9708 C   0  0  0  0  0  0  0  0  0  0  0  0
   21.7403    6.5764   30.5510 C   0  0  0  0  0  0  0  0  0  0  0  0
   20.5466    7.2660   30.2368 C   0  0  0  0  0  0  0  0  0  0  0  0
   19.6111    6.7145   29.3590 C   0  0  0  0  0  0  0  0  0  0  0  0
   19.8383    5.4665   28.7837 C   0  0  0  0  0  0  0  0  0  0  0  0
   21.0000    4.7588   29.0883 C   0  0  0  0  0  0  0  0  0  0  0  0
   22.5563    8.5017   32.0500 C   0  0  0  0  0  0  0  0  0  0  0  0
   22.6391    9.6195   31.0075 C   0  0  0  0  0  0  0  0  0  0  0  0
   22.8001   11.5181   28.9245 C   0  0  0  0  0  0  0  0  0  0  0  0
   23.7996   10.5500   29.0503 C   0  0  0  0  0  0  0  0  0  0  0  0
   23.7520    9.6393   30.1285 C   0  0  0  0  0  0  0  0  0  0  0  0
   21.7560   11.5984   29.8481 C   0  0  0  0  0  0  0  0  0  0  0  0
   21.6688   10.6649   30.9160 C   0  0  0  0  0  0  0  0  0  0  0  0
   20.6226   10.8343   31.8573 C   0  0  0  0  0  0  0  0  0  0  0  0
   19.6783   11.8522   31.7061 C   0  0  0  0  0  0  0  0  0  0  0  0
   19.7573   12.7321   30.6313 C   0  0  0  0  0  0  0  0  0  0  0  0
   20.7934   12.6122   29.7089 C   0  0  0  0  0  0  0  0  0  0  0  0
   24.7479    6.8206   32.7291 O   0  0  0  0  0  0  0  0  0  0  0  0
   25.3128    4.3056   31.3494 C   0  0  0  0  0  0  0  0  0  0  0  0
   26.5434    4.9493   31.4447 O   0  0  0  0  0  0  0  0  0  0  0  0
   25.2688    3.0461   31.3837 O   0  0  0  0  0  0  0  0  0  0  0  0
   24.8185    8.7687   30.3743 O   0  0  0  0  0  0  0  0  0  0  0  0
   24.8536   10.4867   28.0136 C   0  0  0  0  0  0  0  0  0  0  0  0
   25.3433    9.2582   27.5787 O   0  0  0  0  0  0  0  0  0  0  0  0
   25.2771   11.5464   27.4774 O   0  0  0  0  0  0  0  0  0  0  0  0
   23.2702    3.6129   29.7936 H   0  0  0  0  0  0  0  0  0  0  0  0
   20.3117    8.2254   30.6688 H   0  0  0  0  0  0  0  0  0  0  0  0
   18.7034    7.2568   29.1274 H   0  0  0  0  0  0  0  0  0  0  0  0
   19.1096    5.0436   28.1041 H   0  0  0  0  0  0  0  0  0  0  0  0
   21.1554    3.7867   28.6350 H   0  0  0  0  0  0  0  0  0  0  0  0
   23.3223    8.7138   32.8233 H   0  0  0  0  0  0  0  0  0  0  0  0
   21.6033    8.4692   32.6017 H   0  0  0  0  0  0  0  0  0  0  0  0
   22.8361   12.2184   28.0966 H   0  0  0  0  0  0  0  0  0  0  0  0
   20.5197   10.2214   32.7360 H   0  0  0  0  0  0  0  0  0  0  0  0
   18.8842   11.9637   32.4336 H   0  0  0  0  0  0  0  0  0  0  0  0
   19.0220   13.5188   30.5206 H   0  0  0  0  0  0  0  0  0  0  0  0
   20.8473   13.3188   28.8889 H   0  0  0  0  0  0  0  0  0  0  0  0
   25.4735    6.2589   33.1532 H   0  0  0  0  0  0  0  0  0  0  0  0
   27.3990    4.4207   31.5662 H   0  0  0  0  0  0  0  0  0  0  0  0
   25.7193    8.8444   29.9219 H   0  0  0  0  0  0  0  0  0  0  0  0
   26.0513    9.2065   26.8561 H   0  0  0  0  0  0  0  0  0  0  0  0
  1  5  2  0
  2  3  2  0
  3  4  1  0
  4  6  2  0
  5  6  1  0
  5 10  1  0
  6  7  1  0
  7  8  2  0
  8  9  1  0
  9 10  2  0
  4 11  1  0
 11 12  1  0
 12 17  2  0
 12 15  1  0
 16 13  2  0
 13 14  1  0
 14 15  2  0
 16 17  1  0
 16 21  1  0
 17 18  1  0
 18 19  2  0
 19 20  1  0
 20 21  2  0
  3 22  1  0
  2 23  1  0
 23 24  1  0
 23 25  2  0
 15 26  1  0
 14 27  1  0
  1  2  1  0
 27 28  1  0
 27 29  2  0
  1 30  1  0
  7 31  1  0
  8 32  1  0
  9 33  1  0
 10 34  1  0
 11 35  1  0
 11 36  1  0
 13 37  1  0
 18 38  1  0
 19 39  1  0
 20 40  1  0
 21 41  1  0
 22 42  1  0
 24 43  1  0
 26 44  1  0
 28 45  1  0
M  END
> <Uni-Dock RESULT> 
ENERGY=   -4.259  LOWER_BOUND=    0.380  UPPER_BOUND=    0.380
INTER + INTRA:          -4.259
INTER:                  -4.259
INTRA:                   0.000
UNBOUND:                 0.000

$$$$

     RDKit          3D

 45 48  0  0  0  0  0  0  0  0999 V2000
   26.2860   12.2884   20.7778 C   0  0  0  0  0  0  0  0  0  0  0  0
   26.0919   13.4589   21.5193 C   0  0  0  0  0  0  0  0  0  0  0  0
   27.1540   13.9751   22.2969 C   0  0  0  0  0  0  0  0  0  0  0  0
   28.3780   13.2674   22.3972 C   0  0  0  0  0  0  0  0  0  0  0  0
   27.5031   11.6042   20.8182 C   0  0  0  0  0  0  0  0  0  0  0  0
   28.5645   12.0848   21.6267 C   0  0  0  0  0  0  0  0  0  0  0  0
   29.7845   11.3702   21.6235 C   0  0  0  0  0  0  0  0  0  0  0  0
   29.9316   10.2082   20.8633 C   0  0  0  0  0  0  0  0  0  0  0  0
   28.8751    9.7387   20.0865 C   0  0  0  0  0  0  0  0  0  0  0  0
   27.6664   10.4327   20.0600 C   0  0  0  0  0  0  0  0  0  0  0  0
   29.4770   13.7993   23.3142 C   0  0  0  0  0  0  0  0  0  0  0  0
   29.7548   12.8695   24.4979 C   0  0  0  0  0  0  0  0  0  0  0  0
   30.1209   11.0063   26.5869 C   0  0  0  0  0  0  0  0  0  0  0  0
   28.8354   11.4720   26.2994 C   0  0  0  0  0  0  0  0  0  0  0  0
   28.6599   12.4501   25.2961 C   0  0  0  0  0  0  0  0  0  0  0  0
   31.2334   11.4932   25.8978 C   0  0  0  0  0  0  0  0  0  0  0  0
   31.0721   12.4472   24.8570 C   0  0  0  0  0  0  0  0  0  0  0  0
   32.2425   12.9509   24.2358 C   0  0  0  0  0  0  0  0  0  0  0  0
   33.5070   12.4820   24.5991 C   0  0  0  0  0  0  0  0  0  0  0  0
   33.6417   11.5179   25.5931 C   0  0  0  0  0  0  0  0  0  0  0  0
   32.5130   11.0288   26.2452 C   0  0  0  0  0  0  0  0  0  0  0  0
   27.0282   15.2019   22.9582 O   0  0  0  0  0  0  0  0  0  0  0  0
   24.7534   14.0886   21.4974 C   0  0  0  0  0  0  0  0  0  0  0  0
   24.2075   14.6279   22.6590 O   0  0  0  0  0  0  0  0  0  0  0  0
   24.0738   14.0901   20.4355 O   0  0  0  0  0  0  0  0  0  0  0  0
   27.4137   13.0531   25.0982 O   0  0  0  0  0  0  0  0  0  0  0  0
   27.6925   10.8833   27.0320 C   0  0  0  0  0  0  0  0  0  0  0  0
   26.4865   10.6394   26.3807 O   0  0  0  0  0  0  0  0  0  0  0  0
   27.8218   10.5478   28.2405 O   0  0  0  0  0  0  0  0  0  0  0  0
   25.4722   11.8941   20.1783 H   0  0  0  0  0  0  0  0  0  0  0  0
   30.6400   11.6999   22.1908 H   0  0  0  0  0  0  0  0  0  0  0  0
   30.8718    9.6719   20.8739 H   0  0  0  0  0  0  0  0  0  0  0  0
   28.9947    8.8376   19.4989 H   0  0  0  0  0  0  0  0  0  0  0  0
   26.8585   10.0543   19.4446 H   0  0  0  0  0  0  0  0  0  0  0  0
   29.2348   14.7989   23.7289 H   0  0  0  0  0  0  0  0  0  0  0  0
   30.3477   13.9707   22.6613 H   0  0  0  0  0  0  0  0  0  0  0  0
   30.2568   10.2550   27.3578 H   0  0  0  0  0  0  0  0  0  0  0  0
   32.2228   13.7265   23.4900 H   0  0  0  0  0  0  0  0  0  0  0  0
   34.3892   12.8762   24.1109 H   0  0  0  0  0  0  0  0  0  0  0  0
   34.6250   11.1593   25.8695 H   0  0  0  0  0  0  0  0  0  0  0  0
   32.6410   10.2914   27.0292 H   0  0  0  0  0  0  0  0  0  0  0  0
   26.2719   15.8520   22.7933 H   0  0  0  0  0  0  0  0  0  0  0  0
   23.2834   15.0429   22.6555 H   0  0  0  0  0  0  0  0  0  0  0  0
   26.6364   12.9559   25.7371 H   0  0  0  0  0  0  0  0  0  0  0  0
   25.7059   10.2194   26.8711 H   0  0  0  0  0  0  0  0  0  0  0  0
  1  5  2  0
  2  3  2  0
  3  4  1  0
  4  6  2  0
  5  6  1  0
  5 10  1  0
  6  7  1  0
  7  8  2  0
  8  9  1  0
  9 10  2  0
  4 11  1  0
 11 12  1  0
 12 17  2  0
 12 15  1  0
 16 13  2  0
 13 14  1  0
 14 15  2  0
 16 17  1  0
 16 21  1  0
 17 18  1  0
 18 19  2  0
 19 20  1  0
 20 21  2  0
  3 22  1  0
  2 23  1  0
 23 24  1  0
 23 25  2  0
 15 26  1  0
 14 27  1  0
  1  2  1  0
 27 28  1  0
 27 29  2  0
  1 30  1  0
  7 31  1  0
  8 32  1  0
  9 33  1  0
 10 34  1  0
 11 35  1  0
 11 36  1  0
 13 37  1  0
 18 38  1  0
 19 39  1  0
 20 40  1  0
 21 41  1  0
 22 42  1  0
 24 43  1  0
 26 44  1  0
 28 45  1  0
M  END
> <Uni-Dock RESULT> 
ENERGY=   -4.065  LOWER_BOUND=    7.301  UPPER_BOUND=   11.593
INTER + INTRA:          -4.065
INTER:                  -4.065
INTRA:                   0.000
UNBOUND:                 0.000

$$$$

     RDKit          3D

 45 48  0  0  0  0  0  0  0  0999 V2000
   25.9513   13.2241   21.7178 C   0  0  0  0  0  0  0  0  0  0  0  0
   25.7764   14.2055   22.6995 C   0  0  0  0  0  0  0  0  0  0  0  0
   26.7959   14.4254   23.6543 C   0  0  0  0  0  0  0  0  0  0  0  0
   27.9483   13.6003   23.6743 C   0  0  0  0  0  0  0  0  0  0  0  0
   27.1043   12.4363   21.6848 C   0  0  0  0  0  0  0  0  0  0  0  0
   28.1176   12.6146   22.6610 C   0  0  0  0  0  0  0  0  0  0  0  0
   29.2752   11.8071   22.5788 C   0  0  0  0  0  0  0  0  0  0  0  0
   29.4059   10.8428   21.5775 C   0  0  0  0  0  0  0  0  0  0  0  0
   28.3954   10.6674   20.6351 C   0  0  0  0  0  0  0  0  0  0  0  0
   27.2501   11.4607   20.6843 C   0  0  0  0  0  0  0  0  0  0  0  0
   28.9925   13.7997   24.7704 C   0  0  0  0  0  0  0  0  0  0  0  0
   29.0864   12.6003   25.7167 C   0  0  0  0  0  0  0  0  0  0  0  0
   29.1123   10.2801   27.3246 C   0  0  0  0  0  0  0  0  0  0  0  0
   27.8984   10.9197   27.0612 C   0  0  0  0  0  0  0  0  0  0  0  0
   27.8925   12.1147   26.3088 C   0  0  0  0  0  0  0  0  0  0  0  0
   30.3184   10.8044   26.8555 C   0  0  0  0  0  0  0  0  0  0  0  0
   30.3284   11.9832   26.0621 C   0  0  0  0  0  0  0  0  0  0  0  0
   31.5868   12.5027   25.6671 C   0  0  0  0  0  0  0  0  0  0  0  0
   32.7724   11.8445   26.0016 C   0  0  0  0  0  0  0  0  0  0  0  0
   32.7398   10.6692   26.7453 C   0  0  0  0  0  0  0  0  0  0  0  0
   31.5209   10.1528   27.1768 C   0  0  0  0  0  0  0  0  0  0  0  0
   26.7006   15.4732   24.5767 O   0  0  0  0  0  0  0  0  0  0  0  0
   24.4971   14.9478   22.7284 C   0  0  0  0  0  0  0  0  0  0  0  0
   23.8858   15.2547   23.9409 O   0  0  0  0  0  0  0  0  0  0  0  0
   23.9230   15.2584   21.6498 O   0  0  0  0  0  0  0  0  0  0  0  0
   26.7195   12.8628   26.1676 O   0  0  0  0  0  0  0  0  0  0  0  0
   26.6504   10.2897   27.5460 C   0  0  0  0  0  0  0  0  0  0  0  0
   25.4965   10.3183   26.7676 O   0  0  0  0  0  0  0  0  0  0  0  0
   26.6392    9.6743   28.6464 O   0  0  0  0  0  0  0  0  0  0  0  0
   25.1706   13.0577   20.9830 H   0  0  0  0  0  0  0  0  0  0  0  0
   30.0956   11.9144   23.2701 H   0  0  0  0  0  0  0  0  0  0  0  0
   30.2979   10.2314   21.5303 H   0  0  0  0  0  0  0  0  0  0  0  0
   28.5020    9.9186   19.8608 H   0  0  0  0  0  0  0  0  0  0  0  0
   26.4779   11.3129   19.9384 H   0  0  0  0  0  0  0  0  0  0  0  0
   28.7878   14.6954   25.3914 H   0  0  0  0  0  0  0  0  0  0  0  0
   29.9314   14.0332   24.2435 H   0  0  0  0  0  0  0  0  0  0  0  0
   29.1178    9.3620   27.9029 H   0  0  0  0  0  0  0  0  0  0  0  0
   31.6961   13.4274   25.1275 H   0  0  0  0  0  0  0  0  0  0  0  0
   33.7240   12.2547   25.6879 H   0  0  0  0  0  0  0  0  0  0  0  0
   33.6627   10.1646   27.0009 H   0  0  0  0  0  0  0  0  0  0  0  0
   31.5184    9.2460   27.7705 H   0  0  0  0  0  0  0  0  0  0  0  0
   26.0143   16.2128   24.5152 H   0  0  0  0  0  0  0  0  0  0  0  0
   22.9999   15.7454   23.9675 H   0  0  0  0  0  0  0  0  0  0  0  0
   25.8801   12.6956   26.7057 H   0  0  0  0  0  0  0  0  0  0  0  0
   24.6436    9.8729   27.0848 H   0  0  0  0  0  0  0  0  0  0  0  0
  1  5  2  0
  2  3  2  0
  3  4  1  0
  4  6  2  0
  5  6  1  0
  5 10  1  0
  6  7  1  0
  7  8  2  0
  8  9  1  0
  9 10  2  0
  4 11  1  0
 11 12  1  0
 12 17  2  0
 12 15  1  0
 16 13  2  0
 13 14  1  0
 14 15  2  0
 16 17  1  0
 16 21  1  0
 17 18  1  0
 18 19  2  0
 19 20  1  0
 20 21  2  0
  3 22  1  0
  2 23  1  0
 23 24  1  0
 23 25  2  0
 15 26  1  0
 14 27  1  0
  1  2  1  0
 27 28  1  0
 27 29  2  0
  1 30  1  0
  7 31  1  0
  8 32  1  0
  9 33  1  0
 10 34  1  0
 11 35  1  0
 11 36  1  0
 13 37  1  0
 18 38  1  0
 19 39  1  0
 20 40  1  0
 21 41  1  0
 22 42  1  0
 24 43  1  0
 26 44  1  0
 28 45  1  0
M  END
> <Uni-Dock RESULT> 
ENERGY=   -3.894  LOWER_BOUND=    6.198  UPPER_BOUND=   10.874
INTER + INTRA:          -3.894
INTER:                  -3.894
INTRA:                   0.000
UNBOUND:                 0.000

$$$$

     RDKit          3D

 45 48  0  0  0  0  0  0  0  0999 V2000
   26.6019   12.8251   21.8458 C   0  0  0  0  0  0  0  0  0  0  0  0
   26.5418   13.8805   22.7623 C   0  0  0  0  0  0  0  0  0  0  0  0
   27.6984   14.2338   23.4950 C   0  0  0  0  0  0  0  0  0  0  0  0
   28.8863   13.4706   23.3697 C   0  0  0  0  0  0  0  0  0  0  0  0
   27.7786   12.0944   21.6656 C   0  0  0  0  0  0  0  0  0  0  0  0
   28.9355   12.4079   22.4236 C   0  0  0  0  0  0  0  0  0  0  0  0
   30.1093   11.6533   22.1959 C   0  0  0  0  0  0  0  0  0  0  0  0
   30.1214   10.6110   21.2668 C   0  0  0  0  0  0  0  0  0  0  0  0
   28.9729   10.3036   20.5412 C   0  0  0  0  0  0  0  0  0  0  0  0
   27.8064   11.0416   20.7355 C   0  0  0  0  0  0  0  0  0  0  0  0
   30.0935   13.8173   24.2380 C   0  0  0  0  0  0  0  0  0  0  0  0
   30.4301   12.7130   25.2431 C   0  0  0  0  0  0  0  0  0  0  0  0
   30.8888   10.5494   26.9974 C   0  0  0  0  0  0  0  0  0  0  0  0
   29.6092   11.1034   26.9100 C   0  0  0  0  0  0  0  0  0  0  0  0
   29.3937   12.2248   26.0792 C   0  0  0  0  0  0  0  0  0  0  0  0
   31.9566   11.0876   26.2765 C   0  0  0  0  0  0  0  0  0  0  0  0
   31.7505   12.1901   25.4040 C   0  0  0  0  0  0  0  0  0  0  0  0
   32.8831   12.7326   24.7466 C   0  0  0  0  0  0  0  0  0  0  0  0
   34.1488   12.1652   24.9102 C   0  0  0  0  0  0  0  0  0  0  0  0
   34.3236   11.0606   25.7379 C   0  0  0  0  0  0  0  0  0  0  0  0
   33.2361   10.5263   26.4238 C   0  0  0  0  0  0  0  0  0  0  0  0
   27.7017   15.3538   24.3337 O   0  0  0  0  0  0  0  0  0  0  0  0
   25.2432   14.5596   22.9652 C   0  0  0  0  0  0  0  0  0  0  0  0
   24.8385   14.9434   24.2407 O   0  0  0  0  0  0  0  0  0  0  0  0
   24.4683   14.7446   21.9881 O   0  0  0  0  0  0  0  0  0  0  0  0
   28.1690   12.8997   26.0956 O   0  0  0  0  0  0  0  0  0  0  0  0
   28.5097   10.4594   27.6623 C   0  0  0  0  0  0  0  0  0  0  0  0
   27.2365   10.3625   27.1074 O   0  0  0  0  0  0  0  0  0  0  0  0
   28.7332    9.9447   28.7914 O   0  0  0  0  0  0  0  0  0  0  0  0
   25.7154   12.5563   21.2811 H   0  0  0  0  0  0  0  0  0  0  0  0
   31.0308   11.8614   22.7155 H   0  0  0  0  0  0  0  0  0  0  0  0
   31.0280   10.0418   21.1063 H   0  0  0  0  0  0  0  0  0  0  0  0
   28.9880    9.4948   19.8221 H   0  0  0  0  0  0  0  0  0  0  0  0
   26.9251   10.7907   20.1568 H   0  0  0  0  0  0  0  0  0  0  0  0
   29.9457   14.7538   24.8133 H   0  0  0  0  0  0  0  0  0  0  0  0
   30.9072   14.0481   23.5321 H   0  0  0  0  0  0  0  0  0  0  0  0
   31.0553    9.6879   27.6357 H   0  0  0  0  0  0  0  0  0  0  0  0
   32.8357   13.6097   24.1247 H   0  0  0  0  0  0  0  0  0  0  0  0
   35.0015   12.5914   24.3971 H   0  0  0  0  0  0  0  0  0  0  0  0
   35.3075   10.6261   25.8601 H   0  0  0  0  0  0  0  0  0  0  0  0
   33.3968    9.6770   27.0776 H   0  0  0  0  0  0  0  0  0  0  0  0
   26.9697   16.0509   24.3401 H   0  0  0  0  0  0  0  0  0  0  0  0
   23.9420   15.3910   24.3894 H   0  0  0  0  0  0  0  0  0  0  0  0
   27.4508   12.7407   26.7890 H   0  0  0  0  0  0  0  0  0  0  0  0
   26.4836    9.9064   27.6088 H   0  0  0  0  0  0  0  0  0  0  0  0
  1  5  2  0
  2  3  2  0
  3  4  1  0
  4  6  2  0
  5  6  1  0
  5 10  1  0
  6  7  1  0
  7  8  2  0
  8  9  1  0
  9 10  2  0
  4 11  1  0
 11 12  1  0
 12 17  2  0
 12 15  1  0
 16 13  2  0
 13 14  1  0
 14 15  2  0
 16 17  1  0
 16 21  1  0
 17 18  1  0
 18 19  2  0
 19 20  1  0
 20 21  2  0
  3 22  1  0
  2 23  1  0
 23 24  1  0
 23 25  2  0
 15 26  1  0
 14 27  1  0
  1  2  1  0
 27 28  1  0
 27 29  2  0
  1 30  1  0
  7 31  1  0
  8 32  1  0
  9 33  1  0
 10 34  1  0
 11 35  1  0
 11 36  1  0
 13 37  1  0
 18 38  1  0
 19 39  1  0
 20 40  1  0
 21 41  1  0
 22 42  1  0
 24 43  1  0
 26 44  1  0
 28 45  1  0
M  END
> <Uni-Dock RESULT> 
ENERGY=   -3.891  LOWER_BOUND=    7.522  UPPER_BOUND=   11.538
INTER + INTRA:          -3.891
INTER:                  -3.891
INTRA:                   0.000
UNBOUND:                 0.000

$$$$

     RDKit          3D

 45 48  0  0  0  0  0  0  0  0999 V2000
   29.2748    8.0447   32.9530 C   0  0  0  0  0  0  0  0  0  0  0  0
   27.9660    7.8381   32.5036 C   0  0  0  0  0  0  0  0  0  0  0  0
   27.4381    6.5268   32.4745 C   0  0  0  0  0  0  0  0  0  0  0  0
   28.2545    5.4185   32.8129 C   0  0  0  0  0  0  0  0  0  0  0  0
   30.0792    6.9719   33.3442 C   0  0  0  0  0  0  0  0  0  0  0  0
   29.5799    5.6461   33.2805 C   0  0  0  0  0  0  0  0  0  0  0  0
   30.4229    4.5926   33.7029 C   0  0  0  0  0  0  0  0  0  0  0  0
   31.7214    4.8492   34.1477 C   0  0  0  0  0  0  0  0  0  0  0  0
   32.2043    6.1550   34.1894 C   0  0  0  0  0  0  0  0  0  0  0  0
   31.3886    7.2135   33.7928 C   0  0  0  0  0  0  0  0  0  0  0  0
   27.6883    4.0060   32.6873 C   0  0  0  0  0  0  0  0  0  0  0  0
   28.3921    3.1858   31.6034 C   0  0  0  0  0  0  0  0  0  0  0  0
   29.8355    1.8478   29.5796 C   0  0  0  0  0  0  0  0  0  0  0  0
   29.2842    3.1038   29.3141 C   0  0  0  0  0  0  0  0  0  0  0  0
   28.5100    3.7456   30.3056 C   0  0  0  0  0  0  0  0  0  0  0  0
   29.6325    1.2183   30.8093 C   0  0  0  0  0  0  0  0  0  0  0  0
   28.8909    1.8664   31.8337 C   0  0  0  0  0  0  0  0  0  0  0  0
   28.6650    1.1528   33.0375 C   0  0  0  0  0  0  0  0  0  0  0  0
   29.2019   -0.1224   33.2281 C   0  0  0  0  0  0  0  0  0  0  0  0
   29.9594   -0.7242   32.2282 C   0  0  0  0  0  0  0  0  0  0  0  0
   30.1699   -0.0623   31.0215 C   0  0  0  0  0  0  0  0  0  0  0  0
   26.0988    6.3001   32.1388 O   0  0  0  0  0  0  0  0  0  0  0  0
   27.1962    9.0076   32.0258 C   0  0  0  0  0  0  0  0  0  0  0  0
   26.3759    8.9036   30.9058 O   0  0  0  0  0  0  0  0  0  0  0  0
   27.3228   10.1235   32.5988 O   0  0  0  0  0  0  0  0  0  0  0  0
   27.8122    4.9221   30.0149 O   0  0  0  0  0  0  0  0  0  0  0  0
   29.5740    3.7390   28.0094 C   0  0  0  0  0  0  0  0  0  0  0  0
   29.7944    5.1110   27.9255 O   0  0  0  0  0  0  0  0  0  0  0  0
   29.6768    3.0312   26.9710 O   0  0  0  0  0  0  0  0  0  0  0  0
   29.6787    9.0513   32.9786 H   0  0  0  0  0  0  0  0  0  0  0  0
   30.0932    3.5661   33.7097 H   0  0  0  0  0  0  0  0  0  0  0  0
   32.3546    4.0307   34.4655 H   0  0  0  0  0  0  0  0  0  0  0  0
   33.2116    6.3482   34.5353 H   0  0  0  0  0  0  0  0  0  0  0  0
   31.7809    8.2228   33.8384 H   0  0  0  0  0  0  0  0  0  0  0  0
   26.6047    4.0042   32.4518 H   0  0  0  0  0  0  0  0  0  0  0  0
   27.7559    3.5710   33.6973 H   0  0  0  0  0  0  0  0  0  0  0  0
   30.4302    1.3538   28.8183 H   0  0  0  0  0  0  0  0  0  0  0  0
   28.0558    1.5332   33.8390 H   0  0  0  0  0  0  0  0  0  0  0  0
   29.0216   -0.6505   34.1558 H   0  0  0  0  0  0  0  0  0  0  0  0
   30.3723   -1.7128   32.3829 H   0  0  0  0  0  0  0  0  0  0  0  0
   30.7476   -0.5559   30.2487 H   0  0  0  0  0  0  0  0  0  0  0  0
   25.4077    7.0342   32.0662 H   0  0  0  0  0  0  0  0  0  0  0  0
   25.8613    9.7054   30.5616 H   0  0  0  0  0  0  0  0  0  0  0  0
   27.6864    5.2823   29.0788 H   0  0  0  0  0  0  0  0  0  0  0  0
   30.0118    5.5499   27.0388 H   0  0  0  0  0  0  0  0  0  0  0  0
  1  5  2  0
  2  3  2  0
  3  4  1  0
  4  6  2  0
  5  6  1  0
  5 10  1  0
  6  7  1  0
  7  8  2  0
  8  9  1  0
  9 10  2  0
  4 11  1  0
 11 12  1  0
 12 17  2  0
 12 15  1  0
 16 13  2  0
 13 14  1  0
 14 15  2  0
 16 17  1  0
 16 21  1  0
 17 18  1  0
 18 19  2  0
 19 20  1  0
 20 21  2  0
  3 22  1  0
  2 23  1  0
 23 24  1  0
 23 25  2  0
 15 26  1  0
 14 27  1  0
  1  2  1  0
 27 28  1  0
 27 29  2  0
  1 30  1  0
  7 31  1  0
  8 32  1  0
  9 33  1  0
 10 34  1  0
 11 35  1  0
 11 36  1  0
 13 37  1  0
 18 38  1  0
 19 39  1  0
 20 40  1  0
 21 41  1  0
 22 42  1  0
 24 43  1  0
 26 44  1  0
 28 45  1  0
M  END
> <Uni-Dock RESULT> 
ENERGY=   -3.708  LOWER_BOUND=    5.755  UPPER_BOUND=   10.102
INTER + INTRA:          -3.708
INTER:                  -3.708
INTRA:                   0.000
UNBOUND:                 0.000

$$$$

     RDKit          3D

 45 48  0  0  0  0  0  0  0  0999 V2000
   27.1177    9.8530   28.6996 C   0  0  0  0  0  0  0  0  0  0  0  0
   26.7091   10.8365   27.7921 C   0  0  0  0  0  0  0  0  0  0  0  0
   27.6325   11.3387   26.8464 C   0  0  0  0  0  0  0  0  0  0  0  0
   28.9853   10.9162   26.8722 C   0  0  0  0  0  0  0  0  0  0  0  0
   28.4325    9.3816   28.7065 C   0  0  0  0  0  0  0  0  0  0  0  0
   29.3824    9.9056   27.7931 C   0  0  0  0  0  0  0  0  0  0  0  0
   30.6973    9.3866   27.8240 C   0  0  0  0  0  0  0  0  0  0  0  0
   31.0567    8.4018   28.7463 C   0  0  0  0  0  0  0  0  0  0  0  0
   30.1175    7.9081   29.6485 C   0  0  0  0  0  0  0  0  0  0  0  0
   28.8102    8.3918   29.6293 C   0  0  0  0  0  0  0  0  0  0  0  0
   29.9827   11.5399   25.8987 C   0  0  0  0  0  0  0  0  0  0  0  0
   31.0543   12.3710   26.6085 C   0  0  0  0  0  0  0  0  0  0  0  0
   32.9426   13.8312   28.1158 C   0  0  0  0  0  0  0  0  0  0  0  0
   31.5787   14.0499   28.3260 C   0  0  0  0  0  0  0  0  0  0  0  0
   30.6351   13.3651   27.5293 C   0  0  0  0  0  0  0  0  0  0  0  0
   33.3859   12.9468   27.1305 C   0  0  0  0  0  0  0  0  0  0  0  0
   32.4510   12.2179   26.3469 C   0  0  0  0  0  0  0  0  0  0  0  0
   32.9590   11.3823   25.3206 C   0  0  0  0  0  0  0  0  0  0  0  0
   34.3346   11.2399   25.1255 C   0  0  0  0  0  0  0  0  0  0  0  0
   35.2352   11.9313   25.9296 C   0  0  0  0  0  0  0  0  0  0  0  0
   34.7661   12.7859   26.9236 C   0  0  0  0  0  0  0  0  0  0  0  0
   27.2257   12.2378   25.8544 O   0  0  0  0  0  0  0  0  0  0  0  0
   25.3258   11.3515   27.8923 C   0  0  0  0  0  0  0  0  0  0  0  0
   25.0627   12.7075   27.7189 O   0  0  0  0  0  0  0  0  0  0  0  0
   24.3820   10.5712   28.1920 O   0  0  0  0  0  0  0  0  0  0  0  0
   29.2752   13.6825   27.6031 O   0  0  0  0  0  0  0  0  0  0  0  0
   31.1716   14.9638   29.4162 C   0  0  0  0  0  0  0  0  0  0  0  0
   30.0554   14.6778   30.1975 O   0  0  0  0  0  0  0  0  0  0  0  0
   31.8667   15.9822   29.6798 O   0  0  0  0  0  0  0  0  0  0  0  0
   26.4082    9.4652   29.4230 H   0  0  0  0  0  0  0  0  0  0  0  0
   31.4578    9.7189   27.1358 H   0  0  0  0  0  0  0  0  0  0  0  0
   32.0684    8.0169   28.7579 H   0  0  0  0  0  0  0  0  0  0  0  0
   30.4014    7.1445   30.3611 H   0  0  0  0  0  0  0  0  0  0  0  0
   28.0927    7.9905   30.3355 H   0  0  0  0  0  0  0  0  0  0  0  0
   29.4916   12.1997   25.1550 H   0  0  0  0  0  0  0  0  0  0  0  0
   30.3814   10.7000   25.3076 H   0  0  0  0  0  0  0  0  0  0  0  0
   33.6683   14.3572   28.7273 H   0  0  0  0  0  0  0  0  0  0  0  0
   32.3267   10.8490   24.6321 H   0  0  0  0  0  0  0  0  0  0  0  0
   34.7038   10.5944   24.3387 H   0  0  0  0  0  0  0  0  0  0  0  0
   36.3000   11.8162   25.7724 H   0  0  0  0  0  0  0  0  0  0  0  0
   35.4840   13.3292   27.5272 H   0  0  0  0  0  0  0  0  0  0  0  0
   26.2578   12.4456   25.6497 H   0  0  0  0  0  0  0  0  0  0  0  0
   24.1206   13.0698   27.8056 H   0  0  0  0  0  0  0  0  0  0  0  0
   28.9148   14.4957   28.0835 H   0  0  0  0  0  0  0  0  0  0  0  0
   29.7816   15.2891   30.9575 H   0  0  0  0  0  0  0  0  0  0  0  0
  1  5  2  0
  2  3  2  0
  3  4  1  0
  4  6  2  0
  5  6  1  0
  5 10  1  0
  6  7  1  0
  7  8  2  0
  8  9  1  0
  9 10  2  0
  4 11  1  0
 11 12  1  0
 12 17  2  0
 12 15  1  0
 16 13  2  0
 13 14  1  0
 14 15  2  0
 16 17  1  0
 16 21  1  0
 17 18  1  0
 18 19  2  0
 19 20  1  0
 20 21  2  0
  3 22  1  0
  2 23  1  0
 23 24  1  0
 23 25  2  0
 15 26  1  0
 14 27  1  0
  1  2  1  0
 27 28  1  0
 27 29  2  0
  1 30  1  0
  7 31  1  0
  8 32  1  0
  9 33  1  0
 10 34  1  0
 11 35  1  0
 11 36  1  0
 13 37  1  0
 18 38  1  0
 19 39  1  0
 20 40  1  0
 21 41  1  0
 22 42  1  0
 24 43  1  0
 26 44  1  0
 28 45  1  0
M  END
> <Uni-Dock RESULT> 
ENERGY=   -3.608  LOWER_BOUND=    6.411  UPPER_BOUND=   10.103
INTER + INTRA:          -3.608
INTER:                  -3.608
INTRA:                   0.000
UNBOUND:                 0.000

$$$$
