
     RDKit          3D

 45 48  0  0  0  0  0  0  0  0999 V2000
   26.8737    4.5660   31.7053 C   0  0  0  0  0  0  0  0  0  0  0  0
   26.4969    5.5504   32.6245 C   0  0  0  0  0  0  0  0  0  0  0  0
   27.1654    6.7959   32.6235 C   0  0  0  0  0  0  0  0  0  0  0  0
   28.1299    7.0924   31.6269 C   0  0  0  0  0  0  0  0  0  0  0  0
   27.9023    4.7948   30.7890 C   0  0  0  0  0  0  0  0  0  0  0  0
   28.5589    6.0521   30.7532 C   0  0  0  0  0  0  0  0  0  0  0  0
   29.6444    6.2102   29.8633 C   0  0  0  0  0  0  0  0  0  0  0  0
   30.0176    5.1815   28.9960 C   0  0  0  0  0  0  0  0  0  0  0  0
   29.3327    3.9690   29.0092 C   0  0  0  0  0  0  0  0  0  0  0  0
   28.2846    3.7708   29.9062 C   0  0  0  0  0  0  0  0  0  0  0  0
   28.7072    8.5076   31.5489 C   0  0  0  0  0  0  0  0  0  0  0  0
   28.5013    9.1741   30.1866 C   0  0  0  0  0  0  0  0  0  0  0  0
   28.2176   10.2284   27.5839 C   0  0  0  0  0  0  0  0  0  0  0  0
   29.4943   10.1055   28.1396 C   0  0  0  0  0  0  0  0  0  0  0  0
   29.6336    9.6321   29.4655 C   0  0  0  0  0  0  0  0  0  0  0  0
   27.0784    9.8927   28.3182 C   0  0  0  0  0  0  0  0  0  0  0  0
   27.2039    9.3836   29.6365 C   0  0  0  0  0  0  0  0  0  0  0  0
   26.0219    9.1328   30.3678 C   0  0  0  0  0  0  0  0  0  0  0  0
   24.7654    9.3161   29.7869 C   0  0  0  0  0  0  0  0  0  0  0  0
   24.6583    9.7710   28.4751 C   0  0  0  0  0  0  0  0  0  0  0  0
   25.8076   10.0666   27.7443 C   0  0  0  0  0  0  0  0  0  0  0  0
   26.9095    7.7456   33.6190 O   0  0  0  0  0  0  0  0  0  0  0  0
   25.3668    5.2653   33.5358 C   0  0  0  0  0  0  0  0  0  0  0  0
   24.4435    6.2593   33.8481 O   0  0  0  0  0  0  0  0  0  0  0  0
   25.2018    4.1018   33.9924 O   0  0  0  0  0  0  0  0  0  0  0  0
   30.8815    9.6313   30.0995 O   0  0  0  0  0  0  0  0  0  0  0  0
   30.6579   10.4378   27.2878 C   0  0  0  0  0  0  0  0  0  0  0  0
   30.5589   11.4580   26.3455 O   0  0  0  0  0  0  0  0  0  0  0  0
   31.7231    9.7686   27.3650 O   0  0  0  0  0  0  0  0  0  0  0  0
   26.3598    3.6106   31.7036 H   0  0  0  0  0  0  0  0  0  0  0  0
   30.2399    7.1054   29.8493 H   0  0  0  0  0  0  0  0  0  0  0  0
   30.8494    5.3227   28.3176 H   0  0  0  0  0  0  0  0  0  0  0  0
   29.6263    3.1745   28.3354 H   0  0  0  0  0  0  0  0  0  0  0  0
   27.7783    2.8126   29.9168 H   0  0  0  0  0  0  0  0  0  0  0  0
   29.7786    8.4356   31.8256 H   0  0  0  0  0  0  0  0  0  0  0  0
   28.2682    9.1846   32.3098 H   0  0  0  0  0  0  0  0  0  0  0  0
   28.1089   10.5901   26.5668 H   0  0  0  0  0  0  0  0  0  0  0  0
   26.0470    8.8318   31.3998 H   0  0  0  0  0  0  0  0  0  0  0  0
   23.8705    9.1143   30.3616 H   0  0  0  0  0  0  0  0  0  0  0  0
   23.6820    9.9123   28.0294 H   0  0  0  0  0  0  0  0  0  0  0  0
   25.7033   10.4409   26.7326 H   0  0  0  0  0  0  0  0  0  0  0  0
   26.3845    7.5470   34.4598 H   0  0  0  0  0  0  0  0  0  0  0  0
   23.6564    6.0660   34.4559 H   0  0  0  0  0  0  0  0  0  0  0  0
   31.6965   10.1052   29.7348 H   0  0  0  0  0  0  0  0  0  0  0  0
   31.3385   11.6836   25.7392 H   0  0  0  0  0  0  0  0  0  0  0  0
  1  5  2  0
  2  3  2  0
  3  4  1  0
  4  6  2  0
  5  6  1  0
  5 10  1  0
  6  7  1  0
  7  8  2  0
  8  9  1  0
  9 10  2  0
  4 11  1  0
 11 12  1  0
 12 17  2  0
 12 15  1  0
 16 13  2  0
 13 14  1  0
 14 15  2  0
 16 17  1  0
 16 21  1  0
 17 18  1  0
 18 19  2  0
 19 20  1  0
 20 21  2  0
  3 22  1  0
  2 23  1  0
 23 24  1  0
 23 25  2  0
 15 26  1  0
 14 27  1  0
  1  2  1  0
 27 28  1  0
 27 29  2  0
  1 30  1  0
  7 31  1  0
  8 32  1  0
  9 33  1  0
 10 34  1  0
 11 35  1  0
 11 36  1  0
 13 37  1  0
 18 38  1  0
 19 39  1  0
 20 40  1  0
 21 41  1  0
 22 42  1  0
 24 43  1  0
 26 44  1  0
 28 45  1  0
M  END
> <Uni-Dock RESULT> 
ENERGY=   -3.932  LOWER_BOUND=    0.000  UPPER_BOUND=    0.000
INTER + INTRA:          -3.932
INTER:                  -3.932
INTRA:                   0.000
UNBOUND:                 0.000

$$$$

     RDKit          3D

 45 48  0  0  0  0  0  0  0  0999 V2000
   28.1974   10.2299   27.6076 C   0  0  0  0  0  0  0  0  0  0  0  0
   29.4812   10.1058   28.1481 C   0  0  0  0  0  0  0  0  0  0  0  0
   29.6370    9.6230   29.4675 C   0  0  0  0  0  0  0  0  0  0  0  0
   28.5148    9.1577   30.1992 C   0  0  0  0  0  0  0  0  0  0  0  0
   27.0677    9.8866   28.3532 C   0  0  0  0  0  0  0  0  0  0  0  0
   27.2104    9.3681   29.6662 C   0  0  0  0  0  0  0  0  0  0  0  0
   26.0378    9.1089   30.4098 C   0  0  0  0  0  0  0  0  0  0  0  0
   24.7740    9.2938   29.8453 C   0  0  0  0  0  0  0  0  0  0  0  0
   24.6502    9.7582   28.5383 C   0  0  0  0  0  0  0  0  0  0  0  0
   25.7899   10.0618   27.7960 C   0  0  0  0  0  0  0  0  0  0  0  0
   28.7388    8.4822   31.5540 C   0  0  0  0  0  0  0  0  0  0  0  0
   28.1664    7.0647   31.6288 C   0  0  0  0  0  0  0  0  0  0  0  0
   26.9185    4.5343   31.7038 C   0  0  0  0  0  0  0  0  0  0  0  0
   26.5497    5.5096   32.6347 C   0  0  0  0  0  0  0  0  0  0  0  0
   27.2154    6.7580   32.6355 C   0  0  0  0  0  0  0  0  0  0  0  0
   27.9347    4.7730   30.7765 C   0  0  0  0  0  0  0  0  0  0  0  0
   28.5875    6.0322   30.7421 C   0  0  0  0  0  0  0  0  0  0  0  0
   29.6616    6.2000   29.8404 C   0  0  0  0  0  0  0  0  0  0  0  0
   30.0269    5.1791   28.9606 C   0  0  0  0  0  0  0  0  0  0  0  0
   29.3453    3.9647   28.9729 C   0  0  0  0  0  0  0  0  0  0  0  0
   28.3089    3.7568   29.8812 C   0  0  0  0  0  0  0  0  0  0  0  0
   30.8931    9.6214   30.0847 O   0  0  0  0  0  0  0  0  0  0  0  0
   30.6400   10.4383   27.2905 C   0  0  0  0  0  0  0  0  0  0  0  0
   31.8005    9.6711   27.3431 O   0  0  0  0  0  0  0  0  0  0  0  0
   30.5627   11.3879   26.4648 O   0  0  0  0  0  0  0  0  0  0  0  0
   26.9704    7.7010   33.6406 O   0  0  0  0  0  0  0  0  0  0  0  0
   25.4346    5.2028   33.5580 C   0  0  0  0  0  0  0  0  0  0  0  0
   25.2523    3.9009   34.0168 O   0  0  0  0  0  0  0  0  0  0  0  0
   24.6107    6.0966   33.8903 O   0  0  0  0  0  0  0  0  0  0  0  0
   28.0767   10.5981   26.5942 H   0  0  0  0  0  0  0  0  0  0  0  0
   26.0761    8.7999   31.4389 H   0  0  0  0  0  0  0  0  0  0  0  0
   23.8865    9.0855   30.4292 H   0  0  0  0  0  0  0  0  0  0  0  0
   23.6683    9.9005   28.1056 H   0  0  0  0  0  0  0  0  0  0  0  0
   25.6726   10.4432   26.7883 H   0  0  0  0  0  0  0  0  0  0  0  0
   28.3074    9.1525   32.3249 H   0  0  0  0  0  0  0  0  0  0  0  0
   29.8139    8.4112   31.8171 H   0  0  0  0  0  0  0  0  0  0  0  0
   26.4082    3.5769   31.7009 H   0  0  0  0  0  0  0  0  0  0  0  0
   30.2549    7.0966   29.8263 H   0  0  0  0  0  0  0  0  0  0  0  0
   30.8500    5.3276   28.2734 H   0  0  0  0  0  0  0  0  0  0  0  0
   29.6327    3.1761   28.2894 H   0  0  0  0  0  0  0  0  0  0  0  0
   27.8053    2.7972   29.8907 H   0  0  0  0  0  0  0  0  0  0  0  0
   31.7007   10.1007   29.7106 H   0  0  0  0  0  0  0  0  0  0  0  0
   32.5906    9.8812   26.7448 H   0  0  0  0  0  0  0  0  0  0  0  0
   26.4572    7.4979   34.4875 H   0  0  0  0  0  0  0  0  0  0  0  0
   24.4811    3.6692   34.6315 H   0  0  0  0  0  0  0  0  0  0  0  0
  1  5  2  0
  2  3  2  0
  3  4  1  0
  4  6  2  0
  5  6  1  0
  5 10  1  0
  6  7  1  0
  7  8  2  0
  8  9  1  0
  9 10  2  0
  4 11  1  0
 11 12  1  0
 12 17  2  0
 12 15  1  0
 16 13  2  0
 13 14  1  0
 14 15  2  0
 16 17  1  0
 16 21  1  0
 17 18  1  0
 18 19  2  0
 19 20  1  0
 20 21  2  0
  3 22  1  0
  2 23  1  0
 23 24  1  0
 23 25  2  0
 15 26  1  0
 14 27  1  0
  1  2  1  0
 27 28  1  0
 27 29  2  0
  1 30  1  0
  7 31  1  0
  8 32  1  0
  9 33  1  0
 10 34  1  0
 11 35  1  0
 11 36  1  0
 13 37  1  0
 18 38  1  0
 19 39  1  0
 20 40  1  0
 21 41  1  0
 22 42  1  0
 24 43  1  0
 26 44  1  0
 28 45  1  0
M  END
> <Uni-Dock RESULT> 
ENERGY=   -3.926  LOWER_BOUND=    0.082  UPPER_BOUND=    7.076
INTER + INTRA:          -3.926
INTER:                  -3.926
INTRA:                   0.000
UNBOUND:                 0.000

$$$$

     RDKit          3D

 45 48  0  0  0  0  0  0  0  0999 V2000
   26.6579    4.2575   31.3461 C   0  0  0  0  0  0  0  0  0  0  0  0
   26.0882    5.1292   32.2797 C   0  0  0  0  0  0  0  0  0  0  0  0
   26.6775    6.3951   32.4997 C   0  0  0  0  0  0  0  0  0  0  0  0
   27.7666    6.8287   31.7015 C   0  0  0  0  0  0  0  0  0  0  0  0
   27.8016    4.6184   30.6309 C   0  0  0  0  0  0  0  0  0  0  0  0
   28.3839    5.8990   30.8159 C   0  0  0  0  0  0  0  0  0  0  0  0
   29.5835    6.1895   30.1291 C   0  0  0  0  0  0  0  0  0  0  0  0
   30.1441    5.2683   29.2419 C   0  0  0  0  0  0  0  0  0  0  0  0
   29.5349    4.0334   29.0343 C   0  0  0  0  0  0  0  0  0  0  0  0
   28.3732    3.7039   29.7303 C   0  0  0  0  0  0  0  0  0  0  0  0
   28.2682    8.2673   31.8468 C   0  0  0  0  0  0  0  0  0  0  0  0
   28.2388    9.0569   30.5360 C   0  0  0  0  0  0  0  0  0  0  0  0
   28.3031   10.3522   28.0292 C   0  0  0  0  0  0  0  0  0  0  0  0
   29.4831   10.2273   28.7681 C   0  0  0  0  0  0  0  0  0  0  0  0
   29.4417    9.6305   30.0502 C   0  0  0  0  0  0  0  0  0  0  0  0
   27.0846    9.8985   28.5382 C   0  0  0  0  0  0  0  0  0  0  0  0
   27.0328    9.2664   29.8073 C   0  0  0  0  0  0  0  0  0  0  0  0
   25.7676    8.8956   30.3143 C   0  0  0  0  0  0  0  0  0  0  0  0
   24.6081    9.0839   29.5594 C   0  0  0  0  0  0  0  0  0  0  0  0
   24.6803    9.6622   28.2946 C   0  0  0  0  0  0  0  0  0  0  0  0
   25.9105   10.0761   27.7870 C   0  0  0  0  0  0  0  0  0  0  0  0
   26.2172    7.2297   33.5244 O   0  0  0  0  0  0  0  0  0  0  0  0
   24.8483    4.7085   32.9687 C   0  0  0  0  0  0  0  0  0  0  0  0
   23.8333    5.6277   33.2193 O   0  0  0  0  0  0  0  0  0  0  0  0
   24.6804    3.4996   33.2844 O   0  0  0  0  0  0  0  0  0  0  0  0
   30.5742    9.6181   30.8727 O   0  0  0  0  0  0  0  0  0  0  0  0
   30.7441   10.6903   28.1473 C   0  0  0  0  0  0  0  0  0  0  0  0
   30.7351   11.7943   27.2988 O   0  0  0  0  0  0  0  0  0  0  0  0
   31.8205   10.0612   28.3320 O   0  0  0  0  0  0  0  0  0  0  0  0
   26.2051    3.2865   31.1748 H   0  0  0  0  0  0  0  0  0  0  0  0
   30.1225    7.1053   30.2926 H   0  0  0  0  0  0  0  0  0  0  0  0
   31.0617    5.5104   28.7210 H   0  0  0  0  0  0  0  0  0  0  0  0
   29.9737    3.3225   28.3461 H   0  0  0  0  0  0  0  0  0  0  0  0
   27.9262    2.7294   29.5720 H   0  0  0  0  0  0  0  0  0  0  0  0
   29.2862    8.2122   32.2833 H   0  0  0  0  0  0  0  0  0  0  0  0
   27.6791    8.8465   32.5867 H   0  0  0  0  0  0  0  0  0  0  0  0
   28.3333   10.8084   27.0454 H   0  0  0  0  0  0  0  0  0  0  0  0
   25.6494    8.4948   31.3050 H   0  0  0  0  0  0  0  0  0  0  0  0
   23.6478    8.7892   29.9628 H   0  0  0  0  0  0  0  0  0  0  0  0
   23.7785    9.8068   27.7136 H   0  0  0  0  0  0  0  0  0  0  0  0
   25.9434   10.5445   26.8103 H   0  0  0  0  0  0  0  0  0  0  0  0
   25.5802    6.9271   34.2487 H   0  0  0  0  0  0  0  0  0  0  0  0
   22.9736    5.3426   33.6732 H   0  0  0  0  0  0  0  0  0  0  0  0
   31.4078   10.1591   30.6878 H   0  0  0  0  0  0  0  0  0  0  0  0
   31.5853   12.1110   26.8481 H   0  0  0  0  0  0  0  0  0  0  0  0
  1  5  2  0
  2  3  2  0
  3  4  1  0
  4  6  2  0
  5  6  1  0
  5 10  1  0
  6  7  1  0
  7  8  2  0
  8  9  1  0
  9 10  2  0
  4 11  1  0
 11 12  1  0
 12 17  2  0
 12 15  1  0
 16 13  2  0
 13 14  1  0
 14 15  2  0
 16 17  1  0
 16 21  1  0
 17 18  1  0
 18 19  2  0
 19 20  1  0
 20 21  2  0
  3 22  1  0
  2 23  1  0
 23 24  1  0
 23 25  2  0
 15 26  1  0
 14 27  1  0
  1  2  1  0
 27 28  1  0
 27 29  2  0
  1 30  1  0
  7 31  1  0
  8 32  1  0
  9 33  1  0
 10 34  1  0
 11 35  1  0
 11 36  1  0
 13 37  1  0
 18 38  1  0
 19 39  1  0
 20 40  1  0
 21 41  1  0
 22 42  1  0
 24 43  1  0
 26 44  1  0
 28 45  1  0
M  END
> <Uni-Dock RESULT> 
ENERGY=   -3.846  LOWER_BOUND=    0.623  UPPER_BOUND=    0.623
INTER + INTRA:          -3.846
INTER:                  -3.846
INTRA:                   0.000
UNBOUND:                 0.000

$$$$

     RDKit          3D

 45 48  0  0  0  0  0  0  0  0999 V2000
   30.3503   10.6817   26.8445 C   0  0  0  0  0  0  0  0  0  0  0  0
   29.1316   11.3141   26.5787 C   0  0  0  0  0  0  0  0  0  0  0  0
   29.0963   12.4101   25.6867 C   0  0  0  0  0  0  0  0  0  0  0  0
   30.2616   12.7953   24.9759 C   0  0  0  0  0  0  0  0  0  0  0  0
   31.5326   11.1191   26.2438 C   0  0  0  0  0  0  0  0  0  0  0  0
   31.5073   12.1957   25.3200 C   0  0  0  0  0  0  0  0  0  0  0  0
   32.7375   12.6532   24.7982 C   0  0  0  0  0  0  0  0  0  0  0  0
   33.9377   12.0210   25.1297 C   0  0  0  0  0  0  0  0  0  0  0  0
   33.9415   10.9347   26.0011 C   0  0  0  0  0  0  0  0  0  0  0  0
   32.7469   10.4887   26.5635 C   0  0  0  0  0  0  0  0  0  0  0  0
   30.1499   13.8701   23.8922 C   0  0  0  0  0  0  0  0  0  0  0  0
   30.6312   13.3998   22.5175 C   0  0  0  0  0  0  0  0  0  0  0  0
   31.7077   12.4760   20.0774 C   0  0  0  0  0  0  0  0  0  0  0  0
   32.2452   13.6190   20.6761 C   0  0  0  0  0  0  0  0  0  0  0  0
   31.6688   14.1167   21.8685 C   0  0  0  0  0  0  0  0  0  0  0  0
   30.6099   11.8195   20.6376 C   0  0  0  0  0  0  0  0  0  0  0  0
   30.0431   12.2861   21.8516 C   0  0  0  0  0  0  0  0  0  0  0  0
   28.8862   11.6378   22.3376 C   0  0  0  0  0  0  0  0  0  0  0  0
   28.3550   10.5271   21.6789 C   0  0  0  0  0  0  0  0  0  0  0  0
   28.9508   10.0508   20.5138 C   0  0  0  0  0  0  0  0  0  0  0  0
   30.0684   10.6970   19.9886 C   0  0  0  0  0  0  0  0  0  0  0  0
   27.9222   13.1508   25.5100 O   0  0  0  0  0  0  0  0  0  0  0  0
   27.9068   10.7722   27.2074 C   0  0  0  0  0  0  0  0  0  0  0  0
   26.7114   10.7207   26.4958 O   0  0  0  0  0  0  0  0  0  0  0  0
   27.9521   10.3016   28.3761 O   0  0  0  0  0  0  0  0  0  0  0  0
   32.0899   15.3347   22.4149 O   0  0  0  0  0  0  0  0  0  0  0  0
   33.4358   14.2365   20.0507 C   0  0  0  0  0  0  0  0  0  0  0  0
   33.5823   14.2144   18.6663 O   0  0  0  0  0  0  0  0  0  0  0  0
   34.3503   14.7335   20.7614 O   0  0  0  0  0  0  0  0  0  0  0  0
   30.3782    9.8389   27.5272 H   0  0  0  0  0  0  0  0  0  0  0  0
   32.7970   13.5194   24.1640 H   0  0  0  0  0  0  0  0  0  0  0  0
   34.8704   12.3830   24.7164 H   0  0  0  0  0  0  0  0  0  0  0  0
   34.8745   10.4485   26.2555 H   0  0  0  0  0  0  0  0  0  0  0  0
   32.7730    9.6560   27.2567 H   0  0  0  0  0  0  0  0  0  0  0  0
   30.7107   14.7551   24.2554 H   0  0  0  0  0  0  0  0  0  0  0  0
   29.1098   14.2331   23.7640 H   0  0  0  0  0  0  0  0  0  0  0  0
   32.1492   12.0922   19.1638 H   0  0  0  0  0  0  0  0  0  0  0  0
   28.3564   11.9965   23.2019 H   0  0  0  0  0  0  0  0  0  0  0  0
   27.4703   10.0404   22.0690 H   0  0  0  0  0  0  0  0  0  0  0  0
   28.5349    9.1899   20.0063 H   0  0  0  0  0  0  0  0  0  0  0  0
   30.5046   10.3250   19.0689 H   0  0  0  0  0  0  0  0  0  0  0  0
   27.1107   13.0636   26.1066 H   0  0  0  0  0  0  0  0  0  0  0  0
   25.8737   10.3332   26.9132 H   0  0  0  0  0  0  0  0  0  0  0  0
   32.6822   15.9933   21.9277 H   0  0  0  0  0  0  0  0  0  0  0  0
   34.4017   14.6127   18.2234 H   0  0  0  0  0  0  0  0  0  0  0  0
  1  5  2  0
  2  3  2  0
  3  4  1  0
  4  6  2  0
  5  6  1  0
  5 10  1  0
  6  7  1  0
  7  8  2  0
  8  9  1  0
  9 10  2  0
  4 11  1  0
 11 12  1  0
 12 17  2  0
 12 15  1  0
 16 13  2  0
 13 14  1  0
 14 15  2  0
 16 17  1  0
 16 21  1  0
 17 18  1  0
 18 19  2  0
 19 20  1  0
 20 21  2  0
  3 22  1  0
  2 23  1  0
 23 24  1  0
 23 25  2  0
 15 26  1  0
 14 27  1  0
  1  2  1  0
 27 28  1  0
 27 29  2  0
  1 30  1  0
  7 31  1  0
  8 32  1  0
  9 33  1  0
 10 34  1  0
 11 35  1  0
 11 36  1  0
 13 37  1  0
 18 38  1  0
 19 39  1  0
 20 40  1  0
 21 41  1  0
 22 42  1  0
 24 43  1  0
 26 44  1  0
 28 45  1  0
M  END
> <Uni-Dock RESULT> 
ENERGY=   -3.837  LOWER_BOUND=    5.419  UPPER_BOUND=    8.896
INTER + INTRA:          -3.837
INTER:                  -3.837
INTRA:                   0.000
UNBOUND:                 0.000

$$$$

     RDKit          3D

 45 48  0  0  0  0  0  0  0  0999 V2000
   28.3567   10.4114   28.5036 C   0  0  0  0  0  0  0  0  0  0  0  0
   29.4435   10.2548   29.3698 C   0  0  0  0  0  0  0  0  0  0  0  0
   29.2666    9.5641   30.5904 C   0  0  0  0  0  0  0  0  0  0  0  0
   28.0313    8.9332   30.8860 C   0  0  0  0  0  0  0  0  0  0  0  0
   27.0994    9.8980   28.8285 C   0  0  0  0  0  0  0  0  0  0  0  0
   26.9150    9.1727   30.0338 C   0  0  0  0  0  0  0  0  0  0  0  0
   25.6096    8.7405   30.3567 C   0  0  0  0  0  0  0  0  0  0  0  0
   24.5432    8.9619   29.4828 C   0  0  0  0  0  0  0  0  0  0  0  0
   24.7488    9.6338   28.2805 C   0  0  0  0  0  0  0  0  0  0  0  0
   26.0185   10.1080   27.9558 C   0  0  0  0  0  0  0  0  0  0  0  0
   27.9272    8.0498   32.1313 C   0  0  0  0  0  0  0  0  0  0  0  0
   27.4877    6.6161   31.8248 C   0  0  0  0  0  0  0  0  0  0  0  0
   26.5036    4.0566   31.1565 C   0  0  0  0  0  0  0  0  0  0  0  0
   25.8019    4.8441   32.0738 C   0  0  0  0  0  0  0  0  0  0  0  0
   26.3246    6.1027   32.4538 C   0  0  0  0  0  0  0  0  0  0  0  0
   27.7129    4.4927   30.6114 C   0  0  0  0  0  0  0  0  0  0  0  0
   28.2321    5.7673   30.9560 C   0  0  0  0  0  0  0  0  0  0  0  0
   29.4961    6.1316   30.4414 C   0  0  0  0  0  0  0  0  0  0  0  0
   30.1842    5.2905   29.5646 C   0  0  0  0  0  0  0  0  0  0  0  0
   29.6395    4.0626   29.1975 C   0  0  0  0  0  0  0  0  0  0  0  0
   28.4134    3.6592   29.7232 C   0  0  0  0  0  0  0  0  0  0  0  0
   30.2942    9.5140   31.5391 O   0  0  0  0  0  0  0  0  0  0  0  0
   30.7610   10.7777   28.9460 C   0  0  0  0  0  0  0  0  0  0  0  0
   31.9249   10.0646   29.2196 O   0  0  0  0  0  0  0  0  0  0  0  0
   30.8323   11.8484   28.2842 O   0  0  0  0  0  0  0  0  0  0  0  0
   25.7235    6.8512   33.4724 O   0  0  0  0  0  0  0  0  0  0  0  0
   24.5055    4.3373   32.5762 C   0  0  0  0  0  0  0  0  0  0  0  0
   24.3207    2.9700   32.7633 O   0  0  0  0  0  0  0  0  0  0  0  0
   23.5439    5.1253   32.7832 O   0  0  0  0  0  0  0  0  0  0  0  0
   28.4919   10.9393   27.5655 H   0  0  0  0  0  0  0  0  0  0  0  0
   25.3860    8.2646   31.2946 H   0  0  0  0  0  0  0  0  0  0  0  0
   23.5503    8.6194   29.7453 H   0  0  0  0  0  0  0  0  0  0  0  0
   23.9188    9.8035   27.6068 H   0  0  0  0  0  0  0  0  0  0  0  0
   26.1540   10.6480   27.0260 H   0  0  0  0  0  0  0  0  0  0  0  0
   27.2381    8.5611   32.8339 H   0  0  0  0  0  0  0  0  0  0  0  0
   28.8873    7.9830   32.6824 H   0  0  0  0  0  0  0  0  0  0  0  0
   26.1035    3.0919   30.8629 H   0  0  0  0  0  0  0  0  0  0  0  0
   29.9857    7.0431   30.7340 H   0  0  0  0  0  0  0  0  0  0  0  0
   31.1498    5.5888   29.1769 H   0  0  0  0  0  0  0  0  0  0  0  0
   30.1771    3.4137   28.5180 H   0  0  0  0  0  0  0  0  0  0  0  0
   28.0165    2.6904   29.4431 H   0  0  0  0  0  0  0  0  0  0  0  0
   31.1274   10.0846   31.4919 H   0  0  0  0  0  0  0  0  0  0  0  0
   32.8285   10.4070   28.9154 H   0  0  0  0  0  0  0  0  0  0  0  0
   25.0142    6.4860   34.0933 H   0  0  0  0  0  0  0  0  0  0  0  0
   23.4325    2.6044   33.0854 H   0  0  0  0  0  0  0  0  0  0  0  0
  1  5  2  0
  2  3  2  0
  3  4  1  0
  4  6  2  0
  5  6  1  0
  5 10  1  0
  6  7  1  0
  7  8  2  0
  8  9  1  0
  9 10  2  0
  4 11  1  0
 11 12  1  0
 12 17  2  0
 12 15  1  0
 16 13  2  0
 13 14  1  0
 14 15  2  0
 16 17  1  0
 16 21  1  0
 17 18  1  0
 18 19  2  0
 19 20  1  0
 20 21  2  0
  3 22  1  0
  2 23  1  0
 23 24  1  0
 23 25  2  0
 15 26  1  0
 14 27  1  0
  1  2  1  0
 27 28  1  0
 27 29  2  0
  1 30  1  0
  7 31  1  0
  8 32  1  0
  9 33  1  0
 10 34  1  0
 11 35  1  0
 11 36  1  0
 13 37  1  0
 18 38  1  0
 19 39  1  0
 20 40  1  0
 21 41  1  0
 22 42  1  0
 24 43  1  0
 26 44  1  0
 28 45  1  0
M  END
> <Uni-Dock RESULT> 
ENERGY=   -3.817  LOWER_BOUND=    1.062  UPPER_BOUND=    7.041
INTER + INTRA:          -3.817
INTER:                  -3.817
INTRA:                   0.000
UNBOUND:                 0.000

$$$$

     RDKit          3D

 45 48  0  0  0  0  0  0  0  0999 V2000
   31.6945   12.4645   20.0557 C   0  0  0  0  0  0  0  0  0  0  0  0
   32.2266   13.6128   20.6508 C   0  0  0  0  0  0  0  0  0  0  0  0
   31.6486   14.1115   21.8405 C   0  0  0  0  0  0  0  0  0  0  0  0
   30.6138   13.3932   22.4921 C   0  0  0  0  0  0  0  0  0  0  0  0
   30.5993   11.8056   20.6180 C   0  0  0  0  0  0  0  0  0  0  0  0
   30.0305   12.2744   21.8304 C   0  0  0  0  0  0  0  0  0  0  0  0
   28.8766   11.6228   22.3192 C   0  0  0  0  0  0  0  0  0  0  0  0
   28.3502   10.5074   21.6644 C   0  0  0  0  0  0  0  0  0  0  0  0
   28.9479   10.0295   20.5010 C   0  0  0  0  0  0  0  0  0  0  0  0
   30.0627   10.6785   19.9733 C   0  0  0  0  0  0  0  0  0  0  0  0
   30.1306   13.8670   23.8648 C   0  0  0  0  0  0  0  0  0  0  0  0
   30.2474   12.7972   24.9531 C   0  0  0  0  0  0  0  0  0  0  0  0
   30.3465   10.6919   26.8303 C   0  0  0  0  0  0  0  0  0  0  0  0
   29.1250   11.3167   26.5632 C   0  0  0  0  0  0  0  0  0  0  0  0
   29.0840   12.4103   25.6664 C   0  0  0  0  0  0  0  0  0  0  0  0
   31.5264   11.1318   26.2269 C   0  0  0  0  0  0  0  0  0  0  0  0
   31.4959   12.2045   25.2988 C   0  0  0  0  0  0  0  0  0  0  0  0
   32.7238   12.6655   24.7748 C   0  0  0  0  0  0  0  0  0  0  0  0
   33.9269   12.0399   25.1079 C   0  0  0  0  0  0  0  0  0  0  0  0
   33.9360   10.9570   25.9834 C   0  0  0  0  0  0  0  0  0  0  0  0
   32.7437   10.5079   26.5482 C   0  0  0  0  0  0  0  0  0  0  0  0
   32.0657   15.3333   22.3807 O   0  0  0  0  0  0  0  0  0  0  0  0
   33.4183   14.2362   20.0341 C   0  0  0  0  0  0  0  0  0  0  0  0
   34.4340   14.7580   20.8305 O   0  0  0  0  0  0  0  0  0  0  0  0
   33.5467   14.2490   18.7800 O   0  0  0  0  0  0  0  0  0  0  0  0
   27.9072   13.1464   25.4860 O   0  0  0  0  0  0  0  0  0  0  0  0
   27.9092   10.7688   27.2046 C   0  0  0  0  0  0  0  0  0  0  0  0
   27.9854   10.2235   28.4835 O   0  0  0  0  0  0  0  0  0  0  0  0
   26.8132   10.7373   26.5833 O   0  0  0  0  0  0  0  0  0  0  0  0
   32.1388   12.0795   19.1438 H   0  0  0  0  0  0  0  0  0  0  0  0
   28.3457   11.9822   23.1824 H   0  0  0  0  0  0  0  0  0  0  0  0
   27.4676   10.0183   22.0565 H   0  0  0  0  0  0  0  0  0  0  0  0
   28.5356    9.1650   19.9968 H   0  0  0  0  0  0  0  0  0  0  0  0
   30.5004   10.3049   19.0549 H   0  0  0  0  0  0  0  0  0  0  0  0
   29.0890   14.2249   23.7351 H   0  0  0  0  0  0  0  0  0  0  0  0
   30.6876   14.7561   24.2241 H   0  0  0  0  0  0  0  0  0  0  0  0
   30.3796    9.8523   27.5167 H   0  0  0  0  0  0  0  0  0  0  0  0
   32.7793   13.5299   24.1376 H   0  0  0  0  0  0  0  0  0  0  0  0
   34.8578   12.4045   24.6927 H   0  0  0  0  0  0  0  0  0  0  0  0
   34.8713   10.4759   26.2391 H   0  0  0  0  0  0  0  0  0  0  0  0
   32.7738    9.6782   27.2447 H   0  0  0  0  0  0  0  0  0  0  0  0
   32.6556   15.9902   21.8883 H   0  0  0  0  0  0  0  0  0  0  0  0
   35.2616   15.1688   20.4152 H   0  0  0  0  0  0  0  0  0  0  0  0
   27.0950   13.0608   26.0818 H   0  0  0  0  0  0  0  0  0  0  0  0
   27.1675    9.8241   28.9283 H   0  0  0  0  0  0  0  0  0  0  0  0
  1  5  2  0
  2  3  2  0
  3  4  1  0
  4  6  2  0
  5  6  1  0
  5 10  1  0
  6  7  1  0
  7  8  2  0
  8  9  1  0
  9 10  2  0
  4 11  1  0
 11 12  1  0
 12 17  2  0
 12 15  1  0
 16 13  2  0
 13 14  1  0
 14 15  2  0
 16 17  1  0
 16 21  1  0
 17 18  1  0
 18 19  2  0
 19 20  1  0
 20 21  2  0
  3 22  1  0
  2 23  1  0
 23 24  1  0
 23 25  2  0
 15 26  1  0
 14 27  1  0
  1  2  1  0
 27 28  1  0
 27 29  2  0
  1 30  1  0
  7 31  1  0
  8 32  1  0
  9 33  1  0
 10 34  1  0
 11 35  1  0
 11 36  1  0
 13 37  1  0
 18 38  1  0
 19 39  1  0
 20 40  1  0
 21 41  1  0
 22 42  1  0
 24 43  1  0
 26 44  1  0
 28 45  1  0
M  END
> <Uni-Dock RESULT> 
ENERGY=   -3.815  LOWER_BOUND=    5.404  UPPER_BOUND=   10.901
INTER + INTRA:          -3.815
INTER:                  -3.815
INTRA:                   0.000
UNBOUND:                 0.000

$$$$

     RDKit          3D

 45 48  0  0  0  0  0  0  0  0999 V2000
   31.6469   12.2143   18.7480 C   0  0  0  0  0  0  0  0  0  0  0  0
   31.1554   10.9126   18.8890 C   0  0  0  0  0  0  0  0  0  0  0  0
   30.3964   10.5754   20.0328 C   0  0  0  0  0  0  0  0  0  0  0  0
   30.0351   11.5725   20.9744 C   0  0  0  0  0  0  0  0  0  0  0  0
   31.4012   13.1843   19.7220 C   0  0  0  0  0  0  0  0  0  0  0  0
   30.6120   12.8700   20.8584 C   0  0  0  0  0  0  0  0  0  0  0  0
   30.4560   13.8596   21.8540 C   0  0  0  0  0  0  0  0  0  0  0  0
   31.0064   15.1329   21.6933 C   0  0  0  0  0  0  0  0  0  0  0  0
   31.7388   15.4418   20.5498 C   0  0  0  0  0  0  0  0  0  0  0  0
   31.9438   14.4714   19.5706 C   0  0  0  0  0  0  0  0  0  0  0  0
   29.0703   11.2113   22.1062 C   0  0  0  0  0  0  0  0  0  0  0  0
   27.8154   12.0870   22.1382 C   0  0  0  0  0  0  0  0  0  0  0  0
   25.6336   13.8762   22.2023 C   0  0  0  0  0  0  0  0  0  0  0  0
   26.4571   13.7570   23.3255 C   0  0  0  0  0  0  0  0  0  0  0  0
   27.5156   12.8184   23.3160 C   0  0  0  0  0  0  0  0  0  0  0  0
   25.8390   13.0819   21.0725 C   0  0  0  0  0  0  0  0  0  0  0  0
   26.9176   12.1610   21.0346 C   0  0  0  0  0  0  0  0  0  0  0  0
   27.0379   11.3241   19.9031 C   0  0  0  0  0  0  0  0  0  0  0  0
   26.1613   11.4460   18.8232 C   0  0  0  0  0  0  0  0  0  0  0  0
   25.1359   12.3878   18.8543 C   0  0  0  0  0  0  0  0  0  0  0  0
   24.9681   13.1979   19.9759 C   0  0  0  0  0  0  0  0  0  0  0  0
   30.0125    9.2509   20.2714 O   0  0  0  0  0  0  0  0  0  0  0  0
   31.4073    9.9444   17.7990 C   0  0  0  0  0  0  0  0  0  0  0  0
   30.4231    9.0355   17.4204 O   0  0  0  0  0  0  0  0  0  0  0  0
   32.4983    9.9737   17.1678 O   0  0  0  0  0  0  0  0  0  0  0  0
   28.2677   12.5735   24.4708 O   0  0  0  0  0  0  0  0  0  0  0  0
   26.2076   14.6621   24.4694 C   0  0  0  0  0  0  0  0  0  0  0  0
   24.9062   15.0518   24.7746 O   0  0  0  0  0  0  0  0  0  0  0  0
   27.1668   15.1322   25.1382 O   0  0  0  0  0  0  0  0  0  0  0  0
   32.2276   12.4748   17.8694 H   0  0  0  0  0  0  0  0  0  0  0  0
   29.9458   13.6577   22.7787 H   0  0  0  0  0  0  0  0  0  0  0  0
   30.8726   15.8800   22.4652 H   0  0  0  0  0  0  0  0  0  0  0  0
   32.1639   16.4300   20.4302 H   0  0  0  0  0  0  0  0  0  0  0  0
   32.5352   14.7242   18.6983 H   0  0  0  0  0  0  0  0  0  0  0  0
   29.6466   11.2653   23.0520 H   0  0  0  0  0  0  0  0  0  0  0  0
   28.7283   10.1579   22.0486 H   0  0  0  0  0  0  0  0  0  0  0  0
   24.8222   14.5964   22.2074 H   0  0  0  0  0  0  0  0  0  0  0  0
   27.7775   10.5453   19.8504 H   0  0  0  0  0  0  0  0  0  0  0  0
   26.2719   10.7988   17.9625 H   0  0  0  0  0  0  0  0  0  0  0  0
   24.4584   12.4780   18.0150 H   0  0  0  0  0  0  0  0  0  0  0  0
   24.1507   13.9093   19.9907 H   0  0  0  0  0  0  0  0  0  0  0  0
   30.3804    8.4610   19.7588 H   0  0  0  0  0  0  0  0  0  0  0  0
   30.5815    8.3828   16.6621 H   0  0  0  0  0  0  0  0  0  0  0  0
   28.0091   12.9058   25.3898 H   0  0  0  0  0  0  0  0  0  0  0  0
   24.7198   15.6883   25.5403 H   0  0  0  0  0  0  0  0  0  0  0  0
  1  5  2  0
  2  3  2  0
  3  4  1  0
  4  6  2  0
  5  6  1  0
  5 10  1  0
  6  7  1  0
  7  8  2  0
  8  9  1  0
  9 10  2  0
  4 11  1  0
 11 12  1  0
 12 17  2  0
 12 15  1  0
 16 13  2  0
 13 14  1  0
 14 15  2  0
 16 17  1  0
 16 21  1  0
 17 18  1  0
 18 19  2  0
 19 20  1  0
 20 21  2  0
  3 22  1  0
  2 23  1  0
 23 24  1  0
 23 25  2  0
 15 26  1  0
 14 27  1  0
  1  2  1  0
 27 28  1  0
 27 29  2  0
  1 30  1  0
  7 31  1  0
  8 32  1  0
  9 33  1  0
 10 34  1  0
 11 35  1  0
 11 36  1  0
 13 37  1  0
 18 38  1  0
 19 39  1  0
 20 40  1  0
 21 41  1  0
 22 42  1  0
 24 43  1  0
 26 44  1  0
 28 45  1  0
M  END
> <Uni-Dock RESULT> 
ENERGY=   -3.764  LOWER_BOUND=    9.021  UPPER_BOUND=   11.939
INTER + INTRA:          -3.764
INTER:                  -3.764
INTRA:                   0.000
UNBOUND:                 0.000

$$$$

     RDKit          3D

 45 48  0  0  0  0  0  0  0  0999 V2000
   26.0362   14.0638   22.7472 C   0  0  0  0  0  0  0  0  0  0  0  0
   26.8124   13.5273   23.7794 C   0  0  0  0  0  0  0  0  0  0  0  0
   27.5786   12.3635   23.5411 C   0  0  0  0  0  0  0  0  0  0  0  0
   27.6549   11.8082   22.2384 C   0  0  0  0  0  0  0  0  0  0  0  0
   26.0051   13.4650   21.4861 C   0  0  0  0  0  0  0  0  0  0  0  0
   26.7957   12.3168   21.2221 C   0  0  0  0  0  0  0  0  0  0  0  0
   26.6718   11.7007   19.9571 C   0  0  0  0  0  0  0  0  0  0  0  0
   25.8460   12.2447   18.9713 C   0  0  0  0  0  0  0  0  0  0  0  0
   25.1122   13.3999   19.2291 C   0  0  0  0  0  0  0  0  0  0  0  0
   25.1832   14.0049   20.4826 C   0  0  0  0  0  0  0  0  0  0  0  0
   28.6271   10.6554   21.9775 C   0  0  0  0  0  0  0  0  0  0  0  0
   29.6392   10.9527   20.8686 C   0  0  0  0  0  0  0  0  0  0  0  0
   31.3362   11.5478   18.6932 C   0  0  0  0  0  0  0  0  0  0  0  0
   30.5153   10.4180   18.6347 C   0  0  0  0  0  0  0  0  0  0  0  0
   29.7076   10.0860   19.7478 C   0  0  0  0  0  0  0  0  0  0  0  0
   31.3721   12.3523   19.8340 C   0  0  0  0  0  0  0  0  0  0  0  0
   30.5420   12.0521   20.9447 C   0  0  0  0  0  0  0  0  0  0  0  0
   30.6706   12.8473   22.1050 C   0  0  0  0  0  0  0  0  0  0  0  0
   31.5406   13.9391   22.1346 C   0  0  0  0  0  0  0  0  0  0  0  0
   32.3143   14.2505   21.0194 C   0  0  0  0  0  0  0  0  0  0  0  0
   32.2386   13.4576   19.8757 C   0  0  0  0  0  0  0  0  0  0  0  0
   28.2513   11.7234   24.5882 O   0  0  0  0  0  0  0  0  0  0  0  0
   26.8421   14.2361   25.0777 C   0  0  0  0  0  0  0  0  0  0  0  0
   28.0275   14.3352   25.8010 O   0  0  0  0  0  0  0  0  0  0  0  0
   25.8032   14.8037   25.5113 O   0  0  0  0  0  0  0  0  0  0  0  0
   28.9842    8.8881   19.7774 O   0  0  0  0  0  0  0  0  0  0  0  0
   30.4957    9.6377   17.3774 C   0  0  0  0  0  0  0  0  0  0  0  0
   31.6550    9.5212   16.6151 O   0  0  0  0  0  0  0  0  0  0  0  0
   29.4248    9.1230   16.9570 O   0  0  0  0  0  0  0  0  0  0  0  0
   25.4495   14.9583   22.9283 H   0  0  0  0  0  0  0  0  0  0  0  0
   27.1743   10.7791   19.7240 H   0  0  0  0  0  0  0  0  0  0  0  0
   25.7672   11.7610   18.0060 H   0  0  0  0  0  0  0  0  0  0  0  0
   24.4730   13.8173   18.4618 H   0  0  0  0  0  0  0  0  0  0  0  0
   24.5877   14.8905   20.6713 H   0  0  0  0  0  0  0  0  0  0  0  0
   28.0134    9.7580   21.7590 H   0  0  0  0  0  0  0  0  0  0  0  0
   29.2086   10.3815   22.8813 H   0  0  0  0  0  0  0  0  0  0  0  0
   31.9553   11.8046   17.8401 H   0  0  0  0  0  0  0  0  0  0  0  0
   30.1371   12.6193   23.0103 H   0  0  0  0  0  0  0  0  0  0  0  0
   31.6223   14.5399   23.0314 H   0  0  0  0  0  0  0  0  0  0  0  0
   32.9878   15.0974   21.0475 H   0  0  0  0  0  0  0  0  0  0  0  0
   32.8651   13.7026   19.0260 H   0  0  0  0  0  0  0  0  0  0  0  0
   28.1015   11.9398   25.5643 H   0  0  0  0  0  0  0  0  0  0  0  0
   28.0596   14.8357   26.6812 H   0  0  0  0  0  0  0  0  0  0  0  0
   29.1175    8.1356   19.1157 H   0  0  0  0  0  0  0  0  0  0  0  0
   31.6534    9.0094   15.7409 H   0  0  0  0  0  0  0  0  0  0  0  0
  1  5  2  0
  2  3  2  0
  3  4  1  0
  4  6  2  0
  5  6  1  0
  5 10  1  0
  6  7  1  0
  7  8  2  0
  8  9  1  0
  9 10  2  0
  4 11  1  0
 11 12  1  0
 12 17  2  0
 12 15  1  0
 16 13  2  0
 13 14  1  0
 14 15  2  0
 16 17  1  0
 16 21  1  0
 17 18  1  0
 18 19  2  0
 19 20  1  0
 20 21  2  0
  3 22  1  0
  2 23  1  0
 23 24  1  0
 23 25  2  0
 15 26  1  0
 14 27  1  0
  1  2  1  0
 27 28  1  0
 27 29  2  0
  1 30  1  0
  7 31  1  0
  8 32  1  0
  9 33  1  0
 10 34  1  0
 11 35  1  0
 11 36  1  0
 13 37  1  0
 18 38  1  0
 19 39  1  0
 20 40  1  0
 21 41  1  0
 22 42  1  0
 24 43  1  0
 26 44  1  0
 28 45  1  0
M  END
> <Uni-Dock RESULT> 
ENERGY=   -3.731  LOWER_BOUND=    8.604  UPPER_BOUND=   11.273
INTER + INTRA:          -3.731
INTER:                  -3.731
INTRA:                   0.000
UNBOUND:                 0.000

$$$$

     RDKit          3D

 45 48  0  0  0  0  0  0  0  0999 V2000
   25.3664   14.0255   22.0168 C   0  0  0  0  0  0  0  0  0  0  0  0
   26.1330   13.9517   23.1841 C   0  0  0  0  0  0  0  0  0  0  0  0
   27.1915   13.0182   23.2637 C   0  0  0  0  0  0  0  0  0  0  0  0
   27.5516   12.2426   22.1322 C   0  0  0  0  0  0  0  0  0  0  0  0
   25.6297   13.1886   20.9304 C   0  0  0  0  0  0  0  0  0  0  0  0
   26.7105   12.2709   20.9826 C   0  0  0  0  0  0  0  0  0  0  0  0
   26.8896   11.3917   19.8917 C   0  0  0  0  0  0  0  0  0  0  0  0
   26.0682   11.4687   18.7651 C   0  0  0  0  0  0  0  0  0  0  0  0
   25.0409   12.4071   18.7082 C   0  0  0  0  0  0  0  0  0  0  0  0
   24.8151   13.2591   19.7878 C   0  0  0  0  0  0  0  0  0  0  0  0
   28.8077   11.3709   22.1977 C   0  0  0  0  0  0  0  0  0  0  0  0
   29.8285   11.6920   21.1035 C   0  0  0  0  0  0  0  0  0  0  0  0
   31.5507   12.2542   18.9392 C   0  0  0  0  0  0  0  0  0  0  0  0
   31.0559   10.9573   19.1040 C   0  0  0  0  0  0  0  0  0  0  0  0
   30.2398   10.6604   20.2210 C   0  0  0  0  0  0  0  0  0  0  0  0
   31.2532   13.2599   19.8610 C   0  0  0  0  0  0  0  0  0  0  0  0
   30.4078   12.9863   20.9671 C   0  0  0  0  0  0  0  0  0  0  0  0
   30.1995   14.0128   21.9147 C   0  0  0  0  0  0  0  0  0  0  0  0
   30.7544   15.2812   21.7332 C   0  0  0  0  0  0  0  0  0  0  0  0
   31.5433   15.5490   20.6173 C   0  0  0  0  0  0  0  0  0  0  0  0
   31.8000   14.5426   19.6880 C   0  0  0  0  0  0  0  0  0  0  0  0
   27.8834   12.8222   24.4642 O   0  0  0  0  0  0  0  0  0  0  0  0
   25.8362   14.8993   24.2809 C   0  0  0  0  0  0  0  0  0  0  0  0
   26.8689   15.4686   25.0209 O   0  0  0  0  0  0  0  0  0  0  0  0
   24.6455   15.2401   24.5161 O   0  0  0  0  0  0  0  0  0  0  0  0
   29.8459    9.3450   20.4923 O   0  0  0  0  0  0  0  0  0  0  0  0
   31.3759    9.9541   18.0643 C   0  0  0  0  0  0  0  0  0  0  0  0
   32.6044   10.0001   17.4107 O   0  0  0  0  0  0  0  0  0  0  0  0
   30.5249    9.0900   17.7213 O   0  0  0  0  0  0  0  0  0  0  0  0
   24.5552   14.7431   21.9538 H   0  0  0  0  0  0  0  0  0  0  0  0
   27.6326   10.6146   19.9062 H   0  0  0  0  0  0  0  0  0  0  0  0
   26.2234   10.7893   17.9366 H   0  0  0  0  0  0  0  0  0  0  0  0
   24.4065   12.4624   17.8329 H   0  0  0  0  0  0  0  0  0  0  0  0
   23.9968   13.9677   19.7338 H   0  0  0  0  0  0  0  0  0  0  0  0
   28.4707   10.3150   22.1636 H   0  0  0  0  0  0  0  0  0  0  0  0
   29.3349   11.4634   23.1691 H   0  0  0  0  0  0  0  0  0  0  0  0
   32.1755   12.4839   18.0826 H   0  0  0  0  0  0  0  0  0  0  0  0
   29.6438   13.8443   22.8197 H   0  0  0  0  0  0  0  0  0  0  0  0
   30.5800   16.0567   22.4680 H   0  0  0  0  0  0  0  0  0  0  0  0
   31.9719   16.5337   20.4815 H   0  0  0  0  0  0  0  0  0  0  0  0
   32.4346   14.7641   18.8378 H   0  0  0  0  0  0  0  0  0  0  0  0
   27.5753   13.1905   25.3539 H   0  0  0  0  0  0  0  0  0  0  0  0
   26.6741   16.1330   25.7604 H   0  0  0  0  0  0  0  0  0  0  0  0
   30.2392    8.5353   20.0322 H   0  0  0  0  0  0  0  0  0  0  0  0
   32.8308    9.3347   16.6812 H   0  0  0  0  0  0  0  0  0  0  0  0
  1  5  2  0
  2  3  2  0
  3  4  1  0
  4  6  2  0
  5  6  1  0
  5 10  1  0
  6  7  1  0
  7  8  2  0
  8  9  1  0
  9 10  2  0
  4 11  1  0
 11 12  1  0
 12 17  2  0
 12 15  1  0
 16 13  2  0
 13 14  1  0
 14 15  2  0
 16 17  1  0
 16 21  1  0
 17 18  1  0
 18 19  2  0
 19 20  1  0
 20 21  2  0
  3 22  1  0
  2 23  1  0
 23 24  1  0
 23 25  2  0
 15 26  1  0
 14 27  1  0
  1  2  1  0
 27 28  1  0
 27 29  2  0
  1 30  1  0
  7 31  1  0
  8 32  1  0
  9 33  1  0
 10 34  1  0
 11 35  1  0
 11 36  1  0
 13 37  1  0
 18 38  1  0
 19 39  1  0
 20 40  1  0
 21 41  1  0
 22 42  1  0
 24 43  1  0
 26 44  1  0
 28 45  1  0
M  END
> <Uni-Dock RESULT> 
ENERGY=   -3.717  LOWER_BOUND=    9.133  UPPER_BOUND=   11.423
INTER + INTRA:          -3.717
INTER:                  -3.717
INTRA:                   0.000
UNBOUND:                 0.000

$$$$
