
     RDKit          3D

 45 48  0  0  0  0  0  0  0  0999 V2000
   31.5295   12.8796   19.2612 C   0  0  0  0  0  0  0  0  0  0  0  0
   31.1025   13.6937   20.3125 C   0  0  0  0  0  0  0  0  0  0  0  0
   30.2674   13.1515   21.3159 C   0  0  0  0  0  0  0  0  0  0  0  0
   29.7605   11.8320   21.1958 C   0  0  0  0  0  0  0  0  0  0  0  0
   31.1458   11.5392   19.1871 C   0  0  0  0  0  0  0  0  0  0  0  0
   30.2744   10.9874   20.1643 C   0  0  0  0  0  0  0  0  0  0  0  0
   29.9733    9.6052   20.0760 C   0  0  0  0  0  0  0  0  0  0  0  0
   30.4711    8.8275   19.0280 C   0  0  0  0  0  0  0  0  0  0  0  0
   31.2888    9.3958   18.0561 C   0  0  0  0  0  0  0  0  0  0  0  0
   31.6316   10.7429   18.1366 C   0  0  0  0  0  0  0  0  0  0  0  0
   28.7170   11.3508   22.2080 C   0  0  0  0  0  0  0  0  0  0  0  0
   27.5614   12.3329   22.3835 C   0  0  0  0  0  0  0  0  0  0  0  0
   25.4960   14.2217   22.7342 C   0  0  0  0  0  0  0  0  0  0  0  0
   26.3298   13.9064   23.8127 C   0  0  0  0  0  0  0  0  0  0  0  0
   27.3871   12.9851   23.6301 C   0  0  0  0  0  0  0  0  0  0  0  0
   25.6477   13.5887   21.4982 C   0  0  0  0  0  0  0  0  0  0  0  0
   26.6650   12.6181   21.3148 C   0  0  0  0  0  0  0  0  0  0  0  0
   26.7496   11.9649   20.0634 C   0  0  0  0  0  0  0  0  0  0  0  0
   25.8723   12.2891   19.0265 C   0  0  0  0  0  0  0  0  0  0  0  0
   24.8908   13.2593   19.2143 C   0  0  0  0  0  0  0  0  0  0  0  0
   24.7736   13.9043   20.4445 C   0  0  0  0  0  0  0  0  0  0  0  0
   29.9580   13.8885   22.4631 O   0  0  0  0  0  0  0  0  0  0  0  0
   31.5165   15.1146   20.3054 C   0  0  0  0  0  0  0  0  0  0  0  0
   32.7595   15.4727   19.7902 O   0  0  0  0  0  0  0  0  0  0  0  0
   30.7322   16.0146   20.7098 O   0  0  0  0  0  0  0  0  0  0  0  0
   28.3038   12.7322   24.6566 O   0  0  0  0  0  0  0  0  0  0  0  0
   26.0459   14.5306   25.1236 C   0  0  0  0  0  0  0  0  0  0  0  0
   26.1641   13.7927   26.2981 O   0  0  0  0  0  0  0  0  0  0  0  0
   25.6397   15.7228   25.1801 O   0  0  0  0  0  0  0  0  0  0  0  0
   32.1709   13.2943   18.4907 H   0  0  0  0  0  0  0  0  0  0  0  0
   29.3876    9.0855   20.8147 H   0  0  0  0  0  0  0  0  0  0  0  0
   30.2278    7.7738   18.9754 H   0  0  0  0  0  0  0  0  0  0  0  0
   31.6711    8.7870   17.2470 H   0  0  0  0  0  0  0  0  0  0  0  0
   32.2854   11.1617   17.3804 H   0  0  0  0  0  0  0  0  0  0  0  0
   28.2410   10.3954   21.9329 H   0  0  0  0  0  0  0  0  0  0  0  0
   29.2450   11.1428   23.1609 H   0  0  0  0  0  0  0  0  0  0  0  0
   24.6938   14.9392   22.8706 H   0  0  0  0  0  0  0  0  0  0  0  0
   27.4785   11.1935   19.8705 H   0  0  0  0  0  0  0  0  0  0  0  0
   25.9527   11.7820   18.0734 H   0  0  0  0  0  0  0  0  0  0  0  0
   24.2130   13.5060   18.4072 H   0  0  0  0  0  0  0  0  0  0  0  0
   23.9953   14.6472   20.5744 H   0  0  0  0  0  0  0  0  0  0  0  0
   30.4211   14.7496   22.7200 H   0  0  0  0  0  0  0  0  0  0  0  0
   33.0493   16.4430   19.7580 H   0  0  0  0  0  0  0  0  0  0  0  0
   28.3715   13.2891   25.4975 H   0  0  0  0  0  0  0  0  0  0  0  0
   25.9523   14.2084   27.1972 H   0  0  0  0  0  0  0  0  0  0  0  0
  1  5  2  0
  2  3  2  0
  3  4  1  0
  4  6  2  0
  5  6  1  0
  5 10  1  0
  6  7  1  0
  7  8  2  0
  8  9  1  0
  9 10  2  0
  4 11  1  0
 11 12  1  0
 12 17  2  0
 12 15  1  0
 16 13  2  0
 13 14  1  0
 14 15  2  0
 16 17  1  0
 16 21  1  0
 17 18  1  0
 18 19  2  0
 19 20  1  0
 20 21  2  0
  3 22  1  0
  2 23  1  0
 23 24  1  0
 23 25  2  0
 15 26  1  0
 14 27  1  0
  1  2  1  0
 27 28  1  0
 27 29  2  0
  1 30  1  0
  7 31  1  0
  8 32  1  0
  9 33  1  0
 10 34  1  0
 11 35  1  0
 11 36  1  0
 13 37  1  0
 18 38  1  0
 19 39  1  0
 20 40  1  0
 21 41  1  0
 22 42  1  0
 24 43  1  0
 26 44  1  0
 28 45  1  0
M  END
> <Uni-Dock RESULT> 
ENERGY=   -4.286  LOWER_BOUND=    0.000  UPPER_BOUND=    0.000
INTER + INTRA:          -4.286
INTER:                  -4.286
INTRA:                   0.000
UNBOUND:                 0.000

$$$$

     RDKit          3D

 45 48  0  0  0  0  0  0  0  0999 V2000
   22.9629    5.1996   30.4646 C   0  0  0  0  0  0  0  0  0  0  0  0
   24.1531    5.4890   31.1355 C   0  0  0  0  0  0  0  0  0  0  0  0
   24.3438    6.7760   31.6880 C   0  0  0  0  0  0  0  0  0  0  0  0
   23.3963    7.8064   31.4577 C   0  0  0  0  0  0  0  0  0  0  0  0
   21.9588    6.1608   30.3329 C   0  0  0  0  0  0  0  0  0  0  0  0
   22.1489    7.4718   30.8465 C   0  0  0  0  0  0  0  0  0  0  0  0
   21.0697    8.3847   30.7433 C   0  0  0  0  0  0  0  0  0  0  0  0
   19.8814    8.0226   30.1048 C   0  0  0  0  0  0  0  0  0  0  0  0
   19.7299    6.7469   29.5701 C   0  0  0  0  0  0  0  0  0  0  0  0
   20.7591    5.8165   29.6882 C   0  0  0  0  0  0  0  0  0  0  0  0
   23.7305    9.2282   31.9181 C   0  0  0  0  0  0  0  0  0  0  0  0
   25.1139    9.6899   31.4668 C   0  0  0  0  0  0  0  0  0  0  0  0
   27.7116   10.4596   30.6823 C   0  0  0  0  0  0  0  0  0  0  0  0
   27.4080   10.3527   32.0439 C   0  0  0  0  0  0  0  0  0  0  0  0
   26.1163    9.9342   32.4392 C   0  0  0  0  0  0  0  0  0  0  0  0
   26.7385   10.2269   29.7075 C   0  0  0  0  0  0  0  0  0  0  0  0
   25.4214    9.8647   30.0878 C   0  0  0  0  0  0  0  0  0  0  0  0
   24.4550    9.6893   29.0704 C   0  0  0  0  0  0  0  0  0  0  0  0
   24.7971    9.8405   27.7250 C   0  0  0  0  0  0  0  0  0  0  0  0
   26.1000   10.1766   27.3650 C   0  0  0  0  0  0  0  0  0  0  0  0
   27.0670   10.3741   28.3494 C   0  0  0  0  0  0  0  0  0  0  0  0
   25.4466    7.0471   32.5038 O   0  0  0  0  0  0  0  0  0  0  0  0
   25.1889    4.4340   31.2024 C   0  0  0  0  0  0  0  0  0  0  0  0
   24.8126    3.0959   31.2836 O   0  0  0  0  0  0  0  0  0  0  0  0
   26.4123    4.7289   31.1301 O   0  0  0  0  0  0  0  0  0  0  0  0
   25.8152    9.7119   33.7875 O   0  0  0  0  0  0  0  0  0  0  0  0
   28.4522   10.7198   33.0256 C   0  0  0  0  0  0  0  0  0  0  0  0
   28.1207   11.4229   34.1803 O   0  0  0  0  0  0  0  0  0  0  0  0
   29.6608   10.4458   32.7935 O   0  0  0  0  0  0  0  0  0  0  0  0
   22.8151    4.2120   30.0405 H   0  0  0  0  0  0  0  0  0  0  0  0
   21.0947    9.3714   31.1732 H   0  0  0  0  0  0  0  0  0  0  0  0
   19.0690    8.7345   30.0329 H   0  0  0  0  0  0  0  0  0  0  0  0
   18.8062    6.4731   29.0769 H   0  0  0  0  0  0  0  0  0  0  0  0
   20.6136    4.8222   29.2821 H   0  0  0  0  0  0  0  0  0  0  0  0
   23.0349    9.9926   31.5349 H   0  0  0  0  0  0  0  0  0  0  0  0
   23.6114    9.2606   33.0203 H   0  0  0  0  0  0  0  0  0  0  0  0
   28.7070   10.7670   30.3790 H   0  0  0  0  0  0  0  0  0  0  0  0
   23.4281    9.4469   29.2944 H   0  0  0  0  0  0  0  0  0  0  0  0
   24.0461    9.6993   26.9582 H   0  0  0  0  0  0  0  0  0  0  0  0
   26.3592   10.2931   26.3205 H   0  0  0  0  0  0  0  0  0  0  0  0
   28.0718   10.6474   28.0493 H   0  0  0  0  0  0  0  0  0  0  0  0
   26.0616    6.3347   32.8726 H   0  0  0  0  0  0  0  0  0  0  0  0
   25.5087    2.3603   31.3082 H   0  0  0  0  0  0  0  0  0  0  0  0
   26.5124    9.6719   34.5183 H   0  0  0  0  0  0  0  0  0  0  0  0
   28.8336   11.6944   34.8468 H   0  0  0  0  0  0  0  0  0  0  0  0
  1  5  2  0
  2  3  2  0
  3  4  1  0
  4  6  2  0
  5  6  1  0
  5 10  1  0
  6  7  1  0
  7  8  2  0
  8  9  1  0
  9 10  2  0
  4 11  1  0
 11 12  1  0
 12 17  2  0
 12 15  1  0
 16 13  2  0
 13 14  1  0
 14 15  2  0
 16 17  1  0
 16 21  1  0
 17 18  1  0
 18 19  2  0
 19 20  1  0
 20 21  2  0
  3 22  1  0
  2 23  1  0
 23 24  1  0
 23 25  2  0
 15 26  1  0
 14 27  1  0
  1  2  1  0
 27 28  1  0
 27 29  2  0
  1 30  1  0
  7 31  1  0
  8 32  1  0
  9 33  1  0
 10 34  1  0
 11 35  1  0
 11 36  1  0
 13 37  1  0
 18 38  1  0
 19 39  1  0
 20 40  1  0
 21 41  1  0
 22 42  1  0
 24 43  1  0
 26 44  1  0
 28 45  1  0
M  END
> <Uni-Dock RESULT> 
ENERGY=   -4.227  LOWER_BOUND=    9.111  UPPER_BOUND=   12.613
INTER + INTRA:          -4.227
INTER:                  -4.227
INTRA:                   0.000
UNBOUND:                 0.000

$$$$

     RDKit          3D

 45 48  0  0  0  0  0  0  0  0999 V2000
   30.8135   12.0880   21.5800 C   0  0  0  0  0  0  0  0  0  0  0  0
   29.5548   11.6485   21.9959 C   0  0  0  0  0  0  0  0  0  0  0  0
   28.9847   12.1868   23.1720 C   0  0  0  0  0  0  0  0  0  0  0  0
   29.7304   13.0691   23.9953 C   0  0  0  0  0  0  0  0  0  0  0  0
   31.5159   13.0511   22.3068 C   0  0  0  0  0  0  0  0  0  0  0  0
   30.9769   13.5740   23.5129 C   0  0  0  0  0  0  0  0  0  0  0  0
   31.7029   14.5975   24.1720 C   0  0  0  0  0  0  0  0  0  0  0  0
   32.9356   15.0337   23.6810 C   0  0  0  0  0  0  0  0  0  0  0  0
   33.4676   14.4790   22.5210 C   0  0  0  0  0  0  0  0  0  0  0  0
   32.7604   13.4975   21.8316 C   0  0  0  0  0  0  0  0  0  0  0  0
   29.1450   13.4823   25.3487 C   0  0  0  0  0  0  0  0  0  0  0  0
   28.6590   12.2938   26.1745 C   0  0  0  0  0  0  0  0  0  0  0  0
   27.6976   10.0711   27.6207 C   0  0  0  0  0  0  0  0  0  0  0  0
   26.8007   11.0618   27.2060 C   0  0  0  0  0  0  0  0  0  0  0  0
   27.2751   12.1599   26.4517 C   0  0  0  0  0  0  0  0  0  0  0  0
   29.0655   10.1846   27.3614 C   0  0  0  0  0  0  0  0  0  0  0  0
   29.5665   11.3094   26.6582 C   0  0  0  0  0  0  0  0  0  0  0  0
   30.9636   11.4093   26.4632 C   0  0  0  0  0  0  0  0  0  0  0  0
   31.8236   10.4112   26.9256 C   0  0  0  0  0  0  0  0  0  0  0  0
   31.3155    9.3016   27.5970 C   0  0  0  0  0  0  0  0  0  0  0  0
   29.9440    9.1884   27.8194 C   0  0  0  0  0  0  0  0  0  0  0  0
   27.6641   11.8929   23.5250 O   0  0  0  0  0  0  0  0  0  0  0  0
   28.8856   10.5970   21.1977 C   0  0  0  0  0  0  0  0  0  0  0  0
   29.0653   10.5534   19.8177 O   0  0  0  0  0  0  0  0  0  0  0  0
   28.1975    9.7032   21.7602 O   0  0  0  0  0  0  0  0  0  0  0  0
   26.3886   13.1083   25.9294 O   0  0  0  0  0  0  0  0  0  0  0  0
   25.3826   10.9359   27.6084 C   0  0  0  0  0  0  0  0  0  0  0  0
   24.6575   12.0572   28.0020 O   0  0  0  0  0  0  0  0  0  0  0  0
   24.8371    9.8000   27.6510 O   0  0  0  0  0  0  0  0  0  0  0  0
   31.2520   11.6760   20.6772 H   0  0  0  0  0  0  0  0  0  0  0  0
   31.3344   15.1065   25.0461 H   0  0  0  0  0  0  0  0  0  0  0  0
   33.4772   15.8145   24.1997 H   0  0  0  0  0  0  0  0  0  0  0  0
   34.4233   14.8221   22.1461 H   0  0  0  0  0  0  0  0  0  0  0  0
   33.1831   13.0923   20.9196 H   0  0  0  0  0  0  0  0  0  0  0  0
   29.8625   14.0084   25.9994 H   0  0  0  0  0  0  0  0  0  0  0  0
   28.3407   14.2210   25.1548 H   0  0  0  0  0  0  0  0  0  0  0  0
   27.3311    9.2215   28.1871 H   0  0  0  0  0  0  0  0  0  0  0  0
   31.4113   12.2556   25.9663 H   0  0  0  0  0  0  0  0  0  0  0  0
   32.8905   10.5012   26.7650 H   0  0  0  0  0  0  0  0  0  0  0  0
   31.9870    8.5313   27.9539 H   0  0  0  0  0  0  0  0  0  0  0  0
   29.5698    8.3236   28.3547 H   0  0  0  0  0  0  0  0  0  0  0  0
   27.0062   11.4348   22.9093 H   0  0  0  0  0  0  0  0  0  0  0  0
   28.6320    9.8274   19.2594 H   0  0  0  0  0  0  0  0  0  0  0  0
   25.3852   12.9873   25.9110 H   0  0  0  0  0  0  0  0  0  0  0  0
   23.6920   11.9750   28.2974 H   0  0  0  0  0  0  0  0  0  0  0  0
  1  5  2  0
  2  3  2  0
  3  4  1  0
  4  6  2  0
  5  6  1  0
  5 10  1  0
  6  7  1  0
  7  8  2  0
  8  9  1  0
  9 10  2  0
  4 11  1  0
 11 12  1  0
 12 17  2  0
 12 15  1  0
 16 13  2  0
 13 14  1  0
 14 15  2  0
 16 17  1  0
 16 21  1  0
 17 18  1  0
 18 19  2  0
 19 20  1  0
 20 21  2  0
  3 22  1  0
  2 23  1  0
 23 24  1  0
 23 25  2  0
 15 26  1  0
 14 27  1  0
  1  2  1  0
 27 28  1  0
 27 29  2  0
  1 30  1  0
  7 31  1  0
  8 32  1  0
  9 33  1  0
 10 34  1  0
 11 35  1  0
 11 36  1  0
 13 37  1  0
 18 38  1  0
 19 39  1  0
 20 40  1  0
 21 41  1  0
 22 42  1  0
 24 43  1  0
 26 44  1  0
 28 45  1  0
M  END
> <Uni-Dock RESULT> 
ENERGY=   -3.923  LOWER_BOUND=    3.646  UPPER_BOUND=    5.978
INTER + INTRA:          -3.923
INTER:                  -3.923
INTRA:                   0.000
UNBOUND:                 0.000

$$$$

     RDKit          3D

 45 48  0  0  0  0  0  0  0  0999 V2000
   25.4223   12.0771   28.9809 C   0  0  0  0  0  0  0  0  0  0  0  0
   25.9007   11.2352   27.9745 C   0  0  0  0  0  0  0  0  0  0  0  0
   26.9633   11.6715   27.1507 C   0  0  0  0  0  0  0  0  0  0  0  0
   27.4582   12.9968   27.2549 C   0  0  0  0  0  0  0  0  0  0  0  0
   25.9782   13.3413   29.1864 C   0  0  0  0  0  0  0  0  0  0  0  0
   27.0196   13.8128   28.3427 C   0  0  0  0  0  0  0  0  0  0  0  0
   27.5908   15.0753   28.6407 C   0  0  0  0  0  0  0  0  0  0  0  0
   27.1040   15.8532   29.6936 C   0  0  0  0  0  0  0  0  0  0  0  0
   26.0544   15.3926   30.4826 C   0  0  0  0  0  0  0  0  0  0  0  0
   25.4971   14.1405   30.2369 C   0  0  0  0  0  0  0  0  0  0  0  0
   28.4804   13.4827   26.2234 C   0  0  0  0  0  0  0  0  0  0  0  0
   28.0522   13.2041   24.7847 C   0  0  0  0  0  0  0  0  0  0  0  0
   27.2538   12.5873   22.1507 C   0  0  0  0  0  0  0  0  0  0  0  0
   28.4175   12.0091   22.6696 C   0  0  0  0  0  0  0  0  0  0  0  0
   28.8013   12.2904   24.0014 C   0  0  0  0  0  0  0  0  0  0  0  0
   26.5025   13.4927   22.9037 C   0  0  0  0  0  0  0  0  0  0  0  0
   26.9062   13.8323   24.2199 C   0  0  0  0  0  0  0  0  0  0  0  0
   26.1455   14.7921   24.9270 C   0  0  0  0  0  0  0  0  0  0  0  0
   25.0098   15.3681   24.3541 C   0  0  0  0  0  0  0  0  0  0  0  0
   24.6133   15.0098   23.0678 C   0  0  0  0  0  0  0  0  0  0  0  0
   25.3567   14.0804   22.3419 C   0  0  0  0  0  0  0  0  0  0  0  0
   27.5728   10.7955   26.2472 O   0  0  0  0  0  0  0  0  0  0  0  0
   25.2376    9.9252   27.7890 C   0  0  0  0  0  0  0  0  0  0  0  0
   24.7246    9.2448   28.8902 O   0  0  0  0  0  0  0  0  0  0  0  0
   25.0808    9.4417   26.6355 O   0  0  0  0  0  0  0  0  0  0  0  0
   29.8967   11.6436   24.5843 O   0  0  0  0  0  0  0  0  0  0  0  0
   29.2265   11.1452   21.7820 C   0  0  0  0  0  0  0  0  0  0  0  0
   30.6169   11.2066   21.8116 O   0  0  0  0  0  0  0  0  0  0  0  0
   28.6582   10.3861   20.9511 O   0  0  0  0  0  0  0  0  0  0  0  0
   24.6072   11.7434   29.6142 H   0  0  0  0  0  0  0  0  0  0  0  0
   28.4346   15.4768   28.1060 H   0  0  0  0  0  0  0  0  0  0  0  0
   27.5510   16.8164   29.9043 H   0  0  0  0  0  0  0  0  0  0  0  0
   25.6823   16.0007   31.2971 H   0  0  0  0  0  0  0  0  0  0  0  0
   24.6935   13.7919   30.8751 H   0  0  0  0  0  0  0  0  0  0  0  0
   28.6659   14.5686   26.2613 H   0  0  0  0  0  0  0  0  0  0  0  0
   29.4559   13.0175   26.4729 H   0  0  0  0  0  0  0  0  0  0  0  0
   26.9517   12.3602   21.1337 H   0  0  0  0  0  0  0  0  0  0  0  0
   26.4183   15.1189   25.9181 H   0  0  0  0  0  0  0  0  0  0  0  0
   24.4365   16.0988   24.9102 H   0  0  0  0  0  0  0  0  0  0  0  0
   23.7324   15.4601   22.6285 H   0  0  0  0  0  0  0  0  0  0  0  0
   25.0387   13.8245   21.3380 H   0  0  0  0  0  0  0  0  0  0  0  0
   27.4164    9.7969   26.2400 H   0  0  0  0  0  0  0  0  0  0  0  0
   24.2487    8.3575   28.7781 H   0  0  0  0  0  0  0  0  0  0  0  0
   30.3612   10.8460   24.1721 H   0  0  0  0  0  0  0  0  0  0  0  0
   31.1763   10.6319   21.1928 H   0  0  0  0  0  0  0  0  0  0  0  0
  1  5  2  0
  2  3  2  0
  3  4  1  0
  4  6  2  0
  5  6  1  0
  5 10  1  0
  6  7  1  0
  7  8  2  0
  8  9  1  0
  9 10  2  0
  4 11  1  0
 11 12  1  0
 12 17  2  0
 12 15  1  0
 16 13  2  0
 13 14  1  0
 14 15  2  0
 16 17  1  0
 16 21  1  0
 17 18  1  0
 18 19  2  0
 19 20  1  0
 20 21  2  0
  3 22  1  0
  2 23  1  0
 23 24  1  0
 23 25  2  0
 15 26  1  0
 14 27  1  0
  1  2  1  0
 27 28  1  0
 27 29  2  0
  1 30  1  0
  7 31  1  0
  8 32  1  0
  9 33  1  0
 10 34  1  0
 11 35  1  0
 11 36  1  0
 13 37  1  0
 18 38  1  0
 19 39  1  0
 20 40  1  0
 21 41  1  0
 22 42  1  0
 24 43  1  0
 26 44  1  0
 28 45  1  0
M  END
> <Uni-Dock RESULT> 
ENERGY=   -3.858  LOWER_BOUND=    3.323  UPPER_BOUND=    8.231
INTER + INTRA:          -3.858
INTER:                  -3.858
INTRA:                   0.000
UNBOUND:                 0.000

$$$$

     RDKit          3D

 45 48  0  0  0  0  0  0  0  0999 V2000
   25.0970   14.7869   22.3641 C   0  0  0  0  0  0  0  0  0  0  0  0
   25.5399   13.9715   21.3203 C   0  0  0  0  0  0  0  0  0  0  0  0
   26.4784   12.9491   21.5879 C   0  0  0  0  0  0  0  0  0  0  0  0
   27.0650   12.8282   22.8739 C   0  0  0  0  0  0  0  0  0  0  0  0
   25.5657   14.6066   23.6669 C   0  0  0  0  0  0  0  0  0  0  0  0
   26.5392   13.6106   23.9476 C   0  0  0  0  0  0  0  0  0  0  0  0
   26.9276   13.4284   25.2985 C   0  0  0  0  0  0  0  0  0  0  0  0
   26.4121   14.2422   26.3098 C   0  0  0  0  0  0  0  0  0  0  0  0
   25.4912   15.2411   26.0090 C   0  0  0  0  0  0  0  0  0  0  0  0
   25.0632   15.4201   24.6962 C   0  0  0  0  0  0  0  0  0  0  0  0
   28.2075   11.8274   23.0692 C   0  0  0  0  0  0  0  0  0  0  0  0
   29.3025   11.9612   22.0138 C   0  0  0  0  0  0  0  0  0  0  0  0
   31.2528   12.1924   19.9892 C   0  0  0  0  0  0  0  0  0  0  0  0
   30.5203   11.0059   20.1060 C   0  0  0  0  0  0  0  0  0  0  0  0
   29.5186   10.9002   21.0986 C   0  0  0  0  0  0  0  0  0  0  0  0
   31.0586   13.2489   20.8821 C   0  0  0  0  0  0  0  0  0  0  0  0
   30.1000   13.1368   21.9210 C   0  0  0  0  0  0  0  0  0  0  0  0
   29.9729   14.2096   22.8335 C   0  0  0  0  0  0  0  0  0  0  0  0
   30.7510   15.3610   22.6968 C   0  0  0  0  0  0  0  0  0  0  0  0
   31.6744   15.4658   21.6592 C   0  0  0  0  0  0  0  0  0  0  0  0
   31.8330   14.4146   20.7576 C   0  0  0  0  0  0  0  0  0  0  0  0
   26.8162   12.0142   20.6046 O   0  0  0  0  0  0  0  0  0  0  0  0
   25.0298   14.2455   19.9583 C   0  0  0  0  0  0  0  0  0  0  0  0
   23.7321   14.7196   19.7855 O   0  0  0  0  0  0  0  0  0  0  0  0
   25.7769   14.1080   18.9525 O   0  0  0  0  0  0  0  0  0  0  0  0
   28.6957    9.7707   21.1701 O   0  0  0  0  0  0  0  0  0  0  0  0
   30.8519    9.8856   19.1984 C   0  0  0  0  0  0  0  0  0  0  0  0
   30.8673    8.5757   19.6692 O   0  0  0  0  0  0  0  0  0  0  0  0
   31.1784   10.1174   18.0029 O   0  0  0  0  0  0  0  0  0  0  0  0
   24.3762   15.5717   22.1603 H   0  0  0  0  0  0  0  0  0  0  0  0
   27.5980   12.6476   25.6145 H   0  0  0  0  0  0  0  0  0  0  0  0
   26.7228   14.0902   27.3357 H   0  0  0  0  0  0  0  0  0  0  0  0
   25.0957   15.8679   26.7979 H   0  0  0  0  0  0  0  0  0  0  0  0
   24.3308   16.1908   24.4859 H   0  0  0  0  0  0  0  0  0  0  0  0
   28.7275   11.9322   24.0355 H   0  0  0  0  0  0  0  0  0  0  0  0
   27.7632   10.8115   23.0927 H   0  0  0  0  0  0  0  0  0  0  0  0
   32.0115   12.2786   19.2184 H   0  0  0  0  0  0  0  0  0  0  0  0
   29.2870   14.1732   23.6651 H   0  0  0  0  0  0  0  0  0  0  0  0
   30.6389   16.1748   23.4019 H   0  0  0  0  0  0  0  0  0  0  0  0
   32.2753   16.3605   21.5586 H   0  0  0  0  0  0  0  0  0  0  0  0
   32.5656   14.5105   19.9648 H   0  0  0  0  0  0  0  0  0  0  0  0
   26.3143   11.9082   19.7336 H   0  0  0  0  0  0  0  0  0  0  0  0
   23.3748   14.9328   18.8617 H   0  0  0  0  0  0  0  0  0  0  0  0
   28.6490    9.0646   20.4484 H   0  0  0  0  0  0  0  0  0  0  0  0
   31.1126    7.8060   19.0579 H   0  0  0  0  0  0  0  0  0  0  0  0
  1  5  2  0
  2  3  2  0
  3  4  1  0
  4  6  2  0
  5  6  1  0
  5 10  1  0
  6  7  1  0
  7  8  2  0
  8  9  1  0
  9 10  2  0
  4 11  1  0
 11 12  1  0
 12 17  2  0
 12 15  1  0
 16 13  2  0
 13 14  1  0
 14 15  2  0
 16 17  1  0
 16 21  1  0
 17 18  1  0
 18 19  2  0
 19 20  1  0
 20 21  2  0
  3 22  1  0
  2 23  1  0
 23 24  1  0
 23 25  2  0
 15 26  1  0
 14 27  1  0
  1  2  1  0
 27 28  1  0
 27 29  2  0
  1 30  1  0
  7 31  1  0
  8 32  1  0
  9 33  1  0
 10 34  1  0
 11 35  1  0
 11 36  1  0
 13 37  1  0
 18 38  1  0
 19 39  1  0
 20 40  1  0
 21 41  1  0
 22 42  1  0
 24 43  1  0
 26 44  1  0
 28 45  1  0
M  END
> <Uni-Dock RESULT> 
ENERGY=   -3.790  LOWER_BOUND=    2.634  UPPER_BOUND=    6.951
INTER + INTRA:          -3.790
INTER:                  -3.790
INTRA:                   0.000
UNBOUND:                 0.000

$$$$

     RDKit          3D

 45 48  0  0  0  0  0  0  0  0999 V2000
   27.3259   12.2372   30.3418 C   0  0  0  0  0  0  0  0  0  0  0  0
   28.5903   12.7228   30.0012 C   0  0  0  0  0  0  0  0  0  0  0  0
   29.1346   12.4145   28.7336 C   0  0  0  0  0  0  0  0  0  0  0  0
   28.4660   11.5173   27.8616 C   0  0  0  0  0  0  0  0  0  0  0  0
   26.5914   11.4539   29.4495 C   0  0  0  0  0  0  0  0  0  0  0  0
   27.1388   11.1001   28.1870 C   0  0  0  0  0  0  0  0  0  0  0  0
   26.3213   10.3603   27.2963 C   0  0  0  0  0  0  0  0  0  0  0  0
   25.0424    9.9440   27.6732 C   0  0  0  0  0  0  0  0  0  0  0  0
   24.5400   10.2639   28.9307 C   0  0  0  0  0  0  0  0  0  0  0  0
   25.3056   11.0207   29.8138 C   0  0  0  0  0  0  0  0  0  0  0  0
   29.1771   11.0702   26.5812 C   0  0  0  0  0  0  0  0  0  0  0  0
   30.6013   10.5805   26.8316 C   0  0  0  0  0  0  0  0  0  0  0  0
   33.2547    9.7688   27.3380 C   0  0  0  0  0  0  0  0  0  0  0  0
   33.0199   10.8842   26.5266 C   0  0  0  0  0  0  0  0  0  0  0  0
   31.6917   11.3132   26.2989 C   0  0  0  0  0  0  0  0  0  0  0  0
   32.1952    9.0303   27.8704 C   0  0  0  0  0  0  0  0  0  0  0  0
   30.8558    9.4111   27.6028 C   0  0  0  0  0  0  0  0  0  0  0  0
   29.8147    8.6051   28.1187 C   0  0  0  0  0  0  0  0  0  0  0  0
   30.0989    7.4804   28.8958 C   0  0  0  0  0  0  0  0  0  0  0  0
   31.4192    7.1297   29.1678 C   0  0  0  0  0  0  0  0  0  0  0  0
   32.4645    7.8963   28.6550 C   0  0  0  0  0  0  0  0  0  0  0  0
   30.3189   13.0172   28.2989 O   0  0  0  0  0  0  0  0  0  0  0  0
   29.3277   13.5140   31.0115 C   0  0  0  0  0  0  0  0  0  0  0  0
   28.6309   14.3376   31.8918 O   0  0  0  0  0  0  0  0  0  0  0  0
   30.5788   13.4085   31.1225 O   0  0  0  0  0  0  0  0  0  0  0  0
   31.4294   12.4871   25.5839 O   0  0  0  0  0  0  0  0  0  0  0  0
   34.1824   11.5555   25.9047 C   0  0  0  0  0  0  0  0  0  0  0  0
   34.1126   12.0200   24.5943 O   0  0  0  0  0  0  0  0  0  0  0  0
   35.2654   11.6608   26.5417 O   0  0  0  0  0  0  0  0  0  0  0  0
   26.9068   12.4735   31.3141 H   0  0  0  0  0  0  0  0  0  0  0  0
   26.6219   10.1162   26.2918 H   0  0  0  0  0  0  0  0  0  0  0  0
   24.4336    9.3770   26.9804 H   0  0  0  0  0  0  0  0  0  0  0  0
   23.5479    9.9381   29.2160 H   0  0  0  0  0  0  0  0  0  0  0  0
   24.8882   11.2756   30.7810 H   0  0  0  0  0  0  0  0  0  0  0  0
   28.6749   10.2364   26.0638 H   0  0  0  0  0  0  0  0  0  0  0  0
   29.1395   11.9153   25.8639 H   0  0  0  0  0  0  0  0  0  0  0  0
   34.2744    9.4483   27.5242 H   0  0  0  0  0  0  0  0  0  0  0  0
   28.7760    8.8206   27.9232 H   0  0  0  0  0  0  0  0  0  0  0  0
   29.2900    6.8759   29.2861 H   0  0  0  0  0  0  0  0  0  0  0  0
   31.6334    6.2563   29.7702 H   0  0  0  0  0  0  0  0  0  0  0  0
   33.4849    7.5996   28.8675 H   0  0  0  0  0  0  0  0  0  0  0  0
   30.7557   13.8000   28.7660 H   0  0  0  0  0  0  0  0  0  0  0  0
   29.1185   14.8690   32.6034 H   0  0  0  0  0  0  0  0  0  0  0  0
   32.1382   13.1654   25.3405 H   0  0  0  0  0  0  0  0  0  0  0  0
   34.9114   12.4629   24.1561 H   0  0  0  0  0  0  0  0  0  0  0  0
  1  5  2  0
  2  3  2  0
  3  4  1  0
  4  6  2  0
  5  6  1  0
  5 10  1  0
  6  7  1  0
  7  8  2  0
  8  9  1  0
  9 10  2  0
  4 11  1  0
 11 12  1  0
 12 17  2  0
 12 15  1  0
 16 13  2  0
 13 14  1  0
 14 15  2  0
 16 17  1  0
 16 21  1  0
 17 18  1  0
 18 19  2  0
 19 20  1  0
 20 21  2  0
  3 22  1  0
  2 23  1  0
 23 24  1  0
 23 25  2  0
 15 26  1  0
 14 27  1  0
  1  2  1  0
 27 28  1  0
 27 29  2  0
  1 30  1  0
  7 31  1  0
  8 32  1  0
  9 33  1  0
 10 34  1  0
 11 35  1  0
 11 36  1  0
 13 37  1  0
 18 38  1  0
 19 39  1  0
 20 40  1  0
 21 41  1  0
 22 42  1  0
 24 43  1  0
 26 44  1  0
 28 45  1  0
M  END
> <Uni-Dock RESULT> 
ENERGY=   -3.772  LOWER_BOUND=    6.364  UPPER_BOUND=    9.723
INTER + INTRA:          -3.772
INTER:                  -3.772
INTRA:                   0.000
UNBOUND:                 0.000

$$$$

     RDKit          3D

 45 48  0  0  0  0  0  0  0  0999 V2000
   30.9799   11.6692   25.5928 C   0  0  0  0  0  0  0  0  0  0  0  0
   31.9563   12.0508   24.6701 C   0  0  0  0  0  0  0  0  0  0  0  0
   31.5815   12.8016   23.5326 C   0  0  0  0  0  0  0  0  0  0  0  0
   30.2138   13.0591   23.2582 C   0  0  0  0  0  0  0  0  0  0  0  0
   29.6407   12.0191   25.4098 C   0  0  0  0  0  0  0  0  0  0  0  0
   29.2390   12.7387   24.2525 C   0  0  0  0  0  0  0  0  0  0  0  0
   27.8788   13.1246   24.1534 C   0  0  0  0  0  0  0  0  0  0  0  0
   26.9549   12.7570   25.1343 C   0  0  0  0  0  0  0  0  0  0  0  0
   27.3593   12.0151   26.2398 C   0  0  0  0  0  0  0  0  0  0  0  0
   28.6960   11.6526   26.3829 C   0  0  0  0  0  0  0  0  0  0  0  0
   29.8427   13.7152   21.9251 C   0  0  0  0  0  0  0  0  0  0  0  0
   30.4891   13.0291   20.7242 C   0  0  0  0  0  0  0  0  0  0  0  0
   31.7777   11.7787   18.5489 C   0  0  0  0  0  0  0  0  0  0  0  0
   32.0694   13.1147   18.8451 C   0  0  0  0  0  0  0  0  0  0  0  0
   31.4500   13.7335   19.9558 C   0  0  0  0  0  0  0  0  0  0  0  0
   30.8319   11.0669   19.2906 C   0  0  0  0  0  0  0  0  0  0  0  0
   30.1572   11.6906   20.3706 C   0  0  0  0  0  0  0  0  0  0  0  0
   29.1704   10.9496   21.0612 C   0  0  0  0  0  0  0  0  0  0  0  0
   28.8893    9.6285   20.7068 C   0  0  0  0  0  0  0  0  0  0  0  0
   29.5746    9.0218   19.6568 C   0  0  0  0  0  0  0  0  0  0  0  0
   30.5384    9.7365   18.9473 C   0  0  0  0  0  0  0  0  0  0  0  0
   32.5508   13.3383   22.6797 O   0  0  0  0  0  0  0  0  0  0  0  0
   33.3492   11.6112   24.9085 C   0  0  0  0  0  0  0  0  0  0  0  0
   33.8266   11.4934   26.2112 O   0  0  0  0  0  0  0  0  0  0  0  0
   34.0946   11.2867   23.9452 O   0  0  0  0  0  0  0  0  0  0  0  0
   31.8024   15.0311   20.3431 O   0  0  0  0  0  0  0  0  0  0  0  0
   32.9977   13.8437   17.9532 C   0  0  0  0  0  0  0  0  0  0  0  0
   32.7516   15.1697   17.6087 O   0  0  0  0  0  0  0  0  0  0  0  0
   33.9904   13.2485   17.4534 O   0  0  0  0  0  0  0  0  0  0  0  0
   31.2662   11.0933   26.4665 H   0  0  0  0  0  0  0  0  0  0  0  0
   27.5012   13.7379   23.3532 H   0  0  0  0  0  0  0  0  0  0  0  0
   25.9193   13.0583   25.0399 H   0  0  0  0  0  0  0  0  0  0  0  0
   26.6379   11.7340   26.9962 H   0  0  0  0  0  0  0  0  0  0  0  0
   28.9941   11.0916   27.2610 H   0  0  0  0  0  0  0  0  0  0  0  0
   28.7612   13.7048   21.7124 H   0  0  0  0  0  0  0  0  0  0  0  0
   30.1098   14.7894   21.9941 H   0  0  0  0  0  0  0  0  0  0  0  0
   32.2638   11.2998   17.7053 H   0  0  0  0  0  0  0  0  0  0  0  0
   28.5976   11.3765   21.8693 H   0  0  0  0  0  0  0  0  0  0  0  0
   28.1333    9.0739   21.2480 H   0  0  0  0  0  0  0  0  0  0  0  0
   29.3520    7.9977   19.3862 H   0  0  0  0  0  0  0  0  0  0  0  0
   31.0514    9.2506   18.1256 H   0  0  0  0  0  0  0  0  0  0  0  0
   33.5374   13.3677   22.8978 H   0  0  0  0  0  0  0  0  0  0  0  0
   34.7705   11.1731   26.3924 H   0  0  0  0  0  0  0  0  0  0  0  0
   32.6049   15.5262   19.9790 H   0  0  0  0  0  0  0  0  0  0  0  0
   33.3726   15.6685   16.9828 H   0  0  0  0  0  0  0  0  0  0  0  0
  1  5  2  0
  2  3  2  0
  3  4  1  0
  4  6  2  0
  5  6  1  0
  5 10  1  0
  6  7  1  0
  7  8  2  0
  8  9  1  0
  9 10  2  0
  4 11  1  0
 11 12  1  0
 12 17  2  0
 12 15  1  0
 16 13  2  0
 13 14  1  0
 14 15  2  0
 16 17  1  0
 16 21  1  0
 17 18  1  0
 18 19  2  0
 19 20  1  0
 20 21  2  0
  3 22  1  0
  2 23  1  0
 23 24  1  0
 23 25  2  0
 15 26  1  0
 14 27  1  0
  1  2  1  0
 27 28  1  0
 27 29  2  0
  1 30  1  0
  7 31  1  0
  8 32  1  0
  9 33  1  0
 10 34  1  0
 11 35  1  0
 11 36  1  0
 13 37  1  0
 18 38  1  0
 19 39  1  0
 20 40  1  0
 21 41  1  0
 22 42  1  0
 24 43  1  0
 26 44  1  0
 28 45  1  0
M  END
> <Uni-Dock RESULT> 
ENERGY=   -3.762  LOWER_BOUND=    3.081  UPPER_BOUND=    6.658
INTER + INTRA:          -3.762
INTER:                  -3.762
INTRA:                   0.000
UNBOUND:                 0.000

$$$$

     RDKit          3D

 45 48  0  0  0  0  0  0  0  0999 V2000
   28.1295    4.1059   30.1767 C   0  0  0  0  0  0  0  0  0  0  0  0
   29.2290    4.4261   29.3773 C   0  0  0  0  0  0  0  0  0  0  0  0
   30.0584    5.5120   29.7394 C   0  0  0  0  0  0  0  0  0  0  0  0
   29.7116    6.3510   30.8295 C   0  0  0  0  0  0  0  0  0  0  0  0
   27.8382    4.8405   31.3278 C   0  0  0  0  0  0  0  0  0  0  0  0
   28.6367    5.9599   31.6857 C   0  0  0  0  0  0  0  0  0  0  0  0
   28.3345    6.6259   32.8997 C   0  0  0  0  0  0  0  0  0  0  0  0
   27.2506    6.2288   33.6861 C   0  0  0  0  0  0  0  0  0  0  0  0
   26.4539    5.1563   33.2969 C   0  0  0  0  0  0  0  0  0  0  0  0
   26.7481    4.4596   32.1279 C   0  0  0  0  0  0  0  0  0  0  0  0
   30.5359    7.6186   31.0722 C   0  0  0  0  0  0  0  0  0  0  0  0
   30.7181    8.4602   29.8116 C   0  0  0  0  0  0  0  0  0  0  0  0
   31.0980    9.9316   27.4354 C   0  0  0  0  0  0  0  0  0  0  0  0
   32.2065    9.3804   28.0874 C   0  0  0  0  0  0  0  0  0  0  0  0
   32.0151    8.6138   29.2603 C   0  0  0  0  0  0  0  0  0  0  0  0
   29.8117    9.7955   27.9628 C   0  0  0  0  0  0  0  0  0  0  0  0
   29.6087    9.0807   29.1705 C   0  0  0  0  0  0  0  0  0  0  0  0
   28.2975    9.0119   29.6956 C   0  0  0  0  0  0  0  0  0  0  0  0
   27.2266    9.6076   29.0262 C   0  0  0  0  0  0  0  0  0  0  0  0
   27.4376   10.2892   27.8299 C   0  0  0  0  0  0  0  0  0  0  0  0
   28.7235   10.3884   27.3008 C   0  0  0  0  0  0  0  0  0  0  0  0
   31.2545    5.7558   29.0576 O   0  0  0  0  0  0  0  0  0  0  0  0
   29.4541    3.6286   28.1511 C   0  0  0  0  0  0  0  0  0  0  0  0
   29.1243    2.2760   28.1325 O   0  0  0  0  0  0  0  0  0  0  0  0
   29.8900    4.1733   27.1012 O   0  0  0  0  0  0  0  0  0  0  0  0
   33.0893    7.9589   29.8728 O   0  0  0  0  0  0  0  0  0  0  0  0
   33.5517    9.6549   27.5361 C   0  0  0  0  0  0  0  0  0  0  0  0
   34.6236    9.9159   28.3850 O   0  0  0  0  0  0  0  0  0  0  0  0
   33.7231    9.7094   26.2882 O   0  0  0  0  0  0  0  0  0  0  0  0
   27.4925    3.2724   29.9003 H   0  0  0  0  0  0  0  0  0  0  0  0
   28.9322    7.4321   33.2895 H   0  0  0  0  0  0  0  0  0  0  0  0
   27.0333    6.7516   34.6088 H   0  0  0  0  0  0  0  0  0  0  0  0
   25.6157    4.8540   33.9114 H   0  0  0  0  0  0  0  0  0  0  0  0
   26.1269    3.6151   31.8527 H   0  0  0  0  0  0  0  0  0  0  0  0
   30.0880    8.3032   31.8109 H   0  0  0  0  0  0  0  0  0  0  0  0
   31.5028    7.3095   31.5190 H   0  0  0  0  0  0  0  0  0  0  0  0
   31.2437   10.5078   26.5277 H   0  0  0  0  0  0  0  0  0  0  0  0
   28.0813    8.5127   30.6270 H   0  0  0  0  0  0  0  0  0  0  0  0
   26.2283    9.5427   29.4400 H   0  0  0  0  0  0  0  0  0  0  0  0
   26.6038   10.7497   27.3158 H   0  0  0  0  0  0  0  0  0  0  0  0
   28.8686   10.9337   26.3756 H   0  0  0  0  0  0  0  0  0  0  0  0
   31.6705    5.1076   28.4029 H   0  0  0  0  0  0  0  0  0  0  0  0
   29.2517    1.7210   27.2946 H   0  0  0  0  0  0  0  0  0  0  0  0
   33.9991    7.8536   29.4450 H   0  0  0  0  0  0  0  0  0  0  0  0
   35.5428   10.1238   28.0135 H   0  0  0  0  0  0  0  0  0  0  0  0
  1  5  2  0
  2  3  2  0
  3  4  1  0
  4  6  2  0
  5  6  1  0
  5 10  1  0
  6  7  1  0
  7  8  2  0
  8  9  1  0
  9 10  2  0
  4 11  1  0
 11 12  1  0
 12 17  2  0
 12 15  1  0
 16 13  2  0
 13 14  1  0
 14 15  2  0
 16 17  1  0
 16 21  1  0
 17 18  1  0
 18 19  2  0
 19 20  1  0
 20 21  2  0
  3 22  1  0
  2 23  1  0
 23 24  1  0
 23 25  2  0
 15 26  1  0
 14 27  1  0
  1  2  1  0
 27 28  1  0
 27 29  2  0
  1 30  1  0
  7 31  1  0
  8 32  1  0
  9 33  1  0
 10 34  1  0
 11 35  1  0
 11 36  1  0
 13 37  1  0
 18 38  1  0
 19 39  1  0
 20 40  1  0
 21 41  1  0
 22 42  1  0
 24 43  1  0
 26 44  1  0
 28 45  1  0
M  END
> <Uni-Dock RESULT> 
ENERGY=   -3.757  LOWER_BOUND=    9.045  UPPER_BOUND=   11.691
INTER + INTRA:          -3.757
INTER:                  -3.757
INTRA:                   0.000
UNBOUND:                 0.000

$$$$
