
     RDKit          3D

 45 48  0  0  0  0  0  0  0  0999 V2000
   22.4373    4.3763   30.3619 C   0  0  0  0  0  0  0  0  0  0  0  0
   23.4914    4.7389   31.2071 C   0  0  0  0  0  0  0  0  0  0  0  0
   23.5436    6.0505   31.7325 C   0  0  0  0  0  0  0  0  0  0  0  0
   22.5870    7.0197   31.3372 C   0  0  0  0  0  0  0  0  0  0  0  0
   21.4505    5.2983   30.0059 C   0  0  0  0  0  0  0  0  0  0  0  0
   21.5105    6.6299   30.4907 C   0  0  0  0  0  0  0  0  0  0  0  0
   20.4779    7.5221   30.1229 C   0  0  0  0  0  0  0  0  0  0  0  0
   19.4416    7.1112   29.2818 C   0  0  0  0  0  0  0  0  0  0  0  0
   19.4058    5.8057   28.7979 C   0  0  0  0  0  0  0  0  0  0  0  0
   20.4024    4.9005   29.1591 C   0  0  0  0  0  0  0  0  0  0  0  0
   22.7216    8.4536   31.8467 C   0  0  0  0  0  0  0  0  0  0  0  0
   23.0273    9.4559   30.7291 C   0  0  0  0  0  0  0  0  0  0  0  0
   23.5588   11.1199   28.5103 C   0  0  0  0  0  0  0  0  0  0  0  0
   24.4115   10.0481   28.7827 C   0  0  0  0  0  0  0  0  0  0  0  0
   24.1382    9.2028   29.8815 C   0  0  0  0  0  0  0  0  0  0  0  0
   22.5017   11.4328   29.3664 C   0  0  0  0  0  0  0  0  0  0  0  0
   22.2479   10.6353   30.5146 C   0  0  0  0  0  0  0  0  0  0  0  0
   21.2271   11.0621   31.4013 C   0  0  0  0  0  0  0  0  0  0  0  0
   20.4563   12.1922   31.1191 C   0  0  0  0  0  0  0  0  0  0  0  0
   20.6894   12.9331   29.9650 C   0  0  0  0  0  0  0  0  0  0  0  0
   21.7119   12.5628   29.0957 C   0  0  0  0  0  0  0  0  0  0  0  0
   24.5203    6.4093   32.6681 O   0  0  0  0  0  0  0  0  0  0  0  0
   24.5469    3.7388   31.4799 C   0  0  0  0  0  0  0  0  0  0  0  0
   25.8842    4.1213   31.5381 O   0  0  0  0  0  0  0  0  0  0  0  0
   24.2453    2.5212   31.6056 O   0  0  0  0  0  0  0  0  0  0  0  0
   24.9406    8.0870   30.1388 O   0  0  0  0  0  0  0  0  0  0  0  0
   25.5994    9.8638   27.9205 C   0  0  0  0  0  0  0  0  0  0  0  0
   26.8306    9.5276   28.4760 O   0  0  0  0  0  0  0  0  0  0  0  0
   25.5152   10.0682   26.6793 O   0  0  0  0  0  0  0  0  0  0  0  0
   22.3957    3.3689   29.9611 H   0  0  0  0  0  0  0  0  0  0  0  0
   20.4443    8.5352   30.4871 H   0  0  0  0  0  0  0  0  0  0  0  0
   18.6599    7.8084   29.0085 H   0  0  0  0  0  0  0  0  0  0  0  0
   18.6001    5.4924   28.1466 H   0  0  0  0  0  0  0  0  0  0  0  0
   20.3525    3.8871   28.7780 H   0  0  0  0  0  0  0  0  0  0  0  0
   23.5239    8.5565   32.6052 H   0  0  0  0  0  0  0  0  0  0  0  0
   21.7931    8.6600   32.4014 H   0  0  0  0  0  0  0  0  0  0  0  0
   23.7591   11.7566   27.6547 H   0  0  0  0  0  0  0  0  0  0  0  0
   21.0141   10.5669   32.3326 H   0  0  0  0  0  0  0  0  0  0  0  0
   19.6774   12.4991   31.8055 H   0  0  0  0  0  0  0  0  0  0  0  0
   20.0885   13.8081   29.7529 H   0  0  0  0  0  0  0  0  0  0  0  0
   21.8941   13.1684   28.2155 H   0  0  0  0  0  0  0  0  0  0  0  0
   25.1169    5.7426   33.1386 H   0  0  0  0  0  0  0  0  0  0  0  0
   26.6137    3.4384   31.7048 H   0  0  0  0  0  0  0  0  0  0  0  0
   25.6220    7.7216   29.4881 H   0  0  0  0  0  0  0  0  0  0  0  0
   27.6522    9.4196   27.8933 H   0  0  0  0  0  0  0  0  0  0  0  0
  1  5  2  0
  2  3  2  0
  3  4  1  0
  4  6  2  0
  5  6  1  0
  5 10  1  0
  6  7  1  0
  7  8  2  0
  8  9  1  0
  9 10  2  0
  4 11  1  0
 11 12  1  0
 12 17  2  0
 12 15  1  0
 16 13  2  0
 13 14  1  0
 14 15  2  0
 16 17  1  0
 16 21  1  0
 17 18  1  0
 18 19  2  0
 19 20  1  0
 20 21  2  0
  3 22  1  0
  2 23  1  0
 23 24  1  0
 23 25  2  0
 15 26  1  0
 14 27  1  0
  1  2  1  0
 27 28  1  0
 27 29  2  0
  1 30  1  0
  7 31  1  0
  8 32  1  0
  9 33  1  0
 10 34  1  0
 11 35  1  0
 11 36  1  0
 13 37  1  0
 18 38  1  0
 19 39  1  0
 20 40  1  0
 21 41  1  0
 22 42  1  0
 24 43  1  0
 26 44  1  0
 28 45  1  0
M  END
> <Uni-Dock RESULT> 
ENERGY=   -4.810  LOWER_BOUND=    0.000  UPPER_BOUND=    0.000
INTER + INTRA:          -4.810
INTER:                  -4.810
INTRA:                   0.000
UNBOUND:                 0.000

$$$$

     RDKit          3D

 45 48  0  0  0  0  0  0  0  0999 V2000
   23.3986    4.0227   31.1995 C   0  0  0  0  0  0  0  0  0  0  0  0
   24.1372    2.9967   31.7983 C   0  0  0  0  0  0  0  0  0  0  0  0
   25.4415    3.2636   32.2746 C   0  0  0  0  0  0  0  0  0  0  0  0
   26.0336    4.5354   32.0682 C   0  0  0  0  0  0  0  0  0  0  0  0
   23.9401    5.3000   31.0388 C   0  0  0  0  0  0  0  0  0  0  0  0
   25.2622    5.5738   31.4732 C   0  0  0  0  0  0  0  0  0  0  0  0
   25.7605    6.8865   31.3112 C   0  0  0  0  0  0  0  0  0  0  0  0
   24.9818    7.8798   30.7136 C   0  0  0  0  0  0  0  0  0  0  0  0
   23.6920    7.5916   30.2744 C   0  0  0  0  0  0  0  0  0  0  0  0
   23.1698    6.3096   30.4377 C   0  0  0  0  0  0  0  0  0  0  0  0
   27.4777    4.7677   32.5092 C   0  0  0  0  0  0  0  0  0  0  0  0
   28.4266    5.0162   31.3322 C   0  0  0  0  0  0  0  0  0  0  0  0
   29.9783    5.4762   29.0181 C   0  0  0  0  0  0  0  0  0  0  0  0
   29.2465    4.2918   29.1281 C   0  0  0  0  0  0  0  0  0  0  0  0
   28.4549    4.0668   30.2767 C   0  0  0  0  0  0  0  0  0  0  0  0
   30.0239    6.3930   30.0696 C   0  0  0  0  0  0  0  0  0  0  0  0
   29.2877    6.1554   31.2614 C   0  0  0  0  0  0  0  0  0  0  0  0
   29.4551    7.0689   32.3329 C   0  0  0  0  0  0  0  0  0  0  0  0
   30.2664    8.1974   32.1950 C   0  0  0  0  0  0  0  0  0  0  0  0
   30.9420    8.4374   31.0029 C   0  0  0  0  0  0  0  0  0  0  0  0
   30.8302    7.5370   29.9469 C   0  0  0  0  0  0  0  0  0  0  0  0
   26.1605    2.2910   32.9781 O   0  0  0  0  0  0  0  0  0  0  0  0
   23.5357    1.6467   31.8649 C   0  0  0  0  0  0  0  0  0  0  0  0
   24.3129    0.5149   31.6348 O   0  0  0  0  0  0  0  0  0  0  0  0
   22.2995    1.5164   32.0755 O   0  0  0  0  0  0  0  0  0  0  0  0
   27.6647    2.9181   30.3833 O   0  0  0  0  0  0  0  0  0  0  0  0
   29.3623    3.2955   28.0408 C   0  0  0  0  0  0  0  0  0  0  0  0
   29.4680    1.9388   28.3336 O   0  0  0  0  0  0  0  0  0  0  0  0
   29.4247    3.6766   26.8407 O   0  0  0  0  0  0  0  0  0  0  0  0
   22.3967    3.8185   30.8367 H   0  0  0  0  0  0  0  0  0  0  0  0
   26.7417    7.1693   31.6537 H   0  0  0  0  0  0  0  0  0  0  0  0
   25.3801    8.8794   30.5954 H   0  0  0  0  0  0  0  0  0  0  0  0
   23.0926    8.3653   29.8122 H   0  0  0  0  0  0  0  0  0  0  0  0
   22.1613    6.1074   30.0962 H   0  0  0  0  0  0  0  0  0  0  0  0
   27.8857    3.9097   33.0811 H   0  0  0  0  0  0  0  0  0  0  0  0
   27.4362    5.5892   33.2413 H   0  0  0  0  0  0  0  0  0  0  0  0
   30.5704    5.6562   28.1268 H   0  0  0  0  0  0  0  0  0  0  0  0
   28.9996    6.9309   33.2979 H   0  0  0  0  0  0  0  0  0  0  0  0
   30.3771    8.8865   33.0226 H   0  0  0  0  0  0  0  0  0  0  0  0
   31.5695    9.3138   30.9033 H   0  0  0  0  0  0  0  0  0  0  0  0
   31.3853    7.7288   29.0360 H   0  0  0  0  0  0  0  0  0  0  0  0
   25.7512    1.4351   33.3271 H   0  0  0  0  0  0  0  0  0  0  0  0
   23.9032   -0.4112   31.6593 H   0  0  0  0  0  0  0  0  0  0  0  0
   27.4716    2.2941   29.6122 H   0  0  0  0  0  0  0  0  0  0  0  0
   29.5678    1.2533   27.5945 H   0  0  0  0  0  0  0  0  0  0  0  0
  1  5  2  0
  2  3  2  0
  3  4  1  0
  4  6  2  0
  5  6  1  0
  5 10  1  0
  6  7  1  0
  7  8  2  0
  8  9  1  0
  9 10  2  0
  4 11  1  0
 11 12  1  0
 12 17  2  0
 12 15  1  0
 16 13  2  0
 13 14  1  0
 14 15  2  0
 16 17  1  0
 16 21  1  0
 17 18  1  0
 18 19  2  0
 19 20  1  0
 20 21  2  0
  3 22  1  0
  2 23  1  0
 23 24  1  0
 23 25  2  0
 15 26  1  0
 14 27  1  0
  1  2  1  0
 27 28  1  0
 27 29  2  0
  1 30  1  0
  7 31  1  0
  8 32  1  0
  9 33  1  0
 10 34  1  0
 11 35  1  0
 11 36  1  0
 13 37  1  0
 18 38  1  0
 19 39  1  0
 20 40  1  0
 21 41  1  0
 22 42  1  0
 24 43  1  0
 26 44  1  0
 28 45  1  0
M  END
> <Uni-Dock RESULT> 
ENERGY=   -4.669  LOWER_BOUND=    4.061  UPPER_BOUND=    6.598
INTER + INTRA:          -4.669
INTER:                  -4.669
INTRA:                   0.000
UNBOUND:                 0.000

$$$$

     RDKit          3D

 45 48  0  0  0  0  0  0  0  0999 V2000
   31.3331   10.9551   26.5747 C   0  0  0  0  0  0  0  0  0  0  0  0
   32.2330   11.5905   25.7125 C   0  0  0  0  0  0  0  0  0  0  0  0
   31.7427   12.4600   24.7112 C   0  0  0  0  0  0  0  0  0  0  0  0
   30.3466   12.6197   24.5212 C   0  0  0  0  0  0  0  0  0  0  0  0
   29.9555   11.1439   26.4438 C   0  0  0  0  0  0  0  0  0  0  0  0
   29.4447   11.9801   25.4184 C   0  0  0  0  0  0  0  0  0  0  0  0
   28.0451   12.1601   25.3382 C   0  0  0  0  0  0  0  0  0  0  0  0
   27.1868   11.5095   26.2271 C   0  0  0  0  0  0  0  0  0  0  0  0
   27.7015   10.6761   27.2172 C   0  0  0  0  0  0  0  0  0  0  0  0
   29.0790   10.4948   27.3295 C   0  0  0  0  0  0  0  0  0  0  0  0
   29.8436   13.4918   23.3722 C   0  0  0  0  0  0  0  0  0  0  0  0
   29.0951   12.6915   22.3014 C   0  0  0  0  0  0  0  0  0  0  0  0
   27.7333   11.0223   20.4755 C   0  0  0  0  0  0  0  0  0  0  0  0
   29.0630   10.7433   20.7987 C   0  0  0  0  0  0  0  0  0  0  0  0
   29.7415   11.5660   21.7257 C   0  0  0  0  0  0  0  0  0  0  0  0
   27.0969   12.1610   20.9721 C   0  0  0  0  0  0  0  0  0  0  0  0
   27.7821   13.0390   21.8544 C   0  0  0  0  0  0  0  0  0  0  0  0
   27.1209   14.2317   22.2427 C   0  0  0  0  0  0  0  0  0  0  0  0
   25.8162   14.4997   21.8223 C   0  0  0  0  0  0  0  0  0  0  0  0
   25.1448   13.6040   20.9963 C   0  0  0  0  0  0  0  0  0  0  0  0
   25.7824   12.4441   20.5647 C   0  0  0  0  0  0  0  0  0  0  0  0
   32.6211   13.1963   23.9086 O   0  0  0  0  0  0  0  0  0  0  0  0
   33.6736   11.2847   25.8533 C   0  0  0  0  0  0  0  0  0  0  0  0
   34.4768   11.1324   24.7265 O   0  0  0  0  0  0  0  0  0  0  0  0
   34.1715   11.1041   26.9974 O   0  0  0  0  0  0  0  0  0  0  0  0
   31.0524   11.2717   22.1130 O   0  0  0  0  0  0  0  0  0  0  0  0
   29.7230    9.6065   20.1202 C   0  0  0  0  0  0  0  0  0  0  0  0
   31.0326    9.7203   19.6625 O   0  0  0  0  0  0  0  0  0  0  0  0
   29.0804    8.5443   19.9004 O   0  0  0  0  0  0  0  0  0  0  0  0
   31.7096   10.2901   27.3449 H   0  0  0  0  0  0  0  0  0  0  0  0
   27.5958   12.8111   24.6071 H   0  0  0  0  0  0  0  0  0  0  0  0
   26.1172   11.6570   26.1499 H   0  0  0  0  0  0  0  0  0  0  0  0
   27.0318   10.1746   27.9038 H   0  0  0  0  0  0  0  0  0  0  0  0
   29.4602    9.8483   28.1113 H   0  0  0  0  0  0  0  0  0  0  0  0
   30.6678   14.0292   22.8606 H   0  0  0  0  0  0  0  0  0  0  0  0
   29.2483   14.2893   23.8432 H   0  0  0  0  0  0  0  0  0  0  0  0
   27.2076   10.3782   19.7782 H   0  0  0  0  0  0  0  0  0  0  0  0
   27.5874   14.9915   22.8452 H   0  0  0  0  0  0  0  0  0  0  0  0
   25.3259   15.4131   22.1341 H   0  0  0  0  0  0  0  0  0  0  0  0
   24.1340   13.8184   20.6739 H   0  0  0  0  0  0  0  0  0  0  0  0
   25.2511   11.7723   19.9005 H   0  0  0  0  0  0  0  0  0  0  0  0
   33.6105   13.2844   24.0959 H   0  0  0  0  0  0  0  0  0  0  0  0
   35.4596   10.9035   24.8154 H   0  0  0  0  0  0  0  0  0  0  0  0
   31.5162   10.3969   21.9108 H   0  0  0  0  0  0  0  0  0  0  0  0
   31.4835    8.9525   19.1793 H   0  0  0  0  0  0  0  0  0  0  0  0
  1  5  2  0
  2  3  2  0
  3  4  1  0
  4  6  2  0
  5  6  1  0
  5 10  1  0
  6  7  1  0
  7  8  2  0
  8  9  1  0
  9 10  2  0
  4 11  1  0
 11 12  1  0
 12 17  2  0
 12 15  1  0
 16 13  2  0
 13 14  1  0
 14 15  2  0
 16 17  1  0
 16 21  1  0
 17 18  1  0
 18 19  2  0
 19 20  1  0
 20 21  2  0
  3 22  1  0
  2 23  1  0
 23 24  1  0
 23 25  2  0
 15 26  1  0
 14 27  1  0
  1  2  1  0
 27 28  1  0
 27 29  2  0
  1 30  1  0
  7 31  1  0
  8 32  1  0
  9 33  1  0
 10 34  1  0
 11 35  1  0
 11 36  1  0
 13 37  1  0
 18 38  1  0
 19 39  1  0
 20 40  1  0
 21 41  1  0
 22 42  1  0
 24 43  1  0
 26 44  1  0
 28 45  1  0
M  END
> <Uni-Dock RESULT> 
ENERGY=   -4.569  LOWER_BOUND=    8.223  UPPER_BOUND=   10.935
INTER + INTRA:          -4.569
INTER:                  -4.569
INTRA:                   0.000
UNBOUND:                 0.000

$$$$

     RDKit          3D

 45 48  0  0  0  0  0  0  0  0999 V2000
   29.9399    6.4958   29.2530 C   0  0  0  0  0  0  0  0  0  0  0  0
   29.6432    7.1225   30.4679 C   0  0  0  0  0  0  0  0  0  0  0  0
   29.1246    6.3576   31.5380 C   0  0  0  0  0  0  0  0  0  0  0  0
   28.8220    4.9842   31.3569 C   0  0  0  0  0  0  0  0  0  0  0  0
   29.7051    5.1311   29.0709 C   0  0  0  0  0  0  0  0  0  0  0  0
   29.1465    4.3575   30.1202 C   0  0  0  0  0  0  0  0  0  0  0  0
   28.9478    2.9758   29.8989 C   0  0  0  0  0  0  0  0  0  0  0  0
   29.2666    2.3937   28.6702 C   0  0  0  0  0  0  0  0  0  0  0  0
   29.7967    3.1695   27.6422 C   0  0  0  0  0  0  0  0  0  0  0  0
   30.0190    4.5313   27.8398 C   0  0  0  0  0  0  0  0  0  0  0  0
   28.1754    4.2043   32.5003 C   0  0  0  0  0  0  0  0  0  0  0  0
   26.7503    3.7451   32.1761 C   0  0  0  0  0  0  0  0  0  0  0  0
   24.1595    2.9819   31.3513 C   0  0  0  0  0  0  0  0  0  0  0  0
   24.5089    4.3341   31.3487 C   0  0  0  0  0  0  0  0  0  0  0  0
   25.8103    4.7176   31.7436 C   0  0  0  0  0  0  0  0  0  0  0  0
   25.0391    2.0134   31.8375 C   0  0  0  0  0  0  0  0  0  0  0  0
   26.3297    2.3843   32.3019 C   0  0  0  0  0  0  0  0  0  0  0  0
   27.1383    1.3729   32.8795 C   0  0  0  0  0  0  0  0  0  0  0  0
   26.7036    0.0465   32.9297 C   0  0  0  0  0  0  0  0  0  0  0  0
   25.4551   -0.3047   32.4265 C   0  0  0  0  0  0  0  0  0  0  0  0
   24.6214    0.6730   31.8905 C   0  0  0  0  0  0  0  0  0  0  0  0
   28.9247    6.9318   32.7983 O   0  0  0  0  0  0  0  0  0  0  0  0
   29.8397    8.5854   30.5685 C   0  0  0  0  0  0  0  0  0  0  0  0
   28.9194    9.3765   31.2506 O   0  0  0  0  0  0  0  0  0  0  0  0
   30.8154    9.1325   29.9869 O   0  0  0  0  0  0  0  0  0  0  0  0
   26.2047    6.0580   31.6907 O   0  0  0  0  0  0  0  0  0  0  0  0
   23.4771    5.3215   30.9632 C   0  0  0  0  0  0  0  0  0  0  0  0
   23.3404    6.5132   31.6695 O   0  0  0  0  0  0  0  0  0  0  0  0
   22.6750    5.0618   30.0259 O   0  0  0  0  0  0  0  0  0  0  0  0
   30.3405    7.0823   28.4328 H   0  0  0  0  0  0  0  0  0  0  0  0
   28.5628    2.3258   30.6667 H   0  0  0  0  0  0  0  0  0  0  0  0
   29.1058    1.3342   28.5172 H   0  0  0  0  0  0  0  0  0  0  0  0
   30.0424    2.7133   26.6920 H   0  0  0  0  0  0  0  0  0  0  0  0
   30.4393    5.1163   27.0300 H   0  0  0  0  0  0  0  0  0  0  0  0
   28.1218    4.7972   33.4359 H   0  0  0  0  0  0  0  0  0  0  0  0
   28.8746    3.3866   32.7347 H   0  0  0  0  0  0  0  0  0  0  0  0
   23.1660    2.6874   31.0293 H   0  0  0  0  0  0  0  0  0  0  0  0
   28.0969    1.5720   33.3262 H   0  0  0  0  0  0  0  0  0  0  0  0
   27.3378   -0.7127   33.3695 H   0  0  0  0  0  0  0  0  0  0  0  0
   25.1245   -1.3345   32.4692 H   0  0  0  0  0  0  0  0  0  0  0  0
   23.6422    0.3828   31.5276 H   0  0  0  0  0  0  0  0  0  0  0  0
   29.2818    7.8396   33.0632 H   0  0  0  0  0  0  0  0  0  0  0  0
   29.0375   10.3811   31.3063 H   0  0  0  0  0  0  0  0  0  0  0  0
   25.6796    6.7811   31.2190 H   0  0  0  0  0  0  0  0  0  0  0  0
   22.6227    7.1845   31.4232 H   0  0  0  0  0  0  0  0  0  0  0  0
  1  5  2  0
  2  3  2  0
  3  4  1  0
  4  6  2  0
  5  6  1  0
  5 10  1  0
  6  7  1  0
  7  8  2  0
  8  9  1  0
  9 10  2  0
  4 11  1  0
 11 12  1  0
 12 17  2  0
 12 15  1  0
 16 13  2  0
 13 14  1  0
 14 15  2  0
 16 17  1  0
 16 21  1  0
 17 18  1  0
 18 19  2  0
 19 20  1  0
 20 21  2  0
  3 22  1  0
  2 23  1  0
 23 24  1  0
 23 25  2  0
 15 26  1  0
 14 27  1  0
  1  2  1  0
 27 28  1  0
 27 29  2  0
  1 30  1  0
  7 31  1  0
  8 32  1  0
  9 33  1  0
 10 34  1  0
 11 35  1  0
 11 36  1  0
 13 37  1  0
 18 38  1  0
 19 39  1  0
 20 40  1  0
 21 41  1  0
 22 42  1  0
 24 43  1  0
 26 44  1  0
 28 45  1  0
M  END
> <Uni-Dock RESULT> 
ENERGY=   -4.466  LOWER_BOUND=    4.513  UPPER_BOUND=    8.632
INTER + INTRA:          -4.466
INTER:                  -4.466
INTRA:                   0.000
UNBOUND:                 0.000

$$$$

     RDKit          3D

 45 48  0  0  0  0  0  0  0  0999 V2000
   25.7946   12.8879   20.9445 C   0  0  0  0  0  0  0  0  0  0  0  0
   25.5214   13.9662   21.7927 C   0  0  0  0  0  0  0  0  0  0  0  0
   26.4446   14.3049   22.8086 C   0  0  0  0  0  0  0  0  0  0  0  0
   27.5954   13.5057   23.0269 C   0  0  0  0  0  0  0  0  0  0  0  0
   26.9519   12.1223   21.1036 C   0  0  0  0  0  0  0  0  0  0  0  0
   27.8680   12.4226   22.1438 C   0  0  0  0  0  0  0  0  0  0  0  0
   29.0369   11.6355   22.2526 C   0  0  0  0  0  0  0  0  0  0  0  0
   29.2693   10.5729   21.3769 C   0  0  0  0  0  0  0  0  0  0  0  0
   28.3515   10.2776   20.3719 C   0  0  0  0  0  0  0  0  0  0  0  0
   27.1989   11.0489   20.2315 C   0  0  0  0  0  0  0  0  0  0  0  0
   28.5270   13.8393   24.1909 C   0  0  0  0  0  0  0  0  0  0  0  0
   28.5416   12.7532   25.2713 C   0  0  0  0  0  0  0  0  0  0  0  0
   28.4297   10.6159   27.1136 C   0  0  0  0  0  0  0  0  0  0  0  0
   27.2526   11.2803   26.7627 C   0  0  0  0  0  0  0  0  0  0  0  0
   27.3027   12.3384   25.8275 C   0  0  0  0  0  0  0  0  0  0  0  0
   29.6683   11.0478   26.6365 C   0  0  0  0  0  0  0  0  0  0  0  0
   29.7490   12.1522   25.7461 C   0  0  0  0  0  0  0  0  0  0  0  0
   31.0397   12.6092   25.3780 C   0  0  0  0  0  0  0  0  0  0  0  0
   32.1890   11.9537   25.8256 C   0  0  0  0  0  0  0  0  0  0  0  0
   32.0873   10.8447   26.6593 C   0  0  0  0  0  0  0  0  0  0  0  0
   30.8351   10.3971   27.0713 C   0  0  0  0  0  0  0  0  0  0  0  0
   26.2551   15.4445   23.5982 O   0  0  0  0  0  0  0  0  0  0  0  0
   24.2399   14.6854   21.6217 C   0  0  0  0  0  0  0  0  0  0  0  0
   23.5148   15.1102   22.7316 O   0  0  0  0  0  0  0  0  0  0  0  0
   23.7680   14.8683   20.4671 O   0  0  0  0  0  0  0  0  0  0  0  0
   26.1308   12.9785   25.4127 O   0  0  0  0  0  0  0  0  0  0  0  0
   25.9942   10.8670   27.4213 C   0  0  0  0  0  0  0  0  0  0  0  0
   25.0766   11.8202   27.8538 O   0  0  0  0  0  0  0  0  0  0  0  0
   25.7723    9.6467   27.6473 O   0  0  0  0  0  0  0  0  0  0  0  0
   25.0875   12.6299   20.1631 H   0  0  0  0  0  0  0  0  0  0  0  0
   29.7902   11.8347   22.9963 H   0  0  0  0  0  0  0  0  0  0  0  0
   30.1690    9.9790   21.4760 H   0  0  0  0  0  0  0  0  0  0  0  0
   28.5367    9.4531   19.6956 H   0  0  0  0  0  0  0  0  0  0  0  0
   26.5007   10.8077   19.4385 H   0  0  0  0  0  0  0  0  0  0  0  0
   28.2526   14.7911   24.6893 H   0  0  0  0  0  0  0  0  0  0  0  0
   29.5092   14.0421   23.7364 H   0  0  0  0  0  0  0  0  0  0  0  0
   28.3868    9.7910   27.8172 H   0  0  0  0  0  0  0  0  0  0  0  0
   31.2016   13.4829   24.7710 H   0  0  0  0  0  0  0  0  0  0  0  0
   33.1657   12.3142   25.5290 H   0  0  0  0  0  0  0  0  0  0  0  0
   32.9823   10.3419   27.0027 H   0  0  0  0  0  0  0  0  0  0  0  0
   30.7788    9.5474   27.7418 H   0  0  0  0  0  0  0  0  0  0  0  0
   25.5733   16.1617   23.3920 H   0  0  0  0  0  0  0  0  0  0  0  0
   22.6269   15.5856   22.6221 H   0  0  0  0  0  0  0  0  0  0  0  0
   25.2015   12.6286   25.6005 H   0  0  0  0  0  0  0  0  0  0  0  0
   24.2224   11.5445   28.3235 H   0  0  0  0  0  0  0  0  0  0  0  0
  1  5  2  0
  2  3  2  0
  3  4  1  0
  4  6  2  0
  5  6  1  0
  5 10  1  0
  6  7  1  0
  7  8  2  0
  8  9  1  0
  9 10  2  0
  4 11  1  0
 11 12  1  0
 12 17  2  0
 12 15  1  0
 16 13  2  0
 13 14  1  0
 14 15  2  0
 16 17  1  0
 16 21  1  0
 17 18  1  0
 18 19  2  0
 19 20  1  0
 20 21  2  0
  3 22  1  0
  2 23  1  0
 23 24  1  0
 23 25  2  0
 15 26  1  0
 14 27  1  0
  1  2  1  0
 27 28  1  0
 27 29  2  0
  1 30  1  0
  7 31  1  0
  8 32  1  0
  9 33  1  0
 10 34  1  0
 11 35  1  0
 11 36  1  0
 13 37  1  0
 18 38  1  0
 19 39  1  0
 20 40  1  0
 21 41  1  0
 22 42  1  0
 24 43  1  0
 26 44  1  0
 28 45  1  0
M  END
> <Uni-Dock RESULT> 
ENERGY=   -4.373  LOWER_BOUND=    6.080  UPPER_BOUND=   10.939
INTER + INTRA:          -4.373
INTER:                  -4.373
INTRA:                   0.000
UNBOUND:                 0.000

$$$$

     RDKit          3D

 45 48  0  0  0  0  0  0  0  0999 V2000
   31.3912   10.5345   26.9414 C   0  0  0  0  0  0  0  0  0  0  0  0
   32.3133   11.2175   26.1413 C   0  0  0  0  0  0  0  0  0  0  0  0
   31.8574   12.2161   25.2501 C   0  0  0  0  0  0  0  0  0  0  0  0
   30.4692   12.4636   25.1003 C   0  0  0  0  0  0  0  0  0  0  0  0
   30.0235   10.8035   26.8531 C   0  0  0  0  0  0  0  0  0  0  0  0
   29.5452   11.7726   25.9346 C   0  0  0  0  0  0  0  0  0  0  0  0
   28.1557   12.0283   25.8961 C   0  0  0  0  0  0  0  0  0  0  0  0
   27.2746   11.3252   26.7204 C   0  0  0  0  0  0  0  0  0  0  0  0
   27.7566   10.3626   27.6041 C   0  0  0  0  0  0  0  0  0  0  0  0
   29.1243   10.1031   27.6746 C   0  0  0  0  0  0  0  0  0  0  0  0
   29.9994   13.4817   24.0627 C   0  0  0  0  0  0  0  0  0  0  0  0
   29.2014   12.8432   22.9214 C   0  0  0  0  0  0  0  0  0  0  0  0
   27.7403   11.4560   20.9426 C   0  0  0  0  0  0  0  0  0  0  0  0
   29.0574   11.0784   21.2127 C   0  0  0  0  0  0  0  0  0  0  0  0
   29.7852   11.7587   22.2147 C   0  0  0  0  0  0  0  0  0  0  0  0
   27.1664   12.5619   21.5719 C   0  0  0  0  0  0  0  0  0  0  0  0
   27.9032   13.3017   22.5356 C   0  0  0  0  0  0  0  0  0  0  0  0
   27.3063   14.4744   23.0638 C   0  0  0  0  0  0  0  0  0  0  0  0
   26.0126   14.8507   22.6955 C   0  0  0  0  0  0  0  0  0  0  0  0
   25.2893   14.0864   21.7856 C   0  0  0  0  0  0  0  0  0  0  0  0
   25.8638   12.9522   21.2185 C   0  0  0  0  0  0  0  0  0  0  0  0
   32.7637   12.9936   24.5208 O   0  0  0  0  0  0  0  0  0  0  0  0
   33.7381   10.8283   26.2255 C   0  0  0  0  0  0  0  0  0  0  0  0
   34.5217   10.7637   25.0766 O   0  0  0  0  0  0  0  0  0  0  0  0
   34.2374   10.4973   27.3348 O   0  0  0  0  0  0  0  0  0  0  0  0
   31.0834   11.3597   22.5470 O   0  0  0  0  0  0  0  0  0  0  0  0
   29.6531    9.9936   20.4024 C   0  0  0  0  0  0  0  0  0  0  0  0
   30.9623   10.0939   19.9402 O   0  0  0  0  0  0  0  0  0  0  0  0
   28.9561    8.9950   20.0760 O   0  0  0  0  0  0  0  0  0  0  0  0
   31.7414    9.7703   27.6273 H   0  0  0  0  0  0  0  0  0  0  0  0
   27.7324   12.7778   25.2486 H   0  0  0  0  0  0  0  0  0  0  0  0
   26.2130   11.5322   26.6763 H   0  0  0  0  0  0  0  0  0  0  0  0
   27.0693    9.8208   28.2410 H   0  0  0  0  0  0  0  0  0  0  0  0
   29.4802    9.3557   28.3741 H   0  0  0  0  0  0  0  0  0  0  0  0
   30.8444   14.0321   23.6014 H   0  0  0  0  0  0  0  0  0  0  0  0
   29.4493   14.2498   24.6283 H   0  0  0  0  0  0  0  0  0  0  0  0
   27.1763   10.9200   20.1863 H   0  0  0  0  0  0  0  0  0  0  0  0
   27.8160   15.1387   23.7396 H   0  0  0  0  0  0  0  0  0  0  0  0
   25.5716   15.7464   23.1140 H   0  0  0  0  0  0  0  0  0  0  0  0
   24.2873   14.3843   21.5044 H   0  0  0  0  0  0  0  0  0  0  0  0
   25.2932   12.3852   20.4921 H   0  0  0  0  0  0  0  0  0  0  0  0
   33.7581   13.0121   24.7016 H   0  0  0  0  0  0  0  0  0  0  0  0
   35.4927   10.4787   25.1246 H   0  0  0  0  0  0  0  0  0  0  0  0
   31.5009   10.4914   22.2421 H   0  0  0  0  0  0  0  0  0  0  0  0
   31.3695    9.3637   19.3681 H   0  0  0  0  0  0  0  0  0  0  0  0
  1  5  2  0
  2  3  2  0
  3  4  1  0
  4  6  2  0
  5  6  1  0
  5 10  1  0
  6  7  1  0
  7  8  2  0
  8  9  1  0
  9 10  2  0
  4 11  1  0
 11 12  1  0
 12 17  2  0
 12 15  1  0
 16 13  2  0
 13 14  1  0
 14 15  2  0
 16 17  1  0
 16 21  1  0
 17 18  1  0
 18 19  2  0
 19 20  1  0
 20 21  2  0
  3 22  1  0
  2 23  1  0
 23 24  1  0
 23 25  2  0
 15 26  1  0
 14 27  1  0
  1  2  1  0
 27 28  1  0
 27 29  2  0
  1 30  1  0
  7 31  1  0
  8 32  1  0
  9 33  1  0
 10 34  1  0
 11 35  1  0
 11 36  1  0
 13 37  1  0
 18 38  1  0
 19 39  1  0
 20 40  1  0
 21 41  1  0
 22 42  1  0
 24 43  1  0
 26 44  1  0
 28 45  1  0
M  END
> <Uni-Dock RESULT> 
ENERGY=   -4.359  LOWER_BOUND=    7.981  UPPER_BOUND=   10.590
INTER + INTRA:          -4.359
INTER:                  -4.359
INTRA:                   0.000
UNBOUND:                 0.000

$$$$

     RDKit          3D

 45 48  0  0  0  0  0  0  0  0999 V2000
   25.6507   13.3705   21.3507 C   0  0  0  0  0  0  0  0  0  0  0  0
   25.4052   14.3671   22.3011 C   0  0  0  0  0  0  0  0  0  0  0  0
   26.3139   14.5507   23.3686 C   0  0  0  0  0  0  0  0  0  0  0  0
   27.4182   13.6757   23.5286 C   0  0  0  0  0  0  0  0  0  0  0  0
   26.7647   12.5347   21.4554 C   0  0  0  0  0  0  0  0  0  0  0  0
   27.6639   12.6780   22.5429 C   0  0  0  0  0  0  0  0  0  0  0  0
   28.7900   11.8256   22.5956 C   0  0  0  0  0  0  0  0  0  0  0  0
   28.9963   10.8495   21.6185 C   0  0  0  0  0  0  0  0  0  0  0  0
   28.0946   10.7075   20.5665 C   0  0  0  0  0  0  0  0  0  0  0  0
   26.9850   11.5468   20.4810 C   0  0  0  0  0  0  0  0  0  0  0  0
   28.3308   13.8385   24.7429 C   0  0  0  0  0  0  0  0  0  0  0  0
   28.2621   12.6464   25.7028 C   0  0  0  0  0  0  0  0  0  0  0  0
   27.9946   10.3373   27.3062 C   0  0  0  0  0  0  0  0  0  0  0  0
   26.8614   11.0936   26.9996 C   0  0  0  0  0  0  0  0  0  0  0  0
   26.9892   12.2394   26.1827 C   0  0  0  0  0  0  0  0  0  0  0  0
   29.2657   10.7531   26.9067 C   0  0  0  0  0  0  0  0  0  0  0  0
   29.4251   11.9386   26.1400 C   0  0  0  0  0  0  0  0  0  0  0  0
   30.7463   12.3654   25.8527 C   0  0  0  0  0  0  0  0  0  0  0  0
   31.8494   11.6093   26.2557 C   0  0  0  0  0  0  0  0  0  0  0  0
   31.6706   10.4261   26.9652 C   0  0  0  0  0  0  0  0  0  0  0  0
   30.3870   10.0022   27.2980 C   0  0  0  0  0  0  0  0  0  0  0  0
   26.1567   15.6100   24.2693 O   0  0  0  0  0  0  0  0  0  0  0  0
   24.1652   15.1643   22.1768 C   0  0  0  0  0  0  0  0  0  0  0  0
   23.4296   15.5074   23.3078 O   0  0  0  0  0  0  0  0  0  0  0  0
   23.7362   15.4902   21.0370 O   0  0  0  0  0  0  0  0  0  0  0  0
   25.8619   12.9779   25.8102 O   0  0  0  0  0  0  0  0  0  0  0  0
   25.5661   10.6783   27.5810 C   0  0  0  0  0  0  0  0  0  0  0  0
   24.6833   11.6267   28.0899 O   0  0  0  0  0  0  0  0  0  0  0  0
   25.2794    9.4540   27.6718 O   0  0  0  0  0  0  0  0  0  0  0  0
   24.9548   13.2315   20.5299 H   0  0  0  0  0  0  0  0  0  0  0  0
   29.5303   11.9076   23.3738 H   0  0  0  0  0  0  0  0  0  0  0  0
   29.8631   10.2036   21.6756 H   0  0  0  0  0  0  0  0  0  0  0  0
   28.2595    9.9496   19.8116 H   0  0  0  0  0  0  0  0  0  0  0  0
   26.2991   11.4253   19.6507 H   0  0  0  0  0  0  0  0  0  0  0  0
   28.0882   14.7459   25.3323 H   0  0  0  0  0  0  0  0  0  0  0  0
   29.3343   14.0374   24.3357 H   0  0  0  0  0  0  0  0  0  0  0  0
   27.8919    9.4468   27.9177 H   0  0  0  0  0  0  0  0  0  0  0  0
   30.9674   13.2882   25.3453 H   0  0  0  0  0  0  0  0  0  0  0  0
   32.8505   11.9487   26.0220 H   0  0  0  0  0  0  0  0  0  0  0  0
   32.5301    9.8454   27.2747 H   0  0  0  0  0  0  0  0  0  0  0  0
   30.2705    9.0912   27.8736 H   0  0  0  0  0  0  0  0  0  0  0  0
   25.5164   16.3785   24.1239 H   0  0  0  0  0  0  0  0  0  0  0  0
   22.5692   16.0361   23.2281 H   0  0  0  0  0  0  0  0  0  0  0  0
   24.9118   12.6580   25.9380 H   0  0  0  0  0  0  0  0  0  0  0  0
   23.8036   11.3474   28.5075 H   0  0  0  0  0  0  0  0  0  0  0  0
  1  5  2  0
  2  3  2  0
  3  4  1  0
  4  6  2  0
  5  6  1  0
  5 10  1  0
  6  7  1  0
  7  8  2  0
  8  9  1  0
  9 10  2  0
  4 11  1  0
 11 12  1  0
 12 17  2  0
 12 15  1  0
 16 13  2  0
 13 14  1  0
 14 15  2  0
 16 17  1  0
 16 21  1  0
 17 18  1  0
 18 19  2  0
 19 20  1  0
 20 21  2  0
  3 22  1  0
  2 23  1  0
 23 24  1  0
 23 25  2  0
 15 26  1  0
 14 27  1  0
  1  2  1  0
 27 28  1  0
 27 29  2  0
  1 30  1  0
  7 31  1  0
  8 32  1  0
  9 33  1  0
 10 34  1  0
 11 35  1  0
 11 36  1  0
 13 37  1  0
 18 38  1  0
 19 39  1  0
 20 40  1  0
 21 41  1  0
 22 42  1  0
 24 43  1  0
 26 44  1  0
 28 45  1  0
M  END
> <Uni-Dock RESULT> 
ENERGY=   -4.265  LOWER_BOUND=    5.782  UPPER_BOUND=   10.714
INTER + INTRA:          -4.265
INTER:                  -4.265
INTRA:                   0.000
UNBOUND:                 0.000

$$$$

     RDKit          3D

 45 48  0  0  0  0  0  0  0  0999 V2000
   28.8480   10.8188   21.2740 C   0  0  0  0  0  0  0  0  0  0  0  0
   28.9518   10.1884   20.0295 C   0  0  0  0  0  0  0  0  0  0  0  0
   28.0365   10.5174   19.0033 C   0  0  0  0  0  0  0  0  0  0  0  0
   26.9658   11.4117   19.2573 C   0  0  0  0  0  0  0  0  0  0  0  0
   27.8363   11.7476   21.5281 C   0  0  0  0  0  0  0  0  0  0  0  0
   26.8847   12.0583   20.5233 C   0  0  0  0  0  0  0  0  0  0  0  0
   25.8927   13.0211   20.8173 C   0  0  0  0  0  0  0  0  0  0  0  0
   25.8341   13.6291   22.0731 C   0  0  0  0  0  0  0  0  0  0  0  0
   26.7637   13.3001   23.0566 C   0  0  0  0  0  0  0  0  0  0  0  0
   27.7631   12.3666   22.7873 C   0  0  0  0  0  0  0  0  0  0  0  0
   25.9374   11.6772   18.1593 C   0  0  0  0  0  0  0  0  0  0  0  0
   24.5406   11.1573   18.5141 C   0  0  0  0  0  0  0  0  0  0  0  0
   22.0536   10.1467   19.3904 C   0  0  0  0  0  0  0  0  0  0  0  0
   23.1549    9.2907   19.3208 C   0  0  0  0  0  0  0  0  0  0  0  0
   24.4050    9.7975   18.8999 C   0  0  0  0  0  0  0  0  0  0  0  0
   22.1419   11.4685   18.9509 C   0  0  0  0  0  0  0  0  0  0  0  0
   23.3733   11.9814   18.4615 C   0  0  0  0  0  0  0  0  0  0  0  0
   23.3760   13.2972   17.9333 C   0  0  0  0  0  0  0  0  0  0  0  0
   22.2212   14.0825   17.9545 C   0  0  0  0  0  0  0  0  0  0  0  0
   21.0365   13.5783   18.4815 C   0  0  0  0  0  0  0  0  0  0  0  0
   20.9919   12.2754   18.9699 C   0  0  0  0  0  0  0  0  0  0  0  0
   28.1833    9.9894   17.7158 O   0  0  0  0  0  0  0  0  0  0  0  0
   29.9959    9.1555   19.8519 C   0  0  0  0  0  0  0  0  0  0  0  0
   29.7254    7.9937   19.1341 O   0  0  0  0  0  0  0  0  0  0  0  0
   31.1228    9.2966   20.3993 O   0  0  0  0  0  0  0  0  0  0  0  0
   25.5366    8.9765   18.8810 O   0  0  0  0  0  0  0  0  0  0  0  0
   22.9539    7.8648   19.6594 C   0  0  0  0  0  0  0  0  0  0  0  0
   23.5472    6.8659   18.8926 O   0  0  0  0  0  0  0  0  0  0  0  0
   22.1941    7.5444   20.6130 O   0  0  0  0  0  0  0  0  0  0  0  0
   29.5521   10.5684   22.0605 H   0  0  0  0  0  0  0  0  0  0  0  0
   25.1640   13.3293   20.0864 H   0  0  0  0  0  0  0  0  0  0  0  0
   25.0661   14.3629   22.2819 H   0  0  0  0  0  0  0  0  0  0  0  0
   26.7139   13.7747   24.0281 H   0  0  0  0  0  0  0  0  0  0  0  0
   28.4815   12.1298   23.5634 H   0  0  0  0  0  0  0  0  0  0  0  0
   26.2231   11.2113   17.1944 H   0  0  0  0  0  0  0  0  0  0  0  0
   25.9839   12.7599   17.9643 H   0  0  0  0  0  0  0  0  0  0  0  0
   21.0989    9.7604   19.7322 H   0  0  0  0  0  0  0  0  0  0  0  0
   24.2403   13.7424   17.4722 H   0  0  0  0  0  0  0  0  0  0  0  0
   22.2445   15.0871   17.5517 H   0  0  0  0  0  0  0  0  0  0  0  0
   20.1452   14.1924   18.4942 H   0  0  0  0  0  0  0  0  0  0  0  0
   20.0527   11.8928   19.3523 H   0  0  0  0  0  0  0  0  0  0  0  0
   29.0102    9.4998   17.4022 H   0  0  0  0  0  0  0  0  0  0  0  0
   30.4295    7.2736   19.0254 H   0  0  0  0  0  0  0  0  0  0  0  0
   25.5787    8.0658   19.3170 H   0  0  0  0  0  0  0  0  0  0  0  0
   23.3973    5.8872   19.1071 H   0  0  0  0  0  0  0  0  0  0  0  0
  1  5  2  0
  2  3  2  0
  3  4  1  0
  4  6  2  0
  5  6  1  0
  5 10  1  0
  6  7  1  0
  7  8  2  0
  8  9  1  0
  9 10  2  0
  4 11  1  0
 11 12  1  0
 12 17  2  0
 12 15  1  0
 16 13  2  0
 13 14  1  0
 14 15  2  0
 16 17  1  0
 16 21  1  0
 17 18  1  0
 18 19  2  0
 19 20  1  0
 20 21  2  0
  3 22  1  0
  2 23  1  0
 23 24  1  0
 23 25  2  0
 15 26  1  0
 14 27  1  0
  1  2  1  0
 27 28  1  0
 27 29  2  0
  1 30  1  0
  7 31  1  0
  8 32  1  0
  9 33  1  0
 10 34  1  0
 11 35  1  0
 11 36  1  0
 13 37  1  0
 18 38  1  0
 19 39  1  0
 20 40  1  0
 21 41  1  0
 22 42  1  0
 24 43  1  0
 26 44  1  0
 28 45  1  0
M  END
> <Uni-Dock RESULT> 
ENERGY=   -4.220  LOWER_BOUND=   10.084  UPPER_BOUND=   12.270
INTER + INTRA:          -4.220
INTER:                  -4.220
INTRA:                   0.000
UNBOUND:                 0.000

$$$$
