
     RDKit          3D

 45 48  0  0  0  0  0  0  0  0999 V2000
   30.0196    1.4616   29.9163 C   0  0  0  0  0  0  0  0  0  0  0  0
   29.2731    2.5894   29.5679 C   0  0  0  0  0  0  0  0  0  0  0  0
   28.4450    3.2023   30.5350 C   0  0  0  0  0  0  0  0  0  0  0  0
   28.3948    2.7039   31.8638 C   0  0  0  0  0  0  0  0  0  0  0  0
   30.0437    0.9942   31.2312 C   0  0  0  0  0  0  0  0  0  0  0  0
   29.2708    1.6367   32.2354 C   0  0  0  0  0  0  0  0  0  0  0  0
   29.4172    1.1837   33.5708 C   0  0  0  0  0  0  0  0  0  0  0  0
   30.2436    0.0997   33.8754 C   0  0  0  0  0  0  0  0  0  0  0  0
   30.9551   -0.5474   32.8702 C   0  0  0  0  0  0  0  0  0  0  0  0
   30.8647   -0.0989   31.5553 C   0  0  0  0  0  0  0  0  0  0  0  0
   27.4071    3.3396   32.8485 C   0  0  0  0  0  0  0  0  0  0  0  0
   25.9778    3.3964   32.3127 C   0  0  0  0  0  0  0  0  0  0  0  0
   23.3773    3.5588   31.2310 C   0  0  0  0  0  0  0  0  0  0  0  0
   24.0666    4.7356   31.5405 C   0  0  0  0  0  0  0  0  0  0  0  0
   25.3843    4.6576   32.0510 C   0  0  0  0  0  0  0  0  0  0  0  0
   23.9396    2.3062   31.4876 C   0  0  0  0  0  0  0  0  0  0  0  0
   25.2344    2.2094   32.0573 C   0  0  0  0  0  0  0  0  0  0  0  0
   25.7400    0.9230   32.3539 C   0  0  0  0  0  0  0  0  0  0  0  0
   24.9976   -0.2230   32.0620 C   0  0  0  0  0  0  0  0  0  0  0  0
   23.7368   -0.1137   31.4804 C   0  0  0  0  0  0  0  0  0  0  0  0
   23.2054    1.1437   31.1983 C   0  0  0  0  0  0  0  0  0  0  0  0
   27.6400    4.2931   30.1936 O   0  0  0  0  0  0  0  0  0  0  0  0
   29.4115    3.1214   28.1946 C   0  0  0  0  0  0  0  0  0  0  0  0
   29.4955    4.4932   27.9733 O   0  0  0  0  0  0  0  0  0  0  0  0
   29.5128    2.3294   27.2189 O   0  0  0  0  0  0  0  0  0  0  0  0
   26.1415    5.8149   32.2667 O   0  0  0  0  0  0  0  0  0  0  0  0
   23.3638    6.0226   31.3424 C   0  0  0  0  0  0  0  0  0  0  0  0
   22.4766    6.1714   30.2797 O   0  0  0  0  0  0  0  0  0  0  0  0
   23.5139    6.9698   32.1599 O   0  0  0  0  0  0  0  0  0  0  0  0
   30.6396    0.9801   29.1672 H   0  0  0  0  0  0  0  0  0  0  0  0
   28.9358    1.6597   34.4075 H   0  0  0  0  0  0  0  0  0  0  0  0
   30.3385   -0.2351   34.9006 H   0  0  0  0  0  0  0  0  0  0  0  0
   31.5940   -1.3866   33.1135 H   0  0  0  0  0  0  0  0  0  0  0  0
   31.4477   -0.6000   30.7912 H   0  0  0  0  0  0  0  0  0  0  0  0
   27.3337    2.8143   33.8138 H   0  0  0  0  0  0  0  0  0  0  0  0
   27.7998    4.3435   33.1086 H   0  0  0  0  0  0  0  0  0  0  0  0
   22.3732    3.6183   30.8245 H   0  0  0  0  0  0  0  0  0  0  0  0
   26.6995    0.7826   32.8241 H   0  0  0  0  0  0  0  0  0  0  0  0
   25.4014   -1.2007   32.2925 H   0  0  0  0  0  0  0  0  0  0  0  0
   23.1652   -1.0054   31.2570 H   0  0  0  0  0  0  0  0  0  0  0  0
   22.2168    1.2080   30.7589 H   0  0  0  0  0  0  0  0  0  0  0  0
   27.4640    4.5873   29.2429 H   0  0  0  0  0  0  0  0  0  0  0  0
   29.6105    4.8630   27.0373 H   0  0  0  0  0  0  0  0  0  0  0  0
   25.8777    6.7306   31.9301 H   0  0  0  0  0  0  0  0  0  0  0  0
   21.9700    7.0378   30.1424 H   0  0  0  0  0  0  0  0  0  0  0  0
  1  5  2  0
  2  3  2  0
  3  4  1  0
  4  6  2  0
  5  6  1  0
  5 10  1  0
  6  7  1  0
  7  8  2  0
  8  9  1  0
  9 10  2  0
  4 11  1  0
 11 12  1  0
 12 17  2  0
 12 15  1  0
 16 13  2  0
 13 14  1  0
 14 15  2  0
 16 17  1  0
 16 21  1  0
 17 18  1  0
 18 19  2  0
 19 20  1  0
 20 21  2  0
  3 22  1  0
  2 23  1  0
 23 24  1  0
 23 25  2  0
 15 26  1  0
 14 27  1  0
  1  2  1  0
 27 28  1  0
 27 29  2  0
  1 30  1  0
  7 31  1  0
  8 32  1  0
  9 33  1  0
 10 34  1  0
 11 35  1  0
 11 36  1  0
 13 37  1  0
 18 38  1  0
 19 39  1  0
 20 40  1  0
 21 41  1  0
 22 42  1  0
 24 43  1  0
 26 44  1  0
 28 45  1  0
M  END
> <Uni-Dock RESULT> 
ENERGY=   -5.448  LOWER_BOUND=    0.000  UPPER_BOUND=    0.000
INTER + INTRA:          -5.448
INTER:                  -5.448
INTRA:                   0.000
UNBOUND:                 0.000

$$$$

     RDKit          3D

 45 48  0  0  0  0  0  0  0  0999 V2000
   29.9819    1.4235   29.8884 C   0  0  0  0  0  0  0  0  0  0  0  0
   29.2542    2.5745   29.5781 C   0  0  0  0  0  0  0  0  0  0  0  0
   28.4393    3.1707   30.5666 C   0  0  0  0  0  0  0  0  0  0  0  0
   28.3838    2.6314   31.8792 C   0  0  0  0  0  0  0  0  0  0  0  0
   30.0011    0.9143   31.1878 C   0  0  0  0  0  0  0  0  0  0  0  0
   29.2421    1.5379   32.2142 C   0  0  0  0  0  0  0  0  0  0  0  0
   29.3839    1.0405   33.5341 C   0  0  0  0  0  0  0  0  0  0  0  0
   30.1921   -0.0669   33.8017 C   0  0  0  0  0  0  0  0  0  0  0  0
   30.8897   -0.6940   32.7744 C   0  0  0  0  0  0  0  0  0  0  0  0
   30.8038   -0.2026   31.4746 C   0  0  0  0  0  0  0  0  0  0  0  0
   27.4098    3.2526   32.8865 C   0  0  0  0  0  0  0  0  0  0  0  0
   25.9803    3.3510   32.3572 C   0  0  0  0  0  0  0  0  0  0  0  0
   23.3803    3.5926   31.2892 C   0  0  0  0  0  0  0  0  0  0  0  0
   24.0908    4.7468   31.6336 C   0  0  0  0  0  0  0  0  0  0  0  0
   25.4082    4.6300   32.1373 C   0  0  0  0  0  0  0  0  0  0  0  0
   23.9214    2.3230   31.5042 C   0  0  0  0  0  0  0  0  0  0  0  0
   25.2158    2.1857   32.0667 C   0  0  0  0  0  0  0  0  0  0  0  0
   25.6996    0.8820   32.3208 C   0  0  0  0  0  0  0  0  0  0  0  0
   24.9367   -0.2412   31.9952 C   0  0  0  0  0  0  0  0  0  0  0  0
   23.6766   -0.0917   31.4212 C   0  0  0  0  0  0  0  0  0  0  0  0
   23.1664    1.1830   31.1806 C   0  0  0  0  0  0  0  0  0  0  0  0
   27.6525    4.2855   30.2624 O   0  0  0  0  0  0  0  0  0  0  0  0
   29.3983    3.1473   28.2219 C   0  0  0  0  0  0  0  0  0  0  0  0
   29.5057    4.5237   28.0439 O   0  0  0  0  0  0  0  0  0  0  0  0
   29.4834    2.3849   27.2213 O   0  0  0  0  0  0  0  0  0  0  0  0
   26.1859    5.7666   32.3872 O   0  0  0  0  0  0  0  0  0  0  0  0
   23.4099    6.0515   31.4785 C   0  0  0  0  0  0  0  0  0  0  0  0
   22.5228    6.2492   30.4237 O   0  0  0  0  0  0  0  0  0  0  0  0
   23.5786    6.9696   32.3251 O   0  0  0  0  0  0  0  0  0  0  0  0
   30.5915    0.9553   29.1225 H   0  0  0  0  0  0  0  0  0  0  0  0
   28.9130    1.4980   34.3869 H   0  0  0  0  0  0  0  0  0  0  0  0
   30.2837   -0.4355   34.8155 H   0  0  0  0  0  0  0  0  0  0  0  0
   31.5145   -1.5514   32.9891 H   0  0  0  0  0  0  0  0  0  0  0  0
   31.3761   -0.6892   30.6933 H   0  0  0  0  0  0  0  0  0  0  0  0
   27.3298    2.6983   33.8349 H   0  0  0  0  0  0  0  0  0  0  0  0
   27.8205    4.2408   33.1770 H   0  0  0  0  0  0  0  0  0  0  0  0
   22.3765    3.6823   30.8878 H   0  0  0  0  0  0  0  0  0  0  0  0
   26.6577    0.7102   32.7834 H   0  0  0  0  0  0  0  0  0  0  0  0
   25.3240   -1.2325   32.1933 H   0  0  0  0  0  0  0  0  0  0  0  0
   23.0890   -0.9658   31.1714 H   0  0  0  0  0  0  0  0  0  0  0  0
   22.1780    1.2783   30.7465 H   0  0  0  0  0  0  0  0  0  0  0  0
   27.4793    4.6127   29.3220 H   0  0  0  0  0  0  0  0  0  0  0  0
   29.6247    4.9210   27.1196 H   0  0  0  0  0  0  0  0  0  0  0  0
   25.9373    6.6969   32.0806 H   0  0  0  0  0  0  0  0  0  0  0  0
   22.0310    7.1282   30.3155 H   0  0  0  0  0  0  0  0  0  0  0  0
  1  5  2  0
  2  3  2  0
  3  4  1  0
  4  6  2  0
  5  6  1  0
  5 10  1  0
  6  7  1  0
  7  8  2  0
  8  9  1  0
  9 10  2  0
  4 11  1  0
 11 12  1  0
 12 17  2  0
 12 15  1  0
 16 13  2  0
 13 14  1  0
 14 15  2  0
 16 17  1  0
 16 21  1  0
 17 18  1  0
 18 19  2  0
 19 20  1  0
 20 21  2  0
  3 22  1  0
  2 23  1  0
 23 24  1  0
 23 25  2  0
 15 26  1  0
 14 27  1  0
  1  2  1  0
 27 28  1  0
 27 29  2  0
  1 30  1  0
  7 31  1  0
  8 32  1  0
  9 33  1  0
 10 34  1  0
 11 35  1  0
 11 36  1  0
 13 37  1  0
 18 38  1  0
 19 39  1  0
 20 40  1  0
 21 41  1  0
 22 42  1  0
 24 43  1  0
 26 44  1  0
 28 45  1  0
M  END
> <Uni-Dock RESULT> 
ENERGY=   -5.439  LOWER_BOUND=    0.106  UPPER_BOUND=    0.106
INTER + INTRA:          -5.439
INTER:                  -5.439
INTRA:                   0.000
UNBOUND:                 0.000

$$$$

     RDKit          3D

 45 48  0  0  0  0  0  0  0  0999 V2000
   30.0318    1.4653   29.7898 C   0  0  0  0  0  0  0  0  0  0  0  0
   29.2830    2.6056   29.4902 C   0  0  0  0  0  0  0  0  0  0  0  0
   28.4820    3.1959   30.4934 C   0  0  0  0  0  0  0  0  0  0  0  0
   28.4614    2.6620   31.8092 C   0  0  0  0  0  0  0  0  0  0  0  0
   30.0854    0.9624   31.0906 C   0  0  0  0  0  0  0  0  0  0  0  0
   29.3406    1.5811   32.1304 C   0  0  0  0  0  0  0  0  0  0  0  0
   29.5170    1.0915   33.4491 C   0  0  0  0  0  0  0  0  0  0  0  0
   30.3448   -0.0043   33.7041 C   0  0  0  0  0  0  0  0  0  0  0  0
   31.0283   -0.6272   32.6647 C   0  0  0  0  0  0  0  0  0  0  0  0
   30.9083   -0.1429   31.3650 C   0  0  0  0  0  0  0  0  0  0  0  0
   27.5014    3.2753   32.8345 C   0  0  0  0  0  0  0  0  0  0  0  0
   26.0598    3.3532   32.3356 C   0  0  0  0  0  0  0  0  0  0  0  0
   23.4346    3.5569   31.3226 C   0  0  0  0  0  0  0  0  0  0  0  0
   24.1375    4.7216   31.6467 C   0  0  0  0  0  0  0  0  0  0  0  0
   25.4668    4.6238   32.1226 C   0  0  0  0  0  0  0  0  0  0  0  0
   23.9963    2.2952   31.5315 C   0  0  0  0  0  0  0  0  0  0  0  0
   25.3041    2.1770   32.0666 C   0  0  0  0  0  0  0  0  0  0  0  0
   25.8099    0.8808   32.3159 C   0  0  0  0  0  0  0  0  0  0  0  0
   25.0546   -0.2535   32.0115 C   0  0  0  0  0  0  0  0  0  0  0  0
   23.7807   -0.1227   31.4641 C   0  0  0  0  0  0  0  0  0  0  0  0
   23.2492    1.1443   31.2291 C   0  0  0  0  0  0  0  0  0  0  0  0
   27.6746    4.2993   30.2014 O   0  0  0  0  0  0  0  0  0  0  0  0
   29.3907    3.1739   28.1288 C   0  0  0  0  0  0  0  0  0  0  0  0
   29.4766    4.5508   27.9425 O   0  0  0  0  0  0  0  0  0  0  0  0
   29.4641    2.4081   27.1299 O   0  0  0  0  0  0  0  0  0  0  0  0
   26.2350    5.7713   32.3507 O   0  0  0  0  0  0  0  0  0  0  0  0
   23.4368    6.0168   31.5006 C   0  0  0  0  0  0  0  0  0  0  0  0
   22.5248    6.1984   30.4643 O   0  0  0  0  0  0  0  0  0  0  0  0
   23.6118    6.9408   32.3395 O   0  0  0  0  0  0  0  0  0  0  0  0
   30.6308    1.0014   29.0129 H   0  0  0  0  0  0  0  0  0  0  0  0
   29.0587    1.5469   34.3098 H   0  0  0  0  0  0  0  0  0  0  0  0
   30.4629   -0.3671   34.7172 H   0  0  0  0  0  0  0  0  0  0  0  0
   31.6684   -1.4756   32.8696 H   0  0  0  0  0  0  0  0  0  0  0  0
   31.4698   -0.6257   30.5736 H   0  0  0  0  0  0  0  0  0  0  0  0
   27.4488    2.7245   33.7868 H   0  0  0  0  0  0  0  0  0  0  0  0
   27.9056    4.2700   33.1119 H   0  0  0  0  0  0  0  0  0  0  0  0
   22.4213    3.6320   30.9426 H   0  0  0  0  0  0  0  0  0  0  0  0
   26.7799    0.7232   32.7586 H   0  0  0  0  0  0  0  0  0  0  0  0
   25.4588   -1.2389   32.2056 H   0  0  0  0  0  0  0  0  0  0  0  0
   23.1991   -1.0053   31.2308 H   0  0  0  0  0  0  0  0  0  0  0  0
   22.2506    1.2251   30.8159 H   0  0  0  0  0  0  0  0  0  0  0  0
   27.4771    4.6199   29.2635 H   0  0  0  0  0  0  0  0  0  0  0  0
   29.5707    4.9453   27.0143 H   0  0  0  0  0  0  0  0  0  0  0  0
   25.9680    6.6970   32.0456 H   0  0  0  0  0  0  0  0  0  0  0  0
   22.0197    7.0706   30.3629 H   0  0  0  0  0  0  0  0  0  0  0  0
  1  5  2  0
  2  3  2  0
  3  4  1  0
  4  6  2  0
  5  6  1  0
  5 10  1  0
  6  7  1  0
  7  8  2  0
  8  9  1  0
  9 10  2  0
  4 11  1  0
 11 12  1  0
 12 17  2  0
 12 15  1  0
 16 13  2  0
 13 14  1  0
 14 15  2  0
 16 17  1  0
 16 21  1  0
 17 18  1  0
 18 19  2  0
 19 20  1  0
 20 21  2  0
  3 22  1  0
  2 23  1  0
 23 24  1  0
 23 25  2  0
 15 26  1  0
 14 27  1  0
  1  2  1  0
 27 28  1  0
 27 29  2  0
  1 30  1  0
  7 31  1  0
  8 32  1  0
  9 33  1  0
 10 34  1  0
 11 35  1  0
 11 36  1  0
 13 37  1  0
 18 38  1  0
 19 39  1  0
 20 40  1  0
 21 41  1  0
 22 42  1  0
 24 43  1  0
 26 44  1  0
 28 45  1  0
M  END
> <Uni-Dock RESULT> 
ENERGY=   -5.412  LOWER_BOUND=    0.132  UPPER_BOUND=    0.132
INTER + INTRA:          -5.412
INTER:                  -5.412
INTRA:                   0.000
UNBOUND:                 0.000

$$$$

     RDKit          3D

 45 48  0  0  0  0  0  0  0  0999 V2000
   30.7144   11.7835   21.4078 C   0  0  0  0  0  0  0  0  0  0  0  0
   29.4478   11.3740   21.8305 C   0  0  0  0  0  0  0  0  0  0  0  0
   28.9047   11.9079   23.0208 C   0  0  0  0  0  0  0  0  0  0  0  0
   29.6190   12.8817   23.7680 C   0  0  0  0  0  0  0  0  0  0  0  0
   31.4067   12.7898   22.0832 C   0  0  0  0  0  0  0  0  0  0  0  0
   30.8492   13.3889   23.2447 C   0  0  0  0  0  0  0  0  0  0  0  0
   31.5485   14.4765   23.8258 C   0  0  0  0  0  0  0  0  0  0  0  0
   32.7762   14.8991   23.3108 C   0  0  0  0  0  0  0  0  0  0  0  0
   33.3291   14.2675   22.2014 C   0  0  0  0  0  0  0  0  0  0  0  0
   32.6458   13.2239   21.5832 C   0  0  0  0  0  0  0  0  0  0  0  0
   29.0341   13.3556   25.1030 C   0  0  0  0  0  0  0  0  0  0  0  0
   28.6796   12.2065   26.0449 C   0  0  0  0  0  0  0  0  0  0  0  0
   27.9580   10.0399   27.7013 C   0  0  0  0  0  0  0  0  0  0  0  0
   26.9656   10.9088   27.2367 C   0  0  0  0  0  0  0  0  0  0  0  0
   27.3203   11.9762   26.3778 C   0  0  0  0  0  0  0  0  0  0  0  0
   29.3034   10.2523   27.3922 C   0  0  0  0  0  0  0  0  0  0  0  0
   29.6838   11.3536   26.5841 C   0  0  0  0  0  0  0  0  0  0  0  0
   31.0612   11.5635   26.3452 C   0  0  0  0  0  0  0  0  0  0  0  0
   32.0192   10.6897   26.8634 C   0  0  0  0  0  0  0  0  0  0  0  0
   31.6294    9.5983   27.6359 C   0  0  0  0  0  0  0  0  0  0  0  0
   30.2791    9.3811   27.9052 C   0  0  0  0  0  0  0  0  0  0  0  0
   27.6670   11.4667   23.4983 O   0  0  0  0  0  0  0  0  0  0  0  0
   28.7054   10.4147   20.9840 C   0  0  0  0  0  0  0  0  0  0  0  0
   27.3424   10.5815   20.7554 O   0  0  0  0  0  0  0  0  0  0  0  0
   29.3176    9.4703   20.4157 O   0  0  0  0  0  0  0  0  0  0  0  0
   26.3399   12.7961   25.8071 O   0  0  0  0  0  0  0  0  0  0  0  0
   25.5769   10.6829   27.6952 C   0  0  0  0  0  0  0  0  0  0  0  0
   25.1165    9.3846   27.8978 O   0  0  0  0  0  0  0  0  0  0  0  0
   24.8214   11.6556   27.9618 O   0  0  0  0  0  0  0  0  0  0  0  0
   31.1385   11.3577   20.5043 H   0  0  0  0  0  0  0  0  0  0  0  0
   31.1651   15.0435   24.6564 H   0  0  0  0  0  0  0  0  0  0  0  0
   33.2979   15.7284   23.7715 H   0  0  0  0  0  0  0  0  0  0  0  0
   34.2807   14.6005   21.8073 H   0  0  0  0  0  0  0  0  0  0  0  0
   33.0810   12.7627   20.7042 H   0  0  0  0  0  0  0  0  0  0  0  0
   29.7067   14.0077   25.6823 H   0  0  0  0  0  0  0  0  0  0  0  0
   28.1589   13.9961   24.8716 H   0  0  0  0  0  0  0  0  0  0  0  0
   27.6844    9.2119   28.3468 H   0  0  0  0  0  0  0  0  0  0  0  0
   31.4185   12.4042   25.7734 H   0  0  0  0  0  0  0  0  0  0  0  0
   33.0697   10.8633   26.6677 H   0  0  0  0  0  0  0  0  0  0  0  0
   32.3763    8.9246   28.0358 H   0  0  0  0  0  0  0  0  0  0  0  0
   29.9973    8.5344   28.5203 H   0  0  0  0  0  0  0  0  0  0  0  0
   27.1864   10.6501   23.1467 H   0  0  0  0  0  0  0  0  0  0  0  0
   26.8323    9.9395   20.1605 H   0  0  0  0  0  0  0  0  0  0  0  0
   25.3508   12.5898   25.8300 H   0  0  0  0  0  0  0  0  0  0  0  0
   24.1761    9.2125   28.2330 H   0  0  0  0  0  0  0  0  0  0  0  0
  1  5  2  0
  2  3  2  0
  3  4  1  0
  4  6  2  0
  5  6  1  0
  5 10  1  0
  6  7  1  0
  7  8  2  0
  8  9  1  0
  9 10  2  0
  4 11  1  0
 11 12  1  0
 12 17  2  0
 12 15  1  0
 16 13  2  0
 13 14  1  0
 14 15  2  0
 16 17  1  0
 16 21  1  0
 17 18  1  0
 18 19  2  0
 19 20  1  0
 20 21  2  0
  3 22  1  0
  2 23  1  0
 23 24  1  0
 23 25  2  0
 15 26  1  0
 14 27  1  0
  1  2  1  0
 27 28  1  0
 27 29  2  0
  1 30  1  0
  7 31  1  0
  8 32  1  0
  9 33  1  0
 10 34  1  0
 11 35  1  0
 11 36  1  0
 13 37  1  0
 18 38  1  0
 19 39  1  0
 20 40  1  0
 21 41  1  0
 22 42  1  0
 24 43  1  0
 26 44  1  0
 28 45  1  0
M  END
> <Uni-Dock RESULT> 
ENERGY=   -4.440  LOWER_BOUND=    9.552  UPPER_BOUND=   12.203
INTER + INTRA:          -4.440
INTER:                  -4.440
INTRA:                   0.000
UNBOUND:                 0.000

$$$$

     RDKit          3D

 45 48  0  0  0  0  0  0  0  0999 V2000
   31.6171   12.8640   19.2462 C   0  0  0  0  0  0  0  0  0  0  0  0
   31.2595   13.6654   20.3327 C   0  0  0  0  0  0  0  0  0  0  0  0
   30.3679   13.1613   21.3061 C   0  0  0  0  0  0  0  0  0  0  0  0
   29.8636   11.8374   21.2077 C   0  0  0  0  0  0  0  0  0  0  0  0
   31.1932   11.5369   19.1621 C   0  0  0  0  0  0  0  0  0  0  0  0
   30.3504   10.9879   20.1656 C   0  0  0  0  0  0  0  0  0  0  0  0
   30.0392    9.6073   20.0826 C   0  0  0  0  0  0  0  0  0  0  0  0
   30.4930    8.8314   19.0135 C   0  0  0  0  0  0  0  0  0  0  0  0
   31.2774    9.3992   18.0146 C   0  0  0  0  0  0  0  0  0  0  0  0
   31.6348   10.7426   18.0906 C   0  0  0  0  0  0  0  0  0  0  0  0
   28.8226   11.3713   22.2315 C   0  0  0  0  0  0  0  0  0  0  0  0
   27.6321   12.3207   22.3522 C   0  0  0  0  0  0  0  0  0  0  0  0
   25.5072   14.1601   22.5983 C   0  0  0  0  0  0  0  0  0  0  0  0
   26.3382   13.9203   23.6973 C   0  0  0  0  0  0  0  0  0  0  0  0
   27.4257   13.0241   23.5664 C   0  0  0  0  0  0  0  0  0  0  0  0
   25.6877   13.4730   21.3957 C   0  0  0  0  0  0  0  0  0  0  0  0
   26.7340   12.5248   21.2666 C   0  0  0  0  0  0  0  0  0  0  0  0
   26.8433   11.8108   20.0514 C   0  0  0  0  0  0  0  0  0  0  0  0
   25.9647   12.0574   18.9945 C   0  0  0  0  0  0  0  0  0  0  0  0
   24.9563   13.0088   19.1270 C   0  0  0  0  0  0  0  0  0  0  0  0
   24.8126   13.7110   20.3225 C   0  0  0  0  0  0  0  0  0  0  0  0
   29.9452   13.9661   22.3682 O   0  0  0  0  0  0  0  0  0  0  0  0
   31.8657   15.0106   20.4375 C   0  0  0  0  0  0  0  0  0  0  0  0
   32.3099   15.4919   21.6659 O   0  0  0  0  0  0  0  0  0  0  0  0
   32.0367   15.7076   19.4009 O   0  0  0  0  0  0  0  0  0  0  0  0
   28.3403   12.8459   24.6107 O   0  0  0  0  0  0  0  0  0  0  0  0
   26.0182   14.6043   24.9699 C   0  0  0  0  0  0  0  0  0  0  0  0
   25.4945   15.8942   24.9509 O   0  0  0  0  0  0  0  0  0  0  0  0
   26.1592   14.0103   26.0724 O   0  0  0  0  0  0  0  0  0  0  0  0
   32.2861   13.2597   18.4890 H   0  0  0  0  0  0  0  0  0  0  0  0
   29.4765    9.0866   20.8379 H   0  0  0  0  0  0  0  0  0  0  0  0
   30.2407    7.7797   18.9647 H   0  0  0  0  0  0  0  0  0  0  0  0
   31.6260    8.7919   17.1892 H   0  0  0  0  0  0  0  0  0  0  0  0
   32.2686   11.1592   17.3163 H   0  0  0  0  0  0  0  0  0  0  0  0
   28.3850   10.3850   22.0106 H   0  0  0  0  0  0  0  0  0  0  0  0
   29.3490   11.2307   23.1974 H   0  0  0  0  0  0  0  0  0  0  0  0
   24.6832   14.8592   22.6934 H   0  0  0  0  0  0  0  0  0  0  0  0
   27.5907   11.0486   19.9039 H   0  0  0  0  0  0  0  0  0  0  0  0
   26.0648   11.5040   18.0694 H   0  0  0  0  0  0  0  0  0  0  0  0
   24.2774   13.1954   18.3048 H   0  0  0  0  0  0  0  0  0  0  0  0
   24.0126   14.4369   20.4108 H   0  0  0  0  0  0  0  0  0  0  0  0
   30.0930   14.9649   22.4113 H   0  0  0  0  0  0  0  0  0  0  0  0
   32.7440   16.4040   21.7411 H   0  0  0  0  0  0  0  0  0  0  0  0
   28.3855   13.4406   25.4266 H   0  0  0  0  0  0  0  0  0  0  0  0
   25.2488   16.3686   25.8116 H   0  0  0  0  0  0  0  0  0  0  0  0
  1  5  2  0
  2  3  2  0
  3  4  1  0
  4  6  2  0
  5  6  1  0
  5 10  1  0
  6  7  1  0
  7  8  2  0
  8  9  1  0
  9 10  2  0
  4 11  1  0
 11 12  1  0
 12 17  2  0
 12 15  1  0
 16 13  2  0
 13 14  1  0
 14 15  2  0
 16 17  1  0
 16 21  1  0
 17 18  1  0
 18 19  2  0
 19 20  1  0
 20 21  2  0
  3 22  1  0
  2 23  1  0
 23 24  1  0
 23 25  2  0
 15 26  1  0
 14 27  1  0
  1  2  1  0
 27 28  1  0
 27 29  2  0
  1 30  1  0
  7 31  1  0
  8 32  1  0
  9 33  1  0
 10 34  1  0
 11 35  1  0
 11 36  1  0
 13 37  1  0
 18 38  1  0
 19 39  1  0
 20 40  1  0
 21 41  1  0
 22 42  1  0
 24 43  1  0
 26 44  1  0
 28 45  1  0
M  END
> <Uni-Dock RESULT> 
ENERGY=   -4.318  LOWER_BOUND=   12.994  UPPER_BOUND=   14.684
INTER + INTRA:          -4.318
INTER:                  -4.318
INTRA:                   0.000
UNBOUND:                 0.000

$$$$

     RDKit          3D

 45 48  0  0  0  0  0  0  0  0999 V2000
   30.8982   11.0506   19.2603 C   0  0  0  0  0  0  0  0  0  0  0  0
   29.8961   10.5527   20.0961 C   0  0  0  0  0  0  0  0  0  0  0  0
   29.3720   11.3733   21.1200 C   0  0  0  0  0  0  0  0  0  0  0  0
   29.8289   12.7082   21.2815 C   0  0  0  0  0  0  0  0  0  0  0  0
   31.3147   12.3796   19.3509 C   0  0  0  0  0  0  0  0  0  0  0  0
   30.7524   13.2426   20.3296 C   0  0  0  0  0  0  0  0  0  0  0  0
   31.1371   14.6069   20.3048 C   0  0  0  0  0  0  0  0  0  0  0  0
   32.0863   15.0694   19.3905 C   0  0  0  0  0  0  0  0  0  0  0  0
   32.6615   14.1978   18.4714 C   0  0  0  0  0  0  0  0  0  0  0  0
   32.2730   12.8612   18.4433 C   0  0  0  0  0  0  0  0  0  0  0  0
   29.3037   13.5246   22.4675 C   0  0  0  0  0  0  0  0  0  0  0  0
   29.4621   12.8076   23.8070 C   0  0  0  0  0  0  0  0  0  0  0  0
   29.6952   11.3944   26.2375 C   0  0  0  0  0  0  0  0  0  0  0  0
   28.4252   11.7299   25.7578 C   0  0  0  0  0  0  0  0  0  0  0  0
   28.3039   12.4086   24.5218 C   0  0  0  0  0  0  0  0  0  0  0  0
   30.8492   11.7839   25.5538 C   0  0  0  0  0  0  0  0  0  0  0  0
   30.7479   12.5193   24.3457 C   0  0  0  0  0  0  0  0  0  0  0  0
   31.9420   12.9429   23.7186 C   0  0  0  0  0  0  0  0  0  0  0  0
   33.1883   12.6164   24.2569 C   0  0  0  0  0  0  0  0  0  0  0  0
   33.2730   11.8731   25.4316 C   0  0  0  0  0  0  0  0  0  0  0  0
   32.1107   11.4620   26.0822 C   0  0  0  0  0  0  0  0  0  0  0  0
   28.4143   10.8768   22.0093 O   0  0  0  0  0  0  0  0  0  0  0  0
   29.3951    9.1834   19.8466 C   0  0  0  0  0  0  0  0  0  0  0  0
   28.0328    8.9057   19.9160 O   0  0  0  0  0  0  0  0  0  0  0  0
   30.1970    8.2700   19.5115 O   0  0  0  0  0  0  0  0  0  0  0  0
   27.0469   12.6609   23.9603 O   0  0  0  0  0  0  0  0  0  0  0  0
   27.2545   11.3785   26.5919 C   0  0  0  0  0  0  0  0  0  0  0  0
   27.2642   10.2046   27.3405 O   0  0  0  0  0  0  0  0  0  0  0  0
   26.2695   12.1597   26.6794 O   0  0  0  0  0  0  0  0  0  0  0  0
   31.3138   10.4124   18.4873 H   0  0  0  0  0  0  0  0  0  0  0  0
   30.7050   15.3497   20.9527 H   0  0  0  0  0  0  0  0  0  0  0  0
   32.3712   16.1139   19.3904 H   0  0  0  0  0  0  0  0  0  0  0  0
   33.3963   14.5632   17.7654 H   0  0  0  0  0  0  0  0  0  0  0  0
   32.7135   12.2045   17.7021 H   0  0  0  0  0  0  0  0  0  0  0  0
   29.8023   14.4978   22.5994 H   0  0  0  0  0  0  0  0  0  0  0  0
   28.2473   13.7819   22.2496 H   0  0  0  0  0  0  0  0  0  0  0  0
   29.7880   10.8599   27.1770 H   0  0  0  0  0  0  0  0  0  0  0  0
   31.9333   13.5388   22.8207 H   0  0  0  0  0  0  0  0  0  0  0  0
   34.0929   12.9459   23.7617 H   0  0  0  0  0  0  0  0  0  0  0  0
   34.2417   11.6235   25.8450 H   0  0  0  0  0  0  0  0  0  0  0  0
   32.1977   10.8967   27.0027 H   0  0  0  0  0  0  0  0  0  0  0  0
   28.1784    9.8977   22.0937 H   0  0  0  0  0  0  0  0  0  0  0  0
   27.6814    7.9747   19.7266 H   0  0  0  0  0  0  0  0  0  0  0  0
   26.1878   12.2475   24.2955 H   0  0  0  0  0  0  0  0  0  0  0  0
   26.4808    9.9599   27.9343 H   0  0  0  0  0  0  0  0  0  0  0  0
  1  5  2  0
  2  3  2  0
  3  4  1  0
  4  6  2  0
  5  6  1  0
  5 10  1  0
  6  7  1  0
  7  8  2  0
  8  9  1  0
  9 10  2  0
  4 11  1  0
 11 12  1  0
 12 17  2  0
 12 15  1  0
 16 13  2  0
 13 14  1  0
 14 15  2  0
 16 17  1  0
 16 21  1  0
 17 18  1  0
 18 19  2  0
 19 20  1  0
 20 21  2  0
  3 22  1  0
  2 23  1  0
 23 24  1  0
 23 25  2  0
 15 26  1  0
 14 27  1  0
  1  2  1  0
 27 28  1  0
 27 29  2  0
  1 30  1  0
  7 31  1  0
  8 32  1  0
  9 33  1  0
 10 34  1  0
 11 35  1  0
 11 36  1  0
 13 37  1  0
 18 38  1  0
 19 39  1  0
 20 40  1  0
 21 41  1  0
 22 42  1  0
 24 43  1  0
 26 44  1  0
 28 45  1  0
M  END
> <Uni-Dock RESULT> 
ENERGY=   -3.970  LOWER_BOUND=   10.895  UPPER_BOUND=   14.001
INTER + INTRA:          -3.970
INTER:                  -3.970
INTRA:                   0.000
UNBOUND:                 0.000

$$$$

     RDKit          3D

 45 48  0  0  0  0  0  0  0  0999 V2000
   23.5003    5.1438   30.6617 C   0  0  0  0  0  0  0  0  0  0  0  0
   24.6492    5.5016   31.3706 C   0  0  0  0  0  0  0  0  0  0  0  0
   24.8158    6.8382   31.7978 C   0  0  0  0  0  0  0  0  0  0  0  0
   23.8102    7.8085   31.5446 C   0  0  0  0  0  0  0  0  0  0  0  0
   22.4657    6.0590   30.4613 C   0  0  0  0  0  0  0  0  0  0  0  0
   22.5828    7.3909   30.9417 C   0  0  0  0  0  0  0  0  0  0  0  0
   21.4588    8.2435   30.8020 C   0  0  0  0  0  0  0  0  0  0  0  0
   20.3011    7.8060   30.1545 C   0  0  0  0  0  0  0  0  0  0  0  0
   20.2239    6.5127   29.6477 C   0  0  0  0  0  0  0  0  0  0  0  0
   21.2957    5.6385   29.8069 C   0  0  0  0  0  0  0  0  0  0  0  0
   24.0809    9.2648   31.9383 C   0  0  0  0  0  0  0  0  0  0  0  0
   25.4012    9.8003   31.3873 C   0  0  0  0  0  0  0  0  0  0  0  0
   27.8939   10.7013   30.4212 C   0  0  0  0  0  0  0  0  0  0  0  0
   27.6801   10.6235   31.8010 C   0  0  0  0  0  0  0  0  0  0  0  0
   26.4427   10.1392   32.2883 C   0  0  0  0  0  0  0  0  0  0  0  0
   26.8798   10.3798   29.5161 C   0  0  0  0  0  0  0  0  0  0  0  0
   25.6126    9.9527   29.9877 C   0  0  0  0  0  0  0  0  0  0  0  0
   24.5981    9.6941   29.0379 C   0  0  0  0  0  0  0  0  0  0  0  0
   24.8477    9.8234   27.6702 C   0  0  0  0  0  0  0  0  0  0  0  0
   26.1044   10.2209   27.2202 C   0  0  0  0  0  0  0  0  0  0  0  0
   27.1160   10.5037   28.1366 C   0  0  0  0  0  0  0  0  0  0  0  0
   25.9853    7.2350   32.4529 O   0  0  0  0  0  0  0  0  0  0  0  0
   25.6370    4.4446   31.6789 C   0  0  0  0  0  0  0  0  0  0  0  0
   26.2414    4.3857   32.9316 O   0  0  0  0  0  0  0  0  0  0  0  0
   25.8941    3.5535   30.8248 O   0  0  0  0  0  0  0  0  0  0  0  0
   26.2362    9.9446   33.6589 O   0  0  0  0  0  0  0  0  0  0  0  0
   28.7638   11.0843   32.6970 C   0  0  0  0  0  0  0  0  0  0  0  0
   30.0936   10.8826   32.3370 O   0  0  0  0  0  0  0  0  0  0  0  0
   28.4985   11.7114   33.7574 O   0  0  0  0  0  0  0  0  0  0  0  0
   23.3831    4.1216   30.3169 H   0  0  0  0  0  0  0  0  0  0  0  0
   21.4252    9.2404   31.2061 H   0  0  0  0  0  0  0  0  0  0  0  0
   19.4548    8.4735   30.0529 H   0  0  0  0  0  0  0  0  0  0  0  0
   19.3234    6.1802   29.1475 H   0  0  0  0  0  0  0  0  0  0  0  0
   21.2054    4.6269   29.4284 H   0  0  0  0  0  0  0  0  0  0  0  0
   23.3134    9.9744   31.5912 H   0  0  0  0  0  0  0  0  0  0  0  0
   24.0317    9.3227   33.0446 H   0  0  0  0  0  0  0  0  0  0  0  0
   28.8480   11.0572   30.0471 H   0  0  0  0  0  0  0  0  0  0  0  0
   23.6023    9.4055   29.3324 H   0  0  0  0  0  0  0  0  0  0  0  0
   24.0603    9.6179   26.9562 H   0  0  0  0  0  0  0  0  0  0  0  0
   26.2923   10.3203   26.1589 H   0  0  0  0  0  0  0  0  0  0  0  0
   28.0827   10.8254   27.7670 H   0  0  0  0  0  0  0  0  0  0  0  0
   26.8229    6.6714   32.5007 H   0  0  0  0  0  0  0  0  0  0  0  0
   26.9036    3.6527   33.1557 H   0  0  0  0  0  0  0  0  0  0  0  0
   26.9745    9.9720   34.3485 H   0  0  0  0  0  0  0  0  0  0  0  0
   30.8480   11.2117   32.9276 H   0  0  0  0  0  0  0  0  0  0  0  0
  1  5  2  0
  2  3  2  0
  3  4  1  0
  4  6  2  0
  5  6  1  0
  5 10  1  0
  6  7  1  0
  7  8  2  0
  8  9  1  0
  9 10  2  0
  4 11  1  0
 11 12  1  0
 12 17  2  0
 12 15  1  0
 16 13  2  0
 13 14  1  0
 14 15  2  0
 16 17  1  0
 16 21  1  0
 17 18  1  0
 18 19  2  0
 19 20  1  0
 20 21  2  0
  3 22  1  0
  2 23  1  0
 23 24  1  0
 23 25  2  0
 15 26  1  0
 14 27  1  0
  1  2  1  0
 27 28  1  0
 27 29  2  0
  1 30  1  0
  7 31  1  0
  8 32  1  0
  9 33  1  0
 10 34  1  0
 11 35  1  0
 11 36  1  0
 13 37  1  0
 18 38  1  0
 19 39  1  0
 20 40  1  0
 21 41  1  0
 22 42  1  0
 24 43  1  0
 26 44  1  0
 28 45  1  0
M  END
> <Uni-Dock RESULT> 
ENERGY=   -3.960  LOWER_BOUND=    4.371  UPPER_BOUND=    8.461
INTER + INTRA:          -3.960
INTER:                  -3.960
INTRA:                   0.000
UNBOUND:                 0.000

$$$$

     RDKit          3D

 45 48  0  0  0  0  0  0  0  0999 V2000
   31.2814   11.7344   25.3766 C   0  0  0  0  0  0  0  0  0  0  0  0
   32.2309   12.2153   24.4723 C   0  0  0  0  0  0  0  0  0  0  0  0
   31.8026   12.8606   23.2904 C   0  0  0  0  0  0  0  0  0  0  0  0
   30.4194   13.0559   23.0342 C   0  0  0  0  0  0  0  0  0  0  0  0
   29.9200   11.9751   25.1847 C   0  0  0  0  0  0  0  0  0  0  0  0
   29.4711   12.6815   24.0366 C   0  0  0  0  0  0  0  0  0  0  0  0
   28.0896   12.9875   23.9492 C   0  0  0  0  0  0  0  0  0  0  0  0
   27.1934   12.5505   24.9273 C   0  0  0  0  0  0  0  0  0  0  0  0
   27.6460   11.8178   26.0198 C   0  0  0  0  0  0  0  0  0  0  0  0
   29.0030   11.5378   26.1552 C   0  0  0  0  0  0  0  0  0  0  0  0
   30.0017   13.6701   21.6935 C   0  0  0  0  0  0  0  0  0  0  0  0
   30.6067   12.9511   20.4892 C   0  0  0  0  0  0  0  0  0  0  0  0
   31.8289   11.6413   18.3099 C   0  0  0  0  0  0  0  0  0  0  0  0
   32.1247   12.9857   18.5562 C   0  0  0  0  0  0  0  0  0  0  0  0
   31.5396   13.6355   19.6690 C   0  0  0  0  0  0  0  0  0  0  0  0
   30.9075   10.9503   19.1001 C   0  0  0  0  0  0  0  0  0  0  0  0
   30.2641   11.6040   20.1814 C   0  0  0  0  0  0  0  0  0  0  0  0
   29.2960   10.8837   20.9177 C   0  0  0  0  0  0  0  0  0  0  0  0
   29.0057    9.5531   20.6094 C   0  0  0  0  0  0  0  0  0  0  0  0
   29.6628    8.9163   19.5594 C   0  0  0  0  0  0  0  0  0  0  0  0
   30.6057    9.6105   18.8031 C   0  0  0  0  0  0  0  0  0  0  0  0
   32.7316   13.2937   22.3398 O   0  0  0  0  0  0  0  0  0  0  0  0
   33.6618   12.0585   24.8129 C   0  0  0  0  0  0  0  0  0  0  0  0
   34.5610   13.0958   24.5819 O   0  0  0  0  0  0  0  0  0  0  0  0
   34.0652   11.0018   25.3698 O   0  0  0  0  0  0  0  0  0  0  0  0
   31.8990   14.9452   20.0077 O   0  0  0  0  0  0  0  0  0  0  0  0
   33.0266   13.6810   17.6112 C   0  0  0  0  0  0  0  0  0  0  0  0
   34.0804   12.9878   17.0216 O   0  0  0  0  0  0  0  0  0  0  0  0
   32.8173   14.8806   17.2870 O   0  0  0  0  0  0  0  0  0  0  0  0
   31.6115   11.2213   26.2739 H   0  0  0  0  0  0  0  0  0  0  0  0
   27.6707   13.5868   23.1594 H   0  0  0  0  0  0  0  0  0  0  0  0
   26.1411   12.7896   24.8404 H   0  0  0  0  0  0  0  0  0  0  0  0
   26.9459   11.4826   26.7743 H   0  0  0  0  0  0  0  0  0  0  0  0
   29.3387   10.9886   27.0273 H   0  0  0  0  0  0  0  0  0  0  0  0
   28.9146   13.6665   21.5167 H   0  0  0  0  0  0  0  0  0  0  0  0
   30.2740   14.7447   21.7232 H   0  0  0  0  0  0  0  0  0  0  0  0
   32.2897   11.1382   17.4664 H   0  0  0  0  0  0  0  0  0  0  0  0
   28.7426   11.3349   21.7250 H   0  0  0  0  0  0  0  0  0  0  0  0
   28.2640    9.0151   21.1858 H   0  0  0  0  0  0  0  0  0  0  0  0
   29.4334    7.8849   19.3241 H   0  0  0  0  0  0  0  0  0  0  0  0
   31.0956    9.1016   17.9812 H   0  0  0  0  0  0  0  0  0  0  0  0
   33.7065   13.0271   22.3430 H   0  0  0  0  0  0  0  0  0  0  0  0
   35.5383   13.0022   24.8313 H   0  0  0  0  0  0  0  0  0  0  0  0
   32.6864   15.4344   19.6052 H   0  0  0  0  0  0  0  0  0  0  0  0
   34.6936   13.4420   16.3554 H   0  0  0  0  0  0  0  0  0  0  0  0
  1  5  2  0
  2  3  2  0
  3  4  1  0
  4  6  2  0
  5  6  1  0
  5 10  1  0
  6  7  1  0
  7  8  2  0
  8  9  1  0
  9 10  2  0
  4 11  1  0
 11 12  1  0
 12 17  2  0
 12 15  1  0
 16 13  2  0
 13 14  1  0
 14 15  2  0
 16 17  1  0
 16 21  1  0
 17 18  1  0
 18 19  2  0
 19 20  1  0
 20 21  2  0
  3 22  1  0
  2 23  1  0
 23 24  1  0
 23 25  2  0
 15 26  1  0
 14 27  1  0
  1  2  1  0
 27 28  1  0
 27 29  2  0
  1 30  1  0
  7 31  1  0
  8 32  1  0
  9 33  1  0
 10 34  1  0
 11 35  1  0
 11 36  1  0
 13 37  1  0
 18 38  1  0
 19 39  1  0
 20 40  1  0
 21 41  1  0
 22 42  1  0
 24 43  1  0
 26 44  1  0
 28 45  1  0
M  END
> <Uni-Dock RESULT> 
ENERGY=   -3.941  LOWER_BOUND=   11.579  UPPER_BOUND=   15.030
INTER + INTRA:          -3.941
INTER:                  -3.941
INTRA:                   0.000
UNBOUND:                 0.000

$$$$

     RDKit          3D

 45 48  0  0  0  0  0  0  0  0999 V2000
   26.3656   13.4353   25.5766 C   0  0  0  0  0  0  0  0  0  0  0  0
   27.2362   12.3966   25.2395 C   0  0  0  0  0  0  0  0  0  0  0  0
   27.9825   12.4746   24.0421 C   0  0  0  0  0  0  0  0  0  0  0  0
   27.8816   13.6141   23.2006 C   0  0  0  0  0  0  0  0  0  0  0  0
   26.3001   14.5968   24.8054 C   0  0  0  0  0  0  0  0  0  0  0  0
   27.0924   14.7252   23.6331 C   0  0  0  0  0  0  0  0  0  0  0  0
   27.0630   15.9672   22.9502 C   0  0  0  0  0  0  0  0  0  0  0  0
   26.2320   17.0043   23.3802 C   0  0  0  0  0  0  0  0  0  0  0  0
   25.4268   16.8416   24.5030 C   0  0  0  0  0  0  0  0  0  0  0  0
   25.4654   15.6484   25.2192 C   0  0  0  0  0  0  0  0  0  0  0  0
   28.6331   13.6079   21.8647 C   0  0  0  0  0  0  0  0  0  0  0  0
   28.3422   12.3702   21.0181 C   0  0  0  0  0  0  0  0  0  0  0  0
   27.8387   10.0185   19.5432 C   0  0  0  0  0  0  0  0  0  0  0  0
   29.1363   10.2817   19.9934 C   0  0  0  0  0  0  0  0  0  0  0  0
   29.3849   11.4433   20.7628 C   0  0  0  0  0  0  0  0  0  0  0  0
   26.7986   10.9211   19.7766 C   0  0  0  0  0  0  0  0  0  0  0  0
   27.0431   12.1208   20.4919 C   0  0  0  0  0  0  0  0  0  0  0  0
   25.9747   13.0322   20.6541 C   0  0  0  0  0  0  0  0  0  0  0  0
   24.7042   12.7428   20.1523 C   0  0  0  0  0  0  0  0  0  0  0  0
   24.4727   11.5496   19.4723 C   0  0  0  0  0  0  0  0  0  0  0  0
   25.5143   10.6436   19.2791 C   0  0  0  0  0  0  0  0  0  0  0  0
   28.8122   11.4196   23.6511 O   0  0  0  0  0  0  0  0  0  0  0  0
   27.3682   11.2629   26.1804 C   0  0  0  0  0  0  0  0  0  0  0  0
   28.6182   10.7172   26.4586 O   0  0  0  0  0  0  0  0  0  0  0  0
   26.3519   10.8212   26.7818 O   0  0  0  0  0  0  0  0  0  0  0  0
   30.6463   11.6794   21.3214 O   0  0  0  0  0  0  0  0  0  0  0  0
   30.2069    9.3332   19.6140 C   0  0  0  0  0  0  0  0  0  0  0  0
   29.9259    7.9728   19.5189 O   0  0  0  0  0  0  0  0  0  0  0  0
   31.3591    9.7489   19.3177 O   0  0  0  0  0  0  0  0  0  0  0  0
   25.7782   13.3648   26.4863 H   0  0  0  0  0  0  0  0  0  0  0  0
   27.6886   16.1849   22.1019 H   0  0  0  0  0  0  0  0  0  0  0  0
   26.2194   17.9438   22.8425 H   0  0  0  0  0  0  0  0  0  0  0  0
   24.7856   17.6497   24.8309 H   0  0  0  0  0  0  0  0  0  0  0  0
   24.8503   15.5515   26.1064 H   0  0  0  0  0  0  0  0  0  0  0  0
   28.3999   14.4652   21.2138 H   0  0  0  0  0  0  0  0  0  0  0  0
   29.7127   13.7184   22.0924 H   0  0  0  0  0  0  0  0  0  0  0  0
   27.6445    9.1201   18.9671 H   0  0  0  0  0  0  0  0  0  0  0  0
   26.1044   13.9790   21.1522 H   0  0  0  0  0  0  0  0  0  0  0  0
   23.8963   13.4505   20.2885 H   0  0  0  0  0  0  0  0  0  0  0  0
   23.4861   11.3307   19.0847 H   0  0  0  0  0  0  0  0  0  0  0  0
   25.3173    9.7273   18.7349 H   0  0  0  0  0  0  0  0  0  0  0  0
   28.7967   10.5034   24.0774 H   0  0  0  0  0  0  0  0  0  0  0  0
   28.7178    9.9539   27.1171 H   0  0  0  0  0  0  0  0  0  0  0  0
   31.3840   10.9895   21.3569 H   0  0  0  0  0  0  0  0  0  0  0  0
   30.6410    7.3124   19.2386 H   0  0  0  0  0  0  0  0  0  0  0  0
  1  5  2  0
  2  3  2  0
  3  4  1  0
  4  6  2  0
  5  6  1  0
  5 10  1  0
  6  7  1  0
  7  8  2  0
  8  9  1  0
  9 10  2  0
  4 11  1  0
 11 12  1  0
 12 17  2  0
 12 15  1  0
 16 13  2  0
 13 14  1  0
 14 15  2  0
 16 17  1  0
 16 21  1  0
 17 18  1  0
 18 19  2  0
 19 20  1  0
 20 21  2  0
  3 22  1  0
  2 23  1  0
 23 24  1  0
 23 25  2  0
 15 26  1  0
 14 27  1  0
  1  2  1  0
 27 28  1  0
 27 29  2  0
  1 30  1  0
  7 31  1  0
  8 32  1  0
  9 33  1  0
 10 34  1  0
 11 35  1  0
 11 36  1  0
 13 37  1  0
 18 38  1  0
 19 39  1  0
 20 40  1  0
 21 41  1  0
 22 42  1  0
 24 43  1  0
 26 44  1  0
 28 45  1  0
M  END
> <Uni-Dock RESULT> 
ENERGY=   -3.867  LOWER_BOUND=   11.168  UPPER_BOUND=   14.662
INTER + INTRA:          -3.867
INTER:                  -3.867
INTRA:                   0.000
UNBOUND:                 0.000

$$$$
