
     RDKit          3D

 45 48  0  0  0  0  0  0  0  0999 V2000
   26.8645    4.5595   31.6978 C   0  0  0  0  0  0  0  0  0  0  0  0
   26.4823    5.5424   32.6163 C   0  0  0  0  0  0  0  0  0  0  0  0
   27.1496    6.7885   32.6200 C   0  0  0  0  0  0  0  0  0  0  0  0
   28.1185    7.0872   31.6283 C   0  0  0  0  0  0  0  0  0  0  0  0
   27.8972    4.7904   30.7866 C   0  0  0  0  0  0  0  0  0  0  0  0
   28.5528    6.0483   30.7554 C   0  0  0  0  0  0  0  0  0  0  0  0
   29.6423    6.2085   29.8710 C   0  0  0  0  0  0  0  0  0  0  0  0
   30.0205    5.1812   29.0041 C   0  0  0  0  0  0  0  0  0  0  0  0
   29.3367    3.9681   29.0126 C   0  0  0  0  0  0  0  0  0  0  0  0
   28.2846    3.7678   29.9044 C   0  0  0  0  0  0  0  0  0  0  0  0
   28.6945    8.5031   31.5544 C   0  0  0  0  0  0  0  0  0  0  0  0
   28.4933    9.1708   30.1920 C   0  0  0  0  0  0  0  0  0  0  0  0
   28.2191   10.2268   27.5889 C   0  0  0  0  0  0  0  0  0  0  0  0
   29.4940   10.1036   28.1504 C   0  0  0  0  0  0  0  0  0  0  0  0
   29.6280    9.6291   29.4752 C   0  0  0  0  0  0  0  0  0  0  0  0
   27.0772    9.8906   28.3188 C   0  0  0  0  0  0  0  0  0  0  0  0
   27.1979    9.3804   29.6372 C   0  0  0  0  0  0  0  0  0  0  0  0
   26.0132    9.1285   30.3638 C   0  0  0  0  0  0  0  0  0  0  0  0
   24.7589    9.3121   29.7782 C   0  0  0  0  0  0  0  0  0  0  0  0
   24.6566    9.7682   28.4664 C   0  0  0  0  0  0  0  0  0  0  0  0
   25.8086   10.0647   27.7403 C   0  0  0  0  0  0  0  0  0  0  0  0
   26.8881    7.7369   33.6154 O   0  0  0  0  0  0  0  0  0  0  0  0
   25.3483    5.2551   33.5220 C   0  0  0  0  0  0  0  0  0  0  0  0
   24.4226    6.2479   33.8312 O   0  0  0  0  0  0  0  0  0  0  0  0
   25.1822    4.0909   33.9764 O   0  0  0  0  0  0  0  0  0  0  0  0
   30.8740    9.6290   30.1123 O   0  0  0  0  0  0  0  0  0  0  0  0
   30.6669   10.4282   27.3091 C   0  0  0  0  0  0  0  0  0  0  0  0
   31.8249    9.6592   27.3850 O   0  0  0  0  0  0  0  0  0  0  0  0
   30.6047   11.3726   26.4762 O   0  0  0  0  0  0  0  0  0  0  0  0
   26.3514    3.6036   31.6925 H   0  0  0  0  0  0  0  0  0  0  0  0
   30.2372    7.1041   29.8609 H   0  0  0  0  0  0  0  0  0  0  0  0
   30.8554    5.3240   28.3299 H   0  0  0  0  0  0  0  0  0  0  0  0
   29.6342    3.1747   28.3392 H   0  0  0  0  0  0  0  0  0  0  0  0
   27.7792    2.8092   29.9114 H   0  0  0  0  0  0  0  0  0  0  0  0
   29.7651    8.4322   31.8351 H   0  0  0  0  0  0  0  0  0  0  0  0
   28.2517    9.1787   32.3144 H   0  0  0  0  0  0  0  0  0  0  0  0
   28.1153   10.5886   26.5714 H   0  0  0  0  0  0  0  0  0  0  0  0
   26.0345    8.8263   31.3955 H   0  0  0  0  0  0  0  0  0  0  0  0
   23.8618    9.1095   30.3493 H   0  0  0  0  0  0  0  0  0  0  0  0
   23.6819    9.9096   28.0173 H   0  0  0  0  0  0  0  0  0  0  0  0
   25.7080   10.4397   26.7284 H   0  0  0  0  0  0  0  0  0  0  0  0
   26.3594    7.5367   34.4535 H   0  0  0  0  0  0  0  0  0  0  0  0
   23.6328    6.0531   34.4350 H   0  0  0  0  0  0  0  0  0  0  0  0
   31.6885   10.1043   29.7479 H   0  0  0  0  0  0  0  0  0  0  0  0
   32.6247    9.8638   26.7979 H   0  0  0  0  0  0  0  0  0  0  0  0
  1  5  2  0
  2  3  2  0
  3  4  1  0
  4  6  2  0
  5  6  1  0
  5 10  1  0
  6  7  1  0
  7  8  2  0
  8  9  1  0
  9 10  2  0
  4 11  1  0
 11 12  1  0
 12 17  2  0
 12 15  1  0
 16 13  2  0
 13 14  1  0
 14 15  2  0
 16 17  1  0
 16 21  1  0
 17 18  1  0
 18 19  2  0
 19 20  1  0
 20 21  2  0
  3 22  1  0
  2 23  1  0
 23 24  1  0
 23 25  2  0
 15 26  1  0
 14 27  1  0
  1  2  1  0
 27 28  1  0
 27 29  2  0
  1 30  1  0
  7 31  1  0
  8 32  1  0
  9 33  1  0
 10 34  1  0
 11 35  1  0
 11 36  1  0
 13 37  1  0
 18 38  1  0
 19 39  1  0
 20 40  1  0
 21 41  1  0
 22 42  1  0
 24 43  1  0
 26 44  1  0
 28 45  1  0
M  END
> <Uni-Dock RESULT> 
ENERGY=   -3.933  LOWER_BOUND=    0.000  UPPER_BOUND=    0.000
INTER + INTRA:          -3.933
INTER:                  -3.933
INTRA:                   0.000
UNBOUND:                 0.000

$$$$

     RDKit          3D

 45 48  0  0  0  0  0  0  0  0999 V2000
   28.1993   10.2267   27.5775 C   0  0  0  0  0  0  0  0  0  0  0  0
   29.4813   10.1045   28.1229 C   0  0  0  0  0  0  0  0  0  0  0  0
   29.6322    9.6319   29.4465 C   0  0  0  0  0  0  0  0  0  0  0  0
   28.5069    9.1743   30.1784 C   0  0  0  0  0  0  0  0  0  0  0  0
   27.0668    9.8914   28.3225 C   0  0  0  0  0  0  0  0  0  0  0  0
   27.2045    9.3830   29.6399 C   0  0  0  0  0  0  0  0  0  0  0  0
   26.0292    9.1319   30.3819 C   0  0  0  0  0  0  0  0  0  0  0  0
   24.7675    9.3146   29.8122 C   0  0  0  0  0  0  0  0  0  0  0  0
   24.6484    9.7688   28.5013 C   0  0  0  0  0  0  0  0  0  0  0  0
   25.7909   10.0645   27.7599 C   0  0  0  0  0  0  0  0  0  0  0  0
   28.7256    8.5087   31.5390 C   0  0  0  0  0  0  0  0  0  0  0  0
   28.1509    7.0927   31.6223 C   0  0  0  0  0  0  0  0  0  0  0  0
   26.8983    4.5649   31.7113 C   0  0  0  0  0  0  0  0  0  0  0  0
   26.5278    5.5491   32.6333 C   0  0  0  0  0  0  0  0  0  0  0  0
   27.1948    6.7953   32.6267 C   0  0  0  0  0  0  0  0  0  0  0  0
   27.9192    4.7947   30.7867 C   0  0  0  0  0  0  0  0  0  0  0  0
   28.5742    6.0527   30.7454 C   0  0  0  0  0  0  0  0  0  0  0  0
   29.6522    6.2118   29.8468 C   0  0  0  0  0  0  0  0  0  0  0  0
   30.0195    5.1834   28.9765 C   0  0  0  0  0  0  0  0  0  0  0  0
   29.3361    3.9702   28.9955 C   0  0  0  0  0  0  0  0  0  0  0  0
   28.2955    3.7710   29.9010 C   0  0  0  0  0  0  0  0  0  0  0  0
   30.8864    9.6328   30.0676 O   0  0  0  0  0  0  0  0  0  0  0  0
   30.6433   10.4282   27.2663 C   0  0  0  0  0  0  0  0  0  0  0  0
   31.8022    9.6594   27.3283 O   0  0  0  0  0  0  0  0  0  0  0  0
   30.5702   11.3714   26.4328 O   0  0  0  0  0  0  0  0  0  0  0  0
   26.9460    7.7450   33.6240 O   0  0  0  0  0  0  0  0  0  0  0  0
   25.4054    5.2629   33.5537 C   0  0  0  0  0  0  0  0  0  0  0  0
   24.4836    6.2559   33.8734 O   0  0  0  0  0  0  0  0  0  0  0  0
   25.2453    4.0993   34.0119 O   0  0  0  0  0  0  0  0  0  0  0  0
   28.0824   10.5871   26.5609 H   0  0  0  0  0  0  0  0  0  0  0  0
   26.0638    8.8312   31.4137 H   0  0  0  0  0  0  0  0  0  0  0  0
   23.8779    9.1126   30.3951 H   0  0  0  0  0  0  0  0  0  0  0  0
   23.6681    9.9094   28.0644 H   0  0  0  0  0  0  0  0  0  0  0  0
   25.6773   10.4381   26.7490 H   0  0  0  0  0  0  0  0  0  0  0  0
   28.2924    9.1852   32.3037 H   0  0  0  0  0  0  0  0  0  0  0  0
   29.7997    8.4383   31.8062 H   0  0  0  0  0  0  0  0  0  0  0  0
   26.3854    3.6089   31.7139 H   0  0  0  0  0  0  0  0  0  0  0  0
   30.2468    7.1075   29.8279 H   0  0  0  0  0  0  0  0  0  0  0  0
   30.8457    5.3253   28.2916 H   0  0  0  0  0  0  0  0  0  0  0  0
   29.6252    3.1759   28.3194 H   0  0  0  0  0  0  0  0  0  0  0  0
   27.7903    2.8122   29.9158 H   0  0  0  0  0  0  0  0  0  0  0  0
   31.6961   10.1077   29.6921 H   0  0  0  0  0  0  0  0  0  0  0  0
   32.5945    9.8632   26.7309 H   0  0  0  0  0  0  0  0  0  0  0  0
   26.4281    7.5459   34.4691 H   0  0  0  0  0  0  0  0  0  0  0  0
   23.7016    6.0618   34.4875 H   0  0  0  0  0  0  0  0  0  0  0  0
  1  5  2  0
  2  3  2  0
  3  4  1  0
  4  6  2  0
  5  6  1  0
  5 10  1  0
  6  7  1  0
  7  8  2  0
  8  9  1  0
  9 10  2  0
  4 11  1  0
 11 12  1  0
 12 17  2  0
 12 15  1  0
 16 13  2  0
 13 14  1  0
 14 15  2  0
 16 17  1  0
 16 21  1  0
 17 18  1  0
 18 19  2  0
 19 20  1  0
 20 21  2  0
  3 22  1  0
  2 23  1  0
 23 24  1  0
 23 25  2  0
 15 26  1  0
 14 27  1  0
  1  2  1  0
 27 28  1  0
 27 29  2  0
  1 30  1  0
  7 31  1  0
  8 32  1  0
  9 33  1  0
 10 34  1  0
 11 35  1  0
 11 36  1  0
 13 37  1  0
 18 38  1  0
 19 39  1  0
 20 40  1  0
 21 41  1  0
 22 42  1  0
 24 43  1  0
 26 44  1  0
 28 45  1  0
M  END
> <Uni-Dock RESULT> 
ENERGY=   -3.929  LOWER_BOUND=    0.041  UPPER_BOUND=    7.066
INTER + INTRA:          -3.929
INTER:                  -3.929
INTRA:                   0.000
UNBOUND:                 0.000

$$$$

     RDKit          3D

 45 48  0  0  0  0  0  0  0  0999 V2000
   26.7950    4.2895   31.4455 C   0  0  0  0  0  0  0  0  0  0  0  0
   26.3063    5.1851   32.4021 C   0  0  0  0  0  0  0  0  0  0  0  0
   26.9200    6.4500   32.5487 C   0  0  0  0  0  0  0  0  0  0  0  0
   27.9462    6.8578   31.6588 C   0  0  0  0  0  0  0  0  0  0  0  0
   27.8817    4.6259   30.6355 C   0  0  0  0  0  0  0  0  0  0  0  0
   28.4857    5.9048   30.7474 C   0  0  0  0  0  0  0  0  0  0  0  0
   29.6299    6.1706   29.9632 C   0  0  0  0  0  0  0  0  0  0  0  0
   30.1127    5.2267   29.0544 C   0  0  0  0  0  0  0  0  0  0  0  0
   29.4804    3.9933   28.9210 C   0  0  0  0  0  0  0  0  0  0  0  0
   28.3745    3.6882   29.7125 C   0  0  0  0  0  0  0  0  0  0  0  0
   28.4676    8.2946   31.7338 C   0  0  0  0  0  0  0  0  0  0  0  0
   28.3401    9.0573   30.4130 C   0  0  0  0  0  0  0  0  0  0  0  0
   28.2153   10.2993   27.8815 C   0  0  0  0  0  0  0  0  0  0  0  0
   29.4494   10.1785   28.5284 C   0  0  0  0  0  0  0  0  0  0  0  0
   29.5048    9.6089   29.8209 C   0  0  0  0  0  0  0  0  0  0  0  0
   27.0375    9.8681   28.4951 C   0  0  0  0  0  0  0  0  0  0  0  0
   27.0816    9.2629   29.7777 C   0  0  0  0  0  0  0  0  0  0  0  0
   25.8579    8.9145   30.3909 C   0  0  0  0  0  0  0  0  0  0  0  0
   24.6437    9.0980   29.7263 C   0  0  0  0  0  0  0  0  0  0  0  0
   24.6197    9.6494   28.4477 C   0  0  0  0  0  0  0  0  0  0  0  0
   25.8089   10.0412   27.8357 C   0  0  0  0  0  0  0  0  0  0  0  0
   26.5473    7.3095   33.5884 O   0  0  0  0  0  0  0  0  0  0  0  0
   25.1214    4.7894   33.1946 C   0  0  0  0  0  0  0  0  0  0  0  0
   24.1356    5.7223   33.5045 O   0  0  0  0  0  0  0  0  0  0  0  0
   24.9701    3.5886   33.5479 O   0  0  0  0  0  0  0  0  0  0  0  0
   30.6995    9.6039   30.5497 O   0  0  0  0  0  0  0  0  0  0  0  0
   30.6668   10.6078   27.8055 C   0  0  0  0  0  0  0  0  0  0  0  0
   31.8466    9.8765   27.9128 O   0  0  0  0  0  0  0  0  0  0  0  0
   30.6275   11.6105   27.0422 O   0  0  0  0  0  0  0  0  0  0  0  0
   26.3233    3.3194   31.3304 H   0  0  0  0  0  0  0  0  0  0  0  0
   30.1868    7.0848   30.0648 H   0  0  0  0  0  0  0  0  0  0  0  0
   30.9884    5.4502   28.4584 H   0  0  0  0  0  0  0  0  0  0  0  0
   29.8589    3.2647   28.2157 H   0  0  0  0  0  0  0  0  0  0  0  0
   27.9096    2.7146   29.6101 H   0  0  0  0  0  0  0  0  0  0  0  0
   29.5166    8.2402   32.0896 H   0  0  0  0  0  0  0  0  0  0  0  0
   27.9428    8.8939   32.5054 H   0  0  0  0  0  0  0  0  0  0  0  0
   28.1720   10.7341   26.8885 H   0  0  0  0  0  0  0  0  0  0  0  0
   25.8155    8.5351   31.3961 H   0  0  0  0  0  0  0  0  0  0  0  0
   23.7160    8.8208   30.2106 H   0  0  0  0  0  0  0  0  0  0  0  0
   23.6758    9.7904   27.9370 H   0  0  0  0  0  0  0  0  0  0  0  0
   25.7678   10.4888   26.8495 H   0  0  0  0  0  0  0  0  0  0  0  0
   25.9669    7.0272   34.3666 H   0  0  0  0  0  0  0  0  0  0  0  0
   23.3121    5.4540   34.0301 H   0  0  0  0  0  0  0  0  0  0  0  0
   31.5185   10.1341   30.2847 H   0  0  0  0  0  0  0  0  0  0  0  0
   32.6784   10.1535   27.4054 H   0  0  0  0  0  0  0  0  0  0  0  0
  1  5  2  0
  2  3  2  0
  3  4  1  0
  4  6  2  0
  5  6  1  0
  5 10  1  0
  6  7  1  0
  7  8  2  0
  8  9  1  0
  9 10  2  0
  4 11  1  0
 11 12  1  0
 12 17  2  0
 12 15  1  0
 16 13  2  0
 13 14  1  0
 14 15  2  0
 16 17  1  0
 16 21  1  0
 17 18  1  0
 18 19  2  0
 19 20  1  0
 20 21  2  0
  3 22  1  0
  2 23  1  0
 23 24  1  0
 23 25  2  0
 15 26  1  0
 14 27  1  0
  1  2  1  0
 27 28  1  0
 27 29  2  0
  1 30  1  0
  7 31  1  0
  8 32  1  0
  9 33  1  0
 10 34  1  0
 11 35  1  0
 11 36  1  0
 13 37  1  0
 18 38  1  0
 19 39  1  0
 20 40  1  0
 21 41  1  0
 22 42  1  0
 24 43  1  0
 26 44  1  0
 28 45  1  0
M  END
> <Uni-Dock RESULT> 
ENERGY=   -3.866  LOWER_BOUND=    0.391  UPPER_BOUND=    0.391
INTER + INTRA:          -3.866
INTER:                  -3.866
INTRA:                   0.000
UNBOUND:                 0.000

$$$$

     RDKit          3D

 45 48  0  0  0  0  0  0  0  0999 V2000
   31.7154   12.4988   20.0897 C   0  0  0  0  0  0  0  0  0  0  0  0
   32.2578   13.6382   20.6924 C   0  0  0  0  0  0  0  0  0  0  0  0
   31.6909   14.1282   21.8909 C   0  0  0  0  0  0  0  0  0  0  0  0
   30.6567   13.4091   22.5427 C   0  0  0  0  0  0  0  0  0  0  0  0
   30.6204   11.8403   20.6532 C   0  0  0  0  0  0  0  0  0  0  0  0
   30.0626   12.3001   21.8740 C   0  0  0  0  0  0  0  0  0  0  0  0
   28.9085   11.6501   22.3642 C   0  0  0  0  0  0  0  0  0  0  0  0
   28.3715   10.5441   21.7023 C   0  0  0  0  0  0  0  0  0  0  0  0
   28.9585   10.0744   20.5301 C   0  0  0  0  0  0  0  0  0  0  0  0
   30.0732   10.7225   20.0011 C   0  0  0  0  0  0  0  0  0  0  0  0
   30.1857   13.8716   23.9234 C   0  0  0  0  0  0  0  0  0  0  0  0
   30.3053   12.7904   25.0000 C   0  0  0  0  0  0  0  0  0  0  0  0
   30.4075   10.6651   26.8545 C   0  0  0  0  0  0  0  0  0  0  0  0
   29.1868   11.2990   26.6014 C   0  0  0  0  0  0  0  0  0  0  0  0
   29.1451   12.4006   25.7166 C   0  0  0  0  0  0  0  0  0  0  0  0
   31.5854   11.1064   26.2483 C   0  0  0  0  0  0  0  0  0  0  0  0
   31.5535   12.1888   25.3315 C   0  0  0  0  0  0  0  0  0  0  0  0
   32.7800   12.6497   24.8040 C   0  0  0  0  0  0  0  0  0  0  0  0
   33.9824   12.0155   25.1228 C   0  0  0  0  0  0  0  0  0  0  0  0
   33.9925   10.9237   25.9872 C   0  0  0  0  0  0  0  0  0  0  0  0
   32.8019   10.4740   26.5553 C   0  0  0  0  0  0  0  0  0  0  0  0
   32.1184   15.3424   22.4403 O   0  0  0  0  0  0  0  0  0  0  0  0
   33.4485   14.2612   20.0737 C   0  0  0  0  0  0  0  0  0  0  0  0
   34.4726   14.7696   20.8680 O   0  0  0  0  0  0  0  0  0  0  0  0
   33.5684   14.2857   18.8188 O   0  0  0  0  0  0  0  0  0  0  0  0
   27.9698   13.1424   25.5529 O   0  0  0  0  0  0  0  0  0  0  0  0
   27.9666   10.7531   27.2353 C   0  0  0  0  0  0  0  0  0  0  0  0
   26.7661   10.7060   26.5320 O   0  0  0  0  0  0  0  0  0  0  0  0
   28.0201   10.2751   28.4008 O   0  0  0  0  0  0  0  0  0  0  0  0
   32.1512   12.1204   19.1711 H   0  0  0  0  0  0  0  0  0  0  0  0
   28.3853   12.0038   23.2345 H   0  0  0  0  0  0  0  0  0  0  0  0
   27.4889   10.0559   22.0956 H   0  0  0  0  0  0  0  0  0  0  0  0
   28.5380    9.2172   20.0203 H   0  0  0  0  0  0  0  0  0  0  0  0
   30.5024   10.3557   19.0761 H   0  0  0  0  0  0  0  0  0  0  0  0
   29.1449   14.2357   23.8053 H   0  0  0  0  0  0  0  0  0  0  0  0
   30.7498   14.7544   24.2874 H   0  0  0  0  0  0  0  0  0  0  0  0
   30.4402    9.8180   27.5316 H   0  0  0  0  0  0  0  0  0  0  0  0
   32.8350   13.5200   24.1750 H   0  0  0  0  0  0  0  0  0  0  0  0
   34.9122   12.3803   24.7052 H   0  0  0  0  0  0  0  0  0  0  0  0
   34.9274   10.4361   26.2318 H   0  0  0  0  0  0  0  0  0  0  0  0
   32.8331    9.6370   27.2430 H   0  0  0  0  0  0  0  0  0  0  0  0
   32.7085   16.0009   21.9502 H   0  0  0  0  0  0  0  0  0  0  0  0
   35.2996   15.1800   20.4510 H   0  0  0  0  0  0  0  0  0  0  0  0
   27.1626   13.0513   26.1547 H   0  0  0  0  0  0  0  0  0  0  0  0
   25.9314   10.3157   26.9529 H   0  0  0  0  0  0  0  0  0  0  0  0
  1  5  2  0
  2  3  2  0
  3  4  1  0
  4  6  2  0
  5  6  1  0
  5 10  1  0
  6  7  1  0
  7  8  2  0
  8  9  1  0
  9 10  2  0
  4 11  1  0
 11 12  1  0
 12 17  2  0
 12 15  1  0
 16 13  2  0
 13 14  1  0
 14 15  2  0
 16 17  1  0
 16 21  1  0
 17 18  1  0
 18 19  2  0
 19 20  1  0
 20 21  2  0
  3 22  1  0
  2 23  1  0
 23 24  1  0
 23 25  2  0
 15 26  1  0
 14 27  1  0
  1  2  1  0
 27 28  1  0
 27 29  2  0
  1 30  1  0
  7 31  1  0
  8 32  1  0
  9 33  1  0
 10 34  1  0
 11 35  1  0
 11 36  1  0
 13 37  1  0
 18 38  1  0
 19 39  1  0
 20 40  1  0
 21 41  1  0
 22 42  1  0
 24 43  1  0
 26 44  1  0
 28 45  1  0
M  END
> <Uni-Dock RESULT> 
ENERGY=   -3.848  LOWER_BOUND=    5.410  UPPER_BOUND=   10.902
INTER + INTRA:          -3.848
INTER:                  -3.848
INTRA:                   0.000
UNBOUND:                 0.000

$$$$

     RDKit          3D

 45 48  0  0  0  0  0  0  0  0999 V2000
   30.3588   10.6894   26.8360 C   0  0  0  0  0  0  0  0  0  0  0  0
   29.1375   11.3170   26.5711 C   0  0  0  0  0  0  0  0  0  0  0  0
   29.0967   12.4106   25.6765 C   0  0  0  0  0  0  0  0  0  0  0  0
   30.2591   12.7980   24.9624 C   0  0  0  0  0  0  0  0  0  0  0  0
   31.5384   11.1293   26.2318 C   0  0  0  0  0  0  0  0  0  0  0  0
   31.5077   12.2034   25.3054 C   0  0  0  0  0  0  0  0  0  0  0  0
   32.7352   12.6639   24.7801 C   0  0  0  0  0  0  0  0  0  0  0  0
   33.9381   12.0365   25.1107 C   0  0  0  0  0  0  0  0  0  0  0  0
   33.9474   10.9524   25.9846 C   0  0  0  0  0  0  0  0  0  0  0  0
   32.7555   10.5036   26.5505 C   0  0  0  0  0  0  0  0  0  0  0  0
   30.1417   13.8694   23.8759 C   0  0  0  0  0  0  0  0  0  0  0  0
   30.6210   13.3965   22.5016 C   0  0  0  0  0  0  0  0  0  0  0  0
   31.6951   12.4683   20.0621 C   0  0  0  0  0  0  0  0  0  0  0  0
   32.2308   13.6147   20.6575 C   0  0  0  0  0  0  0  0  0  0  0  0
   31.6561   14.1133   21.8489 C   0  0  0  0  0  0  0  0  0  0  0  0
   30.5996   11.8111   20.6257 C   0  0  0  0  0  0  0  0  0  0  0  0
   30.0340   12.2798   21.8396 C   0  0  0  0  0  0  0  0  0  0  0  0
   28.8795   11.6302   22.3297 C   0  0  0  0  0  0  0  0  0  0  0  0
   28.3495   10.5166   21.6748 C   0  0  0  0  0  0  0  0  0  0  0  0
   28.9441   10.0387   20.5097 C   0  0  0  0  0  0  0  0  0  0  0  0
   30.0593   10.6859   19.9807 C   0  0  0  0  0  0  0  0  0  0  0  0
   27.9196   13.1470   25.5003 O   0  0  0  0  0  0  0  0  0  0  0  0
   27.9158   10.7726   27.2036 C   0  0  0  0  0  0  0  0  0  0  0  0
   26.7191   10.7154   26.4946 O   0  0  0  0  0  0  0  0  0  0  0  0
   27.9650   10.3050   28.3734 O   0  0  0  0  0  0  0  0  0  0  0  0
   32.0767   15.3336   22.3897 O   0  0  0  0  0  0  0  0  0  0  0  0
   33.4227   14.2363   20.0394 C   0  0  0  0  0  0  0  0  0  0  0  0
   34.4410   14.7550   20.8344 O   0  0  0  0  0  0  0  0  0  0  0  0
   33.5488   14.2502   18.7850 O   0  0  0  0  0  0  0  0  0  0  0  0
   30.3910    9.8483   27.5206 H   0  0  0  0  0  0  0  0  0  0  0  0
   32.7906   13.5289   24.1439 H   0  0  0  0  0  0  0  0  0  0  0  0
   34.8688   12.4007   24.6945 H   0  0  0  0  0  0  0  0  0  0  0  0
   34.8825   10.4699   26.2382 H   0  0  0  0  0  0  0  0  0  0  0  0
   32.7858    9.6728   27.2457 H   0  0  0  0  0  0  0  0  0  0  0  0
   30.7009   14.7572   24.2350 H   0  0  0  0  0  0  0  0  0  0  0  0
   29.1002   14.2290   23.7493 H   0  0  0  0  0  0  0  0  0  0  0  0
   32.1369   12.0833   19.1490 H   0  0  0  0  0  0  0  0  0  0  0  0
   28.3508   11.9897   23.1942 H   0  0  0  0  0  0  0  0  0  0  0  0
   27.4665   10.0289   22.0678 H   0  0  0  0  0  0  0  0  0  0  0  0
   28.5289    9.1756   20.0053 H   0  0  0  0  0  0  0  0  0  0  0  0
   30.4945   10.3123   19.0611 H   0  0  0  0  0  0  0  0  0  0  0  0
   27.1097   13.0586   26.0989 H   0  0  0  0  0  0  0  0  0  0  0  0
   25.8835   10.3260   26.9147 H   0  0  0  0  0  0  0  0  0  0  0  0
   32.6672   15.9898   21.8969 H   0  0  0  0  0  0  0  0  0  0  0  0
   35.2687   15.1645   20.4180 H   0  0  0  0  0  0  0  0  0  0  0  0
  1  5  2  0
  2  3  2  0
  3  4  1  0
  4  6  2  0
  5  6  1  0
  5 10  1  0
  6  7  1  0
  7  8  2  0
  8  9  1  0
  9 10  2  0
  4 11  1  0
 11 12  1  0
 12 17  2  0
 12 15  1  0
 16 13  2  0
 13 14  1  0
 14 15  2  0
 16 17  1  0
 16 21  1  0
 17 18  1  0
 18 19  2  0
 19 20  1  0
 20 21  2  0
  3 22  1  0
  2 23  1  0
 23 24  1  0
 23 25  2  0
 15 26  1  0
 14 27  1  0
  1  2  1  0
 27 28  1  0
 27 29  2  0
  1 30  1  0
  7 31  1  0
  8 32  1  0
  9 33  1  0
 10 34  1  0
 11 35  1  0
 11 36  1  0
 13 37  1  0
 18 38  1  0
 19 39  1  0
 20 40  1  0
 21 41  1  0
 22 42  1  0
 24 43  1  0
 26 44  1  0
 28 45  1  0
M  END
> <Uni-Dock RESULT> 
ENERGY=   -3.843  LOWER_BOUND=    5.432  UPPER_BOUND=    8.910
INTER + INTRA:          -3.843
INTER:                  -3.843
INTRA:                   0.000
UNBOUND:                 0.000

$$$$

     RDKit          3D

 45 48  0  0  0  0  0  0  0  0999 V2000
   31.7051   12.0115   18.3518 C   0  0  0  0  0  0  0  0  0  0  0  0
   31.1181   10.7422   18.3510 C   0  0  0  0  0  0  0  0  0  0  0  0
   30.3972   10.3082   19.4867 C   0  0  0  0  0  0  0  0  0  0  0  0
   30.1692   11.1909   20.5731 C   0  0  0  0  0  0  0  0  0  0  0  0
   31.5918   12.8546   19.4591 C   0  0  0  0  0  0  0  0  0  0  0  0
   30.8423   12.4465   20.5926 C   0  0  0  0  0  0  0  0  0  0  0  0
   30.8212   13.2994   21.7181 C   0  0  0  0  0  0  0  0  0  0  0  0
   31.4634   14.5391   21.6918 C   0  0  0  0  0  0  0  0  0  0  0  0
   32.1554   14.9471   20.5543 C   0  0  0  0  0  0  0  0  0  0  0  0
   32.2279   14.1074   19.4444 C   0  0  0  0  0  0  0  0  0  0  0  0
   29.2406   10.7502   21.7069 C   0  0  0  0  0  0  0  0  0  0  0  0
   28.0642   11.7023   21.9340 C   0  0  0  0  0  0  0  0  0  0  0  0
   26.0412   13.6212   22.3724 C   0  0  0  0  0  0  0  0  0  0  0  0
   26.9129   13.2902   23.4147 C   0  0  0  0  0  0  0  0  0  0  0  0
   27.8891   12.2880   23.2138 C   0  0  0  0  0  0  0  0  0  0  0  0
   26.1198   12.9741   21.1375 C   0  0  0  0  0  0  0  0  0  0  0  0
   27.1166   11.9905   20.9099 C   0  0  0  0  0  0  0  0  0  0  0  0
   27.1074   11.3082   19.6732 C   0  0  0  0  0  0  0  0  0  0  0  0
   26.1861   11.6389   18.6774 C   0  0  0  0  0  0  0  0  0  0  0  0
   25.2434   12.6401   18.8979 C   0  0  0  0  0  0  0  0  0  0  0  0
   25.2028   13.3007   20.1243 C   0  0  0  0  0  0  0  0  0  0  0  0
   29.9207    8.9950   19.5726 O   0  0  0  0  0  0  0  0  0  0  0  0
   31.2314    9.9162   17.1288 C   0  0  0  0  0  0  0  0  0  0  0  0
   30.1578    9.1419   16.6978 O   0  0  0  0  0  0  0  0  0  0  0  0
   32.2855    9.9518   16.4380 O   0  0  0  0  0  0  0  0  0  0  0  0
   28.6794   11.8359   24.2767 O   0  0  0  0  0  0  0  0  0  0  0  0
   26.8119   14.0467   24.6823 C   0  0  0  0  0  0  0  0  0  0  0  0
   27.9596   14.4047   25.3843 O   0  0  0  0  0  0  0  0  0  0  0  0
   25.6851   14.4203   25.1068 O   0  0  0  0  0  0  0  0  0  0  0  0
   32.2566   12.3466   17.4797 H   0  0  0  0  0  0  0  0  0  0  0  0
   30.3473   13.0109   22.6391 H   0  0  0  0  0  0  0  0  0  0  0  0
   31.4325   15.1815   22.5626 H   0  0  0  0  0  0  0  0  0  0  0  0
   32.6522   15.9086   20.5391 H   0  0  0  0  0  0  0  0  0  0  0  0
   32.7899   14.4331   18.5769 H   0  0  0  0  0  0  0  0  0  0  0  0
   29.8692   10.6329   22.6131 H   0  0  0  0  0  0  0  0  0  0  0  0
   28.8121    9.7421   21.5332 H   0  0  0  0  0  0  0  0  0  0  0  0
   25.2931   14.3920   22.5248 H   0  0  0  0  0  0  0  0  0  0  0  0
   27.7777   10.4921   19.4712 H   0  0  0  0  0  0  0  0  0  0  0  0
   26.1970   11.1079   17.7341 H   0  0  0  0  0  0  0  0  0  0  0  0
   24.5309   12.8921   18.1230 H   0  0  0  0  0  0  0  0  0  0  0  0
   24.4477   14.0615   20.2847 H   0  0  0  0  0  0  0  0  0  0  0  0
   30.1951    8.2578   18.9376 H   0  0  0  0  0  0  0  0  0  0  0  0
   30.2216    8.5890   15.8513 H   0  0  0  0  0  0  0  0  0  0  0  0
   28.4961   12.0610   25.2451 H   0  0  0  0  0  0  0  0  0  0  0  0
   27.8990   14.9393   26.2426 H   0  0  0  0  0  0  0  0  0  0  0  0
  1  5  2  0
  2  3  2  0
  3  4  1  0
  4  6  2  0
  5  6  1  0
  5 10  1  0
  6  7  1  0
  7  8  2  0
  8  9  1  0
  9 10  2  0
  4 11  1  0
 11 12  1  0
 12 17  2  0
 12 15  1  0
 16 13  2  0
 13 14  1  0
 14 15  2  0
 16 17  1  0
 16 21  1  0
 17 18  1  0
 18 19  2  0
 19 20  1  0
 20 21  2  0
  3 22  1  0
  2 23  1  0
 23 24  1  0
 23 25  2  0
 15 26  1  0
 14 27  1  0
  1  2  1  0
 27 28  1  0
 27 29  2  0
  1 30  1  0
  7 31  1  0
  8 32  1  0
  9 33  1  0
 10 34  1  0
 11 35  1  0
 11 36  1  0
 13 37  1  0
 18 38  1  0
 19 39  1  0
 20 40  1  0
 21 41  1  0
 22 42  1  0
 24 43  1  0
 26 44  1  0
 28 45  1  0
M  END
> <Uni-Dock RESULT> 
ENERGY=   -3.733  LOWER_BOUND=    8.802  UPPER_BOUND=   12.016
INTER + INTRA:          -3.733
INTER:                  -3.733
INTRA:                   0.000
UNBOUND:                 0.000

$$$$

     RDKit          3D

 45 48  0  0  0  0  0  0  0  0999 V2000
   26.0571   13.6109   22.3773 C   0  0  0  0  0  0  0  0  0  0  0  0
   26.9325   13.2779   23.4159 C   0  0  0  0  0  0  0  0  0  0  0  0
   27.9082   12.2763   23.2093 C   0  0  0  0  0  0  0  0  0  0  0  0
   28.0789   11.6935   21.9276 C   0  0  0  0  0  0  0  0  0  0  0  0
   26.1313   12.9664   21.1408 C   0  0  0  0  0  0  0  0  0  0  0  0
   27.1276   11.9835   20.9074 C   0  0  0  0  0  0  0  0  0  0  0  0
   27.1140   11.3038   19.6694 C   0  0  0  0  0  0  0  0  0  0  0  0
   26.1890   11.6365   18.6777 C   0  0  0  0  0  0  0  0  0  0  0  0
   25.2470   12.6369   18.9036 C   0  0  0  0  0  0  0  0  0  0  0  0
   25.2107   13.2950   20.1315 C   0  0  0  0  0  0  0  0  0  0  0  0
   29.2545   10.7418   21.6942 C   0  0  0  0  0  0  0  0  0  0  0  0
   30.1791   11.1852   20.5581 C   0  0  0  0  0  0  0  0  0  0  0  0
   31.7069   12.0108   18.3330 C   0  0  0  0  0  0  0  0  0  0  0  0
   31.1200   10.7414   18.3316 C   0  0  0  0  0  0  0  0  0  0  0  0
   30.4033   10.3048   19.4690 C   0  0  0  0  0  0  0  0  0  0  0  0
   31.5973   12.8516   19.4425 C   0  0  0  0  0  0  0  0  0  0  0  0
   30.8520   12.4409   20.5778 C   0  0  0  0  0  0  0  0  0  0  0  0
   30.8348   13.2915   21.7052 C   0  0  0  0  0  0  0  0  0  0  0  0
   31.4766   14.5314   21.6792 C   0  0  0  0  0  0  0  0  0  0  0  0
   32.1645   14.9419   20.5401 C   0  0  0  0  0  0  0  0  0  0  0  0
   32.2331   14.1045   19.4282 C   0  0  0  0  0  0  0  0  0  0  0  0
   28.7025   11.8222   24.2684 O   0  0  0  0  0  0  0  0  0  0  0  0
   26.8360   14.0316   24.6853 C   0  0  0  0  0  0  0  0  0  0  0  0
   27.9861   14.3883   25.3839 O   0  0  0  0  0  0  0  0  0  0  0  0
   25.7106   14.4041   25.1146 O   0  0  0  0  0  0  0  0  0  0  0  0
   29.9274    8.9915   19.5539 O   0  0  0  0  0  0  0  0  0  0  0  0
   31.2291    9.9180   17.1072 C   0  0  0  0  0  0  0  0  0  0  0  0
   30.1541    9.1444   16.6784 O   0  0  0  0  0  0  0  0  0  0  0  0
   32.2807    9.9553   16.4127 O   0  0  0  0  0  0  0  0  0  0  0  0
   25.3094   14.3812   22.5340 H   0  0  0  0  0  0  0  0  0  0  0  0
   27.7838   10.4883   19.4632 H   0  0  0  0  0  0  0  0  0  0  0  0
   26.1968   11.1075   17.7332 H   0  0  0  0  0  0  0  0  0  0  0  0
   24.5317   12.8906   18.1319 H   0  0  0  0  0  0  0  0  0  0  0  0
   24.4560   14.0552   20.2963 H   0  0  0  0  0  0  0  0  0  0  0  0
   28.8257    9.7341   21.5199 H   0  0  0  0  0  0  0  0  0  0  0  0
   29.8864   10.6228   22.5979 H   0  0  0  0  0  0  0  0  0  0  0  0
   32.2552   12.3479   17.4596 H   0  0  0  0  0  0  0  0  0  0  0  0
   30.3643   13.0009   22.6273 H   0  0  0  0  0  0  0  0  0  0  0  0
   31.4488   15.1719   22.5515 H   0  0  0  0  0  0  0  0  0  0  0  0
   32.6610   15.9036   20.5253 H   0  0  0  0  0  0  0  0  0  0  0  0
   32.7919   14.4322   18.5593 H   0  0  0  0  0  0  0  0  0  0  0  0
   28.5226   12.0451   25.2379 H   0  0  0  0  0  0  0  0  0  0  0  0
   27.9285   14.9211   26.2436 H   0  0  0  0  0  0  0  0  0  0  0  0
   30.1997    8.2557   18.9163 H   0  0  0  0  0  0  0  0  0  0  0  0
   30.2150    8.5934   15.8305 H   0  0  0  0  0  0  0  0  0  0  0  0
  1  5  2  0
  2  3  2  0
  3  4  1  0
  4  6  2  0
  5  6  1  0
  5 10  1  0
  6  7  1  0
  7  8  2  0
  8  9  1  0
  9 10  2  0
  4 11  1  0
 11 12  1  0
 12 17  2  0
 12 15  1  0
 16 13  2  0
 13 14  1  0
 14 15  2  0
 16 17  1  0
 16 21  1  0
 17 18  1  0
 18 19  2  0
 19 20  1  0
 20 21  2  0
  3 22  1  0
  2 23  1  0
 23 24  1  0
 23 25  2  0
 15 26  1  0
 14 27  1  0
  1  2  1  0
 27 28  1  0
 27 29  2  0
  1 30  1  0
  7 31  1  0
  8 32  1  0
  9 33  1  0
 10 34  1  0
 11 35  1  0
 11 36  1  0
 13 37  1  0
 18 38  1  0
 19 39  1  0
 20 40  1  0
 21 41  1  0
 22 42  1  0
 24 43  1  0
 26 44  1  0
 28 45  1  0
M  END
> <Uni-Dock RESULT> 
ENERGY=   -3.731  LOWER_BOUND=    8.797  UPPER_BOUND=   11.476
INTER + INTRA:          -3.731
INTER:                  -3.731
INTRA:                   0.000
UNBOUND:                 0.000

$$$$
