
     RDKit          3D

 45 48  0  0  0  0  0  0  0  0999 V2000
   27.8817   10.2091   30.5603 C   0  0  0  0  0  0  0  0  0  0  0  0
   27.6562   10.0053   31.9260 C   0  0  0  0  0  0  0  0  0  0  0  0
   26.3514    9.7030   32.3793 C   0  0  0  0  0  0  0  0  0  0  0  0
   25.2955    9.5196   31.4514 C   0  0  0  0  0  0  0  0  0  0  0  0
   26.8439   10.0879   29.6334 C   0  0  0  0  0  0  0  0  0  0  0  0
   25.5382    9.7430   30.0664 C   0  0  0  0  0  0  0  0  0  0  0  0
   24.5145    9.6485   29.0956 C   0  0  0  0  0  0  0  0  0  0  0  0
   24.7881    9.8648   27.7435 C   0  0  0  0  0  0  0  0  0  0  0  0
   26.0787   10.1867   27.3307 C   0  0  0  0  0  0  0  0  0  0  0  0
   27.1032   10.3010   28.2691 C   0  0  0  0  0  0  0  0  0  0  0  0
   23.9164    9.1056   31.9594 C   0  0  0  0  0  0  0  0  0  0  0  0
   23.5142    7.7052   31.4903 C   0  0  0  0  0  0  0  0  0  0  0  0
   22.9627    5.1202   30.4987 C   0  0  0  0  0  0  0  0  0  0  0  0
   24.1703    5.3593   31.1595 C   0  0  0  0  0  0  0  0  0  0  0  0
   24.4196    6.6358   31.7097 C   0  0  0  0  0  0  0  0  0  0  0  0
   21.9998    6.1236   30.3744 C   0  0  0  0  0  0  0  0  0  0  0  0
   22.2497    7.4258   30.8855 C   0  0  0  0  0  0  0  0  0  0  0  0
   21.2110    8.3851   30.7853 C   0  0  0  0  0  0  0  0  0  0  0  0
   20.0040    8.0736   30.1551 C   0  0  0  0  0  0  0  0  0  0  0  0
   19.7933    6.8045   29.6252 C   0  0  0  0  0  0  0  0  0  0  0  0
   20.7818    5.8306   29.7383 C   0  0  0  0  0  0  0  0  0  0  0  0
   26.0717    9.6057   33.7468 O   0  0  0  0  0  0  0  0  0  0  0  0
   28.8142   10.0671   32.8446 C   0  0  0  0  0  0  0  0  0  0  0  0
   28.9280    9.1656   33.8994 O   0  0  0  0  0  0  0  0  0  0  0  0
   29.7359   10.9033   32.6429 O   0  0  0  0  0  0  0  0  0  0  0  0
   25.5412    6.8587   32.5146 O   0  0  0  0  0  0  0  0  0  0  0  0
   25.1696    4.2694   31.2174 C   0  0  0  0  0  0  0  0  0  0  0  0
   26.5276    4.5491   31.0923 O   0  0  0  0  0  0  0  0  0  0  0  0
   24.7922    3.0713   31.3265 O   0  0  0  0  0  0  0  0  0  0  0  0
   28.8822   10.4444   30.2130 H   0  0  0  0  0  0  0  0  0  0  0  0
   23.4948    9.4217   29.3624 H   0  0  0  0  0  0  0  0  0  0  0  0
   23.9931    9.7863   27.0129 H   0  0  0  0  0  0  0  0  0  0  0  0
   26.2849   10.3537   26.2813 H   0  0  0  0  0  0  0  0  0  0  0  0
   28.0993   10.5583   27.9285 H   0  0  0  0  0  0  0  0  0  0  0  0
   23.2310    9.9045   31.6342 H   0  0  0  0  0  0  0  0  0  0  0  0
   23.8535    9.1139   33.0665 H   0  0  0  0  0  0  0  0  0  0  0  0
   22.7703    4.1397   30.0759 H   0  0  0  0  0  0  0  0  0  0  0  0
   21.2823    9.3726   31.2070 H   0  0  0  0  0  0  0  0  0  0  0  0
   19.2236    8.8206   30.0851 H   0  0  0  0  0  0  0  0  0  0  0  0
   18.8554    6.5703   29.1383 H   0  0  0  0  0  0  0  0  0  0  0  0
   20.5908    4.8430   29.3348 H   0  0  0  0  0  0  0  0  0  0  0  0
   26.7119    9.9001   34.4716 H   0  0  0  0  0  0  0  0  0  0  0  0
   29.7281    9.1896   34.5202 H   0  0  0  0  0  0  0  0  0  0  0  0
   26.1282    6.1189   32.8753 H   0  0  0  0  0  0  0  0  0  0  0  0
   27.2159    3.8062   31.1123 H   0  0  0  0  0  0  0  0  0  0  0  0
  1  5  2  0
  2  3  2  0
  3  4  1  0
  4  6  2  0
  5  6  1  0
  5 10  1  0
  6  7  1  0
  7  8  2  0
  8  9  1  0
  9 10  2  0
  4 11  1  0
 11 12  1  0
 12 17  2  0
 12 15  1  0
 16 13  2  0
 13 14  1  0
 14 15  2  0
 16 17  1  0
 16 21  1  0
 17 18  1  0
 18 19  2  0
 19 20  1  0
 20 21  2  0
  3 22  1  0
  2 23  1  0
 23 24  1  0
 23 25  2  0
 15 26  1  0
 14 27  1  0
  1  2  1  0
 27 28  1  0
 27 29  2  0
  1 30  1  0
  7 31  1  0
  8 32  1  0
  9 33  1  0
 10 34  1  0
 11 35  1  0
 11 36  1  0
 13 37  1  0
 18 38  1  0
 19 39  1  0
 20 40  1  0
 21 41  1  0
 22 42  1  0
 24 43  1  0
 26 44  1  0
 28 45  1  0
M  END
> <Uni-Dock RESULT> 
ENERGY=   -4.266  LOWER_BOUND=    0.000  UPPER_BOUND=    0.000
INTER + INTRA:          -4.266
INTER:                  -4.266
INTRA:                   0.000
UNBOUND:                 0.000

$$$$

     RDKit          3D

 45 48  0  0  0  0  0  0  0  0999 V2000
   25.6030   14.1946   22.7846 C   0  0  0  0  0  0  0  0  0  0  0  0
   26.4948   13.9380   23.8318 C   0  0  0  0  0  0  0  0  0  0  0  0
   27.4972   12.9542   23.6681 C   0  0  0  0  0  0  0  0  0  0  0  0
   27.6563   12.2941   22.4238 C   0  0  0  0  0  0  0  0  0  0  0  0
   25.7068   13.5159   21.5683 C   0  0  0  0  0  0  0  0  0  0  0  0
   26.7330   12.5569   21.3724 C   0  0  0  0  0  0  0  0  0  0  0  0
   26.7896   11.8815   20.1314 C   0  0  0  0  0  0  0  0  0  0  0  0
   25.8740   12.1696   19.1173 C   0  0  0  0  0  0  0  0  0  0  0  0
   24.8813   13.1257   19.3180 C   0  0  0  0  0  0  0  0  0  0  0  0
   24.7940   13.7954   20.5374 C   0  0  0  0  0  0  0  0  0  0  0  0
   28.8024   11.3013   22.2446 C   0  0  0  0  0  0  0  0  0  0  0  0
   29.8397   11.7800   21.2258 C   0  0  0  0  0  0  0  0  0  0  0  0
   31.6143   12.8392   19.3026 C   0  0  0  0  0  0  0  0  0  0  0  0
   31.2225   13.6306   20.3853 C   0  0  0  0  0  0  0  0  0  0  0  0
   30.3844   13.0805   21.3799 C   0  0  0  0  0  0  0  0  0  0  0  0
   31.1897   11.5139   19.1895 C   0  0  0  0  0  0  0  0  0  0  0  0
   30.3131   10.9556   20.1586 C   0  0  0  0  0  0  0  0  0  0  0  0
   29.9663    9.5877   20.0252 C   0  0  0  0  0  0  0  0  0  0  0  0
   30.4281    8.8317   18.9453 C   0  0  0  0  0  0  0  0  0  0  0  0
   31.2536    9.4073   17.9846 C   0  0  0  0  0  0  0  0  0  0  0  0
   31.6392   10.7395   18.1067 C   0  0  0  0  0  0  0  0  0  0  0  0
   28.3304   12.5951   24.7333 O   0  0  0  0  0  0  0  0  0  0  0  0
   26.3820   14.7497   25.0634 C   0  0  0  0  0  0  0  0  0  0  0  0
   27.5243   15.1914   25.7255 O   0  0  0  0  0  0  0  0  0  0  0  0
   25.2469   15.0946   25.4903 O   0  0  0  0  0  0  0  0  0  0  0  0
   30.1091   13.7902   22.5530 O   0  0  0  0  0  0  0  0  0  0  0  0
   31.6676   15.0414   20.4244 C   0  0  0  0  0  0  0  0  0  0  0  0
   30.8132   16.0388   20.8862 O   0  0  0  0  0  0  0  0  0  0  0  0
   32.8076   15.3566   19.9875 O   0  0  0  0  0  0  0  0  0  0  0  0
   24.8318   14.9469   22.9116 H   0  0  0  0  0  0  0  0  0  0  0  0
   27.5247   11.1189   19.9302 H   0  0  0  0  0  0  0  0  0  0  0  0
   25.9327   11.6447   18.1723 H   0  0  0  0  0  0  0  0  0  0  0  0
   24.1740   13.3447   18.5284 H   0  0  0  0  0  0  0  0  0  0  0  0
   24.0108   14.5315   20.6759 H   0  0  0  0  0  0  0  0  0  0  0  0
   28.3241   10.3434   21.9853 H   0  0  0  0  0  0  0  0  0  0  0  0
   29.3399   11.1000   23.1935 H   0  0  0  0  0  0  0  0  0  0  0  0
   32.2584   13.2610   18.5382 H   0  0  0  0  0  0  0  0  0  0  0  0
   29.3679    9.0613   20.7484 H   0  0  0  0  0  0  0  0  0  0  0  0
   30.1497    7.7891   18.8584 H   0  0  0  0  0  0  0  0  0  0  0  0
   31.6077    8.8153   17.1504 H   0  0  0  0  0  0  0  0  0  0  0  0
   32.2972   11.1638   17.3573 H   0  0  0  0  0  0  0  0  0  0  0  0
   28.1677   12.8757   25.6908 H   0  0  0  0  0  0  0  0  0  0  0  0
   27.4542   15.7641   26.5580 H   0  0  0  0  0  0  0  0  0  0  0  0
   30.6002   14.6297   22.8285 H   0  0  0  0  0  0  0  0  0  0  0  0
   31.1045   17.0089   20.8983 H   0  0  0  0  0  0  0  0  0  0  0  0
  1  5  2  0
  2  3  2  0
  3  4  1  0
  4  6  2  0
  5  6  1  0
  5 10  1  0
  6  7  1  0
  7  8  2  0
  8  9  1  0
  9 10  2  0
  4 11  1  0
 11 12  1  0
 12 17  2  0
 12 15  1  0
 16 13  2  0
 13 14  1  0
 14 15  2  0
 16 17  1  0
 16 21  1  0
 17 18  1  0
 18 19  2  0
 19 20  1  0
 20 21  2  0
  3 22  1  0
  2 23  1  0
 23 24  1  0
 23 25  2  0
 15 26  1  0
 14 27  1  0
  1  2  1  0
 27 28  1  0
 27 29  2  0
  1 30  1  0
  7 31  1  0
  8 32  1  0
  9 33  1  0
 10 34  1  0
 11 35  1  0
 11 36  1  0
 13 37  1  0
 18 38  1  0
 19 39  1  0
 20 40  1  0
 21 41  1  0
 22 42  1  0
 24 43  1  0
 26 44  1  0
 28 45  1  0
M  END
> <Uni-Dock RESULT> 
ENERGY=   -4.238  LOWER_BOUND=    9.447  UPPER_BOUND=   12.629
INTER + INTRA:          -4.238
INTER:                  -4.238
INTRA:                   0.000
UNBOUND:                 0.000

$$$$

     RDKit          3D

 45 48  0  0  0  0  0  0  0  0999 V2000
   30.7956    9.8498   27.3698 C   0  0  0  0  0  0  0  0  0  0  0  0
   31.9301    9.2391   27.9154 C   0  0  0  0  0  0  0  0  0  0  0  0
   31.8194    8.5205   29.1281 C   0  0  0  0  0  0  0  0  0  0  0  0
   30.5543    8.3431   29.7424 C   0  0  0  0  0  0  0  0  0  0  0  0
   29.5485    9.7345   27.9881 C   0  0  0  0  0  0  0  0  0  0  0  0
   29.4117    8.9814   29.1820 C   0  0  0  0  0  0  0  0  0  0  0  0
   28.1340    8.9062   29.7829 C   0  0  0  0  0  0  0  0  0  0  0  0
   27.0316    9.5365   29.2021 C   0  0  0  0  0  0  0  0  0  0  0  0
   27.1776   10.2592   28.0205 C   0  0  0  0  0  0  0  0  0  0  0  0
   28.4293   10.3618   27.4155 C   0  0  0  0  0  0  0  0  0  0  0  0
   30.4477    7.4877   31.0027 C   0  0  0  0  0  0  0  0  0  0  0  0
   29.6349    6.2103   30.7780 C   0  0  0  0  0  0  0  0  0  0  0  0
   28.0890    3.9321   30.1539 C   0  0  0  0  0  0  0  0  0  0  0  0
   29.1741    4.2696   29.3411 C   0  0  0  0  0  0  0  0  0  0  0  0
   29.9846    5.3728   29.6880 C   0  0  0  0  0  0  0  0  0  0  0  0
   27.7943    4.6686   31.3029 C   0  0  0  0  0  0  0  0  0  0  0  0
   28.5736    5.8063   31.6459 C   0  0  0  0  0  0  0  0  0  0  0  0
   28.2660    6.4769   32.8562 C   0  0  0  0  0  0  0  0  0  0  0  0
   27.1969    6.0638   33.6545 C   0  0  0  0  0  0  0  0  0  0  0  0
   26.4204    4.9714   33.2812 C   0  0  0  0  0  0  0  0  0  0  0  0
   26.7190    4.2716   32.1153 C   0  0  0  0  0  0  0  0  0  0  0  0
   32.9538    7.9956   29.7569 O   0  0  0  0  0  0  0  0  0  0  0  0
   33.2033    9.3302   27.1676 C   0  0  0  0  0  0  0  0  0  0  0  0
   34.0585    8.2342   27.0927 O   0  0  0  0  0  0  0  0  0  0  0  0
   33.4953   10.3868   26.5449 O   0  0  0  0  0  0  0  0  0  0  0  0
   31.1677    5.6359   28.9904 O   0  0  0  0  0  0  0  0  0  0  0  0
   29.4065    3.4790   28.1119 C   0  0  0  0  0  0  0  0  0  0  0  0
   29.8333    4.1016   26.9421 O   0  0  0  0  0  0  0  0  0  0  0  0
   29.1666    2.2412   28.1020 O   0  0  0  0  0  0  0  0  0  0  0  0
   30.8814   10.4042   26.4411 H   0  0  0  0  0  0  0  0  0  0  0  0
   27.9689    8.3769   30.7075 H   0  0  0  0  0  0  0  0  0  0  0  0
   26.0599    9.4672   29.6742 H   0  0  0  0  0  0  0  0  0  0  0  0
   26.3196   10.7461   27.5750 H   0  0  0  0  0  0  0  0  0  0  0  0
   28.5232   10.9336   26.4997 H   0  0  0  0  0  0  0  0  0  0  0  0
   30.0355    8.1543   31.7769 H   0  0  0  0  0  0  0  0  0  0  0  0
   31.4403    7.1834   31.3925 H   0  0  0  0  0  0  0  0  0  0  0  0
   27.4659    3.0845   29.8881 H   0  0  0  0  0  0  0  0  0  0  0  0
   28.8452    7.3020   33.2329 H   0  0  0  0  0  0  0  0  0  0  0  0
   26.9751    6.5907   34.5739 H   0  0  0  0  0  0  0  0  0  0  0  0
   25.5934    4.6569   33.9049 H   0  0  0  0  0  0  0  0  0  0  0  0
   26.1129    3.4126   31.8517 H   0  0  0  0  0  0  0  0  0  0  0  0
   33.9004    8.2305   29.4913 H   0  0  0  0  0  0  0  0  0  0  0  0
   34.9223    8.2835   26.5660 H   0  0  0  0  0  0  0  0  0  0  0  0
   31.5866    4.9911   28.3342 H   0  0  0  0  0  0  0  0  0  0  0  0
   29.9765    3.5696   26.0921 H   0  0  0  0  0  0  0  0  0  0  0  0
  1  5  2  0
  2  3  2  0
  3  4  1  0
  4  6  2  0
  5  6  1  0
  5 10  1  0
  6  7  1  0
  7  8  2  0
  8  9  1  0
  9 10  2  0
  4 11  1  0
 11 12  1  0
 12 17  2  0
 12 15  1  0
 16 13  2  0
 13 14  1  0
 14 15  2  0
 16 17  1  0
 16 21  1  0
 17 18  1  0
 18 19  2  0
 19 20  1  0
 20 21  2  0
  3 22  1  0
  2 23  1  0
 23 24  1  0
 23 25  2  0
 15 26  1  0
 14 27  1  0
  1  2  1  0
 27 28  1  0
 27 29  2  0
  1 30  1  0
  7 31  1  0
  8 32  1  0
  9 33  1  0
 10 34  1  0
 11 35  1  0
 11 36  1  0
 13 37  1  0
 18 38  1  0
 19 39  1  0
 20 40  1  0
 21 41  1  0
 22 42  1  0
 24 43  1  0
 26 44  1  0
 28 45  1  0
M  END
> <Uni-Dock RESULT> 
ENERGY=   -4.158  LOWER_BOUND=    4.570  UPPER_BOUND=    6.003
INTER + INTRA:          -4.158
INTER:                  -4.158
INTRA:                   0.000
UNBOUND:                 0.000

$$$$

     RDKit          3D

 45 48  0  0  0  0  0  0  0  0999 V2000
   29.4943    1.0030   31.8526 C   0  0  0  0  0  0  0  0  0  0  0  0
   29.0334    1.1199   33.1685 C   0  0  0  0  0  0  0  0  0  0  0  0
   28.3656    2.2996   33.5707 C   0  0  0  0  0  0  0  0  0  0  0  0
   28.0852    3.3205   32.6281 C   0  0  0  0  0  0  0  0  0  0  0  0
   29.2777    2.0209   30.9210 C   0  0  0  0  0  0  0  0  0  0  0  0
   28.5720    3.1924   31.2963 C   0  0  0  0  0  0  0  0  0  0  0  0
   28.3911    4.2044   30.3255 C   0  0  0  0  0  0  0  0  0  0  0  0
   28.8732    4.0431   29.0250 C   0  0  0  0  0  0  0  0  0  0  0  0
   29.5502    2.8801   28.6660 C   0  0  0  0  0  0  0  0  0  0  0  0
   29.7553    1.8732   29.6080 C   0  0  0  0  0  0  0  0  0  0  0  0
   27.2843    4.5443   33.0665 C   0  0  0  0  0  0  0  0  0  0  0  0
   25.9189    4.6291   32.3797 C   0  0  0  0  0  0  0  0  0  0  0  0
   23.4633    4.6050   30.9873 C   0  0  0  0  0  0  0  0  0  0  0  0
   23.8743    3.4603   31.6748 C   0  0  0  0  0  0  0  0  0  0  0  0
   25.0721    3.4921   32.4222 C   0  0  0  0  0  0  0  0  0  0  0  0
   24.2184    5.7787   31.0281 C   0  0  0  0  0  0  0  0  0  0  0  0
   25.4470    5.8175   31.7411 C   0  0  0  0  0  0  0  0  0  0  0  0
   26.1382    7.0537   31.7989 C   0  0  0  0  0  0  0  0  0  0  0  0
   25.6531    8.1798   31.1299 C   0  0  0  0  0  0  0  0  0  0  0  0
   24.4684    8.1113   30.4037 C   0  0  0  0  0  0  0  0  0  0  0  0
   23.7493    6.9201   30.3564 C   0  0  0  0  0  0  0  0  0  0  0  0
   27.9938    2.4938   34.9055 O   0  0  0  0  0  0  0  0  0  0  0  0
   29.2226   -0.0281   34.0822 C   0  0  0  0  0  0  0  0  0  0  0  0
   28.2206   -0.3904   34.9782 O   0  0  0  0  0  0  0  0  0  0  0  0
   30.2733   -0.7217   34.0150 O   0  0  0  0  0  0  0  0  0  0  0  0
   25.4250    2.4214   33.2496 O   0  0  0  0  0  0  0  0  0  0  0  0
   23.0551    2.2338   31.5545 C   0  0  0  0  0  0  0  0  0  0  0  0
   23.6628    0.9840   31.4724 O   0  0  0  0  0  0  0  0  0  0  0  0
   21.7998    2.3182   31.4707 O   0  0  0  0  0  0  0  0  0  0  0  0
   30.0098    0.0993   31.5451 H   0  0  0  0  0  0  0  0  0  0  0  0
   27.8919    5.1320   30.5550 H   0  0  0  0  0  0  0  0  0  0  0  0
   28.7242    4.8270   28.2933 H   0  0  0  0  0  0  0  0  0  0  0  0
   29.9221    2.7607   27.6565 H   0  0  0  0  0  0  0  0  0  0  0  0
   30.2897    0.9785   29.3105 H   0  0  0  0  0  0  0  0  0  0  0  0
   27.9397    5.4089   32.8755 H   0  0  0  0  0  0  0  0  0  0  0  0
   27.1052    4.5629   34.1608 H   0  0  0  0  0  0  0  0  0  0  0  0
   22.5430    4.5814   30.4130 H   0  0  0  0  0  0  0  0  0  0  0  0
   27.0369    7.1966   32.3735 H   0  0  0  0  0  0  0  0  0  0  0  0
   26.1968    9.1144   31.1828 H   0  0  0  0  0  0  0  0  0  0  0  0
   24.0984    8.9881   29.8878 H   0  0  0  0  0  0  0  0  0  0  0  0
   22.8196    6.8927   29.8000 H   0  0  0  0  0  0  0  0  0  0  0  0
   28.3144    1.9108   35.6666 H   0  0  0  0  0  0  0  0  0  0  0  0
   28.3356   -1.1874   35.5928 H   0  0  0  0  0  0  0  0  0  0  0  0
   24.7975    1.6647   33.4854 H   0  0  0  0  0  0  0  0  0  0  0  0
   23.1090    0.1419   31.3711 H   0  0  0  0  0  0  0  0  0  0  0  0
  1  5  2  0
  2  3  2  0
  3  4  1  0
  4  6  2  0
  5  6  1  0
  5 10  1  0
  6  7  1  0
  7  8  2  0
  8  9  1  0
  9 10  2  0
  4 11  1  0
 11 12  1  0
 12 17  2  0
 12 15  1  0
 16 13  2  0
 13 14  1  0
 14 15  2  0
 16 17  1  0
 16 21  1  0
 17 18  1  0
 18 19  2  0
 19 20  1  0
 20 21  2  0
  3 22  1  0
  2 23  1  0
 23 24  1  0
 23 25  2  0
 15 26  1  0
 14 27  1  0
  1  2  1  0
 27 28  1  0
 27 29  2  0
  1 30  1  0
  7 31  1  0
  8 32  1  0
  9 33  1  0
 10 34  1  0
 11 35  1  0
 11 36  1  0
 13 37  1  0
 18 38  1  0
 19 39  1  0
 20 40  1  0
 21 41  1  0
 22 42  1  0
 24 43  1  0
 26 44  1  0
 28 45  1  0
M  END
> <Uni-Dock RESULT> 
ENERGY=   -4.123  LOWER_BOUND=    3.794  UPPER_BOUND=    6.640
INTER + INTRA:          -4.123
INTER:                  -4.123
INTRA:                   0.000
UNBOUND:                 0.000

$$$$

     RDKit          3D

 45 48  0  0  0  0  0  0  0  0999 V2000
   31.4247   11.8625   19.2432 C   0  0  0  0  0  0  0  0  0  0  0  0
   30.7241   10.6633   19.4134 C   0  0  0  0  0  0  0  0  0  0  0  0
   29.7703   10.5549   20.4515 C   0  0  0  0  0  0  0  0  0  0  0  0
   29.4598   11.6779   21.2589 C   0  0  0  0  0  0  0  0  0  0  0  0
   31.1742   12.9650   20.0633 C   0  0  0  0  0  0  0  0  0  0  0  0
   30.1903   12.8871   21.0817 C   0  0  0  0  0  0  0  0  0  0  0  0
   29.9824   14.0217   21.8994 C   0  0  0  0  0  0  0  0  0  0  0  0
   30.7097   15.1957   21.6931 C   0  0  0  0  0  0  0  0  0  0  0  0
   31.6614   15.2633   20.6784 C   0  0  0  0  0  0  0  0  0  0  0  0
   31.8966   14.1541   19.8675 C   0  0  0  0  0  0  0  0  0  0  0  0
   28.3624   11.5605   22.3140 C   0  0  0  0  0  0  0  0  0  0  0  0
   27.1519   12.4441   22.0026 C   0  0  0  0  0  0  0  0  0  0  0  0
   25.0383   14.1587   21.2526 C   0  0  0  0  0  0  0  0  0  0  0  0
   25.5449   13.2461   20.3239 C   0  0  0  0  0  0  0  0  0  0  0  0
   26.5597   12.3463   20.7175 C   0  0  0  0  0  0  0  0  0  0  0  0
   25.5199   14.1943   22.5627 C   0  0  0  0  0  0  0  0  0  0  0  0
   26.5691   13.3247   22.9658 C   0  0  0  0  0  0  0  0  0  0  0  0
   26.9735   13.3630   24.3237 C   0  0  0  0  0  0  0  0  0  0  0  0
   26.3961   14.2654   25.2200 C   0  0  0  0  0  0  0  0  0  0  0  0
   25.3976   15.1368   24.7965 C   0  0  0  0  0  0  0  0  0  0  0  0
   24.9553   15.0995   23.4769 C   0  0  0  0  0  0  0  0  0  0  0  0
   29.1366    9.3364   20.7189 O   0  0  0  0  0  0  0  0  0  0  0  0
   30.9778    9.5618   18.4590 C   0  0  0  0  0  0  0  0  0  0  0  0
   29.9278    8.7758   17.9922 O   0  0  0  0  0  0  0  0  0  0  0  0
   32.1423    9.3641   18.0184 O   0  0  0  0  0  0  0  0  0  0  0  0
   26.9706   11.3173   19.8644 O   0  0  0  0  0  0  0  0  0  0  0  0
   25.0263   13.2892   18.9386 C   0  0  0  0  0  0  0  0  0  0  0  0
   25.8799   13.0828   17.8584 O   0  0  0  0  0  0  0  0  0  0  0  0
   23.8151   13.5677   18.7258 O   0  0  0  0  0  0  0  0  0  0  0  0
   32.1590   11.9444   18.4488 H   0  0  0  0  0  0  0  0  0  0  0  0
   29.2727   14.0173   22.7110 H   0  0  0  0  0  0  0  0  0  0  0  0
   30.5365   16.0560   22.3270 H   0  0  0  0  0  0  0  0  0  0  0  0
   32.2224   16.1759   20.5233 H   0  0  0  0  0  0  0  0  0  0  0  0
   32.6456   14.2249   19.0874 H   0  0  0  0  0  0  0  0  0  0  0  0
   28.8519   11.7881   23.2743 H   0  0  0  0  0  0  0  0  0  0  0  0
   27.9925   10.5210   22.4257 H   0  0  0  0  0  0  0  0  0  0  0  0
   24.2585   14.8503   20.9511 H   0  0  0  0  0  0  0  0  0  0  0  0
   27.7082   12.6932   24.7358 H   0  0  0  0  0  0  0  0  0  0  0  0
   26.7205   14.2823   26.2526 H   0  0  0  0  0  0  0  0  0  0  0  0
   24.9545   15.8334   25.4967 H   0  0  0  0  0  0  0  0  0  0  0  0
   24.1640   15.7743   23.1718 H   0  0  0  0  0  0  0  0  0  0  0  0
   29.4290    8.4541   20.3215 H   0  0  0  0  0  0  0  0  0  0  0  0
   30.0916    8.0327   17.3235 H   0  0  0  0  0  0  0  0  0  0  0  0
   26.4782   11.0590   19.0201 H   0  0  0  0  0  0  0  0  0  0  0  0
   25.5355   13.1293   16.9069 H   0  0  0  0  0  0  0  0  0  0  0  0
  1  5  2  0
  2  3  2  0
  3  4  1  0
  4  6  2  0
  5  6  1  0
  5 10  1  0
  6  7  1  0
  7  8  2  0
  8  9  1  0
  9 10  2  0
  4 11  1  0
 11 12  1  0
 12 17  2  0
 12 15  1  0
 16 13  2  0
 13 14  1  0
 14 15  2  0
 16 17  1  0
 16 21  1  0
 17 18  1  0
 18 19  2  0
 19 20  1  0
 20 21  2  0
  3 22  1  0
  2 23  1  0
 23 24  1  0
 23 25  2  0
 15 26  1  0
 14 27  1  0
  1  2  1  0
 27 28  1  0
 27 29  2  0
  1 30  1  0
  7 31  1  0
  8 32  1  0
  9 33  1  0
 10 34  1  0
 11 35  1  0
 11 36  1  0
 13 37  1  0
 18 38  1  0
 19 39  1  0
 20 40  1  0
 21 41  1  0
 22 42  1  0
 24 43  1  0
 26 44  1  0
 28 45  1  0
M  END
> <Uni-Dock RESULT> 
ENERGY=   -3.875  LOWER_BOUND=    9.792  UPPER_BOUND=   12.473
INTER + INTRA:          -3.875
INTER:                  -3.875
INTRA:                   0.000
UNBOUND:                 0.000

$$$$

     RDKit          3D

 45 48  0  0  0  0  0  0  0  0999 V2000
   23.6616    3.4143   31.4446 C   0  0  0  0  0  0  0  0  0  0  0  0
   24.3753    4.5695   31.7817 C   0  0  0  0  0  0  0  0  0  0  0  0
   25.6314    4.4511   32.4201 C   0  0  0  0  0  0  0  0  0  0  0  0
   26.2063    3.1739   32.6383 C   0  0  0  0  0  0  0  0  0  0  0  0
   24.1846    2.1447   31.7007 C   0  0  0  0  0  0  0  0  0  0  0  0
   25.4620    2.0078   32.3013 C   0  0  0  0  0  0  0  0  0  0  0  0
   25.9443    0.7037   32.5582 C   0  0  0  0  0  0  0  0  0  0  0  0
   25.1929   -0.4195   32.2067 C   0  0  0  0  0  0  0  0  0  0  0  0
   23.9470   -0.2702   31.6025 C   0  0  0  0  0  0  0  0  0  0  0  0
   23.4414    1.0045   31.3518 C   0  0  0  0  0  0  0  0  0  0  0  0
   27.6028    3.0760   33.2478 C   0  0  0  0  0  0  0  0  0  0  0  0
   28.6300    2.4972   32.2716 C   0  0  0  0  0  0  0  0  0  0  0  0
   30.3518    1.3926   30.3262 C   0  0  0  0  0  0  0  0  0  0  0  0
   29.5512    2.4878   29.9924 C   0  0  0  0  0  0  0  0  0  0  0  0
   28.7361    3.0791   30.9825 C   0  0  0  0  0  0  0  0  0  0  0  0
   30.3579    0.8745   31.6227 C   0  0  0  0  0  0  0  0  0  0  0  0
   29.5139    1.4301   32.6219 C   0  0  0  0  0  0  0  0  0  0  0  0
   29.6092    0.9034   33.9344 C   0  0  0  0  0  0  0  0  0  0  0  0
   30.4648   -0.1630   34.2200 C   0  0  0  0  0  0  0  0  0  0  0  0
   31.2542   -0.7200   33.2189 C   0  0  0  0  0  0  0  0  0  0  0  0
   31.2078   -0.2020   31.9274 C   0  0  0  0  0  0  0  0  0  0  0  0
   26.3164    5.5847   32.8712 O   0  0  0  0  0  0  0  0  0  0  0  0
   23.8025    5.8814   31.4083 C   0  0  0  0  0  0  0  0  0  0  0  0
   24.6220    6.8991   30.9278 O   0  0  0  0  0  0  0  0  0  0  0  0
   22.5570    6.0669   31.4703 O   0  0  0  0  0  0  0  0  0  0  0  0
   28.0514    4.2708   30.7242 O   0  0  0  0  0  0  0  0  0  0  0  0
   29.5536    2.9612   28.5903 C   0  0  0  0  0  0  0  0  0  0  0  0
   28.3762    3.4008   27.9915 O   0  0  0  0  0  0  0  0  0  0  0  0
   30.6147    2.9179   27.9107 O   0  0  0  0  0  0  0  0  0  0  0  0
   22.6963    3.5053   30.9579 H   0  0  0  0  0  0  0  0  0  0  0  0
   26.8927    0.5313   33.0411 H   0  0  0  0  0  0  0  0  0  0  0  0
   25.5780   -1.4109   32.4085 H   0  0  0  0  0  0  0  0  0  0  0  0
   23.3687   -1.1444   31.3325 H   0  0  0  0  0  0  0  0  0  0  0  0
   22.4674    1.0996   30.8863 H   0  0  0  0  0  0  0  0  0  0  0  0
   27.4798    2.4905   34.1728 H   0  0  0  0  0  0  0  0  0  0  0  0
   27.9865    4.0599   33.5861 H   0  0  0  0  0  0  0  0  0  0  0  0
   30.9785    0.9378   29.5661 H   0  0  0  0  0  0  0  0  0  0  0  0
   29.0634    1.3074   34.7693 H   0  0  0  0  0  0  0  0  0  0  0  0
   30.5213   -0.5542   35.2279 H   0  0  0  0  0  0  0  0  0  0  0  0
   31.9150   -1.5463   33.4476 H   0  0  0  0  0  0  0  0  0  0  0  0
   31.8440   -0.6385   31.1662 H   0  0  0  0  0  0  0  0  0  0  0  0
   25.9021    6.5053   32.9239 H   0  0  0  0  0  0  0  0  0  0  0  0
   24.2337    7.7930   30.6517 H   0  0  0  0  0  0  0  0  0  0  0  0
   28.2175    4.8478   29.9110 H   0  0  0  0  0  0  0  0  0  0  0  0
   28.3668    3.7086   27.0265 H   0  0  0  0  0  0  0  0  0  0  0  0
  1  5  2  0
  2  3  2  0
  3  4  1  0
  4  6  2  0
  5  6  1  0
  5 10  1  0
  6  7  1  0
  7  8  2  0
  8  9  1  0
  9 10  2  0
  4 11  1  0
 11 12  1  0
 12 17  2  0
 12 15  1  0
 16 13  2  0
 13 14  1  0
 14 15  2  0
 16 17  1  0
 16 21  1  0
 17 18  1  0
 18 19  2  0
 19 20  1  0
 20 21  2  0
  3 22  1  0
  2 23  1  0
 23 24  1  0
 23 25  2  0
 15 26  1  0
 14 27  1  0
  1  2  1  0
 27 28  1  0
 27 29  2  0
  1 30  1  0
  7 31  1  0
  8 32  1  0
  9 33  1  0
 10 34  1  0
 11 35  1  0
 11 36  1  0
 13 37  1  0
 18 38  1  0
 19 39  1  0
 20 40  1  0
 21 41  1  0
 22 42  1  0
 24 43  1  0
 26 44  1  0
 28 45  1  0
M  END
> <Uni-Dock RESULT> 
ENERGY=   -3.803  LOWER_BOUND=    4.450  UPPER_BOUND=    8.644
INTER + INTRA:          -3.803
INTER:                  -3.803
INTRA:                   0.000
UNBOUND:                 0.000

$$$$

     RDKit          3D

 45 48  0  0  0  0  0  0  0  0999 V2000
   31.6899   12.0836   18.9727 C   0  0  0  0  0  0  0  0  0  0  0  0
   32.0608   13.3519   19.4327 C   0  0  0  0  0  0  0  0  0  0  0  0
   31.4118   13.9005   20.5628 C   0  0  0  0  0  0  0  0  0  0  0  0
   30.4553   13.1384   21.2795 C   0  0  0  0  0  0  0  0  0  0  0  0
   30.7099   11.3374   19.6312 C   0  0  0  0  0  0  0  0  0  0  0  0
   30.0795   11.8548   20.7914 C   0  0  0  0  0  0  0  0  0  0  0  0
   29.0807   11.0723   21.4155 C   0  0  0  0  0  0  0  0  0  0  0  0
   28.7421    9.8129   20.9164 C   0  0  0  0  0  0  0  0  0  0  0  0
   29.3812    9.3104   19.7855 C   0  0  0  0  0  0  0  0  0  0  0  0
   30.3590   10.0678   19.1423 C   0  0  0  0  0  0  0  0  0  0  0  0
   29.8345   13.7185   22.5481 C   0  0  0  0  0  0  0  0  0  0  0  0
   30.2297   12.9386   23.8045 C   0  0  0  0  0  0  0  0  0  0  0  0
   31.0627   11.3501   25.9845 C   0  0  0  0  0  0  0  0  0  0  0  0
   32.0170   11.8517   25.0959 C   0  0  0  0  0  0  0  0  0  0  0  0
   31.6071   12.6970   24.0415 C   0  0  0  0  0  0  0  0  0  0  0  0
   29.7111   11.6718   25.8457 C   0  0  0  0  0  0  0  0  0  0  0  0
   29.2744   12.4875   24.7671 C   0  0  0  0  0  0  0  0  0  0  0  0
   27.9003   12.8313   24.7135 C   0  0  0  0  0  0  0  0  0  0  0  0
   26.9990   12.3379   25.6596 C   0  0  0  0  0  0  0  0  0  0  0  0
   27.4393   11.5077   26.6856 C   0  0  0  0  0  0  0  0  0  0  0  0
   28.7888   11.1798   26.7844 C   0  0  0  0  0  0  0  0  0  0  0  0
   31.6794   15.2095   20.9785 O   0  0  0  0  0  0  0  0  0  0  0  0
   33.1628   14.0544   18.7395 C   0  0  0  0  0  0  0  0  0  0  0  0
   34.1074   14.7757   19.4646 O   0  0  0  0  0  0  0  0  0  0  0  0
   33.2854   13.9568   17.4886 O   0  0  0  0  0  0  0  0  0  0  0  0
   32.5512   13.3439   23.2380 O   0  0  0  0  0  0  0  0  0  0  0  0
   33.4270   11.4367   25.2681 C   0  0  0  0  0  0  0  0  0  0  0  0
   34.2290   11.1834   24.1587 O   0  0  0  0  0  0  0  0  0  0  0  0
   33.8961   11.2572   26.4246 O   0  0  0  0  0  0  0  0  0  0  0  0
   32.1855   11.6643   18.1035 H   0  0  0  0  0  0  0  0  0  0  0  0
   28.5411   11.4211   22.2813 H   0  0  0  0  0  0  0  0  0  0  0  0
   27.9765    9.2259   21.4076 H   0  0  0  0  0  0  0  0  0  0  0  0
   29.1145    8.3337   19.4029 H   0  0  0  0  0  0  0  0  0  0  0  0
   30.8403    9.6616   18.2604 H   0  0  0  0  0  0  0  0  0  0  0  0
   28.7498   13.7480   22.3581 H   0  0  0  0  0  0  0  0  0  0  0  0
   30.1205   14.7773   22.7129 H   0  0  0  0  0  0  0  0  0  0  0  0
   31.3768   10.7007   26.7950 H   0  0  0  0  0  0  0  0  0  0  0  0
   27.4918   13.5009   23.9766 H   0  0  0  0  0  0  0  0  0  0  0  0
   25.9525   12.6087   25.6002 H   0  0  0  0  0  0  0  0  0  0  0  0
   26.7351   11.1291   27.4153 H   0  0  0  0  0  0  0  0  0  0  0  0
   29.1141   10.5464   27.6015 H   0  0  0  0  0  0  0  0  0  0  0  0
   32.1993   15.8773   20.4257 H   0  0  0  0  0  0  0  0  0  0  0  0
   34.8758   15.2426   18.9980 H   0  0  0  0  0  0  0  0  0  0  0  0
   33.5386   13.3804   23.4520 H   0  0  0  0  0  0  0  0  0  0  0  0
   35.1894   10.8810   24.2692 H   0  0  0  0  0  0  0  0  0  0  0  0
  1  5  2  0
  2  3  2  0
  3  4  1  0
  4  6  2  0
  5  6  1  0
  5 10  1  0
  6  7  1  0
  7  8  2  0
  8  9  1  0
  9 10  2  0
  4 11  1  0
 11 12  1  0
 12 17  2  0
 12 15  1  0
 16 13  2  0
 13 14  1  0
 14 15  2  0
 16 17  1  0
 16 21  1  0
 17 18  1  0
 18 19  2  0
 19 20  1  0
 20 21  2  0
  3 22  1  0
  2 23  1  0
 23 24  1  0
 23 25  2  0
 15 26  1  0
 14 27  1  0
  1  2  1  0
 27 28  1  0
 27 29  2  0
  1 30  1  0
  7 31  1  0
  8 32  1  0
  9 33  1  0
 10 34  1  0
 11 35  1  0
 11 36  1  0
 13 37  1  0
 18 38  1  0
 19 39  1  0
 20 40  1  0
 21 41  1  0
 22 42  1  0
 24 43  1  0
 26 44  1  0
 28 45  1  0
M  END
> <Uni-Dock RESULT> 
ENERGY=   -3.794  LOWER_BOUND=    8.457  UPPER_BOUND=   11.928
INTER + INTRA:          -3.794
INTER:                  -3.794
INTRA:                   0.000
UNBOUND:                 0.000

$$$$

     RDKit          3D

 45 48  0  0  0  0  0  0  0  0999 V2000
   33.3510   10.0418   27.2089 C   0  0  0  0  0  0  0  0  0  0  0  0
   33.1103   11.2147   26.4849 C   0  0  0  0  0  0  0  0  0  0  0  0
   31.7800   11.5856   26.1817 C   0  0  0  0  0  0  0  0  0  0  0  0
   30.6929   10.8254   26.6814 C   0  0  0  0  0  0  0  0  0  0  0  0
   32.2961    9.2475   27.6639 C   0  0  0  0  0  0  0  0  0  0  0  0
   30.9545    9.6278   27.4055 C   0  0  0  0  0  0  0  0  0  0  0  0
   29.9188    8.7846   27.8698 C   0  0  0  0  0  0  0  0  0  0  0  0
   30.2094    7.6213   28.5854 C   0  0  0  0  0  0  0  0  0  0  0  0
   31.5314    7.2687   28.8460 C   0  0  0  0  0  0  0  0  0  0  0  0
   32.5719    8.0746   28.3866 C   0  0  0  0  0  0  0  0  0  0  0  0
   29.2652   11.2968   26.4155 C   0  0  0  0  0  0  0  0  0  0  0  0
   28.5361   11.7119   27.6959 C   0  0  0  0  0  0  0  0  0  0  0  0
   27.3736   12.4034   30.1738 C   0  0  0  0  0  0  0  0  0  0  0  0
   28.6161   12.9387   29.8247 C   0  0  0  0  0  0  0  0  0  0  0  0
   29.1689   12.6422   28.5595 C   0  0  0  0  0  0  0  0  0  0  0  0
   26.6713   11.5805   29.2912 C   0  0  0  0  0  0  0  0  0  0  0  0
   27.2300   11.2378   28.0303 C   0  0  0  0  0  0  0  0  0  0  0  0
   26.4441   10.4505   27.1518 C   0  0  0  0  0  0  0  0  0  0  0  0
   25.1858    9.9828   27.5377 C   0  0  0  0  0  0  0  0  0  0  0  0
   24.6726   10.2960   28.7924 C   0  0  0  0  0  0  0  0  0  0  0  0
   25.4065   11.0957   29.6644 C   0  0  0  0  0  0  0  0  0  0  0  0
   31.5117   12.6892   25.3643 O   0  0  0  0  0  0  0  0  0  0  0  0
   34.2678   12.0535   26.1042 C   0  0  0  0  0  0  0  0  0  0  0  0
   34.1869   13.4417   26.1718 O   0  0  0  0  0  0  0  0  0  0  0  0
   35.3561   11.5126   25.7689 O   0  0  0  0  0  0  0  0  0  0  0  0
   30.3268   13.2900   28.1177 O   0  0  0  0  0  0  0  0  0  0  0  0
   29.3322   13.7656   30.8214 C   0  0  0  0  0  0  0  0  0  0  0  0
   30.7152   13.6744   30.9517 O   0  0  0  0  0  0  0  0  0  0  0  0
   28.6859   14.5201   31.5979 O   0  0  0  0  0  0  0  0  0  0  0  0
   34.3720    9.7555   27.4385 H   0  0  0  0  0  0  0  0  0  0  0  0
   28.8797    8.9997   27.6790 H   0  0  0  0  0  0  0  0  0  0  0  0
   29.4043    6.9879   28.9355 H   0  0  0  0  0  0  0  0  0  0  0  0
   31.7508    6.3656   29.4009 H   0  0  0  0  0  0  0  0  0  0  0  0
   33.5938    7.7798   28.5945 H   0  0  0  0  0  0  0  0  0  0  0  0
   28.7806   10.4733   25.8673 H   0  0  0  0  0  0  0  0  0  0  0  0
   29.2273   12.1593   25.7194 H   0  0  0  0  0  0  0  0  0  0  0  0
   26.9481   12.6309   31.1455 H   0  0  0  0  0  0  0  0  0  0  0  0
   26.7535   10.2023   26.1514 H   0  0  0  0  0  0  0  0  0  0  0  0
   24.6016    9.3798   26.8543 H   0  0  0  0  0  0  0  0  0  0  0  0
   23.6966    9.9301   29.0847 H   0  0  0  0  0  0  0  0  0  0  0  0
   24.9810   11.3429   30.6300 H   0  0  0  0  0  0  0  0  0  0  0  0
   32.2169   13.1688   24.8217 H   0  0  0  0  0  0  0  0  0  0  0  0
   34.9820   14.0214   25.9315 H   0  0  0  0  0  0  0  0  0  0  0  0
   30.7303   14.0936   28.5795 H   0  0  0  0  0  0  0  0  0  0  0  0
   31.2098   14.2236   31.6444 H   0  0  0  0  0  0  0  0  0  0  0  0
  1  5  2  0
  2  3  2  0
  3  4  1  0
  4  6  2  0
  5  6  1  0
  5 10  1  0
  6  7  1  0
  7  8  2  0
  8  9  1  0
  9 10  2  0
  4 11  1  0
 11 12  1  0
 12 17  2  0
 12 15  1  0
 16 13  2  0
 13 14  1  0
 14 15  2  0
 16 17  1  0
 16 21  1  0
 17 18  1  0
 18 19  2  0
 19 20  1  0
 20 21  2  0
  3 22  1  0
  2 23  1  0
 23 24  1  0
 23 25  2  0
 15 26  1  0
 14 27  1  0
  1  2  1  0
 27 28  1  0
 27 29  2  0
  1 30  1  0
  7 31  1  0
  8 32  1  0
  9 33  1  0
 10 34  1  0
 11 35  1  0
 11 36  1  0
 13 37  1  0
 18 38  1  0
 19 39  1  0
 20 40  1  0
 21 41  1  0
 22 42  1  0
 24 43  1  0
 26 44  1  0
 28 45  1  0
M  END
> <Uni-Dock RESULT> 
ENERGY=   -3.771  LOWER_BOUND=    5.136  UPPER_BOUND=    8.008
INTER + INTRA:          -3.771
INTER:                  -3.771
INTRA:                   0.000
UNBOUND:                 0.000

$$$$
