
     RDKit          3D

 45 48  0  0  0  0  0  0  0  0999 V2000
   23.0029    5.1252   30.5122 C   0  0  0  0  0  0  0  0  0  0  0  0
   24.2125    5.3690   31.1662 C   0  0  0  0  0  0  0  0  0  0  0  0
   24.4618    6.6493   31.7104 C   0  0  0  0  0  0  0  0  0  0  0  0
   23.5533    7.7159   31.4893 C   0  0  0  0  0  0  0  0  0  0  0  0
   22.0377    6.1263   30.3868 C   0  0  0  0  0  0  0  0  0  0  0  0
   22.2871    7.4313   30.8909 C   0  0  0  0  0  0  0  0  0  0  0  0
   21.2460    8.3880   30.7902 C   0  0  0  0  0  0  0  0  0  0  0  0
   20.0371    8.0712   30.1662 C   0  0  0  0  0  0  0  0  0  0  0  0
   19.8269    6.7993   29.6431 C   0  0  0  0  0  0  0  0  0  0  0  0
   20.8177    5.8279   29.7569 C   0  0  0  0  0  0  0  0  0  0  0  0
   23.9543    9.1193   31.9508 C   0  0  0  0  0  0  0  0  0  0  0  0
   25.3297    9.5351   31.4343 C   0  0  0  0  0  0  0  0  0  0  0  0
   27.9093   10.2292   30.5278 C   0  0  0  0  0  0  0  0  0  0  0  0
   27.6911   10.0301   31.8954 C   0  0  0  0  0  0  0  0  0  0  0  0
   26.3895    9.7255   32.3563 C   0  0  0  0  0  0  0  0  0  0  0  0
   26.8672   10.1010   29.6065 C   0  0  0  0  0  0  0  0  0  0  0  0
   25.5648    9.7538   30.0473 C   0  0  0  0  0  0  0  0  0  0  0  0
   24.5367    9.6525   29.0819 C   0  0  0  0  0  0  0  0  0  0  0  0
   24.8029    9.8645   27.7276 C   0  0  0  0  0  0  0  0  0  0  0  0
   26.0906   10.1887   27.3073 C   0  0  0  0  0  0  0  0  0  0  0  0
   27.1193   10.3096   28.2402 C   0  0  0  0  0  0  0  0  0  0  0  0
   25.5859    6.8801   32.5099 O   0  0  0  0  0  0  0  0  0  0  0  0
   25.2055    4.2732   31.2251 C   0  0  0  0  0  0  0  0  0  0  0  0
   24.7762    2.9518   31.3178 O   0  0  0  0  0  0  0  0  0  0  0  0
   26.4387    4.5177   31.1355 O   0  0  0  0  0  0  0  0  0  0  0  0
   26.1167    9.6330   33.7256 O   0  0  0  0  0  0  0  0  0  0  0  0
   28.8533   10.0993   32.8082 C   0  0  0  0  0  0  0  0  0  0  0  0
   28.9752    9.2026   33.8661 O   0  0  0  0  0  0  0  0  0  0  0  0
   29.7714   10.9376   32.5985 O   0  0  0  0  0  0  0  0  0  0  0  0
   22.8098    4.1425   30.0950 H   0  0  0  0  0  0  0  0  0  0  0  0
   21.3168    9.3777   31.2069 H   0  0  0  0  0  0  0  0  0  0  0  0
   19.2549    8.8164   30.0958 H   0  0  0  0  0  0  0  0  0  0  0  0
   18.8875    6.5609   29.1610 H   0  0  0  0  0  0  0  0  0  0  0  0
   20.6272    4.8380   29.3589 H   0  0  0  0  0  0  0  0  0  0  0  0
   23.8968    9.1318   33.0582 H   0  0  0  0  0  0  0  0  0  0  0  0
   23.2652    9.9152   31.6261 H   0  0  0  0  0  0  0  0  0  0  0  0
   28.9074   10.4663   30.1747 H   0  0  0  0  0  0  0  0  0  0  0  0
   23.5190    9.4238   29.3546 H   0  0  0  0  0  0  0  0  0  0  0  0
   24.0046    9.7808   27.0013 H   0  0  0  0  0  0  0  0  0  0  0  0
   26.2911   10.3522   26.2563 H   0  0  0  0  0  0  0  0  0  0  0  0
   28.1129   10.5687   27.8937 H   0  0  0  0  0  0  0  0  0  0  0  0
   26.1782    6.1457   32.8727 H   0  0  0  0  0  0  0  0  0  0  0  0
   25.4422    2.1887   31.3372 H   0  0  0  0  0  0  0  0  0  0  0  0
   26.7595    9.9325   34.4460 H   0  0  0  0  0  0  0  0  0  0  0  0
   29.7781    9.2318   34.4829 H   0  0  0  0  0  0  0  0  0  0  0  0
  1  5  2  0
  2  3  2  0
  3  4  1  0
  4  6  2  0
  5  6  1  0
  5 10  1  0
  6  7  1  0
  7  8  2  0
  8  9  1  0
  9 10  2  0
  4 11  1  0
 11 12  1  0
 12 17  2  0
 12 15  1  0
 16 13  2  0
 13 14  1  0
 14 15  2  0
 16 17  1  0
 16 21  1  0
 17 18  1  0
 18 19  2  0
 19 20  1  0
 20 21  2  0
  3 22  1  0
  2 23  1  0
 23 24  1  0
 23 25  2  0
 15 26  1  0
 14 27  1  0
  1  2  1  0
 27 28  1  0
 27 29  2  0
  1 30  1  0
  7 31  1  0
  8 32  1  0
  9 33  1  0
 10 34  1  0
 11 35  1  0
 11 36  1  0
 13 37  1  0
 18 38  1  0
 19 39  1  0
 20 40  1  0
 21 41  1  0
 22 42  1  0
 24 43  1  0
 26 44  1  0
 28 45  1  0
M  END
> <Uni-Dock RESULT> 
ENERGY=   -4.264  LOWER_BOUND=    0.000  UPPER_BOUND=    0.000
INTER + INTRA:          -4.264
INTER:                  -4.264
INTRA:                   0.000
UNBOUND:                 0.000

$$$$

     RDKit          3D

 45 48  0  0  0  0  0  0  0  0999 V2000
   31.6081   12.8378   19.2763 C   0  0  0  0  0  0  0  0  0  0  0  0
   31.2006   13.6330   20.3496 C   0  0  0  0  0  0  0  0  0  0  0  0
   30.3543   13.0831   21.3390 C   0  0  0  0  0  0  0  0  0  0  0  0
   29.8183   11.7789   21.1855 C   0  0  0  0  0  0  0  0  0  0  0  0
   31.1917   11.5097   19.1654 C   0  0  0  0  0  0  0  0  0  0  0  0
   30.3076   10.9517   20.1278 C   0  0  0  0  0  0  0  0  0  0  0  0
   29.9697    9.5812   19.9975 C   0  0  0  0  0  0  0  0  0  0  0  0
   30.4473    8.8222   18.9265 C   0  0  0  0  0  0  0  0  0  0  0  0
   31.2800    9.3975   17.9719 C   0  0  0  0  0  0  0  0  0  0  0  0
   31.6570   10.7323   18.0915 C   0  0  0  0  0  0  0  0  0  0  0  0
   28.7729   11.2993   22.1957 C   0  0  0  0  0  0  0  0  0  0  0  0
   27.6183   12.2855   22.3566 C   0  0  0  0  0  0  0  0  0  0  0  0
   25.5480   14.1734   22.6844 C   0  0  0  0  0  0  0  0  0  0  0  0
   26.4301   13.9289   23.7426 C   0  0  0  0  0  0  0  0  0  0  0  0
   27.4410   12.9513   23.5954 C   0  0  0  0  0  0  0  0  0  0  0  0
   25.6699   13.4887   21.4730 C   0  0  0  0  0  0  0  0  0  0  0  0
   26.7048   12.5358   21.2937 C   0  0  0  0  0  0  0  0  0  0  0  0
   26.7794   11.8538   20.0574 C   0  0  0  0  0  0  0  0  0  0  0  0
   25.8728   12.1297   19.0318 C   0  0  0  0  0  0  0  0  0  0  0  0
   24.8715   13.0800   19.2162 C   0  0  0  0  0  0  0  0  0  0  0  0
   24.7664   13.7560   20.4307 C   0  0  0  0  0  0  0  0  0  0  0  0
   30.0612   13.7960   22.5061 O   0  0  0  0  0  0  0  0  0  0  0  0
   31.6476   15.0435   20.3805 C   0  0  0  0  0  0  0  0  0  0  0  0
   32.8985   15.3864   19.8739 O   0  0  0  0  0  0  0  0  0  0  0  0
   30.8848   15.9504   20.8097 O   0  0  0  0  0  0  0  0  0  0  0  0
   28.2649   12.6037   24.6717 O   0  0  0  0  0  0  0  0  0  0  0  0
   26.2980   14.7465   24.9685 C   0  0  0  0  0  0  0  0  0  0  0  0
   27.4297   15.1997   25.6406 O   0  0  0  0  0  0  0  0  0  0  0  0
   25.1558   15.0857   25.3808 O   0  0  0  0  0  0  0  0  0  0  0  0
   32.2587   13.2582   18.5167 H   0  0  0  0  0  0  0  0  0  0  0  0
   29.3662    9.0551   20.7167 H   0  0  0  0  0  0  0  0  0  0  0  0
   30.1754    7.7777   18.8419 H   0  0  0  0  0  0  0  0  0  0  0  0
   31.6464    8.8032   17.1446 H   0  0  0  0  0  0  0  0  0  0  0  0
   32.3209   11.1565   17.3472 H   0  0  0  0  0  0  0  0  0  0  0  0
   29.3013   11.1071   23.1516 H   0  0  0  0  0  0  0  0  0  0  0  0
   28.3038   10.3367   21.9371 H   0  0  0  0  0  0  0  0  0  0  0  0
   24.7701   14.9210   22.7986 H   0  0  0  0  0  0  0  0  0  0  0  0
   27.5219   11.0952   19.8686 H   0  0  0  0  0  0  0  0  0  0  0  0
   25.9455   11.5999   18.0906 H   0  0  0  0  0  0  0  0  0  0  0  0
   24.1714   13.2896   18.4179 H   0  0  0  0  0  0  0  0  0  0  0  0
   23.9766   14.4874   20.5566 H   0  0  0  0  0  0  0  0  0  0  0  0
   30.5422   14.6401   22.7851 H   0  0  0  0  0  0  0  0  0  0  0  0
   33.2108   16.3500   19.8675 H   0  0  0  0  0  0  0  0  0  0  0  0
   28.0896   12.8884   25.6257 H   0  0  0  0  0  0  0  0  0  0  0  0
   27.3466   15.7764   26.4693 H   0  0  0  0  0  0  0  0  0  0  0  0
  1  5  2  0
  2  3  2  0
  3  4  1  0
  4  6  2  0
  5  6  1  0
  5 10  1  0
  6  7  1  0
  7  8  2  0
  8  9  1  0
  9 10  2  0
  4 11  1  0
 11 12  1  0
 12 17  2  0
 12 15  1  0
 16 13  2  0
 13 14  1  0
 14 15  2  0
 16 17  1  0
 16 21  1  0
 17 18  1  0
 18 19  2  0
 19 20  1  0
 20 21  2  0
  3 22  1  0
  2 23  1  0
 23 24  1  0
 23 25  2  0
 15 26  1  0
 14 27  1  0
  1  2  1  0
 27 28  1  0
 27 29  2  0
  1 30  1  0
  7 31  1  0
  8 32  1  0
  9 33  1  0
 10 34  1  0
 11 35  1  0
 11 36  1  0
 13 37  1  0
 18 38  1  0
 19 39  1  0
 20 40  1  0
 21 41  1  0
 22 42  1  0
 24 43  1  0
 26 44  1  0
 28 45  1  0
M  END
> <Uni-Dock RESULT> 
ENERGY=   -4.241  LOWER_BOUND=    9.471  UPPER_BOUND=   12.662
INTER + INTRA:          -4.241
INTER:                  -4.241
INTRA:                   0.000
UNBOUND:                 0.000

$$$$

     RDKit          3D

 45 48  0  0  0  0  0  0  0  0999 V2000
   28.1222    3.9789   30.1383 C   0  0  0  0  0  0  0  0  0  0  0  0
   29.1986    4.3368   29.3237 C   0  0  0  0  0  0  0  0  0  0  0  0
   29.9873    5.4579   29.6681 C   0  0  0  0  0  0  0  0  0  0  0  0
   29.6206    6.2902   30.7566 C   0  0  0  0  0  0  0  0  0  0  0  0
   27.8129    4.7117   31.2858 C   0  0  0  0  0  0  0  0  0  0  0  0
   28.5684    5.8661   31.6258 C   0  0  0  0  0  0  0  0  0  0  0  0
   28.2475    6.5326   32.8350 C   0  0  0  0  0  0  0  0  0  0  0  0
   27.1877    6.0990   33.6349 C   0  0  0  0  0  0  0  0  0  0  0  0
   26.4338    4.9899   33.2643 C   0  0  0  0  0  0  0  0  0  0  0  0
   26.7464    4.2941   32.0997 C   0  0  0  0  0  0  0  0  0  0  0  0
   30.4070    7.5846   30.9786 C   0  0  0  0  0  0  0  0  0  0  0  0
   30.4939    8.4409   29.7174 C   0  0  0  0  0  0  0  0  0  0  0  0
   30.7007    9.9509   27.3436 C   0  0  0  0  0  0  0  0  0  0  0  0
   31.8483    9.3643   27.8881 C   0  0  0  0  0  0  0  0  0  0  0  0
   31.7543    8.6443   29.1013 C   0  0  0  0  0  0  0  0  0  0  0  0
   29.4570    9.8100   27.9637 C   0  0  0  0  0  0  0  0  0  0  0  0
   29.3376    9.0549   29.1582 C   0  0  0  0  0  0  0  0  0  0  0  0
   28.0625    8.9537   29.7609 C   0  0  0  0  0  0  0  0  0  0  0  0
   26.9465    9.5607   29.1813 C   0  0  0  0  0  0  0  0  0  0  0  0
   27.0758   10.2854   27.9991 C   0  0  0  0  0  0  0  0  0  0  0  0
   28.3242   10.4134   27.3922 C   0  0  0  0  0  0  0  0  0  0  0  0
   31.1645    5.7458   28.9701 O   0  0  0  0  0  0  0  0  0  0  0  0
   29.4424    3.5389   28.1012 C   0  0  0  0  0  0  0  0  0  0  0  0
   29.1678    2.1738   28.0972 O   0  0  0  0  0  0  0  0  0  0  0  0
   29.8437    4.0919   27.0421 O   0  0  0  0  0  0  0  0  0  0  0  0
   32.9002    8.1437   29.7291 O   0  0  0  0  0  0  0  0  0  0  0  0
   33.1185    9.4816   27.1387 C   0  0  0  0  0  0  0  0  0  0  0  0
   33.9964    8.4039   27.0633 O   0  0  0  0  0  0  0  0  0  0  0  0
   33.3874   10.5438   26.5149 O   0  0  0  0  0  0  0  0  0  0  0  0
   27.5167    3.1178   29.8757 H   0  0  0  0  0  0  0  0  0  0  0  0
   28.8094    7.3705   33.2097 H   0  0  0  0  0  0  0  0  0  0  0  0
   26.9554    6.6231   34.5533 H   0  0  0  0  0  0  0  0  0  0  0  0
   25.6140    4.6595   33.8891 H   0  0  0  0  0  0  0  0  0  0  0  0
   26.1584    3.4220   31.8382 H   0  0  0  0  0  0  0  0  0  0  0  0
   31.4063    7.3014   31.3672 H   0  0  0  0  0  0  0  0  0  0  0  0
   29.9825    8.2434   31.7529 H   0  0  0  0  0  0  0  0  0  0  0  0
   30.7736   10.5064   26.4145 H   0  0  0  0  0  0  0  0  0  0  0  0
   27.9098    8.4217   30.6862 H   0  0  0  0  0  0  0  0  0  0  0  0
   25.9771    9.4715   29.6548 H   0  0  0  0  0  0  0  0  0  0  0  0
   26.2074   10.7541   27.5544 H   0  0  0  0  0  0  0  0  0  0  0  0
   28.4050   10.9866   26.4760 H   0  0  0  0  0  0  0  0  0  0  0  0
   31.5987    5.1113   28.3139 H   0  0  0  0  0  0  0  0  0  0  0  0
   29.3084    1.6175   27.2624 H   0  0  0  0  0  0  0  0  0  0  0  0
   33.8414    8.3983   29.4621 H   0  0  0  0  0  0  0  0  0  0  0  0
   34.8584    8.4709   26.5355 H   0  0  0  0  0  0  0  0  0  0  0  0
  1  5  2  0
  2  3  2  0
  3  4  1  0
  4  6  2  0
  5  6  1  0
  5 10  1  0
  6  7  1  0
  7  8  2  0
  8  9  1  0
  9 10  2  0
  4 11  1  0
 11 12  1  0
 12 17  2  0
 12 15  1  0
 16 13  2  0
 13 14  1  0
 14 15  2  0
 16 17  1  0
 16 21  1  0
 17 18  1  0
 18 19  2  0
 19 20  1  0
 20 21  2  0
  3 22  1  0
  2 23  1  0
 23 24  1  0
 23 25  2  0
 15 26  1  0
 14 27  1  0
  1  2  1  0
 27 28  1  0
 27 29  2  0
  1 30  1  0
  7 31  1  0
  8 32  1  0
  9 33  1  0
 10 34  1  0
 11 35  1  0
 11 36  1  0
 13 37  1  0
 18 38  1  0
 19 39  1  0
 20 40  1  0
 21 41  1  0
 22 42  1  0
 24 43  1  0
 26 44  1  0
 28 45  1  0
M  END
> <Uni-Dock RESULT> 
ENERGY=   -4.083  LOWER_BOUND=    4.521  UPPER_BOUND=    5.942
INTER + INTRA:          -4.083
INTER:                  -4.083
INTRA:                   0.000
UNBOUND:                 0.000

$$$$

     RDKit          3D

 45 48  0  0  0  0  0  0  0  0999 V2000
   28.1156    3.9424   30.1213 C   0  0  0  0  0  0  0  0  0  0  0  0
   29.1936    4.3049   29.3108 C   0  0  0  0  0  0  0  0  0  0  0  0
   29.9823    5.4234   29.6637 C   0  0  0  0  0  0  0  0  0  0  0  0
   29.6142    6.2488   30.7569 C   0  0  0  0  0  0  0  0  0  0  0  0
   27.8048    4.6680   31.2730 C   0  0  0  0  0  0  0  0  0  0  0  0
   28.5604    5.8198   31.6217 C   0  0  0  0  0  0  0  0  0  0  0  0
   28.2379    6.4787   32.8346 C   0  0  0  0  0  0  0  0  0  0  0  0
   27.1765    6.0405   33.6299 C   0  0  0  0  0  0  0  0  0  0  0  0
   26.4227    4.9342   33.2510 C   0  0  0  0  0  0  0  0  0  0  0  0
   26.7368    4.2458   32.0824 C   0  0  0  0  0  0  0  0  0  0  0  0
   30.4011    7.5414   30.9885 C   0  0  0  0  0  0  0  0  0  0  0  0
   30.4905    8.4057   29.7330 C   0  0  0  0  0  0  0  0  0  0  0  0
   30.7020    9.9308   27.3693 C   0  0  0  0  0  0  0  0  0  0  0  0
   31.8484    9.3400   27.9119 C   0  0  0  0  0  0  0  0  0  0  0  0
   31.7519    8.6123   29.1202 C   0  0  0  0  0  0  0  0  0  0  0  0
   29.4572    9.7866   27.9864 C   0  0  0  0  0  0  0  0  0  0  0  0
   29.3354    9.0239   29.1758 C   0  0  0  0  0  0  0  0  0  0  0  0
   28.0593    8.9195   29.7758 C   0  0  0  0  0  0  0  0  0  0  0  0
   26.9445    9.5309   29.1983 C   0  0  0  0  0  0  0  0  0  0  0  0
   27.0762   10.2632   28.0210 C   0  0  0  0  0  0  0  0  0  0  0  0
   28.3257   10.3943   27.4170 C   0  0  0  0  0  0  0  0  0  0  0  0
   31.1608    5.7151   28.9695 O   0  0  0  0  0  0  0  0  0  0  0  0
   29.4388    3.5148   28.0836 C   0  0  0  0  0  0  0  0  0  0  0  0
   29.1635    2.1499   28.0704 O   0  0  0  0  0  0  0  0  0  0  0  0
   29.8422    4.0743   27.0287 O   0  0  0  0  0  0  0  0  0  0  0  0
   32.8966    8.1070   29.7467 O   0  0  0  0  0  0  0  0  0  0  0  0
   33.1199    9.4615   27.1653 C   0  0  0  0  0  0  0  0  0  0  0  0
   33.9973    8.3837   27.0844 O   0  0  0  0  0  0  0  0  0  0  0  0
   33.3904   10.5275   26.5488 O   0  0  0  0  0  0  0  0  0  0  0  0
   27.5101    3.0834   29.8522 H   0  0  0  0  0  0  0  0  0  0  0  0
   28.7997    7.3138   33.2156 H   0  0  0  0  0  0  0  0  0  0  0  0
   26.9430    6.5588   34.5513 H   0  0  0  0  0  0  0  0  0  0  0  0
   25.6016    4.6003   33.8723 H   0  0  0  0  0  0  0  0  0  0  0  0
   26.1487    3.3758   31.8144 H   0  0  0  0  0  0  0  0  0  0  0  0
   31.3995    7.2550   31.3769 H   0  0  0  0  0  0  0  0  0  0  0  0
   29.9756    8.1954   31.7663 H   0  0  0  0  0  0  0  0  0  0  0  0
   30.7768   10.4922   26.4439 H   0  0  0  0  0  0  0  0  0  0  0  0
   27.9048    8.3817   30.6974 H   0  0  0  0  0  0  0  0  0  0  0  0
   25.9744    9.4392   29.6696 H   0  0  0  0  0  0  0  0  0  0  0  0
   26.2088   10.7351   27.5779 H   0  0  0  0  0  0  0  0  0  0  0  0
   28.4083   10.9733   26.5046 H   0  0  0  0  0  0  0  0  0  0  0  0
   31.5957    5.0845   28.3099 H   0  0  0  0  0  0  0  0  0  0  0  0
   29.3051    1.5988   27.2322 H   0  0  0  0  0  0  0  0  0  0  0  0
   33.8383    8.3628   29.4829 H   0  0  0  0  0  0  0  0  0  0  0  0
   34.8602    8.4537   26.5585 H   0  0  0  0  0  0  0  0  0  0  0  0
  1  5  2  0
  2  3  2  0
  3  4  1  0
  4  6  2  0
  5  6  1  0
  5 10  1  0
  6  7  1  0
  7  8  2  0
  8  9  1  0
  9 10  2  0
  4 11  1  0
 11 12  1  0
 12 17  2  0
 12 15  1  0
 16 13  2  0
 13 14  1  0
 14 15  2  0
 16 17  1  0
 16 21  1  0
 17 18  1  0
 18 19  2  0
 19 20  1  0
 20 21  2  0
  3 22  1  0
  2 23  1  0
 23 24  1  0
 23 25  2  0
 15 26  1  0
 14 27  1  0
  1  2  1  0
 27 28  1  0
 27 29  2  0
  1 30  1  0
  7 31  1  0
  8 32  1  0
  9 33  1  0
 10 34  1  0
 11 35  1  0
 11 36  1  0
 13 37  1  0
 18 38  1  0
 19 39  1  0
 20 40  1  0
 21 41  1  0
 22 42  1  0
 24 43  1  0
 26 44  1  0
 28 45  1  0
M  END
> <Uni-Dock RESULT> 
ENERGY=   -4.082  LOWER_BOUND=    4.523  UPPER_BOUND=    5.941
INTER + INTRA:          -4.082
INTER:                  -4.082
INTRA:                   0.000
UNBOUND:                 0.000

$$$$

     RDKit          3D

 45 48  0  0  0  0  0  0  0  0999 V2000
   25.0562   14.1802   21.2922 C   0  0  0  0  0  0  0  0  0  0  0  0
   25.5567   13.2732   20.3556 C   0  0  0  0  0  0  0  0  0  0  0  0
   26.5678   12.3640   20.7412 C   0  0  0  0  0  0  0  0  0  0  0  0
   27.1618   12.4491   22.0265 C   0  0  0  0  0  0  0  0  0  0  0  0
   25.5396   14.2032   22.6019 C   0  0  0  0  0  0  0  0  0  0  0  0
   26.5847   13.3252   22.9970 C   0  0  0  0  0  0  0  0  0  0  0  0
   26.9906   13.3509   24.3548 C   0  0  0  0  0  0  0  0  0  0  0  0
   26.4187   14.2493   25.2587 C   0  0  0  0  0  0  0  0  0  0  0  0
   25.4243   15.1291   24.8431 C   0  0  0  0  0  0  0  0  0  0  0  0
   24.9806   15.1042   23.5237 C   0  0  0  0  0  0  0  0  0  0  0  0
   28.3678   11.5565   22.3300 C   0  0  0  0  0  0  0  0  0  0  0  0
   29.4660   11.6772   21.2761 C   0  0  0  0  0  0  0  0  0  0  0  0
   31.4328   11.8684   19.2629 C   0  0  0  0  0  0  0  0  0  0  0  0
   30.7258   10.6716   19.4227 C   0  0  0  0  0  0  0  0  0  0  0  0
   29.7709   10.5594   20.4594 C   0  0  0  0  0  0  0  0  0  0  0  0
   31.1877   12.9653   20.0923 C   0  0  0  0  0  0  0  0  0  0  0  0
   30.2029   12.8839   21.1095 C   0  0  0  0  0  0  0  0  0  0  0  0
   30.0009   14.0125   21.9369 C   0  0  0  0  0  0  0  0  0  0  0  0
   30.7346   15.1844   21.7410 C   0  0  0  0  0  0  0  0  0  0  0  0
   31.6870   15.2555   20.7272 C   0  0  0  0  0  0  0  0  0  0  0  0
   31.9166   14.1521   19.9069 C   0  0  0  0  0  0  0  0  0  0  0  0
   26.9739   11.3390   19.8807 O   0  0  0  0  0  0  0  0  0  0  0  0
   25.0265   13.3337   18.9752 C   0  0  0  0  0  0  0  0  0  0  0  0
   23.6970   13.6859   18.7572 O   0  0  0  0  0  0  0  0  0  0  0  0
   25.7805   13.1243   17.9872 O   0  0  0  0  0  0  0  0  0  0  0  0
   29.1308    9.3420   20.7164 O   0  0  0  0  0  0  0  0  0  0  0  0
   30.9742    9.5767   18.4592 C   0  0  0  0  0  0  0  0  0  0  0  0
   29.9205    8.8001   17.9853 O   0  0  0  0  0  0  0  0  0  0  0  0
   32.1380    9.3768   18.0174 O   0  0  0  0  0  0  0  0  0  0  0  0
   24.2793   14.8779   20.9978 H   0  0  0  0  0  0  0  0  0  0  0  0
   27.7223   12.6743   24.7611 H   0  0  0  0  0  0  0  0  0  0  0  0
   26.7444   14.2566   26.2912 H   0  0  0  0  0  0  0  0  0  0  0  0
   24.9856   15.8225   25.5491 H   0  0  0  0  0  0  0  0  0  0  0  0
   24.1924   15.7853   23.2246 H   0  0  0  0  0  0  0  0  0  0  0  0
   27.9925   10.5180   22.4327 H   0  0  0  0  0  0  0  0  0  0  0  0
   28.8585   11.7728   23.2924 H   0  0  0  0  0  0  0  0  0  0  0  0
   32.1680   11.9532   18.4695 H   0  0  0  0  0  0  0  0  0  0  0  0
   29.2909   14.0049   22.7482 H   0  0  0  0  0  0  0  0  0  0  0  0
   30.5659   16.0401   22.3821 H   0  0  0  0  0  0  0  0  0  0  0  0
   32.2530   16.1663   20.5801 H   0  0  0  0  0  0  0  0  0  0  0  0
   32.6662   14.2255   19.1278 H   0  0  0  0  0  0  0  0  0  0  0  0
   26.4822   11.0877   19.0341 H   0  0  0  0  0  0  0  0  0  0  0  0
   23.3241   13.7531   17.8178 H   0  0  0  0  0  0  0  0  0  0  0  0
   29.4188    8.4616   20.3117 H   0  0  0  0  0  0  0  0  0  0  0  0
   30.0807    8.0617   17.3106 H   0  0  0  0  0  0  0  0  0  0  0  0
  1  5  2  0
  2  3  2  0
  3  4  1  0
  4  6  2  0
  5  6  1  0
  5 10  1  0
  6  7  1  0
  7  8  2  0
  8  9  1  0
  9 10  2  0
  4 11  1  0
 11 12  1  0
 12 17  2  0
 12 15  1  0
 16 13  2  0
 13 14  1  0
 14 15  2  0
 16 17  1  0
 16 21  1  0
 17 18  1  0
 18 19  2  0
 19 20  1  0
 20 21  2  0
  3 22  1  0
  2 23  1  0
 23 24  1  0
 23 25  2  0
 15 26  1  0
 14 27  1  0
  1  2  1  0
 27 28  1  0
 27 29  2  0
  1 30  1  0
  7 31  1  0
  8 32  1  0
  9 33  1  0
 10 34  1  0
 11 35  1  0
 11 36  1  0
 13 37  1  0
 18 38  1  0
 19 39  1  0
 20 40  1  0
 21 41  1  0
 22 42  1  0
 24 43  1  0
 26 44  1  0
 28 45  1  0
M  END
> <Uni-Dock RESULT> 
ENERGY=   -3.879  LOWER_BOUND=    9.760  UPPER_BOUND=   12.448
INTER + INTRA:          -3.879
INTER:                  -3.879
INTRA:                   0.000
UNBOUND:                 0.000

$$$$

     RDKit          3D

 45 48  0  0  0  0  0  0  0  0999 V2000
   31.1291   11.4005   25.8715 C   0  0  0  0  0  0  0  0  0  0  0  0
   32.0725   11.8810   24.9609 C   0  0  0  0  0  0  0  0  0  0  0  0
   31.6500   12.7048   23.8931 C   0  0  0  0  0  0  0  0  0  0  0  0
   30.2697   12.9423   23.6683 C   0  0  0  0  0  0  0  0  0  0  0  0
   29.7760   11.7202   25.7425 C   0  0  0  0  0  0  0  0  0  0  0  0
   29.3263   12.5127   24.6521 C   0  0  0  0  0  0  0  0  0  0  0  0
   27.9519   12.8565   24.6086 C   0  0  0  0  0  0  0  0  0  0  0  0
   27.0622   12.3843   25.5763 C   0  0  0  0  0  0  0  0  0  0  0  0
   27.5149   11.5761   26.6144 C   0  0  0  0  0  0  0  0  0  0  0  0
   28.8653   11.2493   26.7031 C   0  0  0  0  0  0  0  0  0  0  0  0
   29.8591   13.6958   22.4007 C   0  0  0  0  0  0  0  0  0  0  0  0
   30.4616   13.0873   21.1365 C   0  0  0  0  0  0  0  0  0  0  0  0
   31.6624   11.9815   18.8358 C   0  0  0  0  0  0  0  0  0  0  0  0
   32.0417   13.2586   19.2636 C   0  0  0  0  0  0  0  0  0  0  0  0
   31.4093   13.8323   20.3906 C   0  0  0  0  0  0  0  0  0  0  0  0
   30.6904   11.2513   19.5235 C   0  0  0  0  0  0  0  0  0  0  0  0
   30.0770   11.7945   20.6810 C   0  0  0  0  0  0  0  0  0  0  0  0
   29.0855   11.0274   21.3351 C   0  0  0  0  0  0  0  0  0  0  0  0
   28.7378    9.7584   20.8675 C   0  0  0  0  0  0  0  0  0  0  0  0
   29.3605    9.2308   19.7389 C   0  0  0  0  0  0  0  0  0  0  0  0
   30.3306    9.9723   19.0665 C   0  0  0  0  0  0  0  0  0  0  0  0
   32.5831   13.3340   23.0626 O   0  0  0  0  0  0  0  0  0  0  0  0
   33.4829   11.4677   25.1360 C   0  0  0  0  0  0  0  0  0  0  0  0
   33.9932   11.2661   26.4158 O   0  0  0  0  0  0  0  0  0  0  0  0
   34.2151   11.2406   24.1356 O   0  0  0  0  0  0  0  0  0  0  0  0
   31.6846   15.1494   20.7746 O   0  0  0  0  0  0  0  0  0  0  0  0
   33.1351   13.9442   18.5403 C   0  0  0  0  0  0  0  0  0  0  0  0
   34.0907   14.6790   19.2366 O   0  0  0  0  0  0  0  0  0  0  0  0
   33.2401   13.8196   17.2901 O   0  0  0  0  0  0  0  0  0  0  0  0
   31.4522   10.7689   26.6923 H   0  0  0  0  0  0  0  0  0  0  0  0
   27.5343   13.5103   23.8626 H   0  0  0  0  0  0  0  0  0  0  0  0
   26.0151   12.6548   25.5243 H   0  0  0  0  0  0  0  0  0  0  0  0
   26.8197   11.2139   27.3608 H   0  0  0  0  0  0  0  0  0  0  0  0
   29.2006   10.6335   27.5296 H   0  0  0  0  0  0  0  0  0  0  0  0
   30.1491   14.7572   22.5389 H   0  0  0  0  0  0  0  0  0  0  0  0
   28.7719   13.7236   22.2245 H   0  0  0  0  0  0  0  0  0  0  0  0
   32.1452   11.5428   17.9689 H   0  0  0  0  0  0  0  0  0  0  0  0
   28.5584   11.3957   22.2006 H   0  0  0  0  0  0  0  0  0  0  0  0
   27.9781    9.1835   21.3815 H   0  0  0  0  0  0  0  0  0  0  0  0
   29.0869    8.2467   19.3808 H   0  0  0  0  0  0  0  0  0  0  0  0
   30.7990    9.5466   18.1868 H   0  0  0  0  0  0  0  0  0  0  0  0
   33.5736   13.3755   23.2600 H   0  0  0  0  0  0  0  0  0  0  0  0
   34.9498   10.9621   26.5523 H   0  0  0  0  0  0  0  0  0  0  0  0
   32.1978   15.8043   20.2004 H   0  0  0  0  0  0  0  0  0  0  0  0
   34.8532   15.1346   18.7496 H   0  0  0  0  0  0  0  0  0  0  0  0
  1  5  2  0
  2  3  2  0
  3  4  1  0
  4  6  2  0
  5  6  1  0
  5 10  1  0
  6  7  1  0
  7  8  2  0
  8  9  1  0
  9 10  2  0
  4 11  1  0
 11 12  1  0
 12 17  2  0
 12 15  1  0
 16 13  2  0
 13 14  1  0
 14 15  2  0
 16 17  1  0
 16 21  1  0
 17 18  1  0
 18 19  2  0
 19 20  1  0
 20 21  2  0
  3 22  1  0
  2 23  1  0
 23 24  1  0
 23 25  2  0
 15 26  1  0
 14 27  1  0
  1  2  1  0
 27 28  1  0
 27 29  2  0
  1 30  1  0
  7 31  1  0
  8 32  1  0
  9 33  1  0
 10 34  1  0
 11 35  1  0
 11 36  1  0
 13 37  1  0
 18 38  1  0
 19 39  1  0
 20 40  1  0
 21 41  1  0
 22 42  1  0
 24 43  1  0
 26 44  1  0
 28 45  1  0
M  END
> <Uni-Dock RESULT> 
ENERGY=   -3.828  LOWER_BOUND=    8.520  UPPER_BOUND=   12.014
INTER + INTRA:          -3.828
INTER:                  -3.828
INTRA:                   0.000
UNBOUND:                 0.000

$$$$

     RDKit          3D

 45 48  0  0  0  0  0  0  0  0999 V2000
   27.3753   12.4092   30.1721 C   0  0  0  0  0  0  0  0  0  0  0  0
   28.6170   12.9448   29.8234 C   0  0  0  0  0  0  0  0  0  0  0  0
   29.1703   12.6478   28.5572 C   0  0  0  0  0  0  0  0  0  0  0  0
   28.5377   11.7162   27.6946 C   0  0  0  0  0  0  0  0  0  0  0  0
   26.6734   11.5848   29.2904 C   0  0  0  0  0  0  0  0  0  0  0  0
   27.2321   11.2414   28.0298 C   0  0  0  0  0  0  0  0  0  0  0  0
   26.4464   10.4528   27.1523 C   0  0  0  0  0  0  0  0  0  0  0  0
   25.1885    9.9846   27.5389 C   0  0  0  0  0  0  0  0  0  0  0  0
   24.6754   10.2985   28.7935 C   0  0  0  0  0  0  0  0  0  0  0  0
   25.4091   11.0995   29.6644 C   0  0  0  0  0  0  0  0  0  0  0  0
   29.2664   11.3008   26.4141 C   0  0  0  0  0  0  0  0  0  0  0  0
   30.6941   10.8286   26.6794 C   0  0  0  0  0  0  0  0  0  0  0  0
   33.3521   10.0434   27.2049 C   0  0  0  0  0  0  0  0  0  0  0  0
   33.1115   11.2164   26.4812 C   0  0  0  0  0  0  0  0  0  0  0  0
   31.7813   11.5882   26.1789 C   0  0  0  0  0  0  0  0  0  0  0  0
   32.2969    9.2497   27.6607 C   0  0  0  0  0  0  0  0  0  0  0  0
   30.9554    9.6309   27.4032 C   0  0  0  0  0  0  0  0  0  0  0  0
   29.9195    8.7881   27.8680 C   0  0  0  0  0  0  0  0  0  0  0  0
   30.2100    7.6244   28.5831 C   0  0  0  0  0  0  0  0  0  0  0  0
   31.5319    7.2712   28.8429 C   0  0  0  0  0  0  0  0  0  0  0  0
   32.5725    8.0765   28.3830 C   0  0  0  0  0  0  0  0  0  0  0  0
   30.3278   13.2949   28.1129 O   0  0  0  0  0  0  0  0  0  0  0  0
   29.3225   13.7766   30.8237 C   0  0  0  0  0  0  0  0  0  0  0  0
   28.5933   14.5786   31.6978 O   0  0  0  0  0  0  0  0  0  0  0  0
   30.5771   13.7256   30.9324 O   0  0  0  0  0  0  0  0  0  0  0  0
   31.5130   12.6918   25.3616 O   0  0  0  0  0  0  0  0  0  0  0  0
   34.2693   12.0545   26.0994 C   0  0  0  0  0  0  0  0  0  0  0  0
   34.1894   13.4427   26.1669 O   0  0  0  0  0  0  0  0  0  0  0  0
   35.3571   11.5127   25.7635 O   0  0  0  0  0  0  0  0  0  0  0  0
   26.9489   12.6373   31.1433 H   0  0  0  0  0  0  0  0  0  0  0  0
   26.7557   10.2037   26.1520 H   0  0  0  0  0  0  0  0  0  0  0  0
   24.6045    9.3805   26.8562 H   0  0  0  0  0  0  0  0  0  0  0  0
   23.6998    9.9322   29.0863 H   0  0  0  0  0  0  0  0  0  0  0  0
   24.9838   11.3474   30.6299 H   0  0  0  0  0  0  0  0  0  0  0  0
   29.2287   12.1633   25.7181 H   0  0  0  0  0  0  0  0  0  0  0  0
   28.7814   10.4775   25.8657 H   0  0  0  0  0  0  0  0  0  0  0  0
   34.3730    9.7563   27.4338 H   0  0  0  0  0  0  0  0  0  0  0  0
   28.8804    9.0038   27.6778 H   0  0  0  0  0  0  0  0  0  0  0  0
   29.4047    6.9915   28.9337 H   0  0  0  0  0  0  0  0  0  0  0  0
   31.7512    6.3679   29.3975 H   0  0  0  0  0  0  0  0  0  0  0  0
   33.5944    7.7811   28.5902 H   0  0  0  0  0  0  0  0  0  0  0  0
   30.7339   14.0988   28.5718 H   0  0  0  0  0  0  0  0  0  0  0  0
   29.0594   15.1373   32.4026 H   0  0  0  0  0  0  0  0  0  0  0  0
   32.2182   13.1709   24.8183 H   0  0  0  0  0  0  0  0  0  0  0  0
   34.9847   14.0219   25.9259 H   0  0  0  0  0  0  0  0  0  0  0  0
  1  5  2  0
  2  3  2  0
  3  4  1  0
  4  6  2  0
  5  6  1  0
  5 10  1  0
  6  7  1  0
  7  8  2  0
  8  9  1  0
  9 10  2  0
  4 11  1  0
 11 12  1  0
 12 17  2  0
 12 15  1  0
 16 13  2  0
 13 14  1  0
 14 15  2  0
 16 17  1  0
 16 21  1  0
 17 18  1  0
 18 19  2  0
 19 20  1  0
 20 21  2  0
  3 22  1  0
  2 23  1  0
 23 24  1  0
 23 25  2  0
 15 26  1  0
 14 27  1  0
  1  2  1  0
 27 28  1  0
 27 29  2  0
  1 30  1  0
  7 31  1  0
  8 32  1  0
  9 33  1  0
 10 34  1  0
 11 35  1  0
 11 36  1  0
 13 37  1  0
 18 38  1  0
 19 39  1  0
 20 40  1  0
 21 41  1  0
 22 42  1  0
 24 43  1  0
 26 44  1  0
 28 45  1  0
M  END
> <Uni-Dock RESULT> 
ENERGY=   -3.776  LOWER_BOUND=    5.135  UPPER_BOUND=    7.991
INTER + INTRA:          -3.776
INTER:                  -3.776
INTRA:                   0.000
UNBOUND:                 0.000

$$$$

     RDKit          3D

 45 48  0  0  0  0  0  0  0  0999 V2000
   33.0211   13.2528   28.8846 C   0  0  0  0  0  0  0  0  0  0  0  0
   31.8525   12.9067   29.5663 C   0  0  0  0  0  0  0  0  0  0  0  0
   31.1424   11.7465   29.1823 C   0  0  0  0  0  0  0  0  0  0  0  0
   31.5356   11.0065   28.0379 C   0  0  0  0  0  0  0  0  0  0  0  0
   33.4976   12.4717   27.8299 C   0  0  0  0  0  0  0  0  0  0  0  0
   32.7754   11.3250   27.4024 C   0  0  0  0  0  0  0  0  0  0  0  0
   33.3403   10.5365   26.3688 C   0  0  0  0  0  0  0  0  0  0  0  0
   34.5391   10.9078   25.7555 C   0  0  0  0  0  0  0  0  0  0  0  0
   35.2112   12.0565   26.1612 C   0  0  0  0  0  0  0  0  0  0  0  0
   34.6988   12.8329   27.1970 C   0  0  0  0  0  0  0  0  0  0  0  0
   30.6330    9.8635   27.5663 C   0  0  0  0  0  0  0  0  0  0  0  0
   29.1801   10.2989   27.3904 C   0  0  0  0  0  0  0  0  0  0  0  0
   26.4928   11.1252   27.1587 C   0  0  0  0  0  0  0  0  0  0  0  0
   26.8466   10.2051   28.1517 C   0  0  0  0  0  0  0  0  0  0  0  0
   28.1844    9.7563   28.2411 C   0  0  0  0  0  0  0  0  0  0  0  0
   27.4475   11.6314   26.2736 C   0  0  0  0  0  0  0  0  0  0  0  0
   28.8020   11.2245   26.3769 C   0  0  0  0  0  0  0  0  0  0  0  0
   29.7307   11.7490   25.4486 C   0  0  0  0  0  0  0  0  0  0  0  0
   29.3286   12.6625   24.4719 C   0  0  0  0  0  0  0  0  0  0  0  0
   27.9979   13.0658   24.3928 C   0  0  0  0  0  0  0  0  0  0  0  0
   27.0590   12.5525   25.2863 C   0  0  0  0  0  0  0  0  0  0  0  0
   30.0651   11.2825   29.9440 O   0  0  0  0  0  0  0  0  0  0  0  0
   31.3848   13.8035   30.6467 C   0  0  0  0  0  0  0  0  0  0  0  0
   32.3106   14.4834   31.4338 O   0  0  0  0  0  0  0  0  0  0  0  0
   30.1537   14.0043   30.8278 O   0  0  0  0  0  0  0  0  0  0  0  0
   28.5456    8.7536   29.1477 O   0  0  0  0  0  0  0  0  0  0  0  0
   25.8051    9.7714   29.1087 C   0  0  0  0  0  0  0  0  0  0  0  0
   26.1095    9.6059   30.4570 O   0  0  0  0  0  0  0  0  0  0  0  0
   24.6186    9.6032   28.7168 O   0  0  0  0  0  0  0  0  0  0  0  0
   33.5677   14.1424   29.1791 H   0  0  0  0  0  0  0  0  0  0  0  0
   32.9028    9.6136   26.0294 H   0  0  0  0  0  0  0  0  0  0  0  0
   34.9534   10.2946   24.9653 H   0  0  0  0  0  0  0  0  0  0  0  0
   36.1398   12.3380   25.6815 H   0  0  0  0  0  0  0  0  0  0  0  0
   35.2470   13.7138   27.5101 H   0  0  0  0  0  0  0  0  0  0  0  0
   30.7409    9.0352   28.2957 H   0  0  0  0  0  0  0  0  0  0  0  0
   30.9279    9.4251   26.5997 H   0  0  0  0  0  0  0  0  0  0  0  0
   25.4655   11.4668   27.0880 H   0  0  0  0  0  0  0  0  0  0  0  0
   30.7683   11.4559   25.4525 H   0  0  0  0  0  0  0  0  0  0  0  0
   30.0530   13.0559   23.7704 H   0  0  0  0  0  0  0  0  0  0  0  0
   27.6918   13.7739   23.6337 H   0  0  0  0  0  0  0  0  0  0  0  0
   26.0274   12.8742   25.2043 H   0  0  0  0  0  0  0  0  0  0  0  0
   29.8362   11.6306   30.8650 H   0  0  0  0  0  0  0  0  0  0  0  0
   32.0072   15.1177   32.1631 H   0  0  0  0  0  0  0  0  0  0  0  0
   27.8770    8.1887   29.6535 H   0  0  0  0  0  0  0  0  0  0  0  0
   25.3967    9.3283   31.1210 H   0  0  0  0  0  0  0  0  0  0  0  0
  1  5  2  0
  2  3  2  0
  3  4  1  0
  4  6  2  0
  5  6  1  0
  5 10  1  0
  6  7  1  0
  7  8  2  0
  8  9  1  0
  9 10  2  0
  4 11  1  0
 11 12  1  0
 12 17  2  0
 12 15  1  0
 16 13  2  0
 13 14  1  0
 14 15  2  0
 16 17  1  0
 16 21  1  0
 17 18  1  0
 18 19  2  0
 19 20  1  0
 20 21  2  0
  3 22  1  0
  2 23  1  0
 23 24  1  0
 23 25  2  0
 15 26  1  0
 14 27  1  0
  1  2  1  0
 27 28  1  0
 27 29  2  0
  1 30  1  0
  7 31  1  0
  8 32  1  0
  9 33  1  0
 10 34  1  0
 11 35  1  0
 11 36  1  0
 13 37  1  0
 18 38  1  0
 19 39  1  0
 20 40  1  0
 21 41  1  0
 22 42  1  0
 24 43  1  0
 26 44  1  0
 28 45  1  0
M  END
> <Uni-Dock RESULT> 
ENERGY=   -3.769  LOWER_BOUND=    4.686  UPPER_BOUND=    9.441
INTER + INTRA:          -3.769
INTER:                  -3.769
INTRA:                   0.000
UNBOUND:                 0.000

$$$$
