
     RDKit          3D

 27 29  0  0  0  0  0  0  0  0999 V2000
    0.7861   -1.1086    0.7345 C   0  0  0  0  0  0  0  0  0  0  0  0
    0.5971    1.2458    0.4476 C   0  0  0  0  0  0  0  0  0  0  0  0
   -0.1304    0.0595    1.0712 C   0  0  0  0  0  0  0  0  0  0  0  0
    1.9223   -0.6090   -0.0381 C   0  0  0  0  0  0  0  0  0  0  0  0
    1.8105    0.7620   -0.2077 C   0  0  0  0  0  0  0  0  0  0  0  0
    0.6529   -2.2815    1.0373 O   0  0  0  0  0  0  0  0  0  0  0  0
    0.2824    2.4227    0.4813 O   0  0  0  0  0  0  0  0  0  0  0  0
   -1.5652   -0.0598    0.5981 C   0  0  0  0  0  0  0  0  0  0  0  0
    2.9881   -1.3211   -0.5580 C   0  0  0  0  0  0  0  0  0  0  0  0
    2.7594    1.4878   -0.9048 C   0  0  0  0  0  0  0  0  0  0  0  0
   -2.0003   -1.0513   -0.2944 C   0  0  0  0  0  0  0  0  0  0  0  0
   -2.5075    0.8764    1.0597 C   0  0  0  0  0  0  0  0  0  0  0  0
    3.9580   -0.6064   -1.2673 C   0  0  0  0  0  0  0  0  0  0  0  0
    3.8445    0.7870   -1.4394 C   0  0  0  0  0  0  0  0  0  0  0  0
   -3.3351   -1.1068   -0.7057 C   0  0  0  0  0  0  0  0  0  0  0  0
   -3.8397    0.8212    0.6460 C   0  0  0  0  0  0  0  0  0  0  0  0
   -4.2537   -0.1717   -0.2364 C   0  0  0  0  0  0  0  0  0  0  0  0
   -0.0984    0.1787    2.1619 H   0  0  0  0  0  0  0  0  0  0  0  0
    3.0663   -2.3953   -0.4192 H   0  0  0  0  0  0  0  0  0  0  0  0
    2.6621    2.5621   -1.0312 H   0  0  0  0  0  0  0  0  0  0  0  0
   -1.3196   -1.8073   -0.6799 H   0  0  0  0  0  0  0  0  0  0  0  0
   -2.2040    1.6700    1.7416 H   0  0  0  0  0  0  0  0  0  0  0  0
    4.8119   -1.1315   -1.6924 H   0  0  0  0  0  0  0  0  0  0  0  0
    4.6118    1.3232   -1.9956 H   0  0  0  0  0  0  0  0  0  0  0  0
   -3.6576   -1.8856   -1.3923 H   0  0  0  0  0  0  0  0  0  0  0  0
   -4.5517    1.5567    1.0113 H   0  0  0  0  0  0  0  0  0  0  0  0
   -5.2905   -0.2170   -0.5584 H   0  0  0  0  0  0  0  0  0  0  0  0
  2  3  1  0
  3  1  1  0
  4  1  1  0
  5  4  2  0
  6  1  2  0
  7  2  2  0
  8  3  1  0
  9  4  1  0
 10  5  1  0
 11  8  2  0
 12  8  1  0
 13  9  2  0
 14 13  1  0
 15 11  1  0
 16 12  2  0
 17 16  1  0
  5  2  1  0
 14 10  2  0
 17 15  2  0
  3 18  1  0
  9 19  1  0
 10 20  1  0
 11 21  1  0
 12 22  1  0
 13 23  1  0
 14 24  1  0
 15 25  1  0
 16 26  1  0
 17 27  1  0
M  END
$$$$
