
     RDKit          3D

 27 29  0  0  0  0  0  0  0  0999 V2000
    0.6406    0.5749   -1.4929 C   0  0  0  0  0  0  0  0  0  0  0  0
    0.5951   -1.3567   -0.1043 C   0  0  0  0  0  0  0  0  0  0  0  0
   -0.2501   -0.6044   -1.1266 C   0  0  0  0  0  0  0  0  0  0  0  0
    1.8748    0.4935   -0.7135 C   0  0  0  0  0  0  0  0  0  0  0  0
    1.8469   -0.6300    0.0975 C   0  0  0  0  0  0  0  0  0  0  0  0
    0.4204    1.4629   -2.2978 O   0  0  0  0  0  0  0  0  0  0  0  0
    0.3348   -2.4047    0.4608 O   0  0  0  0  0  0  0  0  0  0  0  0
   -1.6305   -0.2613   -0.6038 C   0  0  0  0  0  0  0  0  0  0  0  0
    2.9548    1.3578   -0.7210 C   0  0  0  0  0  0  0  0  0  0  0  0
    2.8978   -0.9445    0.9400 C   0  0  0  0  0  0  0  0  0  0  0  0
   -2.5710   -1.2959   -0.4534 C   0  0  0  0  0  0  0  0  0  0  0  0
   -2.0150    1.0395   -0.2445 C   0  0  0  0  0  0  0  0  0  0  0  0
    4.0274    1.0587    0.1244 C   0  0  0  0  0  0  0  0  0  0  0  0
    3.9991   -0.0833    0.9484 C   0  0  0  0  0  0  0  0  0  0  0  0
   -3.8528   -1.0383    0.0360 C   0  0  0  0  0  0  0  0  0  0  0  0
   -3.2996    1.2962    0.2430 C   0  0  0  0  0  0  0  0  0  0  0  0
   -4.2174    0.2587    0.3834 C   0  0  0  0  0  0  0  0  0  0  0  0
   -0.3285   -1.2290   -2.0257 H   0  0  0  0  0  0  0  0  0  0  0  0
    2.9668    2.2353   -1.3606 H   0  0  0  0  0  0  0  0  0  0  0  0
    2.8656   -1.8279    1.5709 H   0  0  0  0  0  0  0  0  0  0  0  0
   -2.3043   -2.3211   -0.7075 H   0  0  0  0  0  0  0  0  0  0  0  0
   -1.3338    1.8817   -0.3455 H   0  0  0  0  0  0  0  0  0  0  0  0
    4.8957    1.7152    0.1473 H   0  0  0  0  0  0  0  0  0  0  0  0
    4.8457   -0.2967    1.5990 H   0  0  0  0  0  0  0  0  0  0  0  0
   -4.5639   -1.8526    0.1485 H   0  0  0  0  0  0  0  0  0  0  0  0
   -3.5839    2.3109    0.5104 H   0  0  0  0  0  0  0  0  0  0  0  0
   -5.2151    0.4611    0.7633 H   0  0  0  0  0  0  0  0  0  0  0  0
  2  3  1  0
  3  1  1  0
  4  1  1  0
  5  4  2  0
  6  1  2  0
  7  2  2  0
  8  3  1  0
  9  4  1  0
 10  5  1  0
 11  8  2  0
 12  8  1  0
 13  9  2  0
 14 13  1  0
 15 11  1  0
 16 12  2  0
 17 16  1  0
  5  2  1  0
 14 10  2  0
 17 15  2  0
  3 18  1  0
  9 19  1  0
 10 20  1  0
 11 21  1  0
 12 22  1  0
 13 23  1  0
 14 24  1  0
 15 25  1  0
 16 26  1  0
 17 27  1  0
M  END
$$$$
