
     RDKit          3D

 27 29  0  0  0  0  0  0  0  0999 V2000
    0.7691   -1.3911    0.1252 C   0  0  0  0  0  0  0  0  0  0  0  0
    0.4621    0.5789   -1.1734 C   0  0  0  0  0  0  0  0  0  0  0  0
   -0.2476   -0.7133   -0.7831 C   0  0  0  0  0  0  0  0  0  0  0  0
    1.9422   -0.5273    0.2471 C   0  0  0  0  0  0  0  0  0  0  0  0
    1.7620    0.6216   -0.5068 C   0  0  0  0  0  0  0  0  0  0  0  0
    0.6804   -2.4733    0.6785 O   0  0  0  0  0  0  0  0  0  0  0  0
    0.0725    1.4514   -1.9298 O   0  0  0  0  0  0  0  0  0  0  0  0
   -1.6185   -0.4688   -0.1852 C   0  0  0  0  0  0  0  0  0  0  0  0
    3.0965   -0.7432    0.9781 C   0  0  0  0  0  0  0  0  0  0  0  0
    2.7275    1.6101   -0.5673 C   0  0  0  0  0  0  0  0  0  0  0  0
   -2.6585   -0.0476   -1.0329 C   0  0  0  0  0  0  0  0  0  0  0  0
   -1.9007   -0.6258    1.1803 C   0  0  0  0  0  0  0  0  0  0  0  0
    4.0849    0.2445    0.9316 C   0  0  0  0  0  0  0  0  0  0  0  0
    3.9018    1.4119    0.1650 C   0  0  0  0  0  0  0  0  0  0  0  0
   -3.9374    0.2045   -0.5331 C   0  0  0  0  0  0  0  0  0  0  0  0
   -3.1823   -0.3754    1.6787 C   0  0  0  0  0  0  0  0  0  0  0  0
   -4.1995    0.0395    0.8233 C   0  0  0  0  0  0  0  0  0  0  0  0
   -0.3306   -1.3380   -1.6817 H   0  0  0  0  0  0  0  0  0  0  0  0
    3.2279   -1.6471    1.5655 H   0  0  0  0  0  0  0  0  0  0  0  0
    2.5760    2.5062   -1.1619 H   0  0  0  0  0  0  0  0  0  0  0  0
   -2.4739    0.1001   -2.0963 H   0  0  0  0  0  0  0  0  0  0  0  0
   -1.1392   -0.9562    1.8836 H   0  0  0  0  0  0  0  0  0  0  0  0
    5.0077    0.1114    1.4940 H   0  0  0  0  0  0  0  0  0  0  0  0
    4.6850    2.1681    0.1436 H   0  0  0  0  0  0  0  0  0  0  0  0
   -4.7266    0.5332   -1.2043 H   0  0  0  0  0  0  0  0  0  0  0  0
   -3.3862   -0.5085    2.7383 H   0  0  0  0  0  0  0  0  0  0  0  0
   -5.1947    0.2341    1.2137 H   0  0  0  0  0  0  0  0  0  0  0  0
  2  3  1  0
  3  1  1  0
  4  1  1  0
  5  4  2  0
  6  1  2  0
  7  2  2  0
  8  3  1  0
  9  4  1  0
 10  5  1  0
 11  8  2  0
 12  8  1  0
 13  9  2  0
 14 13  1  0
 15 11  1  0
 16 12  2  0
 17 16  1  0
  5  2  1  0
 14 10  2  0
 17 15  2  0
  3 18  1  0
  9 19  1  0
 10 20  1  0
 11 21  1  0
 12 22  1  0
 13 23  1  0
 14 24  1  0
 15 25  1  0
 16 26  1  0
 17 27  1  0
M  END
$$$$
