
     RDKit          3D

 27 29  0  0  0  0  0  0  0  0999 V2000
    0.6446   -0.3708   -1.2824 C   0  0  0  0  0  0  0  0  0  0  0  0
    0.4841   -1.1794    0.9496 C   0  0  0  0  0  0  0  0  0  0  0  0
   -0.3238   -1.0728   -0.3365 C   0  0  0  0  0  0  0  0  0  0  0  0
    1.8840   -0.0873   -0.5617 C   0  0  0  0  0  0  0  0  0  0  0  0
    1.7917   -0.5609    0.7375 C   0  0  0  0  0  0  0  0  0  0  0  0
    0.4787   -0.0922   -2.4572 O   0  0  0  0  0  0  0  0  0  0  0  0
    0.1540   -1.6899    2.0057 O   0  0  0  0  0  0  0  0  0  0  0  0
   -1.6567   -0.3594   -0.2304 C   0  0  0  0  0  0  0  0  0  0  0  0
    3.0238    0.5439   -1.0260 C   0  0  0  0  0  0  0  0  0  0  0  0
    2.8346   -0.4257    1.6361 C   0  0  0  0  0  0  0  0  0  0  0  0
   -2.0490    0.3723    0.9008 C   0  0  0  0  0  0  0  0  0  0  0  0
   -2.5407   -0.4161   -1.3226 C   0  0  0  0  0  0  0  0  0  0  0  0
    4.0896    0.6916   -0.1333 C   0  0  0  0  0  0  0  0  0  0  0  0
    3.9957    0.2105    1.1872 C   0  0  0  0  0  0  0  0  0  0  0  0
   -3.2870    1.0201    0.9391 C   0  0  0  0  0  0  0  0  0  0  0  0
   -3.7758    0.2335   -1.2838 C   0  0  0  0  0  0  0  0  0  0  0  0
   -4.1494    0.9511   -0.1518 C   0  0  0  0  0  0  0  0  0  0  0  0
   -0.4693   -2.0978   -0.7011 H   0  0  0  0  0  0  0  0  0  0  0  0
    3.0855    0.9107   -2.0463 H   0  0  0  0  0  0  0  0  0  0  0  0
    2.7521   -0.8007    2.6520 H   0  0  0  0  0  0  0  0  0  0  0  0
   -1.4111    0.4463    1.7790 H   0  0  0  0  0  0  0  0  0  0  0  0
   -2.2647   -0.9618   -2.2242 H   0  0  0  0  0  0  0  0  0  0  0  0
    5.0036    1.1841   -0.4613 H   0  0  0  0  0  0  0  0  0  0  0  0
    4.8385    0.3365    1.8651 H   0  0  0  0  0  0  0  0  0  0  0  0
   -3.5788    1.5772    1.8259 H   0  0  0  0  0  0  0  0  0  0  0  0
   -4.4432    0.1808   -2.1400 H   0  0  0  0  0  0  0  0  0  0  0  0
   -5.1109    1.4562   -0.1194 H   0  0  0  0  0  0  0  0  0  0  0  0
  2  3  1  0
  3  1  1  0
  4  1  1  0
  5  4  2  0
  6  1  2  0
  7  2  2  0
  8  3  1  0
  9  4  1  0
 10  5  1  0
 11  8  2  0
 12  8  1  0
 13  9  2  0
 14 13  1  0
 15 11  1  0
 16 12  2  0
 17 16  1  0
  5  2  1  0
 14 10  2  0
 17 15  2  0
  3 18  1  0
  9 19  1  0
 10 20  1  0
 11 21  1  0
 12 22  1  0
 13 23  1  0
 14 24  1  0
 15 25  1  0
 16 26  1  0
 17 27  1  0
M  END
$$$$
