
     RDKit          3D

 27 29  0  0  0  0  0  0  0  0999 V2000
    0.5136    1.1865   -0.8484 C   0  0  0  0  0  0  0  0  0  0  0  0
    0.6680   -1.1684   -0.5452 C   0  0  0  0  0  0  0  0  0  0  0  0
   -0.2856   -0.0929   -1.0545 C   0  0  0  0  0  0  0  0  0  0  0  0
    1.8023    0.8458   -0.2479 C   0  0  0  0  0  0  0  0  0  0  0  0
    1.8909   -0.5256   -0.0685 C   0  0  0  0  0  0  0  0  0  0  0  0
    0.1908    2.3285   -1.1253 O   0  0  0  0  0  0  0  0  0  0  0  0
    0.5037   -2.3760   -0.5374 O   0  0  0  0  0  0  0  0  0  0  0  0
   -1.6419   -0.1485   -0.3807 C   0  0  0  0  0  0  0  0  0  0  0  0
    2.8320    1.6945    0.1166 C   0  0  0  0  0  0  0  0  0  0  0  0
    3.0137   -1.1153    0.4834 C   0  0  0  0  0  0  0  0  0  0  0  0
   -2.0681    0.7934    0.5681 C   0  0  0  0  0  0  0  0  0  0  0  0
   -2.5137   -1.2030   -0.7059 C   0  0  0  0  0  0  0  0  0  0  0  0
    3.9758    1.1186    0.6776 C   0  0  0  0  0  0  0  0  0  0  0  0
    4.0659   -0.2752    0.8596 C   0  0  0  0  0  0  0  0  0  0  0  0
   -3.3270    0.6862    1.1661 C   0  0  0  0  0  0  0  0  0  0  0  0
   -3.7696   -1.3101   -0.1059 C   0  0  0  0  0  0  0  0  0  0  0  0
   -4.1766   -0.3643    0.8299 C   0  0  0  0  0  0  0  0  0  0  0  0
   -0.3942   -0.2234   -2.1389 H   0  0  0  0  0  0  0  0  0  0  0  0
    2.7526    2.7678   -0.0284 H   0  0  0  0  0  0  0  0  0  0  0  0
    3.0726   -2.1912    0.6189 H   0  0  0  0  0  0  0  0  0  0  0  0
   -1.4410    1.6349    0.8547 H   0  0  0  0  0  0  0  0  0  0  0  0
   -2.2119   -1.9620   -1.4268 H   0  0  0  0  0  0  0  0  0  0  0  0
    4.8078    1.7536    0.9779 H   0  0  0  0  0  0  0  0  0  0  0  0
    4.9663   -0.7020    1.2986 H   0  0  0  0  0  0  0  0  0  0  0  0
   -3.6448    1.4282    1.8943 H   0  0  0  0  0  0  0  0  0  0  0  0
   -4.4271   -2.1349   -0.3680 H   0  0  0  0  0  0  0  0  0  0  0  0
   -5.1544   -0.4454    1.2970 H   0  0  0  0  0  0  0  0  0  0  0  0
  2  3  1  0
  3  1  1  0
  4  1  1  0
  5  4  2  0
  6  1  2  0
  7  2  2  0
  8  3  1  0
  9  4  1  0
 10  5  1  0
 11  8  2  0
 12  8  1  0
 13  9  2  0
 14 13  1  0
 15 11  1  0
 16 12  2  0
 17 16  1  0
  5  2  1  0
 14 10  2  0
 17 15  2  0
  3 18  1  0
  9 19  1  0
 10 20  1  0
 11 21  1  0
 12 22  1  0
 13 23  1  0
 14 24  1  0
 15 25  1  0
 16 26  1  0
 17 27  1  0
M  END
$$$$
