
     RDKit          3D

 27 29  0  0  0  0  0  0  0  0999 V2000
   -0.5887   -1.3541   -0.0146 C   0  0  0  0  0  0  0  0  0  0  0  0
   -0.6326    0.7430    1.1085 C   0  0  0  0  0  0  0  0  0  0  0  0
    0.2609   -0.4707    0.8926 C   0  0  0  0  0  0  0  0  0  0  0  0
   -1.8458   -0.6651   -0.2994 C   0  0  0  0  0  0  0  0  0  0  0  0
   -1.8727    0.5551    0.3573 C   0  0  0  0  0  0  0  0  0  0  0  0
   -0.3278   -2.4662   -0.4394 O   0  0  0  0  0  0  0  0  0  0  0  0
   -0.4104    1.7300    1.7878 O   0  0  0  0  0  0  0  0  0  0  0  0
    1.6353   -0.1939    0.3173 C   0  0  0  0  0  0  0  0  0  0  0  0
   -2.9019   -1.0917   -1.0840 C   0  0  0  0  0  0  0  0  0  0  0  0
   -2.9569    1.4087    0.2605 C   0  0  0  0  0  0  0  0  0  0  0  0
    2.5797   -1.2356    0.2961 C   0  0  0  0  0  0  0  0  0  0  0  0
    2.0104    1.0499   -0.2130 C   0  0  0  0  0  0  0  0  0  0  0  0
   -4.0075   -0.2433   -1.1960 C   0  0  0  0  0  0  0  0  0  0  0  0
   -4.0348    0.9970   -0.5289 C   0  0  0  0  0  0  0  0  0  0  0  0
    3.8563   -1.0396   -0.2339 C   0  0  0  0  0  0  0  0  0  0  0  0
    3.2898    1.2452   -0.7411 C   0  0  0  0  0  0  0  0  0  0  0  0
    4.2116    0.2019   -0.7519 C   0  0  0  0  0  0  0  0  0  0  0  0
    0.3497   -0.9715    1.8653 H   0  0  0  0  0  0  0  0  0  0  0  0
   -2.8703   -2.0501   -1.5937 H   0  0  0  0  0  0  0  0  0  0  0  0
   -2.9681    2.3627    0.7793 H   0  0  0  0  0  0  0  0  0  0  0  0
    2.3202   -2.2196    0.6850 H   0  0  0  0  0  0  0  0  0  0  0  0
    1.3259    1.8954   -0.2177 H   0  0  0  0  0  0  0  0  0  0  0  0
   -4.8582   -0.5436   -1.8056 H   0  0  0  0  0  0  0  0  0  0  0  0
   -4.9066    1.6414   -0.6304 H   0  0  0  0  0  0  0  0  0  0  0  0
    4.5705   -1.8589   -0.2446 H   0  0  0  0  0  0  0  0  0  0  0  0
    3.5669    2.2171   -1.1419 H   0  0  0  0  0  0  0  0  0  0  0  0
    5.2052    0.3565   -1.1636 H   0  0  0  0  0  0  0  0  0  0  0  0
  2  3  1  0
  3  1  1  0
  4  1  1  0
  5  4  2  0
  6  1  2  0
  7  2  2  0
  8  3  1  0
  9  4  1  0
 10  5  1  0
 11  8  2  0
 12  8  1  0
 13  9  2  0
 14 13  1  0
 15 11  1  0
 16 12  2  0
 17 16  1  0
  5  2  1  0
 14 10  2  0
 17 15  2  0
  3 18  1  0
  9 19  1  0
 10 20  1  0
 11 21  1  0
 12 22  1  0
 13 23  1  0
 14 24  1  0
 15 25  1  0
 16 26  1  0
 17 27  1  0
M  END
$$$$
