
     RDKit          2D

 17 19  0  0  0  0  0  0  0  0999 V2000
    5.3917   -5.6750    0.0000 C   0  0  0  0  0  0  0  0  0  0  0  0
    5.3917   -6.8167    0.0000 C   0  0  0  0  0  0  0  0  0  0  0  0
    4.9792   -6.2500    0.0000 C   0  0  0  0  0  0  0  0  0  0  0  0
    6.0667   -5.8917    0.0000 C   0  0  0  0  0  0  0  0  0  0  0  0
    6.0667   -6.5917    0.0000 C   0  0  0  0  0  0  0  0  0  0  0  0
    5.1667   -5.0000    0.0000 O   0  0  0  0  0  0  0  0  0  0  0  0
    5.1667   -7.4917    0.0000 O   0  0  0  0  0  0  0  0  0  0  0  0
    4.2667   -6.2500    0.0000 C   0  0  0  0  0  0  0  0  0  0  0  0
    6.6875   -5.5375    0.0000 C   0  0  0  0  0  0  0  0  0  0  0  0
    6.6875   -6.9542    0.0000 C   0  0  0  0  0  0  0  0  0  0  0  0
    3.9167   -5.6292    0.0000 C   0  0  0  0  0  0  0  0  0  0  0  0
    3.9167   -6.8542    0.0000 C   0  0  0  0  0  0  0  0  0  0  0  0
    7.3042   -5.8917    0.0000 C   0  0  0  0  0  0  0  0  0  0  0  0
    7.3042   -6.5917    0.0000 C   0  0  0  0  0  0  0  0  0  0  0  0
    3.2000   -5.6292    0.0000 C   0  0  0  0  0  0  0  0  0  0  0  0
    3.2000   -6.8542    0.0000 C   0  0  0  0  0  0  0  0  0  0  0  0
    2.8417   -6.2500    0.0000 C   0  0  0  0  0  0  0  0  0  0  0  0
  2  3  1  0
  3  1  1  0
  4  1  1  0
  5  4  2  0
  6  1  2  0
  7  2  2  0
  8  3  1  0
  9  4  1  0
 10  5  1  0
 11  8  2  0
 12  8  1  0
 13  9  2  0
 14 13  1  0
 15 11  1  0
 16 12  2  0
 17 16  1  0
  5  2  1  0
 14 10  2  0
 17 15  2  0
M  END
> <chembl_id>
CHEMBL711

> <chembl_pref_name>
PHENINDIONE
