
     RDKit          3D

 27 29  0  0  0  0  0  0  0  0999 V2000
   -0.8142   -0.3200    1.1968 C   0  0  0  0  0  0  0  0  0  0  0  0
   -0.1944   -1.3130   -0.8747 C   0  0  0  0  0  0  0  0  0  0  0  0
    0.3669   -0.9905    0.5033 C   0  0  0  0  0  0  0  0  0  0  0  0
   -1.9341   -0.2536    0.2600 C   0  0  0  0  0  0  0  0  0  0  0  0
   -1.5741   -0.8347   -0.9456 C   0  0  0  0  0  0  0  0  0  0  0  0
   -0.8803    0.0867    2.3437 O   0  0  0  0  0  0  0  0  0  0  0  0
    0.3607   -1.8796   -1.7998 O   0  0  0  0  0  0  0  0  0  0  0  0
    1.6203   -0.1392    0.5311 C   0  0  0  0  0  0  0  0  0  0  0  0
   -3.1937    0.2809    0.4618 C   0  0  0  0  0  0  0  0  0  0  0  0
   -2.4561   -0.9089   -2.0086 C   0  0  0  0  0  0  0  0  0  0  0  0
    2.3057    0.0124    1.7497 C   0  0  0  0  0  0  0  0  0  0  0  0
    2.1253    0.5225   -0.5986 C   0  0  0  0  0  0  0  0  0  0  0  0
   -4.1004    0.2170   -0.6004 C   0  0  0  0  0  0  0  0  0  0  0  0
   -3.7345   -0.3733   -1.8259 C   0  0  0  0  0  0  0  0  0  0  0  0
    3.4582    0.7956    1.8351 C   0  0  0  0  0  0  0  0  0  0  0  0
    3.2808    1.3043   -0.5119 C   0  0  0  0  0  0  0  0  0  0  0  0
    3.9463    1.4410    0.7033 C   0  0  0  0  0  0  0  0  0  0  0  0
    0.5493   -1.9520    1.0003 H   0  0  0  0  0  0  0  0  0  0  0  0
   -3.4653    0.7334    1.4109 H   0  0  0  0  0  0  0  0  0  0  0  0
   -2.1641   -1.3666   -2.9491 H   0  0  0  0  0  0  0  0  0  0  0  0
    1.9354   -0.4736    2.6516 H   0  0  0  0  0  0  0  0  0  0  0  0
    1.6430    0.4372   -1.5700 H   0  0  0  0  0  0  0  0  0  0  0  0
   -5.1015    0.6280   -0.4805 H   0  0  0  0  0  0  0  0  0  0  0  0
   -4.4572   -0.4121   -2.6394 H   0  0  0  0  0  0  0  0  0  0  0  0
    3.9711    0.9032    2.7873 H   0  0  0  0  0  0  0  0  0  0  0  0
    3.6629    1.8048   -1.3982 H   0  0  0  0  0  0  0  0  0  0  0  0
    4.8440    2.0500    0.7678 H   0  0  0  0  0  0  0  0  0  0  0  0
  2  3  1  0
  3  1  1  0
  4  1  1  0
  5  4  2  0
  6  1  2  0
  7  2  2  0
  8  3  1  0
  9  4  1  0
 10  5  1  0
 11  8  2  0
 12  8  1  0
 13  9  2  0
 14 13  1  0
 15 11  1  0
 16 12  2  0
 17 16  1  0
  5  2  1  0
 14 10  2  0
 17 15  2  0
  3 18  1  0
  9 19  1  0
 10 20  1  0
 11 21  1  0
 12 22  1  0
 13 23  1  0
 14 24  1  0
 15 25  1  0
 16 26  1  0
 17 27  1  0
M  END
$$$$
