
     RDKit          3D

 27 29  0  0  0  0  0  0  0  0999 V2000
    0.7004   -1.3011   -0.1094 C   0  0  0  0  0  0  0  0  0  0  0  0
    0.3645    0.6836   -1.3780 C   0  0  0  0  0  0  0  0  0  0  0  0
   -0.3581   -0.5826   -0.9394 C   0  0  0  0  0  0  0  0  0  0  0  0
    1.9073   -0.4777   -0.0713 C   0  0  0  0  0  0  0  0  0  0  0  0
    1.7128    0.6769   -0.8128 C   0  0  0  0  0  0  0  0  0  0  0  0
    0.6199   -2.3904    0.4312 O   0  0  0  0  0  0  0  0  0  0  0  0
   -0.0544    1.5822   -2.0867 O   0  0  0  0  0  0  0  0  0  0  0  0
   -1.6562   -0.3826   -0.1833 C   0  0  0  0  0  0  0  0  0  0  0  0
    3.1040   -0.7350    0.5726 C   0  0  0  0  0  0  0  0  0  0  0  0
    2.7054    1.6310   -0.9458 C   0  0  0  0  0  0  0  0  0  0  0  0
   -2.0773    0.8639    0.3047 C   0  0  0  0  0  0  0  0  0  0  0  0
   -2.4748   -1.5001    0.0586 C   0  0  0  0  0  0  0  0  0  0  0  0
    4.1205    0.2172    0.4516 C   0  0  0  0  0  0  0  0  0  0  0  0
    3.9228    1.3909   -0.3017 C   0  0  0  0  0  0  0  0  0  0  0  0
   -3.2803    0.9876    1.0057 C   0  0  0  0  0  0  0  0  0  0  0  0
   -3.6748   -1.3752    0.7611 C   0  0  0  0  0  0  0  0  0  0  0  0
   -4.0780   -0.1303    1.2339 C   0  0  0  0  0  0  0  0  0  0  0  0
   -0.5342   -1.1736   -1.8474 H   0  0  0  0  0  0  0  0  0  0  0  0
    3.2457   -1.6435    1.1505 H   0  0  0  0  0  0  0  0  0  0  0  0
    2.5428    2.5323   -1.5293 H   0  0  0  0  0  0  0  0  0  0  0  0
   -1.4904    1.7654    0.1424 H   0  0  0  0  0  0  0  0  0  0  0  0
   -2.1739   -2.4869   -0.2915 H   0  0  0  0  0  0  0  0  0  0  0  0
    5.0768    0.0509    0.9449 H   0  0  0  0  0  0  0  0  0  0  0  0
    4.7287    2.1186   -0.3822 H   0  0  0  0  0  0  0  0  0  0  0  0
   -3.5955    1.9618    1.3711 H   0  0  0  0  0  0  0  0  0  0  0  0
   -4.2913   -2.2521    0.9410 H   0  0  0  0  0  0  0  0  0  0  0  0
   -5.0123   -0.0312    1.7798 H   0  0  0  0  0  0  0  0  0  0  0  0
  2  3  1  0
  3  1  1  0
  4  1  1  0
  5  4  2  0
  6  1  2  0
  7  2  2  0
  8  3  1  0
  9  4  1  0
 10  5  1  0
 11  8  2  0
 12  8  1  0
 13  9  2  0
 14 13  1  0
 15 11  1  0
 16 12  2  0
 17 16  1  0
  5  2  1  0
 14 10  2  0
 17 15  2  0
  3 18  1  0
  9 19  1  0
 10 20  1  0
 11 21  1  0
 12 22  1  0
 13 23  1  0
 14 24  1  0
 15 25  1  0
 16 26  1  0
 17 27  1  0
M  END
$$$$
