
     RDKit          3D

 27 29  0  0  0  0  0  0  0  0999 V2000
   -0.3004   -0.4893   -1.3635 C   0  0  0  0  0  0  0  0  0  0  0  0
   -0.7033   -1.0950    0.9019 C   0  0  0  0  0  0  0  0  0  0  0  0
    0.4015   -1.0803   -0.1455 C   0  0  0  0  0  0  0  0  0  0  0  0
   -1.6820   -0.1762   -1.0045 C   0  0  0  0  0  0  0  0  0  0  0  0
   -1.9177   -0.5319    0.3142 C   0  0  0  0  0  0  0  0  0  0  0  0
    0.1546   -0.3103   -2.4799 O   0  0  0  0  0  0  0  0  0  0  0  0
   -0.6476   -1.5024    2.0491 O   0  0  0  0  0  0  0  0  0  0  0  0
    1.6626   -0.3259    0.2249 C   0  0  0  0  0  0  0  0  0  0  0  0
   -2.6707    0.3819   -1.7945 C   0  0  0  0  0  0  0  0  0  0  0  0
   -3.1534   -0.3459    0.9073 C   0  0  0  0  0  0  0  0  0  0  0  0
    2.7929   -0.4549   -0.6017 C   0  0  0  0  0  0  0  0  0  0  0  0
    1.7556    0.5121    1.3466 C   0  0  0  0  0  0  0  0  0  0  0  0
   -3.9271    0.5792   -1.2140 C   0  0  0  0  0  0  0  0  0  0  0  0
   -4.1666    0.2181    0.1263 C   0  0  0  0  0  0  0  0  0  0  0  0
    3.9765    0.2276   -0.3148 C   0  0  0  0  0  0  0  0  0  0  0  0
    2.9422    1.1927    1.6339 C   0  0  0  0  0  0  0  0  0  0  0  0
    4.0512    1.0510    0.8043 C   0  0  0  0  0  0  0  0  0  0  0  0
    0.6373   -2.1292   -0.3671 H   0  0  0  0  0  0  0  0  0  0  0  0
   -2.4751    0.6563   -2.8269 H   0  0  0  0  0  0  0  0  0  0  0  0
   -3.3277   -0.6283    1.9413 H   0  0  0  0  0  0  0  0  0  0  0  0
    2.7542   -1.0844   -1.4900 H   0  0  0  0  0  0  0  0  0  0  0  0
    0.9172    0.6459    2.0269 H   0  0  0  0  0  0  0  0  0  0  0  0
   -4.7309    1.0171   -1.8036 H   0  0  0  0  0  0  0  0  0  0  0  0
   -5.1531    0.3808    0.5575 H   0  0  0  0  0  0  0  0  0  0  0  0
    4.8378    0.1175   -0.9685 H   0  0  0  0  0  0  0  0  0  0  0  0
    2.9998    1.8327    2.5108 H   0  0  0  0  0  0  0  0  0  0  0  0
    4.9721    1.5819    1.0297 H   0  0  0  0  0  0  0  0  0  0  0  0
  2  3  1  0
  3  1  1  0
  4  1  1  0
  5  4  2  0
  6  1  2  0
  7  2  2  0
  8  3  1  0
  9  4  1  0
 10  5  1  0
 11  8  2  0
 12  8  1  0
 13  9  2  0
 14 13  1  0
 15 11  1  0
 16 12  2  0
 17 16  1  0
  5  2  1  0
 14 10  2  0
 17 15  2  0
  3 18  1  0
  9 19  1  0
 10 20  1  0
 11 21  1  0
 12 22  1  0
 13 23  1  0
 14 24  1  0
 15 25  1  0
 16 26  1  0
 17 27  1  0
M  END
$$$$
