
     RDKit          3D

 28 27  0  0  0  0  0  0  0  0999 V2000
    0.6861    0.0000    0.0000 Cl  0  0  0  0  0  0  0  0  0  0  0  0
   -1.5898   -0.1524   -0.2189 C   0  0  0  0  0  0  0  0  0  0  0  0
   -0.4513   -0.9132   -0.8380 C   0  0  0  0  0  0  0  0  0  0  0  0
   -2.8283   -0.7824   -0.6683 N   0  0  0  0  0  0  0  0  0  0  0  0
    0.8951   -0.4103   -0.4897 C   0  0  0  0  0  0  0  0  0  0  0  0
   -1.6695    1.2751   -0.7614 C   0  0  0  0  0  0  0  0  0  0  0  0
   -1.5990   -0.1571    1.2754 C   0  0  0  0  0  0  0  0  0  0  0  0
    1.5122   -0.9479    0.6457 C   0  0  0  0  0  0  0  0  0  0  0  0
    1.5532    0.5560   -1.2349 C   0  0  0  0  0  0  0  0  0  0  0  0
    2.7718   -0.4846    0.9806 C   0  0  0  0  0  0  0  0  0  0  0  0
    2.7995    0.9881   -0.8701 C   0  0  0  0  0  0  0  0  0  0  0  0
    3.4331    0.4783    0.2420 C   0  0  0  0  0  0  0  0  0  0  0  0
   -0.6861    0.0000    0.0000 H   0  0  0  0  0  0  0  0  0  0  0  0
   -0.5525   -1.9672   -0.5050 H   0  0  0  0  0  0  0  0  0  0  0  0
   -0.6153   -0.9138   -1.9311 H   0  0  0  0  0  0  0  0  0  0  0  0
   -2.9371   -1.7470   -0.2854 H   0  0  0  0  0  0  0  0  0  0  0  0
   -3.6577   -0.1777   -0.4773 H   0  0  0  0  0  0  0  0  0  0  0  0
   -2.7219    1.6370   -0.8003 H   0  0  0  0  0  0  0  0  0  0  0  0
   -1.3107    1.3229   -1.8061 H   0  0  0  0  0  0  0  0  0  0  0  0
   -1.1334    1.9336   -0.0544 H   0  0  0  0  0  0  0  0  0  0  0  0
   -1.1386    0.7576    1.7036 H   0  0  0  0  0  0  0  0  0  0  0  0
   -2.6730   -0.0985    1.6178 H   0  0  0  0  0  0  0  0  0  0  0  0
   -1.2291   -1.1023    1.6789 H   0  0  0  0  0  0  0  0  0  0  0  0
    1.0603   -1.6918    1.2595 H   0  0  0  0  0  0  0  0  0  0  0  0
    1.0456    0.9394   -2.0941 H   0  0  0  0  0  0  0  0  0  0  0  0
    3.2833   -0.8864    1.8661 H   0  0  0  0  0  0  0  0  0  0  0  0
    3.3270    1.7390   -1.4374 H   0  0  0  0  0  0  0  0  0  0  0  0
    4.4262    0.8055    0.5545 H   0  0  0  0  0  0  0  0  0  0  0  0
  3  2  1  0
  4  2  1  0
  5  3  1  0
  6  2  1  0
  7  2  1  0
  8  5  2  0
  9  5  1  0
 10  8  1  0
 11  9  2  0
 12 10  2  0
 11 12  1  0
  1 13  1  0
  3 14  1  0
  3 15  1  0
  4 16  1  0
  4 17  1  0
  6 18  1  0
  6 19  1  0
  6 20  1  0
  7 21  1  0
  7 22  1  0
  7 23  1  0
  8 24  1  0
  9 25  1  0
 10 26  1  0
 11 27  1  0
 12 28  1  0
M  END
$$$$
