
     RDKit          3D

 28 27  0  0  0  0  0  0  0  0999 V2000
    0.6835    0.0000    0.0000 Cl  0  0  0  0  0  0  0  0  0  0  0  0
   -1.6093    0.0525    0.2234 C   0  0  0  0  0  0  0  0  0  0  0  0
   -0.6164    0.8269   -0.5632 C   0  0  0  0  0  0  0  0  0  0  0  0
   -2.9247    0.6132   -0.1343 N   0  0  0  0  0  0  0  0  0  0  0  0
    0.7868    0.4849   -0.4076 C   0  0  0  0  0  0  0  0  0  0  0  0
   -1.4674    0.2349    1.7067 C   0  0  0  0  0  0  0  0  0  0  0  0
   -1.6867   -1.4057   -0.1665 C   0  0  0  0  0  0  0  0  0  0  0  0
    1.6257    1.0686    0.5436 C   0  0  0  0  0  0  0  0  0  0  0  0
    1.3688   -0.4634   -1.2214 C   0  0  0  0  0  0  0  0  0  0  0  0
    2.9515    0.7142    0.6564 C   0  0  0  0  0  0  0  0  0  0  0  0
    2.6991   -0.8234   -1.1129 C   0  0  0  0  0  0  0  0  0  0  0  0
    3.5189   -0.2361   -0.1650 C   0  0  0  0  0  0  0  0  0  0  0  0
   -0.6835    0.0000    0.0000 H   0  0  0  0  0  0  0  0  0  0  0  0
   -0.7283    1.8964   -0.2412 H   0  0  0  0  0  0  0  0  0  0  0  0
   -0.9103    0.8230   -1.6349 H   0  0  0  0  0  0  0  0  0  0  0  0
   -3.7036    0.0725    0.2574 H   0  0  0  0  0  0  0  0  0  0  0  0
   -2.9199    0.6907   -1.1694 H   0  0  0  0  0  0  0  0  0  0  0  0
   -1.9726    1.1811    2.0592 H   0  0  0  0  0  0  0  0  0  0  0  0
   -2.0170   -0.5890    2.2121 H   0  0  0  0  0  0  0  0  0  0  0  0
   -0.4329    0.3001    2.0435 H   0  0  0  0  0  0  0  0  0  0  0  0
   -1.0748   -2.0443    0.5258 H   0  0  0  0  0  0  0  0  0  0  0  0
   -1.4136   -1.5615   -1.2276 H   0  0  0  0  0  0  0  0  0  0  0  0
   -2.7350   -1.8052   -0.0633 H   0  0  0  0  0  0  0  0  0  0  0  0
    1.2276    1.8203    1.2122 H   0  0  0  0  0  0  0  0  0  0  0  0
    0.7847   -0.9477   -1.9685 H   0  0  0  0  0  0  0  0  0  0  0  0
    3.5852    1.1734    1.3949 H   0  0  0  0  0  0  0  0  0  0  0  0
    3.1106   -1.5735   -1.7749 H   0  0  0  0  0  0  0  0  0  0  0  0
    4.5535   -0.5028   -0.0661 H   0  0  0  0  0  0  0  0  0  0  0  0
  3  2  1  0
  4  2  1  0
  5  3  1  0
  6  2  1  0
  7  2  1  0
  8  5  2  0
  9  5  1  0
 10  8  1  0
 11  9  2  0
 12 10  2  0
 11 12  1  0
  1 13  1  0
  3 14  1  0
  3 15  1  0
  4 16  1  0
  4 17  1  0
  6 18  1  0
  6 19  1  0
  6 20  1  0
  7 21  1  0
  7 22  1  0
  7 23  1  0
  8 24  1  0
  9 25  1  0
 10 26  1  0
 11 27  1  0
 12 28  1  0
M  END
$$$$
