
     RDKit          3D

 28 27  0  0  0  0  0  0  0  0999 V2000
    0.6885    0.0000    0.0000 Cl  0  0  0  0  0  0  0  0  0  0  0  0
   -1.5812   -0.1398    0.3176 C   0  0  0  0  0  0  0  0  0  0  0  0
   -0.3644   -0.4628    1.1237 C   0  0  0  0  0  0  0  0  0  0  0  0
   -2.7286   -0.5660    1.1352 N   0  0  0  0  0  0  0  0  0  0  0  0
    0.9149   -0.1181    0.4938 C   0  0  0  0  0  0  0  0  0  0  0  0
   -1.7830    1.3299    0.0739 C   0  0  0  0  0  0  0  0  0  0  0  0
   -1.6485   -0.8562   -0.9948 C   0  0  0  0  0  0  0  0  0  0  0  0
    1.5585    1.0927    0.6313 C   0  0  0  0  0  0  0  0  0  0  0  0
    1.5444   -1.0719   -0.3082 C   0  0  0  0  0  0  0  0  0  0  0  0
    2.7609    1.3889    0.0270 C   0  0  0  0  0  0  0  0  0  0  0  0
    2.7419   -0.7936   -0.9173 C   0  0  0  0  0  0  0  0  0  0  0  0
    3.3687    0.4195   -0.7686 C   0  0  0  0  0  0  0  0  0  0  0  0
   -0.6885    0.0000    0.0000 H   0  0  0  0  0  0  0  0  0  0  0  0
   -0.4317   -1.5411    1.3965 H   0  0  0  0  0  0  0  0  0  0  0  0
   -0.4753    0.1178    2.0845 H   0  0  0  0  0  0  0  0  0  0  0  0
   -3.6223   -0.5209    0.6193 H   0  0  0  0  0  0  0  0  0  0  0  0
   -2.5184   -1.5777    1.3847 H   0  0  0  0  0  0  0  0  0  0  0  0
   -2.8710    1.6148    0.1494 H   0  0  0  0  0  0  0  0  0  0  0  0
   -1.4380    1.5855   -0.9641 H   0  0  0  0  0  0  0  0  0  0  0  0
   -1.2461    1.9908    0.7619 H   0  0  0  0  0  0  0  0  0  0  0  0
   -2.7397   -0.9830   -1.2324 H   0  0  0  0  0  0  0  0  0  0  0  0
   -1.2393   -0.2575   -1.8344 H   0  0  0  0  0  0  0  0  0  0  0  0
   -1.2526   -1.8916   -0.9566 H   0  0  0  0  0  0  0  0  0  0  0  0
    1.1010    1.8563    1.2449 H   0  0  0  0  0  0  0  0  0  0  0  0
    1.1140   -2.0547   -0.4759 H   0  0  0  0  0  0  0  0  0  0  0  0
    3.2628    2.3218    0.1292 H   0  0  0  0  0  0  0  0  0  0  0  0
    3.2599   -1.5220   -1.5525 H   0  0  0  0  0  0  0  0  0  0  0  0
    4.3132    0.6390   -1.2490 H   0  0  0  0  0  0  0  0  0  0  0  0
  3  2  1  0
  4  2  1  0
  5  3  1  0
  6  2  1  0
  7  2  1  0
  8  5  2  0
  9  5  1  0
 10  8  1  0
 11  9  2  0
 12 10  2  0
 11 12  1  0
  1 13  1  0
  3 14  1  0
  3 15  1  0
  4 16  1  0
  4 17  1  0
  6 18  1  0
  6 19  1  0
  6 20  1  0
  7 21  1  0
  7 22  1  0
  7 23  1  0
  8 24  1  0
  9 25  1  0
 10 26  1  0
 11 27  1  0
 12 28  1  0
M  END
$$$$
