
     RDKit          3D

 28 27  0  0  0  0  0  0  0  0999 V2000
    0.6899    0.0000    0.0000 Cl  0  0  0  0  0  0  0  0  0  0  0  0
   -1.5104   -0.2471    0.1098 C   0  0  0  0  0  0  0  0  0  0  0  0
   -0.3562   -0.2786    1.0886 C   0  0  0  0  0  0  0  0  0  0  0  0
   -1.3772   -1.2202   -0.9322 N   0  0  0  0  0  0  0  0  0  0  0  0
    0.9581   -0.0106    0.4468 C   0  0  0  0  0  0  0  0  0  0  0  0
   -2.7709   -0.4445    0.9346 C   0  0  0  0  0  0  0  0  0  0  0  0
   -1.6275    1.1234   -0.5199 C   0  0  0  0  0  0  0  0  0  0  0  0
    1.4907    1.2554    0.3167 C   0  0  0  0  0  0  0  0  0  0  0  0
    1.6431   -1.1274   -0.0287 C   0  0  0  0  0  0  0  0  0  0  0  0
    2.7357    1.4063   -0.3029 C   0  0  0  0  0  0  0  0  0  0  0  0
    2.8802   -0.9938   -0.6462 C   0  0  0  0  0  0  0  0  0  0  0  0
    3.4011    0.2863   -0.7688 C   0  0  0  0  0  0  0  0  0  0  0  0
   -0.6899    0.0000    0.0000 H   0  0  0  0  0  0  0  0  0  0  0  0
   -0.3678   -1.2794    1.5861 H   0  0  0  0  0  0  0  0  0  0  0  0
   -0.5602    0.4419    1.9076 H   0  0  0  0  0  0  0  0  0  0  0  0
   -2.0975   -1.9809   -0.8498 H   0  0  0  0  0  0  0  0  0  0  0  0
   -1.4088   -0.8226   -1.8968 H   0  0  0  0  0  0  0  0  0  0  0  0
   -2.6096    0.0927    1.8925 H   0  0  0  0  0  0  0  0  0  0  0  0
   -2.8816   -1.5292    1.2087 H   0  0  0  0  0  0  0  0  0  0  0  0
   -3.6804   -0.0408    0.4442 H   0  0  0  0  0  0  0  0  0  0  0  0
   -2.6693    1.2998   -0.8845 H   0  0  0  0  0  0  0  0  0  0  0  0
   -1.4028    1.9298    0.2295 H   0  0  0  0  0  0  0  0  0  0  0  0
   -0.9504    1.2568   -1.3945 H   0  0  0  0  0  0  0  0  0  0  0  0
    0.9456    2.1067    0.6909 H   0  0  0  0  0  0  0  0  0  0  0  0
    1.2445   -2.1307    0.0625 H   0  0  0  0  0  0  0  0  0  0  0  0
    3.1759    2.3923   -0.4173 H   0  0  0  0  0  0  0  0  0  0  0  0
    3.4250   -1.8658   -1.0226 H   0  0  0  0  0  0  0  0  0  0  0  0
    4.3707    0.3801   -1.2541 H   0  0  0  0  0  0  0  0  0  0  0  0
  3  2  1  0
  4  2  1  0
  5  3  1  0
  6  2  1  0
  7  2  1  0
  8  5  2  0
  9  5  1  0
 10  8  1  0
 11  9  2  0
 12 10  2  0
 11 12  1  0
  1 13  1  0
  3 14  1  0
  3 15  1  0
  4 16  1  0
  4 17  1  0
  6 18  1  0
  6 19  1  0
  6 20  1  0
  7 21  1  0
  7 22  1  0
  7 23  1  0
  8 24  1  0
  9 25  1  0
 10 26  1  0
 11 27  1  0
 12 28  1  0
M  END
$$$$
