
     RDKit          3D

 28 27  0  0  0  0  0  0  0  0999 V2000
    0.6847    0.0000    0.0000 Cl  0  0  0  0  0  0  0  0  0  0  0  0
   -1.5536    0.1771   -0.1888 C   0  0  0  0  0  0  0  0  0  0  0  0
   -0.5226   -0.8811   -0.2084 C   0  0  0  0  0  0  0  0  0  0  0  0
   -1.4737    1.1056   -1.2787 N   0  0  0  0  0  0  0  0  0  0  0  0
    0.8792   -0.5144   -0.1580 C   0  0  0  0  0  0  0  0  0  0  0  0
   -2.8923   -0.5532   -0.3648 C   0  0  0  0  0  0  0  0  0  0  0  0
   -1.6652    0.9205    1.1238 C   0  0  0  0  0  0  0  0  0  0  0  0
    1.6147   -0.3623    0.9821 C   0  0  0  0  0  0  0  0  0  0  0  0
    1.5502   -0.2946   -1.3652 C   0  0  0  0  0  0  0  0  0  0  0  0
    2.9493   -0.0125    1.0080 C   0  0  0  0  0  0  0  0  0  0  0  0
    2.8697    0.0522   -1.3673 C   0  0  0  0  0  0  0  0  0  0  0  0
    3.5967    0.2014   -0.2070 C   0  0  0  0  0  0  0  0  0  0  0  0
   -0.6847    0.0000    0.0000 H   0  0  0  0  0  0  0  0  0  0  0  0
   -0.7149   -1.5612    0.6581 H   0  0  0  0  0  0  0  0  0  0  0  0
   -0.6984   -1.5142   -1.1013 H   0  0  0  0  0  0  0  0  0  0  0  0
   -0.5527    1.2720   -1.6846 H   0  0  0  0  0  0  0  0  0  0  0  0
   -2.1576    0.9565   -2.0349 H   0  0  0  0  0  0  0  0  0  0  0  0
   -3.6955    0.1203   -0.7108 H   0  0  0  0  0  0  0  0  0  0  0  0
   -3.2188   -1.0665    0.5536 H   0  0  0  0  0  0  0  0  0  0  0  0
   -2.8035   -1.3592   -1.1284 H   0  0  0  0  0  0  0  0  0  0  0  0
   -1.2650    0.3612    1.9896 H   0  0  0  0  0  0  0  0  0  0  0  0
   -2.7413    1.1058    1.4084 H   0  0  0  0  0  0  0  0  0  0  0  0
   -1.2490    1.9545    1.0321 H   0  0  0  0  0  0  0  0  0  0  0  0
    1.1266   -0.5246    1.9273 H   0  0  0  0  0  0  0  0  0  0  0  0
    1.0570   -0.3897   -2.3233 H   0  0  0  0  0  0  0  0  0  0  0  0
    3.5100    0.1022    1.9132 H   0  0  0  0  0  0  0  0  0  0  0  0
    3.4028    0.2260   -2.3049 H   0  0  0  0  0  0  0  0  0  0  0  0
    4.6479    0.4780   -0.2159 H   0  0  0  0  0  0  0  0  0  0  0  0
  3  2  1  0
  4  2  1  0
  5  3  1  0
  6  2  1  0
  7  2  1  0
  8  5  2  0
  9  5  1  0
 10  8  1  0
 11  9  2  0
 12 10  2  0
 11 12  1  0
  1 13  1  0
  3 14  1  0
  3 15  1  0
  4 16  1  0
  4 17  1  0
  6 18  1  0
  6 19  1  0
  6 20  1  0
  7 21  1  0
  7 22  1  0
  7 23  1  0
  8 24  1  0
  9 25  1  0
 10 26  1  0
 11 27  1  0
 12 28  1  0
M  END
$$$$
