
     RDKit          3D

 28 27  0  0  0  0  0  0  0  0999 V2000
    0.6871    0.0000    0.0000 Cl  0  0  0  0  0  0  0  0  0  0  0  0
    1.4761    0.2708   -0.0498 C   0  0  0  0  0  0  0  0  0  0  0  0
    0.4492   -0.0192   -1.1199 C   0  0  0  0  0  0  0  0  0  0  0  0
    1.1449    1.4920    0.6596 N   0  0  0  0  0  0  0  0  0  0  0  0
   -0.9104   -0.1847   -0.5467 C   0  0  0  0  0  0  0  0  0  0  0  0
    2.8574    0.4559   -0.6326 C   0  0  0  0  0  0  0  0  0  0  0  0
    1.5950   -0.8857    0.9304 C   0  0  0  0  0  0  0  0  0  0  0  0
   -1.4175   -1.3958   -0.1296 C   0  0  0  0  0  0  0  0  0  0  0  0
   -1.7060    0.9488   -0.4291 C   0  0  0  0  0  0  0  0  0  0  0  0
   -2.7110   -1.4681    0.4006 C   0  0  0  0  0  0  0  0  0  0  0  0
   -2.9846    0.8919    0.0923 C   0  0  0  0  0  0  0  0  0  0  0  0
   -3.4736   -0.3365    0.5053 C   0  0  0  0  0  0  0  0  0  0  0  0
   -0.6871    0.0000    0.0000 H   0  0  0  0  0  0  0  0  0  0  0  0
    0.6769   -0.9426   -1.6732 H   0  0  0  0  0  0  0  0  0  0  0  0
    0.4624    0.8166   -1.8329 H   0  0  0  0  0  0  0  0  0  0  0  0
    1.4095    2.2964    0.0343 H   0  0  0  0  0  0  0  0  0  0  0  0
    1.7913    1.5529    1.4711 H   0  0  0  0  0  0  0  0  0  0  0  0
    3.1325   -0.4173   -1.2531 H   0  0  0  0  0  0  0  0  0  0  0  0
    2.9675    1.4212   -1.1645 H   0  0  0  0  0  0  0  0  0  0  0  0
    3.5460    0.4690    0.2474 H   0  0  0  0  0  0  0  0  0  0  0  0
    0.9296   -0.7494    1.8266 H   0  0  0  0  0  0  0  0  0  0  0  0
    2.6341   -0.9455    1.3691 H   0  0  0  0  0  0  0  0  0  0  0  0
    1.4632   -1.8617    0.4305 H   0  0  0  0  0  0  0  0  0  0  0  0
   -0.8090   -2.2853   -0.2156 H   0  0  0  0  0  0  0  0  0  0  0  0
   -1.3233    1.9096   -0.7523 H   0  0  0  0  0  0  0  0  0  0  0  0
   -3.0949   -2.4355    0.7253 H   0  0  0  0  0  0  0  0  0  0  0  0
   -3.6234    1.7682    0.1928 H   0  0  0  0  0  0  0  0  0  0  0  0
   -4.4818   -0.3658    0.9138 H   0  0  0  0  0  0  0  0  0  0  0  0
  3  2  1  0
  4  2  1  0
  5  3  1  0
  6  2  1  0
  7  2  1  0
  8  5  2  0
  9  5  1  0
 10  8  1  0
 11  9  2  0
 12 10  2  0
 11 12  1  0
  1 13  1  0
  3 14  1  0
  3 15  1  0
  4 16  1  0
  4 17  1  0
  6 18  1  0
  6 19  1  0
  6 20  1  0
  7 21  1  0
  7 22  1  0
  7 23  1  0
  8 24  1  0
  9 25  1  0
 10 26  1  0
 11 27  1  0
 12 28  1  0
M  END
$$$$
