
     RDKit          3D

 43 45  0  0  0  0  0  0  0  0999 V2000
   50.7776    7.1374   16.0129 C   0  0  0  0  0  0  0  0  0  0  0  0
   49.7402    6.7830   16.8801 C   0  0  0  0  0  0  0  0  0  0  0  0
   48.6612    7.6505   17.0690 C   0  0  0  0  0  0  0  0  0  0  0  0
   48.6129    8.8720   16.3894 C   0  0  0  0  0  0  0  0  0  0  0  0
   49.6495    9.2331   15.5068 C   0  0  0  0  0  0  0  0  0  0  0  0
   50.7370    8.3592   15.3345 C   0  0  0  0  0  0  0  0  0  0  0  0
   49.6161   10.5571   14.7804 C   0  0  0  0  0  0  0  0  0  0  0  0
   48.5255   10.6194   13.6785 C   0  0  1  0  0  0  0  0  0  0  0  0
   48.2415   12.0149   13.3331 N   0  0  0  0  0  0  0  0  0  0  0  0
   48.9269    9.8682   12.3885 C   0  0  0  0  0  0  0  0  0  0  0  0
   48.9407    8.3654   12.5359 C   0  0  0  0  0  0  0  0  0  0  0  0
   50.0483    7.7764   12.4032 O   0  0  0  0  0  0  0  0  0  0  0  0
   47.7497    7.5846   12.8045 N   0  0  0  0  0  0  0  0  0  0  0  0
   47.9183    6.2433   13.4028 C   0  0  0  0  0  0  0  0  0  0  0  0
   46.3934    8.1671   12.7156 C   0  0  0  0  0  0  0  0  0  0  0  0
   45.4237    7.1900   12.0404 C   0  0  0  0  0  0  0  0  0  0  0  0
   45.5810    5.8659   12.6280 N   0  0  0  0  0  0  0  0  0  0  0  0
   46.6976    5.4029   13.2014 C   0  0  0  0  0  0  0  0  0  0  0  0
   44.7638    4.7965   12.6138 C   0  0  0  0  0  0  0  0  0  0  0  0
   45.3567    3.7301   13.1918 N   0  0  0  0  0  0  0  0  0  0  0  0
   46.5738    4.1112   13.5608 N   0  0  0  0  0  0  0  0  0  0  0  0
   51.8262    6.2974   15.8290 F   0  0  0  0  0  0  0  0  0  0  0  0
   49.7785    5.5982   17.5383 F   0  0  0  0  0  0  0  0  0  0  0  0
   47.5639    9.7063   16.6030 F   0  0  0  0  0  0  0  0  0  0  0  0
   43.3782    4.7803   12.0451 C   0  0  0  0  0  0  0  0  0  0  0  0
   42.8564    3.5002   12.0959 F   0  0  0  0  0  0  0  0  0  0  0  0
   43.4094    5.2008   10.7285 F   0  0  0  0  0  0  0  0  0  0  0  0
   42.5678    5.6268   12.7778 F   0  0  0  0  0  0  0  0  0  0  0  0
   47.8608    7.3765   17.7440 H   0  0  0  0  0  0  0  0  0  0  0  0
   51.5508    8.6215   14.6699 H   0  0  0  0  0  0  0  0  0  0  0  0
   50.6100   10.7917   14.3397 H   0  0  0  0  0  0  0  0  0  0  0  0
   49.4218   11.3481   15.5372 H   0  0  0  0  0  0  0  0  0  0  0  0
   47.5859   10.1841   14.0750 H   0  0  0  0  0  0  0  0  0  0  0  0
   47.8347   12.4959   14.1685 H   0  0  0  0  0  0  0  0  0  0  0  0
   49.1360   12.5024   13.0928 H   0  0  0  0  0  0  0  0  0  0  0  0
   49.9342   10.2163   12.0686 H   0  0  0  0  0  0  0  0  0  0  0  0
   48.2441   10.1425   11.5576 H   0  0  0  0  0  0  0  0  0  0  0  0
   48.7724    5.7118   12.9321 H   0  0  0  0  0  0  0  0  0  0  0  0
   48.1143    6.3466   14.4890 H   0  0  0  0  0  0  0  0  0  0  0  0
   46.3809    9.1083   12.1329 H   0  0  0  0  0  0  0  0  0  0  0  0
   46.0277    8.3882   13.7418 H   0  0  0  0  0  0  0  0  0  0  0  0
   45.6479    7.1346   10.9535 H   0  0  0  0  0  0  0  0  0  0  0  0
   44.3812    7.5491   12.1760 H   0  0  0  0  0  0  0  0  0  0  0  0
  1  2  2  0
  2  3  1  0
  3  4  2  0
  4  5  1  0
  5  6  2  0
  1  6  1  0
  7  8  1  0
  8  9  1  0
  5  7  1  0
 10 11  1  0
 11 12  2  0
  8 10  1  0
 13 14  1  0
 11 13  1  0
 15 16  1  0
 16 17  1  0
 17 18  1  0
 14 18  1  0
 13 15  1  0
 19 20  2  0
 20 21  1  0
 17 19  1  0
 18 21  2  0
  1 22  1  0
  2 23  1  0
  4 24  1  0
 19 25  1  0
 25 26  1  0
 25 27  1  0
 25 28  1  0
  3 29  1  0
  6 30  1  0
  7 31  1  0
  7 32  1  0
  8 33  1  1
  9 34  1  0
  9 35  1  0
 10 36  1  0
 10 37  1  0
 14 38  1  0
 14 39  1  0
 15 40  1  0
 15 41  1  0
 16 42  1  0
 16 43  1  0
M  END
> <Uni-Dock RESULT> 
ENERGY=   -4.443  LOWER_BOUND=    0.000  UPPER_BOUND=    0.000
INTER + INTRA:          -4.443
INTER:                  -4.443
INTRA:                   0.000
UNBOUND:                 0.000

$$$$

     RDKit          3D

 43 45  0  0  0  0  0  0  0  0999 V2000
   49.6090    3.3006   17.7237 C   0  0  0  0  0  0  0  0  0  0  0  0
   48.4755    3.1678   16.9165 C   0  0  0  0  0  0  0  0  0  0  0  0
   47.3175    3.8906   17.2148 C   0  0  0  0  0  0  0  0  0  0  0  0
   47.2894    4.7512   18.3170 C   0  0  0  0  0  0  0  0  0  0  0  0
   48.4298    4.8980   19.1304 C   0  0  0  0  0  0  0  0  0  0  0  0
   49.5851    4.1558   18.8296 C   0  0  0  0  0  0  0  0  0  0  0  0
   48.4055    5.8117   20.3331 C   0  0  0  0  0  0  0  0  0  0  0  0
   48.3635    7.3158   19.9539 C   0  0  1  0  0  0  0  0  0  0  0  0
   47.8980    8.1074   21.0958 N   0  0  0  0  0  0  0  0  0  0  0  0
   49.7376    7.8641   19.5061 C   0  0  0  0  0  0  0  0  0  0  0  0
   50.1879    7.3563   18.1571 C   0  0  0  0  0  0  0  0  0  0  0  0
   51.2293    6.6455   18.1192 O   0  0  0  0  0  0  0  0  0  0  0  0
   49.4912    7.6604   16.9232 N   0  0  0  0  0  0  0  0  0  0  0  0
   49.6957    6.7591   15.7694 C   0  0  0  0  0  0  0  0  0  0  0  0
   48.4284    8.6863   16.8549 C   0  0  0  0  0  0  0  0  0  0  0  0
   48.5622    9.5257   15.5788 C   0  0  0  0  0  0  0  0  0  0  0  0
   48.7600    8.6436   14.4359 N   0  0  0  0  0  0  0  0  0  0  0  0
   49.3050    7.4229   14.4874 C   0  0  0  0  0  0  0  0  0  0  0  0
   48.6012    8.8656   13.1179 C   0  0  0  0  0  0  0  0  0  0  0  0
   49.0061    7.7979   12.3978 N   0  0  0  0  0  0  0  0  0  0  0  0
   49.4499    6.8903   13.2593 N   0  0  0  0  0  0  0  0  0  0  0  0
   50.7334    2.5992   17.4366 F   0  0  0  0  0  0  0  0  0  0  0  0
   48.4977    2.3388   15.8438 F   0  0  0  0  0  0  0  0  0  0  0  0
   46.1474    5.4288   18.5976 F   0  0  0  0  0  0  0  0  0  0  0  0
   48.0433   10.1196   12.5179 C   0  0  0  0  0  0  0  0  0  0  0  0
   48.1162   10.0619   11.1378 F   0  0  0  0  0  0  0  0  0  0  0  0
   48.7673   11.2108   12.9609 F   0  0  0  0  0  0  0  0  0  0  0  0
   46.7210   10.2634   12.8938 F   0  0  0  0  0  0  0  0  0  0  0  0
   46.4394    3.7835   16.5913 H   0  0  0  0  0  0  0  0  0  0  0  0
   50.4697    4.2440   19.4481 H   0  0  0  0  0  0  0  0  0  0  0  0
   49.2760    5.6152   20.9969 H   0  0  0  0  0  0  0  0  0  0  0  0
   47.5019    5.5558   20.9283 H   0  0  0  0  0  0  0  0  0  0  0  0
   47.6298    7.4617   19.1354 H   0  0  0  0  0  0  0  0  0  0  0  0
   46.9113    7.8384   21.3165 H   0  0  0  0  0  0  0  0  0  0  0  0
   48.4816    7.8829   21.9353 H   0  0  0  0  0  0  0  0  0  0  0  0
   50.4984    7.5971   20.2730 H   0  0  0  0  0  0  0  0  0  0  0  0
   49.7188    8.9736   19.4856 H   0  0  0  0  0  0  0  0  0  0  0  0
   50.7651    6.4712   15.6853 H   0  0  0  0  0  0  0  0  0  0  0  0
   49.0869    5.8427   15.9055 H   0  0  0  0  0  0  0  0  0  0  0  0
   48.4615    9.3796   17.7173 H   0  0  0  0  0  0  0  0  0  0  0  0
   47.4385    8.1806   16.8527 H   0  0  0  0  0  0  0  0  0  0  0  0
   49.4373   10.2046   15.6701 H   0  0  0  0  0  0  0  0  0  0  0  0
   47.6449   10.1363   15.4386 H   0  0  0  0  0  0  0  0  0  0  0  0
  1  2  2  0
  2  3  1  0
  3  4  2  0
  4  5  1  0
  5  6  2  0
  1  6  1  0
  7  8  1  0
  8  9  1  0
  5  7  1  0
 10 11  1  0
 11 12  2  0
  8 10  1  0
 13 14  1  0
 11 13  1  0
 15 16  1  0
 16 17  1  0
 17 18  1  0
 14 18  1  0
 13 15  1  0
 19 20  2  0
 20 21  1  0
 17 19  1  0
 18 21  2  0
  1 22  1  0
  2 23  1  0
  4 24  1  0
 19 25  1  0
 25 26  1  0
 25 27  1  0
 25 28  1  0
  3 29  1  0
  6 30  1  0
  7 31  1  0
  7 32  1  0
  8 33  1  1
  9 34  1  0
  9 35  1  0
 10 36  1  0
 10 37  1  0
 14 38  1  0
 14 39  1  0
 15 40  1  0
 15 41  1  0
 16 42  1  0
 16 43  1  0
M  END
> <Uni-Dock RESULT> 
ENERGY=   -4.284  LOWER_BOUND=    3.785  UPPER_BOUND=    5.732
INTER + INTRA:          -4.284
INTER:                  -4.284
INTRA:                   0.000
UNBOUND:                 0.000

$$$$

     RDKit          3D

 43 45  0  0  0  0  0  0  0  0999 V2000
   48.9663   10.3384   11.4380 C   0  0  0  0  0  0  0  0  0  0  0  0
   47.7607   11.0215   11.6215 C   0  0  0  0  0  0  0  0  0  0  0  0
   46.6764   10.3753   12.2208 C   0  0  0  0  0  0  0  0  0  0  0  0
   46.7942    9.0470   12.6426 C   0  0  0  0  0  0  0  0  0  0  0  0
   48.0082    8.3540   12.4699 C   0  0  0  0  0  0  0  0  0  0  0  0
   49.0884    9.0090   11.8534 C   0  0  0  0  0  0  0  0  0  0  0  0
   48.1417    6.9140   12.9063 C   0  0  0  0  0  0  0  0  0  0  0  0
   48.1524    6.7439   14.4485 C   0  0  1  0  0  0  0  0  0  0  0  0
   47.8349    5.3576   14.8019 N   0  0  0  0  0  0  0  0  0  0  0  0
   49.5109    7.1126   15.0872 C   0  0  0  0  0  0  0  0  0  0  0  0
   49.8113    8.5924   15.0725 C   0  0  0  0  0  0  0  0  0  0  0  0
   50.8032    8.9797   14.3961 O   0  0  0  0  0  0  0  0  0  0  0  0
   49.0275    9.5673   15.8043 N   0  0  0  0  0  0  0  0  0  0  0  0
   49.0782   10.9759   15.3584 C   0  0  0  0  0  0  0  0  0  0  0  0
   48.0230    9.1682   16.8134 C   0  0  0  0  0  0  0  0  0  0  0  0
   48.0919   10.0823   18.0425 C   0  0  0  0  0  0  0  0  0  0  0  0
   48.1380   11.4734   17.6109 N   0  0  0  0  0  0  0  0  0  0  0  0
   48.6149   11.9027   16.4370 C   0  0  0  0  0  0  0  0  0  0  0  0
   47.8769   12.6101   18.2829 C   0  0  0  0  0  0  0  0  0  0  0  0
   48.1556   13.6920   17.5250 N   0  0  0  0  0  0  0  0  0  0  0  0
   48.6208   13.2471   16.3638 N   0  0  0  0  0  0  0  0  0  0  0  0
   50.0194   10.9634   10.8556 F   0  0  0  0  0  0  0  0  0  0  0  0
   47.6413   12.3109   11.2192 F   0  0  0  0  0  0  0  0  0  0  0  0
   45.7218    8.4345   13.2055 F   0  0  0  0  0  0  0  0  0  0  0  0
   47.3409   12.6796   19.6798 C   0  0  0  0  0  0  0  0  0  0  0  0
   47.2889   13.9945   20.1062 F   0  0  0  0  0  0  0  0  0  0  0  0
   48.1620   11.9634   20.5307 F   0  0  0  0  0  0  0  0  0  0  0  0
   46.0671   12.1442   19.7135 F   0  0  0  0  0  0  0  0  0  0  0  0
   45.7423   10.9043   12.3584 H   0  0  0  0  0  0  0  0  0  0  0  0
   50.0275    8.4919   11.6997 H   0  0  0  0  0  0  0  0  0  0  0  0
   49.0545    6.4514   12.4704 H   0  0  0  0  0  0  0  0  0  0  0  0
   47.2807    6.3547   12.4793 H   0  0  0  0  0  0  0  0  0  0  0  0
   47.3592    7.3821   14.8880 H   0  0  0  0  0  0  0  0  0  0  0  0
   46.8576    5.1439   14.4953 H   0  0  0  0  0  0  0  0  0  0  0  0
   48.4761    4.7116   14.2850 H   0  0  0  0  0  0  0  0  0  0  0  0
   50.3196    6.5671   14.5518 H   0  0  0  0  0  0  0  0  0  0  0  0
   49.5536    6.7466   16.1342 H   0  0  0  0  0  0  0  0  0  0  0  0
   50.1179   11.2631   15.0936 H   0  0  0  0  0  0  0  0  0  0  0  0
   48.4324   11.1033   14.4664 H   0  0  0  0  0  0  0  0  0  0  0  0
   48.1712    8.1276   17.1608 H   0  0  0  0  0  0  0  0  0  0  0  0
   47.0095    9.2437   16.3631 H   0  0  0  0  0  0  0  0  0  0  0  0
   49.0088    9.8521   18.6265 H   0  0  0  0  0  0  0  0  0  0  0  0
   47.2021    9.9085   18.6843 H   0  0  0  0  0  0  0  0  0  0  0  0
  1  2  2  0
  2  3  1  0
  3  4  2  0
  4  5  1  0
  5  6  2  0
  1  6  1  0
  7  8  1  0
  8  9  1  0
  5  7  1  0
 10 11  1  0
 11 12  2  0
  8 10  1  0
 13 14  1  0
 11 13  1  0
 15 16  1  0
 16 17  1  0
 17 18  1  0
 14 18  1  0
 13 15  1  0
 19 20  2  0
 20 21  1  0
 17 19  1  0
 18 21  2  0
  1 22  1  0
  2 23  1  0
  4 24  1  0
 19 25  1  0
 25 26  1  0
 25 27  1  0
 25 28  1  0
  3 29  1  0
  6 30  1  0
  7 31  1  0
  7 32  1  0
  8 33  1  1
  9 34  1  0
  9 35  1  0
 10 36  1  0
 10 37  1  0
 14 38  1  0
 14 39  1  0
 15 40  1  0
 15 41  1  0
 16 42  1  0
 16 43  1  0
M  END
> <Uni-Dock RESULT> 
ENERGY=   -4.198  LOWER_BOUND=    3.326  UPPER_BOUND=    7.524
INTER + INTRA:          -4.198
INTER:                  -4.198
INTRA:                   0.000
UNBOUND:                 0.000

$$$$

     RDKit          3D

 43 45  0  0  0  0  0  0  0  0999 V2000
   49.0189    2.7760   16.9310 C   0  0  0  0  0  0  0  0  0  0  0  0
   47.9243    3.3011   16.2380 C   0  0  0  0  0  0  0  0  0  0  0  0
   47.0649    4.2029   16.8709 C   0  0  0  0  0  0  0  0  0  0  0  0
   47.2983    4.5863   18.1956 C   0  0  0  0  0  0  0  0  0  0  0  0
   48.4039    4.0691   18.8983 C   0  0  0  0  0  0  0  0  0  0  0  0
   49.2544    3.1520   18.2568 C   0  0  0  0  0  0  0  0  0  0  0  0
   48.6562    4.4631   20.3346 C   0  0  0  0  0  0  0  0  0  0  0  0
   49.1239    5.9345   20.4890 C   0  0  1  0  0  0  0  0  0  0  0  0
   48.9211    6.3824   21.8694 N   0  0  0  0  0  0  0  0  0  0  0  0
   50.6120    6.1367   20.1227 C   0  0  0  0  0  0  0  0  0  0  0  0
   50.8993    6.0160   18.6451 C   0  0  0  0  0  0  0  0  0  0  0  0
   51.6468    5.0711   18.2714 O   0  0  0  0  0  0  0  0  0  0  0  0
   50.3713    6.9359   17.6576 N   0  0  0  0  0  0  0  0  0  0  0  0
   50.2919    6.4786   16.2540 C   0  0  0  0  0  0  0  0  0  0  0  0
   49.7105    8.2025   18.0397 C   0  0  0  0  0  0  0  0  0  0  0  0
   50.1443    9.3448   17.1135 C   0  0  0  0  0  0  0  0  0  0  0  0
   50.0647    8.9027   15.7272 N   0  0  0  0  0  0  0  0  0  0  0  0
   50.1728    7.6351   15.3132 C   0  0  0  0  0  0  0  0  0  0  0  0
   50.0187    9.6084   14.5820 C   0  0  0  0  0  0  0  0  0  0  0  0
   50.0632    8.7893   13.5098 N   0  0  0  0  0  0  0  0  0  0  0  0
   50.1612    7.5477   13.9696 N   0  0  0  0  0  0  0  0  0  0  0  0
   49.8535    1.8998   16.3190 F   0  0  0  0  0  0  0  0  0  0  0  0
   47.6951    2.9373   14.9521 F   0  0  0  0  0  0  0  0  0  0  0  0
   46.4394    5.4493   18.7952 F   0  0  0  0  0  0  0  0  0  0  0  0
   49.9219   11.1006   14.4946 C   0  0  0  0  0  0  0  0  0  0  0  0
   50.0032   11.5077   13.1751 F   0  0  0  0  0  0  0  0  0  0  0  0
   50.9563   11.6777   15.2074 F   0  0  0  0  0  0  0  0  0  0  0  0
   48.7138   11.5172   15.0212 F   0  0  0  0  0  0  0  0  0  0  0  0
   46.2154    4.6054   16.3343 H   0  0  0  0  0  0  0  0  0  0  0  0
   50.1038    2.7326   18.7817 H   0  0  0  0  0  0  0  0  0  0  0  0
   49.3969    3.7813   20.8076 H   0  0  0  0  0  0  0  0  0  0  0  0
   47.7055    4.3175   20.8925 H   0  0  0  0  0  0  0  0  0  0  0  0
   48.4991    6.5820   19.8410 H   0  0  0  0  0  0  0  0  0  0  0  0
   47.8962    6.3824   22.0798 H   0  0  0  0  0  0  0  0  0  0  0  0
   49.3778    5.7061   22.5248 H   0  0  0  0  0  0  0  0  0  0  0  0
   51.2234    5.3917   20.6789 H   0  0  0  0  0  0  0  0  0  0  0  0
   50.9625    7.1279   20.4782 H   0  0  0  0  0  0  0  0  0  0  0  0
   51.2070    5.9137   15.9765 H   0  0  0  0  0  0  0  0  0  0  0  0
   49.4109    5.8171   16.1315 H   0  0  0  0  0  0  0  0  0  0  0  0
   49.9518    8.5024   19.0776 H   0  0  0  0  0  0  0  0  0  0  0  0
   48.6093    8.0725   17.9621 H   0  0  0  0  0  0  0  0  0  0  0  0
   51.1926    9.6329   17.3437 H   0  0  0  0  0  0  0  0  0  0  0  0
   49.4847   10.2239   17.2748 H   0  0  0  0  0  0  0  0  0  0  0  0
  1  2  2  0
  2  3  1  0
  3  4  2  0
  4  5  1  0
  5  6  2  0
  1  6  1  0
  7  8  1  0
  8  9  1  0
  5  7  1  0
 10 11  1  0
 11 12  2  0
  8 10  1  0
 13 14  1  0
 11 13  1  0
 15 16  1  0
 16 17  1  0
 17 18  1  0
 14 18  1  0
 13 15  1  0
 19 20  2  0
 20 21  1  0
 17 19  1  0
 18 21  2  0
  1 22  1  0
  2 23  1  0
  4 24  1  0
 19 25  1  0
 25 26  1  0
 25 27  1  0
 25 28  1  0
  3 29  1  0
  6 30  1  0
  7 31  1  0
  7 32  1  0
  8 33  1  1
  9 34  1  0
  9 35  1  0
 10 36  1  0
 10 37  1  0
 14 38  1  0
 14 39  1  0
 15 40  1  0
 15 41  1  0
 16 42  1  0
 16 43  1  0
M  END
> <Uni-Dock RESULT> 
ENERGY=   -3.908  LOWER_BOUND=    4.109  UPPER_BOUND=    6.960
INTER + INTRA:          -3.908
INTER:                  -3.908
INTRA:                   0.000
UNBOUND:                 0.000

$$$$

     RDKit          3D

 43 45  0  0  0  0  0  0  0  0999 V2000
   43.3293    9.7872   10.6921 C   0  0  0  0  0  0  0  0  0  0  0  0
   44.1310   10.4230   11.6445 C   0  0  0  0  0  0  0  0  0  0  0  0
   44.4485   11.7759   11.4986 C   0  0  0  0  0  0  0  0  0  0  0  0
   43.9630   12.4988   10.4041 C   0  0  0  0  0  0  0  0  0  0  0  0
   43.1472   11.8684    9.4445 C   0  0  0  0  0  0  0  0  0  0  0  0
   42.8451   10.5036    9.5934 C   0  0  0  0  0  0  0  0  0  0  0  0
   42.6311   12.6349    8.2495 C   0  0  0  0  0  0  0  0  0  0  0  0
   41.5501   13.6845    8.6203 C   0  0  1  0  0  0  0  0  0  0  0  0
   41.4212   14.6720    7.5453 N   0  0  0  0  0  0  0  0  0  0  0  0
   40.1612   13.0561    8.8765 C   0  0  0  0  0  0  0  0  0  0  0  0
   40.0778   12.2596   10.1567 C   0  0  0  0  0  0  0  0  0  0  0  0
   39.8583   11.0211   10.0600 O   0  0  0  0  0  0  0  0  0  0  0  0
   40.2226   12.8539   11.4705 N   0  0  0  0  0  0  0  0  0  0  0  0
   40.6097   11.9731   12.5929 C   0  0  0  0  0  0  0  0  0  0  0  0
   40.2217   14.3188   11.6731 C   0  0  0  0  0  0  0  0  0  0  0  0
   39.4042   14.6970   12.9139 C   0  0  0  0  0  0  0  0  0  0  0  0
   39.7833   13.8354   14.0263 N   0  0  0  0  0  0  0  0  0  0  0  0
   40.2808   12.5988   13.9110 C   0  0  0  0  0  0  0  0  0  0  0  0
   39.6051   13.9841   15.3521 C   0  0  0  0  0  0  0  0  0  0  0  0
   40.0145   12.8840   16.0191 N   0  0  0  0  0  0  0  0  0  0  0  0
   40.4389   12.0119   15.1124 N   0  0  0  0  0  0  0  0  0  0  0  0
   43.0210    8.4741   10.8312 F   0  0  0  0  0  0  0  0  0  0  0  0
   44.6009    9.7292   12.7105 F   0  0  0  0  0  0  0  0  0  0  0  0
   44.2999   13.8070   10.2740 F   0  0  0  0  0  0  0  0  0  0  0  0
   39.0387   15.2034   16.0124 C   0  0  0  0  0  0  0  0  0  0  0  0
   38.8931   14.9865   17.3708 F   0  0  0  0  0  0  0  0  0  0  0  0
   37.8017   15.4962   15.4689 F   0  0  0  0  0  0  0  0  0  0  0  0
   39.8909   16.2737   15.8157 F   0  0  0  0  0  0  0  0  0  0  0  0
   45.0728   12.2657   12.2348 H   0  0  0  0  0  0  0  0  0  0  0  0
   42.2294    9.9956    8.8616 H   0  0  0  0  0  0  0  0  0  0  0  0
   42.2327   11.9414    7.4766 H   0  0  0  0  0  0  0  0  0  0  0  0
   43.4994   13.1486    7.7822 H   0  0  0  0  0  0  0  0  0  0  0  0
   41.8744   14.2318    9.5285 H   0  0  0  0  0  0  0  0  0  0  0  0
   42.3196   15.2015    7.4605 H   0  0  0  0  0  0  0  0  0  0  0  0
   41.2592   14.1777    6.6370 H   0  0  0  0  0  0  0  0  0  0  0  0
   39.8994   12.4001    8.0166 H   0  0  0  0  0  0  0  0  0  0  0  0
   39.3809   13.8452    8.8916 H   0  0  0  0  0  0  0  0  0  0  0  0
   40.0646   11.0071   12.5353 H   0  0  0  0  0  0  0  0  0  0  0  0
   41.6991   11.7738   12.5459 H   0  0  0  0  0  0  0  0  0  0  0  0
   39.7894   14.8592   10.8092 H   0  0  0  0  0  0  0  0  0  0  0  0
   41.2691   14.6645   11.8111 H   0  0  0  0  0  0  0  0  0  0  0  0
   38.3218   14.5620   12.7017 H   0  0  0  0  0  0  0  0  0  0  0  0
   39.5915   15.7613   13.1712 H   0  0  0  0  0  0  0  0  0  0  0  0
  1  2  2  0
  2  3  1  0
  3  4  2  0
  4  5  1  0
  5  6  2  0
  1  6  1  0
  7  8  1  0
  8  9  1  0
  5  7  1  0
 10 11  1  0
 11 12  2  0
  8 10  1  0
 13 14  1  0
 11 13  1  0
 15 16  1  0
 16 17  1  0
 17 18  1  0
 14 18  1  0
 13 15  1  0
 19 20  2  0
 20 21  1  0
 17 19  1  0
 18 21  2  0
  1 22  1  0
  2 23  1  0
  4 24  1  0
 19 25  1  0
 25 26  1  0
 25 27  1  0
 25 28  1  0
  3 29  1  0
  6 30  1  0
  7 31  1  0
  7 32  1  0
  8 33  1  1
  9 34  1  0
  9 35  1  0
 10 36  1  0
 10 37  1  0
 14 38  1  0
 14 39  1  0
 15 40  1  0
 15 41  1  0
 16 42  1  0
 16 43  1  0
M  END
> <Uni-Dock RESULT> 
ENERGY=   -3.849  LOWER_BOUND=    7.970  UPPER_BOUND=    9.996
INTER + INTRA:          -3.849
INTER:                  -3.849
INTRA:                   0.000
UNBOUND:                 0.000

$$$$

     RDKit          3D

 43 45  0  0  0  0  0  0  0  0999 V2000
   47.9245    5.3881   22.1743 C   0  0  0  0  0  0  0  0  0  0  0  0
   48.5924    6.4258   22.8308 C   0  0  0  0  0  0  0  0  0  0  0  0
   49.8410    6.8531   22.3714 C   0  0  0  0  0  0  0  0  0  0  0  0
   50.4240    6.2486   21.2530 C   0  0  0  0  0  0  0  0  0  0  0  0
   49.7540    5.2084   20.5801 C   0  0  0  0  0  0  0  0  0  0  0  0
   48.5047    4.7769   21.0587 C   0  0  0  0  0  0  0  0  0  0  0  0
   50.3816    4.5370   19.3813 C   0  0  0  0  0  0  0  0  0  0  0  0
   50.4271    5.4494   18.1271 C   0  0  1  0  0  0  0  0  0  0  0  0
   51.4131    4.9382   17.1712 N   0  0  0  0  0  0  0  0  0  0  0  0
   49.0619    5.5587   17.4103 C   0  0  0  0  0  0  0  0  0  0  0  0
   48.0341    6.3605   18.1725 C   0  0  0  0  0  0  0  0  0  0  0  0
   47.0011    5.7561   18.5713 O   0  0  0  0  0  0  0  0  0  0  0  0
   48.1779    7.7763   18.4468 N   0  0  0  0  0  0  0  0  0  0  0  0
   47.4098    8.3475   19.5734 C   0  0  0  0  0  0  0  0  0  0  0  0
   49.2205    8.5992   17.7967 C   0  0  0  0  0  0  0  0  0  0  0  0
   48.6576    9.9635   17.3809 C   0  0  0  0  0  0  0  0  0  0  0  0
   47.9022   10.5351   18.4883 N   0  0  0  0  0  0  0  0  0  0  0  0
   47.2976    9.8342   19.4542 C   0  0  0  0  0  0  0  0  0  0  0  0
   47.5171   11.8025   18.7265 C   0  0  0  0  0  0  0  0  0  0  0  0
   46.7318   11.8690   19.8226 N   0  0  0  0  0  0  0  0  0  0  0  0
   46.5928   10.6304   20.2802 N   0  0  0  0  0  0  0  0  0  0  0  0
   46.7133    4.9712   22.6192 F   0  0  0  0  0  0  0  0  0  0  0  0
   48.0306    7.0193   23.9127 F   0  0  0  0  0  0  0  0  0  0  0  0
   51.6457    6.6681   20.8364 F   0  0  0  0  0  0  0  0  0  0  0  0
   47.9070   12.9897   17.9004 C   0  0  0  0  0  0  0  0  0  0  0  0
   47.2560   14.1222   18.3552 F   0  0  0  0  0  0  0  0  0  0  0  0
   47.5614   12.7726   16.5795 F   0  0  0  0  0  0  0  0  0  0  0  0
   49.2720   13.1875   17.9907 F   0  0  0  0  0  0  0  0  0  0  0  0
   50.3587    7.6539   22.8834 H   0  0  0  0  0  0  0  0  0  0  0  0
   47.9769    3.9710   20.5640 H   0  0  0  0  0  0  0  0  0  0  0  0
   49.8540    3.5886   19.1377 H   0  0  0  0  0  0  0  0  0  0  0  0
   51.4171    4.2477   19.6650 H   0  0  0  0  0  0  0  0  0  0  0  0
   50.7609    6.4626   18.4293 H   0  0  0  0  0  0  0  0  0  0  0  0
   52.3649    4.9935   17.6022 H   0  0  0  0  0  0  0  0  0  0  0  0
   51.2146    3.9298   16.9729 H   0  0  0  0  0  0  0  0  0  0  0  0
   48.6686    4.5339   17.2280 H   0  0  0  0  0  0  0  0  0  0  0  0
   49.1931    6.0060   16.4030 H   0  0  0  0  0  0  0  0  0  0  0  0
   46.3791    7.9340   19.5909 H   0  0  0  0  0  0  0  0  0  0  0  0
   47.9138    8.0956   20.5280 H   0  0  0  0  0  0  0  0  0  0  0  0
   49.6292    8.1144   16.8893 H   0  0  0  0  0  0  0  0  0  0  0  0
   50.0554    8.7560   18.5136 H   0  0  0  0  0  0  0  0  0  0  0  0
   47.9827    9.8369   16.5072 H   0  0  0  0  0  0  0  0  0  0  0  0
   49.4929   10.6384   17.0969 H   0  0  0  0  0  0  0  0  0  0  0  0
  1  2  2  0
  2  3  1  0
  3  4  2  0
  4  5  1  0
  5  6  2  0
  1  6  1  0
  7  8  1  0
  8  9  1  0
  5  7  1  0
 10 11  1  0
 11 12  2  0
  8 10  1  0
 13 14  1  0
 11 13  1  0
 15 16  1  0
 16 17  1  0
 17 18  1  0
 14 18  1  0
 13 15  1  0
 19 20  2  0
 20 21  1  0
 17 19  1  0
 18 21  2  0
  1 22  1  0
  2 23  1  0
  4 24  1  0
 19 25  1  0
 25 26  1  0
 25 27  1  0
 25 28  1  0
  3 29  1  0
  6 30  1  0
  7 31  1  0
  7 32  1  0
  8 33  1  1
  9 34  1  0
  9 35  1  0
 10 36  1  0
 10 37  1  0
 14 38  1  0
 14 39  1  0
 15 40  1  0
 15 41  1  0
 16 42  1  0
 16 43  1  0
M  END
> <Uni-Dock RESULT> 
ENERGY=   -3.818  LOWER_BOUND=    5.803  UPPER_BOUND=    8.068
INTER + INTRA:          -3.818
INTER:                  -3.818
INTRA:                   0.000
UNBOUND:                 0.000

$$$$

     RDKit          3D

 43 45  0  0  0  0  0  0  0  0999 V2000
   49.0313   11.3147   12.6893 C   0  0  0  0  0  0  0  0  0  0  0  0
   49.0244   10.7419   11.4143 C   0  0  0  0  0  0  0  0  0  0  0  0
   49.7310    9.5602   11.1759 C   0  0  0  0  0  0  0  0  0  0  0  0
   50.4428    8.9449   12.2108 C   0  0  0  0  0  0  0  0  0  0  0  0
   50.4478    9.5102   13.5008 C   0  0  0  0  0  0  0  0  0  0  0  0
   49.7450   10.7065   13.7265 C   0  0  0  0  0  0  0  0  0  0  0  0
   51.2267    8.8636   14.6220 C   0  0  0  0  0  0  0  0  0  0  0  0
   50.6027    7.5275   15.1049 C   0  0  1  0  0  0  0  0  0  0  0  0
   51.5997    6.7464   15.8419 N   0  0  0  0  0  0  0  0  0  0  0  0
   49.3701    7.7310   16.0153 C   0  0  0  0  0  0  0  0  0  0  0  0
   48.1497    8.2406   15.2864 C   0  0  0  0  0  0  0  0  0  0  0  0
   47.7142    9.3811   15.6042 O   0  0  0  0  0  0  0  0  0  0  0  0
   47.4617    7.4781   14.2639 N   0  0  0  0  0  0  0  0  0  0  0  0
   46.6216    8.2141   13.2954 C   0  0  0  0  0  0  0  0  0  0  0  0
   47.7516    6.0481   14.0235 C   0  0  0  0  0  0  0  0  0  0  0  0
   46.4572    5.2625   13.7821 C   0  0  0  0  0  0  0  0  0  0  0  0
   45.6252    5.9800   12.8247 N   0  0  0  0  0  0  0  0  0  0  0  0
   45.6470    7.3020   12.6206 C   0  0  0  0  0  0  0  0  0  0  0  0
   44.5956    5.5582   12.0673 C   0  0  0  0  0  0  0  0  0  0  0  0
   44.0349    6.5893   11.4001 N   0  0  0  0  0  0  0  0  0  0  0  0
   44.6958    7.6868   11.7488 N   0  0  0  0  0  0  0  0  0  0  0  0
   48.3471   12.4620   12.9224 F   0  0  0  0  0  0  0  0  0  0  0  0
   48.3325   11.3307   10.4077 F   0  0  0  0  0  0  0  0  0  0  0  0
   51.1367    7.8078   11.9510 F   0  0  0  0  0  0  0  0  0  0  0  0
   44.1298    4.1384   11.9625 C   0  0  0  0  0  0  0  0  0  0  0  0
   42.9874    4.0670   11.1859 F   0  0  0  0  0  0  0  0  0  0  0  0
   43.8478    3.6458   13.2230 F   0  0  0  0  0  0  0  0  0  0  0  0
   45.1195    3.3690   11.3803 F   0  0  0  0  0  0  0  0  0  0  0  0
   49.7281    9.1203   10.1871 H   0  0  0  0  0  0  0  0  0  0  0  0
   49.7446   11.1653   14.7075 H   0  0  0  0  0  0  0  0  0  0  0  0
   51.3351    9.5607   15.4819 H   0  0  0  0  0  0  0  0  0  0  0  0
   52.2567    8.6758   14.2477 H   0  0  0  0  0  0  0  0  0  0  0  0
   50.3064    6.9269   14.2212 H   0  0  0  0  0  0  0  0  0  0  0  0
   52.3749    6.4833   15.1904 H   0  0  0  0  0  0  0  0  0  0  0  0
   52.0123    7.3374   16.6010 H   0  0  0  0  0  0  0  0  0  0  0  0
   49.6374    8.4423   16.8283 H   0  0  0  0  0  0  0  0  0  0  0  0
   49.1127    6.7815   16.5291 H   0  0  0  0  0  0  0  0  0  0  0  0
   46.0378    9.0065   13.8100 H   0  0  0  0  0  0  0  0  0  0  0  0
   47.2696    8.6856   12.5295 H   0  0  0  0  0  0  0  0  0  0  0  0
   48.2740    5.5787   14.8792 H   0  0  0  0  0  0  0  0  0  0  0  0
   48.4020    5.9577   13.1266 H   0  0  0  0  0  0  0  0  0  0  0  0
   45.9021    5.1568   14.7389 H   0  0  0  0  0  0  0  0  0  0  0  0
   46.7040    4.2512   13.3944 H   0  0  0  0  0  0  0  0  0  0  0  0
  1  2  2  0
  2  3  1  0
  3  4  2  0
  4  5  1  0
  5  6  2  0
  1  6  1  0
  7  8  1  0
  8  9  1  0
  5  7  1  0
 10 11  1  0
 11 12  2  0
  8 10  1  0
 13 14  1  0
 11 13  1  0
 15 16  1  0
 16 17  1  0
 17 18  1  0
 14 18  1  0
 13 15  1  0
 19 20  2  0
 20 21  1  0
 17 19  1  0
 18 21  2  0
  1 22  1  0
  2 23  1  0
  4 24  1  0
 19 25  1  0
 25 26  1  0
 25 27  1  0
 25 28  1  0
  3 29  1  0
  6 30  1  0
  7 31  1  0
  7 32  1  0
  8 33  1  1
  9 34  1  0
  9 35  1  0
 10 36  1  0
 10 37  1  0
 14 38  1  0
 14 39  1  0
 15 40  1  0
 15 41  1  0
 16 42  1  0
 16 43  1  0
M  END
> <Uni-Dock RESULT> 
ENERGY=   -3.768  LOWER_BOUND=    2.439  UPPER_BOUND=    4.360
INTER + INTRA:          -3.768
INTER:                  -3.768
INTRA:                   0.000
UNBOUND:                 0.000

$$$$

     RDKit          3D

 43 45  0  0  0  0  0  0  0  0999 V2000
   48.8096    4.1427   19.1244 C   0  0  0  0  0  0  0  0  0  0  0  0
   49.0456    4.6294   20.4133 C   0  0  0  0  0  0  0  0  0  0  0  0
   50.1901    5.3871   20.6747 C   0  0  0  0  0  0  0  0  0  0  0  0
   51.0997    5.6647   19.6492 C   0  0  0  0  0  0  0  0  0  0  0  0
   50.8652    5.1860   18.3455 C   0  0  0  0  0  0  0  0  0  0  0  0
   49.7178    4.4131   18.0964 C   0  0  0  0  0  0  0  0  0  0  0  0
   51.8492    5.4654   17.2339 C   0  0  0  0  0  0  0  0  0  0  0  0
   51.8598    6.9522   16.7900 C   0  0  1  0  0  0  0  0  0  0  0  0
   53.0973    7.2493   16.0638 N   0  0  0  0  0  0  0  0  0  0  0  0
   50.6615    7.3209   15.8858 C   0  0  0  0  0  0  0  0  0  0  0  0
   49.3385    7.3649   16.6125 C   0  0  0  0  0  0  0  0  0  0  0  0
   48.4568    6.5302   16.2703 O   0  0  0  0  0  0  0  0  0  0  0  0
   49.0413    8.3216   17.6598 N   0  0  0  0  0  0  0  0  0  0  0  0
   47.9642    7.9918   18.6171 C   0  0  0  0  0  0  0  0  0  0  0  0
   49.9159    9.4823   17.9331 C   0  0  0  0  0  0  0  0  0  0  0  0
   49.0829   10.7404   18.2055 C   0  0  0  0  0  0  0  0  0  0  0  0
   48.0211   10.4241   19.1521 N   0  0  0  0  0  0  0  0  0  0  0  0
   47.4732    9.2156   19.3230 C   0  0  0  0  0  0  0  0  0  0  0  0
   47.2698   11.2266   19.9288 C   0  0  0  0  0  0  0  0  0  0  0  0
   46.3194   10.5184   20.5751 N   0  0  0  0  0  0  0  0  0  0  0  0
   46.4466    9.2531   20.1934 N   0  0  0  0  0  0  0  0  0  0  0  0
   47.7000    3.4062   18.8689 F   0  0  0  0  0  0  0  0  0  0  0  0
   48.1653    4.3678   21.4110 F   0  0  0  0  0  0  0  0  0  0  0  0
   52.2135    6.3872   19.9311 F   0  0  0  0  0  0  0  0  0  0  0  0
   47.4578   12.7056   20.0731 C   0  0  0  0  0  0  0  0  0  0  0  0
   46.4543   13.2396   20.8613 F   0  0  0  0  0  0  0  0  0  0  0  0
   47.4177   13.3045   18.8278 F   0  0  0  0  0  0  0  0  0  0  0  0
   48.6802   12.9607   20.6655 F   0  0  0  0  0  0  0  0  0  0  0  0
   50.3735    5.7597   21.6742 H   0  0  0  0  0  0  0  0  0  0  0  0
   49.5233    4.0248   17.1043 H   0  0  0  0  0  0  0  0  0  0  0  0
   51.6504    4.8121   16.3560 H   0  0  0  0  0  0  0  0  0  0  0  0
   52.8591    5.1834   17.6036 H   0  0  0  0  0  0  0  0  0  0  0  0
   51.8474    7.5984   17.6910 H   0  0  0  0  0  0  0  0  0  0  0  0
   53.9088    7.1373   16.7147 H   0  0  0  0  0  0  0  0  0  0  0  0
   53.2186    6.5587   15.2866 H   0  0  0  0  0  0  0  0  0  0  0  0
   50.6000    6.5854   15.0530 H   0  0  0  0  0  0  0  0  0  0  0  0
   50.8375    8.3022   15.3981 H   0  0  0  0  0  0  0  0  0  0  0  0
   47.0983    7.5401   18.0882 H   0  0  0  0  0  0  0  0  0  0  0  0
   48.3452    7.2680   19.3652 H   0  0  0  0  0  0  0  0  0  0  0  0
   50.5914    9.7046   17.0848 H   0  0  0  0  0  0  0  0  0  0  0  0
   50.5398    9.2614   18.8262 H   0  0  0  0  0  0  0  0  0  0  0  0
   48.6293   11.0990   17.2566 H   0  0  0  0  0  0  0  0  0  0  0  0
   49.7386   11.5376   18.6160 H   0  0  0  0  0  0  0  0  0  0  0  0
  1  2  2  0
  2  3  1  0
  3  4  2  0
  4  5  1  0
  5  6  2  0
  1  6  1  0
  7  8  1  0
  8  9  1  0
  5  7  1  0
 10 11  1  0
 11 12  2  0
  8 10  1  0
 13 14  1  0
 11 13  1  0
 15 16  1  0
 16 17  1  0
 17 18  1  0
 14 18  1  0
 13 15  1  0
 19 20  2  0
 20 21  1  0
 17 19  1  0
 18 21  2  0
  1 22  1  0
  2 23  1  0
  4 24  1  0
 19 25  1  0
 25 26  1  0
 25 27  1  0
 25 28  1  0
  3 29  1  0
  6 30  1  0
  7 31  1  0
  7 32  1  0
  8 33  1  1
  9 34  1  0
  9 35  1  0
 10 36  1  0
 10 37  1  0
 14 38  1  0
 14 39  1  0
 15 40  1  0
 15 41  1  0
 16 42  1  0
 16 43  1  0
M  END
> <Uni-Dock RESULT> 
ENERGY=   -3.525  LOWER_BOUND=    5.243  UPPER_BOUND=    7.570
INTER + INTRA:          -3.525
INTER:                  -3.525
INTRA:                   0.000
UNBOUND:                 0.000

$$$$
