
     RDKit          3D

 43 45  0  0  0  0  0  0  0  0999 V2000
   43.8554    2.5094   10.8596 C   0  0  0  0  0  0  0  0  0  0  0  0
   44.4111    2.5301    9.5768 C   0  0  0  0  0  0  0  0  0  0  0  0
   45.0078    3.6975    9.0928 C   0  0  0  0  0  0  0  0  0  0  0  0
   45.0512    4.8475    9.8878 C   0  0  0  0  0  0  0  0  0  0  0  0
   44.4907    4.8360   11.1790 C   0  0  0  0  0  0  0  0  0  0  0  0
   43.8950    3.6565   11.6584 C   0  0  0  0  0  0  0  0  0  0  0  0
   44.5515    6.0645   12.0551 C   0  0  0  0  0  0  0  0  0  0  0  0
   45.9379    6.2558   12.7020 C   0  0  1  0  0  0  0  0  0  0  0  0
   45.9833    7.5771   13.3372 N   0  0  0  0  0  0  0  0  0  0  0  0
   46.2491    5.1335   13.7221 C   0  0  0  0  0  0  0  0  0  0  0  0
   47.6295    5.2820   14.3104 C   0  0  0  0  0  0  0  0  0  0  0  0
   48.6249    5.2370   13.5376 O   0  0  0  0  0  0  0  0  0  0  0  0
   47.8358    5.5087   15.7182 N   0  0  0  0  0  0  0  0  0  0  0  0
   48.8121    6.5428   16.1124 C   0  0  0  0  0  0  0  0  0  0  0  0
   46.9189    4.9157   16.7118 C   0  0  0  0  0  0  0  0  0  0  0  0
   47.6728    4.4950   17.9792 C   0  0  0  0  0  0  0  0  0  0  0  0
   48.5705    5.5660   18.3917 N   0  0  0  0  0  0  0  0  0  0  0  0
   49.1260    6.4662   17.5726 C   0  0  0  0  0  0  0  0  0  0  0  0
   49.1608    5.8076   19.5771 C   0  0  0  0  0  0  0  0  0  0  0  0
   50.0218    6.8431   19.4839 N   0  0  0  0  0  0  0  0  0  0  0  0
   50.0017    7.2563   18.2223 N   0  0  0  0  0  0  0  0  0  0  0  0
   43.2792    1.3765   11.3322 F   0  0  0  0  0  0  0  0  0  0  0  0
   44.3730    1.4186    8.8010 F   0  0  0  0  0  0  0  0  0  0  0  0
   45.6366    5.9701    9.3988 F   0  0  0  0  0  0  0  0  0  0  0  0
   48.9056    5.0395   20.8377 C   0  0  0  0  0  0  0  0  0  0  0  0
   49.7486    5.4782   21.8431 F   0  0  0  0  0  0  0  0  0  0  0  0
   47.5949    5.2259   21.2353 F   0  0  0  0  0  0  0  0  0  0  0  0
   49.1313    3.6933   20.6175 F   0  0  0  0  0  0  0  0  0  0  0  0
   45.4382    3.7115    8.0997 H   0  0  0  0  0  0  0  0  0  0  0  0
   43.4672    3.6242   12.6530 H   0  0  0  0  0  0  0  0  0  0  0  0
   43.7713    6.0163   12.8468 H   0  0  0  0  0  0  0  0  0  0  0  0
   44.3125    6.9558   11.4343 H   0  0  0  0  0  0  0  0  0  0  0  0
   46.7035    6.2309   11.8939 H   0  0  0  0  0  0  0  0  0  0  0  0
   45.4168    7.5638   14.2169 H   0  0  0  0  0  0  0  0  0  0  0  0
   46.9709    7.8008   13.5979 H   0  0  0  0  0  0  0  0  0  0  0  0
   45.4702    5.1432   14.5121 H   0  0  0  0  0  0  0  0  0  0  0  0
   46.2047    4.1436   13.2214 H   0  0  0  0  0  0  0  0  0  0  0  0
   49.7608    6.4020   15.5519 H   0  0  0  0  0  0  0  0  0  0  0  0
   48.4016    7.5474   15.8768 H   0  0  0  0  0  0  0  0  0  0  0  0
   46.4208    4.0123   16.2975 H   0  0  0  0  0  0  0  0  0  0  0  0
   46.1383    5.6619   16.9753 H   0  0  0  0  0  0  0  0  0  0  0  0
   46.9437    4.2717   18.7869 H   0  0  0  0  0  0  0  0  0  0  0  0
   48.2702    3.5814   17.7705 H   0  0  0  0  0  0  0  0  0  0  0  0
  1  2  2  0
  2  3  1  0
  3  4  2  0
  4  5  1  0
  5  6  2  0
  1  6  1  0
  7  8  1  0
  8  9  1  0
  5  7  1  0
 10 11  1  0
 11 12  2  0
  8 10  1  0
 13 14  1  0
 11 13  1  0
 15 16  1  0
 16 17  1  0
 17 18  1  0
 14 18  1  0
 13 15  1  0
 19 20  2  0
 20 21  1  0
 17 19  1  0
 18 21  2  0
  1 22  1  0
  2 23  1  0
  4 24  1  0
 19 25  1  0
 25 26  1  0
 25 27  1  0
 25 28  1  0
  3 29  1  0
  6 30  1  0
  7 31  1  0
  7 32  1  0
  8 33  1  6
  9 34  1  0
  9 35  1  0
 10 36  1  0
 10 37  1  0
 14 38  1  0
 14 39  1  0
 15 40  1  0
 15 41  1  0
 16 42  1  0
 16 43  1  0
M  END
> <Uni-Dock RESULT> 
ENERGY=   -4.036  LOWER_BOUND=    0.000  UPPER_BOUND=    0.000
INTER + INTRA:          -4.036
INTER:                  -4.036
INTRA:                   0.000
UNBOUND:                 0.000

$$$$

     RDKit          3D

 43 45  0  0  0  0  0  0  0  0999 V2000
   49.4367   13.9395   13.1759 C   0  0  0  0  0  0  0  0  0  0  0  0
   50.8266   14.0838   13.1311 C   0  0  0  0  0  0  0  0  0  0  0  0
   51.6380   13.2889   13.9455 C   0  0  0  0  0  0  0  0  0  0  0  0
   51.0642   12.3483   14.8070 C   0  0  0  0  0  0  0  0  0  0  0  0
   49.6655   12.1995   14.8608 C   0  0  0  0  0  0  0  0  0  0  0  0
   48.8575   13.0014   14.0361 C   0  0  0  0  0  0  0  0  0  0  0  0
   49.0354   11.1718   15.7704 C   0  0  0  0  0  0  0  0  0  0  0  0
   49.1251    9.7445   15.1939 C   0  0  1  0  0  0  0  0  0  0  0  0
   48.7089    8.7915   16.2283 N   0  0  0  0  0  0  0  0  0  0  0  0
   48.2658    9.5930   13.9150 C   0  0  0  0  0  0  0  0  0  0  0  0
   48.4003    8.2170   13.3129 C   0  0  0  0  0  0  0  0  0  0  0  0
   49.5383    7.8331   12.9286 O   0  0  0  0  0  0  0  0  0  0  0  0
   47.2761    7.3231   13.2001 N   0  0  0  0  0  0  0  0  0  0  0  0
   47.4767    5.9134   13.5878 C   0  0  0  0  0  0  0  0  0  0  0  0
   45.9206    7.8556   12.9579 C   0  0  0  0  0  0  0  0  0  0  0  0
   45.1135    6.9223   12.0471 C   0  0  0  0  0  0  0  0  0  0  0  0
   45.2652    5.5460   12.5009 N   0  0  0  0  0  0  0  0  0  0  0  0
   46.3280    5.0605   13.1525 C   0  0  0  0  0  0  0  0  0  0  0  0
   44.5161    4.4547   12.2564 C   0  0  0  0  0  0  0  0  0  0  0  0
   45.0932    3.3492   12.7733 N   0  0  0  0  0  0  0  0  0  0  0  0
   46.2342    3.7298   13.3353 N   0  0  0  0  0  0  0  0  0  0  0  0
   48.6480   14.7073   12.3838 F   0  0  0  0  0  0  0  0  0  0  0  0
   51.3896   14.9933   12.2977 F   0  0  0  0  0  0  0  0  0  0  0  0
   51.8705   11.5858   15.5883 F   0  0  0  0  0  0  0  0  0  0  0  0
   43.2154    4.4527   11.5131 C   0  0  0  0  0  0  0  0  0  0  0  0
   42.7605    3.1563   11.3504 F   0  0  0  0  0  0  0  0  0  0  0  0
   42.2753    5.1743   12.2245 F   0  0  0  0  0  0  0  0  0  0  0  0
   43.3890    5.0276   10.2677 F   0  0  0  0  0  0  0  0  0  0  0  0
   52.7140   13.4014   13.9089 H   0  0  0  0  0  0  0  0  0  0  0  0
   47.7797   12.8950   14.0553 H   0  0  0  0  0  0  0  0  0  0  0  0
   47.9718   11.4297   15.9704 H   0  0  0  0  0  0  0  0  0  0  0  0
   49.5548   11.2013   16.7534 H   0  0  0  0  0  0  0  0  0  0  0  0
   50.1896    9.5401   14.9394 H   0  0  0  0  0  0  0  0  0  0  0  0
   47.6700    8.8321   16.3460 H   0  0  0  0  0  0  0  0  0  0  0  0
   48.9573    7.8223   15.9244 H   0  0  0  0  0  0  0  0  0  0  0  0
   47.2097    9.8228   14.1652 H   0  0  0  0  0  0  0  0  0  0  0  0
   48.5947   10.3259   13.1487 H   0  0  0  0  0  0  0  0  0  0  0  0
   48.3971    5.5158   13.1093 H   0  0  0  0  0  0  0  0  0  0  0  0
   47.5876    5.8458   14.6908 H   0  0  0  0  0  0  0  0  0  0  0  0
   45.9712    8.8508   12.4647 H   0  0  0  0  0  0  0  0  0  0  0  0
   45.3961    7.9683   13.9314 H   0  0  0  0  0  0  0  0  0  0  0  0
   44.0432    7.2187   12.0684 H   0  0  0  0  0  0  0  0  0  0  0  0
   45.4893    7.0039   11.0045 H   0  0  0  0  0  0  0  0  0  0  0  0
  1  2  2  0
  2  3  1  0
  3  4  2  0
  4  5  1  0
  5  6  2  0
  1  6  1  0
  7  8  1  0
  8  9  1  0
  5  7  1  0
 10 11  1  0
 11 12  2  0
  8 10  1  0
 13 14  1  0
 11 13  1  0
 15 16  1  0
 16 17  1  0
 17 18  1  0
 14 18  1  0
 13 15  1  0
 19 20  2  0
 20 21  1  0
 17 19  1  0
 18 21  2  0
  1 22  1  0
  2 23  1  0
  4 24  1  0
 19 25  1  0
 25 26  1  0
 25 27  1  0
 25 28  1  0
  3 29  1  0
  6 30  1  0
  7 31  1  0
  7 32  1  0
  8 33  1  6
  9 34  1  0
  9 35  1  0
 10 36  1  0
 10 37  1  0
 14 38  1  0
 14 39  1  0
 15 40  1  0
 15 41  1  0
 16 42  1  0
 16 43  1  0
M  END
> <Uni-Dock RESULT> 
ENERGY=   -3.927  LOWER_BOUND=    5.194  UPPER_BOUND=    9.377
INTER + INTRA:          -3.927
INTER:                  -3.927
INTRA:                   0.000
UNBOUND:                 0.000

$$$$

     RDKit          3D

 43 45  0  0  0  0  0  0  0  0999 V2000
   44.0608    3.0545   11.8602 C   0  0  0  0  0  0  0  0  0  0  0  0
   44.2235    2.9692   10.4742 C   0  0  0  0  0  0  0  0  0  0  0  0
   44.5731    4.1063    9.7407 C   0  0  0  0  0  0  0  0  0  0  0  0
   44.7608    5.3317   10.3886 C   0  0  0  0  0  0  0  0  0  0  0  0
   44.5952    5.4267   11.7832 C   0  0  0  0  0  0  0  0  0  0  0  0
   44.2463    4.2772   12.5131 C   0  0  0  0  0  0  0  0  0  0  0  0
   44.8172    6.7390   12.4967 C   0  0  0  0  0  0  0  0  0  0  0  0
   46.3137    7.0543   12.6929 C   0  0  1  0  0  0  0  0  0  0  0  0
   46.4456    8.4337   13.1736 N   0  0  0  0  0  0  0  0  0  0  0  0
   46.9819    6.0554   13.6690 C   0  0  0  0  0  0  0  0  0  0  0  0
   48.4589    6.3219   13.8148 C   0  0  0  0  0  0  0  0  0  0  0  0
   49.1923    6.2419   12.7922 O   0  0  0  0  0  0  0  0  0  0  0  0
   49.0427    6.6985   15.0771 N   0  0  0  0  0  0  0  0  0  0  0  0
   50.0155    7.8082   15.0810 C   0  0  0  0  0  0  0  0  0  0  0  0
   48.4924    6.1701   16.3410 C   0  0  0  0  0  0  0  0  0  0  0  0
   49.6050    5.9126   17.3645 C   0  0  0  0  0  0  0  0  0  0  0  0
   50.5053    7.0575   17.4056 N   0  0  0  0  0  0  0  0  0  0  0  0
   50.7385    7.8934   16.3874 C   0  0  0  0  0  0  0  0  0  0  0  0
   51.3914    7.4430   18.3428 C   0  0  0  0  0  0  0  0  0  0  0  0
   52.1146    8.4998   17.9158 N   0  0  0  0  0  0  0  0  0  0  0  0
   51.7054    8.7821   16.6846 N   0  0  0  0  0  0  0  0  0  0  0  0
   43.7252    1.9515   12.5740 F   0  0  0  0  0  0  0  0  0  0  0  0
   44.0436    1.7844    9.8398 F   0  0  0  0  0  0  0  0  0  0  0  0
   45.1012    6.4232    9.6573 F   0  0  0  0  0  0  0  0  0  0  0  0
   51.5622    6.7960   19.6832 C   0  0  0  0  0  0  0  0  0  0  0  0
   52.6244    7.3701   20.3585 F   0  0  0  0  0  0  0  0  0  0  0  0
   50.4102    6.9651   20.4282 F   0  0  0  0  0  0  0  0  0  0  0  0
   51.8098    5.4455   19.5211 F   0  0  0  0  0  0  0  0  0  0  0  0
   44.6994    4.0383    8.6678 H   0  0  0  0  0  0  0  0  0  0  0  0
   44.1241    4.3273   13.5882 H   0  0  0  0  0  0  0  0  0  0  0  0
   44.3015    6.7375   13.4825 H   0  0  0  0  0  0  0  0  0  0  0  0
   44.3485    7.5518   11.8996 H   0  0  0  0  0  0  0  0  0  0  0  0
   46.8160    6.9808   11.7020 H   0  0  0  0  0  0  0  0  0  0  0  0
   46.1567    8.4851   14.1780 H   0  0  0  0  0  0  0  0  0  0  0  0
   47.4481    8.7250   13.1153 H   0  0  0  0  0  0  0  0  0  0  0  0
   46.4629    6.1113   14.6479 H   0  0  0  0  0  0  0  0  0  0  0  0
   46.8661    5.0189   13.2883 H   0  0  0  0  0  0  0  0  0  0  0  0
   50.7717    7.6525   14.2823 H   0  0  0  0  0  0  0  0  0  0  0  0
   49.4849    8.7652   14.8913 H   0  0  0  0  0  0  0  0  0  0  0  0
   47.9616    5.2088   16.1676 H   0  0  0  0  0  0  0  0  0  0  0  0
   47.7692    6.9048   16.7566 H   0  0  0  0  0  0  0  0  0  0  0  0
   49.1549    5.7410   18.3655 H   0  0  0  0  0  0  0  0  0  0  0  0
   50.1806    5.0092   17.0686 H   0  0  0  0  0  0  0  0  0  0  0  0
  1  2  2  0
  2  3  1  0
  3  4  2  0
  4  5  1  0
  5  6  2  0
  1  6  1  0
  7  8  1  0
  8  9  1  0
  5  7  1  0
 10 11  1  0
 11 12  2  0
  8 10  1  0
 13 14  1  0
 11 13  1  0
 15 16  1  0
 16 17  1  0
 17 18  1  0
 14 18  1  0
 13 15  1  0
 19 20  2  0
 20 21  1  0
 17 19  1  0
 18 21  2  0
  1 22  1  0
  2 23  1  0
  4 24  1  0
 19 25  1  0
 25 26  1  0
 25 27  1  0
 25 28  1  0
  3 29  1  0
  6 30  1  0
  7 31  1  0
  7 32  1  0
  8 33  1  6
  9 34  1  0
  9 35  1  0
 10 36  1  0
 10 37  1  0
 14 38  1  0
 14 39  1  0
 15 40  1  0
 15 41  1  0
 16 42  1  0
 16 43  1  0
M  END
> <Uni-Dock RESULT> 
ENERGY=   -3.919  LOWER_BOUND=    1.754  UPPER_BOUND=    2.096
INTER + INTRA:          -3.919
INTER:                  -3.919
INTRA:                   0.000
UNBOUND:                 0.000

$$$$

     RDKit          3D

 43 45  0  0  0  0  0  0  0  0999 V2000
   47.5608   14.8886   10.7335 C   0  0  0  0  0  0  0  0  0  0  0  0
   48.8160   15.2679   10.2485 C   0  0  0  0  0  0  0  0  0  0  0  0
   49.9754   14.8430   10.9031 C   0  0  0  0  0  0  0  0  0  0  0  0
   49.8849   14.0386   12.0438 C   0  0  0  0  0  0  0  0  0  0  0  0
   48.6249   13.6554   12.5406 C   0  0  0  0  0  0  0  0  0  0  0  0
   47.4643   14.0852   11.8740 C   0  0  0  0  0  0  0  0  0  0  0  0
   48.5150   12.7686   13.7580 C   0  0  0  0  0  0  0  0  0  0  0  0
   48.7926   11.2874   13.4318 C   0  0  1  0  0  0  0  0  0  0  0  0
   48.8971   10.5396   14.6893 N   0  0  0  0  0  0  0  0  0  0  0  0
   47.6955   10.6917   12.5160 C   0  0  0  0  0  0  0  0  0  0  0  0
   47.9962    9.2617   12.1437 C   0  0  0  0  0  0  0  0  0  0  0  0
   49.0547    9.0122   11.5055 O   0  0  0  0  0  0  0  0  0  0  0  0
   47.1287    8.1774   12.5278 N   0  0  0  0  0  0  0  0  0  0  0  0
   47.7539    6.9556   13.0701 C   0  0  0  0  0  0  0  0  0  0  0  0
   45.6699    8.3850   12.6183 C   0  0  0  0  0  0  0  0  0  0  0  0
   44.9036    7.1364   12.1647 C   0  0  0  0  0  0  0  0  0  0  0  0
   45.4918    5.9529   12.7781 N   0  0  0  0  0  0  0  0  0  0  0  0
   46.7707    5.8316   13.1519 C   0  0  0  0  0  0  0  0  0  0  0  0
   44.9890    4.7174   12.9592 C   0  0  0  0  0  0  0  0  0  0  0  0
   45.9270    3.8843   13.4578 N   0  0  0  0  0  0  0  0  0  0  0  0
   47.0486    4.5847   13.5772 N   0  0  0  0  0  0  0  0  0  0  0  0
   46.4348   15.2969   10.0975 F   0  0  0  0  0  0  0  0  0  0  0  0
   48.9110   16.0472    9.1428 F   0  0  0  0  0  0  0  0  0  0  0  0
   51.0233   13.6361   12.6635 F   0  0  0  0  0  0  0  0  0  0  0  0
   43.5806    4.3084   12.6535 C   0  0  0  0  0  0  0  0  0  0  0  0
   43.4234    2.9491   12.8575 F   0  0  0  0  0  0  0  0  0  0  0  0
   42.7106    4.9920   13.4818 F   0  0  0  0  0  0  0  0  0  0  0  0
   43.2853    4.6020   11.3351 F   0  0  0  0  0  0  0  0  0  0  0  0
   50.9464   15.1371   10.5258 H   0  0  0  0  0  0  0  0  0  0  0  0
   46.4857   13.7927   12.2345 H   0  0  0  0  0  0  0  0  0  0  0  0
   47.5089   12.8686   14.2222 H   0  0  0  0  0  0  0  0  0  0  0  0
   49.2469   13.1178   14.5191 H   0  0  0  0  0  0  0  0  0  0  0  0
   49.7727   11.2260   12.9071 H   0  0  0  0  0  0  0  0  0  0  0  0
   47.9449   10.4173   15.1057 H   0  0  0  0  0  0  0  0  0  0  0  0
   49.2836    9.5879   14.4936 H   0  0  0  0  0  0  0  0  0  0  0  0
   46.7160   10.7777   13.0298 H   0  0  0  0  0  0  0  0  0  0  0  0
   47.6308   11.2751   11.5737 H   0  0  0  0  0  0  0  0  0  0  0  0
   48.5877    6.6318   12.4114 H   0  0  0  0  0  0  0  0  0  0  0  0
   48.1575    7.1656   14.0832 H   0  0  0  0  0  0  0  0  0  0  0  0
   45.3521    9.2318   11.9716 H   0  0  0  0  0  0  0  0  0  0  0  0
   45.4021    8.6224   13.6707 H   0  0  0  0  0  0  0  0  0  0  0  0
   43.8360    7.2307   12.4567 H   0  0  0  0  0  0  0  0  0  0  0  0
   44.9678    7.0419   11.0594 H   0  0  0  0  0  0  0  0  0  0  0  0
  1  2  2  0
  2  3  1  0
  3  4  2  0
  4  5  1  0
  5  6  2  0
  1  6  1  0
  7  8  1  0
  8  9  1  0
  5  7  1  0
 10 11  1  0
 11 12  2  0
  8 10  1  0
 13 14  1  0
 11 13  1  0
 15 16  1  0
 16 17  1  0
 17 18  1  0
 14 18  1  0
 13 15  1  0
 19 20  2  0
 20 21  1  0
 17 19  1  0
 18 21  2  0
  1 22  1  0
  2 23  1  0
  4 24  1  0
 19 25  1  0
 25 26  1  0
 25 27  1  0
 25 28  1  0
  3 29  1  0
  6 30  1  0
  7 31  1  0
  7 32  1  0
  8 33  1  6
  9 34  1  0
  9 35  1  0
 10 36  1  0
 10 37  1  0
 14 38  1  0
 14 39  1  0
 15 40  1  0
 15 41  1  0
 16 42  1  0
 16 43  1  0
M  END
> <Uni-Dock RESULT> 
ENERGY=   -3.831  LOWER_BOUND=    5.940  UPPER_BOUND=    9.111
INTER + INTRA:          -3.831
INTER:                  -3.831
INTRA:                   0.000
UNBOUND:                 0.000

$$$$

     RDKit          3D

 43 45  0  0  0  0  0  0  0  0999 V2000
   53.3052    6.8037   17.4602 C   0  0  0  0  0  0  0  0  0  0  0  0
   53.6277    7.9523   18.1892 C   0  0  0  0  0  0  0  0  0  0  0  0
   53.5173    9.2117   17.5934 C   0  0  0  0  0  0  0  0  0  0  0  0
   53.0851    9.3280   16.2682 C   0  0  0  0  0  0  0  0  0  0  0  0
   52.7621    8.1763   15.5263 C   0  0  0  0  0  0  0  0  0  0  0  0
   52.8735    6.9139   16.1347 C   0  0  0  0  0  0  0  0  0  0  0  0
   52.2727    8.2905   14.1022 C   0  0  0  0  0  0  0  0  0  0  0  0
   50.7908    8.7088   14.0228 C   0  0  1  0  0  0  0  0  0  0  0  0
   50.4638    9.0223   12.6277 N   0  0  0  0  0  0  0  0  0  0  0  0
   49.8583    7.6066   14.5820 C   0  0  0  0  0  0  0  0  0  0  0  0
   48.4133    8.0372   14.5641 C   0  0  0  0  0  0  0  0  0  0  0  0
   48.0755    9.0511   15.2333 O   0  0  0  0  0  0  0  0  0  0  0  0
   47.4234    7.3455   13.7782 N   0  0  0  0  0  0  0  0  0  0  0  0
   46.4766    8.1606   12.9927 C   0  0  0  0  0  0  0  0  0  0  0  0
   47.5241    5.8880   13.5661 C   0  0  0  0  0  0  0  0  0  0  0  0
   46.1368    5.2348   13.5414 C   0  0  0  0  0  0  0  0  0  0  0  0
   45.2444    6.0157   12.6946 N   0  0  0  0  0  0  0  0  0  0  0  0
   45.3491    7.3300   12.4678 C   0  0  0  0  0  0  0  0  0  0  0  0
   44.0812    5.6827   12.1047 C   0  0  0  0  0  0  0  0  0  0  0  0
   43.5175    6.7566   11.5119 N   0  0  0  0  0  0  0  0  0  0  0  0
   44.3140    7.7936   11.7420 N   0  0  0  0  0  0  0  0  0  0  0  0
   53.4082    5.5812   18.0378 F   0  0  0  0  0  0  0  0  0  0  0  0
   54.0468    7.8469   19.4745 F   0  0  0  0  0  0  0  0  0  0  0  0
   52.9837   10.5607   15.7094 F   0  0  0  0  0  0  0  0  0  0  0  0
   43.4817    4.3098   12.0985 C   0  0  0  0  0  0  0  0  0  0  0  0
   42.2369    4.3352   11.4952 F   0  0  0  0  0  0  0  0  0  0  0  0
   44.3050    3.4491   11.3970 F   0  0  0  0  0  0  0  0  0  0  0  0
   43.3427    3.8557   13.3969 F   0  0  0  0  0  0  0  0  0  0  0  0
   53.7666   10.1000   18.1596 H   0  0  0  0  0  0  0  0  0  0  0  0
   52.6200    6.0163   15.5840 H   0  0  0  0  0  0  0  0  0  0  0  0
   52.4210    7.3293   13.5619 H   0  0  0  0  0  0  0  0  0  0  0  0
   52.8938    9.0460   13.5727 H   0  0  0  0  0  0  0  0  0  0  0  0
   50.6591    9.6339   14.6282 H   0  0  0  0  0  0  0  0  0  0  0  0
   50.3910    8.1361   12.0761 H   0  0  0  0  0  0  0  0  0  0  0  0
   49.5334    9.4981   12.5901 H   0  0  0  0  0  0  0  0  0  0  0  0
   50.0103    6.6782   13.9941 H   0  0  0  0  0  0  0  0  0  0  0  0
   50.1264    7.3824   15.6358 H   0  0  0  0  0  0  0  0  0  0  0  0
   46.0430    8.9593   13.6316 H   0  0  0  0  0  0  0  0  0  0  0  0
   47.0126    8.6325   12.1423 H   0  0  0  0  0  0  0  0  0  0  0  0
   48.1093    5.4111   14.3823 H   0  0  0  0  0  0  0  0  0  0  0  0
   48.0409    5.6971   12.6007 H   0  0  0  0  0  0  0  0  0  0  0  0
   46.2230    4.1968   13.1552 H   0  0  0  0  0  0  0  0  0  0  0  0
   45.7227    5.2026   14.5720 H   0  0  0  0  0  0  0  0  0  0  0  0
  1  2  2  0
  2  3  1  0
  3  4  2  0
  4  5  1  0
  5  6  2  0
  1  6  1  0
  7  8  1  0
  8  9  1  0
  5  7  1  0
 10 11  1  0
 11 12  2  0
  8 10  1  0
 13 14  1  0
 11 13  1  0
 15 16  1  0
 16 17  1  0
 17 18  1  0
 14 18  1  0
 13 15  1  0
 19 20  2  0
 20 21  1  0
 17 19  1  0
 18 21  2  0
  1 22  1  0
  2 23  1  0
  4 24  1  0
 19 25  1  0
 25 26  1  0
 25 27  1  0
 25 28  1  0
  3 29  1  0
  6 30  1  0
  7 31  1  0
  7 32  1  0
  8 33  1  6
  9 34  1  0
  9 35  1  0
 10 36  1  0
 10 37  1  0
 14 38  1  0
 14 39  1  0
 15 40  1  0
 15 41  1  0
 16 42  1  0
 16 43  1  0
M  END
> <Uni-Dock RESULT> 
ENERGY=   -3.830  LOWER_BOUND=    3.759  UPPER_BOUND=    9.299
INTER + INTRA:          -3.830
INTER:                  -3.830
INTRA:                   0.000
UNBOUND:                 0.000

$$$$

     RDKit          3D

 43 45  0  0  0  0  0  0  0  0999 V2000
   44.7277    6.8553   12.0577 C   0  0  0  0  0  0  0  0  0  0  0  0
   44.2388    5.6839   12.6438 C   0  0  0  0  0  0  0  0  0  0  0  0
   45.1064    4.8344   13.3358 C   0  0  0  0  0  0  0  0  0  0  0  0
   46.4643    5.1517   13.4444 C   0  0  0  0  0  0  0  0  0  0  0  0
   46.9651    6.3273   12.8541 C   0  0  0  0  0  0  0  0  0  0  0  0
   46.0846    7.1771   12.1623 C   0  0  0  0  0  0  0  0  0  0  0  0
   48.4248    6.6919   12.9838 C   0  0  0  0  0  0  0  0  0  0  0  0
   48.7595    7.2904   14.3648 C   0  0  1  0  0  0  0  0  0  0  0  0
   50.2169    7.3964   14.4918 N   0  0  0  0  0  0  0  0  0  0  0  0
   48.0785    8.6658   14.5685 C   0  0  0  0  0  0  0  0  0  0  0  0
   48.3522    9.2254   15.9417 C   0  0  0  0  0  0  0  0  0  0  0  0
   47.9652    8.5733   16.9492 O   0  0  0  0  0  0  0  0  0  0  0  0
   49.0716   10.4594   16.1306 N   0  0  0  0  0  0  0  0  0  0  0  0
   50.1182   10.4931   17.1703 C   0  0  0  0  0  0  0  0  0  0  0  0
   48.9442   11.5550   15.1493 C   0  0  0  0  0  0  0  0  0  0  0  0
   48.9789   12.9238   15.8400 C   0  0  0  0  0  0  0  0  0  0  0  0
   50.0713   12.9570   16.8037 N   0  0  0  0  0  0  0  0  0  0  0  0
   50.5695   11.8926   17.4430 C   0  0  0  0  0  0  0  0  0  0  0  0
   50.6992   13.9979   17.3817 C   0  0  0  0  0  0  0  0  0  0  0  0
   51.5735   13.5728   18.3183 N   0  0  0  0  0  0  0  0  0  0  0  0
   51.4905   12.2483   18.3585 N   0  0  0  0  0  0  0  0  0  0  0  0
   43.8868    7.6826   11.3889 F   0  0  0  0  0  0  0  0  0  0  0  0
   42.9234    5.3705   12.5428 F   0  0  0  0  0  0  0  0  0  0  0  0
   47.2891    4.3134   14.1220 F   0  0  0  0  0  0  0  0  0  0  0  0
   50.4692   15.4385   17.0410 C   0  0  0  0  0  0  0  0  0  0  0  0
   51.1983   16.2521   17.8898 F   0  0  0  0  0  0  0  0  0  0  0  0
   50.8670   15.6746   15.7385 F   0  0  0  0  0  0  0  0  0  0  0  0
   49.1264   15.7403   17.1726 F   0  0  0  0  0  0  0  0  0  0  0  0
   44.7260    3.9282   13.7896 H   0  0  0  0  0  0  0  0  0  0  0  0
   46.4484    8.0914   11.7097 H   0  0  0  0  0  0  0  0  0  0  0  0
   48.7196    7.4065   12.1836 H   0  0  0  0  0  0  0  0  0  0  0  0
   49.0353    5.7758   12.8257 H   0  0  0  0  0  0  0  0  0  0  0  0
   48.3917    6.5869   15.1455 H   0  0  0  0  0  0  0  0  0  0  0  0
   50.5639    8.1903   13.9050 H   0  0  0  0  0  0  0  0  0  0  0  0
   50.4623    7.6048   15.4866 H   0  0  0  0  0  0  0  0  0  0  0  0
   48.4263    9.3576   13.7739 H   0  0  0  0  0  0  0  0  0  0  0  0
   46.9781    8.5628   14.4636 H   0  0  0  0  0  0  0  0  0  0  0  0
   49.7239   10.0710   18.1193 H   0  0  0  0  0  0  0  0  0  0  0  0
   50.9865    9.8845   16.8403 H   0  0  0  0  0  0  0  0  0  0  0  0
   47.9828   11.4782   14.5963 H   0  0  0  0  0  0  0  0  0  0  0  0
   49.7798   11.4869   14.4194 H   0  0  0  0  0  0  0  0  0  0  0  0
   49.1143   13.7201   15.0774 H   0  0  0  0  0  0  0  0  0  0  0  0
   48.0193   13.0954   16.3736 H   0  0  0  0  0  0  0  0  0  0  0  0
  1  2  2  0
  2  3  1  0
  3  4  2  0
  4  5  1  0
  5  6  2  0
  1  6  1  0
  7  8  1  0
  8  9  1  0
  5  7  1  0
 10 11  1  0
 11 12  2  0
  8 10  1  0
 13 14  1  0
 11 13  1  0
 15 16  1  0
 16 17  1  0
 17 18  1  0
 14 18  1  0
 13 15  1  0
 19 20  2  0
 20 21  1  0
 17 19  1  0
 18 21  2  0
  1 22  1  0
  2 23  1  0
  4 24  1  0
 19 25  1  0
 25 26  1  0
 25 27  1  0
 25 28  1  0
  3 29  1  0
  6 30  1  0
  7 31  1  0
  7 32  1  0
  8 33  1  6
  9 34  1  0
  9 35  1  0
 10 36  1  0
 10 37  1  0
 14 38  1  0
 14 39  1  0
 15 40  1  0
 15 41  1  0
 16 42  1  0
 16 43  1  0
M  END
> <Uni-Dock RESULT> 
ENERGY=   -3.776  LOWER_BOUND=    5.664  UPPER_BOUND=    6.784
INTER + INTRA:          -3.776
INTER:                  -3.776
INTRA:                   0.000
UNBOUND:                 0.000

$$$$

     RDKit          3D

 43 45  0  0  0  0  0  0  0  0999 V2000
   48.2012   14.7408   11.5877 C   0  0  0  0  0  0  0  0  0  0  0  0
   49.4840   15.0744   11.1428 C   0  0  0  0  0  0  0  0  0  0  0  0
   50.6053   14.5126   11.7595 C   0  0  0  0  0  0  0  0  0  0  0  0
   50.4492   13.6166   12.8221 C   0  0  0  0  0  0  0  0  0  0  0  0
   49.1613   13.2784   13.2784 C   0  0  0  0  0  0  0  0  0  0  0  0
   48.0392   13.8463   12.6503 C   0  0  0  0  0  0  0  0  0  0  0  0
   48.9794   12.2949   14.4099 C   0  0  0  0  0  0  0  0  0  0  0  0
   49.1573   10.8336   13.9513 C   0  0  1  0  0  0  0  0  0  0  0  0
   49.1986    9.9697   15.1359 N   0  0  0  0  0  0  0  0  0  0  0  0
   48.0303   10.4007   12.9820 C   0  0  0  0  0  0  0  0  0  0  0  0
   48.2352    8.9929   12.4822 C   0  0  0  0  0  0  0  0  0  0  0  0
   49.2798    8.7292   11.8270 O   0  0  0  0  0  0  0  0  0  0  0  0
   47.2916    7.9411   12.7637 N   0  0  0  0  0  0  0  0  0  0  0  0
   47.8261    6.6348   13.1945 C   0  0  0  0  0  0  0  0  0  0  0  0
   45.8498    8.2405   12.8685 C   0  0  0  0  0  0  0  0  0  0  0  0
   45.0035    7.0942   12.3012 C   0  0  0  0  0  0  0  0  0  0  0  0
   45.5032    5.8221   12.8062 N   0  0  0  0  0  0  0  0  0  0  0  0
   46.7672    5.5791   13.1711 C   0  0  0  0  0  0  0  0  0  0  0  0
   44.9148    4.6132   12.8728 C   0  0  0  0  0  0  0  0  0  0  0  0
   45.7886    3.6754   13.2964 N   0  0  0  0  0  0  0  0  0  0  0  0
   46.9547    4.2825   13.4821 N   0  0  0  0  0  0  0  0  0  0  0  0
   47.1120   15.2821   10.9882 F   0  0  0  0  0  0  0  0  0  0  0  0
   49.6425   15.9420   10.1128 F   0  0  0  0  0  0  0  0  0  0  0  0
   51.5515   13.0816   13.4059 F   0  0  0  0  0  0  0  0  0  0  0  0
   43.4845    4.3322   12.5272 C   0  0  0  0  0  0  0  0  0  0  0  0
   43.2321    2.9743   12.6064 F   0  0  0  0  0  0  0  0  0  0  0  0
   42.6560    4.9969   13.4117 F   0  0  0  0  0  0  0  0  0  0  0  0
   43.2222    4.7637   11.2401 F   0  0  0  0  0  0  0  0  0  0  0  0
   51.5977   14.7715   11.4133 H   0  0  0  0  0  0  0  0  0  0  0  0
   47.0395   13.5910   12.9799 H   0  0  0  0  0  0  0  0  0  0  0  0
   47.9784   12.4221   14.8784 H   0  0  0  0  0  0  0  0  0  0  0  0
   49.7266   12.5222   15.2017 H   0  0  0  0  0  0  0  0  0  0  0  0
   50.1357   10.7521   13.4260 H   0  0  0  0  0  0  0  0  0  0  0  0
   48.2365    9.8767   15.5367 H   0  0  0  0  0  0  0  0  0  0  0  0
   49.5204    9.0151   14.8557 H   0  0  0  0  0  0  0  0  0  0  0  0
   47.0544   10.5078   13.4987 H   0  0  0  0  0  0  0  0  0  0  0  0
   48.0146   11.0701   12.0964 H   0  0  0  0  0  0  0  0  0  0  0  0
   48.6417    6.3148   12.5115 H   0  0  0  0  0  0  0  0  0  0  0  0
   48.2339    6.7238   14.2237 H   0  0  0  0  0  0  0  0  0  0  0  0
   45.5970    9.1622   12.3005 H   0  0  0  0  0  0  0  0  0  0  0  0
   45.5894    8.3997   13.9373 H   0  0  0  0  0  0  0  0  0  0  0  0
   43.9423    7.2356   12.5975 H   0  0  0  0  0  0  0  0  0  0  0  0
   45.0711    7.0958   11.1920 H   0  0  0  0  0  0  0  0  0  0  0  0
  1  2  2  0
  2  3  1  0
  3  4  2  0
  4  5  1  0
  5  6  2  0
  1  6  1  0
  7  8  1  0
  8  9  1  0
  5  7  1  0
 10 11  1  0
 11 12  2  0
  8 10  1  0
 13 14  1  0
 11 13  1  0
 15 16  1  0
 16 17  1  0
 17 18  1  0
 14 18  1  0
 13 15  1  0
 19 20  2  0
 20 21  1  0
 17 19  1  0
 18 21  2  0
  1 22  1  0
  2 23  1  0
  4 24  1  0
 19 25  1  0
 25 26  1  0
 25 27  1  0
 25 28  1  0
  3 29  1  0
  6 30  1  0
  7 31  1  0
  7 32  1  0
  8 33  1  6
  9 34  1  0
  9 35  1  0
 10 36  1  0
 10 37  1  0
 14 38  1  0
 14 39  1  0
 15 40  1  0
 15 41  1  0
 16 42  1  0
 16 43  1  0
M  END
> <Uni-Dock RESULT> 
ENERGY=   -3.754  LOWER_BOUND=    5.807  UPPER_BOUND=    9.167
INTER + INTRA:          -3.754
INTER:                  -3.754
INTRA:                   0.000
UNBOUND:                 0.000

$$$$

     RDKit          3D

 43 45  0  0  0  0  0  0  0  0999 V2000
   52.8376    5.1917   18.5130 C   0  0  0  0  0  0  0  0  0  0  0  0
   53.2000    6.0994   19.5126 C   0  0  0  0  0  0  0  0  0  0  0  0
   53.3747    7.4503   19.1996 C   0  0  0  0  0  0  0  0  0  0  0  0
   53.1884    7.8986   17.8878 C   0  0  0  0  0  0  0  0  0  0  0  0
   52.8269    6.9904   16.8749 C   0  0  0  0  0  0  0  0  0  0  0  0
   52.6508    5.6341   17.1996 C   0  0  0  0  0  0  0  0  0  0  0  0
   52.6009    7.4663   15.4596 C   0  0  0  0  0  0  0  0  0  0  0  0
   51.2296    8.1485   15.2820 C   0  0  1  0  0  0  0  0  0  0  0  0
   51.1862    8.7821   13.9599 N   0  0  0  0  0  0  0  0  0  0  0  0
   50.0667    7.1418   15.4586 C   0  0  0  0  0  0  0  0  0  0  0  0
   48.7231    7.8173   15.3480 C   0  0  0  0  0  0  0  0  0  0  0  0
   48.4317    8.7242   16.1742 O   0  0  0  0  0  0  0  0  0  0  0  0
   47.7857    7.4800   14.3071 N   0  0  0  0  0  0  0  0  0  0  0  0
   47.1107    8.5880   13.6039 C   0  0  0  0  0  0  0  0  0  0  0  0
   47.7057    6.0980   13.7942 C   0  0  0  0  0  0  0  0  0  0  0  0
   46.2610    5.7193   13.4459 C   0  0  0  0  0  0  0  0  0  0  0  0
   45.6442    6.7968   12.6831 N   0  0  0  0  0  0  0  0  0  0  0  0
   45.9759    8.0901   12.7668 C   0  0  0  0  0  0  0  0  0  0  0  0
   44.5580    6.7977   11.8880 C   0  0  0  0  0  0  0  0  0  0  0  0
   44.2628    8.0496   11.4780 N   0  0  0  0  0  0  0  0  0  0  0  0
   45.1536    8.8632   12.0325 N   0  0  0  0  0  0  0  0  0  0  0  0
   52.6641    3.8812   18.8155 F   0  0  0  0  0  0  0  0  0  0  0  0
   53.3818    5.6717   20.7865 F   0  0  0  0  0  0  0  0  0  0  0  0
   53.3618    9.2148   17.6058 F   0  0  0  0  0  0  0  0  0  0  0  0
   43.7734    5.5814   11.5016 C   0  0  0  0  0  0  0  0  0  0  0  0
   42.6623    5.9451   10.7620 F   0  0  0  0  0  0  0  0  0  0  0  0
   44.5661    4.7424   10.7412 F   0  0  0  0  0  0  0  0  0  0  0  0
   43.3575    4.9139   12.6388 F   0  0  0  0  0  0  0  0  0  0  0  0
   53.6546    8.1518   19.9749 H   0  0  0  0  0  0  0  0  0  0  0  0
   52.3629    4.9213   16.4366 H   0  0  0  0  0  0  0  0  0  0  0  0
   52.6938    6.6187   14.7450 H   0  0  0  0  0  0  0  0  0  0  0  0
   53.4044    8.1882   15.1950 H   0  0  0  0  0  0  0  0  0  0  0  0
   51.1368    8.9456   16.0539 H   0  0  0  0  0  0  0  0  0  0  0  0
   51.0764    8.0483   13.2220 H   0  0  0  0  0  0  0  0  0  0  0  0
   50.3545    9.4136   13.9071 H   0  0  0  0  0  0  0  0  0  0  0  0
   50.1760    6.3345   14.7056 H   0  0  0  0  0  0  0  0  0  0  0  0
   50.1219    6.6717   16.4628 H   0  0  0  0  0  0  0  0  0  0  0  0
   46.6994    9.3103   14.3410 H   0  0  0  0  0  0  0  0  0  0  0  0
   47.8427    9.1144   12.9555 H   0  0  0  0  0  0  0  0  0  0  0  0
   48.0723    5.3743   14.5544 H   0  0  0  0  0  0  0  0  0  0  0  0
   48.3409    6.0110   12.8861 H   0  0  0  0  0  0  0  0  0  0  0  0
   46.2568    4.7785   12.8552 H   0  0  0  0  0  0  0  0  0  0  0  0
   45.6826    5.5600   14.3812 H   0  0  0  0  0  0  0  0  0  0  0  0
  1  2  2  0
  2  3  1  0
  3  4  2  0
  4  5  1  0
  5  6  2  0
  1  6  1  0
  7  8  1  0
  8  9  1  0
  5  7  1  0
 10 11  1  0
 11 12  2  0
  8 10  1  0
 13 14  1  0
 11 13  1  0
 15 16  1  0
 16 17  1  0
 17 18  1  0
 14 18  1  0
 13 15  1  0
 19 20  2  0
 20 21  1  0
 17 19  1  0
 18 21  2  0
  1 22  1  0
  2 23  1  0
  4 24  1  0
 19 25  1  0
 25 26  1  0
 25 27  1  0
 25 28  1  0
  3 29  1  0
  6 30  1  0
  7 31  1  0
  7 32  1  0
  8 33  1  6
  9 34  1  0
  9 35  1  0
 10 36  1  0
 10 37  1  0
 14 38  1  0
 14 39  1  0
 15 40  1  0
 15 41  1  0
 16 42  1  0
 16 43  1  0
M  END
> <Uni-Dock RESULT> 
ENERGY=   -3.664  LOWER_BOUND=    3.359  UPPER_BOUND=    9.423
INTER + INTRA:          -3.664
INTER:                  -3.664
INTRA:                   0.000
UNBOUND:                 0.000

$$$$

     RDKit          3D

 43 45  0  0  0  0  0  0  0  0999 V2000
   45.1895    8.0873   12.1856 C   0  0  0  0  0  0  0  0  0  0  0  0
   44.8345    6.7351   12.1961 C   0  0  0  0  0  0  0  0  0  0  0  0
   45.7679    5.7708   12.5862 C   0  0  0  0  0  0  0  0  0  0  0  0
   47.0582    6.1537   12.9666 C   0  0  0  0  0  0  0  0  0  0  0  0
   47.4247    7.5127   12.9554 C   0  0  0  0  0  0  0  0  0  0  0  0
   46.4784    8.4758   12.5641 C   0  0  0  0  0  0  0  0  0  0  0  0
   48.8077    7.9404   13.3856 C   0  0  0  0  0  0  0  0  0  0  0  0
   48.9680    7.9510   14.9190 C   0  0  1  0  0  0  0  0  0  0  0  0
   50.3852    8.1452   15.2433 N   0  0  0  0  0  0  0  0  0  0  0  0
   48.0891    9.0438   15.5749 C   0  0  0  0  0  0  0  0  0  0  0  0
   48.1950    9.0162   17.0788 C   0  0  0  0  0  0  0  0  0  0  0  0
   47.8414    7.9723   17.6914 O   0  0  0  0  0  0  0  0  0  0  0  0
   48.7206   10.1312   17.8248 N   0  0  0  0  0  0  0  0  0  0  0  0
   49.6851    9.8432   18.9039 C   0  0  0  0  0  0  0  0  0  0  0  0
   48.5020   11.5133   17.3542 C   0  0  0  0  0  0  0  0  0  0  0  0
   48.3007   12.4742   18.5323 C   0  0  0  0  0  0  0  0  0  0  0  0
   49.3153   12.2216   19.5472 N   0  0  0  0  0  0  0  0  0  0  0  0
   49.9172   11.0462   19.7616 C   0  0  0  0  0  0  0  0  0  0  0  0
   49.7533   12.9927   20.5599 C   0  0  0  0  0  0  0  0  0  0  0  0
   50.6185   12.3135   21.3426 N   0  0  0  0  0  0  0  0  0  0  0  0
   50.7201   11.0881   20.8417 N   0  0  0  0  0  0  0  0  0  0  0  0
   44.2840    9.0246   11.8108 F   0  0  0  0  0  0  0  0  0  0  0  0
   43.5851    6.3570   11.8290 F   0  0  0  0  0  0  0  0  0  0  0  0
   47.9487    5.2012   13.3433 F   0  0  0  0  0  0  0  0  0  0  0  0
   49.3449   14.4143   20.7979 C   0  0  0  0  0  0  0  0  0  0  0  0
   49.8979   14.8787   21.9780 F   0  0  0  0  0  0  0  0  0  0  0  0
   49.7861   15.2032   19.7523 F   0  0  0  0  0  0  0  0  0  0  0  0
   47.9674   14.4955   20.8846 F   0  0  0  0  0  0  0  0  0  0  0  0
   45.4911    4.7244   12.5944 H   0  0  0  0  0  0  0  0  0  0  0  0
   46.7377    9.5275   12.5584 H   0  0  0  0  0  0  0  0  0  0  0  0
   49.0485    8.9464   12.9760 H   0  0  0  0  0  0  0  0  0  0  0  0
   49.5495    7.2379   12.9462 H   0  0  0  0  0  0  0  0  0  0  0  0
   48.6547    6.9555   15.3070 H   0  0  0  0  0  0  0  0  0  0  0  0
   50.6532    9.1410   15.0656 H   0  0  0  0  0  0  0  0  0  0  0  0
   50.5362    7.9514   16.2597 H   0  0  0  0  0  0  0  0  0  0  0  0
   48.3851   10.0323   15.1674 H   0  0  0  0  0  0  0  0  0  0  0  0
   47.0227    8.8802   15.3127 H   0  0  0  0  0  0  0  0  0  0  0  0
   49.2955    9.0311   19.5541 H   0  0  0  0  0  0  0  0  0  0  0  0
   50.6492    9.5165   18.4602 H   0  0  0  0  0  0  0  0  0  0  0  0
   47.5974   11.5713   16.7105 H   0  0  0  0  0  0  0  0  0  0  0  0
   49.3828   11.8368   16.7583 H   0  0  0  0  0  0  0  0  0  0  0  0
   48.3703   13.5224   18.1713 H   0  0  0  0  0  0  0  0  0  0  0  0
   47.2952   12.3121   18.9766 H   0  0  0  0  0  0  0  0  0  0  0  0
  1  2  2  0
  2  3  1  0
  3  4  2  0
  4  5  1  0
  5  6  2  0
  1  6  1  0
  7  8  1  0
  8  9  1  0
  5  7  1  0
 10 11  1  0
 11 12  2  0
  8 10  1  0
 13 14  1  0
 11 13  1  0
 15 16  1  0
 16 17  1  0
 17 18  1  0
 14 18  1  0
 13 15  1  0
 19 20  2  0
 20 21  1  0
 17 19  1  0
 18 21  2  0
  1 22  1  0
  2 23  1  0
  4 24  1  0
 19 25  1  0
 25 26  1  0
 25 27  1  0
 25 28  1  0
  3 29  1  0
  6 30  1  0
  7 31  1  0
  7 32  1  0
  8 33  1  6
  9 34  1  0
  9 35  1  0
 10 36  1  0
 10 37  1  0
 14 38  1  0
 14 39  1  0
 15 40  1  0
 15 41  1  0
 16 42  1  0
 16 43  1  0
M  END
> <Uni-Dock RESULT> 
ENERGY=   -3.555  LOWER_BOUND=    5.069  UPPER_BOUND=    6.350
INTER + INTRA:          -3.555
INTER:                  -3.555
INTRA:                   0.000
UNBOUND:                 0.000

$$$$
