
     RDKit          3D

 43 45  0  0  0  0  0  0  0  0999 V2000
   46.7361    2.6091    6.6253 C   0  0  0  0  0  0  0  0  0  0  0  0
   46.6242    1.3606    7.2445 C   0  0  0  0  0  0  0  0  0  0  0  0
   45.8970    1.2320    8.4310 C   0  0  0  0  0  0  0  0  0  0  0  0
   45.2781    2.3490    9.0017 C   0  0  0  0  0  0  0  0  0  0  0  0
   45.3801    3.6079    8.3806 C   0  0  0  0  0  0  0  0  0  0  0  0
   46.1191    3.7291    7.1910 C   0  0  0  0  0  0  0  0  0  0  0  0
   44.7388    4.8251    9.0006 C   0  0  0  0  0  0  0  0  0  0  0  0
   45.5902    5.4023   10.1547 C   0  0  1  0  0  0  0  0  0  0  0  0
   46.8855    5.8957    9.6727 N   0  0  0  0  0  0  0  0  0  0  0  0
   44.8296    6.5435   10.8571 C   0  0  0  0  0  0  0  0  0  0  0  0
   45.5942    7.1097   12.0272 C   0  0  0  0  0  0  0  0  0  0  0  0
   46.2116    6.3274   12.8013 O   0  0  0  0  0  0  0  0  0  0  0  0
   45.6142    8.5259   12.2863 N   0  0  0  0  0  0  0  0  0  0  0  0
   46.7764    9.1091   12.9768 C   0  0  0  0  0  0  0  0  0  0  0  0
   44.3910    9.3375   12.1456 C   0  0  0  0  0  0  0  0  0  0  0  0
   44.7123   10.6589   11.4351 C   0  0  0  0  0  0  0  0  0  0  0  0
   45.9267   11.2398   12.0033 N   0  0  0  0  0  0  0  0  0  0  0  0
   46.8897   10.5637   12.6455 C   0  0  0  0  0  0  0  0  0  0  0  0
   46.4275   12.4857   11.9061 C   0  0  0  0  0  0  0  0  0  0  0  0
   47.6363   12.5676   12.5019 N   0  0  0  0  0  0  0  0  0  0  0  0
   47.9267   11.3590   12.9685 N   0  0  0  0  0  0  0  0  0  0  0  0
   47.4458    2.7369    5.4768 F   0  0  0  0  0  0  0  0  0  0  0  0
   47.2230    0.2739    6.6973 F   0  0  0  0  0  0  0  0  0  0  0  0
   44.5815    2.2032   10.1575 F   0  0  0  0  0  0  0  0  0  0  0  0
   45.7416   13.6381   11.2387 C   0  0  0  0  0  0  0  0  0  0  0  0
   45.4224   13.3005    9.9366 F   0  0  0  0  0  0  0  0  0  0  0  0
   46.5713   14.7448   11.2257 F   0  0  0  0  0  0  0  0  0  0  0  0
   44.5850   13.9500   11.9281 F   0  0  0  0  0  0  0  0  0  0  0  0
   45.8143    0.2651    8.9107 H   0  0  0  0  0  0  0  0  0  0  0  0
   46.2204    4.6918    6.7051 H   0  0  0  0  0  0  0  0  0  0  0  0
   43.7347    4.5414    9.3858 H   0  0  0  0  0  0  0  0  0  0  0  0
   44.5689    5.6070    8.2276 H   0  0  0  0  0  0  0  0  0  0  0  0
   45.7669    4.5931   10.8989 H   0  0  0  0  0  0  0  0  0  0  0  0
   46.7397    6.5126    8.8403 H   0  0  0  0  0  0  0  0  0  0  0  0
   47.4716    5.0839    9.3719 H   0  0  0  0  0  0  0  0  0  0  0  0
   43.8511    6.1704   11.2294 H   0  0  0  0  0  0  0  0  0  0  0  0
   44.6363    7.3476   10.1140 H   0  0  0  0  0  0  0  0  0  0  0  0
   47.7098    8.5989   12.6544 H   0  0  0  0  0  0  0  0  0  0  0  0
   46.6550    8.9892   14.0742 H   0  0  0  0  0  0  0  0  0  0  0  0
   43.5978    8.8030   11.5830 H   0  0  0  0  0  0  0  0  0  0  0  0
   43.9879    9.5559   13.1583 H   0  0  0  0  0  0  0  0  0  0  0  0
   43.8598   11.3612   11.5527 H   0  0  0  0  0  0  0  0  0  0  0  0
   44.8741   10.4660   10.3529 H   0  0  0  0  0  0  0  0  0  0  0  0
  1  2  2  0
  2  3  1  0
  3  4  2  0
  4  5  1  0
  5  6  2  0
  1  6  1  0
  7  8  1  0
  8  9  1  0
  5  7  1  0
 10 11  1  0
 11 12  2  0
  8 10  1  0
 13 14  1  0
 11 13  1  0
 15 16  1  0
 16 17  1  0
 17 18  1  0
 14 18  1  0
 13 15  1  0
 19 20  2  0
 20 21  1  0
 17 19  1  0
 18 21  2  0
  1 22  1  0
  2 23  1  0
  4 24  1  0
 19 25  1  0
 25 26  1  0
 25 27  1  0
 25 28  1  0
  3 29  1  0
  6 30  1  0
  7 31  1  0
  7 32  1  0
  8 33  1  1
  9 34  1  0
  9 35  1  0
 10 36  1  0
 10 37  1  0
 14 38  1  0
 14 39  1  0
 15 40  1  0
 15 41  1  0
 16 42  1  0
 16 43  1  0
M  END
> <Uni-Dock RESULT> 
ENERGY=   -4.780  LOWER_BOUND=    0.000  UPPER_BOUND=    0.000
INTER + INTRA:          -4.780
INTER:                  -4.780
INTRA:                   0.000
UNBOUND:                 0.000

$$$$

     RDKit          3D

 43 45  0  0  0  0  0  0  0  0999 V2000
   44.1579    3.2770   10.3987 C   0  0  0  0  0  0  0  0  0  0  0  0
   43.5182    2.7395   11.5196 C   0  0  0  0  0  0  0  0  0  0  0  0
   43.1231    3.5766   12.5667 C   0  0  0  0  0  0  0  0  0  0  0  0
   43.3638    4.9528   12.4968 C   0  0  0  0  0  0  0  0  0  0  0  0
   44.0009    5.5024   11.3685 C   0  0  0  0  0  0  0  0  0  0  0  0
   44.4008    4.6520   10.3231 C   0  0  0  0  0  0  0  0  0  0  0  0
   44.2894    6.9817   11.2933 C   0  0  0  0  0  0  0  0  0  0  0  0
   45.5472    7.3671   12.1055 C   0  0  1  0  0  0  0  0  0  0  0  0
   46.7559    6.7455   11.5523 N   0  0  0  0  0  0  0  0  0  0  0  0
   45.7161    8.8985   12.1290 C   0  0  0  0  0  0  0  0  0  0  0  0
   46.9013    9.3340   12.9536 C   0  0  0  0  0  0  0  0  0  0  0  0
   47.1396    8.7563   14.0499 O   0  0  0  0  0  0  0  0  0  0  0  0
   47.7527   10.4110   12.5197 N   0  0  0  0  0  0  0  0  0  0  0  0
   49.1620   10.4231   12.9456 C   0  0  0  0  0  0  0  0  0  0  0  0
   47.1818   11.6310   11.9193 C   0  0  0  0  0  0  0  0  0  0  0  0
   48.0103   12.0576   10.7003 C   0  0  0  0  0  0  0  0  0  0  0  0
   49.4334   11.9860   11.0238 N   0  0  0  0  0  0  0  0  0  0  0  0
   49.9795   11.2235   11.9815 C   0  0  0  0  0  0  0  0  0  0  0  0
   50.5001   12.5131   10.3940 C   0  0  0  0  0  0  0  0  0  0  0  0
   51.6507   12.1112   10.9752 N   0  0  0  0  0  0  0  0  0  0  0  0
   51.3234   11.3011   11.9748 N   0  0  0  0  0  0  0  0  0  0  0  0
   44.5470    2.4657    9.3841 F   0  0  0  0  0  0  0  0  0  0  0  0
   43.2831    1.4061   11.5944 F   0  0  0  0  0  0  0  0  0  0  0  0
   42.9770    5.7470   13.5272 F   0  0  0  0  0  0  0  0  0  0  0  0
   50.4335   13.4319    9.2128 C   0  0  0  0  0  0  0  0  0  0  0  0
   49.7038   12.8377    8.2001 F   0  0  0  0  0  0  0  0  0  0  0  0
   51.7074   13.7052    8.7483 F   0  0  0  0  0  0  0  0  0  0  0  0
   49.8247   14.6165    9.5822 F   0  0  0  0  0  0  0  0  0  0  0  0
   42.6308    3.1582   13.4353 H   0  0  0  0  0  0  0  0  0  0  0  0
   44.9043    5.0540    9.4525 H   0  0  0  0  0  0  0  0  0  0  0  0
   43.4093    7.5367   11.6861 H   0  0  0  0  0  0  0  0  0  0  0  0
   44.4118    7.2970   10.2334 H   0  0  0  0  0  0  0  0  0  0  0  0
   45.4090    7.0168   13.1534 H   0  0  0  0  0  0  0  0  0  0  0  0
   46.7940    6.9075   10.5193 H   0  0  0  0  0  0  0  0  0  0  0  0
   46.7159    5.7134   11.7141 H   0  0  0  0  0  0  0  0  0  0  0  0
   44.8046    9.3712   12.5543 H   0  0  0  0  0  0  0  0  0  0  0  0
   45.8383    9.2553   11.0831 H   0  0  0  0  0  0  0  0  0  0  0  0
   49.5628    9.3867   12.9745 H   0  0  0  0  0  0  0  0  0  0  0  0
   49.2402   10.8732   13.9579 H   0  0  0  0  0  0  0  0  0  0  0  0
   46.1249   11.4899   11.6121 H   0  0  0  0  0  0  0  0  0  0  0  0
   47.2002   12.4448   12.6763 H   0  0  0  0  0  0  0  0  0  0  0  0
   47.7350   13.0931   10.4076 H   0  0  0  0  0  0  0  0  0  0  0  0
   47.7961   11.3736    9.8511 H   0  0  0  0  0  0  0  0  0  0  0  0
  1  2  2  0
  2  3  1  0
  3  4  2  0
  4  5  1  0
  5  6  2  0
  1  6  1  0
  7  8  1  0
  8  9  1  0
  5  7  1  0
 10 11  1  0
 11 12  2  0
  8 10  1  0
 13 14  1  0
 11 13  1  0
 15 16  1  0
 16 17  1  0
 17 18  1  0
 14 18  1  0
 13 15  1  0
 19 20  2  0
 20 21  1  0
 17 19  1  0
 18 21  2  0
  1 22  1  0
  2 23  1  0
  4 24  1  0
 19 25  1  0
 25 26  1  0
 25 27  1  0
 25 28  1  0
  3 29  1  0
  6 30  1  0
  7 31  1  0
  7 32  1  0
  8 33  1  1
  9 34  1  0
  9 35  1  0
 10 36  1  0
 10 37  1  0
 14 38  1  0
 14 39  1  0
 15 40  1  0
 15 41  1  0
 16 42  1  0
 16 43  1  0
M  END
> <Uni-Dock RESULT> 
ENERGY=   -4.571  LOWER_BOUND=    3.029  UPPER_BOUND=    4.226
INTER + INTRA:          -4.571
INTER:                  -4.571
INTRA:                   0.000
UNBOUND:                 0.000

$$$$

     RDKit          3D

 43 45  0  0  0  0  0  0  0  0999 V2000
   48.2120   10.4829   21.3171 C   0  0  0  0  0  0  0  0  0  0  0  0
   49.5289   10.9056   21.5213 C   0  0  0  0  0  0  0  0  0  0  0  0
   50.3554   11.1701   20.4258 C   0  0  0  0  0  0  0  0  0  0  0  0
   49.8689   11.0152   19.1235 C   0  0  0  0  0  0  0  0  0  0  0  0
   48.5422   10.5970   18.9097 C   0  0  0  0  0  0  0  0  0  0  0  0
   47.7201   10.3268   20.0175 C   0  0  0  0  0  0  0  0  0  0  0  0
   48.0142   10.4012   17.5097 C   0  0  0  0  0  0  0  0  0  0  0  0
   48.4641    9.0509   16.9060 C   0  0  1  0  0  0  0  0  0  0  0  0
   47.9082    7.9163   17.6523 N   0  0  0  0  0  0  0  0  0  0  0  0
   48.0354    8.9599   15.4288 C   0  0  0  0  0  0  0  0  0  0  0  0
   48.4956    7.6817   14.7739 C   0  0  0  0  0  0  0  0  0  0  0  0
   49.6521    7.2408   15.0196 O   0  0  0  0  0  0  0  0  0  0  0  0
   47.6441    6.9679   13.8581 N   0  0  0  0  0  0  0  0  0  0  0  0
   47.8060    5.5110   13.7204 C   0  0  0  0  0  0  0  0  0  0  0  0
   46.8357    7.6902   12.8583 C   0  0  0  0  0  0  0  0  0  0  0  0
   45.4248    7.0915   12.7871 C   0  0  0  0  0  0  0  0  0  0  0  0
   45.5105    5.6331   12.7585 N   0  0  0  0  0  0  0  0  0  0  0  0
   46.5349    4.9016   13.2190 C   0  0  0  0  0  0  0  0  0  0  0  0
   44.5891    4.7102   12.4244 C   0  0  0  0  0  0  0  0  0  0  0  0
   45.0558    3.4620   12.6417 N   0  0  0  0  0  0  0  0  0  0  0  0
   46.2804    3.5820   13.1402 N   0  0  0  0  0  0  0  0  0  0  0  0
   47.4102   10.2205   22.3788 F   0  0  0  0  0  0  0  0  0  0  0  0
   50.0072   11.0563   22.7812 F   0  0  0  0  0  0  0  0  0  0  0  0
   50.6901   11.2719   18.0738 F   0  0  0  0  0  0  0  0  0  0  0  0
   43.2291    5.0132   11.8744 C   0  0  0  0  0  0  0  0  0  0  0  0
   42.5579    5.8644   12.7324 F   0  0  0  0  0  0  0  0  0  0  0  0
   42.4992    3.8464   11.7366 F   0  0  0  0  0  0  0  0  0  0  0  0
   43.3546    5.6152   10.6366 F   0  0  0  0  0  0  0  0  0  0  0  0
   51.3758   11.4941   20.5859 H   0  0  0  0  0  0  0  0  0  0  0  0
   46.7004    9.9912   19.8737 H   0  0  0  0  0  0  0  0  0  0  0  0
   48.3812   11.2343   16.8708 H   0  0  0  0  0  0  0  0  0  0  0  0
   46.9036   10.4672   17.5040 H   0  0  0  0  0  0  0  0  0  0  0  0
   49.5757    9.0006   16.9487 H   0  0  0  0  0  0  0  0  0  0  0  0
   46.8796    8.0531   17.7865 H   0  0  0  0  0  0  0  0  0  0  0  0
   48.3528    7.8763   18.5977 H   0  0  0  0  0  0  0  0  0  0  0  0
   48.4612    9.8144   14.8599 H   0  0  0  0  0  0  0  0  0  0  0  0
   46.9266    9.0259   15.3793 H   0  0  0  0  0  0  0  0  0  0  0  0
   48.0516    5.0577   14.7051 H   0  0  0  0  0  0  0  0  0  0  0  0
   48.6265    5.2946   13.0039 H   0  0  0  0  0  0  0  0  0  0  0  0
   46.7624    8.7740   13.0848 H   0  0  0  0  0  0  0  0  0  0  0  0
   47.3244    7.5925   11.8646 H   0  0  0  0  0  0  0  0  0  0  0  0
   44.9085    7.4635   11.8767 H   0  0  0  0  0  0  0  0  0  0  0  0
   44.8460    7.4037   13.6829 H   0  0  0  0  0  0  0  0  0  0  0  0
  1  2  2  0
  2  3  1  0
  3  4  2  0
  4  5  1  0
  5  6  2  0
  1  6  1  0
  7  8  1  0
  8  9  1  0
  5  7  1  0
 10 11  1  0
 11 12  2  0
  8 10  1  0
 13 14  1  0
 11 13  1  0
 15 16  1  0
 16 17  1  0
 17 18  1  0
 14 18  1  0
 13 15  1  0
 19 20  2  0
 20 21  1  0
 17 19  1  0
 18 21  2  0
  1 22  1  0
  2 23  1  0
  4 24  1  0
 19 25  1  0
 25 26  1  0
 25 27  1  0
 25 28  1  0
  3 29  1  0
  6 30  1  0
  7 31  1  0
  7 32  1  0
  8 33  1  1
  9 34  1  0
  9 35  1  0
 10 36  1  0
 10 37  1  0
 14 38  1  0
 14 39  1  0
 15 40  1  0
 15 41  1  0
 16 42  1  0
 16 43  1  0
M  END
> <Uni-Dock RESULT> 
ENERGY=   -4.298  LOWER_BOUND=    5.909  UPPER_BOUND=   10.926
INTER + INTRA:          -4.298
INTER:                  -4.298
INTRA:                   0.000
UNBOUND:                 0.000

$$$$

     RDKit          3D

 43 45  0  0  0  0  0  0  0  0999 V2000
   44.3585    3.7913   12.5789 C   0  0  0  0  0  0  0  0  0  0  0  0
   43.5530    4.8734   12.2115 C   0  0  0  0  0  0  0  0  0  0  0  0
   44.0631    6.1735   12.2643 C   0  0  0  0  0  0  0  0  0  0  0  0
   45.3791    6.3968   12.6823 C   0  0  0  0  0  0  0  0  0  0  0  0
   46.1985    5.3121   13.0470 C   0  0  0  0  0  0  0  0  0  0  0  0
   45.6750    4.0085   12.9971 C   0  0  0  0  0  0  0  0  0  0  0  0
   47.6113    5.5426   13.5244 C   0  0  0  0  0  0  0  0  0  0  0  0
   47.6560    5.9849   15.0051 C   0  0  1  0  0  0  0  0  0  0  0  0
   47.1521    4.9333   15.8959 N   0  0  0  0  0  0  0  0  0  0  0  0
   49.0967    6.3571   15.4055 C   0  0  0  0  0  0  0  0  0  0  0  0
   49.1899    6.8470   16.8288 C   0  0  0  0  0  0  0  0  0  0  0  0
   48.2975    7.6172   17.2790 O   0  0  0  0  0  0  0  0  0  0  0  0
   50.2907    6.4659   17.6750 N   0  0  0  0  0  0  0  0  0  0  0  0
   50.0854    6.4097   19.1318 C   0  0  0  0  0  0  0  0  0  0  0  0
   51.6681    6.4224   17.1497 C   0  0  0  0  0  0  0  0  0  0  0  0
   52.3852    5.1618   17.6508 C   0  0  0  0  0  0  0  0  0  0  0  0
   52.1298    4.9859   19.0787 N   0  0  0  0  0  0  0  0  0  0  0  0
   51.0832    5.4834   19.7523 C   0  0  0  0  0  0  0  0  0  0  0  0
   52.7518    4.2129   19.9887 C   0  0  0  0  0  0  0  0  0  0  0  0
   52.1224    4.2709   21.1818 N   0  0  0  0  0  0  0  0  0  0  0  0
   51.0735    5.0713   21.0338 N   0  0  0  0  0  0  0  0  0  0  0  0
   43.8637    2.5296   12.5335 F   0  0  0  0  0  0  0  0  0  0  0  0
   42.2758    4.6640   11.8068 F   0  0  0  0  0  0  0  0  0  0  0  0
   45.8528    7.6678   12.7318 F   0  0  0  0  0  0  0  0  0  0  0  0
   53.9834    3.4008   19.7288 C   0  0  0  0  0  0  0  0  0  0  0  0
   53.7660    2.5531   18.6585 F   0  0  0  0  0  0  0  0  0  0  0  0
   54.3010    2.6456   20.8432 F   0  0  0  0  0  0  0  0  0  0  0  0
   55.0401    4.2433   19.4391 F   0  0  0  0  0  0  0  0  0  0  0  0
   43.4368    7.0103   11.9826 H   0  0  0  0  0  0  0  0  0  0  0  0
   46.2855    3.1619   13.2864 H   0  0  0  0  0  0  0  0  0  0  0  0
   48.0788    6.3262   12.8886 H   0  0  0  0  0  0  0  0  0  0  0  0
   48.2200    4.6217   13.3858 H   0  0  0  0  0  0  0  0  0  0  0  0
   47.0186    6.8907   15.1200 H   0  0  0  0  0  0  0  0  0  0  0  0
   47.6121    4.0232   15.6618 H   0  0  0  0  0  0  0  0  0  0  0  0
   46.1234    4.8208   15.7467 H   0  0  0  0  0  0  0  0  0  0  0  0
   49.4780    7.1586   14.7366 H   0  0  0  0  0  0  0  0  0  0  0  0
   49.7407    5.4600   15.2771 H   0  0  0  0  0  0  0  0  0  0  0  0
   49.0643    6.0351   19.3610 H   0  0  0  0  0  0  0  0  0  0  0  0
   50.2072    7.4257   19.5634 H   0  0  0  0  0  0  0  0  0  0  0  0
   51.6927    6.4408   16.0405 H   0  0  0  0  0  0  0  0  0  0  0  0
   52.2161    7.3209   17.5075 H   0  0  0  0  0  0  0  0  0  0  0  0
   53.4763    5.2560   17.4649 H   0  0  0  0  0  0  0  0  0  0  0  0
   52.0008    4.2758   17.1013 H   0  0  0  0  0  0  0  0  0  0  0  0
  1  2  2  0
  2  3  1  0
  3  4  2  0
  4  5  1  0
  5  6  2  0
  1  6  1  0
  7  8  1  0
  8  9  1  0
  5  7  1  0
 10 11  1  0
 11 12  2  0
  8 10  1  0
 13 14  1  0
 11 13  1  0
 15 16  1  0
 16 17  1  0
 17 18  1  0
 14 18  1  0
 13 15  1  0
 19 20  2  0
 20 21  1  0
 17 19  1  0
 18 21  2  0
  1 22  1  0
  2 23  1  0
  4 24  1  0
 19 25  1  0
 25 26  1  0
 25 27  1  0
 25 28  1  0
  3 29  1  0
  6 30  1  0
  7 31  1  0
  7 32  1  0
  8 33  1  1
  9 34  1  0
  9 35  1  0
 10 36  1  0
 10 37  1  0
 14 38  1  0
 14 39  1  0
 15 40  1  0
 15 41  1  0
 16 42  1  0
 16 43  1  0
M  END
> <Uni-Dock RESULT> 
ENERGY=   -4.140  LOWER_BOUND=    7.718  UPPER_BOUND=    9.735
INTER + INTRA:          -4.140
INTER:                  -4.140
INTRA:                   0.000
UNBOUND:                 0.000

$$$$

     RDKit          3D

 43 45  0  0  0  0  0  0  0  0999 V2000
   47.5557   13.1333   20.2504 C   0  0  0  0  0  0  0  0  0  0  0  0
   48.8197   13.3780   20.7956 C   0  0  0  0  0  0  0  0  0  0  0  0
   49.9677   13.1138   20.0437 C   0  0  0  0  0  0  0  0  0  0  0  0
   49.8572   12.6064   18.7449 C   0  0  0  0  0  0  0  0  0  0  0  0
   48.5882   12.3642   18.1864 C   0  0  0  0  0  0  0  0  0  0  0  0
   47.4391   12.6266   18.9524 C   0  0  0  0  0  0  0  0  0  0  0  0
   48.4568   11.7924   16.7961 C   0  0  0  0  0  0  0  0  0  0  0  0
   48.6810   10.2629   16.7767 C   0  0  1  0  0  0  0  0  0  0  0  0
   47.6481    9.5582   17.5447 N   0  0  0  0  0  0  0  0  0  0  0  0
   48.6914    9.7456   15.3253 C   0  0  0  0  0  0  0  0  0  0  0  0
   48.9593    8.2637   15.2447 C   0  0  0  0  0  0  0  0  0  0  0  0
   49.8310    7.7494   15.9983 O   0  0  0  0  0  0  0  0  0  0  0  0
   48.2507    7.4305   14.3082 N   0  0  0  0  0  0  0  0  0  0  0  0
   48.0465    6.0084   14.6300 C   0  0  0  0  0  0  0  0  0  0  0  0
   47.9932    7.8911   12.9311 C   0  0  0  0  0  0  0  0  0  0  0  0
   46.5569    7.5442   12.5177 C   0  0  0  0  0  0  0  0  0  0  0  0
   46.2507    6.1704   12.9099 N   0  0  0  0  0  0  0  0  0  0  0  0
   46.8605    5.4820   13.8852 C   0  0  0  0  0  0  0  0  0  0  0  0
   45.2528    5.3534   12.5239 C   0  0  0  0  0  0  0  0  0  0  0  0
   45.2816    4.1954   13.2176 N   0  0  0  0  0  0  0  0  0  0  0  0
   46.2939    4.2754   14.0730 N   0  0  0  0  0  0  0  0  0  0  0  0
   46.4407   13.3838   20.9804 F   0  0  0  0  0  0  0  0  0  0  0  0
   48.9340   13.8684   22.0547 F   0  0  0  0  0  0  0  0  0  0  0  0
   50.9850   12.3515   18.0341 F   0  0  0  0  0  0  0  0  0  0  0  0
   44.2453    5.6696   11.4614 C   0  0  0  0  0  0  0  0  0  0  0  0
   43.6096    6.8602   11.7609 F   0  0  0  0  0  0  0  0  0  0  0  0
   43.3004    4.6624   11.3846 F   0  0  0  0  0  0  0  0  0  0  0  0
   44.8819    5.7845   10.2400 F   0  0  0  0  0  0  0  0  0  0  0  0
   50.9456   13.3008   20.4688 H   0  0  0  0  0  0  0  0  0  0  0  0
   46.4540   12.4342   18.5452 H   0  0  0  0  0  0  0  0  0  0  0  0
   49.2038   12.2856   16.1361 H   0  0  0  0  0  0  0  0  0  0  0  0
   47.4564   12.0339   16.3731 H   0  0  0  0  0  0  0  0  0  0  0  0
   49.6757   10.0485   17.2290 H   0  0  0  0  0  0  0  0  0  0  0  0
   46.7015    9.8995   17.2577 H   0  0  0  0  0  0  0  0  0  0  0  0
   47.7713    9.7704   18.5610 H   0  0  0  0  0  0  0  0  0  0  0  0
   49.4778   10.2728   14.7434 H   0  0  0  0  0  0  0  0  0  0  0  0
   47.7055    9.9718   14.8639 H   0  0  0  0  0  0  0  0  0  0  0  0
   47.8641    5.8841   15.7194 H   0  0  0  0  0  0  0  0  0  0  0  0
   48.9494    5.4292   14.3425 H   0  0  0  0  0  0  0  0  0  0  0  0
   48.1524    8.9836   12.8196 H   0  0  0  0  0  0  0  0  0  0  0  0
   48.7039    7.3818   12.2446 H   0  0  0  0  0  0  0  0  0  0  0  0
   46.4473    7.6630   11.4187 H   0  0  0  0  0  0  0  0  0  0  0  0
   45.8498    8.2335   13.0273 H   0  0  0  0  0  0  0  0  0  0  0  0
  1  2  2  0
  2  3  1  0
  3  4  2  0
  4  5  1  0
  5  6  2  0
  1  6  1  0
  7  8  1  0
  8  9  1  0
  5  7  1  0
 10 11  1  0
 11 12  2  0
  8 10  1  0
 13 14  1  0
 11 13  1  0
 15 16  1  0
 16 17  1  0
 17 18  1  0
 14 18  1  0
 13 15  1  0
 19 20  2  0
 20 21  1  0
 17 19  1  0
 18 21  2  0
  1 22  1  0
  2 23  1  0
  4 24  1  0
 19 25  1  0
 25 26  1  0
 25 27  1  0
 25 28  1  0
  3 29  1  0
  6 30  1  0
  7 31  1  0
  7 32  1  0
  8 33  1  1
  9 34  1  0
  9 35  1  0
 10 36  1  0
 10 37  1  0
 14 38  1  0
 14 39  1  0
 15 40  1  0
 15 41  1  0
 16 42  1  0
 16 43  1  0
M  END
> <Uni-Dock RESULT> 
ENERGY=   -4.065  LOWER_BOUND=    5.576  UPPER_BOUND=   11.163
INTER + INTRA:          -4.065
INTER:                  -4.065
INTRA:                   0.000
UNBOUND:                 0.000

$$$$

     RDKit          3D

 43 45  0  0  0  0  0  0  0  0999 V2000
   43.3966    4.9283   12.2349 C   0  0  0  0  0  0  0  0  0  0  0  0
   43.6814    3.5760   12.0236 C   0  0  0  0  0  0  0  0  0  0  0  0
   44.9295    3.0605   12.3838 C   0  0  0  0  0  0  0  0  0  0  0  0
   45.8960    3.8932   12.9574 C   0  0  0  0  0  0  0  0  0  0  0  0
   45.6144    5.2541   13.1799 C   0  0  0  0  0  0  0  0  0  0  0  0
   44.3587    5.7653   12.8084 C   0  0  0  0  0  0  0  0  0  0  0  0
   46.6581    6.1679   13.7739 C   0  0  0  0  0  0  0  0  0  0  0  0
   47.6927    6.6254   12.7201 C   0  0  1  0  0  0  0  0  0  0  0  0
   47.0682    7.4409   11.6721 N   0  0  0  0  0  0  0  0  0  0  0  0
   48.8217    7.4266   13.3967 C   0  0  0  0  0  0  0  0  0  0  0  0
   49.8886    7.8540   12.4203 C   0  0  0  0  0  0  0  0  0  0  0  0
   50.2703    7.0484   11.5272 O   0  0  0  0  0  0  0  0  0  0  0  0
   50.4921    9.1586   12.5035 N   0  0  0  0  0  0  0  0  0  0  0  0
   51.0215    9.7800   11.2783 C   0  0  0  0  0  0  0  0  0  0  0  0
   50.8522    9.7431   13.8088 C   0  0  0  0  0  0  0  0  0  0  0  0
   50.4521   11.2236   13.8533 C   0  0  0  0  0  0  0  0  0  0  0  0
   50.8541   11.8791   12.6108 N   0  0  0  0  0  0  0  0  0  0  0  0
   51.0595   11.2673   11.4359 C   0  0  0  0  0  0  0  0  0  0  0  0
   50.9683   13.1863   12.3098 C   0  0  0  0  0  0  0  0  0  0  0  0
   51.2689   13.3563   11.0045 N   0  0  0  0  0  0  0  0  0  0  0  0
   51.3278   12.1493   10.4548 N   0  0  0  0  0  0  0  0  0  0  0  0
   42.1880    5.4316   11.8811 F   0  0  0  0  0  0  0  0  0  0  0  0
   42.7495    2.7636   11.4666 F   0  0  0  0  0  0  0  0  0  0  0  0
   47.1037    3.3735   13.2945 F   0  0  0  0  0  0  0  0  0  0  0  0
   50.7979   14.3108   13.2847 C   0  0  0  0  0  0  0  0  0  0  0  0
   49.5631   14.2129   13.8987 F   0  0  0  0  0  0  0  0  0  0  0  0
   50.8792   15.5265   12.6299 F   0  0  0  0  0  0  0  0  0  0  0  0
   51.7924   14.2473   14.2423 F   0  0  0  0  0  0  0  0  0  0  0  0
   45.1494    2.0138   12.2163 H   0  0  0  0  0  0  0  0  0  0  0  0
   44.1276    6.8127   12.9592 H   0  0  0  0  0  0  0  0  0  0  0  0
   47.1784    5.6279   14.5952 H   0  0  0  0  0  0  0  0  0  0  0  0
   46.1737    7.0550   14.2390 H   0  0  0  0  0  0  0  0  0  0  0  0
   48.1413    5.7198   12.2529 H   0  0  0  0  0  0  0  0  0  0  0  0
   46.4801    8.1872   12.1101 H   0  0  0  0  0  0  0  0  0  0  0  0
   46.4412    6.8359   11.0943 H   0  0  0  0  0  0  0  0  0  0  0  0
   49.3010    6.8083   14.1862 H   0  0  0  0  0  0  0  0  0  0  0  0
   48.3765    8.3240   13.8788 H   0  0  0  0  0  0  0  0  0  0  0  0
   50.3718    9.5324   10.4111 H   0  0  0  0  0  0  0  0  0  0  0  0
   52.0482    9.4033   11.0846 H   0  0  0  0  0  0  0  0  0  0  0  0
   50.3700    9.2081   14.6530 H   0  0  0  0  0  0  0  0  0  0  0  0
   51.9517    9.6576   13.9482 H   0  0  0  0  0  0  0  0  0  0  0  0
   50.9405   11.7149   14.7217 H   0  0  0  0  0  0  0  0  0  0  0  0
   49.3496   11.3045   13.9663 H   0  0  0  0  0  0  0  0  0  0  0  0
  1  2  2  0
  2  3  1  0
  3  4  2  0
  4  5  1  0
  5  6  2  0
  1  6  1  0
  7  8  1  0
  8  9  1  0
  5  7  1  0
 10 11  1  0
 11 12  2  0
  8 10  1  0
 13 14  1  0
 11 13  1  0
 15 16  1  0
 16 17  1  0
 17 18  1  0
 14 18  1  0
 13 15  1  0
 19 20  2  0
 20 21  1  0
 17 19  1  0
 18 21  2  0
  1 22  1  0
  2 23  1  0
  4 24  1  0
 19 25  1  0
 25 26  1  0
 25 27  1  0
 25 28  1  0
  3 29  1  0
  6 30  1  0
  7 31  1  0
  7 32  1  0
  8 33  1  1
  9 34  1  0
  9 35  1  0
 10 36  1  0
 10 37  1  0
 14 38  1  0
 14 39  1  0
 15 40  1  0
 15 41  1  0
 16 42  1  0
 16 43  1  0
M  END
> <Uni-Dock RESULT> 
ENERGY=   -4.019  LOWER_BOUND=    4.394  UPPER_BOUND=    5.378
INTER + INTRA:          -4.019
INTER:                  -4.019
INTRA:                   0.000
UNBOUND:                 0.000

$$$$

     RDKit          3D

 43 45  0  0  0  0  0  0  0  0999 V2000
   44.5922    4.4118    9.8928 C   0  0  0  0  0  0  0  0  0  0  0  0
   44.5507    3.1938   10.5780 C   0  0  0  0  0  0  0  0  0  0  0  0
   44.8553    3.1486   11.9412 C   0  0  0  0  0  0  0  0  0  0  0  0
   45.2004    4.3193   12.6245 C   0  0  0  0  0  0  0  0  0  0  0  0
   45.2375    5.5504   11.9434 C   0  0  0  0  0  0  0  0  0  0  0  0
   44.9360    5.5854   10.5708 C   0  0  0  0  0  0  0  0  0  0  0  0
   45.6336    6.8158   12.6638 C   0  0  0  0  0  0  0  0  0  0  0  0
   47.1670    6.9353   12.8211 C   0  0  1  0  0  0  0  0  0  0  0  0
   47.8338    7.0497   11.5189 N   0  0  0  0  0  0  0  0  0  0  0  0
   47.5184    8.1565   13.6926 C   0  0  0  0  0  0  0  0  0  0  0  0
   49.0027    8.2911   13.9226 C   0  0  0  0  0  0  0  0  0  0  0  0
   49.6905    7.2585   14.1528 O   0  0  0  0  0  0  0  0  0  0  0  0
   49.6435    9.5803   13.9035 N   0  0  0  0  0  0  0  0  0  0  0  0
   51.0611    9.6675   13.5157 C   0  0  0  0  0  0  0  0  0  0  0  0
   49.0076   10.7500   14.5379 C   0  0  0  0  0  0  0  0  0  0  0  0
   49.1455   11.9818   13.6335 C   0  0  0  0  0  0  0  0  0  0  0  0
   50.5120   12.0662   13.1230 N   0  0  0  0  0  0  0  0  0  0  0  0
   51.3674   11.0407   13.0069 C   0  0  0  0  0  0  0  0  0  0  0  0
   51.1658   13.0894   12.5416 C   0  0  0  0  0  0  0  0  0  0  0  0
   52.3896   12.7035   12.1215 N   0  0  0  0  0  0  0  0  0  0  0  0
   52.5172   11.4151   12.4154 N   0  0  0  0  0  0  0  0  0  0  0  0
   44.3023    4.4569    8.5688 F   0  0  0  0  0  0  0  0  0  0  0  0
   44.2184    2.0550    9.9212 F   0  0  0  0  0  0  0  0  0  0  0  0
   45.4982    4.2522   13.9470 F   0  0  0  0  0  0  0  0  0  0  0  0
   50.6244   14.4773   12.3849 C   0  0  0  0  0  0  0  0  0  0  0  0
   49.4113   14.4329   11.7233 F   0  0  0  0  0  0  0  0  0  0  0  0
   51.5062   15.2541   11.6555 F   0  0  0  0  0  0  0  0  0  0  0  0
   50.4461   15.0475   13.6313 F   0  0  0  0  0  0  0  0  0  0  0  0
   44.8259    2.2041   12.4693 H   0  0  0  0  0  0  0  0  0  0  0  0
   44.9720    6.5209   10.0261 H   0  0  0  0  0  0  0  0  0  0  0  0
   45.1560    6.8183   13.6682 H   0  0  0  0  0  0  0  0  0  0  0  0
   45.2377    7.7055   12.1259 H   0  0  0  0  0  0  0  0  0  0  0  0
   47.5389    6.0215   13.3375 H   0  0  0  0  0  0  0  0  0  0  0  0
   47.3603    7.7847   10.9442 H   0  0  0  0  0  0  0  0  0  0  0  0
   47.7504    6.1406   11.0095 H   0  0  0  0  0  0  0  0  0  0  0  0
   47.0201    8.0685   14.6821 H   0  0  0  0  0  0  0  0  0  0  0  0
   47.1348    9.0704   13.1890 H   0  0  0  0  0  0  0  0  0  0  0  0
   51.2844    8.9338   12.7111 H   0  0  0  0  0  0  0  0  0  0  0  0
   51.7012    9.4494   14.3967 H   0  0  0  0  0  0  0  0  0  0  0  0
   47.9338   10.5744   14.7558 H   0  0  0  0  0  0  0  0  0  0  0  0
   49.5132   10.9503   15.5074 H   0  0  0  0  0  0  0  0  0  0  0  0
   48.8944   12.8969   14.2109 H   0  0  0  0  0  0  0  0  0  0  0  0
   48.4430   11.8913   12.7774 H   0  0  0  0  0  0  0  0  0  0  0  0
  1  2  2  0
  2  3  1  0
  3  4  2  0
  4  5  1  0
  5  6  2  0
  1  6  1  0
  7  8  1  0
  8  9  1  0
  5  7  1  0
 10 11  1  0
 11 12  2  0
  8 10  1  0
 13 14  1  0
 11 13  1  0
 15 16  1  0
 16 17  1  0
 17 18  1  0
 14 18  1  0
 13 15  1  0
 19 20  2  0
 20 21  1  0
 17 19  1  0
 18 21  2  0
  1 22  1  0
  2 23  1  0
  4 24  1  0
 19 25  1  0
 25 26  1  0
 25 27  1  0
 25 28  1  0
  3 29  1  0
  6 30  1  0
  7 31  1  0
  7 32  1  0
  8 33  1  1
  9 34  1  0
  9 35  1  0
 10 36  1  0
 10 37  1  0
 14 38  1  0
 14 39  1  0
 15 40  1  0
 15 41  1  0
 16 42  1  0
 16 43  1  0
M  END
> <Uni-Dock RESULT> 
ENERGY=   -4.006  LOWER_BOUND=    3.254  UPPER_BOUND=    4.504
INTER + INTRA:          -4.006
INTER:                  -4.006
INTRA:                   0.000
UNBOUND:                 0.000

$$$$

     RDKit          3D

 43 45  0  0  0  0  0  0  0  0999 V2000
   43.7805    4.7858   12.7977 C   0  0  0  0  0  0  0  0  0  0  0  0
   43.5641    4.3746   11.4791 C   0  0  0  0  0  0  0  0  0  0  0  0
   44.4234    4.8033   10.4638 C   0  0  0  0  0  0  0  0  0  0  0  0
   45.5023    5.6420   10.7622 C   0  0  0  0  0  0  0  0  0  0  0  0
   45.7311    6.0545   12.0883 C   0  0  0  0  0  0  0  0  0  0  0  0
   44.8577    5.6238   13.1020 C   0  0  0  0  0  0  0  0  0  0  0  0
   46.8761    6.9802   12.4185 C   0  0  0  0  0  0  0  0  0  0  0  0
   46.5410    8.4535   12.0911 C   0  0  1  0  0  0  0  0  0  0  0  0
   45.4374    8.9511   12.9204 N   0  0  0  0  0  0  0  0  0  0  0  0
   47.7846    9.3399   12.2967 C   0  0  0  0  0  0  0  0  0  0  0  0
   47.5280   10.7826   11.9405 C   0  0  0  0  0  0  0  0  0  0  0  0
   46.8442   11.0560   10.9158 O   0  0  0  0  0  0  0  0  0  0  0  0
   48.0672   11.8523   12.7395 N   0  0  0  0  0  0  0  0  0  0  0  0
   47.3562   13.1409   12.7810 C   0  0  0  0  0  0  0  0  0  0  0  0
   49.4430   11.7830   13.2659 C   0  0  0  0  0  0  0  0  0  0  0  0
   49.4759   12.2614   14.7234 C   0  0  0  0  0  0  0  0  0  0  0  0
   48.6916   13.4870   14.8563 N   0  0  0  0  0  0  0  0  0  0  0  0
   47.7037   13.8750   14.0375 C   0  0  0  0  0  0  0  0  0  0  0  0
   48.6591   14.4007   15.8445 C   0  0  0  0  0  0  0  0  0  0  0  0
   47.7076   15.3299   15.6113 N   0  0  0  0  0  0  0  0  0  0  0  0
   47.1075   15.0003   14.4738 N   0  0  0  0  0  0  0  0  0  0  0  0
   42.9446    4.3753   13.7834 F   0  0  0  0  0  0  0  0  0  0  0  0
   42.5192    3.5627   11.1826 F   0  0  0  0  0  0  0  0  0  0  0  0
   46.3214    6.0513    9.7603 F   0  0  0  0  0  0  0  0  0  0  0  0
   49.5589   14.4038   17.0421 C   0  0  0  0  0  0  0  0  0  0  0  0
   49.4638   13.1918   17.7002 F   0  0  0  0  0  0  0  0  0  0  0  0
   49.1941   15.4168   17.9105 F   0  0  0  0  0  0  0  0  0  0  0  0
   50.8653   14.6050   16.6383 F   0  0  0  0  0  0  0  0  0  0  0  0
   44.2523    4.4865    9.4428 H   0  0  0  0  0  0  0  0  0  0  0  0
   45.0092    5.9411   14.1265 H   0  0  0  0  0  0  0  0  0  0  0  0
   47.7691    6.6642   11.8359 H   0  0  0  0  0  0  0  0  0  0  0  0
   47.1519    6.8842   13.4922 H   0  0  0  0  0  0  0  0  0  0  0  0
   46.2434    8.5158   11.0199 H   0  0  0  0  0  0  0  0  0  0  0  0
   45.6203    8.7214   13.9247 H   0  0  0  0  0  0  0  0  0  0  0  0
   44.5523    8.4720   12.6375 H   0  0  0  0  0  0  0  0  0  0  0  0
   48.6198    8.9692   11.6641 H   0  0  0  0  0  0  0  0  0  0  0  0
   48.0956    9.2685   13.3618 H   0  0  0  0  0  0  0  0  0  0  0  0
   46.2576   12.9735   12.7610 H   0  0  0  0  0  0  0  0  0  0  0  0
   47.6482   13.7545   11.9026 H   0  0  0  0  0  0  0  0  0  0  0  0
   49.8610   10.7567   13.2080 H   0  0  0  0  0  0  0  0  0  0  0  0
   50.0951   12.4406   12.6509 H   0  0  0  0  0  0  0  0  0  0  0  0
   50.5275   12.4435   15.0313 H   0  0  0  0  0  0  0  0  0  0  0  0
   49.0387   11.4777   15.3787 H   0  0  0  0  0  0  0  0  0  0  0  0
  1  2  2  0
  2  3  1  0
  3  4  2  0
  4  5  1  0
  5  6  2  0
  1  6  1  0
  7  8  1  0
  8  9  1  0
  5  7  1  0
 10 11  1  0
 11 12  2  0
  8 10  1  0
 13 14  1  0
 11 13  1  0
 15 16  1  0
 16 17  1  0
 17 18  1  0
 14 18  1  0
 13 15  1  0
 19 20  2  0
 20 21  1  0
 17 19  1  0
 18 21  2  0
  1 22  1  0
  2 23  1  0
  4 24  1  0
 19 25  1  0
 25 26  1  0
 25 27  1  0
 25 28  1  0
  3 29  1  0
  6 30  1  0
  7 31  1  0
  7 32  1  0
  8 33  1  1
  9 34  1  0
  9 35  1  0
 10 36  1  0
 10 37  1  0
 14 38  1  0
 14 39  1  0
 15 40  1  0
 15 41  1  0
 16 42  1  0
 16 43  1  0
M  END
> <Uni-Dock RESULT> 
ENERGY=   -3.989  LOWER_BOUND=    3.897  UPPER_BOUND=    5.661
INTER + INTRA:          -3.989
INTER:                  -3.989
INTRA:                   0.000
UNBOUND:                 0.000

$$$$
