
     RDKit          3D

 43 45  0  0  0  0  0  0  0  0999 V2000
   47.3374   12.9514   20.2670 C   0  0  0  0  0  0  0  0  0  0  0  0
   47.4064   12.7430   18.8862 C   0  0  0  0  0  0  0  0  0  0  0  0
   47.4169   11.4426   18.3755 C   0  0  0  0  0  0  0  0  0  0  0  0
   47.3563   10.3468   19.2418 C   0  0  0  0  0  0  0  0  0  0  0  0
   47.2796   10.5483   20.6329 C   0  0  0  0  0  0  0  0  0  0  0  0
   47.2769   11.8596   21.1379 C   0  0  0  0  0  0  0  0  0  0  0  0
   47.2376    9.3730   21.5779 C   0  0  0  0  0  0  0  0  0  0  0  0
   48.6388    8.7465   21.7837 C   0  0  1  0  0  0  0  0  0  0  0  0
   49.5606    9.6965   22.4144 N   0  0  0  0  0  0  0  0  0  0  0  0
   48.5650    7.4756   22.6521 C   0  0  0  0  0  0  0  0  0  0  0  0
   47.7953    6.3660   21.9778 C   0  0  0  0  0  0  0  0  0  0  0  0
   46.6802    6.0297   22.4639 O   0  0  0  0  0  0  0  0  0  0  0  0
   48.2585    5.7342   20.7656 N   0  0  0  0  0  0  0  0  0  0  0  0
   47.2557    5.4394   19.7238 C   0  0  0  0  0  0  0  0  0  0  0  0
   49.7016    5.6421   20.4611 C   0  0  0  0  0  0  0  0  0  0  0  0
   50.0333    4.3208   19.7570 C   0  0  0  0  0  0  0  0  0  0  0  0
   49.0697    4.0799   18.6917 N   0  0  0  0  0  0  0  0  0  0  0  0
   47.8113    4.5326   18.6724 C   0  0  0  0  0  0  0  0  0  0  0  0
   49.1325    3.2680   17.6201 C   0  0  0  0  0  0  0  0  0  0  0  0
   47.9579    3.2579   16.9550 N   0  0  0  0  0  0  0  0  0  0  0  0
   47.1258    4.0513   17.6186 N   0  0  0  0  0  0  0  0  0  0  0  0
   47.3313   14.2123   20.7643 F   0  0  0  0  0  0  0  0  0  0  0  0
   47.4662   13.8012   18.0408 F   0  0  0  0  0  0  0  0  0  0  0  0
   47.3729    9.0922   18.7250 F   0  0  0  0  0  0  0  0  0  0  0  0
   50.3387    2.4839   17.2038 C   0  0  0  0  0  0  0  0  0  0  0  0
   50.7733    1.7030   18.2571 F   0  0  0  0  0  0  0  0  0  0  0  0
   50.0300    1.6638   16.1341 F   0  0  0  0  0  0  0  0  0  0  0  0
   51.3466    3.3512   16.8297 F   0  0  0  0  0  0  0  0  0  0  0  0
   47.4735   11.2831   17.3061 H   0  0  0  0  0  0  0  0  0  0  0  0
   47.2314   12.0353   22.2058 H   0  0  0  0  0  0  0  0  0  0  0  0
   46.5410    8.6149   21.1598 H   0  0  0  0  0  0  0  0  0  0  0  0
   46.8141    9.6805   22.5592 H   0  0  0  0  0  0  0  0  0  0  0  0
   49.0552    8.4682   20.7916 H   0  0  0  0  0  0  0  0  0  0  0  0
   49.1085   10.1177   23.2583 H   0  0  0  0  0  0  0  0  0  0  0  0
   49.7711   10.4704   21.7437 H   0  0  0  0  0  0  0  0  0  0  0  0
   48.0818    7.7244   23.6230 H   0  0  0  0  0  0  0  0  0  0  0  0
   49.5888    7.1289   22.9001 H   0  0  0  0  0  0  0  0  0  0  0  0
   46.3755    4.9352   20.1755 H   0  0  0  0  0  0  0  0  0  0  0  0
   46.9223    6.3876   19.2534 H   0  0  0  0  0  0  0  0  0  0  0  0
   49.9910    6.4898   19.8027 H   0  0  0  0  0  0  0  0  0  0  0  0
   50.3117    5.6875   21.3867 H   0  0  0  0  0  0  0  0  0  0  0  0
   51.0617    4.3709   19.3402 H   0  0  0  0  0  0  0  0  0  0  0  0
   49.9816    3.4863   20.4886 H   0  0  0  0  0  0  0  0  0  0  0  0
  1  2  2  0
  2  3  1  0
  3  4  2  0
  4  5  1  0
  5  6  2  0
  1  6  1  0
  7  8  1  0
  8  9  1  0
  5  7  1  0
 10 11  1  0
 11 12  2  0
  8 10  1  0
 13 14  1  0
 11 13  1  0
 15 16  1  0
 16 17  1  0
 17 18  1  0
 14 18  1  0
 13 15  1  0
 19 20  2  0
 20 21  1  0
 17 19  1  0
 18 21  2  0
  1 22  1  0
  2 23  1  0
  4 24  1  0
 19 25  1  0
 25 26  1  0
 25 27  1  0
 25 28  1  0
  3 29  1  0
  6 30  1  0
  7 31  1  0
  7 32  1  0
  8 33  1  6
  9 34  1  0
  9 35  1  0
 10 36  1  0
 10 37  1  0
 14 38  1  0
 14 39  1  0
 15 40  1  0
 15 41  1  0
 16 42  1  0
 16 43  1  0
M  END
> <Uni-Dock RESULT> 
ENERGY=   -4.340  LOWER_BOUND=    0.000  UPPER_BOUND=    0.000
INTER + INTRA:          -4.340
INTER:                  -4.340
INTRA:                   0.000
UNBOUND:                 0.000

$$$$

     RDKit          3D

 43 45  0  0  0  0  0  0  0  0999 V2000
   45.5621    6.1116   11.2117 C   0  0  0  0  0  0  0  0  0  0  0  0
   44.5923    7.0994   11.4084 C   0  0  0  0  0  0  0  0  0  0  0  0
   44.8425    8.1599   12.2829 C   0  0  0  0  0  0  0  0  0  0  0  0
   46.0624    8.2384   12.9617 C   0  0  0  0  0  0  0  0  0  0  0  0
   47.0467    7.2516   12.7637 C   0  0  0  0  0  0  0  0  0  0  0  0
   46.7835    6.1849   11.8878 C   0  0  0  0  0  0  0  0  0  0  0  0
   48.3571    7.3137   13.5087 C   0  0  0  0  0  0  0  0  0  0  0  0
   48.2143    6.8246   14.9710 C   0  0  1  0  0  0  0  0  0  0  0  0
   47.8236    5.4124   15.0255 N   0  0  0  0  0  0  0  0  0  0  0  0
   49.5277    7.0067   15.7563 C   0  0  0  0  0  0  0  0  0  0  0  0
   49.8983    8.4606   15.9217 C   0  0  0  0  0  0  0  0  0  0  0  0
   50.9137    8.8931   15.3096 O   0  0  0  0  0  0  0  0  0  0  0  0
   49.0935    9.3770   16.6936 N   0  0  0  0  0  0  0  0  0  0  0  0
   48.8864   10.7313   16.1453 C   0  0  0  0  0  0  0  0  0  0  0  0
   48.2842    8.9010   17.8347 C   0  0  0  0  0  0  0  0  0  0  0  0
   48.2595    9.9381   18.9640 C   0  0  0  0  0  0  0  0  0  0  0  0
   47.9911   11.2577   18.4092 N   0  0  0  0  0  0  0  0  0  0  0  0
   48.2985   11.6503   17.1682 C   0  0  0  0  0  0  0  0  0  0  0  0
   47.5546   12.3850   19.0009 C   0  0  0  0  0  0  0  0  0  0  0  0
   47.5660   13.4190   18.1331 N   0  0  0  0  0  0  0  0  0  0  0  0
   48.0367   12.9574   16.9809 N   0  0  0  0  0  0  0  0  0  0  0  0
   45.3194    5.0799   10.3668 F   0  0  0  0  0  0  0  0  0  0  0  0
   43.4072    7.0288   10.7540 F   0  0  0  0  0  0  0  0  0  0  0  0
   46.2829    9.2740   13.8102 F   0  0  0  0  0  0  0  0  0  0  0  0
   47.1041   12.4907   20.4253 C   0  0  0  0  0  0  0  0  0  0  0  0
   48.0957   12.0198   21.2639 F   0  0  0  0  0  0  0  0  0  0  0  0
   46.8340   13.8086   20.7448 F   0  0  0  0  0  0  0  0  0  0  0  0
   45.9582   11.7404   20.6039 F   0  0  0  0  0  0  0  0  0  0  0  0
   44.0892    8.9221   12.4364 H   0  0  0  0  0  0  0  0  0  0  0  0
   47.5229    5.4088   11.7318 H   0  0  0  0  0  0  0  0  0  0  0  0
   48.7164    8.3652   13.4940 H   0  0  0  0  0  0  0  0  0  0  0  0
   49.1300    6.7110   12.9832 H   0  0  0  0  0  0  0  0  0  0  0  0
   47.4220    7.4217   15.4720 H   0  0  0  0  0  0  0  0  0  0  0  0
   48.4491    4.8502   14.4037 H   0  0  0  0  0  0  0  0  0  0  0  0
   46.8449    5.3110   14.6717 H   0  0  0  0  0  0  0  0  0  0  0  0
   50.3475    6.4739   15.2251 H   0  0  0  0  0  0  0  0  0  0  0  0
   49.4424    6.5229   16.7505 H   0  0  0  0  0  0  0  0  0  0  0  0
   49.8568   11.1623   15.8204 H   0  0  0  0  0  0  0  0  0  0  0  0
   48.2087   10.6748   15.2683 H   0  0  0  0  0  0  0  0  0  0  0  0
   47.2443    8.7103   17.4908 H   0  0  0  0  0  0  0  0  0  0  0  0
   48.6965    7.9609   18.2558 H   0  0  0  0  0  0  0  0  0  0  0  0
   47.4749    9.6647   19.7012 H   0  0  0  0  0  0  0  0  0  0  0  0
   49.2452    9.9535   19.4764 H   0  0  0  0  0  0  0  0  0  0  0  0
  1  2  2  0
  2  3  1  0
  3  4  2  0
  4  5  1  0
  5  6  2  0
  1  6  1  0
  7  8  1  0
  8  9  1  0
  5  7  1  0
 10 11  1  0
 11 12  2  0
  8 10  1  0
 13 14  1  0
 11 13  1  0
 15 16  1  0
 16 17  1  0
 17 18  1  0
 14 18  1  0
 13 15  1  0
 19 20  2  0
 20 21  1  0
 17 19  1  0
 18 21  2  0
  1 22  1  0
  2 23  1  0
  4 24  1  0
 19 25  1  0
 25 26  1  0
 25 27  1  0
 25 28  1  0
  3 29  1  0
  6 30  1  0
  7 31  1  0
  7 32  1  0
  8 33  1  6
  9 34  1  0
  9 35  1  0
 10 36  1  0
 10 37  1  0
 14 38  1  0
 14 39  1  0
 15 40  1  0
 15 41  1  0
 16 42  1  0
 16 43  1  0
M  END
> <Uni-Dock RESULT> 
ENERGY=   -4.292  LOWER_BOUND=    5.448  UPPER_BOUND=    8.998
INTER + INTRA:          -4.292
INTER:                  -4.292
INTRA:                   0.000
UNBOUND:                 0.000

$$$$

     RDKit          3D

 43 45  0  0  0  0  0  0  0  0999 V2000
   49.2897    9.0544   20.2882 C   0  0  0  0  0  0  0  0  0  0  0  0
   48.3216    8.1136   20.6525 C   0  0  0  0  0  0  0  0  0  0  0  0
   47.7536    7.2840   19.6825 C   0  0  0  0  0  0  0  0  0  0  0  0
   48.1521    7.3897   18.3464 C   0  0  0  0  0  0  0  0  0  0  0  0
   49.1312    8.3295   17.9726 C   0  0  0  0  0  0  0  0  0  0  0  0
   49.6917    9.1646   18.9539 C   0  0  0  0  0  0  0  0  0  0  0  0
   49.5515    8.4682   16.5303 C   0  0  0  0  0  0  0  0  0  0  0  0
   48.5184    9.2711   15.7019 C   0  0  1  0  0  0  0  0  0  0  0  0
   48.4001   10.6494   16.1878 N   0  0  0  0  0  0  0  0  0  0  0  0
   48.8964    9.3020   14.2083 C   0  0  0  0  0  0  0  0  0  0  0  0
   48.8439    7.9322   13.5765 C   0  0  0  0  0  0  0  0  0  0  0  0
   49.9287    7.3971   13.2161 O   0  0  0  0  0  0  0  0  0  0  0  0
   47.6109    7.1946   13.4392 N   0  0  0  0  0  0  0  0  0  0  0  0
   47.6468    5.7469   13.7235 C   0  0  0  0  0  0  0  0  0  0  0  0
   46.3183    7.8962   13.2965 C   0  0  0  0  0  0  0  0  0  0  0  0
   45.3826    7.1403   12.3455 C   0  0  0  0  0  0  0  0  0  0  0  0
   45.3838    5.7235   12.6831 N   0  0  0  0  0  0  0  0  0  0  0  0
   46.3971    5.0686   13.2603 C   0  0  0  0  0  0  0  0  0  0  0  0
   44.5080    4.7486   12.3766 C   0  0  0  0  0  0  0  0  0  0  0  0
   44.9638    3.5461   12.7871 N   0  0  0  0  0  0  0  0  0  0  0  0
   46.1536    3.7470   13.3406 N   0  0  0  0  0  0  0  0  0  0  0  0
   49.8387    9.8629   21.2274 F   0  0  0  0  0  0  0  0  0  0  0  0
   47.9302    8.0066   21.9461 F   0  0  0  0  0  0  0  0  0  0  0  0
   47.5840    6.5776   17.4195 F   0  0  0  0  0  0  0  0  0  0  0  0
   43.1967    4.9562   11.6834 C   0  0  0  0  0  0  0  0  0  0  0  0
   43.3998    5.6276   10.4933 F   0  0  0  0  0  0  0  0  0  0  0  0
   42.5993    3.7383   11.4158 F   0  0  0  0  0  0  0  0  0  0  0  0
   42.3597    5.7000   12.4922 F   0  0  0  0  0  0  0  0  0  0  0  0
   47.0018    6.5583   19.9660 H   0  0  0  0  0  0  0  0  0  0  0  0
   50.4371    9.9030   18.6842 H   0  0  0  0  0  0  0  0  0  0  0  0
   49.6708    7.4494   16.1030 H   0  0  0  0  0  0  0  0  0  0  0  0
   50.5491    8.9552   16.4631 H   0  0  0  0  0  0  0  0  0  0  0  0
   47.5244    8.7836   15.8008 H   0  0  0  0  0  0  0  0  0  0  0  0
   49.3523   11.0716   16.2829 H   0  0  0  0  0  0  0  0  0  0  0  0
   47.9555   10.6451   17.1341 H   0  0  0  0  0  0  0  0  0  0  0  0
   49.9216    9.7207   14.0998 H   0  0  0  0  0  0  0  0  0  0  0  0
   48.2237    9.9955   13.6638 H   0  0  0  0  0  0  0  0  0  0  0  0
   48.5031    5.2770   13.1955 H   0  0  0  0  0  0  0  0  0  0  0  0
   47.7690    5.5880   14.8150 H   0  0  0  0  0  0  0  0  0  0  0  0
   45.8356    7.9797   14.2944 H   0  0  0  0  0  0  0  0  0  0  0  0
   46.4579    8.9166   12.8837 H   0  0  0  0  0  0  0  0  0  0  0  0
   44.3552    7.5541   12.4297 H   0  0  0  0  0  0  0  0  0  0  0  0
   45.7360    7.2643   11.2995 H   0  0  0  0  0  0  0  0  0  0  0  0
  1  2  2  0
  2  3  1  0
  3  4  2  0
  4  5  1  0
  5  6  2  0
  1  6  1  0
  7  8  1  0
  8  9  1  0
  5  7  1  0
 10 11  1  0
 11 12  2  0
  8 10  1  0
 13 14  1  0
 11 13  1  0
 15 16  1  0
 16 17  1  0
 17 18  1  0
 14 18  1  0
 13 15  1  0
 19 20  2  0
 20 21  1  0
 17 19  1  0
 18 21  2  0
  1 22  1  0
  2 23  1  0
  4 24  1  0
 19 25  1  0
 25 26  1  0
 25 27  1  0
 25 28  1  0
  3 29  1  0
  6 30  1  0
  7 31  1  0
  7 32  1  0
  8 33  1  6
  9 34  1  0
  9 35  1  0
 10 36  1  0
 10 37  1  0
 14 38  1  0
 14 39  1  0
 15 40  1  0
 15 41  1  0
 16 42  1  0
 16 43  1  0
M  END
> <Uni-Dock RESULT> 
ENERGY=   -4.198  LOWER_BOUND=    5.697  UPPER_BOUND=    7.011
INTER + INTRA:          -4.198
INTER:                  -4.198
INTRA:                   0.000
UNBOUND:                 0.000

$$$$

     RDKit          3D

 43 45  0  0  0  0  0  0  0  0999 V2000
   46.7291   11.9468   20.0243 C   0  0  0  0  0  0  0  0  0  0  0  0
   47.2776   11.8658   18.7407 C   0  0  0  0  0  0  0  0  0  0  0  0
   47.8380   10.6663   18.2948 C   0  0  0  0  0  0  0  0  0  0  0  0
   47.8504    9.5436   19.1282 C   0  0  0  0  0  0  0  0  0  0  0  0
   47.2939    9.6150   20.4193 C   0  0  0  0  0  0  0  0  0  0  0  0
   46.7389   10.8277   20.8619 C   0  0  0  0  0  0  0  0  0  0  0  0
   47.3229    8.4167   21.3354 C   0  0  0  0  0  0  0  0  0  0  0  0
   48.7142    8.2207   21.9867 C   0  0  1  0  0  0  0  0  0  0  0  0
   49.0645    9.3544   22.8481 N   0  0  0  0  0  0  0  0  0  0  0  0
   48.7671    6.9273   22.8228 C   0  0  0  0  0  0  0  0  0  0  0  0
   48.6157    5.6897   21.9720 C   0  0  0  0  0  0  0  0  0  0  0  0
   47.5627    5.0047   22.0934 O   0  0  0  0  0  0  0  0  0  0  0  0
   49.5968    5.3105   20.9835 N   0  0  0  0  0  0  0  0  0  0  0  0
   49.1006    4.8057   19.6886 C   0  0  0  0  0  0  0  0  0  0  0  0
   51.0201    5.6717   21.1489 C   0  0  0  0  0  0  0  0  0  0  0  0
   51.9359    4.5611   20.6205 C   0  0  0  0  0  0  0  0  0  0  0  0
   51.4659    4.1209   19.3141 N   0  0  0  0  0  0  0  0  0  0  0  0
   50.1991    4.1805   18.8893 C   0  0  0  0  0  0  0  0  0  0  0  0
   52.0972    3.4415   18.3387 C   0  0  0  0  0  0  0  0  0  0  0  0
   51.2442    3.1306   17.3397 N   0  0  0  0  0  0  0  0  0  0  0  0
   50.0494    3.5930   17.6874 N   0  0  0  0  0  0  0  0  0  0  0  0
   46.1887   13.1111   20.4600 F   0  0  0  0  0  0  0  0  0  0  0  0
   47.2695   12.9509   17.9280 F   0  0  0  0  0  0  0  0  0  0  0  0
   48.4042    8.3899   18.6772 F   0  0  0  0  0  0  0  0  0  0  0  0
   53.5509    3.0814   18.3426 C   0  0  0  0  0  0  0  0  0  0  0  0
   53.8573    2.3924   19.5000 F   0  0  0  0  0  0  0  0  0  0  0  0
   53.8489    2.2840   17.2529 F   0  0  0  0  0  0  0  0  0  0  0  0
   54.3118    4.2325   18.2794 F   0  0  0  0  0  0  0  0  0  0  0  0
   48.2651   10.6063   17.3018 H   0  0  0  0  0  0  0  0  0  0  0  0
   46.3174   10.9065   21.8567 H   0  0  0  0  0  0  0  0  0  0  0  0
   47.0524    7.5175   20.7411 H   0  0  0  0  0  0  0  0  0  0  0  0
   46.5469    8.5151   22.1260 H   0  0  0  0  0  0  0  0  0  0  0  0
   49.4783    8.1488   21.1829 H   0  0  0  0  0  0  0  0  0  0  0  0
   48.2703    9.5623   23.4961 H   0  0  0  0  0  0  0  0  0  0  0  0
   49.2252   10.2011   22.2561 H   0  0  0  0  0  0  0  0  0  0  0  0
   47.9581    6.9528   23.5864 H   0  0  0  0  0  0  0  0  0  0  0  0
   49.7201    6.8830   23.3883 H   0  0  0  0  0  0  0  0  0  0  0  0
   48.3209    4.0328   19.8555 H   0  0  0  0  0  0  0  0  0  0  0  0
   48.6562    5.6431   19.1118 H   0  0  0  0  0  0  0  0  0  0  0  0
   51.2258    6.6112   20.5913 H   0  0  0  0  0  0  0  0  0  0  0  0
   51.2732    5.8308   22.2174 H   0  0  0  0  0  0  0  0  0  0  0  0
   52.9763    4.9428   20.5455 H   0  0  0  0  0  0  0  0  0  0  0  0
   51.9182    3.6994   21.3217 H   0  0  0  0  0  0  0  0  0  0  0  0
  1  2  2  0
  2  3  1  0
  3  4  2  0
  4  5  1  0
  5  6  2  0
  1  6  1  0
  7  8  1  0
  8  9  1  0
  5  7  1  0
 10 11  1  0
 11 12  2  0
  8 10  1  0
 13 14  1  0
 11 13  1  0
 15 16  1  0
 16 17  1  0
 17 18  1  0
 14 18  1  0
 13 15  1  0
 19 20  2  0
 20 21  1  0
 17 19  1  0
 18 21  2  0
  1 22  1  0
  2 23  1  0
  4 24  1  0
 19 25  1  0
 25 26  1  0
 25 27  1  0
 25 28  1  0
  3 29  1  0
  6 30  1  0
  7 31  1  0
  7 32  1  0
  8 33  1  6
  9 34  1  0
  9 35  1  0
 10 36  1  0
 10 37  1  0
 14 38  1  0
 14 39  1  0
 15 40  1  0
 15 41  1  0
 16 42  1  0
 16 43  1  0
M  END
> <Uni-Dock RESULT> 
ENERGY=   -4.142  LOWER_BOUND=    1.788  UPPER_BOUND=    2.083
INTER + INTRA:          -4.142
INTER:                  -4.142
INTRA:                   0.000
UNBOUND:                 0.000

$$$$

     RDKit          3D

 43 45  0  0  0  0  0  0  0  0999 V2000
   44.7330    4.1495   12.7296 C   0  0  0  0  0  0  0  0  0  0  0  0
   43.8205    5.1817   12.4908 C   0  0  0  0  0  0  0  0  0  0  0  0
   44.2488    6.5114   12.5109 C   0  0  0  0  0  0  0  0  0  0  0  0
   45.5896    6.8143   12.7670 C   0  0  0  0  0  0  0  0  0  0  0  0
   46.5158    5.7805   13.0015 C   0  0  0  0  0  0  0  0  0  0  0  0
   46.0747    4.4464   12.9865 C   0  0  0  0  0  0  0  0  0  0  0  0
   47.9600    6.0969   13.3022 C   0  0  0  0  0  0  0  0  0  0  0  0
   48.1580    6.5559   14.7679 C   0  0  1  0  0  0  0  0  0  0  0  0
   47.8075    5.4906   15.7125 N   0  0  0  0  0  0  0  0  0  0  0  0
   49.6126    6.9923   15.0294 C   0  0  0  0  0  0  0  0  0  0  0  0
   49.9927    8.2198   14.2375 C   0  0  0  0  0  0  0  0  0  0  0  0
   50.8377    8.0950   13.3084 O   0  0  0  0  0  0  0  0  0  0  0  0
   49.3720    9.5034   14.4621 N   0  0  0  0  0  0  0  0  0  0  0  0
   49.0291   10.3121   13.2762 C   0  0  0  0  0  0  0  0  0  0  0  0
   48.8480    9.8706   15.7940 C   0  0  0  0  0  0  0  0  0  0  0  0
   49.0665   11.3611   16.0808 C   0  0  0  0  0  0  0  0  0  0  0  0
   48.6629   12.1456   14.9219 N   0  0  0  0  0  0  0  0  0  0  0  0
   48.6765   11.7150   13.6557 C   0  0  0  0  0  0  0  0  0  0  0  0
   48.3575   13.4517   14.8108 C   0  0  0  0  0  0  0  0  0  0  0  0
   48.1592   13.7910   13.5194 N   0  0  0  0  0  0  0  0  0  0  0  0
   48.3626   12.6990   12.7924 N   0  0  0  0  0  0  0  0  0  0  0  0
   44.3184    2.8592   12.7147 F   0  0  0  0  0  0  0  0  0  0  0  0
   42.5190    4.8949   12.2426 F   0  0  0  0  0  0  0  0  0  0  0  0
   45.9833    8.1126   12.7868 F   0  0  0  0  0  0  0  0  0  0  0  0
   48.2398   14.4086   15.9569 C   0  0  0  0  0  0  0  0  0  0  0  0
   49.4012   14.3859   16.7043 F   0  0  0  0  0  0  0  0  0  0  0  0
   48.0323   15.6928   15.4880 F   0  0  0  0  0  0  0  0  0  0  0  0
   47.1735   14.0435   16.7555 F   0  0  0  0  0  0  0  0  0  0  0  0
   43.5402    7.3095   12.3289 H   0  0  0  0  0  0  0  0  0  0  0  0
   46.7693    3.6375   13.1774 H   0  0  0  0  0  0  0  0  0  0  0  0
   48.2933    6.8965   12.6061 H   0  0  0  0  0  0  0  0  0  0  0  0
   48.6014    5.2126   13.0940 H   0  0  0  0  0  0  0  0  0  0  0  0
   47.4921    7.4239   14.9638 H   0  0  0  0  0  0  0  0  0  0  0  0
   48.2831    4.6020   15.4328 H   0  0  0  0  0  0  0  0  0  0  0  0
   46.7755    5.3258   15.6797 H   0  0  0  0  0  0  0  0  0  0  0  0
   50.2976    6.1556   14.7669 H   0  0  0  0  0  0  0  0  0  0  0  0
   49.7606    7.1803   16.1123 H   0  0  0  0  0  0  0  0  0  0  0  0
   49.8953   10.3562   12.5829 H   0  0  0  0  0  0  0  0  0  0  0  0
   48.1713    9.8470   12.7477 H   0  0  0  0  0  0  0  0  0  0  0  0
   47.7598    9.6466   15.8331 H   0  0  0  0  0  0  0  0  0  0  0  0
   49.3567    9.2996   16.5979 H   0  0  0  0  0  0  0  0  0  0  0  0
   48.4726   11.6582   16.9712 H   0  0  0  0  0  0  0  0  0  0  0  0
   50.1423   11.5462   16.2875 H   0  0  0  0  0  0  0  0  0  0  0  0
  1  2  2  0
  2  3  1  0
  3  4  2  0
  4  5  1  0
  5  6  2  0
  1  6  1  0
  7  8  1  0
  8  9  1  0
  5  7  1  0
 10 11  1  0
 11 12  2  0
  8 10  1  0
 13 14  1  0
 11 13  1  0
 15 16  1  0
 16 17  1  0
 17 18  1  0
 14 18  1  0
 13 15  1  0
 19 20  2  0
 20 21  1  0
 17 19  1  0
 18 21  2  0
  1 22  1  0
  2 23  1  0
  4 24  1  0
 19 25  1  0
 25 26  1  0
 25 27  1  0
 25 28  1  0
  3 29  1  0
  6 30  1  0
  7 31  1  0
  7 32  1  0
  8 33  1  6
  9 34  1  0
  9 35  1  0
 10 36  1  0
 10 37  1  0
 14 38  1  0
 14 39  1  0
 15 40  1  0
 15 41  1  0
 16 42  1  0
 16 43  1  0
M  END
> <Uni-Dock RESULT> 
ENERGY=   -4.132  LOWER_BOUND=    6.184  UPPER_BOUND=    9.927
INTER + INTRA:          -4.132
INTER:                  -4.132
INTRA:                   0.000
UNBOUND:                 0.000

$$$$

     RDKit          3D

 43 45  0  0  0  0  0  0  0  0999 V2000
   49.1663   12.6436   17.2222 C   0  0  0  0  0  0  0  0  0  0  0  0
   48.4436   11.8319   18.1018 C   0  0  0  0  0  0  0  0  0  0  0  0
   48.0504   10.5507   17.7070 C   0  0  0  0  0  0  0  0  0  0  0  0
   48.3797   10.0755   16.4339 C   0  0  0  0  0  0  0  0  0  0  0  0
   49.1131   10.8840   15.5450 C   0  0  0  0  0  0  0  0  0  0  0  0
   49.4980   12.1739   15.9481 C   0  0  0  0  0  0  0  0  0  0  0  0
   49.4534   10.3903   14.1606 C   0  0  0  0  0  0  0  0  0  0  0  0
   48.2451   10.4925   13.1973 C   0  0  1  0  0  0  0  0  0  0  0  0
   47.8340   11.8865   13.0032 N   0  0  0  0  0  0  0  0  0  0  0  0
   48.5670    9.8740   11.8231 C   0  0  0  0  0  0  0  0  0  0  0  0
   48.8061    8.3860   11.9074 C   0  0  0  0  0  0  0  0  0  0  0  0
   49.9732    7.9543   11.6970 O   0  0  0  0  0  0  0  0  0  0  0  0
   47.7665    7.4597   12.2874 N   0  0  0  0  0  0  0  0  0  0  0  0
   48.1333    6.3597   13.2001 C   0  0  0  0  0  0  0  0  0  0  0  0
   46.3462    7.7554   12.0063 C   0  0  0  0  0  0  0  0  0  0  0  0
   45.5788    6.4787   11.6419 C   0  0  0  0  0  0  0  0  0  0  0  0
   45.9063    5.4243   12.5918 N   0  0  0  0  0  0  0  0  0  0  0  0
   47.0555    5.3251   13.2689 C   0  0  0  0  0  0  0  0  0  0  0  0
   45.2635    4.2791   12.8863 C   0  0  0  0  0  0  0  0  0  0  0  0
   45.9877    3.5274   13.7421 N   0  0  0  0  0  0  0  0  0  0  0  0
   47.1165    4.1842   13.9807 N   0  0  0  0  0  0  0  0  0  0  0  0
   49.5449   13.8885   17.6021 F   0  0  0  0  0  0  0  0  0  0  0  0
   48.1205   12.2869   19.3373 F   0  0  0  0  0  0  0  0  0  0  0  0
   47.9836    8.8300   16.0688 F   0  0  0  0  0  0  0  0  0  0  0  0
   43.9211    3.8838   12.3524 C   0  0  0  0  0  0  0  0  0  0  0  0
   43.9371    3.9280   10.9719 F   0  0  0  0  0  0  0  0  0  0  0  0
   43.6049    2.6000   12.7572 F   0  0  0  0  0  0  0  0  0  0  0  0
   42.9604    4.7550   12.8279 F   0  0  0  0  0  0  0  0  0  0  0  0
   47.4881    9.9247   18.3882 H   0  0  0  0  0  0  0  0  0  0  0  0
   50.0517   12.8161   15.2740 H   0  0  0  0  0  0  0  0  0  0  0  0
   49.7865    9.3332   14.2401 H   0  0  0  0  0  0  0  0  0  0  0  0
   50.3144   10.9601   13.7473 H   0  0  0  0  0  0  0  0  0  0  0  0
   47.3886    9.9381   13.6381 H   0  0  0  0  0  0  0  0  0  0  0  0
   48.6696   12.4701   12.7682 H   0  0  0  0  0  0  0  0  0  0  0  0
   47.4268   12.2536   13.8935 H   0  0  0  0  0  0  0  0  0  0  0  0
   49.4691   10.3706   11.4015 H   0  0  0  0  0  0  0  0  0  0  0  0
   47.7419   10.0847   11.1126 H   0  0  0  0  0  0  0  0  0  0  0  0
   49.0588    5.8614   12.8422 H   0  0  0  0  0  0  0  0  0  0  0  0
   48.3167    6.7681   14.2155 H   0  0  0  0  0  0  0  0  0  0  0  0
   45.8836    8.2155   12.9063 H   0  0  0  0  0  0  0  0  0  0  0  0
   46.2427    8.4595   11.1551 H   0  0  0  0  0  0  0  0  0  0  0  0
   44.4875    6.6848   11.6585 H   0  0  0  0  0  0  0  0  0  0  0  0
   45.8677    6.1498   10.6208 H   0  0  0  0  0  0  0  0  0  0  0  0
  1  2  2  0
  2  3  1  0
  3  4  2  0
  4  5  1  0
  5  6  2  0
  1  6  1  0
  7  8  1  0
  8  9  1  0
  5  7  1  0
 10 11  1  0
 11 12  2  0
  8 10  1  0
 13 14  1  0
 11 13  1  0
 15 16  1  0
 16 17  1  0
 17 18  1  0
 14 18  1  0
 13 15  1  0
 19 20  2  0
 20 21  1  0
 17 19  1  0
 18 21  2  0
  1 22  1  0
  2 23  1  0
  4 24  1  0
 19 25  1  0
 25 26  1  0
 25 27  1  0
 25 28  1  0
  3 29  1  0
  6 30  1  0
  7 31  1  0
  7 32  1  0
  8 33  1  6
  9 34  1  0
  9 35  1  0
 10 36  1  0
 10 37  1  0
 14 38  1  0
 14 39  1  0
 15 40  1  0
 15 41  1  0
 16 42  1  0
 16 43  1  0
M  END
> <Uni-Dock RESULT> 
ENERGY=   -4.110  LOWER_BOUND=    5.881  UPPER_BOUND=    7.231
INTER + INTRA:          -4.110
INTER:                  -4.110
INTRA:                   0.000
UNBOUND:                 0.000

$$$$

     RDKit          3D

 43 45  0  0  0  0  0  0  0  0999 V2000
   44.5978    3.8314   12.5238 C   0  0  0  0  0  0  0  0  0  0  0  0
   43.8474    4.9741   12.2301 C   0  0  0  0  0  0  0  0  0  0  0  0
   44.3641    6.2410   12.5125 C   0  0  0  0  0  0  0  0  0  0  0  0
   45.6323    6.3708   13.0869 C   0  0  0  0  0  0  0  0  0  0  0  0
   46.3969    5.2256   13.3792 C   0  0  0  0  0  0  0  0  0  0  0  0
   45.8662    3.9552   13.0983 C   0  0  0  0  0  0  0  0  0  0  0  0
   47.7565    5.3531   14.0206 C   0  0  0  0  0  0  0  0  0  0  0  0
   47.6547    5.6273   15.5413 C   0  0  1  0  0  0  0  0  0  0  0  0
   47.0170    4.5093   16.2436 N   0  0  0  0  0  0  0  0  0  0  0  0
   49.0428    5.8765   16.1625 C   0  0  0  0  0  0  0  0  0  0  0  0
   49.6877    7.1353   15.6353 C   0  0  0  0  0  0  0  0  0  0  0  0
   50.7079    7.0230   14.9008 O   0  0  0  0  0  0  0  0  0  0  0  0
   49.1361    8.4455   15.8852 N   0  0  0  0  0  0  0  0  0  0  0  0
   49.1347    9.4094   14.7677 C   0  0  0  0  0  0  0  0  0  0  0  0
   48.3561    8.7200   17.1098 C   0  0  0  0  0  0  0  0  0  0  0  0
   48.6218   10.1392   17.6264 C   0  0  0  0  0  0  0  0  0  0  0  0
   48.5533   11.0826   16.5189 N   0  0  0  0  0  0  0  0  0  0  0  0
   48.8178   10.7925   15.2404 C   0  0  0  0  0  0  0  0  0  0  0  0
   48.3854   12.4180   16.5142 C   0  0  0  0  0  0  0  0  0  0  0  0
   48.5108   12.9140   15.2650 N   0  0  0  0  0  0  0  0  0  0  0  0
   48.7858   11.8917   14.4640 N   0  0  0  0  0  0  0  0  0  0  0  0
   44.0962    2.6014   12.2543 F   0  0  0  0  0  0  0  0  0  0  0  0
   42.6168    4.8551   11.6739 F   0  0  0  0  0  0  0  0  0  0  0  0
   46.1131    7.6105   13.3577 F   0  0  0  0  0  0  0  0  0  0  0  0
   48.0885   13.2525   17.7219 C   0  0  0  0  0  0  0  0  0  0  0  0
   49.0460   13.0263   18.6915 F   0  0  0  0  0  0  0  0  0  0  0  0
   48.0946   14.5945   17.3889 F   0  0  0  0  0  0  0  0  0  0  0  0
   46.8442   12.9180   18.2196 F   0  0  0  0  0  0  0  0  0  0  0  0
   43.7804    7.1245   12.2873 H   0  0  0  0  0  0  0  0  0  0  0  0
   46.4335    3.0614   13.3277 H   0  0  0  0  0  0  0  0  0  0  0  0
   48.3005    6.1835   13.5212 H   0  0  0  0  0  0  0  0  0  0  0  0
   48.3562    4.4336   13.8425 H   0  0  0  0  0  0  0  0  0  0  0  0
   47.0328    6.5346   15.7001 H   0  0  0  0  0  0  0  0  0  0  0  0
   47.4714    3.6108   15.9602 H   0  0  0  0  0  0  0  0  0  0  0  0
   46.0092    4.4591   15.9695 H   0  0  0  0  0  0  0  0  0  0  0  0
   49.7008    5.0054   15.9473 H   0  0  0  0  0  0  0  0  0  0  0  0
   48.9573    5.9296   17.2669 H   0  0  0  0  0  0  0  0  0  0  0  0
   50.1356    9.4364   14.2877 H   0  0  0  0  0  0  0  0  0  0  0  0
   48.3840    9.0976   14.0123 H   0  0  0  0  0  0  0  0  0  0  0  0
   47.2729    8.6095   16.8856 H   0  0  0  0  0  0  0  0  0  0  0  0
   48.6235    8.0147   17.9236 H   0  0  0  0  0  0  0  0  0  0  0  0
   47.8679   10.3994   18.3995 H   0  0  0  0  0  0  0  0  0  0  0  0
   49.6345   10.1860   18.0809 H   0  0  0  0  0  0  0  0  0  0  0  0
  1  2  2  0
  2  3  1  0
  3  4  2  0
  4  5  1  0
  5  6  2  0
  1  6  1  0
  7  8  1  0
  8  9  1  0
  5  7  1  0
 10 11  1  0
 11 12  2  0
  8 10  1  0
 13 14  1  0
 11 13  1  0
 15 16  1  0
 16 17  1  0
 17 18  1  0
 14 18  1  0
 13 15  1  0
 19 20  2  0
 20 21  1  0
 17 19  1  0
 18 21  2  0
  1 22  1  0
  2 23  1  0
  4 24  1  0
 19 25  1  0
 25 26  1  0
 25 27  1  0
 25 28  1  0
  3 29  1  0
  6 30  1  0
  7 31  1  0
  7 32  1  0
  8 33  1  6
  9 34  1  0
  9 35  1  0
 10 36  1  0
 10 37  1  0
 14 38  1  0
 14 39  1  0
 15 40  1  0
 15 41  1  0
 16 42  1  0
 16 43  1  0
M  END
> <Uni-Dock RESULT> 
ENERGY=   -4.050  LOWER_BOUND=    5.392  UPPER_BOUND=    9.256
INTER + INTRA:          -4.050
INTER:                  -4.050
INTRA:                   0.000
UNBOUND:                 0.000

$$$$

     RDKit          3D

 43 45  0  0  0  0  0  0  0  0999 V2000
   44.7267    4.8831   10.7327 C   0  0  0  0  0  0  0  0  0  0  0  0
   44.8239    3.6578   11.3991 C   0  0  0  0  0  0  0  0  0  0  0  0
   45.4454    3.5894   12.6485 C   0  0  0  0  0  0  0  0  0  0  0  0
   45.9694    4.7444   13.2371 C   0  0  0  0  0  0  0  0  0  0  0  0
   45.8693    5.9830   12.5757 C   0  0  0  0  0  0  0  0  0  0  0  0
   45.2490    6.0410   11.3162 C   0  0  0  0  0  0  0  0  0  0  0  0
   46.4521    7.2313   13.1908 C   0  0  0  0  0  0  0  0  0  0  0  0
   47.9885    7.3015   13.0102 C   0  0  1  0  0  0  0  0  0  0  0  0
   48.3561    7.3803   11.5930 N   0  0  0  0  0  0  0  0  0  0  0  0
   48.5868    8.5160   13.7463 C   0  0  0  0  0  0  0  0  0  0  0  0
   48.4277    8.4125   15.2438 C   0  0  0  0  0  0  0  0  0  0  0  0
   47.6439    9.2168   15.8196 O   0  0  0  0  0  0  0  0  0  0  0  0
   49.0834    7.3861   16.0184 N   0  0  0  0  0  0  0  0  0  0  0  0
   48.3054    6.7419   17.0943 C   0  0  0  0  0  0  0  0  0  0  0  0
   50.3709    6.8093   15.5789 C   0  0  0  0  0  0  0  0  0  0  0  0
   51.2732    6.4966   16.7788 C   0  0  0  0  0  0  0  0  0  0  0  0
   50.5019    5.8050   17.8025 N   0  0  0  0  0  0  0  0  0  0  0  0
   49.1837    5.9290   17.9912 C   0  0  0  0  0  0  0  0  0  0  0  0
   50.9036    5.0547   18.8452 C   0  0  0  0  0  0  0  0  0  0  0  0
   49.8544    4.7079   19.6206 N   0  0  0  0  0  0  0  0  0  0  0  0
   48.7727    5.2603   19.0849 N   0  0  0  0  0  0  0  0  0  0  0  0
   44.1278    4.9505    9.5186 F   0  0  0  0  0  0  0  0  0  0  0  0
   44.3186    2.5341   10.8336 F   0  0  0  0  0  0  0  0  0  0  0  0
   46.5734    4.6547   14.4488 F   0  0  0  0  0  0  0  0  0  0  0  0
   52.3182    4.6435   19.1156 C   0  0  0  0  0  0  0  0  0  0  0  0
   53.1282    5.7616   19.1598 F   0  0  0  0  0  0  0  0  0  0  0  0
   52.4004    3.9811   20.3265 F   0  0  0  0  0  0  0  0  0  0  0  0
   52.7540    3.8012   18.1114 F   0  0  0  0  0  0  0  0  0  0  0  0
   45.5226    2.6392   13.1616 H   0  0  0  0  0  0  0  0  0  0  0  0
   45.1735    6.9823   10.7855 H   0  0  0  0  0  0  0  0  0  0  0  0
   46.1967    7.2383   14.2723 H   0  0  0  0  0  0  0  0  0  0  0  0
   45.9789    8.1366   12.7511 H   0  0  0  0  0  0  0  0  0  0  0  0
   48.4407    6.3787   13.4335 H   0  0  0  0  0  0  0  0  0  0  0  0
   47.7959    8.1297   11.1255 H   0  0  0  0  0  0  0  0  0  0  0  0
   48.1292    6.4725   11.1264 H   0  0  0  0  0  0  0  0  0  0  0  0
   48.0898    9.4434   13.3844 H   0  0  0  0  0  0  0  0  0  0  0  0
   49.6597    8.6228   13.4867 H   0  0  0  0  0  0  0  0  0  0  0  0
   47.8067    7.5139   17.7173 H   0  0  0  0  0  0  0  0  0  0  0  0
   47.5291    6.0870   16.6471 H   0  0  0  0  0  0  0  0  0  0  0  0
   50.1773    5.8721   15.0132 H   0  0  0  0  0  0  0  0  0  0  0  0
   50.9234    7.5124   14.9221 H   0  0  0  0  0  0  0  0  0  0  0  0
   52.1247    5.8650   16.4475 H   0  0  0  0  0  0  0  0  0  0  0  0
   51.6708    7.4438   17.2020 H   0  0  0  0  0  0  0  0  0  0  0  0
  1  2  2  0
  2  3  1  0
  3  4  2  0
  4  5  1  0
  5  6  2  0
  1  6  1  0
  7  8  1  0
  8  9  1  0
  5  7  1  0
 10 11  1  0
 11 12  2  0
  8 10  1  0
 13 14  1  0
 11 13  1  0
 15 16  1  0
 16 17  1  0
 17 18  1  0
 14 18  1  0
 13 15  1  0
 19 20  2  0
 20 21  1  0
 17 19  1  0
 18 21  2  0
  1 22  1  0
  2 23  1  0
  4 24  1  0
 19 25  1  0
 25 26  1  0
 25 27  1  0
 25 28  1  0
  3 29  1  0
  6 30  1  0
  7 31  1  0
  7 32  1  0
  8 33  1  6
  9 34  1  0
  9 35  1  0
 10 36  1  0
 10 37  1  0
 14 38  1  0
 14 39  1  0
 15 40  1  0
 15 41  1  0
 16 42  1  0
 16 43  1  0
M  END
> <Uni-Dock RESULT> 
ENERGY=   -3.954  LOWER_BOUND=    5.404  UPPER_BOUND=    8.003
INTER + INTRA:          -3.954
INTER:                  -3.954
INTRA:                   0.000
UNBOUND:                 0.000

$$$$
