
     RDKit          3D

 43 45  0  0  0  0  0  0  0  0999 V2000
   47.5679   12.5446   18.9500 C   0  0  0  0  0  0  0  0  0  0  0  0
   47.0687   12.0443   20.1563 C   0  0  0  0  0  0  0  0  0  0  0  0
   46.9249   10.6658   20.3346 C   0  0  0  0  0  0  0  0  0  0  0  0
   47.2766    9.7823   19.3088 C   0  0  0  0  0  0  0  0  0  0  0  0
   47.7731   10.2789   18.0879 C   0  0  0  0  0  0  0  0  0  0  0  0
   47.9213   11.6665   17.9210 C   0  0  0  0  0  0  0  0  0  0  0  0
   48.1837    9.3434   16.9773 C   0  0  0  0  0  0  0  0  0  0  0  0
   49.7151    9.1267   16.9446 C   0  0  1  0  0  0  0  0  0  0  0  0
   50.2037    8.4731   18.1642 N   0  0  0  0  0  0  0  0  0  0  0  0
   50.1591    8.3329   15.6990 C   0  0  0  0  0  0  0  0  0  0  0  0
   49.6355    6.9163   15.6864 C   0  0  0  0  0  0  0  0  0  0  0  0
   50.2845    6.0304   16.3067 O   0  0  0  0  0  0  0  0  0  0  0  0
   48.3970    6.5644   15.0357 N   0  0  0  0  0  0  0  0  0  0  0  0
   47.9396    7.3053   13.8451 C   0  0  0  0  0  0  0  0  0  0  0  0
   47.4946    5.5899   15.6781 C   0  0  0  0  0  0  0  0  0  0  0  0
   46.9750    4.5777   14.6504 C   0  0  0  0  0  0  0  0  0  0  0  0
   46.5332    5.2844   13.4529 N   0  0  0  0  0  0  0  0  0  0  0  0
   46.9803    6.4799   13.0466 C   0  0  0  0  0  0  0  0  0  0  0  0
   45.7361    4.8848   12.4444 C   0  0  0  0  0  0  0  0  0  0  0  0
   45.6769    5.8236   11.4760 N   0  0  0  0  0  0  0  0  0  0  0  0
   46.4601    6.8268   11.8542 N   0  0  0  0  0  0  0  0  0  0  0  0
   47.7126   13.8818   18.7768 F   0  0  0  0  0  0  0  0  0  0  0  0
   46.7262   12.8948   21.1554 F   0  0  0  0  0  0  0  0  0  0  0  0
   47.1351    8.4474   19.5092 F   0  0  0  0  0  0  0  0  0  0  0  0
   45.0010    3.5806   12.3943 C   0  0  0  0  0  0  0  0  0  0  0  0
   45.8922    2.5362   12.5559 F   0  0  0  0  0  0  0  0  0  0  0  0
   44.3600    3.4405   11.1768 F   0  0  0  0  0  0  0  0  0  0  0  0
   44.0600    3.5411   13.4060 F   0  0  0  0  0  0  0  0  0  0  0  0
   46.5421   10.2803   21.2710 H   0  0  0  0  0  0  0  0  0  0  0  0
   48.3122   12.0659   16.9930 H   0  0  0  0  0  0  0  0  0  0  0  0
   47.8563    9.7825   16.0100 H   0  0  0  0  0  0  0  0  0  0  0  0
   47.6579    8.3702   17.0778 H   0  0  0  0  0  0  0  0  0  0  0  0
   50.2009   10.1261   16.8681 H   0  0  0  0  0  0  0  0  0  0  0  0
   50.1503    9.1524   18.9574 H   0  0  0  0  0  0  0  0  0  0  0  0
   49.5854    7.6644   18.4050 H   0  0  0  0  0  0  0  0  0  0  0  0
   51.2704    8.2987   15.6779 H   0  0  0  0  0  0  0  0  0  0  0  0
   49.8525    8.8828   14.7861 H   0  0  0  0  0  0  0  0  0  0  0  0
   47.4410    8.2459   14.1570 H   0  0  0  0  0  0  0  0  0  0  0  0
   48.8055    7.5436   13.1913 H   0  0  0  0  0  0  0  0  0  0  0  0
   48.0025    5.0408   16.5000 H   0  0  0  0  0  0  0  0  0  0  0  0
   46.6336    6.1363   16.1206 H   0  0  0  0  0  0  0  0  0  0  0  0
   47.7907    3.8743   14.3777 H   0  0  0  0  0  0  0  0  0  0  0  0
   46.1329    4.0017   15.0896 H   0  0  0  0  0  0  0  0  0  0  0  0
  1  2  2  0
  2  3  1  0
  3  4  2  0
  4  5  1  0
  5  6  2  0
  1  6  1  0
  7  8  1  0
  8  9  1  0
  5  7  1  0
 10 11  1  0
 11 12  2  0
  8 10  1  0
 13 14  1  0
 11 13  1  0
 15 16  1  0
 16 17  1  0
 17 18  1  0
 14 18  1  0
 13 15  1  0
 19 20  2  0
 20 21  1  0
 17 19  1  0
 18 21  2  0
  1 22  1  0
  2 23  1  0
  4 24  1  0
 19 25  1  0
 25 26  1  0
 25 27  1  0
 25 28  1  0
  3 29  1  0
  6 30  1  0
  7 31  1  0
  7 32  1  0
  8 33  1  6
  9 34  1  0
  9 35  1  0
 10 36  1  0
 10 37  1  0
 14 38  1  0
 14 39  1  0
 15 40  1  0
 15 41  1  0
 16 42  1  0
 16 43  1  0
M  END
> <Uni-Dock RESULT> 
ENERGY=   -4.659  LOWER_BOUND=    0.000  UPPER_BOUND=    0.000
INTER + INTRA:          -4.659
INTER:                  -4.659
INTRA:                   0.000
UNBOUND:                 0.000

$$$$

     RDKit          3D

 43 45  0  0  0  0  0  0  0  0999 V2000
   44.3818    4.7166   10.4128 C   0  0  0  0  0  0  0  0  0  0  0  0
   44.0096    3.9111   11.4931 C   0  0  0  0  0  0  0  0  0  0  0  0
   44.6195    4.0866   12.7381 C   0  0  0  0  0  0  0  0  0  0  0  0
   45.6047    5.0650   12.9082 C   0  0  0  0  0  0  0  0  0  0  0  0
   45.9905    5.8753   11.8228 C   0  0  0  0  0  0  0  0  0  0  0  0
   45.3658    5.6963   10.5767 C   0  0  0  0  0  0  0  0  0  0  0  0
   47.0319    6.9546   11.9898 C   0  0  0  0  0  0  0  0  0  0  0  0
   46.3898    8.3510   12.1659 C   0  0  1  0  0  0  0  0  0  0  0  0
   45.5852    8.4354   13.3902 N   0  0  0  0  0  0  0  0  0  0  0  0
   47.4427    9.4777   12.1403 C   0  0  0  0  0  0  0  0  0  0  0  0
   48.3990    9.4161   13.3078 C   0  0  0  0  0  0  0  0  0  0  0  0
   48.0556    9.9559   14.3948 O   0  0  0  0  0  0  0  0  0  0  0  0
   49.6582    8.7167   13.2289 N   0  0  0  0  0  0  0  0  0  0  0  0
   50.3842    8.6233   11.9483 C   0  0  0  0  0  0  0  0  0  0  0  0
   50.1220    7.9303   14.3879 C   0  0  0  0  0  0  0  0  0  0  0  0
   51.6087    8.1915   14.6562 C   0  0  0  0  0  0  0  0  0  0  0  0
   52.3483    8.1237   13.4004 N   0  0  0  0  0  0  0  0  0  0  0  0
   51.8376    8.3565   12.1842 C   0  0  0  0  0  0  0  0  0  0  0  0
   53.6651    7.9702   13.1670 C   0  0  0  0  0  0  0  0  0  0  0  0
   53.9359    8.0730   11.8483 N   0  0  0  0  0  0  0  0  0  0  0  0
   52.7866    8.3169   11.2300 N   0  0  0  0  0  0  0  0  0  0  0  0
   43.7877    4.5509    9.2051 F   0  0  0  0  0  0  0  0  0  0  0  0
   43.0550    2.9610   11.3358 F   0  0  0  0  0  0  0  0  0  0  0  0
   46.1766    5.2213   14.1292 F   0  0  0  0  0  0  0  0  0  0  0  0
   54.7004    7.7110   14.2182 C   0  0  0  0  0  0  0  0  0  0  0  0
   54.6405    8.6973   15.1850 F   0  0  0  0  0  0  0  0  0  0  0  0
   55.9633    7.7101   13.6543 F   0  0  0  0  0  0  0  0  0  0  0  0
   54.4673    6.4806   14.8031 F   0  0  0  0  0  0  0  0  0  0  0  0
   44.3268    3.4646   13.5745 H   0  0  0  0  0  0  0  0  0  0  0  0
   45.6416    6.3179    9.7335 H   0  0  0  0  0  0  0  0  0  0  0  0
   47.6780    6.9613   11.0853 H   0  0  0  0  0  0  0  0  0  0  0  0
   47.6941    6.7226   12.8507 H   0  0  0  0  0  0  0  0  0  0  0  0
   45.7178    8.5312   11.2959 H   0  0  0  0  0  0  0  0  0  0  0  0
   44.7154    7.8688   13.2638 H   0  0  0  0  0  0  0  0  0  0  0  0
   46.1140    8.0193   14.1911 H   0  0  0  0  0  0  0  0  0  0  0  0
   46.9155   10.4564   12.1671 H   0  0  0  0  0  0  0  0  0  0  0  0
   47.9860    9.4492   11.1740 H   0  0  0  0  0  0  0  0  0  0  0  0
   49.9573    7.8044   11.3337 H   0  0  0  0  0  0  0  0  0  0  0  0
   50.3024    9.5833   11.3954 H   0  0  0  0  0  0  0  0  0  0  0  0
   49.5424    8.1712   15.3050 H   0  0  0  0  0  0  0  0  0  0  0  0
   49.9740    6.8502   14.1705 H   0  0  0  0  0  0  0  0  0  0  0  0
   51.7336    9.2033   15.0980 H   0  0  0  0  0  0  0  0  0  0  0  0
   51.9954    7.4347   15.3714 H   0  0  0  0  0  0  0  0  0  0  0  0
  1  2  2  0
  2  3  1  0
  3  4  2  0
  4  5  1  0
  5  6  2  0
  1  6  1  0
  7  8  1  0
  8  9  1  0
  5  7  1  0
 10 11  1  0
 11 12  2  0
  8 10  1  0
 13 14  1  0
 11 13  1  0
 15 16  1  0
 16 17  1  0
 17 18  1  0
 14 18  1  0
 13 15  1  0
 19 20  2  0
 20 21  1  0
 17 19  1  0
 18 21  2  0
  1 22  1  0
  2 23  1  0
  4 24  1  0
 19 25  1  0
 25 26  1  0
 25 27  1  0
 25 28  1  0
  3 29  1  0
  6 30  1  0
  7 31  1  0
  7 32  1  0
  8 33  1  6
  9 34  1  0
  9 35  1  0
 10 36  1  0
 10 37  1  0
 14 38  1  0
 14 39  1  0
 15 40  1  0
 15 41  1  0
 16 42  1  0
 16 43  1  0
M  END
> <Uni-Dock RESULT> 
ENERGY=   -4.278  LOWER_BOUND=    4.725  UPPER_BOUND=    8.617
INTER + INTRA:          -4.278
INTER:                  -4.278
INTRA:                   0.000
UNBOUND:                 0.000

$$$$

     RDKit          3D

 43 45  0  0  0  0  0  0  0  0999 V2000
   47.4576   10.6043   20.5559 C   0  0  0  0  0  0  0  0  0  0  0  0
   47.5393    9.4888   21.3947 C   0  0  0  0  0  0  0  0  0  0  0  0
   47.7181    8.2153   20.8478 C   0  0  0  0  0  0  0  0  0  0  0  0
   47.8135    8.0508   19.4620 C   0  0  0  0  0  0  0  0  0  0  0  0
   47.7246    9.1687   18.6100 C   0  0  0  0  0  0  0  0  0  0  0  0
   47.5524   10.4462   19.1699 C   0  0  0  0  0  0  0  0  0  0  0  0
   47.8513    9.0182   17.1138 C   0  0  0  0  0  0  0  0  0  0  0  0
   49.2732    9.3734   16.6186 C   0  0  1  0  0  0  0  0  0  0  0  0
   50.2873    8.4606   17.1588 N   0  0  0  0  0  0  0  0  0  0  0  0
   49.3552    9.4115   15.0789 C   0  0  0  0  0  0  0  0  0  0  0  0
   49.1235    8.0608   14.4437 C   0  0  0  0  0  0  0  0  0  0  0  0
   50.1021    7.2727   14.3342 O   0  0  0  0  0  0  0  0  0  0  0  0
   47.8151    7.6326   14.0128 N   0  0  0  0  0  0  0  0  0  0  0  0
   46.8249    8.6159   13.5349 C   0  0  0  0  0  0  0  0  0  0  0  0
   47.4036    6.2331   14.2339 C   0  0  0  0  0  0  0  0  0  0  0  0
   46.7269    5.6661   12.9804 C   0  0  0  0  0  0  0  0  0  0  0  0
   45.7544    6.6292   12.4753 N   0  0  0  0  0  0  0  0  0  0  0  0
   45.7996    7.9537   12.6692 C   0  0  0  0  0  0  0  0  0  0  0  0
   44.7237    6.4685   11.6244 C   0  0  0  0  0  0  0  0  0  0  0  0
   44.1439    7.6543   11.3405 N   0  0  0  0  0  0  0  0  0  0  0  0
   44.8211    8.5888   11.9969 N   0  0  0  0  0  0  0  0  0  0  0  0
   47.2889   11.8415   21.0850 F   0  0  0  0  0  0  0  0  0  0  0  0
   47.4482    9.6407   22.7391 F   0  0  0  0  0  0  0  0  0  0  0  0
   47.9949    6.8046   18.9557 F   0  0  0  0  0  0  0  0  0  0  0  0
   44.2655    5.1559   11.0667 C   0  0  0  0  0  0  0  0  0  0  0  0
   45.3223    4.5198   10.4426 F   0  0  0  0  0  0  0  0  0  0  0  0
   43.2535    5.3560   10.1454 F   0  0  0  0  0  0  0  0  0  0  0  0
   43.7909    4.3587   12.0913 F   0  0  0  0  0  0  0  0  0  0  0  0
   47.7853    7.3533   21.4994 H   0  0  0  0  0  0  0  0  0  0  0  0
   47.4933   11.3189   18.5308 H   0  0  0  0  0  0  0  0  0  0  0  0
   47.1159    9.6967   16.6297 H   0  0  0  0  0  0  0  0  0  0  0  0
   47.5814    7.9860   16.8052 H   0  0  0  0  0  0  0  0  0  0  0  0
   49.5109   10.4034   16.9699 H   0  0  0  0  0  0  0  0  0  0  0  0
   50.4134    8.6590   18.1778 H   0  0  0  0  0  0  0  0  0  0  0  0
   49.9561    7.4722   17.0730 H   0  0  0  0  0  0  0  0  0  0  0  0
   50.3662    9.7704   14.7864 H   0  0  0  0  0  0  0  0  0  0  0  0
   48.6393   10.1653   14.6927 H   0  0  0  0  0  0  0  0  0  0  0  0
   46.3202    9.0914   14.4008 H   0  0  0  0  0  0  0  0  0  0  0  0
   47.3290    9.3958   12.9253 H   0  0  0  0  0  0  0  0  0  0  0  0
   48.2690    5.5885   14.4994 H   0  0  0  0  0  0  0  0  0  0  0  0
   46.6867    6.2003   15.0828 H   0  0  0  0  0  0  0  0  0  0  0  0
   47.4933    5.4784   12.1981 H   0  0  0  0  0  0  0  0  0  0  0  0
   46.2244    4.7077   13.2312 H   0  0  0  0  0  0  0  0  0  0  0  0
  1  2  2  0
  2  3  1  0
  3  4  2  0
  4  5  1  0
  5  6  2  0
  1  6  1  0
  7  8  1  0
  8  9  1  0
  5  7  1  0
 10 11  1  0
 11 12  2  0
  8 10  1  0
 13 14  1  0
 11 13  1  0
 15 16  1  0
 16 17  1  0
 17 18  1  0
 14 18  1  0
 13 15  1  0
 19 20  2  0
 20 21  1  0
 17 19  1  0
 18 21  2  0
  1 22  1  0
  2 23  1  0
  4 24  1  0
 19 25  1  0
 25 26  1  0
 25 27  1  0
 25 28  1  0
  3 29  1  0
  6 30  1  0
  7 31  1  0
  7 32  1  0
  8 33  1  6
  9 34  1  0
  9 35  1  0
 10 36  1  0
 10 37  1  0
 14 38  1  0
 14 39  1  0
 15 40  1  0
 15 41  1  0
 16 42  1  0
 16 43  1  0
M  END
> <Uni-Dock RESULT> 
ENERGY=   -4.251  LOWER_BOUND=    1.741  UPPER_BOUND=    2.120
INTER + INTRA:          -4.251
INTER:                  -4.251
INTRA:                   0.000
UNBOUND:                 0.000

$$$$

     RDKit          3D

 43 45  0  0  0  0  0  0  0  0999 V2000
   47.8242   11.8785   19.1717 C   0  0  0  0  0  0  0  0  0  0  0  0
   48.0566   11.0535   20.2762 C   0  0  0  0  0  0  0  0  0  0  0  0
   48.2442    9.6806   20.0953 C   0  0  0  0  0  0  0  0  0  0  0  0
   48.1979    9.1263   18.8118 C   0  0  0  0  0  0  0  0  0  0  0  0
   47.9567    9.9497   17.6950 C   0  0  0  0  0  0  0  0  0  0  0  0
   47.7769   11.3304   17.8863 C   0  0  0  0  0  0  0  0  0  0  0  0
   47.9288    9.3778   16.2987 C   0  0  0  0  0  0  0  0  0  0  0  0
   49.2673    9.6054   15.5573 C   0  0  1  0  0  0  0  0  0  0  0  0
   50.3820    8.9082   16.2091 N   0  0  0  0  0  0  0  0  0  0  0  0
   49.1801    9.2005   14.0716 C   0  0  0  0  0  0  0  0  0  0  0  0
   48.9548    7.7196   13.8775 C   0  0  0  0  0  0  0  0  0  0  0  0
   49.9572    6.9541   13.8799 O   0  0  0  0  0  0  0  0  0  0  0  0
   47.6326    7.1581   13.7448 N   0  0  0  0  0  0  0  0  0  0  0  0
   46.5446    7.9412   13.1295 C   0  0  0  0  0  0  0  0  0  0  0  0
   47.3241    5.8730   14.4007 C   0  0  0  0  0  0  0  0  0  0  0  0
   46.5476    4.9552   13.4493 C   0  0  0  0  0  0  0  0  0  0  0  0
   45.4752    5.7115   12.8118 N   0  0  0  0  0  0  0  0  0  0  0  0
   45.4691    7.0365   12.6155 C   0  0  0  0  0  0  0  0  0  0  0  0
   44.3688    5.2911   12.1704 C   0  0  0  0  0  0  0  0  0  0  0  0
   43.6982    6.3326   11.6334 N   0  0  0  0  0  0  0  0  0  0  0  0
   44.3906    7.4306   11.9125 N   0  0  0  0  0  0  0  0  0  0  0  0
   47.6467   13.2118   19.3448 F   0  0  0  0  0  0  0  0  0  0  0  0
   48.1034   11.5839   21.5233 F   0  0  0  0  0  0  0  0  0  0  0  0
   48.3909    7.7913   18.6614 F   0  0  0  0  0  0  0  0  0  0  0  0
   43.9250    3.8643   12.0663 C   0  0  0  0  0  0  0  0  0  0  0  0
   44.9411    3.0979   11.5266 F   0  0  0  0  0  0  0  0  0  0  0  0
   42.8099    3.7694   11.2536 F   0  0  0  0  0  0  0  0  0  0  0  0
   43.6080    3.3857   13.3237 F   0  0  0  0  0  0  0  0  0  0  0  0
   48.4283    9.0441   20.9515 H   0  0  0  0  0  0  0  0  0  0  0  0
   47.6017   11.9808   17.0380 H   0  0  0  0  0  0  0  0  0  0  0  0
   47.1095    9.8727   15.7335 H   0  0  0  0  0  0  0  0  0  0  0  0
   47.6835    8.2950   16.3297 H   0  0  0  0  0  0  0  0  0  0  0  0
   49.4853   10.6976   15.5714 H   0  0  0  0  0  0  0  0  0  0  0  0
   50.6066    9.3940   17.1075 H   0  0  0  0  0  0  0  0  0  0  0  0
   50.0976    7.9300   16.4469 H   0  0  0  0  0  0  0  0  0  0  0  0
   50.1324    9.4813   13.5710 H   0  0  0  0  0  0  0  0  0  0  0  0
   48.3867    9.7960   13.5759 H   0  0  0  0  0  0  0  0  0  0  0  0
   46.1114    8.6350   13.8789 H   0  0  0  0  0  0  0  0  0  0  0  0
   46.9366    8.5231   12.2683 H   0  0  0  0  0  0  0  0  0  0  0  0
   48.2469    5.3504   14.7328 H   0  0  0  0  0  0  0  0  0  0  0  0
   46.7062    6.0708   15.3033 H   0  0  0  0  0  0  0  0  0  0  0  0
   47.2339    4.5665   12.6666 H   0  0  0  0  0  0  0  0  0  0  0  0
   46.1281    4.0991   14.0194 H   0  0  0  0  0  0  0  0  0  0  0  0
  1  2  2  0
  2  3  1  0
  3  4  2  0
  4  5  1  0
  5  6  2  0
  1  6  1  0
  7  8  1  0
  8  9  1  0
  5  7  1  0
 10 11  1  0
 11 12  2  0
  8 10  1  0
 13 14  1  0
 11 13  1  0
 15 16  1  0
 16 17  1  0
 17 18  1  0
 14 18  1  0
 13 15  1  0
 19 20  2  0
 20 21  1  0
 17 19  1  0
 18 21  2  0
  1 22  1  0
  2 23  1  0
  4 24  1  0
 19 25  1  0
 25 26  1  0
 25 27  1  0
 25 28  1  0
  3 29  1  0
  6 30  1  0
  7 31  1  0
  7 32  1  0
  8 33  1  6
  9 34  1  0
  9 35  1  0
 10 36  1  0
 10 37  1  0
 14 38  1  0
 14 39  1  0
 15 40  1  0
 15 41  1  0
 16 42  1  0
 16 43  1  0
M  END
> <Uni-Dock RESULT> 
ENERGY=   -4.214  LOWER_BOUND=    1.468  UPPER_BOUND=    1.556
INTER + INTRA:          -4.214
INTER:                  -4.214
INTRA:                   0.000
UNBOUND:                 0.000

$$$$

     RDKit          3D

 43 45  0  0  0  0  0  0  0  0999 V2000
   46.6262   13.1322   10.5338 C   0  0  0  0  0  0  0  0  0  0  0  0
   46.7268   14.1162   11.5218 C   0  0  0  0  0  0  0  0  0  0  0  0
   47.3199   13.8142   12.7506 C   0  0  0  0  0  0  0  0  0  0  0  0
   47.8121   12.5285   12.9981 C   0  0  0  0  0  0  0  0  0  0  0  0
   47.7077   11.5297   12.0106 C   0  0  0  0  0  0  0  0  0  0  0  0
   47.1165   11.8453   10.7753 C   0  0  0  0  0  0  0  0  0  0  0  0
   48.2555   10.1434   12.2458 C   0  0  0  0  0  0  0  0  0  0  0  0
   49.6432    9.9544   11.5887 C   0  0  1  0  0  0  0  0  0  0  0  0
   50.6535   10.8440   12.1729 N   0  0  0  0  0  0  0  0  0  0  0  0
   50.1190    8.4889   11.6566 C   0  0  0  0  0  0  0  0  0  0  0  0
   50.3670    8.0155   13.0693 C   0  0  0  0  0  0  0  0  0  0  0  0
   51.4884    8.2546   13.5948 O   0  0  0  0  0  0  0  0  0  0  0  0
   49.3468    7.3518   13.8437 N   0  0  0  0  0  0  0  0  0  0  0  0
   48.3269    6.5178   13.1806 C   0  0  0  0  0  0  0  0  0  0  0  0
   49.2103    7.6655   15.2789 C   0  0  0  0  0  0  0  0  0  0  0  0
   49.0314    6.3811   16.0966 C   0  0  0  0  0  0  0  0  0  0  0  0
   48.0397    5.5280   15.4507 N   0  0  0  0  0  0  0  0  0  0  0  0
   47.7391    5.5366   14.1454 C   0  0  0  0  0  0  0  0  0  0  0  0
   47.3324    4.4885   15.9318 C   0  0  0  0  0  0  0  0  0  0  0  0
   46.6019    3.9095   14.9551 N   0  0  0  0  0  0  0  0  0  0  0  0
   46.8582    4.5681   13.8311 N   0  0  0  0  0  0  0  0  0  0  0  0
   46.0553   13.4248    9.3390 F   0  0  0  0  0  0  0  0  0  0  0  0
   46.2523   15.3649   11.2887 F   0  0  0  0  0  0  0  0  0  0  0  0
   48.3909   12.2621   14.1965 F   0  0  0  0  0  0  0  0  0  0  0  0
   47.3388    4.0305   17.3579 C   0  0  0  0  0  0  0  0  0  0  0  0
   48.6363    3.7719   17.7590 F   0  0  0  0  0  0  0  0  0  0  0  0
   46.5883    2.8765   17.4920 F   0  0  0  0  0  0  0  0  0  0  0  0
   46.7979    5.0157   18.1624 F   0  0  0  0  0  0  0  0  0  0  0  0
   47.4006   14.5788   13.5127 H   0  0  0  0  0  0  0  0  0  0  0  0
   47.0378   11.0931    9.9998 H   0  0  0  0  0  0  0  0  0  0  0  0
   47.5436    9.4072   11.8136 H   0  0  0  0  0  0  0  0  0  0  0  0
   48.3111    9.9295   13.3342 H   0  0  0  0  0  0  0  0  0  0  0  0
   49.5466   10.2020   10.5070 H   0  0  0  0  0  0  0  0  0  0  0  0
   50.4588   11.8249   11.8672 H   0  0  0  0  0  0  0  0  0  0  0  0
   50.5831   10.8234   13.2163 H   0  0  0  0  0  0  0  0  0  0  0  0
   51.0665    8.3967   11.0819 H   0  0  0  0  0  0  0  0  0  0  0  0
   49.3830    7.8407   11.1390 H   0  0  0  0  0  0  0  0  0  0  0  0
   47.5193    7.1625   12.7772 H   0  0  0  0  0  0  0  0  0  0  0  0
   48.7896    5.9407   12.3517 H   0  0  0  0  0  0  0  0  0  0  0  0
   50.0947    8.2177   15.6637 H   0  0  0  0  0  0  0  0  0  0  0  0
   48.3200    8.3159   15.4204 H   0  0  0  0  0  0  0  0  0  0  0  0
   49.9992    5.8378   16.1502 H   0  0  0  0  0  0  0  0  0  0  0  0
   48.7045    6.6390   17.1264 H   0  0  0  0  0  0  0  0  0  0  0  0
  1  2  2  0
  2  3  1  0
  3  4  2  0
  4  5  1  0
  5  6  2  0
  1  6  1  0
  7  8  1  0
  8  9  1  0
  5  7  1  0
 10 11  1  0
 11 12  2  0
  8 10  1  0
 13 14  1  0
 11 13  1  0
 15 16  1  0
 16 17  1  0
 17 18  1  0
 14 18  1  0
 13 15  1  0
 19 20  2  0
 20 21  1  0
 17 19  1  0
 18 21  2  0
  1 22  1  0
  2 23  1  0
  4 24  1  0
 19 25  1  0
 25 26  1  0
 25 27  1  0
 25 28  1  0
  3 29  1  0
  6 30  1  0
  7 31  1  0
  7 32  1  0
  8 33  1  6
  9 34  1  0
  9 35  1  0
 10 36  1  0
 10 37  1  0
 14 38  1  0
 14 39  1  0
 15 40  1  0
 15 41  1  0
 16 42  1  0
 16 43  1  0
M  END
> <Uni-Dock RESULT> 
ENERGY=   -4.183  LOWER_BOUND=    4.449  UPPER_BOUND=    5.807
INTER + INTRA:          -4.183
INTER:                  -4.183
INTRA:                   0.000
UNBOUND:                 0.000

$$$$

     RDKit          3D

 43 45  0  0  0  0  0  0  0  0999 V2000
   47.5139    3.7015   17.6221 C   0  0  0  0  0  0  0  0  0  0  0  0
   48.8070    3.2662   17.3176 C   0  0  0  0  0  0  0  0  0  0  0  0
   49.9022    4.0945   17.5772 C   0  0  0  0  0  0  0  0  0  0  0  0
   49.7100    5.3608   18.1394 C   0  0  0  0  0  0  0  0  0  0  0  0
   48.4098    5.8096   18.4420 C   0  0  0  0  0  0  0  0  0  0  0  0
   47.3154    4.9663   18.1843 C   0  0  0  0  0  0  0  0  0  0  0  0
   48.1808    7.1611   19.0732 C   0  0  0  0  0  0  0  0  0  0  0  0
   47.9666    7.0530   20.6015 C   0  0  1  0  0  0  0  0  0  0  0  0
   49.1548    6.5325   21.2875 N   0  0  0  0  0  0  0  0  0  0  0  0
   47.5395    8.3994   21.2209 C   0  0  0  0  0  0  0  0  0  0  0  0
   48.6114    9.4589   21.1224 C   0  0  0  0  0  0  0  0  0  0  0  0
   49.5040    9.4949   22.0129 O   0  0  0  0  0  0  0  0  0  0  0  0
   48.6711   10.3863   20.0191 N   0  0  0  0  0  0  0  0  0  0  0  0
   47.4368   10.8216   19.3390 C   0  0  0  0  0  0  0  0  0  0  0  0
   49.9830   10.7475   19.4488 C   0  0  0  0  0  0  0  0  0  0  0  0
   50.0700   12.2599   19.2127 C   0  0  0  0  0  0  0  0  0  0  0  0
   48.8507   12.7203   18.5570 N   0  0  0  0  0  0  0  0  0  0  0  0
   47.6540   12.1237   18.6342 C   0  0  0  0  0  0  0  0  0  0  0  0
   48.5955   13.8561   17.8810 C   0  0  0  0  0  0  0  0  0  0  0  0
   47.2933   13.9265   17.5316 N   0  0  0  0  0  0  0  0  0  0  0  0
   46.7006   12.8373   18.0061 N   0  0  0  0  0  0  0  0  0  0  0  0
   46.4502    2.8973   17.3753 F   0  0  0  0  0  0  0  0  0  0  0  0
   49.0010    2.0396   16.7729 F   0  0  0  0  0  0  0  0  0  0  0  0
   50.7904    6.1434   18.3894 F   0  0  0  0  0  0  0  0  0  0  0  0
   49.6115   14.9048   17.5469 C   0  0  0  0  0  0  0  0  0  0  0  0
   50.2382   15.3322   18.7027 F   0  0  0  0  0  0  0  0  0  0  0  0
   48.9990   15.9869   16.9410 F   0  0  0  0  0  0  0  0  0  0  0  0
   50.5528   14.3780   16.6827 F   0  0  0  0  0  0  0  0  0  0  0  0
   50.9031    3.7537   17.3445 H   0  0  0  0  0  0  0  0  0  0  0  0
   46.3092    5.2900   18.4210 H   0  0  0  0  0  0  0  0  0  0  0  0
   47.2791    7.6164   18.6094 H   0  0  0  0  0  0  0  0  0  0  0  0
   49.0302    7.8408   18.8493 H   0  0  0  0  0  0  0  0  0  0  0  0
   47.1249    6.3456   20.7802 H   0  0  0  0  0  0  0  0  0  0  0  0
   49.2576    5.5163   21.0634 H   0  0  0  0  0  0  0  0  0  0  0  0
   50.0104    7.0178   20.9317 H   0  0  0  0  0  0  0  0  0  0  0  0
   47.3020    8.2362   22.2949 H   0  0  0  0  0  0  0  0  0  0  0  0
   46.5957    8.7374   20.7468 H   0  0  0  0  0  0  0  0  0  0  0  0
   47.1242   10.0543   18.6013 H   0  0  0  0  0  0  0  0  0  0  0  0
   46.6264   10.9718   20.0838 H   0  0  0  0  0  0  0  0  0  0  0  0
   50.8181   10.4376   20.1133 H   0  0  0  0  0  0  0  0  0  0  0  0
   50.1102   10.2183   18.4795 H   0  0  0  0  0  0  0  0  0  0  0  0
   50.1781   12.7817   20.1877 H   0  0  0  0  0  0  0  0  0  0  0  0
   50.9553   12.4867   18.5814 H   0  0  0  0  0  0  0  0  0  0  0  0
  1  2  2  0
  2  3  1  0
  3  4  2  0
  4  5  1  0
  5  6  2  0
  1  6  1  0
  7  8  1  0
  8  9  1  0
  5  7  1  0
 10 11  1  0
 11 12  2  0
  8 10  1  0
 13 14  1  0
 11 13  1  0
 15 16  1  0
 16 17  1  0
 17 18  1  0
 14 18  1  0
 13 15  1  0
 19 20  2  0
 20 21  1  0
 17 19  1  0
 18 21  2  0
  1 22  1  0
  2 23  1  0
  4 24  1  0
 19 25  1  0
 25 26  1  0
 25 27  1  0
 25 28  1  0
  3 29  1  0
  6 30  1  0
  7 31  1  0
  7 32  1  0
  8 33  1  6
  9 34  1  0
  9 35  1  0
 10 36  1  0
 10 37  1  0
 14 38  1  0
 14 39  1  0
 15 40  1  0
 15 41  1  0
 16 42  1  0
 16 43  1  0
M  END
> <Uni-Dock RESULT> 
ENERGY=   -4.056  LOWER_BOUND=    4.835  UPPER_BOUND=    8.896
INTER + INTRA:          -4.056
INTER:                  -4.056
INTRA:                   0.000
UNBOUND:                 0.000

$$$$

     RDKit          3D

 43 45  0  0  0  0  0  0  0  0999 V2000
   53.3468    3.2066   18.4981 C   0  0  0  0  0  0  0  0  0  0  0  0
   53.9578    3.1721   19.7551 C   0  0  0  0  0  0  0  0  0  0  0  0
   53.3872    3.8619   20.8282 C   0  0  0  0  0  0  0  0  0  0  0  0
   52.2065    4.5903   20.6495 C   0  0  0  0  0  0  0  0  0  0  0  0
   51.5891    4.6361   19.3845 C   0  0  0  0  0  0  0  0  0  0  0  0
   52.1664    3.9329   18.3133 C   0  0  0  0  0  0  0  0  0  0  0  0
   50.3008    5.3936   19.1748 C   0  0  0  0  0  0  0  0  0  0  0  0
   49.0719    4.4541   19.1930 C   0  0  1  0  0  0  0  0  0  0  0  0
   48.8977    3.8024   20.4962 N   0  0  0  0  0  0  0  0  0  0  0  0
   47.7781    5.1885   18.7862 C   0  0  0  0  0  0  0  0  0  0  0  0
   47.3756    6.2607   19.7709 C   0  0  0  0  0  0  0  0  0  0  0  0
   46.6984    5.9252   20.7808 O   0  0  0  0  0  0  0  0  0  0  0  0
   47.7869    7.6347   19.6162 N   0  0  0  0  0  0  0  0  0  0  0  0
   47.9989    8.2064   18.2731 C   0  0  0  0  0  0  0  0  0  0  0  0
   48.1821    8.4093   20.8081 C   0  0  0  0  0  0  0  0  0  0  0  0
   47.5543    9.8077   20.7745 C   0  0  0  0  0  0  0  0  0  0  0  0
   47.7336   10.3891   19.4484 N   0  0  0  0  0  0  0  0  0  0  0  0
   47.8878    9.6982   18.3113 C   0  0  0  0  0  0  0  0  0  0  0  0
   47.6468   11.6667   19.0335 C   0  0  0  0  0  0  0  0  0  0  0  0
   47.7785   11.7478   17.6923 N   0  0  0  0  0  0  0  0  0  0  0  0
   47.9293   10.5095   17.2377 N   0  0  0  0  0  0  0  0  0  0  0  0
   53.8965    2.5340   17.4567 F   0  0  0  0  0  0  0  0  0  0  0  0
   55.1022    2.4677   19.9359 F   0  0  0  0  0  0  0  0  0  0  0  0
   51.6677    5.2454   21.7091 F   0  0  0  0  0  0  0  0  0  0  0  0
   47.4406   12.8496   19.9291 C   0  0  0  0  0  0  0  0  0  0  0  0
   46.3036   12.6636   20.6932 F   0  0  0  0  0  0  0  0  0  0  0  0
   47.2923   13.9993   19.1747 F   0  0  0  0  0  0  0  0  0  0  0  0
   48.5341   12.9952   20.7619 F   0  0  0  0  0  0  0  0  0  0  0  0
   53.8596    3.8304   21.8018 H   0  0  0  0  0  0  0  0  0  0  0  0
   51.6995    3.9473   17.3360 H   0  0  0  0  0  0  0  0  0  0  0  0
   50.3528    5.9079   18.1908 H   0  0  0  0  0  0  0  0  0  0  0  0
   50.1909    6.1885   19.9426 H   0  0  0  0  0  0  0  0  0  0  0  0
   49.2353    3.6615   18.4277 H   0  0  0  0  0  0  0  0  0  0  0  0
   49.6521    3.0893   20.6220 H   0  0  0  0  0  0  0  0  0  0  0  0
   49.0047    4.5070   21.2619 H   0  0  0  0  0  0  0  0  0  0  0  0
   46.9545    4.4446   18.7181 H   0  0  0  0  0  0  0  0  0  0  0  0
   47.8992    5.6053   17.7657 H   0  0  0  0  0  0  0  0  0  0  0  0
   49.0046    7.9241   17.8996 H   0  0  0  0  0  0  0  0  0  0  0  0
   47.2236    7.8278   17.5734 H   0  0  0  0  0  0  0  0  0  0  0  0
   47.8776    7.8999   21.7476 H   0  0  0  0  0  0  0  0  0  0  0  0
   49.2894    8.5060   20.8216 H   0  0  0  0  0  0  0  0  0  0  0  0
   46.4679    9.7318   20.9947 H   0  0  0  0  0  0  0  0  0  0  0  0
   48.0350   10.4489   21.5436 H   0  0  0  0  0  0  0  0  0  0  0  0
  1  2  2  0
  2  3  1  0
  3  4  2  0
  4  5  1  0
  5  6  2  0
  1  6  1  0
  7  8  1  0
  8  9  1  0
  5  7  1  0
 10 11  1  0
 11 12  2  0
  8 10  1  0
 13 14  1  0
 11 13  1  0
 15 16  1  0
 16 17  1  0
 17 18  1  0
 14 18  1  0
 13 15  1  0
 19 20  2  0
 20 21  1  0
 17 19  1  0
 18 21  2  0
  1 22  1  0
  2 23  1  0
  4 24  1  0
 19 25  1  0
 25 26  1  0
 25 27  1  0
 25 28  1  0
  3 29  1  0
  6 30  1  0
  7 31  1  0
  7 32  1  0
  8 33  1  6
  9 34  1  0
  9 35  1  0
 10 36  1  0
 10 37  1  0
 14 38  1  0
 14 39  1  0
 15 40  1  0
 15 41  1  0
 16 42  1  0
 16 43  1  0
M  END
> <Uni-Dock RESULT> 
ENERGY=   -4.009  LOWER_BOUND=    5.265  UPPER_BOUND=    8.838
INTER + INTRA:          -4.009
INTER:                  -4.009
INTRA:                   0.000
UNBOUND:                 0.000

$$$$

     RDKit          3D

 43 45  0  0  0  0  0  0  0  0999 V2000
   47.6096    3.6206   17.6538 C   0  0  0  0  0  0  0  0  0  0  0  0
   48.9189    3.2743   17.3072 C   0  0  0  0  0  0  0  0  0  0  0  0
   49.9957    3.9730   17.8595 C   0  0  0  0  0  0  0  0  0  0  0  0
   49.7691    5.0212   18.7576 C   0  0  0  0  0  0  0  0  0  0  0  0
   48.4528    5.3810   19.1060 C   0  0  0  0  0  0  0  0  0  0  0  0
   47.3767    4.6673   18.5511 C   0  0  0  0  0  0  0  0  0  0  0  0
   48.1853    6.4908   20.0929 C   0  0  0  0  0  0  0  0  0  0  0  0
   47.8835    5.9419   21.5074 C   0  0  1  0  0  0  0  0  0  0  0  0
   49.0311    5.2249   22.0751 N   0  0  0  0  0  0  0  0  0  0  0  0
   47.4189    7.0534   22.4706 C   0  0  0  0  0  0  0  0  0  0  0  0
   48.4928    8.0786   22.7479 C   0  0  0  0  0  0  0  0  0  0  0  0
   49.3325    7.8380   23.6578 O   0  0  0  0  0  0  0  0  0  0  0  0
   48.6143    9.2882   21.9712 N   0  0  0  0  0  0  0  0  0  0  0  0
   47.4204    9.9227   21.3816 C   0  0  0  0  0  0  0  0  0  0  0  0
   49.9562    9.7810   21.6063 C   0  0  0  0  0  0  0  0  0  0  0  0
   50.0539   11.2944   21.8306 C   0  0  0  0  0  0  0  0  0  0  0  0
   48.8736   11.9456   21.2725 N   0  0  0  0  0  0  0  0  0  0  0  0
   47.6755   11.3709   21.1041 C   0  0  0  0  0  0  0  0  0  0  0  0
   48.6557   13.2336   20.9473 C   0  0  0  0  0  0  0  0  0  0  0  0
   47.3756   13.4234   20.5622 N   0  0  0  0  0  0  0  0  0  0  0  0
   46.7586   12.2519   20.6616 N   0  0  0  0  0  0  0  0  0  0  0  0
   46.5634    2.9405   17.1226 F   0  0  0  0  0  0  0  0  0  0  0  0
   49.1462    2.2589   16.4376 F   0  0  0  0  0  0  0  0  0  0  0  0
   50.8318    5.6794   19.2864 F   0  0  0  0  0  0  0  0  0  0  0  0
   49.6873   14.3187   20.9935 C   0  0  0  0  0  0  0  0  0  0  0  0
   50.2455   14.3781   22.2568 F   0  0  0  0  0  0  0  0  0  0  0  0
   49.1088   15.5401   20.6995 F   0  0  0  0  0  0  0  0  0  0  0  0
   50.6779   14.0546   20.0664 F   0  0  0  0  0  0  0  0  0  0  0  0
   51.0090    3.7004   17.5929 H   0  0  0  0  0  0  0  0  0  0  0  0
   46.3578    4.9225   18.8162 H   0  0  0  0  0  0  0  0  0  0  0  0
   47.3110    7.0759   19.7340 H   0  0  0  0  0  0  0  0  0  0  0  0
   49.0449    7.1934   20.1264 H   0  0  0  0  0  0  0  0  0  0  0  0
   47.0342    5.2261   21.4231 H   0  0  0  0  0  0  0  0  0  0  0  0
   49.1486    4.3179   21.5681 H   0  0  0  0  0  0  0  0  0  0  0  0
   49.9050    5.7802   21.9259 H   0  0  0  0  0  0  0  0  0  0  0  0
   47.1202    6.5856   23.4341 H   0  0  0  0  0  0  0  0  0  0  0  0
   46.5034    7.5300   22.0651 H   0  0  0  0  0  0  0  0  0  0  0  0
   47.1524    9.4108   20.4346 H   0  0  0  0  0  0  0  0  0  0  0  0
   46.5681    9.8599   22.0913 H   0  0  0  0  0  0  0  0  0  0  0  0
   50.7522    9.2770   22.1956 H   0  0  0  0  0  0  0  0  0  0  0  0
   50.1401    9.5579   20.5329 H   0  0  0  0  0  0  0  0  0  0  0  0
   50.1047   11.5053   22.9204 H   0  0  0  0  0  0  0  0  0  0  0  0
   50.9737   11.6832   21.3442 H   0  0  0  0  0  0  0  0  0  0  0  0
  1  2  2  0
  2  3  1  0
  3  4  2  0
  4  5  1  0
  5  6  2  0
  1  6  1  0
  7  8  1  0
  8  9  1  0
  5  7  1  0
 10 11  1  0
 11 12  2  0
  8 10  1  0
 13 14  1  0
 11 13  1  0
 15 16  1  0
 16 17  1  0
 17 18  1  0
 14 18  1  0
 13 15  1  0
 19 20  2  0
 20 21  1  0
 17 19  1  0
 18 21  2  0
  1 22  1  0
  2 23  1  0
  4 24  1  0
 19 25  1  0
 25 26  1  0
 25 27  1  0
 25 28  1  0
  3 29  1  0
  6 30  1  0
  7 31  1  0
  7 32  1  0
  8 33  1  6
  9 34  1  0
  9 35  1  0
 10 36  1  0
 10 37  1  0
 14 38  1  0
 14 39  1  0
 15 40  1  0
 15 41  1  0
 16 42  1  0
 16 43  1  0
M  END
> <Uni-Dock RESULT> 
ENERGY=   -3.907  LOWER_BOUND=    5.384  UPPER_BOUND=    9.773
INTER + INTRA:          -3.907
INTER:                  -3.907
INTRA:                   0.000
UNBOUND:                 0.000

$$$$

     RDKit          3D

 43 45  0  0  0  0  0  0  0  0999 V2000
   38.5003   13.0672   15.7915 C   0  0  0  0  0  0  0  0  0  0  0  0
   38.4779   14.4615   15.6917 C   0  0  0  0  0  0  0  0  0  0  0  0
   39.2811   15.1071   14.7477 C   0  0  0  0  0  0  0  0  0  0  0  0
   40.1108   14.3634   13.9022 C   0  0  0  0  0  0  0  0  0  0  0  0
   40.1446   12.9590   14.0017 C   0  0  0  0  0  0  0  0  0  0  0  0
   39.3275   12.3184   14.9490 C   0  0  0  0  0  0  0  0  0  0  0  0
   41.0121   12.1348   13.0822 C   0  0  0  0  0  0  0  0  0  0  0  0
   40.2009   11.5389   11.9074 C   0  0  1  0  0  0  0  0  0  0  0  0
   39.6455   12.5824   11.0380 N   0  0  0  0  0  0  0  0  0  0  0  0
   41.0348   10.5410   11.0780 C   0  0  0  0  0  0  0  0  0  0  0  0
   42.1961   11.1936   10.3662 C   0  0  0  0  0  0  0  0  0  0  0  0
   41.9875   11.7320    9.2448 O   0  0  0  0  0  0  0  0  0  0  0  0
   43.5117   11.2635   10.9538 N   0  0  0  0  0  0  0  0  0  0  0  0
   43.9817   10.2042   11.8664 C   0  0  0  0  0  0  0  0  0  0  0  0
   44.3108   12.4933   10.7927 C   0  0  0  0  0  0  0  0  0  0  0  0
   45.7599   12.1504   10.4281 C   0  0  0  0  0  0  0  0  0  0  0  0
   46.2437   11.0896   11.3052 N   0  0  0  0  0  0  0  0  0  0  0  0
   45.4769   10.1810   11.9220 C   0  0  0  0  0  0  0  0  0  0  0  0
   47.4978   10.6858   11.5814 C   0  0  0  0  0  0  0  0  0  0  0  0
   47.4884    9.5885   12.3680 N   0  0  0  0  0  0  0  0  0  0  0  0
   46.2172    9.2703   12.5817 N   0  0  0  0  0  0  0  0  0  0  0  0
   37.7181   12.4385   16.7037 F   0  0  0  0  0  0  0  0  0  0  0  0
   37.6756   15.1889   16.5077 F   0  0  0  0  0  0  0  0  0  0  0  0
   40.8756   15.0133   12.9883 F   0  0  0  0  0  0  0  0  0  0  0  0
   48.7447   11.3588   11.0955 C   0  0  0  0  0  0  0  0  0  0  0  0
   48.7159   11.4549    9.7167 F   0  0  0  0  0  0  0  0  0  0  0  0
   49.8582   10.6300   11.4722 F   0  0  0  0  0  0  0  0  0  0  0  0
   48.8293   12.6256   11.6419 F   0  0  0  0  0  0  0  0  0  0  0  0
   39.2591   16.1867   14.6692 H   0  0  0  0  0  0  0  0  0  0  0  0
   39.3318   11.2383   15.0321 H   0  0  0  0  0  0  0  0  0  0  0  0
   41.4614   11.3072   13.6726 H   0  0  0  0  0  0  0  0  0  0  0  0
   41.8568   12.7452   12.6981 H   0  0  0  0  0  0  0  0  0  0  0  0
   39.3534   10.9573   12.3366 H   0  0  0  0  0  0  0  0  0  0  0  0
   38.8698   13.0679   11.5442 H   0  0  0  0  0  0  0  0  0  0  0  0
   40.3789   13.2992   10.8316 H   0  0  0  0  0  0  0  0  0  0  0  0
   40.3729   10.0721   10.3174 H   0  0  0  0  0  0  0  0  0  0  0  0
   41.3782    9.7163   11.7350 H   0  0  0  0  0  0  0  0  0  0  0  0
   43.5807   10.3816   12.8853 H   0  0  0  0  0  0  0  0  0  0  0  0
   43.6418    9.2115   11.5017 H   0  0  0  0  0  0  0  0  0  0  0  0
   43.8886   13.1564   10.0073 H   0  0  0  0  0  0  0  0  0  0  0  0
   44.2984   13.0566   11.7509 H   0  0  0  0  0  0  0  0  0  0  0  0
   45.8043   11.8001    9.3746 H   0  0  0  0  0  0  0  0  0  0  0  0
   46.3938   13.0563   10.5346 H   0  0  0  0  0  0  0  0  0  0  0  0
  1  2  2  0
  2  3  1  0
  3  4  2  0
  4  5  1  0
  5  6  2  0
  1  6  1  0
  7  8  1  0
  8  9  1  0
  5  7  1  0
 10 11  1  0
 11 12  2  0
  8 10  1  0
 13 14  1  0
 11 13  1  0
 15 16  1  0
 16 17  1  0
 17 18  1  0
 14 18  1  0
 13 15  1  0
 19 20  2  0
 20 21  1  0
 17 19  1  0
 18 21  2  0
  1 22  1  0
  2 23  1  0
  4 24  1  0
 19 25  1  0
 25 26  1  0
 25 27  1  0
 25 28  1  0
  3 29  1  0
  6 30  1  0
  7 31  1  0
  7 32  1  0
  8 33  1  6
  9 34  1  0
  9 35  1  0
 10 36  1  0
 10 37  1  0
 14 38  1  0
 14 39  1  0
 15 40  1  0
 15 41  1  0
 16 42  1  0
 16 43  1  0
M  END
> <Uni-Dock RESULT> 
ENERGY=   -3.861  LOWER_BOUND=    7.882  UPPER_BOUND=    9.210
INTER + INTRA:          -3.861
INTER:                  -3.861
INTRA:                   0.000
UNBOUND:                 0.000

$$$$
