
     RDKit          3D

 43 45  0  0  0  0  0  0  0  0999 V2000
   54.6050    2.7004   20.9936 C   0  0  0  0  0  0  0  0  0  0  0  0
   54.2321    3.1508   22.2631 C   0  0  0  0  0  0  0  0  0  0  0  0
   53.3648    4.2389   22.3911 C   0  0  0  0  0  0  0  0  0  0  0  0
   52.8653    4.8792   21.2523 C   0  0  0  0  0  0  0  0  0  0  0  0
   53.2320    4.4290   19.9690 C   0  0  0  0  0  0  0  0  0  0  0  0
   54.1091    3.3365   19.8515 C   0  0  0  0  0  0  0  0  0  0  0  0
   52.6892    5.0971   18.7254 C   0  0  0  0  0  0  0  0  0  0  0  0
   51.4220    4.4198   18.1612 C   0  0  1  0  0  0  0  0  0  0  0  0
   51.7151    3.0402   17.7567 N   0  0  0  0  0  0  0  0  0  0  0  0
   50.2337    4.4877   19.1498 C   0  0  0  0  0  0  0  0  0  0  0  0
   48.9511    4.0082   18.5191 C   0  0  0  0  0  0  0  0  0  0  0  0
   48.4092    2.9706   18.9897 O   0  0  0  0  0  0  0  0  0  0  0  0
   48.3612    4.6625   17.3724 N   0  0  0  0  0  0  0  0  0  0  0  0
   47.3620    3.9192   16.5816 C   0  0  0  0  0  0  0  0  0  0  0  0
   48.4860    6.1204   17.1662 C   0  0  0  0  0  0  0  0  0  0  0  0
   48.7285    6.4374   15.6842 C   0  0  0  0  0  0  0  0  0  0  0  0
   47.8113    5.6600   14.8576 N   0  0  0  0  0  0  0  0  0  0  0  0
   47.2331    4.5056   15.2120 C   0  0  0  0  0  0  0  0  0  0  0  0
   47.4594    5.8070   13.5666 C   0  0  0  0  0  0  0  0  0  0  0  0
   46.6640    4.7925   13.1654 N   0  0  0  0  0  0  0  0  0  0  0  0
   46.5205    3.9742   14.2008 N   0  0  0  0  0  0  0  0  0  0  0  0
   55.4477    1.6455   20.8672 F   0  0  0  0  0  0  0  0  0  0  0  0
   54.7122    2.5347   23.3716 F   0  0  0  0  0  0  0  0  0  0  0  0
   52.0286    5.9369   21.4039 F   0  0  0  0  0  0  0  0  0  0  0  0
   47.8806    6.9422   12.6846 C   0  0  0  0  0  0  0  0  0  0  0  0
   47.3489    8.1237   13.1659 F   0  0  0  0  0  0  0  0  0  0  0  0
   47.4280    6.7369   11.3937 F   0  0  0  0  0  0  0  0  0  0  0  0
   49.2599    7.0330   12.6681 F   0  0  0  0  0  0  0  0  0  0  0  0
   53.0791    4.5876   23.3753 H   0  0  0  0  0  0  0  0  0  0  0  0
   54.4056    2.9764   18.8742 H   0  0  0  0  0  0  0  0  0  0  0  0
   53.4750    5.0954   17.9382 H   0  0  0  0  0  0  0  0  0  0  0  0
   52.4711    6.1678   18.9320 H   0  0  0  0  0  0  0  0  0  0  0  0
   51.1501    4.9937   17.2480 H   0  0  0  0  0  0  0  0  0  0  0  0
   50.9500    2.7037   17.1280 H   0  0  0  0  0  0  0  0  0  0  0  0
   51.7185    2.4175   18.5972 H   0  0  0  0  0  0  0  0  0  0  0  0
   50.4570    3.8596   20.0399 H   0  0  0  0  0  0  0  0  0  0  0  0
   50.0977    5.5211   19.5289 H   0  0  0  0  0  0  0  0  0  0  0  0
   46.3776    3.9618   17.0938 H   0  0  0  0  0  0  0  0  0  0  0  0
   47.6717    2.8569   16.4757 H   0  0  0  0  0  0  0  0  0  0  0  0
   49.3148    6.5615   17.7519 H   0  0  0  0  0  0  0  0  0  0  0  0
   47.5448    6.6107   17.4965 H   0  0  0  0  0  0  0  0  0  0  0  0
   48.5766    7.5235   15.5076 H   0  0  0  0  0  0  0  0  0  0  0  0
   49.7730    6.1722   15.4139 H   0  0  0  0  0  0  0  0  0  0  0  0
  1  2  2  0
  2  3  1  0
  3  4  2  0
  4  5  1  0
  5  6  2  0
  1  6  1  0
  7  8  1  0
  8  9  1  0
  5  7  1  0
 10 11  1  0
 11 12  2  0
  8 10  1  0
 13 14  1  0
 11 13  1  0
 15 16  1  0
 16 17  1  0
 17 18  1  0
 14 18  1  0
 13 15  1  0
 19 20  2  0
 20 21  1  0
 17 19  1  0
 18 21  2  0
  1 22  1  0
  2 23  1  0
  4 24  1  0
 19 25  1  0
 25 26  1  0
 25 27  1  0
 25 28  1  0
  3 29  1  0
  6 30  1  0
  7 31  1  0
  7 32  1  0
  8 33  1  6
  9 34  1  0
  9 35  1  0
 10 36  1  0
 10 37  1  0
 14 38  1  0
 14 39  1  0
 15 40  1  0
 15 41  1  0
 16 42  1  0
 16 43  1  0
M  END
> <Uni-Dock RESULT> 
ENERGY=   -4.456  LOWER_BOUND=    0.000  UPPER_BOUND=    0.000
INTER + INTRA:          -4.456
INTER:                  -4.456
INTRA:                   0.000
UNBOUND:                 0.000

$$$$

     RDKit          3D

 43 45  0  0  0  0  0  0  0  0999 V2000
   46.3319    8.6622   13.0065 C   0  0  0  0  0  0  0  0  0  0  0  0
   45.5984    7.6453   12.3890 C   0  0  0  0  0  0  0  0  0  0  0  0
   45.9968    6.3133   12.5290 C   0  0  0  0  0  0  0  0  0  0  0  0
   47.1271    5.9921   13.2876 C   0  0  0  0  0  0  0  0  0  0  0  0
   47.8695    7.0102   13.9174 C   0  0  0  0  0  0  0  0  0  0  0  0
   47.4628    8.3474   13.7660 C   0  0  0  0  0  0  0  0  0  0  0  0
   49.0847    6.6820   14.7558 C   0  0  0  0  0  0  0  0  0  0  0  0
   48.7763    6.5302   16.2608 C   0  0  1  0  0  0  0  0  0  0  0  0
   48.2634    7.7910   16.8085 N   0  0  0  0  0  0  0  0  0  0  0  0
   47.8179    5.3492   16.5446 C   0  0  0  0  0  0  0  0  0  0  0  0
   47.6809    5.0806   18.0217 C   0  0  0  0  0  0  0  0  0  0  0  0
   46.5489    5.2475   18.5534 O   0  0  0  0  0  0  0  0  0  0  0  0
   48.8050    4.6949   18.8454 N   0  0  0  0  0  0  0  0  0  0  0  0
   48.6832    4.8447   20.3079 C   0  0  0  0  0  0  0  0  0  0  0  0
   49.9137    3.8801   18.3065 C   0  0  0  0  0  0  0  0  0  0  0  0
   51.2619    4.3809   18.8420 C   0  0  0  0  0  0  0  0  0  0  0  0
   51.1638    4.6196   20.2781 N   0  0  0  0  0  0  0  0  0  0  0  0
   50.0346    4.8847   20.9470 C   0  0  0  0  0  0  0  0  0  0  0  0
   52.1261    4.7797   21.2056 C   0  0  0  0  0  0  0  0  0  0  0  0
   51.5920    5.0953   22.4047 N   0  0  0  0  0  0  0  0  0  0  0  0
   50.2760    5.1603   22.2426 N   0  0  0  0  0  0  0  0  0  0  0  0
   45.9478    9.9556   12.8709 F   0  0  0  0  0  0  0  0  0  0  0  0
   44.5012    7.9491   11.6523 F   0  0  0  0  0  0  0  0  0  0  0  0
   47.4958    4.6913   13.4036 F   0  0  0  0  0  0  0  0  0  0  0  0
   53.5950    4.6245   20.9560 C   0  0  0  0  0  0  0  0  0  0  0  0
   53.8703    3.3135   20.6158 F   0  0  0  0  0  0  0  0  0  0  0  0
   54.3098    4.9548   22.0933 F   0  0  0  0  0  0  0  0  0  0  0  0
   53.9832    5.4576   19.9235 F   0  0  0  0  0  0  0  0  0  0  0  0
   45.4286    5.5274   12.0479 H   0  0  0  0  0  0  0  0  0  0  0  0
   48.0212    9.1454   14.2397 H   0  0  0  0  0  0  0  0  0  0  0  0
   49.8442    7.4842   14.6266 H   0  0  0  0  0  0  0  0  0  0  0  0
   49.5639    5.7498   14.3843 H   0  0  0  0  0  0  0  0  0  0  0  0
   49.7509    6.3152   16.7518 H   0  0  0  0  0  0  0  0  0  0  0  0
   48.3353    7.7592   17.8515 H   0  0  0  0  0  0  0  0  0  0  0  0
   47.2493    7.8931   16.5732 H   0  0  0  0  0  0  0  0  0  0  0  0
   46.8145    5.5777   16.1231 H   0  0  0  0  0  0  0  0  0  0  0  0
   48.1654    4.4300   16.0305 H   0  0  0  0  0  0  0  0  0  0  0  0
   48.1063    3.9906   20.7213 H   0  0  0  0  0  0  0  0  0  0  0  0
   48.1563    5.7924   20.5525 H   0  0  0  0  0  0  0  0  0  0  0  0
   49.9547    3.8992   17.2008 H   0  0  0  0  0  0  0  0  0  0  0  0
   49.7655    2.8233   18.6176 H   0  0  0  0  0  0  0  0  0  0  0  0
   52.0483    3.6248   18.6322 H   0  0  0  0  0  0  0  0  0  0  0  0
   51.5331    5.3313   18.3346 H   0  0  0  0  0  0  0  0  0  0  0  0
  1  2  2  0
  2  3  1  0
  3  4  2  0
  4  5  1  0
  5  6  2  0
  1  6  1  0
  7  8  1  0
  8  9  1  0
  5  7  1  0
 10 11  1  0
 11 12  2  0
  8 10  1  0
 13 14  1  0
 11 13  1  0
 15 16  1  0
 16 17  1  0
 17 18  1  0
 14 18  1  0
 13 15  1  0
 19 20  2  0
 20 21  1  0
 17 19  1  0
 18 21  2  0
  1 22  1  0
  2 23  1  0
  4 24  1  0
 19 25  1  0
 25 26  1  0
 25 27  1  0
 25 28  1  0
  3 29  1  0
  6 30  1  0
  7 31  1  0
  7 32  1  0
  8 33  1  6
  9 34  1  0
  9 35  1  0
 10 36  1  0
 10 37  1  0
 14 38  1  0
 14 39  1  0
 15 40  1  0
 15 41  1  0
 16 42  1  0
 16 43  1  0
M  END
> <Uni-Dock RESULT> 
ENERGY=   -4.343  LOWER_BOUND=    2.379  UPPER_BOUND=    9.162
INTER + INTRA:          -4.343
INTER:                  -4.343
INTRA:                   0.000
UNBOUND:                 0.000

$$$$

     RDKit          3D

 43 45  0  0  0  0  0  0  0  0999 V2000
   49.1642    7.7697   16.8120 C   0  0  0  0  0  0  0  0  0  0  0  0
   48.4694    8.9692   16.9905 C   0  0  0  0  0  0  0  0  0  0  0  0
   47.8351    9.5771   15.9040 C   0  0  0  0  0  0  0  0  0  0  0  0
   47.8905    8.9884   14.6364 C   0  0  0  0  0  0  0  0  0  0  0  0
   48.5845    7.7771   14.4483 C   0  0  0  0  0  0  0  0  0  0  0  0
   49.2233    7.1765   15.5473 C   0  0  0  0  0  0  0  0  0  0  0  0
   48.6416    7.1160   13.0892 C   0  0  0  0  0  0  0  0  0  0  0  0
   47.5425    6.0544   12.8701 C   0  0  1  0  0  0  0  0  0  0  0  0
   47.6889    4.9585   13.8345 N   0  0  0  0  0  0  0  0  0  0  0  0
   46.1223    6.6672   12.9090 C   0  0  0  0  0  0  0  0  0  0  0  0
   45.0697    5.6700   12.4962 C   0  0  0  0  0  0  0  0  0  0  0  0
   44.2118    5.3224   13.3536 O   0  0  0  0  0  0  0  0  0  0  0  0
   45.0473    5.0682   11.1816 N   0  0  0  0  0  0  0  0  0  0  0  0
   44.2602    3.8352   10.9911 C   0  0  0  0  0  0  0  0  0  0  0  0
   45.5107    5.8047    9.9872 C   0  0  0  0  0  0  0  0  0  0  0  0
   46.3049    4.8786    9.0560 C   0  0  0  0  0  0  0  0  0  0  0  0
   45.5990    3.6110    8.9025 N   0  0  0  0  0  0  0  0  0  0  0  0
   44.7256    3.0962    9.7771 C   0  0  0  0  0  0  0  0  0  0  0  0
   45.7487    2.6317    7.9912 C   0  0  0  0  0  0  0  0  0  0  0  0
   44.9630    1.5742    8.2865 N   0  0  0  0  0  0  0  0  0  0  0  0
   44.3183    1.8667    9.4095 N   0  0  0  0  0  0  0  0  0  0  0  0
   49.7816    7.1787   17.8648 F   0  0  0  0  0  0  0  0  0  0  0  0
   48.4111    9.5455   18.2166 F   0  0  0  0  0  0  0  0  0  0  0  0
   47.2705    9.6017   13.5966 F   0  0  0  0  0  0  0  0  0  0  0  0
   46.6561    2.6962    6.8010 C   0  0  0  0  0  0  0  0  0  0  0  0
   46.2262    3.6928    5.9453 F   0  0  0  0  0  0  0  0  0  0  0  0
   46.6463    1.4882    6.1273 F   0  0  0  0  0  0  0  0  0  0  0  0
   47.9468    2.9705    7.2130 F   0  0  0  0  0  0  0  0  0  0  0  0
   47.2995   10.5074   16.0439 H   0  0  0  0  0  0  0  0  0  0  0  0
   49.7644    6.2465   15.4236 H   0  0  0  0  0  0  0  0  0  0  0  0
   49.6350    6.6326   12.9605 H   0  0  0  0  0  0  0  0  0  0  0  0
   48.5736    7.8843   12.2882 H   0  0  0  0  0  0  0  0  0  0  0  0
   47.7168    5.6403   11.8525 H   0  0  0  0  0  0  0  0  0  0  0  0
   47.1384    4.1361   13.4961 H   0  0  0  0  0  0  0  0  0  0  0  0
   47.2837    5.2412   14.7565 H   0  0  0  0  0  0  0  0  0  0  0  0
   45.9010    7.0224   13.9392 H   0  0  0  0  0  0  0  0  0  0  0  0
   46.0632    7.5616   12.2559 H   0  0  0  0  0  0  0  0  0  0  0  0
   43.1869    4.0949   10.8742 H   0  0  0  0  0  0  0  0  0  0  0  0
   44.3792    3.1660   11.8707 H   0  0  0  0  0  0  0  0  0  0  0  0
   46.1543    6.6671   10.2448 H   0  0  0  0  0  0  0  0  0  0  0  0
   44.6249    6.1989    9.4435 H   0  0  0  0  0  0  0  0  0  0  0  0
   46.4329    5.3681    8.0671 H   0  0  0  0  0  0  0  0  0  0  0  0
   47.3077    4.6842    9.4930 H   0  0  0  0  0  0  0  0  0  0  0  0
  1  2  2  0
  2  3  1  0
  3  4  2  0
  4  5  1  0
  5  6  2  0
  1  6  1  0
  7  8  1  0
  8  9  1  0
  5  7  1  0
 10 11  1  0
 11 12  2  0
  8 10  1  0
 13 14  1  0
 11 13  1  0
 15 16  1  0
 16 17  1  0
 17 18  1  0
 14 18  1  0
 13 15  1  0
 19 20  2  0
 20 21  1  0
 17 19  1  0
 18 21  2  0
  1 22  1  0
  2 23  1  0
  4 24  1  0
 19 25  1  0
 25 26  1  0
 25 27  1  0
 25 28  1  0
  3 29  1  0
  6 30  1  0
  7 31  1  0
  7 32  1  0
  8 33  1  6
  9 34  1  0
  9 35  1  0
 10 36  1  0
 10 37  1  0
 14 38  1  0
 14 39  1  0
 15 40  1  0
 15 41  1  0
 16 42  1  0
 16 43  1  0
M  END
> <Uni-Dock RESULT> 
ENERGY=   -4.211  LOWER_BOUND=    5.178  UPPER_BOUND=    7.773
INTER + INTRA:          -4.211
INTER:                  -4.211
INTRA:                   0.000
UNBOUND:                 0.000

$$$$

     RDKit          3D

 43 45  0  0  0  0  0  0  0  0999 V2000
   52.5842    2.6506   18.2072 C   0  0  0  0  0  0  0  0  0  0  0  0
   51.7902    1.7173   17.5349 C   0  0  0  0  0  0  0  0  0  0  0  0
   50.4638    2.0257   17.2216 C   0  0  0  0  0  0  0  0  0  0  0  0
   49.9267    3.2674   17.5763 C   0  0  0  0  0  0  0  0  0  0  0  0
   50.7211    4.2159   18.2499 C   0  0  0  0  0  0  0  0  0  0  0  0
   52.0529    3.8935   18.5646 C   0  0  0  0  0  0  0  0  0  0  0  0
   50.1640    5.5704   18.6269 C   0  0  0  0  0  0  0  0  0  0  0  0
   50.4481    6.6700   17.5813 C   0  0  1  0  0  0  0  0  0  0  0  0
   51.8932    6.8782   17.4362 N   0  0  0  0  0  0  0  0  0  0  0  0
   49.7719    6.3724   16.2219 C   0  0  0  0  0  0  0  0  0  0  0  0
   49.8828    7.5386   15.2730 C   0  0  0  0  0  0  0  0  0  0  0  0
   50.5479    7.3806   14.2126 O   0  0  0  0  0  0  0  0  0  0  0  0
   49.3026    8.8307   15.5642 N   0  0  0  0  0  0  0  0  0  0  0  0
   49.7863   10.0003   14.8063 C   0  0  0  0  0  0  0  0  0  0  0  0
   48.0537    8.9585   16.3437 C   0  0  0  0  0  0  0  0  0  0  0  0
   48.1418   10.1442   17.3141 C   0  0  0  0  0  0  0  0  0  0  0  0
   48.6925   11.3058   16.6240 N   0  0  0  0  0  0  0  0  0  0  0  0
   49.4748   11.2668   15.5381 C   0  0  0  0  0  0  0  0  0  0  0  0
   48.6888   12.6081   16.9646 C   0  0  0  0  0  0  0  0  0  0  0  0
   49.4156   13.3369   16.0909 N   0  0  0  0  0  0  0  0  0  0  0  0
   49.9092   12.4933   15.1925 N   0  0  0  0  0  0  0  0  0  0  0  0
   53.8712    2.3527   18.5134 F   0  0  0  0  0  0  0  0  0  0  0  0
   52.3042    0.5115   17.1874 F   0  0  0  0  0  0  0  0  0  0  0  0
   48.6343    3.5404   17.2651 F   0  0  0  0  0  0  0  0  0  0  0  0
   47.9731   13.1855   18.1472 C   0  0  0  0  0  0  0  0  0  0  0  0
   46.6099   13.0234   17.9870 F   0  0  0  0  0  0  0  0  0  0  0  0
   48.2561   14.5344   18.2645 F   0  0  0  0  0  0  0  0  0  0  0  0
   48.3796   12.5391   19.2995 F   0  0  0  0  0  0  0  0  0  0  0  0
   49.8498    1.3005   16.7029 H   0  0  0  0  0  0  0  0  0  0  0  0
   52.6798    4.6074   19.0845 H   0  0  0  0  0  0  0  0  0  0  0  0
   50.5980    5.8846   19.6016 H   0  0  0  0  0  0  0  0  0  0  0  0
   49.0670    5.4986   18.7940 H   0  0  0  0  0  0  0  0  0  0  0  0
   50.0076    7.6044   17.9937 H   0  0  0  0  0  0  0  0  0  0  0  0
   52.0554    7.7952   16.9601 H   0  0  0  0  0  0  0  0  0  0  0  0
   52.2981    6.1361   16.8202 H   0  0  0  0  0  0  0  0  0  0  0  0
   50.2494    5.4813   15.7586 H   0  0  0  0  0  0  0  0  0  0  0  0
   48.7038    6.1096   16.3645 H   0  0  0  0  0  0  0  0  0  0  0  0
   49.2991   10.0228   13.8087 H   0  0  0  0  0  0  0  0  0  0  0  0
   50.8881    9.9399   14.6723 H   0  0  0  0  0  0  0  0  0  0  0  0
   47.8269    8.0492   16.9320 H   0  0  0  0  0  0  0  0  0  0  0  0
   47.2081    9.1220   15.6410 H   0  0  0  0  0  0  0  0  0  0  0  0
   47.1295   10.3770   17.7080 H   0  0  0  0  0  0  0  0  0  0  0  0
   48.8059    9.8795   18.1645 H   0  0  0  0  0  0  0  0  0  0  0  0
  1  2  2  0
  2  3  1  0
  3  4  2  0
  4  5  1  0
  5  6  2  0
  1  6  1  0
  7  8  1  0
  8  9  1  0
  5  7  1  0
 10 11  1  0
 11 12  2  0
  8 10  1  0
 13 14  1  0
 11 13  1  0
 15 16  1  0
 16 17  1  0
 17 18  1  0
 14 18  1  0
 13 15  1  0
 19 20  2  0
 20 21  1  0
 17 19  1  0
 18 21  2  0
  1 22  1  0
  2 23  1  0
  4 24  1  0
 19 25  1  0
 25 26  1  0
 25 27  1  0
 25 28  1  0
  3 29  1  0
  6 30  1  0
  7 31  1  0
  7 32  1  0
  8 33  1  6
  9 34  1  0
  9 35  1  0
 10 36  1  0
 10 37  1  0
 14 38  1  0
 14 39  1  0
 15 40  1  0
 15 41  1  0
 16 42  1  0
 16 43  1  0
M  END
> <Uni-Dock RESULT> 
ENERGY=   -4.107  LOWER_BOUND=    4.825  UPPER_BOUND=    6.089
INTER + INTRA:          -4.107
INTER:                  -4.107
INTRA:                   0.000
UNBOUND:                 0.000

$$$$

     RDKit          3D

 43 45  0  0  0  0  0  0  0  0999 V2000
   43.7211    3.4397   11.3006 C   0  0  0  0  0  0  0  0  0  0  0  0
   44.3449    2.8787   10.1827 C   0  0  0  0  0  0  0  0  0  0  0  0
   45.1334    3.6763    9.3494 C   0  0  0  0  0  0  0  0  0  0  0  0
   45.3036    5.0358    9.6305 C   0  0  0  0  0  0  0  0  0  0  0  0
   44.6825    5.6086   10.7576 C   0  0  0  0  0  0  0  0  0  0  0  0
   43.8873    4.7982   11.5867 C   0  0  0  0  0  0  0  0  0  0  0  0
   44.8679    7.0727   11.0882 C   0  0  0  0  0  0  0  0  0  0  0  0
   46.0159    7.3423   12.0845 C   0  0  1  0  0  0  0  0  0  0  0  0
   45.7414    6.6919   13.3708 N   0  0  0  0  0  0  0  0  0  0  0  0
   47.3934    6.9283   11.5146 C   0  0  0  0  0  0  0  0  0  0  0  0
   48.5258    7.3766   12.4032 C   0  0  0  0  0  0  0  0  0  0  0  0
   49.2393    6.4907   12.9489 O   0  0  0  0  0  0  0  0  0  0  0  0
   48.7807    8.7714   12.6872 N   0  0  0  0  0  0  0  0  0  0  0  0
   49.6208    9.1045   13.8531 C   0  0  0  0  0  0  0  0  0  0  0  0
   48.5014    9.8260   11.6905 C   0  0  0  0  0  0  0  0  0  0  0  0
   47.8965   11.0630   12.3682 C   0  0  0  0  0  0  0  0  0  0  0  0
   48.6514   11.3822   13.5753 N   0  0  0  0  0  0  0  0  0  0  0  0
   49.3818   10.5153   14.2878 C   0  0  0  0  0  0  0  0  0  0  0  0
   48.6801   12.5050   14.3172 C   0  0  0  0  0  0  0  0  0  0  0  0
   49.4340   12.3323   15.4238 N   0  0  0  0  0  0  0  0  0  0  0  0
   49.8767   11.0809   15.4049 N   0  0  0  0  0  0  0  0  0  0  0  0
   42.9544    2.6677   12.1098 F   0  0  0  0  0  0  0  0  0  0  0  0
   44.1849    1.5612    9.9041 F   0  0  0  0  0  0  0  0  0  0  0  0
   46.0702    5.7898    8.8026 F   0  0  0  0  0  0  0  0  0  0  0  0
   47.9801   13.7831   13.9700 C   0  0  0  0  0  0  0  0  0  0  0  0
   48.5187   14.3046   12.8089 F   0  0  0  0  0  0  0  0  0  0  0  0
   48.1330   14.7037   14.9911 F   0  0  0  0  0  0  0  0  0  0  0  0
   46.6323   13.5404   13.7818 F   0  0  0  0  0  0  0  0  0  0  0  0
   45.6138    3.2403    8.4827 H   0  0  0  0  0  0  0  0  0  0  0  0
   43.3988    5.2194   12.4567 H   0  0  0  0  0  0  0  0  0  0  0  0
   43.9226    7.4722   11.5170 H   0  0  0  0  0  0  0  0  0  0  0  0
   45.0467    7.6542   10.1574 H   0  0  0  0  0  0  0  0  0  0  0  0
   46.0229    8.4419   12.2518 H   0  0  0  0  0  0  0  0  0  0  0  0
   46.3618    7.1127   14.1002 H   0  0  0  0  0  0  0  0  0  0  0  0
   45.9813    5.6755   13.3124 H   0  0  0  0  0  0  0  0  0  0  0  0
   47.4322    5.8221   11.4081 H   0  0  0  0  0  0  0  0  0  0  0  0
   47.5358    7.3406   10.4949 H   0  0  0  0  0  0  0  0  0  0  0  0
   50.6915    8.9784   13.5866 H   0  0  0  0  0  0  0  0  0  0  0  0
   49.3761    8.4336   14.7049 H   0  0  0  0  0  0  0  0  0  0  0  0
   47.8014    9.4892   10.9024 H   0  0  0  0  0  0  0  0  0  0  0  0
   49.4540   10.1098   11.1930 H   0  0  0  0  0  0  0  0  0  0  0  0
   47.9205   11.9211   11.6632 H   0  0  0  0  0  0  0  0  0  0  0  0
   46.8408   10.8555   12.6455 H   0  0  0  0  0  0  0  0  0  0  0  0
  1  2  2  0
  2  3  1  0
  3  4  2  0
  4  5  1  0
  5  6  2  0
  1  6  1  0
  7  8  1  0
  8  9  1  0
  5  7  1  0
 10 11  1  0
 11 12  2  0
  8 10  1  0
 13 14  1  0
 11 13  1  0
 15 16  1  0
 16 17  1  0
 17 18  1  0
 14 18  1  0
 13 15  1  0
 19 20  2  0
 20 21  1  0
 17 19  1  0
 18 21  2  0
  1 22  1  0
  2 23  1  0
  4 24  1  0
 19 25  1  0
 25 26  1  0
 25 27  1  0
 25 28  1  0
  3 29  1  0
  6 30  1  0
  7 31  1  0
  7 32  1  0
  8 33  1  6
  9 34  1  0
  9 35  1  0
 10 36  1  0
 10 37  1  0
 14 38  1  0
 14 39  1  0
 15 40  1  0
 15 41  1  0
 16 42  1  0
 16 43  1  0
M  END
> <Uni-Dock RESULT> 
ENERGY=   -4.074  LOWER_BOUND=    7.866  UPPER_BOUND=   10.363
INTER + INTRA:          -4.074
INTER:                  -4.074
INTRA:                   0.000
UNBOUND:                 0.000

$$$$

     RDKit          3D

 43 45  0  0  0  0  0  0  0  0999 V2000
   49.9969    2.9831   17.4425 C   0  0  0  0  0  0  0  0  0  0  0  0
   48.8042    2.6730   16.7832 C   0  0  0  0  0  0  0  0  0  0  0  0
   47.6163    3.3094   17.1525 C   0  0  0  0  0  0  0  0  0  0  0  0
   47.6158    4.2590   18.1794 C   0  0  0  0  0  0  0  0  0  0  0  0
   48.8141    4.5812   18.8461 C   0  0  0  0  0  0  0  0  0  0  0  0
   50.0027    3.9314   18.4700 C   0  0  0  0  0  0  0  0  0  0  0  0
   48.8374    5.6174   19.9475 C   0  0  0  0  0  0  0  0  0  0  0  0
   49.2003    7.0353   19.4565 C   0  0  1  0  0  0  0  0  0  0  0  0
   50.5532    7.0504   18.8889 N   0  0  0  0  0  0  0  0  0  0  0  0
   48.1548    7.5949   18.4627 C   0  0  0  0  0  0  0  0  0  0  0  0
   48.4046    9.0471   18.1443 C   0  0  0  0  0  0  0  0  0  0  0  0
   48.7031    9.3523   16.9570 O   0  0  0  0  0  0  0  0  0  0  0  0
   48.3657   10.0788   19.1567 N   0  0  0  0  0  0  0  0  0  0  0  0
   49.0038   11.3749   18.8581 C   0  0  0  0  0  0  0  0  0  0  0  0
   47.4557    9.9877   20.3175 C   0  0  0  0  0  0  0  0  0  0  0  0
   48.1580   10.4715   21.5935 C   0  0  0  0  0  0  0  0  0  0  0  0
   48.8713   11.7150   21.3222 N   0  0  0  0  0  0  0  0  0  0  0  0
   49.3091   12.1145   20.1215 C   0  0  0  0  0  0  0  0  0  0  0  0
   49.3743   12.6362   22.1650 C   0  0  0  0  0  0  0  0  0  0  0  0
   50.0629   13.5816   21.4905 N   0  0  0  0  0  0  0  0  0  0  0  0
   50.0210   13.2542   20.2046 N   0  0  0  0  0  0  0  0  0  0  0  0
   51.1506    2.3656   17.0866 F   0  0  0  0  0  0  0  0  0  0  0  0
   48.7972    1.7537   15.7863 F   0  0  0  0  0  0  0  0  0  0  0  0
   46.4479    4.8590   18.5225 F   0  0  0  0  0  0  0  0  0  0  0  0
   49.1959   12.6292   23.6523 C   0  0  0  0  0  0  0  0  0  0  0  0
   47.8585   12.7968   23.9583 F   0  0  0  0  0  0  0  0  0  0  0  0
   49.9218   13.6580   24.2250 F   0  0  0  0  0  0  0  0  0  0  0  0
   49.6374   11.4256   24.1693 F   0  0  0  0  0  0  0  0  0  0  0  0
   46.6932    3.0660   16.6421 H   0  0  0  0  0  0  0  0  0  0  0  0
   50.9343    4.1626   18.9717 H   0  0  0  0  0  0  0  0  0  0  0  0
   49.5733    5.3093   20.7225 H   0  0  0  0  0  0  0  0  0  0  0  0
   47.8522    5.6491   20.4623 H   0  0  0  0  0  0  0  0  0  0  0  0
   49.2020    7.6808   20.3623 H   0  0  0  0  0  0  0  0  0  0  0  0
   50.8839    8.0411   18.8326 H   0  0  0  0  0  0  0  0  0  0  0  0
   50.5319    6.6774   17.9119 H   0  0  0  0  0  0  0  0  0  0  0  0
   48.1886    7.0060   17.5199 H   0  0  0  0  0  0  0  0  0  0  0  0
   47.1281    7.4738   18.8642 H   0  0  0  0  0  0  0  0  0  0  0  0
   48.3232   11.9870   18.2292 H   0  0  0  0  0  0  0  0  0  0  0  0
   49.9583   11.2141   18.3116 H   0  0  0  0  0  0  0  0  0  0  0  0
   47.0957    8.9563   20.4934 H   0  0  0  0  0  0  0  0  0  0  0  0
   46.5653   10.6247   20.1253 H   0  0  0  0  0  0  0  0  0  0  0  0
   47.4046   10.6289   22.3945 H   0  0  0  0  0  0  0  0  0  0  0  0
   48.8856    9.7028   21.9310 H   0  0  0  0  0  0  0  0  0  0  0  0
  1  2  2  0
  2  3  1  0
  3  4  2  0
  4  5  1  0
  5  6  2  0
  1  6  1  0
  7  8  1  0
  8  9  1  0
  5  7  1  0
 10 11  1  0
 11 12  2  0
  8 10  1  0
 13 14  1  0
 11 13  1  0
 15 16  1  0
 16 17  1  0
 17 18  1  0
 14 18  1  0
 13 15  1  0
 19 20  2  0
 20 21  1  0
 17 19  1  0
 18 21  2  0
  1 22  1  0
  2 23  1  0
  4 24  1  0
 19 25  1  0
 25 26  1  0
 25 27  1  0
 25 28  1  0
  3 29  1  0
  6 30  1  0
  7 31  1  0
  7 32  1  0
  8 33  1  6
  9 34  1  0
  9 35  1  0
 10 36  1  0
 10 37  1  0
 14 38  1  0
 14 39  1  0
 15 40  1  0
 15 41  1  0
 16 42  1  0
 16 43  1  0
M  END
> <Uni-Dock RESULT> 
ENERGY=   -3.978  LOWER_BOUND=    5.854  UPPER_BOUND=    8.351
INTER + INTRA:          -3.978
INTER:                  -3.978
INTRA:                   0.000
UNBOUND:                 0.000

$$$$

     RDKit          3D

 43 45  0  0  0  0  0  0  0  0999 V2000
   49.8401   13.4888   21.9007 C   0  0  0  0  0  0  0  0  0  0  0  0
   49.6824   13.4385   23.2885 C   0  0  0  0  0  0  0  0  0  0  0  0
   49.0064   12.3660   23.8760 C   0  0  0  0  0  0  0  0  0  0  0  0
   48.4878   11.3393   23.0803 C   0  0  0  0  0  0  0  0  0  0  0  0
   48.6463   11.3794   21.6812 C   0  0  0  0  0  0  0  0  0  0  0  0
   49.3238   12.4656   21.1000 C   0  0  0  0  0  0  0  0  0  0  0  0
   48.1077   10.2706   20.8050 C   0  0  0  0  0  0  0  0  0  0  0  0
   49.1452    9.1725   20.4876 C   0  0  1  0  0  0  0  0  0  0  0  0
   50.2751    9.7356   19.7399 N   0  0  0  0  0  0  0  0  0  0  0  0
   49.6137    8.4261   21.7594 C   0  0  0  0  0  0  0  0  0  0  0  0
   50.4674    7.2294   21.4251 C   0  0  0  0  0  0  0  0  0  0  0  0
   51.6716    7.2349   21.8015 O   0  0  0  0  0  0  0  0  0  0  0  0
   49.9684    6.1154   20.6499 N   0  0  0  0  0  0  0  0  0  0  0  0
   50.9468    5.2006   20.0318 C   0  0  0  0  0  0  0  0  0  0  0  0
   48.5538    5.6946   20.7249 C   0  0  0  0  0  0  0  0  0  0  0  0
   48.0290    5.3146   19.3336 C   0  0  0  0  0  0  0  0  0  0  0  0
   49.0053    4.4714   18.6520 N   0  0  0  0  0  0  0  0  0  0  0  0
   50.3198    4.4429   18.9052 C   0  0  0  0  0  0  0  0  0  0  0  0
   48.8743    3.6816   17.5699 C   0  0  0  0  0  0  0  0  0  0  0  0
   50.0663    3.1638   17.2040 N   0  0  0  0  0  0  0  0  0  0  0  0
   50.9758    3.6417   18.0447 N   0  0  0  0  0  0  0  0  0  0  0  0
   50.4946   14.5295   21.3284 F   0  0  0  0  0  0  0  0  0  0  0  0
   50.1829   14.4301   24.0664 F   0  0  0  0  0  0  0  0  0  0  0  0
   47.8309   10.3115   23.6751 F   0  0  0  0  0  0  0  0  0  0  0  0
   47.5846    3.4008   16.8615 C   0  0  0  0  0  0  0  0  0  0  0  0
   46.7330    2.7143   17.7064 F   0  0  0  0  0  0  0  0  0  0  0  0
   47.8165    2.6334   15.7342 F   0  0  0  0  0  0  0  0  0  0  0  0
   46.9927    4.5907   16.4813 F   0  0  0  0  0  0  0  0  0  0  0  0
   48.8833   12.3301   24.9510 H   0  0  0  0  0  0  0  0  0  0  0  0
   49.4541   12.5170   20.0260 H   0  0  0  0  0  0  0  0  0  0  0  0
   47.7451   10.7058   19.8478 H   0  0  0  0  0  0  0  0  0  0  0  0
   47.2171    9.8061   21.2820 H   0  0  0  0  0  0  0  0  0  0  0  0
   48.6262    8.4442   19.8262 H   0  0  0  0  0  0  0  0  0  0  0  0
   50.8068    8.9535   19.2933 H   0  0  0  0  0  0  0  0  0  0  0  0
   50.9308   10.2169   20.3977 H   0  0  0  0  0  0  0  0  0  0  0  0
   50.1985    9.1207   22.4014 H   0  0  0  0  0  0  0  0  0  0  0  0
   48.7440    8.1038   22.3676 H   0  0  0  0  0  0  0  0  0  0  0  0
   51.3180    4.4843   20.7949 H   0  0  0  0  0  0  0  0  0  0  0  0
   51.8058    5.7774   19.6255 H   0  0  0  0  0  0  0  0  0  0  0  0
   47.8979    6.4856   21.1353 H   0  0  0  0  0  0  0  0  0  0  0  0
   48.4775    4.8137   21.3985 H   0  0  0  0  0  0  0  0  0  0  0  0
   47.0629    4.7760   19.4360 H   0  0  0  0  0  0  0  0  0  0  0  0
   47.8649    6.2357   18.7344 H   0  0  0  0  0  0  0  0  0  0  0  0
  1  2  2  0
  2  3  1  0
  3  4  2  0
  4  5  1  0
  5  6  2  0
  1  6  1  0
  7  8  1  0
  8  9  1  0
  5  7  1  0
 10 11  1  0
 11 12  2  0
  8 10  1  0
 13 14  1  0
 11 13  1  0
 15 16  1  0
 16 17  1  0
 17 18  1  0
 14 18  1  0
 13 15  1  0
 19 20  2  0
 20 21  1  0
 17 19  1  0
 18 21  2  0
  1 22  1  0
  2 23  1  0
  4 24  1  0
 19 25  1  0
 25 26  1  0
 25 27  1  0
 25 28  1  0
  3 29  1  0
  6 30  1  0
  7 31  1  0
  7 32  1  0
  8 33  1  6
  9 34  1  0
  9 35  1  0
 10 36  1  0
 10 37  1  0
 14 38  1  0
 14 39  1  0
 15 40  1  0
 15 41  1  0
 16 42  1  0
 16 43  1  0
M  END
> <Uni-Dock RESULT> 
ENERGY=   -3.849  LOWER_BOUND=    5.695  UPPER_BOUND=    7.442
INTER + INTRA:          -3.849
INTER:                  -3.849
INTRA:                   0.000
UNBOUND:                 0.000

$$$$

     RDKit          3D

 43 45  0  0  0  0  0  0  0  0999 V2000
   54.3833    2.9223   18.3625 C   0  0  0  0  0  0  0  0  0  0  0  0
   53.8418    1.8399   17.6636 C   0  0  0  0  0  0  0  0  0  0  0  0
   52.4556    1.7017   17.5554 C   0  0  0  0  0  0  0  0  0  0  0  0
   51.6057    2.6447   18.1424 C   0  0  0  0  0  0  0  0  0  0  0  0
   52.1428    3.7414   18.8446 C   0  0  0  0  0  0  0  0  0  0  0  0
   53.5389    3.8682   18.9517 C   0  0  0  0  0  0  0  0  0  0  0  0
   51.2410    4.7809   19.4719 C   0  0  0  0  0  0  0  0  0  0  0  0
   50.9808    6.0033   18.5657 C   0  0  1  0  0  0  0  0  0  0  0  0
   52.2363    6.7076   18.2821 N   0  0  0  0  0  0  0  0  0  0  0  0
   50.2325    5.6191   17.2671 C   0  0  0  0  0  0  0  0  0  0  0  0
   49.8044    6.8352   16.4857 C   0  0  0  0  0  0  0  0  0  0  0  0
   50.3077    7.0145   15.3427 O   0  0  0  0  0  0  0  0  0  0  0  0
   48.8879    7.8165   17.0224 N   0  0  0  0  0  0  0  0  0  0  0  0
   48.8364    9.1461   16.3854 C   0  0  0  0  0  0  0  0  0  0  0  0
   47.8061    7.4346   17.9538 C   0  0  0  0  0  0  0  0  0  0  0  0
   47.6546    8.4828   19.0645 C   0  0  0  0  0  0  0  0  0  0  0  0
   47.6790    9.8217   18.4851 N   0  0  0  0  0  0  0  0  0  0  0  0
   48.2484   10.1547   17.3199 C   0  0  0  0  0  0  0  0  0  0  0  0
   47.3040   11.0059   19.0040 C   0  0  0  0  0  0  0  0  0  0  0  0
   47.6047   12.0177   18.1622 N   0  0  0  0  0  0  0  0  0  0  0  0
   48.1977   11.4823   17.1020 N   0  0  0  0  0  0  0  0  0  0  0  0
   55.7283    3.0576   18.4699 F   0  0  0  0  0  0  0  0  0  0  0  0
   54.6596    0.9218   17.0914 F   0  0  0  0  0  0  0  0  0  0  0  0
   50.2630    2.4848   18.0272 F   0  0  0  0  0  0  0  0  0  0  0  0
   46.6360   11.1897   20.3321 C   0  0  0  0  0  0  0  0  0  0  0  0
   45.3934   10.5850   20.3123 F   0  0  0  0  0  0  0  0  0  0  0  0
   46.4777   12.5367   20.6043 F   0  0  0  0  0  0  0  0  0  0  0  0
   47.4086   10.6182   21.3258 F   0  0  0  0  0  0  0  0  0  0  0  0
   52.0382    0.8612   17.0156 H   0  0  0  0  0  0  0  0  0  0  0  0
   53.9722    4.7024   19.4895 H   0  0  0  0  0  0  0  0  0  0  0  0
   51.6973    5.1331   20.4232 H   0  0  0  0  0  0  0  0  0  0  0  0
   50.2688    4.3215   19.7552 H   0  0  0  0  0  0  0  0  0  0  0  0
   50.3305    6.6869   19.1547 H   0  0  0  0  0  0  0  0  0  0  0  0
   52.0124    7.6645   17.9243 H   0  0  0  0  0  0  0  0  0  0  0  0
   52.7584    6.2103   17.5242 H   0  0  0  0  0  0  0  0  0  0  0  0
   50.8951    4.9934   16.6298 H   0  0  0  0  0  0  0  0  0  0  0  0
   49.3458    4.9935   17.4960 H   0  0  0  0  0  0  0  0  0  0  0  0
   48.2170    9.0925   15.4653 H   0  0  0  0  0  0  0  0  0  0  0  0
   49.8615    9.4805   16.1153 H   0  0  0  0  0  0  0  0  0  0  0  0
   47.9850    6.4522   18.4306 H   0  0  0  0  0  0  0  0  0  0  0  0
   46.8534    7.3623   17.3857 H   0  0  0  0  0  0  0  0  0  0  0  0
   46.6978    8.3161   19.6038 H   0  0  0  0  0  0  0  0  0  0  0  0
   48.4947    8.3846   19.7848 H   0  0  0  0  0  0  0  0  0  0  0  0
  1  2  2  0
  2  3  1  0
  3  4  2  0
  4  5  1  0
  5  6  2  0
  1  6  1  0
  7  8  1  0
  8  9  1  0
  5  7  1  0
 10 11  1  0
 11 12  2  0
  8 10  1  0
 13 14  1  0
 11 13  1  0
 15 16  1  0
 16 17  1  0
 17 18  1  0
 14 18  1  0
 13 15  1  0
 19 20  2  0
 20 21  1  0
 17 19  1  0
 18 21  2  0
  1 22  1  0
  2 23  1  0
  4 24  1  0
 19 25  1  0
 25 26  1  0
 25 27  1  0
 25 28  1  0
  3 29  1  0
  6 30  1  0
  7 31  1  0
  7 32  1  0
  8 33  1  6
  9 34  1  0
  9 35  1  0
 10 36  1  0
 10 37  1  0
 14 38  1  0
 14 39  1  0
 15 40  1  0
 15 41  1  0
 16 42  1  0
 16 43  1  0
M  END
> <Uni-Dock RESULT> 
ENERGY=   -3.802  LOWER_BOUND=    4.407  UPPER_BOUND=    5.693
INTER + INTRA:          -3.802
INTER:                  -3.802
INTRA:                   0.000
UNBOUND:                 0.000

$$$$

     RDKit          3D

 43 45  0  0  0  0  0  0  0  0999 V2000
   49.3605   14.1202   18.7403 C   0  0  0  0  0  0  0  0  0  0  0  0
   48.8780   14.4885   19.9993 C   0  0  0  0  0  0  0  0  0  0  0  0
   48.0631   13.6107   20.7189 C   0  0  0  0  0  0  0  0  0  0  0  0
   47.7293   12.3617   20.1851 C   0  0  0  0  0  0  0  0  0  0  0  0
   48.2150   11.9804   18.9191 C   0  0  0  0  0  0  0  0  0  0  0  0
   49.0301   12.8732   18.2013 C   0  0  0  0  0  0  0  0  0  0  0  0
   47.8794   10.6276   18.3320 C   0  0  0  0  0  0  0  0  0  0  0  0
   48.9428    9.5462   18.6199 C   0  0  1  0  0  0  0  0  0  0  0  0
   50.2274    9.9170   18.0156 N   0  0  0  0  0  0  0  0  0  0  0  0
   49.0836    9.2533   20.1326 C   0  0  0  0  0  0  0  0  0  0  0  0
   49.9707    8.0626   20.3932 C   0  0  0  0  0  0  0  0  0  0  0  0
   51.0516    8.2519   21.0160 O   0  0  0  0  0  0  0  0  0  0  0  0
   49.6495    6.7381   19.9101 N   0  0  0  0  0  0  0  0  0  0  0  0
   50.7299    5.7355   19.8501 C   0  0  0  0  0  0  0  0  0  0  0  0
   48.2501    6.2803   19.7843 C   0  0  0  0  0  0  0  0  0  0  0  0
   48.0627    5.4631   18.4988 C   0  0  0  0  0  0  0  0  0  0  0  0
   49.1574    4.5089   18.3575 N   0  0  0  0  0  0  0  0  0  0  0  0
   50.3739    4.6346   18.9025 C   0  0  0  0  0  0  0  0  0  0  0  0
   49.2721    3.4195   17.5752 C   0  0  0  0  0  0  0  0  0  0  0  0
   50.5074    2.8836   17.6734 N   0  0  0  0  0  0  0  0  0  0  0  0
   51.2005    3.6472   18.5094 N   0  0  0  0  0  0  0  0  0  0  0  0
   50.1502   14.9712   18.0396 F   0  0  0  0  0  0  0  0  0  0  0  0
   49.1978   15.6976   20.5234 F   0  0  0  0  0  0  0  0  0  0  0  0
   46.9321   11.5297   20.9020 F   0  0  0  0  0  0  0  0  0  0  0  0
   48.1819    2.8620   16.7123 C   0  0  0  0  0  0  0  0  0  0  0  0
   47.1424    2.4198   17.5087 F   0  0  0  0  0  0  0  0  0  0  0  0
   48.6602    1.8009   15.9650 F   0  0  0  0  0  0  0  0  0  0  0  0
   47.7181    3.8424   15.8553 F   0  0  0  0  0  0  0  0  0  0  0  0
   47.6885   13.8988   21.6929 H   0  0  0  0  0  0  0  0  0  0  0  0
   49.4117   12.6006   17.2251 H   0  0  0  0  0  0  0  0  0  0  0  0
   47.7614   10.7273   17.2305 H   0  0  0  0  0  0  0  0  0  0  0  0
   46.8930   10.2814   18.7112 H   0  0  0  0  0  0  0  0  0  0  0  0
   48.5821    8.6220   18.1170 H   0  0  0  0  0  0  0  0  0  0  0  0
   50.8357    9.0674   17.9694 H   0  0  0  0  0  0  0  0  0  0  0  0
   50.7173   10.6132   18.6234 H   0  0  0  0  0  0  0  0  0  0  0  0
   49.5122   10.1434   20.6433 H   0  0  0  0  0  0  0  0  0  0  0  0
   48.0891    9.0836   20.5934 H   0  0  0  0  0  0  0  0  0  0  0  0
   50.8971    5.3097   20.8620 H   0  0  0  0  0  0  0  0  0  0  0  0
   51.6708    6.2082   19.4938 H   0  0  0  0  0  0  0  0  0  0  0  0
   47.5299    7.1202   19.7656 H   0  0  0  0  0  0  0  0  0  0  0  0
   48.0009    5.6452   20.6618 H   0  0  0  0  0  0  0  0  0  0  0  0
   47.0903    4.9275   18.5382 H   0  0  0  0  0  0  0  0  0  0  0  0
   48.0615    6.1455   17.6220 H   0  0  0  0  0  0  0  0  0  0  0  0
  1  2  2  0
  2  3  1  0
  3  4  2  0
  4  5  1  0
  5  6  2  0
  1  6  1  0
  7  8  1  0
  8  9  1  0
  5  7  1  0
 10 11  1  0
 11 12  2  0
  8 10  1  0
 13 14  1  0
 11 13  1  0
 15 16  1  0
 16 17  1  0
 17 18  1  0
 14 18  1  0
 13 15  1  0
 19 20  2  0
 20 21  1  0
 17 19  1  0
 18 21  2  0
  1 22  1  0
  2 23  1  0
  4 24  1  0
 19 25  1  0
 25 26  1  0
 25 27  1  0
 25 28  1  0
  3 29  1  0
  6 30  1  0
  7 31  1  0
  7 32  1  0
  8 33  1  6
  9 34  1  0
  9 35  1  0
 10 36  1  0
 10 37  1  0
 14 38  1  0
 14 39  1  0
 15 40  1  0
 15 41  1  0
 16 42  1  0
 16 43  1  0
M  END
> <Uni-Dock RESULT> 
ENERGY=   -3.677  LOWER_BOUND=    5.573  UPPER_BOUND=    7.985
INTER + INTRA:          -3.677
INTER:                  -3.677
INTRA:                   0.000
UNBOUND:                 0.000

$$$$
