
     RDKit          3D

 43 45  0  0  0  0  0  0  0  0999 V2000
   50.3161    4.9976   21.2080 C   0  0  0  0  0  0  0  0  0  0  0  0
   51.6691    4.7802   20.9324 C   0  0  0  0  0  0  0  0  0  0  0  0
   52.0728    4.4447   19.6375 C   0  0  0  0  0  0  0  0  0  0  0  0
   51.1275    4.3272   18.6132 C   0  0  0  0  0  0  0  0  0  0  0  0
   49.7625    4.5492   18.8809 C   0  0  0  0  0  0  0  0  0  0  0  0
   49.3667    4.8816   20.1883 C   0  0  0  0  0  0  0  0  0  0  0  0
   48.7272    4.4438   17.7835 C   0  0  0  0  0  0  0  0  0  0  0  0
   48.4007    5.7930   17.1081 C   0  0  1  0  0  0  0  0  0  0  0  0
   47.8302    6.7295   18.0831 N   0  0  0  0  0  0  0  0  0  0  0  0
   49.6278    6.3959   16.3838 C   0  0  0  0  0  0  0  0  0  0  0  0
   49.2563    7.6035   15.5612 C   0  0  0  0  0  0  0  0  0  0  0  0
   49.7476    8.7188   15.8877 O   0  0  0  0  0  0  0  0  0  0  0  0
   48.3243    7.5310   14.4580 N   0  0  0  0  0  0  0  0  0  0  0  0
   47.7136    8.7843   13.9762 C   0  0  0  0  0  0  0  0  0  0  0  0
   48.2160    6.3210   13.6168 C   0  0  0  0  0  0  0  0  0  0  0  0
   46.7481    6.0289   13.2774 C   0  0  0  0  0  0  0  0  0  0  0  0
   46.0816    7.2614   12.8709 N   0  0  0  0  0  0  0  0  0  0  0  0
   46.4582    8.4993   13.2151 C   0  0  0  0  0  0  0  0  0  0  0  0
   44.9157    7.4532   12.2260 C   0  0  0  0  0  0  0  0  0  0  0  0
   44.6166    8.7676   12.1515 N   0  0  0  0  0  0  0  0  0  0  0  0
   45.5877    9.4261   12.7728 N   0  0  0  0  0  0  0  0  0  0  0  0
   49.9222    5.3220   22.4643 F   0  0  0  0  0  0  0  0  0  0  0  0
   52.5912    4.8926   21.9203 F   0  0  0  0  0  0  0  0  0  0  0  0
   51.5448    3.9951   17.3653 F   0  0  0  0  0  0  0  0  0  0  0  0
   44.0588    6.3643   11.6565 C   0  0  0  0  0  0  0  0  0  0  0  0
   43.7480    5.4500   12.6458 F   0  0  0  0  0  0  0  0  0  0  0  0
   44.7402    5.7245   10.6384 F   0  0  0  0  0  0  0  0  0  0  0  0
   42.8861    6.8951   11.1504 F   0  0  0  0  0  0  0  0  0  0  0  0
   53.1208    4.2744   19.4266 H   0  0  0  0  0  0  0  0  0  0  0  0
   48.3218    5.0537   20.4159 H   0  0  0  0  0  0  0  0  0  0  0  0
   49.0636    3.7192   17.0100 H   0  0  0  0  0  0  0  0  0  0  0  0
   47.7894    4.0208   18.2063 H   0  0  0  0  0  0  0  0  0  0  0  0
   47.6195    5.5727   16.3477 H   0  0  0  0  0  0  0  0  0  0  0  0
   48.5955    7.1578   18.6530 H   0  0  0  0  0  0  0  0  0  0  0  0
   47.3589    7.5076   17.5670 H   0  0  0  0  0  0  0  0  0  0  0  0
   50.1109    5.6380   15.7338 H   0  0  0  0  0  0  0  0  0  0  0  0
   50.3929    6.6905   17.1352 H   0  0  0  0  0  0  0  0  0  0  0  0
   48.4308    9.3166   13.3162 H   0  0  0  0  0  0  0  0  0  0  0  0
   47.4556    9.4392   14.8366 H   0  0  0  0  0  0  0  0  0  0  0  0
   48.7836    6.4869   12.6758 H   0  0  0  0  0  0  0  0  0  0  0  0
   48.6401    5.4246   14.1078 H   0  0  0  0  0  0  0  0  0  0  0  0
   46.6986    5.2788   12.4595 H   0  0  0  0  0  0  0  0  0  0  0  0
   46.2347    5.6178   14.1729 H   0  0  0  0  0  0  0  0  0  0  0  0
  1  2  2  0
  2  3  1  0
  3  4  2  0
  4  5  1  0
  5  6  2  0
  1  6  1  0
  7  8  1  0
  8  9  1  0
  5  7  1  0
 10 11  1  0
 11 12  2  0
  8 10  1  0
 13 14  1  0
 11 13  1  0
 15 16  1  0
 16 17  1  0
 17 18  1  0
 14 18  1  0
 13 15  1  0
 19 20  2  0
 20 21  1  0
 17 19  1  0
 18 21  2  0
  1 22  1  0
  2 23  1  0
  4 24  1  0
 19 25  1  0
 25 26  1  0
 25 27  1  0
 25 28  1  0
  3 29  1  0
  6 30  1  0
  7 31  1  0
  7 32  1  0
  8 33  1  6
  9 34  1  0
  9 35  1  0
 10 36  1  0
 10 37  1  0
 14 38  1  0
 14 39  1  0
 15 40  1  0
 15 41  1  0
 16 42  1  0
 16 43  1  0
M  END
> <Uni-Dock RESULT> 
ENERGY=   -4.616  LOWER_BOUND=    0.000  UPPER_BOUND=    0.000
INTER + INTRA:          -4.616
INTER:                  -4.616
INTRA:                   0.000
UNBOUND:                 0.000

$$$$

     RDKit          3D

 43 45  0  0  0  0  0  0  0  0999 V2000
   46.3435    8.6588   13.0001 C   0  0  0  0  0  0  0  0  0  0  0  0
   45.6083    7.6418   12.3847 C   0  0  0  0  0  0  0  0  0  0  0  0
   46.0030    6.3093   12.5294 C   0  0  0  0  0  0  0  0  0  0  0  0
   47.1315    5.9876   13.2906 C   0  0  0  0  0  0  0  0  0  0  0  0
   47.8756    7.0058   13.9182 C   0  0  0  0  0  0  0  0  0  0  0  0
   47.4725    8.3435   13.7621 C   0  0  0  0  0  0  0  0  0  0  0  0
   49.0888    6.6771   14.7594 C   0  0  0  0  0  0  0  0  0  0  0  0
   48.7780    6.5309   16.2644 C   0  0  1  0  0  0  0  0  0  0  0  0
   48.2674    7.7947   16.8075 N   0  0  0  0  0  0  0  0  0  0  0  0
   47.8161    5.3533   16.5506 C   0  0  0  0  0  0  0  0  0  0  0  0
   47.6763    5.0896   18.0284 C   0  0  0  0  0  0  0  0  0  0  0  0
   46.5441    5.2610   18.5580 O   0  0  0  0  0  0  0  0  0  0  0  0
   48.7984    4.7037   18.8549 N   0  0  0  0  0  0  0  0  0  0  0  0
   48.6749    4.8584   20.3167 C   0  0  0  0  0  0  0  0  0  0  0  0
   49.9057    3.8843   18.3201 C   0  0  0  0  0  0  0  0  0  0  0  0
   51.2544    4.3833   18.8560 C   0  0  0  0  0  0  0  0  0  0  0  0
   51.1549    4.6269   20.2911 N   0  0  0  0  0  0  0  0  0  0  0  0
   50.0255    4.8969   20.9577 C   0  0  0  0  0  0  0  0  0  0  0  0
   52.1163    4.7873   21.2194 C   0  0  0  0  0  0  0  0  0  0  0  0
   51.5814    5.1082   22.4168 N   0  0  0  0  0  0  0  0  0  0  0  0
   50.2657    5.1760   22.2526 N   0  0  0  0  0  0  0  0  0  0  0  0
   45.9629    9.9527   12.8597 F   0  0  0  0  0  0  0  0  0  0  0  0
   44.5129    7.9460   11.6455 F   0  0  0  0  0  0  0  0  0  0  0  0
   47.4968    4.6862   13.4113 F   0  0  0  0  0  0  0  0  0  0  0  0
   53.5852    4.6276   20.9725 C   0  0  0  0  0  0  0  0  0  0  0  0
   53.9770    5.4565   19.9378 F   0  0  0  0  0  0  0  0  0  0  0  0
   53.8576    3.3149   20.6367 F   0  0  0  0  0  0  0  0  0  0  0  0
   54.2993    4.9597   22.1096 F   0  0  0  0  0  0  0  0  0  0  0  0
   45.4336    5.5232   12.0501 H   0  0  0  0  0  0  0  0  0  0  0  0
   48.0323    9.1416   14.2341 H   0  0  0  0  0  0  0  0  0  0  0  0
   49.5661    5.7426   14.3916 H   0  0  0  0  0  0  0  0  0  0  0  0
   49.8506    7.4770   14.6289 H   0  0  0  0  0  0  0  0  0  0  0  0
   49.7512    6.3150   16.7576 H   0  0  0  0  0  0  0  0  0  0  0  0
   47.2540    7.8986   16.5705 H   0  0  0  0  0  0  0  0  0  0  0  0
   48.3377    7.7660   17.8506 H   0  0  0  0  0  0  0  0  0  0  0  0
   48.1620    4.4314   16.0399 H   0  0  0  0  0  0  0  0  0  0  0  0
   46.8139    5.5829   16.1270 H   0  0  0  0  0  0  0  0  0  0  0  0
   48.0951    4.0070   20.7319 H   0  0  0  0  0  0  0  0  0  0  0  0
   48.1501    5.8082   20.5576 H   0  0  0  0  0  0  0  0  0  0  0  0
   49.7544    2.8289   18.6342 H   0  0  0  0  0  0  0  0  0  0  0  0
   49.9482    3.8998   17.2145 H   0  0  0  0  0  0  0  0  0  0  0  0
   52.0392    3.6246   18.6497 H   0  0  0  0  0  0  0  0  0  0  0  0
   51.5288    5.3315   18.3458 H   0  0  0  0  0  0  0  0  0  0  0  0
  1  2  2  0
  2  3  1  0
  3  4  2  0
  4  5  1  0
  5  6  2  0
  1  6  1  0
  7  8  1  0
  8  9  1  0
  5  7  1  0
 10 11  1  0
 11 12  2  0
  8 10  1  0
 13 14  1  0
 11 13  1  0
 15 16  1  0
 16 17  1  0
 17 18  1  0
 14 18  1  0
 13 15  1  0
 19 20  2  0
 20 21  1  0
 17 19  1  0
 18 21  2  0
  1 22  1  0
  2 23  1  0
  4 24  1  0
 19 25  1  0
 25 26  1  0
 25 27  1  0
 25 28  1  0
  3 29  1  0
  6 30  1  0
  7 31  1  0
  7 32  1  0
  8 33  1  6
  9 34  1  0
  9 35  1  0
 10 36  1  0
 10 37  1  0
 14 38  1  0
 14 39  1  0
 15 40  1  0
 15 41  1  0
 16 42  1  0
 16 43  1  0
M  END
> <Uni-Dock RESULT> 
ENERGY=   -4.344  LOWER_BOUND=    2.601  UPPER_BOUND=    9.284
INTER + INTRA:          -4.344
INTER:                  -4.344
INTRA:                   0.000
UNBOUND:                 0.000

$$$$

     RDKit          3D

 43 45  0  0  0  0  0  0  0  0999 V2000
   49.1835    7.6824   16.8836 C   0  0  0  0  0  0  0  0  0  0  0  0
   48.5080    8.8909   17.0759 C   0  0  0  0  0  0  0  0  0  0  0  0
   47.8909    9.5255   15.9948 C   0  0  0  0  0  0  0  0  0  0  0  0
   47.9442    8.9547   14.7189 C   0  0  0  0  0  0  0  0  0  0  0  0
   48.6188    7.7347   14.5170 C   0  0  0  0  0  0  0  0  0  0  0  0
   49.2403    7.1070   15.6107 C   0  0  0  0  0  0  0  0  0  0  0  0
   48.6732    7.0929   13.1486 C   0  0  0  0  0  0  0  0  0  0  0  0
   47.5576    6.0535   12.9070 C   0  0  1  0  0  0  0  0  0  0  0  0
   47.6793    4.9411   13.8560 N   0  0  0  0  0  0  0  0  0  0  0  0
   46.1478    6.6897   12.9466 C   0  0  0  0  0  0  0  0  0  0  0  0
   45.0809    5.7168   12.5127 C   0  0  0  0  0  0  0  0  0  0  0  0
   44.2119    5.3713   13.3596 O   0  0  0  0  0  0  0  0  0  0  0  0
   45.0566    5.1350   11.1891 N   0  0  0  0  0  0  0  0  0  0  0  0
   44.2499    3.9186   10.9756 C   0  0  0  0  0  0  0  0  0  0  0  0
   45.5398    5.8811   10.0086 C   0  0  0  0  0  0  0  0  0  0  0  0
   46.3240    4.9554    9.0686 C   0  0  0  0  0  0  0  0  0  0  0  0
   45.5977    3.7024    8.8920 N   0  0  0  0  0  0  0  0  0  0  0  0
   44.7102    3.1897    9.7536 C   0  0  0  0  0  0  0  0  0  0  0  0
   45.7364    2.7344    7.9671 C   0  0  0  0  0  0  0  0  0  0  0  0
   44.9311    1.6862    8.2419 N   0  0  0  0  0  0  0  0  0  0  0  0
   44.2844    1.9730    9.3653 N   0  0  0  0  0  0  0  0  0  0  0  0
   49.7842    7.0656   17.9313 F   0  0  0  0  0  0  0  0  0  0  0  0
   48.4517    9.4499   18.3100 F   0  0  0  0  0  0  0  0  0  0  0  0
   47.3412    9.5937   13.6846 F   0  0  0  0  0  0  0  0  0  0  0  0
   46.6521    2.8010    6.7834 C   0  0  0  0  0  0  0  0  0  0  0  0
   47.9448    3.0471    7.2071 F   0  0  0  0  0  0  0  0  0  0  0  0
   46.2446    3.8174    5.9401 F   0  0  0  0  0  0  0  0  0  0  0  0
   46.6261    1.6034    6.0917 F   0  0  0  0  0  0  0  0  0  0  0  0
   47.3702   10.4625   16.1453 H   0  0  0  0  0  0  0  0  0  0  0  0
   49.7664    6.1699   15.4764 H   0  0  0  0  0  0  0  0  0  0  0  0
   48.6231    7.8739   12.3587 H   0  0  0  0  0  0  0  0  0  0  0  0
   49.6589    6.5944   13.0186 H   0  0  0  0  0  0  0  0  0  0  0  0
   47.7311    5.6516   11.8846 H   0  0  0  0  0  0  0  0  0  0  0  0
   47.2732    5.2169   14.7795 H   0  0  0  0  0  0  0  0  0  0  0  0
   47.1171    4.1333   13.5020 H   0  0  0  0  0  0  0  0  0  0  0  0
   46.1078    7.5946   12.3064 H   0  0  0  0  0  0  0  0  0  0  0  0
   45.9260    7.0335   13.9806 H   0  0  0  0  0  0  0  0  0  0  0  0
   43.1818    4.1983   10.8563 H   0  0  0  0  0  0  0  0  0  0  0  0
   44.3521    3.2346   11.8458 H   0  0  0  0  0  0  0  0  0  0  0  0
   44.6643    6.2983    9.4657 H   0  0  0  0  0  0  0  0  0  0  0  0
   46.1963    6.7285   10.2829 H   0  0  0  0  0  0  0  0  0  0  0  0
   46.4664    5.4572    8.0878 H   0  0  0  0  0  0  0  0  0  0  0  0
   47.3207    4.7376    9.5085 H   0  0  0  0  0  0  0  0  0  0  0  0
  1  2  2  0
  2  3  1  0
  3  4  2  0
  4  5  1  0
  5  6  2  0
  1  6  1  0
  7  8  1  0
  8  9  1  0
  5  7  1  0
 10 11  1  0
 11 12  2  0
  8 10  1  0
 13 14  1  0
 11 13  1  0
 15 16  1  0
 16 17  1  0
 17 18  1  0
 14 18  1  0
 13 15  1  0
 19 20  2  0
 20 21  1  0
 17 19  1  0
 18 21  2  0
  1 22  1  0
  2 23  1  0
  4 24  1  0
 19 25  1  0
 25 26  1  0
 25 27  1  0
 25 28  1  0
  3 29  1  0
  6 30  1  0
  7 31  1  0
  7 32  1  0
  8 33  1  6
  9 34  1  0
  9 35  1  0
 10 36  1  0
 10 37  1  0
 14 38  1  0
 14 39  1  0
 15 40  1  0
 15 41  1  0
 16 42  1  0
 16 43  1  0
M  END
> <Uni-Dock RESULT> 
ENERGY=   -4.252  LOWER_BOUND=    4.224  UPPER_BOUND=    6.230
INTER + INTRA:          -4.252
INTER:                  -4.252
INTRA:                   0.000
UNBOUND:                 0.000

$$$$

     RDKit          3D

 43 45  0  0  0  0  0  0  0  0999 V2000
   49.9764    5.7286   21.4505 C   0  0  0  0  0  0  0  0  0  0  0  0
   51.2586    5.2334   21.1965 C   0  0  0  0  0  0  0  0  0  0  0  0
   51.4954    4.4601   20.0571 C   0  0  0  0  0  0  0  0  0  0  0  0
   50.4536    4.1805   19.1666 C   0  0  0  0  0  0  0  0  0  0  0  0
   49.1594    4.6793   19.4123 C   0  0  0  0  0  0  0  0  0  0  0  0
   48.9311    5.4524   20.5641 C   0  0  0  0  0  0  0  0  0  0  0  0
   48.0236    4.4024   18.4528 C   0  0  0  0  0  0  0  0  0  0  0  0
   47.8161    5.5133   17.4011 C   0  0  1  0  0  0  0  0  0  0  0  0
   47.4641    6.7788   18.0550 N   0  0  0  0  0  0  0  0  0  0  0  0
   49.0405    5.6708   16.4683 C   0  0  0  0  0  0  0  0  0  0  0  0
   48.7566    6.6104   15.3239 C   0  0  0  0  0  0  0  0  0  0  0  0
   49.4171    7.6833   15.2584 O   0  0  0  0  0  0  0  0  0  0  0  0
   47.7266    6.3468   14.3438 N   0  0  0  0  0  0  0  0  0  0  0  0
   47.2436    7.4702   13.5190 C   0  0  0  0  0  0  0  0  0  0  0  0
   47.3850    4.9687   13.9342 C   0  0  0  0  0  0  0  0  0  0  0  0
   45.8667    4.8144   13.7718 C   0  0  0  0  0  0  0  0  0  0  0  0
   45.3328    5.9498   13.0272 N   0  0  0  0  0  0  0  0  0  0  0  0
   45.8977    7.1610   12.9449 C   0  0  0  0  0  0  0  0  0  0  0  0
   44.1482    6.1106   12.4086 C   0  0  0  0  0  0  0  0  0  0  0  0
   44.0179    7.3686   11.9361 N   0  0  0  0  0  0  0  0  0  0  0  0
   45.1192    8.0293   12.2724 N   0  0  0  0  0  0  0  0  0  0  0  0
   49.7443    6.4782   22.5564 F   0  0  0  0  0  0  0  0  0  0  0  0
   52.2736    5.5008   22.0551 F   0  0  0  0  0  0  0  0  0  0  0  0
   50.7086    3.4227   18.0700 F   0  0  0  0  0  0  0  0  0  0  0  0
   43.1081    5.0439   12.2522 C   0  0  0  0  0  0  0  0  0  0  0  0
   42.7718    4.5350   13.4928 F   0  0  0  0  0  0  0  0  0  0  0  0
   43.6044    4.0269   11.4586 F   0  0  0  0  0  0  0  0  0  0  0  0
   41.9736    5.5667   11.6582 F   0  0  0  0  0  0  0  0  0  0  0  0
   52.4886    4.0756   19.8633 H   0  0  0  0  0  0  0  0  0  0  0  0
   47.9428    5.8432   20.7730 H   0  0  0  0  0  0  0  0  0  0  0  0
   48.1906    3.4333   17.9336 H   0  0  0  0  0  0  0  0  0  0  0  0
   47.0810    4.2774   19.0299 H   0  0  0  0  0  0  0  0  0  0  0  0
   46.9469    5.1927   16.7858 H   0  0  0  0  0  0  0  0  0  0  0  0
   48.3274    7.2389   18.4248 H   0  0  0  0  0  0  0  0  0  0  0  0
   47.0536    7.4239   17.3414 H   0  0  0  0  0  0  0  0  0  0  0  0
   49.3592    4.6859   16.0700 H   0  0  0  0  0  0  0  0  0  0  0  0
   49.9027    6.0608   17.0523 H   0  0  0  0  0  0  0  0  0  0  0  0
   47.9612    7.6588   12.6925 H   0  0  0  0  0  0  0  0  0  0  0  0
   47.1529    8.3884   14.1389 H   0  0  0  0  0  0  0  0  0  0  0  0
   47.8814    4.7499   12.9642 H   0  0  0  0  0  0  0  0  0  0  0  0
   47.7312    4.2120   14.6636 H   0  0  0  0  0  0  0  0  0  0  0  0
   45.6454    3.8667   13.2361 H   0  0  0  0  0  0  0  0  0  0  0  0
   45.3877    4.7807   14.7737 H   0  0  0  0  0  0  0  0  0  0  0  0
  1  2  2  0
  2  3  1  0
  3  4  2  0
  4  5  1  0
  5  6  2  0
  1  6  1  0
  7  8  1  0
  8  9  1  0
  5  7  1  0
 10 11  1  0
 11 12  2  0
  8 10  1  0
 13 14  1  0
 11 13  1  0
 15 16  1  0
 16 17  1  0
 17 18  1  0
 14 18  1  0
 13 15  1  0
 19 20  2  0
 20 21  1  0
 17 19  1  0
 18 21  2  0
  1 22  1  0
  2 23  1  0
  4 24  1  0
 19 25  1  0
 25 26  1  0
 25 27  1  0
 25 28  1  0
  3 29  1  0
  6 30  1  0
  7 31  1  0
  7 32  1  0
  8 33  1  6
  9 34  1  0
  9 35  1  0
 10 36  1  0
 10 37  1  0
 14 38  1  0
 14 39  1  0
 15 40  1  0
 15 41  1  0
 16 42  1  0
 16 43  1  0
M  END
> <Uni-Dock RESULT> 
ENERGY=   -4.251  LOWER_BOUND=    1.194  UPPER_BOUND=    1.288
INTER + INTRA:          -4.251
INTER:                  -4.251
INTRA:                   0.000
UNBOUND:                 0.000

$$$$

     RDKit          3D

 43 45  0  0  0  0  0  0  0  0999 V2000
   52.5760    2.6545   18.2027 C   0  0  0  0  0  0  0  0  0  0  0  0
   51.7800    1.7211   17.5329 C   0  0  0  0  0  0  0  0  0  0  0  0
   50.4536    2.0306   17.2209 C   0  0  0  0  0  0  0  0  0  0  0  0
   49.9184    3.2736   17.5746 C   0  0  0  0  0  0  0  0  0  0  0  0
   50.7149    4.2220   18.2456 C   0  0  0  0  0  0  0  0  0  0  0  0
   52.0466    3.8985   18.5589 C   0  0  0  0  0  0  0  0  0  0  0  0
   50.1599    5.5778   18.6213 C   0  0  0  0  0  0  0  0  0  0  0  0
   50.4438    6.6756   17.5737 C   0  0  1  0  0  0  0  0  0  0  0  0
   51.8890    6.8817   17.4262 N   0  0  0  0  0  0  0  0  0  0  0  0
   49.7654    6.3766   16.2156 C   0  0  0  0  0  0  0  0  0  0  0  0
   49.8763    7.5413   15.2647 C   0  0  0  0  0  0  0  0  0  0  0  0
   50.5399    7.3808   14.2037 O   0  0  0  0  0  0  0  0  0  0  0  0
   49.2981    8.8345   15.5548 N   0  0  0  0  0  0  0  0  0  0  0  0
   49.7821   10.0022   14.7945 C   0  0  0  0  0  0  0  0  0  0  0  0
   48.0504    8.9650   16.3357 C   0  0  0  0  0  0  0  0  0  0  0  0
   48.1412   10.1521   17.3042 C   0  0  0  0  0  0  0  0  0  0  0  0
   48.6925   11.3119   16.6117 N   0  0  0  0  0  0  0  0  0  0  0  0
   49.4731   11.2703   15.5247 C   0  0  0  0  0  0  0  0  0  0  0  0
   48.6906   12.6147   16.9502 C   0  0  0  0  0  0  0  0  0  0  0  0
   49.4170   13.3413   16.0744 N   0  0  0  0  0  0  0  0  0  0  0  0
   49.9085   12.4958   15.1766 N   0  0  0  0  0  0  0  0  0  0  0  0
   53.8631    2.3555   18.5076 F   0  0  0  0  0  0  0  0  0  0  0  0
   52.2921    0.5142   17.1865 F   0  0  0  0  0  0  0  0  0  0  0  0
   48.6259    3.5476   17.2646 F   0  0  0  0  0  0  0  0  0  0  0  0
   47.9771   13.1948   18.1329 C   0  0  0  0  0  0  0  0  0  0  0  0
   48.3844   12.5497   19.2857 F   0  0  0  0  0  0  0  0  0  0  0  0
   46.6135   13.0340   17.9748 F   0  0  0  0  0  0  0  0  0  0  0  0
   48.2618   14.5434   18.2479 F   0  0  0  0  0  0  0  0  0  0  0  0
   49.8380    1.3054   16.7041 H   0  0  0  0  0  0  0  0  0  0  0  0
   52.6751    4.6125   19.0769 H   0  0  0  0  0  0  0  0  0  0  0  0
   49.0630    5.5075   18.7899 H   0  0  0  0  0  0  0  0  0  0  0  0
   50.5956    5.8931   19.5949 H   0  0  0  0  0  0  0  0  0  0  0  0
   50.0050    7.6110   17.9851 H   0  0  0  0  0  0  0  0  0  0  0  0
   52.2922    6.1383   16.8108 H   0  0  0  0  0  0  0  0  0  0  0  0
   52.0516    7.7978   16.9485 H   0  0  0  0  0  0  0  0  0  0  0  0
   48.6972    6.1154   16.3600 H   0  0  0  0  0  0  0  0  0  0  0  0
   50.2412    5.4843   15.7530 H   0  0  0  0  0  0  0  0  0  0  0  0
   49.2936   10.0239   13.7974 H   0  0  0  0  0  0  0  0  0  0  0  0
   50.8836    9.9404   14.6591 H   0  0  0  0  0  0  0  0  0  0  0  0
   47.2041    9.1283   15.6341 H   0  0  0  0  0  0  0  0  0  0  0  0
   47.8233    8.0568   16.9257 H   0  0  0  0  0  0  0  0  0  0  0  0
   47.1297   10.3866   17.6992 H   0  0  0  0  0  0  0  0  0  0  0  0
   48.8061    9.8878   18.1542 H   0  0  0  0  0  0  0  0  0  0  0  0
  1  2  2  0
  2  3  1  0
  3  4  2  0
  4  5  1  0
  5  6  2  0
  1  6  1  0
  7  8  1  0
  8  9  1  0
  5  7  1  0
 10 11  1  0
 11 12  2  0
  8 10  1  0
 13 14  1  0
 11 13  1  0
 15 16  1  0
 16 17  1  0
 17 18  1  0
 14 18  1  0
 13 15  1  0
 19 20  2  0
 20 21  1  0
 17 19  1  0
 18 21  2  0
  1 22  1  0
  2 23  1  0
  4 24  1  0
 19 25  1  0
 25 26  1  0
 25 27  1  0
 25 28  1  0
  3 29  1  0
  6 30  1  0
  7 31  1  0
  7 32  1  0
  8 33  1  6
  9 34  1  0
  9 35  1  0
 10 36  1  0
 10 37  1  0
 14 38  1  0
 14 39  1  0
 15 40  1  0
 15 41  1  0
 16 42  1  0
 16 43  1  0
M  END
> <Uni-Dock RESULT> 
ENERGY=   -4.106  LOWER_BOUND=    4.331  UPPER_BOUND=    5.785
INTER + INTRA:          -4.106
INTER:                  -4.106
INTRA:                   0.000
UNBOUND:                 0.000

$$$$

     RDKit          3D

 43 45  0  0  0  0  0  0  0  0999 V2000
   43.7198    3.4405   11.2995 C   0  0  0  0  0  0  0  0  0  0  0  0
   44.3442    2.8791   10.1821 C   0  0  0  0  0  0  0  0  0  0  0  0
   45.1334    3.6763    9.3492 C   0  0  0  0  0  0  0  0  0  0  0  0
   45.3037    5.0359    9.6302 C   0  0  0  0  0  0  0  0  0  0  0  0
   44.6820    5.6090   10.7568 C   0  0  0  0  0  0  0  0  0  0  0  0
   43.8863    4.7989   11.5855 C   0  0  0  0  0  0  0  0  0  0  0  0
   44.8677    7.0732   11.0872 C   0  0  0  0  0  0  0  0  0  0  0  0
   46.0151    7.3427   12.0842 C   0  0  1  0  0  0  0  0  0  0  0  0
   45.7398    6.6925   13.3705 N   0  0  0  0  0  0  0  0  0  0  0  0
   47.3929    6.9281   11.5152 C   0  0  0  0  0  0  0  0  0  0  0  0
   48.5249    7.3763   12.4044 C   0  0  0  0  0  0  0  0  0  0  0  0
   49.2379    6.4902   12.9507 O   0  0  0  0  0  0  0  0  0  0  0  0
   48.7800    8.7710   12.6884 N   0  0  0  0  0  0  0  0  0  0  0  0
   49.6195    9.1041   13.8546 C   0  0  0  0  0  0  0  0  0  0  0  0
   48.5017    9.8255   11.6913 C   0  0  0  0  0  0  0  0  0  0  0  0
   47.8967   11.0628   12.3684 C   0  0  0  0  0  0  0  0  0  0  0  0
   48.6509   11.3820   13.5759 N   0  0  0  0  0  0  0  0  0  0  0  0
   49.3807   10.5151   14.2890 C   0  0  0  0  0  0  0  0  0  0  0  0
   48.6796   12.5049   14.3175 C   0  0  0  0  0  0  0  0  0  0  0  0
   49.4327   12.3323   15.4247 N   0  0  0  0  0  0  0  0  0  0  0  0
   49.8750   11.0807   15.4063 N   0  0  0  0  0  0  0  0  0  0  0  0
   42.9523    2.6688   12.1084 F   0  0  0  0  0  0  0  0  0  0  0  0
   44.1840    1.5617    9.9036 F   0  0  0  0  0  0  0  0  0  0  0  0
   46.0711    5.7895    8.8026 F   0  0  0  0  0  0  0  0  0  0  0  0
   47.9802   13.7832   13.9697 C   0  0  0  0  0  0  0  0  0  0  0  0
   46.6323   13.5409   13.7807 F   0  0  0  0  0  0  0  0  0  0  0  0
   48.5196   14.3043   12.8087 F   0  0  0  0  0  0  0  0  0  0  0  0
   48.1326   14.7039   14.9906 F   0  0  0  0  0  0  0  0  0  0  0  0
   45.6143    3.2400    8.4829 H   0  0  0  0  0  0  0  0  0  0  0  0
   43.3972    5.2205   12.4552 H   0  0  0  0  0  0  0  0  0  0  0  0
   45.0474    7.6544   10.1565 H   0  0  0  0  0  0  0  0  0  0  0  0
   43.9223    7.4731   11.5154 H   0  0  0  0  0  0  0  0  0  0  0  0
   46.0225    8.4422   12.2513 H   0  0  0  0  0  0  0  0  0  0  0  0
   45.9794    5.6761   13.3124 H   0  0  0  0  0  0  0  0  0  0  0  0
   46.3598    7.1132   14.1001 H   0  0  0  0  0  0  0  0  0  0  0  0
   47.5361    7.3402   10.4954 H   0  0  0  0  0  0  0  0  0  0  0  0
   47.4316    5.8218   11.4090 H   0  0  0  0  0  0  0  0  0  0  0  0
   50.6904    8.9776   13.5889 H   0  0  0  0  0  0  0  0  0  0  0  0
   49.3740    8.4334   14.7064 H   0  0  0  0  0  0  0  0  0  0  0  0
   49.4545   10.1089   11.1942 H   0  0  0  0  0  0  0  0  0  0  0  0
   47.8022    9.4887   10.9028 H   0  0  0  0  0  0  0  0  0  0  0  0
   47.9214   11.9208   11.6632 H   0  0  0  0  0  0  0  0  0  0  0  0
   46.8408   10.8557   12.6449 H   0  0  0  0  0  0  0  0  0  0  0  0
  1  2  2  0
  2  3  1  0
  3  4  2  0
  4  5  1  0
  5  6  2  0
  1  6  1  0
  7  8  1  0
  8  9  1  0
  5  7  1  0
 10 11  1  0
 11 12  2  0
  8 10  1  0
 13 14  1  0
 11 13  1  0
 15 16  1  0
 16 17  1  0
 17 18  1  0
 14 18  1  0
 13 15  1  0
 19 20  2  0
 20 21  1  0
 17 19  1  0
 18 21  2  0
  1 22  1  0
  2 23  1  0
  4 24  1  0
 19 25  1  0
 25 26  1  0
 25 27  1  0
 25 28  1  0
  3 29  1  0
  6 30  1  0
  7 31  1  0
  7 32  1  0
  8 33  1  6
  9 34  1  0
  9 35  1  0
 10 36  1  0
 10 37  1  0
 14 38  1  0
 14 39  1  0
 15 40  1  0
 15 41  1  0
 16 42  1  0
 16 43  1  0
M  END
> <Uni-Dock RESULT> 
ENERGY=   -4.076  LOWER_BOUND=    5.851  UPPER_BOUND=    8.482
INTER + INTRA:          -4.076
INTER:                  -4.076
INTRA:                   0.000
UNBOUND:                 0.000

$$$$

     RDKit          3D

 43 45  0  0  0  0  0  0  0  0999 V2000
   45.0380    7.1438   12.3911 C   0  0  0  0  0  0  0  0  0  0  0  0
   44.0720    6.1438   12.2480 C   0  0  0  0  0  0  0  0  0  0  0  0
   44.3758    4.8248   12.5949 C   0  0  0  0  0  0  0  0  0  0  0  0
   45.6441    4.5003   13.0877 C   0  0  0  0  0  0  0  0  0  0  0  0
   46.6221    5.5027   13.2395 C   0  0  0  0  0  0  0  0  0  0  0  0
   46.3074    6.8256   12.8830 C   0  0  0  0  0  0  0  0  0  0  0  0
   47.9935    5.1751   13.7866 C   0  0  0  0  0  0  0  0  0  0  0  0
   48.1189    5.3849   15.3108 C   0  0  1  0  0  0  0  0  0  0  0  0
   47.8970    6.7941   15.6541 N   0  0  0  0  0  0  0  0  0  0  0  0
   47.1831    4.4460   16.1088 C   0  0  0  0  0  0  0  0  0  0  0  0
   47.4536    4.5113   17.5905 C   0  0  0  0  0  0  0  0  0  0  0  0
   46.5414    4.9527   18.3421 O   0  0  0  0  0  0  0  0  0  0  0  0
   48.7290    4.1388   18.1612 N   0  0  0  0  0  0  0  0  0  0  0  0
   49.0463    4.6033   19.5248 C   0  0  0  0  0  0  0  0  0  0  0  0
   49.5603    3.0729   17.5644 C   0  0  0  0  0  0  0  0  0  0  0  0
   51.0439    3.4643   17.5947 C   0  0  0  0  0  0  0  0  0  0  0  0
   51.3840    4.0059   18.9061 N   0  0  0  0  0  0  0  0  0  0  0  0
   50.5225    4.5701   19.7618 C   0  0  0  0  0  0  0  0  0  0  0  0
   52.5824    4.2068   19.4851 C   0  0  0  0  0  0  0  0  0  0  0  0
   52.4454    4.8396   20.6698 N   0  0  0  0  0  0  0  0  0  0  0  0
   51.1492    5.0672   20.8447 N   0  0  0  0  0  0  0  0  0  0  0  0
   44.7455    8.4243   12.0537 F   0  0  0  0  0  0  0  0  0  0  0  0
   42.8402    6.4509   11.7714 F   0  0  0  0  0  0  0  0  0  0  0  0
   45.9156    3.2110   13.4124 F   0  0  0  0  0  0  0  0  0  0  0  0
   53.8983    3.7841   18.9071 C   0  0  0  0  0  0  0  0  0  0  0  0
   54.0444    4.3183   17.6405 F   0  0  0  0  0  0  0  0  0  0  0  0
   53.9485    2.4049   18.8317 F   0  0  0  0  0  0  0  0  0  0  0  0
   54.9358    4.2301   19.7057 F   0  0  0  0  0  0  0  0  0  0  0  0
   43.6271    4.0513   12.4812 H   0  0  0  0  0  0  0  0  0  0  0  0
   47.0459    7.6108   12.9894 H   0  0  0  0  0  0  0  0  0  0  0  0
   48.2624    4.1251   13.5382 H   0  0  0  0  0  0  0  0  0  0  0  0
   48.7509    5.8097   13.2760 H   0  0  0  0  0  0  0  0  0  0  0  0
   49.1707    5.1315   15.5684 H   0  0  0  0  0  0  0  0  0  0  0  0
   46.8712    6.9971   15.6732 H   0  0  0  0  0  0  0  0  0  0  0  0
   48.2627    6.9675   16.6186 H   0  0  0  0  0  0  0  0  0  0  0  0
   47.2866    3.3988   15.7581 H   0  0  0  0  0  0  0  0  0  0  0  0
   46.1249    4.7311   15.9205 H   0  0  0  0  0  0  0  0  0  0  0  0
   48.5401    3.9496   20.2664 H   0  0  0  0  0  0  0  0  0  0  0  0
   48.6969    5.6494   19.6633 H   0  0  0  0  0  0  0  0  0  0  0  0
   49.4161    2.1376   18.1472 H   0  0  0  0  0  0  0  0  0  0  0  0
   49.2832    2.8573   16.5150 H   0  0  0  0  0  0  0  0  0  0  0  0
   51.6677    2.5717   17.3754 H   0  0  0  0  0  0  0  0  0  0  0  0
   51.2397    4.2378   16.8215 H   0  0  0  0  0  0  0  0  0  0  0  0
  1  2  2  0
  2  3  1  0
  3  4  2  0
  4  5  1  0
  5  6  2  0
  1  6  1  0
  7  8  1  0
  8  9  1  0
  5  7  1  0
 10 11  1  0
 11 12  2  0
  8 10  1  0
 13 14  1  0
 11 13  1  0
 15 16  1  0
 16 17  1  0
 17 18  1  0
 14 18  1  0
 13 15  1  0
 19 20  2  0
 20 21  1  0
 17 19  1  0
 18 21  2  0
  1 22  1  0
  2 23  1  0
  4 24  1  0
 19 25  1  0
 25 26  1  0
 25 27  1  0
 25 28  1  0
  3 29  1  0
  6 30  1  0
  7 31  1  0
  7 32  1  0
  8 33  1  6
  9 34  1  0
  9 35  1  0
 10 36  1  0
 10 37  1  0
 14 38  1  0
 14 39  1  0
 15 40  1  0
 15 41  1  0
 16 42  1  0
 16 43  1  0
M  END
> <Uni-Dock RESULT> 
ENERGY=   -3.884  LOWER_BOUND=    2.626  UPPER_BOUND=    9.183
INTER + INTRA:          -3.884
INTER:                  -3.884
INTRA:                   0.000
UNBOUND:                 0.000

$$$$

     RDKit          3D

 43 45  0  0  0  0  0  0  0  0999 V2000
   49.8572   13.4900   21.8978 C   0  0  0  0  0  0  0  0  0  0  0  0
   49.6944   13.4413   23.2852 C   0  0  0  0  0  0  0  0  0  0  0  0
   49.0127   12.3716   23.8711 C   0  0  0  0  0  0  0  0  0  0  0  0
   48.4933   11.3460   23.0742 C   0  0  0  0  0  0  0  0  0  0  0  0
   48.6568   11.3847   21.6756 C   0  0  0  0  0  0  0  0  0  0  0  0
   49.3402   12.4679   21.0961 C   0  0  0  0  0  0  0  0  0  0  0  0
   48.1174   10.2770   20.7983 C   0  0  0  0  0  0  0  0  0  0  0  0
   49.1522    9.1750   20.4854 C   0  0  1  0  0  0  0  0  0  0  0  0
   50.2868    9.7337   19.7414 N   0  0  0  0  0  0  0  0  0  0  0  0
   49.6137    8.4280   21.7594 C   0  0  0  0  0  0  0  0  0  0  0  0
   50.4644    7.2281   21.4289 C   0  0  0  0  0  0  0  0  0  0  0  0
   51.6673    7.2296   21.8096 O   0  0  0  0  0  0  0  0  0  0  0  0
   49.9642    6.1152   20.6528 N   0  0  0  0  0  0  0  0  0  0  0  0
   50.9415    5.1966   20.0389 C   0  0  0  0  0  0  0  0  0  0  0  0
   48.5480    5.6994   20.7231 C   0  0  0  0  0  0  0  0  0  0  0  0
   48.0267    5.3202   19.3303 C   0  0  0  0  0  0  0  0  0  0  0  0
   49.0025    4.4732   18.6527 N   0  0  0  0  0  0  0  0  0  0  0  0
   50.3160    4.4402   18.9106 C   0  0  0  0  0  0  0  0  0  0  0  0
   48.8725    3.6829   17.5708 C   0  0  0  0  0  0  0  0  0  0  0  0
   50.0639    3.1607   17.2094 N   0  0  0  0  0  0  0  0  0  0  0  0
   50.9721    3.6361   18.0530 N   0  0  0  0  0  0  0  0  0  0  0  0
   50.5174   14.5280   21.3271 F   0  0  0  0  0  0  0  0  0  0  0  0
   50.1957   14.4316   24.0641 F   0  0  0  0  0  0  0  0  0  0  0  0
   47.8308   10.3209   23.6674 F   0  0  0  0  0  0  0  0  0  0  0  0
   47.5843    3.4060   16.8581 C   0  0  0  0  0  0  0  0  0  0  0  0
   46.9979    4.5977   16.4748 F   0  0  0  0  0  0  0  0  0  0  0  0
   46.7273    2.7232   17.7005 F   0  0  0  0  0  0  0  0  0  0  0  0
   47.8174    2.6371   15.7322 F   0  0  0  0  0  0  0  0  0  0  0  0
   48.8857   12.3368   24.9455 H   0  0  0  0  0  0  0  0  0  0  0  0
   49.4744   12.5182   20.0225 H   0  0  0  0  0  0  0  0  0  0  0  0
   47.2236    9.8159   21.2725 H   0  0  0  0  0  0  0  0  0  0  0  0
   47.7598   10.7128   19.8395 H   0  0  0  0  0  0  0  0  0  0  0  0
   48.6331    8.4481   19.8227 H   0  0  0  0  0  0  0  0  0  0  0  0
   50.9418   10.2131   20.4010 H   0  0  0  0  0  0  0  0  0  0  0  0
   50.8173    8.9495   19.2971 H   0  0  0  0  0  0  0  0  0  0  0  0
   48.7407    8.1091   22.3647 H   0  0  0  0  0  0  0  0  0  0  0  0
   50.1986    9.1210   22.4030 H   0  0  0  0  0  0  0  0  0  0  0  0
   51.3076    4.4795   20.8038 H   0  0  0  0  0  0  0  0  0  0  0  0
   51.8039    5.7701   19.6351 H   0  0  0  0  0  0  0  0  0  0  0  0
   48.4661    4.8194   21.3971 H   0  0  0  0  0  0  0  0  0  0  0  0
   47.8934    6.4930   21.1307 H   0  0  0  0  0  0  0  0  0  0  0  0
   47.0583    4.7850   19.4297 H   0  0  0  0  0  0  0  0  0  0  0  0
   47.8678    6.2414   18.7299 H   0  0  0  0  0  0  0  0  0  0  0  0
  1  2  2  0
  2  3  1  0
  3  4  2  0
  4  5  1  0
  5  6  2  0
  1  6  1  0
  7  8  1  0
  8  9  1  0
  5  7  1  0
 10 11  1  0
 11 12  2  0
  8 10  1  0
 13 14  1  0
 11 13  1  0
 15 16  1  0
 16 17  1  0
 17 18  1  0
 14 18  1  0
 13 15  1  0
 19 20  2  0
 20 21  1  0
 17 19  1  0
 18 21  2  0
  1 22  1  0
  2 23  1  0
  4 24  1  0
 19 25  1  0
 25 26  1  0
 25 27  1  0
 25 28  1  0
  3 29  1  0
  6 30  1  0
  7 31  1  0
  7 32  1  0
  8 33  1  6
  9 34  1  0
  9 35  1  0
 10 36  1  0
 10 37  1  0
 14 38  1  0
 14 39  1  0
 15 40  1  0
 15 41  1  0
 16 42  1  0
 16 43  1  0
M  END
> <Uni-Dock RESULT> 
ENERGY=   -3.846  LOWER_BOUND=    5.403  UPPER_BOUND=    7.690
INTER + INTRA:          -3.846
INTER:                  -3.846
INTRA:                   0.000
UNBOUND:                 0.000

$$$$

     RDKit          3D

 43 45  0  0  0  0  0  0  0  0999 V2000
   49.3682   14.1336   18.7310 C   0  0  0  0  0  0  0  0  0  0  0  0
   48.8907   14.5039   19.9914 C   0  0  0  0  0  0  0  0  0  0  0  0
   48.0776   13.6279   20.7150 C   0  0  0  0  0  0  0  0  0  0  0  0
   47.7403   12.3787   20.1837 C   0  0  0  0  0  0  0  0  0  0  0  0
   48.2209   11.9954   18.9163 C   0  0  0  0  0  0  0  0  0  0  0  0
   49.0345   12.8864   18.1947 C   0  0  0  0  0  0  0  0  0  0  0  0
   47.8815   10.6423   18.3320 C   0  0  0  0  0  0  0  0  0  0  0  0
   48.9447    9.5600   18.6172 C   0  0  1  0  0  0  0  0  0  0  0  0
   50.2276    9.9286   18.0078 N   0  0  0  0  0  0  0  0  0  0  0  0
   49.0908    9.2687   20.1297 C   0  0  0  0  0  0  0  0  0  0  0  0
   49.9775    8.0771   20.3884 C   0  0  0  0  0  0  0  0  0  0  0  0
   51.0608    8.2658   21.0069 O   0  0  0  0  0  0  0  0  0  0  0  0
   49.6529    6.7525   19.9079 N   0  0  0  0  0  0  0  0  0  0  0  0
   50.7318    5.7485   19.8450 C   0  0  0  0  0  0  0  0  0  0  0  0
   48.2526    6.2962   19.7878 C   0  0  0  0  0  0  0  0  0  0  0  0
   48.0595    5.4778   18.5039 C   0  0  0  0  0  0  0  0  0  0  0  0
   49.1525    4.5223   18.3596 N   0  0  0  0  0  0  0  0  0  0  0  0
   50.3711    4.6469   18.9001 C   0  0  0  0  0  0  0  0  0  0  0  0
   49.2630    3.4317   17.5782 C   0  0  0  0  0  0  0  0  0  0  0  0
   50.4980    2.8944   17.6724 N   0  0  0  0  0  0  0  0  0  0  0  0
   51.1951    3.6582   18.5050 N   0  0  0  0  0  0  0  0  0  0  0  0
   50.1564   14.9830   18.0265 F   0  0  0  0  0  0  0  0  0  0  0  0
   49.2139   15.7132   20.5129 F   0  0  0  0  0  0  0  0  0  0  0  0
   46.9448   11.5483   20.9044 F   0  0  0  0  0  0  0  0  0  0  0  0
   48.1689    2.8745   16.7200 C   0  0  0  0  0  0  0  0  0  0  0  0
   47.7031    3.8545   15.8634 F   0  0  0  0  0  0  0  0  0  0  0  0
   47.1318    2.4345   17.5207 F   0  0  0  0  0  0  0  0  0  0  0  0
   48.6432    1.8120   15.9720 F   0  0  0  0  0  0  0  0  0  0  0  0
   47.7069   13.9174   21.6899 H   0  0  0  0  0  0  0  0  0  0  0  0
   49.4121   12.6123   17.2173 H   0  0  0  0  0  0  0  0  0  0  0  0
   46.8963   10.2976   18.7152 H   0  0  0  0  0  0  0  0  0  0  0  0
   47.7597   10.7409   17.2308 H   0  0  0  0  0  0  0  0  0  0  0  0
   48.5812    8.6357   18.1167 H   0  0  0  0  0  0  0  0  0  0  0  0
   50.7205   10.6248   18.6130 H   0  0  0  0  0  0  0  0  0  0  0  0
   50.8347    9.0782   17.9603 H   0  0  0  0  0  0  0  0  0  0  0  0
   48.0977    9.1005   20.5943 H   0  0  0  0  0  0  0  0  0  0  0  0
   49.5223   10.1588   20.6378 H   0  0  0  0  0  0  0  0  0  0  0  0
   50.9024    5.3237   20.8569 H   0  0  0  0  0  0  0  0  0  0  0  0
   51.6719    6.2197   19.4848 H   0  0  0  0  0  0  0  0  0  0  0  0
   48.0057    5.6625   20.6669 H   0  0  0  0  0  0  0  0  0  0  0  0
   47.5333    7.1369   19.7709 H   0  0  0  0  0  0  0  0  0  0  0  0
   47.0866    4.9434   18.5475 H   0  0  0  0  0  0  0  0  0  0  0  0
   48.0557    6.1592   17.6263 H   0  0  0  0  0  0  0  0  0  0  0  0
  1  2  2  0
  2  3  1  0
  3  4  2  0
  4  5  1  0
  5  6  2  0
  1  6  1  0
  7  8  1  0
  8  9  1  0
  5  7  1  0
 10 11  1  0
 11 12  2  0
  8 10  1  0
 13 14  1  0
 11 13  1  0
 15 16  1  0
 16 17  1  0
 17 18  1  0
 14 18  1  0
 13 15  1  0
 19 20  2  0
 20 21  1  0
 17 19  1  0
 18 21  2  0
  1 22  1  0
  2 23  1  0
  4 24  1  0
 19 25  1  0
 25 26  1  0
 25 27  1  0
 25 28  1  0
  3 29  1  0
  6 30  1  0
  7 31  1  0
  7 32  1  0
  8 33  1  6
  9 34  1  0
  9 35  1  0
 10 36  1  0
 10 37  1  0
 14 38  1  0
 14 39  1  0
 15 40  1  0
 15 41  1  0
 16 42  1  0
 16 43  1  0
M  END
> <Uni-Dock RESULT> 
ENERGY=   -3.679  LOWER_BOUND=    5.354  UPPER_BOUND=    7.868
INTER + INTRA:          -3.679
INTER:                  -3.679
INTRA:                   0.000
UNBOUND:                 0.000

$$$$
