
     RDKit          3D

 43 45  0  0  0  0  0  0  0  0999 V2000
   47.0557    8.9869   13.1954 C   0  0  0  0  0  0  0  0  0  0  0  0
   48.0466    8.6984   14.1376 C   0  0  0  0  0  0  0  0  0  0  0  0
   48.3813    7.3704   14.4156 C   0  0  0  0  0  0  0  0  0  0  0  0
   47.7244    6.3258   13.7566 C   0  0  0  0  0  0  0  0  0  0  0  0
   46.7233    6.6060   12.8072 C   0  0  0  0  0  0  0  0  0  0  0  0
   46.3946    7.9456   12.5334 C   0  0  0  0  0  0  0  0  0  0  0  0
   45.9802    5.4877   12.1178 C   0  0  0  0  0  0  0  0  0  0  0  0
   44.8485    4.9152   13.0022 C   0  0  1  0  0  0  0  0  0  0  0  0
   43.7761    5.9027   13.1753 N   0  0  0  0  0  0  0  0  0  0  0  0
   44.2874    3.6037   12.4070 C   0  0  0  0  0  0  0  0  0  0  0  0
   43.6711    3.8013   11.0468 C   0  0  0  0  0  0  0  0  0  0  0  0
   42.5795    4.4267   10.9431 O   0  0  0  0  0  0  0  0  0  0  0  0
   44.3453    3.3430    9.8641 N   0  0  0  0  0  0  0  0  0  0  0  0
   44.5448    1.8958    9.6689 C   0  0  0  0  0  0  0  0  0  0  0  0
   44.4561    4.2511    8.7114 C   0  0  0  0  0  0  0  0  0  0  0  0
   45.8126    4.0602    8.0167 C   0  0  0  0  0  0  0  0  0  0  0  0
   46.0763    2.6333    7.8459 N   0  0  0  0  0  0  0  0  0  0  0  0
   45.5648    1.6516    8.6004 C   0  0  0  0  0  0  0  0  0  0  0  0
   46.9404    1.9913    7.0347 C   0  0  0  0  0  0  0  0  0  0  0  0
   46.9240    0.6615    7.2686 N   0  0  0  0  0  0  0  0  0  0  0  0
   46.0564    0.4472    8.2518 N   0  0  0  0  0  0  0  0  0  0  0  0
   46.7311   10.2773   12.9257 F   0  0  0  0  0  0  0  0  0  0  0  0
   48.6787    9.7063   14.7895 F   0  0  0  0  0  0  0  0  0  0  0  0
   48.0613    5.0444   14.0461 F   0  0  0  0  0  0  0  0  0  0  0  0
   47.8097    2.6508    6.0096 C   0  0  0  0  0  0  0  0  0  0  0  0
   47.0187    3.2670    5.0578 F   0  0  0  0  0  0  0  0  0  0  0  0
   48.6128    3.5960    6.6203 F   0  0  0  0  0  0  0  0  0  0  0  0
   48.6120    1.7104    5.3885 F   0  0  0  0  0  0  0  0  0  0  0  0
   49.1498    7.1507   15.1460 H   0  0  0  0  0  0  0  0  0  0  0  0
   45.6217    8.1830   11.8132 H   0  0  0  0  0  0  0  0  0  0  0  0
   45.5591    5.8520   11.1566 H   0  0  0  0  0  0  0  0  0  0  0  0
   46.7026    4.6812   11.8616 H   0  0  0  0  0  0  0  0  0  0  0  0
   45.2715    4.6642   14.0022 H   0  0  0  0  0  0  0  0  0  0  0  0
   44.1417    6.6932   13.7527 H   0  0  0  0  0  0  0  0  0  0  0  0
   43.0161    5.4708   13.7501 H   0  0  0  0  0  0  0  0  0  0  0  0
   45.1098    2.8600   12.3538 H   0  0  0  0  0  0  0  0  0  0  0  0
   43.5187    3.1830   13.0910 H   0  0  0  0  0  0  0  0  0  0  0  0
   43.5812    1.4291    9.3690 H   0  0  0  0  0  0  0  0  0  0  0  0
   44.8968    1.4177   10.6055 H   0  0  0  0  0  0  0  0  0  0  0  0
   44.3624    5.3125    9.0331 H   0  0  0  0  0  0  0  0  0  0  0  0
   43.6352    4.0304    7.9936 H   0  0  0  0  0  0  0  0  0  0  0  0
   45.8017    4.5712    7.0301 H   0  0  0  0  0  0  0  0  0  0  0  0
   46.6156    4.5064    8.6459 H   0  0  0  0  0  0  0  0  0  0  0  0
  1  2  2  0
  2  3  1  0
  3  4  2  0
  4  5  1  0
  5  6  2  0
  1  6  1  0
  7  8  1  0
  8  9  1  0
  5  7  1  0
 10 11  1  0
 11 12  2  0
  8 10  1  0
 13 14  1  0
 11 13  1  0
 15 16  1  0
 16 17  1  0
 17 18  1  0
 14 18  1  0
 13 15  1  0
 19 20  2  0
 20 21  1  0
 17 19  1  0
 18 21  2  0
  1 22  1  0
  2 23  1  0
  4 24  1  0
 19 25  1  0
 25 26  1  0
 25 27  1  0
 25 28  1  0
  3 29  1  0
  6 30  1  0
  7 31  1  0
  7 32  1  0
  8 33  1  6
  9 34  1  0
  9 35  1  0
 10 36  1  0
 10 37  1  0
 14 38  1  0
 14 39  1  0
 15 40  1  0
 15 41  1  0
 16 42  1  0
 16 43  1  0
M  END
> <Uni-Dock RESULT> 
ENERGY=   -7.435  LOWER_BOUND=    0.000  UPPER_BOUND=    0.000
INTER + INTRA:          -7.435
INTER:                  -7.435
INTRA:                   0.000
UNBOUND:                 0.000

$$$$

     RDKit          3D

 43 45  0  0  0  0  0  0  0  0999 V2000
   50.7412    3.2243   17.6272 C   0  0  0  0  0  0  0  0  0  0  0  0
   49.7774    2.4897   16.9313 C   0  0  0  0  0  0  0  0  0  0  0  0
   48.4247    2.8183   17.0542 C   0  0  0  0  0  0  0  0  0  0  0  0
   48.0296    3.8790   17.8763 C   0  0  0  0  0  0  0  0  0  0  0  0
   48.9927    4.6239   18.5833 C   0  0  0  0  0  0  0  0  0  0  0  0
   50.3515    4.2863   18.4518 C   0  0  0  0  0  0  0  0  0  0  0  0
   48.5765    5.7455   19.5034 C   0  0  0  0  0  0  0  0  0  0  0  0
   48.1102    5.2197   20.8806 C   0  0  1  0  0  0  0  0  0  0  0  0
   49.2379    4.6466   21.6255 N   0  0  0  0  0  0  0  0  0  0  0  0
   47.4303    6.3389   21.7018 C   0  0  0  0  0  0  0  0  0  0  0  0
   48.3618    7.4831   22.0048 C   0  0  0  0  0  0  0  0  0  0  0  0
   49.3022    7.3181   22.8306 O   0  0  0  0  0  0  0  0  0  0  0  0
   48.2299    8.7367   21.3158 N   0  0  0  0  0  0  0  0  0  0  0  0
   47.0152    9.5446   21.5253 C   0  0  0  0  0  0  0  0  0  0  0  0
   49.4343    9.3714   20.7572 C   0  0  0  0  0  0  0  0  0  0  0  0
   49.0999   10.0588   19.4250 C   0  0  0  0  0  0  0  0  0  0  0  0
   47.8708   10.8351   19.5720 N   0  0  0  0  0  0  0  0  0  0  0  0
   46.9017   10.5963   20.4656 C   0  0  0  0  0  0  0  0  0  0  0  0
   47.3671   11.8326   18.8183 C   0  0  0  0  0  0  0  0  0  0  0  0
   46.1492   12.2068   19.2653 N   0  0  0  0  0  0  0  0  0  0  0  0
   45.8574   11.4310   20.3036 N   0  0  0  0  0  0  0  0  0  0  0  0
   52.0552    2.9047   17.5072 F   0  0  0  0  0  0  0  0  0  0  0  0
   50.1527    1.4519   16.1423 F   0  0  0  0  0  0  0  0  0  0  0  0
   46.7109    4.1767   17.9853 F   0  0  0  0  0  0  0  0  0  0  0  0
   48.0531   12.4506   17.6397 C   0  0  0  0  0  0  0  0  0  0  0  0
   49.2314   13.0468   18.0489 F   0  0  0  0  0  0  0  0  0  0  0  0
   48.3346   11.4748   16.7017 F   0  0  0  0  0  0  0  0  0  0  0  0
   47.2394   13.4094   17.0632 F   0  0  0  0  0  0  0  0  0  0  0  0
   47.6808    2.2471   16.5132 H   0  0  0  0  0  0  0  0  0  0  0  0
   51.1076    4.8407   18.9935 H   0  0  0  0  0  0  0  0  0  0  0  0
   49.4204    6.4553   19.6374 H   0  0  0  0  0  0  0  0  0  0  0  0
   47.7541    6.3190   19.0210 H   0  0  0  0  0  0  0  0  0  0  0  0
   47.3458    4.4253   20.7175 H   0  0  0  0  0  0  0  0  0  0  0  0
   49.5491    3.7753   21.1398 H   0  0  0  0  0  0  0  0  0  0  0  0
   48.8924    4.3316   22.5613 H   0  0  0  0  0  0  0  0  0  0  0  0
   46.5444    6.7009   21.1393 H   0  0  0  0  0  0  0  0  0  0  0  0
   47.0525    5.9209   22.6600 H   0  0  0  0  0  0  0  0  0  0  0  0
   47.0665   10.0336   22.5226 H   0  0  0  0  0  0  0  0  0  0  0  0
   46.1081    8.9080   21.4861 H   0  0  0  0  0  0  0  0  0  0  0  0
   50.2345    8.6177   20.5827 H   0  0  0  0  0  0  0  0  0  0  0  0
   49.8172   10.1255   21.4800 H   0  0  0  0  0  0  0  0  0  0  0  0
   49.9405   10.7207   19.1252 H   0  0  0  0  0  0  0  0  0  0  0  0
   48.9505    9.2855   18.6379 H   0  0  0  0  0  0  0  0  0  0  0  0
  1  2  2  0
  2  3  1  0
  3  4  2  0
  4  5  1  0
  5  6  2  0
  1  6  1  0
  7  8  1  0
  8  9  1  0
  5  7  1  0
 10 11  1  0
 11 12  2  0
  8 10  1  0
 13 14  1  0
 11 13  1  0
 15 16  1  0
 16 17  1  0
 17 18  1  0
 14 18  1  0
 13 15  1  0
 19 20  2  0
 20 21  1  0
 17 19  1  0
 18 21  2  0
  1 22  1  0
  2 23  1  0
  4 24  1  0
 19 25  1  0
 25 26  1  0
 25 27  1  0
 25 28  1  0
  3 29  1  0
  6 30  1  0
  7 31  1  0
  7 32  1  0
  8 33  1  6
  9 34  1  0
  9 35  1  0
 10 36  1  0
 10 37  1  0
 14 38  1  0
 14 39  1  0
 15 40  1  0
 15 41  1  0
 16 42  1  0
 16 43  1  0
M  END
> <Uni-Dock RESULT> 
ENERGY=   -4.768  LOWER_BOUND=    9.232  UPPER_BOUND=   12.044
INTER + INTRA:          -4.768
INTER:                  -4.768
INTRA:                   0.000
UNBOUND:                 0.000

$$$$

     RDKit          3D

 43 45  0  0  0  0  0  0  0  0999 V2000
   44.9813    6.8420   11.5249 C   0  0  0  0  0  0  0  0  0  0  0  0
   46.2526    6.9607   12.0928 C   0  0  0  0  0  0  0  0  0  0  0  0
   46.7360    8.2170   12.4680 C   0  0  0  0  0  0  0  0  0  0  0  0
   45.9531    9.3598   12.2729 C   0  0  0  0  0  0  0  0  0  0  0  0
   44.6718    9.2511   11.6996 C   0  0  0  0  0  0  0  0  0  0  0  0
   44.1937    7.9822   11.3268 C   0  0  0  0  0  0  0  0  0  0  0  0
   43.8330   10.4804   11.4484 C   0  0  0  0  0  0  0  0  0  0  0  0
   44.2491   11.2076   10.1489 C   0  0  1  0  0  0  0  0  0  0  0  0
   43.9193   10.3948    8.9717 N   0  0  0  0  0  0  0  0  0  0  0  0
   43.5817   12.5984   10.0521 C   0  0  0  0  0  0  0  0  0  0  0  0
   42.0784   12.5179   10.0018 C   0  0  0  0  0  0  0  0  0  0  0  0
   41.5135   12.0697    8.9657 O   0  0  0  0  0  0  0  0  0  0  0  0
   41.2871   12.8839   11.1434 N   0  0  0  0  0  0  0  0  0  0  0  0
   41.2922   14.2858   11.5985 C   0  0  0  0  0  0  0  0  0  0  0  0
   40.2038   11.9864   11.5753 C   0  0  0  0  0  0  0  0  0  0  0  0
   40.1057   11.9760   13.1081 C   0  0  0  0  0  0  0  0  0  0  0  0
   40.1566   13.3476   13.6092 N   0  0  0  0  0  0  0  0  0  0  0  0
   40.7241   14.3854   12.9802 C   0  0  0  0  0  0  0  0  0  0  0  0
   39.7939   13.8605   14.8018 C   0  0  0  0  0  0  0  0  0  0  0  0
   40.1008   15.1733   14.8754 N   0  0  0  0  0  0  0  0  0  0  0  0
   40.6836   15.5045   13.7282 N   0  0  0  0  0  0  0  0  0  0  0  0
   44.5122    5.6211   11.1608 F   0  0  0  0  0  0  0  0  0  0  0  0
   47.0221    5.8580   12.2731 F   0  0  0  0  0  0  0  0  0  0  0  0
   46.4446   10.5696   12.6392 F   0  0  0  0  0  0  0  0  0  0  0  0
   39.1404   13.0898   15.9065 C   0  0  0  0  0  0  0  0  0  0  0  0
   37.9136   12.6167   15.4794 F   0  0  0  0  0  0  0  0  0  0  0  0
   39.9429   12.0233   16.2669 F   0  0  0  0  0  0  0  0  0  0  0  0
   38.9504   13.9043   17.0085 F   0  0  0  0  0  0  0  0  0  0  0  0
   47.7214    8.3051   12.9080 H   0  0  0  0  0  0  0  0  0  0  0  0
   43.2147    7.8773   10.8763 H   0  0  0  0  0  0  0  0  0  0  0  0
   42.7596   10.1993   11.3954 H   0  0  0  0  0  0  0  0  0  0  0  0
   43.9374   11.1695   12.3156 H   0  0  0  0  0  0  0  0  0  0  0  0
   45.3505   11.3759   10.1728 H   0  0  0  0  0  0  0  0  0  0  0  0
   44.5330    9.5490    8.9687 H   0  0  0  0  0  0  0  0  0  0  0  0
   44.1846   10.9302    8.1131 H   0  0  0  0  0  0  0  0  0  0  0  0
   43.9068   13.2072   10.9216 H   0  0  0  0  0  0  0  0  0  0  0  0
   43.9432   13.1225    9.1409 H   0  0  0  0  0  0  0  0  0  0  0  0
   40.6776   14.8997   10.9046 H   0  0  0  0  0  0  0  0  0  0  0  0
   42.3246   14.6903   11.6139 H   0  0  0  0  0  0  0  0  0  0  0  0
   40.3845   10.9476   11.2190 H   0  0  0  0  0  0  0  0  0  0  0  0
   39.2424   12.3414   11.1426 H   0  0  0  0  0  0  0  0  0  0  0  0
   39.1572   11.4872   13.4180 H   0  0  0  0  0  0  0  0  0  0  0  0
   40.9622   11.4023   13.5290 H   0  0  0  0  0  0  0  0  0  0  0  0
  1  2  2  0
  2  3  1  0
  3  4  2  0
  4  5  1  0
  5  6  2  0
  1  6  1  0
  7  8  1  0
  8  9  1  0
  5  7  1  0
 10 11  1  0
 11 12  2  0
  8 10  1  0
 13 14  1  0
 11 13  1  0
 15 16  1  0
 16 17  1  0
 17 18  1  0
 14 18  1  0
 13 15  1  0
 19 20  2  0
 20 21  1  0
 17 19  1  0
 18 21  2  0
  1 22  1  0
  2 23  1  0
  4 24  1  0
 19 25  1  0
 25 26  1  0
 25 27  1  0
 25 28  1  0
  3 29  1  0
  6 30  1  0
  7 31  1  0
  7 32  1  0
  8 33  1  6
  9 34  1  0
  9 35  1  0
 10 36  1  0
 10 37  1  0
 14 38  1  0
 14 39  1  0
 15 40  1  0
 15 41  1  0
 16 42  1  0
 16 43  1  0
M  END
> <Uni-Dock RESULT> 
ENERGY=   -4.451  LOWER_BOUND=    6.669  UPPER_BOUND=   11.007
INTER + INTRA:          -4.451
INTER:                  -4.451
INTRA:                   0.000
UNBOUND:                 0.000

$$$$
