
     RDKit          3D

 43 45  0  0  0  0  0  0  0  0999 V2000
   45.1611    4.5058    9.4160 C   0  0  0  0  0  0  0  0  0  0  0  0
   44.4321    3.3228    9.5650 C   0  0  0  0  0  0  0  0  0  0  0  0
   43.9287    2.9664   10.8186 C   0  0  0  0  0  0  0  0  0  0  0  0
   44.1553    3.7876   11.9278 C   0  0  0  0  0  0  0  0  0  0  0  0
   44.8973    4.9772   11.7892 C   0  0  0  0  0  0  0  0  0  0  0  0
   45.3907    5.3309   10.5212 C   0  0  0  0  0  0  0  0  0  0  0  0
   45.1608    5.8689   12.9827 C   0  0  0  0  0  0  0  0  0  0  0  0
   46.4200    5.4777   13.7927 C   0  0  1  0  0  0  0  0  0  0  0  0
   46.3180    4.0940   14.2653 N   0  0  0  0  0  0  0  0  0  0  0  0
   47.7431    5.6999   13.0220 C   0  0  0  0  0  0  0  0  0  0  0  0
   48.0114    7.1639   12.7818 C   0  0  0  0  0  0  0  0  0  0  0  0
   47.8574    7.6248   11.6186 O   0  0  0  0  0  0  0  0  0  0  0  0
   48.3923    8.0501   13.8543 N   0  0  0  0  0  0  0  0  0  0  0  0
   49.1347    7.5311   15.0194 C   0  0  0  0  0  0  0  0  0  0  0  0
   47.8370    9.4166   13.8894 C   0  0  0  0  0  0  0  0  0  0  0  0
   48.9199   10.4313   14.2747 C   0  0  0  0  0  0  0  0  0  0  0  0
   49.6658    9.9329   15.4248 N   0  0  0  0  0  0  0  0  0  0  0  0
   49.8147    8.6434   15.7540 C   0  0  0  0  0  0  0  0  0  0  0  0
   50.4628   10.5769   16.2978 C   0  0  0  0  0  0  0  0  0  0  0  0
   51.0478    9.7069   17.1483 N   0  0  0  0  0  0  0  0  0  0  0  0
   50.6411    8.4904   16.8057 N   0  0  0  0  0  0  0  0  0  0  0  0
   45.6458    4.8566    8.1990 F   0  0  0  0  0  0  0  0  0  0  0  0
   44.2086    2.5219    8.4938 F   0  0  0  0  0  0  0  0  0  0  0  0
   43.6484    3.4238   13.1332 F   0  0  0  0  0  0  0  0  0  0  0  0
   50.6749   12.0593   16.3367 C   0  0  0  0  0  0  0  0  0  0  0  0
   49.4882   12.6878   16.6640 F   0  0  0  0  0  0  0  0  0  0  0  0
   51.1022   12.5020   15.0988 F   0  0  0  0  0  0  0  0  0  0  0  0
   51.6312   12.3799   17.2834 F   0  0  0  0  0  0  0  0  0  0  0  0
   43.3601    2.0521   10.9312 H   0  0  0  0  0  0  0  0  0  0  0  0
   45.9509    6.2464   10.3873 H   0  0  0  0  0  0  0  0  0  0  0  0
   44.2803    5.8402   13.6611 H   0  0  0  0  0  0  0  0  0  0  0  0
   45.2448    6.9268   12.6513 H   0  0  0  0  0  0  0  0  0  0  0  0
   46.4316    6.1358   14.6902 H   0  0  0  0  0  0  0  0  0  0  0  0
   47.0405    3.9418   15.0066 H   0  0  0  0  0  0  0  0  0  0  0  0
   46.5450    3.4388   13.4818 H   0  0  0  0  0  0  0  0  0  0  0  0
   48.5849    5.2628   13.5972 H   0  0  0  0  0  0  0  0  0  0  0  0
   47.7192    5.1556   12.0540 H   0  0  0  0  0  0  0  0  0  0  0  0
   49.9202    6.8224   14.6815 H   0  0  0  0  0  0  0  0  0  0  0  0
   48.4391    7.0087   15.7084 H   0  0  0  0  0  0  0  0  0  0  0  0
   47.0185    9.4509   14.6407 H   0  0  0  0  0  0  0  0  0  0  0  0
   47.4062    9.7085   12.9075 H   0  0  0  0  0  0  0  0  0  0  0  0
   49.6177   10.5714   13.4213 H   0  0  0  0  0  0  0  0  0  0  0  0
   48.4456   11.4060   14.5171 H   0  0  0  0  0  0  0  0  0  0  0  0
  1  2  2  0
  2  3  1  0
  3  4  2  0
  4  5  1  0
  5  6  2  0
  1  6  1  0
  7  8  1  0
  8  9  1  0
  5  7  1  0
 10 11  1  0
 11 12  2  0
  8 10  1  0
 13 14  1  0
 11 13  1  0
 15 16  1  0
 16 17  1  0
 17 18  1  0
 14 18  1  0
 13 15  1  0
 19 20  2  0
 20 21  1  0
 17 19  1  0
 18 21  2  0
  1 22  1  0
  2 23  1  0
  4 24  1  0
 19 25  1  0
 25 26  1  0
 25 27  1  0
 25 28  1  0
  3 29  1  0
  6 30  1  0
  7 31  1  0
  7 32  1  0
  8 33  1  6
  9 34  1  0
  9 35  1  0
 10 36  1  0
 10 37  1  0
 14 38  1  0
 14 39  1  0
 15 40  1  0
 15 41  1  0
 16 42  1  0
 16 43  1  0
M  END
> <Uni-Dock RESULT> 
ENERGY=   -4.352  LOWER_BOUND=    0.000  UPPER_BOUND=    0.000
INTER + INTRA:          -4.352
INTER:                  -4.352
INTRA:                   0.000
UNBOUND:                 0.000

$$$$

     RDKit          3D

 43 45  0  0  0  0  0  0  0  0999 V2000
   53.0796    2.7705   18.3415 C   0  0  0  0  0  0  0  0  0  0  0  0
   52.7093    1.4588   18.0328 C   0  0  0  0  0  0  0  0  0  0  0  0
   51.4506    1.1995   17.4845 C   0  0  0  0  0  0  0  0  0  0  0  0
   50.5565    2.2485   17.2469 C   0  0  0  0  0  0  0  0  0  0  0  0
   50.9173    3.5730   17.5639 C   0  0  0  0  0  0  0  0  0  0  0  0
   52.1901    3.8232   18.1060 C   0  0  0  0  0  0  0  0  0  0  0  0
   49.9557    4.7160   17.3238 C   0  0  0  0  0  0  0  0  0  0  0  0
   48.9785    4.9709   18.4964 C   0  0  1  0  0  0  0  0  0  0  0  0
   48.1973    3.7650   18.7861 N   0  0  0  0  0  0  0  0  0  0  0  0
   49.6729    5.4972   19.7750 C   0  0  0  0  0  0  0  0  0  0  0  0
   50.2353    6.8819   19.5765 C   0  0  0  0  0  0  0  0  0  0  0  0
   51.4836    7.0180   19.4645 O   0  0  0  0  0  0  0  0  0  0  0  0
   49.3801    8.0382   19.4665 N   0  0  0  0  0  0  0  0  0  0  0  0
   48.0696    8.0608   20.1448 C   0  0  0  0  0  0  0  0  0  0  0  0
   49.7179    9.0923   18.4910 C   0  0  0  0  0  0  0  0  0  0  0  0
   49.5030   10.4827   19.1001 C   0  0  0  0  0  0  0  0  0  0  0  0
   48.2116   10.5224   19.7771 N   0  0  0  0  0  0  0  0  0  0  0  0
   47.5719    9.4644   20.2914 C   0  0  0  0  0  0  0  0  0  0  0  0
   47.4583   11.5680   20.1660 C   0  0  0  0  0  0  0  0  0  0  0  0
   46.3804   11.1520   20.8642 N   0  0  0  0  0  0  0  0  0  0  0  0
   46.4522    9.8287   20.9442 N   0  0  0  0  0  0  0  0  0  0  0  0
   54.3029    3.0251   18.8685 F   0  0  0  0  0  0  0  0  0  0  0  0
   53.5713    0.4369   18.2605 F   0  0  0  0  0  0  0  0  0  0  0  0
   49.3430    1.9717   16.7055 F   0  0  0  0  0  0  0  0  0  0  0  0
   47.7596   13.0042   19.8650 C   0  0  0  0  0  0  0  0  0  0  0  0
   47.6876   13.2157   18.5010 F   0  0  0  0  0  0  0  0  0  0  0  0
   49.0299   13.3179   20.3113 F   0  0  0  0  0  0  0  0  0  0  0  0
   46.8449   13.8266   20.4978 F   0  0  0  0  0  0  0  0  0  0  0  0
   51.1673    0.1834   17.2414 H   0  0  0  0  0  0  0  0  0  0  0  0
   52.4950    4.8332   18.3442 H   0  0  0  0  0  0  0  0  0  0  0  0
   49.3621    4.5070   16.4072 H   0  0  0  0  0  0  0  0  0  0  0  0
   50.5235    5.6460   17.1032 H   0  0  0  0  0  0  0  0  0  0  0  0
   48.2671    5.7520   18.1465 H   0  0  0  0  0  0  0  0  0  0  0  0
   47.3864    4.0316   19.3911 H   0  0  0  0  0  0  0  0  0  0  0  0
   48.7802    3.0946   19.3388 H   0  0  0  0  0  0  0  0  0  0  0  0
   48.9449    5.5141   20.6118 H   0  0  0  0  0  0  0  0  0  0  0  0
   50.4807    4.8015   20.0868 H   0  0  0  0  0  0  0  0  0  0  0  0
   48.1643    7.6300   21.1640 H   0  0  0  0  0  0  0  0  0  0  0  0
   47.3326    7.4700   19.5622 H   0  0  0  0  0  0  0  0  0  0  0  0
   49.0640    8.9774   17.5995 H   0  0  0  0  0  0  0  0  0  0  0  0
   50.7721    9.0105   18.1489 H   0  0  0  0  0  0  0  0  0  0  0  0
   50.3071   10.6932   19.8376 H   0  0  0  0  0  0  0  0  0  0  0  0
   49.5398   11.2492   18.2970 H   0  0  0  0  0  0  0  0  0  0  0  0
  1  2  2  0
  2  3  1  0
  3  4  2  0
  4  5  1  0
  5  6  2  0
  1  6  1  0
  7  8  1  0
  8  9  1  0
  5  7  1  0
 10 11  1  0
 11 12  2  0
  8 10  1  0
 13 14  1  0
 11 13  1  0
 15 16  1  0
 16 17  1  0
 17 18  1  0
 14 18  1  0
 13 15  1  0
 19 20  2  0
 20 21  1  0
 17 19  1  0
 18 21  2  0
  1 22  1  0
  2 23  1  0
  4 24  1  0
 19 25  1  0
 25 26  1  0
 25 27  1  0
 25 28  1  0
  3 29  1  0
  6 30  1  0
  7 31  1  0
  7 32  1  0
  8 33  1  6
  9 34  1  0
  9 35  1  0
 10 36  1  0
 10 37  1  0
 14 38  1  0
 14 39  1  0
 15 40  1  0
 15 41  1  0
 16 42  1  0
 16 43  1  0
M  END
> <Uni-Dock RESULT> 
ENERGY=   -4.223  LOWER_BOUND=    6.300  UPPER_BOUND=    7.775
INTER + INTRA:          -4.223
INTER:                  -4.223
INTRA:                   0.000
UNBOUND:                 0.000

$$$$

     RDKit          3D

 43 45  0  0  0  0  0  0  0  0999 V2000
   48.6982   11.8374   18.0048 C   0  0  0  0  0  0  0  0  0  0  0  0
   47.5044   12.3980   18.4670 C   0  0  0  0  0  0  0  0  0  0  0  0
   46.7223   11.7069   19.3958 C   0  0  0  0  0  0  0  0  0  0  0  0
   47.1275   10.4522   19.8625 C   0  0  0  0  0  0  0  0  0  0  0  0
   48.3246    9.8747   19.3950 C   0  0  0  0  0  0  0  0  0  0  0  0
   49.1084   10.5835   18.4679 C   0  0  0  0  0  0  0  0  0  0  0  0
   48.7690    8.5129   19.8817 C   0  0  0  0  0  0  0  0  0  0  0  0
   48.1811    7.3337   19.0701 C   0  0  1  0  0  0  0  0  0  0  0  0
   46.7161    7.3747   19.0912 N   0  0  0  0  0  0  0  0  0  0  0  0
   48.7088    7.2607   17.6174 C   0  0  0  0  0  0  0  0  0  0  0  0
   50.1776    6.9238   17.5721 C   0  0  0  0  0  0  0  0  0  0  0  0
   50.9987    7.8339   17.2772 O   0  0  0  0  0  0  0  0  0  0  0  0
   50.6630    5.6060   17.9012 N   0  0  0  0  0  0  0  0  0  0  0  0
   49.8122    4.4220   17.6730 C   0  0  0  0  0  0  0  0  0  0  0  0
   51.9112    5.4723   18.6766 C   0  0  0  0  0  0  0  0  0  0  0  0
   52.7809    4.3429   18.1121 C   0  0  0  0  0  0  0  0  0  0  0  0
   51.9546    3.1638   17.8783 N   0  0  0  0  0  0  0  0  0  0  0  0
   50.6377    3.1744   17.6358 C   0  0  0  0  0  0  0  0  0  0  0  0
   52.2982    1.8736   17.7067 C   0  0  0  0  0  0  0  0  0  0  0  0
   51.2174    1.1236   17.4033 N   0  0  0  0  0  0  0  0  0  0  0  0
   50.1730    1.9418   17.3576 N   0  0  0  0  0  0  0  0  0  0  0  0
   49.4617   12.5089   17.1076 F   0  0  0  0  0  0  0  0  0  0  0  0
   47.1055   13.6141   18.0188 F   0  0  0  0  0  0  0  0  0  0  0  0
   46.3547    9.8047   20.7712 F   0  0  0  0  0  0  0  0  0  0  0  0
   53.6872    1.3286   17.8393 C   0  0  0  0  0  0  0  0  0  0  0  0
   54.1153    1.4666   19.1462 F   0  0  0  0  0  0  0  0  0  0  0  0
   54.5417    2.0203   17.0012 F   0  0  0  0  0  0  0  0  0  0  0  0
   53.7088   -0.0115   17.4967 F   0  0  0  0  0  0  0  0  0  0  0  0
   45.8003   12.1448   19.7565 H   0  0  0  0  0  0  0  0  0  0  0  0
   50.0385   10.1670   18.1053 H   0  0  0  0  0  0  0  0  0  0  0  0
   48.4737    8.3919   20.9468 H   0  0  0  0  0  0  0  0  0  0  0  0
   49.8792    8.4539   19.8737 H   0  0  0  0  0  0  0  0  0  0  0  0
   48.4955    6.4046   19.5960 H   0  0  0  0  0  0  0  0  0  0  0  0
   46.3529    6.4496   18.7643 H   0  0  0  0  0  0  0  0  0  0  0  0
   46.3761    8.0919   18.4095 H   0  0  0  0  0  0  0  0  0  0  0  0
   48.1394    6.4930   17.0545 H   0  0  0  0  0  0  0  0  0  0  0  0
   48.5247    8.2228   17.0937 H   0  0  0  0  0  0  0  0  0  0  0  0
   49.2949    4.5115   16.6943 H   0  0  0  0  0  0  0  0  0  0  0  0
   49.0575    4.3376   18.4821 H   0  0  0  0  0  0  0  0  0  0  0  0
   51.6530    5.2432   19.7332 H   0  0  0  0  0  0  0  0  0  0  0  0
   52.4999    6.4148   18.6699 H   0  0  0  0  0  0  0  0  0  0  0  0
   53.2323    4.6676   17.1500 H   0  0  0  0  0  0  0  0  0  0  0  0
   53.5940    4.1063   18.8309 H   0  0  0  0  0  0  0  0  0  0  0  0
  1  2  2  0
  2  3  1  0
  3  4  2  0
  4  5  1  0
  5  6  2  0
  1  6  1  0
  7  8  1  0
  8  9  1  0
  5  7  1  0
 10 11  1  0
 11 12  2  0
  8 10  1  0
 13 14  1  0
 11 13  1  0
 15 16  1  0
 16 17  1  0
 17 18  1  0
 14 18  1  0
 13 15  1  0
 19 20  2  0
 20 21  1  0
 17 19  1  0
 18 21  2  0
  1 22  1  0
  2 23  1  0
  4 24  1  0
 19 25  1  0
 25 26  1  0
 25 27  1  0
 25 28  1  0
  3 29  1  0
  6 30  1  0
  7 31  1  0
  7 32  1  0
  8 33  1  6
  9 34  1  0
  9 35  1  0
 10 36  1  0
 10 37  1  0
 14 38  1  0
 14 39  1  0
 15 40  1  0
 15 41  1  0
 16 42  1  0
 16 43  1  0
M  END
> <Uni-Dock RESULT> 
ENERGY=   -4.052  LOWER_BOUND=    6.601  UPPER_BOUND=    9.475
INTER + INTRA:          -4.052
INTER:                  -4.052
INTRA:                   0.000
UNBOUND:                 0.000

$$$$

     RDKit          3D

 43 45  0  0  0  0  0  0  0  0999 V2000
   48.0829   13.5514   13.5065 C   0  0  0  0  0  0  0  0  0  0  0  0
   49.3502   14.1088   13.6972 C   0  0  0  0  0  0  0  0  0  0  0  0
   50.4887   13.4107   13.2869 C   0  0  0  0  0  0  0  0  0  0  0  0
   50.3657   12.1522   12.6890 C   0  0  0  0  0  0  0  0  0  0  0  0
   49.0928   11.5780   12.5015 C   0  0  0  0  0  0  0  0  0  0  0  0
   47.9537   12.2938   12.9093 C   0  0  0  0  0  0  0  0  0  0  0  0
   48.9453   10.2123   11.8675 C   0  0  0  0  0  0  0  0  0  0  0  0
   49.0460    9.0397   12.8723 C   0  0  1  0  0  0  0  0  0  0  0  0
   50.3266    9.0811   13.5842 N   0  0  0  0  0  0  0  0  0  0  0  0
   47.8641    8.9779   13.8689 C   0  0  0  0  0  0  0  0  0  0  0  0
   46.5670    8.6409   13.1782 C   0  0  0  0  0  0  0  0  0  0  0  0
   45.7115    9.5529   13.0181 O   0  0  0  0  0  0  0  0  0  0  0  0
   46.3056    7.3203   12.6601 N   0  0  0  0  0  0  0  0  0  0  0  0
   46.9251    6.1384   13.2904 C   0  0  0  0  0  0  0  0  0  0  0  0
   45.6098    7.1801   11.3666 C   0  0  0  0  0  0  0  0  0  0  0  0
   44.5704    6.0549   11.4301 C   0  0  0  0  0  0  0  0  0  0  0  0
   45.1658    4.8779   12.0530 N   0  0  0  0  0  0  0  0  0  0  0  0
   46.1865    4.8909   12.9197 C   0  0  0  0  0  0  0  0  0  0  0  0
   44.7779    3.5890   12.0394 C   0  0  0  0  0  0  0  0  0  0  0  0
   45.5607    2.8418   12.8465 N   0  0  0  0  0  0  0  0  0  0  0  0
   46.4462    3.6607   13.4012 N   0  0  0  0  0  0  0  0  0  0  0  0
   46.9761   14.2297   13.8988 F   0  0  0  0  0  0  0  0  0  0  0  0
   49.4769   15.3286   14.2761 F   0  0  0  0  0  0  0  0  0  0  0  0
   51.4863   11.4979   12.2912 F   0  0  0  0  0  0  0  0  0  0  0  0
   43.6379    3.0424   11.2358 C   0  0  0  0  0  0  0  0  0  0  0  0
   43.9189    3.1700    9.8885 F   0  0  0  0  0  0  0  0  0  0  0  0
   42.4819    3.7404   11.5313 F   0  0  0  0  0  0  0  0  0  0  0  0
   43.4436    1.7051   11.5313 F   0  0  0  0  0  0  0  0  0  0  0  0
   51.4693   13.8461   13.4309 H   0  0  0  0  0  0  0  0  0  0  0  0
   46.9652   11.8798   12.7628 H   0  0  0  0  0  0  0  0  0  0  0  0
   49.7320   10.0830   11.0924 H   0  0  0  0  0  0  0  0  0  0  0  0
   47.9788   10.1529   11.3213 H   0  0  0  0  0  0  0  0  0  0  0  0
   49.0323    8.1064   12.2662 H   0  0  0  0  0  0  0  0  0  0  0  0
   50.4751    8.1587   14.0551 H   0  0  0  0  0  0  0  0  0  0  0  0
   50.2840    9.8037   14.3397 H   0  0  0  0  0  0  0  0  0  0  0  0
   48.0742    8.2148   14.6461 H   0  0  0  0  0  0  0  0  0  0  0  0
   47.7660    9.9441   14.4080 H   0  0  0  0  0  0  0  0  0  0  0  0
   46.8858    6.2358   14.3960 H   0  0  0  0  0  0  0  0  0  0  0  0
   47.9824    6.0480   12.9660 H   0  0  0  0  0  0  0  0  0  0  0  0
   46.3596    6.9428   10.5811 H   0  0  0  0  0  0  0  0  0  0  0  0
   45.0996    8.1224   11.0723 H   0  0  0  0  0  0  0  0  0  0  0  0
   43.7006    6.3869   12.0367 H   0  0  0  0  0  0  0  0  0  0  0  0
   44.2231    5.8123   10.4033 H   0  0  0  0  0  0  0  0  0  0  0  0
  1  2  2  0
  2  3  1  0
  3  4  2  0
  4  5  1  0
  5  6  2  0
  1  6  1  0
  7  8  1  0
  8  9  1  0
  5  7  1  0
 10 11  1  0
 11 12  2  0
  8 10  1  0
 13 14  1  0
 11 13  1  0
 15 16  1  0
 16 17  1  0
 17 18  1  0
 14 18  1  0
 13 15  1  0
 19 20  2  0
 20 21  1  0
 17 19  1  0
 18 21  2  0
  1 22  1  0
  2 23  1  0
  4 24  1  0
 19 25  1  0
 25 26  1  0
 25 27  1  0
 25 28  1  0
  3 29  1  0
  6 30  1  0
  7 31  1  0
  7 32  1  0
  8 33  1  6
  9 34  1  0
  9 35  1  0
 10 36  1  0
 10 37  1  0
 14 38  1  0
 14 39  1  0
 15 40  1  0
 15 41  1  0
 16 42  1  0
 16 43  1  0
M  END
> <Uni-Dock RESULT> 
ENERGY=   -3.992  LOWER_BOUND=    2.447  UPPER_BOUND=    9.205
INTER + INTRA:          -3.992
INTER:                  -3.992
INTRA:                   0.000
UNBOUND:                 0.000

$$$$

     RDKit          3D

 43 45  0  0  0  0  0  0  0  0999 V2000
   52.4461    1.3713   17.8689 C   0  0  0  0  0  0  0  0  0  0  0  0
   53.6967    1.0367   17.3423 C   0  0  0  0  0  0  0  0  0  0  0  0
   54.7026    2.0032   17.2646 C   0  0  0  0  0  0  0  0  0  0  0  0
   54.4615    3.3075   17.7084 C   0  0  0  0  0  0  0  0  0  0  0  0
   53.2009    3.6566   18.2318 C   0  0  0  0  0  0  0  0  0  0  0  0
   52.1994    2.6734   18.3142 C   0  0  0  0  0  0  0  0  0  0  0  0
   52.9221    5.0666   18.7040 C   0  0  0  0  0  0  0  0  0  0  0  0
   52.4382    6.0193   17.5847 C   0  0  1  0  0  0  0  0  0  0  0  0
   53.4238    6.0828   16.5017 N   0  0  0  0  0  0  0  0  0  0  0  0
   51.0372    5.6623   17.0335 C   0  0  0  0  0  0  0  0  0  0  0  0
   49.9589    5.8761   18.0653 C   0  0  0  0  0  0  0  0  0  0  0  0
   49.4338    4.8678   18.6103 O   0  0  0  0  0  0  0  0  0  0  0  0
   49.5516    7.1987   18.4723 N   0  0  0  0  0  0  0  0  0  0  0  0
   49.6553    8.3309   17.5314 C   0  0  0  0  0  0  0  0  0  0  0  0
   49.2539    7.4535   19.8947 C   0  0  0  0  0  0  0  0  0  0  0  0
   48.0029    8.3283   20.0377 C   0  0  0  0  0  0  0  0  0  0  0  0
   48.0878    9.4527   19.1124 N   0  0  0  0  0  0  0  0  0  0  0  0
   48.7807    9.4645   17.9666 C   0  0  0  0  0  0  0  0  0  0  0  0
   47.4228   10.6229   19.0927 C   0  0  0  0  0  0  0  0  0  0  0  0
   47.7304   11.3332   17.9866 N   0  0  0  0  0  0  0  0  0  0  0  0
   48.5837   10.6042   17.2775 N   0  0  0  0  0  0  0  0  0  0  0  0
   51.4701    0.4333   17.9505 F   0  0  0  0  0  0  0  0  0  0  0  0
   53.9373   -0.2260   16.9103 F   0  0  0  0  0  0  0  0  0  0  0  0
   55.4577    4.2261   17.6303 F   0  0  0  0  0  0  0  0  0  0  0  0
   46.4727   11.0901   20.1525 C   0  0  0  0  0  0  0  0  0  0  0  0
   47.1589   11.2819   21.3368 F   0  0  0  0  0  0  0  0  0  0  0  0
   45.4843   10.1427   20.3433 F   0  0  0  0  0  0  0  0  0  0  0  0
   45.8844   12.2834   19.7737 F   0  0  0  0  0  0  0  0  0  0  0  0
   55.6722    1.7411   16.8609 H   0  0  0  0  0  0  0  0  0  0  0  0
   51.2283    2.9139   18.7254 H   0  0  0  0  0  0  0  0  0  0  0  0
   53.8463    5.4900   19.1544 H   0  0  0  0  0  0  0  0  0  0  0  0
   52.1740    5.0474   19.5262 H   0  0  0  0  0  0  0  0  0  0  0  0
   52.3789    7.0329   18.0405 H   0  0  0  0  0  0  0  0  0  0  0  0
   53.2011    6.9073   15.8974 H   0  0  0  0  0  0  0  0  0  0  0  0
   53.3365    5.2325   15.8984 H   0  0  0  0  0  0  0  0  0  0  0  0
   50.8198    6.2856   16.1420 H   0  0  0  0  0  0  0  0  0  0  0  0
   51.0206    4.6089   16.6812 H   0  0  0  0  0  0  0  0  0  0  0  0
   49.3178    8.0150   16.5216 H   0  0  0  0  0  0  0  0  0  0  0  0
   50.7070    8.6804   17.4756 H   0  0  0  0  0  0  0  0  0  0  0  0
   50.1211    7.9760   20.3535 H   0  0  0  0  0  0  0  0  0  0  0  0
   49.0949    6.5073   20.4553 H   0  0  0  0  0  0  0  0  0  0  0  0
   47.1000    7.7268   19.7977 H   0  0  0  0  0  0  0  0  0  0  0  0
   47.9248    8.6957   21.0831 H   0  0  0  0  0  0  0  0  0  0  0  0
  1  2  2  0
  2  3  1  0
  3  4  2  0
  4  5  1  0
  5  6  2  0
  1  6  1  0
  7  8  1  0
  8  9  1  0
  5  7  1  0
 10 11  1  0
 11 12  2  0
  8 10  1  0
 13 14  1  0
 11 13  1  0
 15 16  1  0
 16 17  1  0
 17 18  1  0
 14 18  1  0
 13 15  1  0
 19 20  2  0
 20 21  1  0
 17 19  1  0
 18 21  2  0
  1 22  1  0
  2 23  1  0
  4 24  1  0
 19 25  1  0
 25 26  1  0
 25 27  1  0
 25 28  1  0
  3 29  1  0
  6 30  1  0
  7 31  1  0
  7 32  1  0
  8 33  1  6
  9 34  1  0
  9 35  1  0
 10 36  1  0
 10 37  1  0
 14 38  1  0
 14 39  1  0
 15 40  1  0
 15 41  1  0
 16 42  1  0
 16 43  1  0
M  END
> <Uni-Dock RESULT> 
ENERGY=   -3.901  LOWER_BOUND=    6.906  UPPER_BOUND=    8.359
INTER + INTRA:          -3.901
INTER:                  -3.901
INTRA:                   0.000
UNBOUND:                 0.000

$$$$

     RDKit          3D

 43 45  0  0  0  0  0  0  0  0999 V2000
   50.6124   12.3630   15.6828 C   0  0  0  0  0  0  0  0  0  0  0  0
   51.9951   12.5515   15.7581 C   0  0  0  0  0  0  0  0  0  0  0  0
   52.8483   11.7877   14.9577 C   0  0  0  0  0  0  0  0  0  0  0  0
   52.3238   10.8305   14.0830 C   0  0  0  0  0  0  0  0  0  0  0  0
   50.9318   10.6266   14.0073 C   0  0  0  0  0  0  0  0  0  0  0  0
   50.0824   11.4078   14.8101 C   0  0  0  0  0  0  0  0  0  0  0  0
   50.3513    9.5862   13.0749 C   0  0  0  0  0  0  0  0  0  0  0  0
   50.2692    8.1684   13.6896 C   0  0  1  0  0  0  0  0  0  0  0  0
   51.5963    7.7153   14.1161 N   0  0  0  0  0  0  0  0  0  0  0  0
   49.2505    8.0565   14.8488 C   0  0  0  0  0  0  0  0  0  0  0  0
   47.8329    8.2325   14.3667 C   0  0  0  0  0  0  0  0  0  0  0  0
   47.2333    9.3098   14.6298 O   0  0  0  0  0  0  0  0  0  0  0  0
   47.1701    7.2226   13.5783 N   0  0  0  0  0  0  0  0  0  0  0  0
   47.5336    5.8008   13.7338 C   0  0  0  0  0  0  0  0  0  0  0  0
   46.3017    7.6383   12.4603 C   0  0  0  0  0  0  0  0  0  0  0  0
   45.0207    6.7966   12.4278 C   0  0  0  0  0  0  0  0  0  0  0  0
   45.3616    5.3868   12.5824 N   0  0  0  0  0  0  0  0  0  0  0  0
   46.4525    4.9150   13.1993 C   0  0  0  0  0  0  0  0  0  0  0  0
   44.6509    4.2781   12.3034 C   0  0  0  0  0  0  0  0  0  0  0  0
   45.3073    3.1703   12.7088 N   0  0  0  0  0  0  0  0  0  0  0  0
   46.4403    3.5707   13.2734 N   0  0  0  0  0  0  0  0  0  0  0  0
   49.7821   13.1072   16.4546 F   0  0  0  0  0  0  0  0  0  0  0  0
   52.5104   13.4779   16.6038 F   0  0  0  0  0  0  0  0  0  0  0  0
   53.1730   10.1072   13.3097 F   0  0  0  0  0  0  0  0  0  0  0  0
   43.3141    4.2609   11.6276 C   0  0  0  0  0  0  0  0  0  0  0  0
   43.4433    4.7335   10.3352 F   0  0  0  0  0  0  0  0  0  0  0  0
   42.4294    5.0637   12.3232 F   0  0  0  0  0  0  0  0  0  0  0  0
   42.8156    2.9712   11.5885 F   0  0  0  0  0  0  0  0  0  0  0  0
   53.9188   11.9384   15.0138 H   0  0  0  0  0  0  0  0  0  0  0  0
   49.0096   11.2793   14.7591 H   0  0  0  0  0  0  0  0  0  0  0  0
   50.9701    9.5370   12.1524 H   0  0  0  0  0  0  0  0  0  0  0  0
   49.3411    9.9049   12.7371 H   0  0  0  0  0  0  0  0  0  0  0  0
   49.9335    7.4920   12.8720 H   0  0  0  0  0  0  0  0  0  0  0  0
   51.5570    6.6834   14.2845 H   0  0  0  0  0  0  0  0  0  0  0  0
   51.8421    8.1623   15.0295 H   0  0  0  0  0  0  0  0  0  0  0  0
   49.3512    7.0651   15.3362 H   0  0  0  0  0  0  0  0  0  0  0  0
   49.4793    8.8078   15.6343 H   0  0  0  0  0  0  0  0  0  0  0  0
   47.6637    5.5597   14.8101 H   0  0  0  0  0  0  0  0  0  0  0  0
   48.4796    5.5915   13.1926 H   0  0  0  0  0  0  0  0  0  0  0  0
   46.8557    7.5000   11.5066 H   0  0  0  0  0  0  0  0  0  0  0  0
   46.0230    8.7114   12.5359 H   0  0  0  0  0  0  0  0  0  0  0  0
   44.3538    7.1033   13.2620 H   0  0  0  0  0  0  0  0  0  0  0  0
   44.4931    6.9612   11.4643 H   0  0  0  0  0  0  0  0  0  0  0  0
  1  2  2  0
  2  3  1  0
  3  4  2  0
  4  5  1  0
  5  6  2  0
  1  6  1  0
  7  8  1  0
  8  9  1  0
  5  7  1  0
 10 11  1  0
 11 12  2  0
  8 10  1  0
 13 14  1  0
 11 13  1  0
 15 16  1  0
 16 17  1  0
 17 18  1  0
 14 18  1  0
 13 15  1  0
 19 20  2  0
 20 21  1  0
 17 19  1  0
 18 21  2  0
  1 22  1  0
  2 23  1  0
  4 24  1  0
 19 25  1  0
 25 26  1  0
 25 27  1  0
 25 28  1  0
  3 29  1  0
  6 30  1  0
  7 31  1  0
  7 32  1  0
  8 33  1  6
  9 34  1  0
  9 35  1  0
 10 36  1  0
 10 37  1  0
 14 38  1  0
 14 39  1  0
 15 40  1  0
 15 41  1  0
 16 42  1  0
 16 43  1  0
M  END
> <Uni-Dock RESULT> 
ENERGY=   -3.826  LOWER_BOUND=    2.030  UPPER_BOUND=    9.283
INTER + INTRA:          -3.826
INTER:                  -3.826
INTRA:                   0.000
UNBOUND:                 0.000

$$$$

     RDKit          3D

 43 45  0  0  0  0  0  0  0  0999 V2000
   50.8279    3.6600   17.5811 C   0  0  0  0  0  0  0  0  0  0  0  0
   49.9676    2.5987   17.2872 C   0  0  0  0  0  0  0  0  0  0  0  0
   48.5858    2.8049   17.2684 C   0  0  0  0  0  0  0  0  0  0  0  0
   48.0589    4.0702   17.5473 C   0  0  0  0  0  0  0  0  0  0  0  0
   48.9180    5.1438   17.8542 C   0  0  0  0  0  0  0  0  0  0  0  0
   50.3070    4.9271   17.8605 C   0  0  0  0  0  0  0  0  0  0  0  0
   48.3616    6.5148   18.1700 C   0  0  0  0  0  0  0  0  0  0  0  0
   47.9942    6.7151   19.6599 C   0  0  1  0  0  0  0  0  0  0  0  0
   47.0156    5.7112   20.0877 N   0  0  0  0  0  0  0  0  0  0  0  0
   49.2214    6.7240   20.6022 C   0  0  0  0  0  0  0  0  0  0  0  0
   50.0977    7.9283   20.3681 C   0  0  0  0  0  0  0  0  0  0  0  0
   51.2002    7.7693   19.7777 O   0  0  0  0  0  0  0  0  0  0  0  0
   49.6845    9.2535   20.7603 N   0  0  0  0  0  0  0  0  0  0  0  0
   48.7762    9.4396   21.9085 C   0  0  0  0  0  0  0  0  0  0  0  0
   49.9850   10.3927   19.8722 C   0  0  0  0  0  0  0  0  0  0  0  0
   50.4613   11.6021   20.6852 C   0  0  0  0  0  0  0  0  0  0  0  0
   49.5750   11.7998   21.8267 N   0  0  0  0  0  0  0  0  0  0  0  0
   48.8472   10.8444   22.4191 C   0  0  0  0  0  0  0  0  0  0  0  0
   49.3891   12.8747   22.6154 C   0  0  0  0  0  0  0  0  0  0  0  0
   48.5493   12.5865   23.6325 N   0  0  0  0  0  0  0  0  0  0  0  0
   48.2091   11.3091   23.5098 N   0  0  0  0  0  0  0  0  0  0  0  0
   52.1697    3.4634   17.5944 F   0  0  0  0  0  0  0  0  0  0  0  0
   50.4716    1.3693   17.0158 F   0  0  0  0  0  0  0  0  0  0  0  0
   46.7136    4.2470   17.5142 F   0  0  0  0  0  0  0  0  0  0  0  0
   50.0169   14.2177   22.4009 C   0  0  0  0  0  0  0  0  0  0  0  0
   49.5474   14.7645   21.2215 F   0  0  0  0  0  0  0  0  0  0  0  0
   51.3910   14.0842   22.3294 F   0  0  0  0  0  0  0  0  0  0  0  0
   49.7014   15.0649   23.4478 F   0  0  0  0  0  0  0  0  0  0  0  0
   47.9211    1.9828   17.0357 H   0  0  0  0  0  0  0  0  0  0  0  0
   50.9871    5.7392   18.0793 H   0  0  0  0  0  0  0  0  0  0  0  0
   47.4524    6.6903   17.5544 H   0  0  0  0  0  0  0  0  0  0  0  0
   49.0868    7.2970   17.8567 H   0  0  0  0  0  0  0  0  0  0  0  0
   47.5016    7.7107   19.7294 H   0  0  0  0  0  0  0  0  0  0  0  0
   46.6005    6.0183   20.9976 H   0  0  0  0  0  0  0  0  0  0  0  0
   47.5021    4.8026   20.2677 H   0  0  0  0  0  0  0  0  0  0  0  0
   48.8785    6.7200   21.6572 H   0  0  0  0  0  0  0  0  0  0  0  0
   49.8134    5.7935   20.4698 H   0  0  0  0  0  0  0  0  0  0  0  0
   49.0742    8.7651   22.7390 H   0  0  0  0  0  0  0  0  0  0  0  0
   47.7331    9.2124   21.6056 H   0  0  0  0  0  0  0  0  0  0  0  0
   49.0622   10.6654   19.3156 H   0  0  0  0  0  0  0  0  0  0  0  0
   50.7657   10.1340   19.1248 H   0  0  0  0  0  0  0  0  0  0  0  0
   51.4935   11.4185   21.0535 H   0  0  0  0  0  0  0  0  0  0  0  0
   50.4636   12.5057   20.0393 H   0  0  0  0  0  0  0  0  0  0  0  0
  1  2  2  0
  2  3  1  0
  3  4  2  0
  4  5  1  0
  5  6  2  0
  1  6  1  0
  7  8  1  0
  8  9  1  0
  5  7  1  0
 10 11  1  0
 11 12  2  0
  8 10  1  0
 13 14  1  0
 11 13  1  0
 15 16  1  0
 16 17  1  0
 17 18  1  0
 14 18  1  0
 13 15  1  0
 19 20  2  0
 20 21  1  0
 17 19  1  0
 18 21  2  0
  1 22  1  0
  2 23  1  0
  4 24  1  0
 19 25  1  0
 25 26  1  0
 25 27  1  0
 25 28  1  0
  3 29  1  0
  6 30  1  0
  7 31  1  0
  7 32  1  0
  8 33  1  6
  9 34  1  0
  9 35  1  0
 10 36  1  0
 10 37  1  0
 14 38  1  0
 14 39  1  0
 15 40  1  0
 15 41  1  0
 16 42  1  0
 16 43  1  0
M  END
> <Uni-Dock RESULT> 
ENERGY=   -3.761  LOWER_BOUND=    6.281  UPPER_BOUND=    7.644
INTER + INTRA:          -3.761
INTER:                  -3.761
INTRA:                   0.000
UNBOUND:                 0.000

$$$$

     RDKit          3D

 43 45  0  0  0  0  0  0  0  0999 V2000
   50.7431   11.2495   10.3201 C   0  0  0  0  0  0  0  0  0  0  0  0
   49.9830   12.0187    9.4348 C   0  0  0  0  0  0  0  0  0  0  0  0
   48.6304   12.2512    9.6964 C   0  0  0  0  0  0  0  0  0  0  0  0
   48.0317   11.7128   10.8401 C   0  0  0  0  0  0  0  0  0  0  0  0
   48.7877   10.9280   11.7332 C   0  0  0  0  0  0  0  0  0  0  0  0
   50.1502   10.7089   11.4651 C   0  0  0  0  0  0  0  0  0  0  0  0
   48.1504   10.3290   12.9677 C   0  0  0  0  0  0  0  0  0  0  0  0
   47.4821    8.9545   12.7250 C   0  0  1  0  0  0  0  0  0  0  0  0
   46.4575    9.0579   11.6819 N   0  0  0  0  0  0  0  0  0  0  0  0
   48.4902    7.8277   12.3965 C   0  0  0  0  0  0  0  0  0  0  0  0
   49.3710    7.5036   13.5764 C   0  0  0  0  0  0  0  0  0  0  0  0
   50.5739    7.8802   13.5556 O   0  0  0  0  0  0  0  0  0  0  0  0
   48.8592    6.8186   14.7381 N   0  0  0  0  0  0  0  0  0  0  0  0
   47.7317    5.8753   14.6083 C   0  0  0  0  0  0  0  0  0  0  0  0
   49.3115    7.2390   16.0781 C   0  0  0  0  0  0  0  0  0  0  0  0
   49.5865    6.0186   16.9643 C   0  0  0  0  0  0  0  0  0  0  0  0
   48.4816    5.0736   16.8465 N   0  0  0  0  0  0  0  0  0  0  0  0
   47.6679    4.9585   15.7892 C   0  0  0  0  0  0  0  0  0  0  0  0
   48.1164    4.0497   17.6404 C   0  0  0  0  0  0  0  0  0  0  0  0
   47.0925    3.3589   17.0954 N   0  0  0  0  0  0  0  0  0  0  0  0
   46.8109    3.9298   15.9304 N   0  0  0  0  0  0  0  0  0  0  0  0
   52.0575   11.0273   10.0712 F   0  0  0  0  0  0  0  0  0  0  0  0
   50.5570   12.5439    8.3241 F   0  0  0  0  0  0  0  0  0  0  0  0
   46.7183   11.9602   11.0764 F   0  0  0  0  0  0  0  0  0  0  0  0
   48.7471    3.7152   18.9574 C   0  0  0  0  0  0  0  0  0  0  0  0
   48.5176    4.7417   19.8540 F   0  0  0  0  0  0  0  0  0  0  0  0
   50.1092    3.5461   18.7926 F   0  0  0  0  0  0  0  0  0  0  0  0
   48.2068    2.5461   19.4621 F   0  0  0  0  0  0  0  0  0  0  0  0
   48.0443   12.8513    9.0122 H   0  0  0  0  0  0  0  0  0  0  0  0
   50.7544   10.1216   12.1434 H   0  0  0  0  0  0  0  0  0  0  0  0
   47.3829   11.0317   13.3596 H   0  0  0  0  0  0  0  0  0  0  0  0
   48.9081   10.2373   13.7760 H   0  0  0  0  0  0  0  0  0  0  0  0
   46.9653    8.6862   13.6735 H   0  0  0  0  0  0  0  0  0  0  0  0
   45.8589    8.2006   11.7178 H   0  0  0  0  0  0  0  0  0  0  0  0
   46.9155    9.0687   10.7412 H   0  0  0  0  0  0  0  0  0  0  0  0
   47.9391    6.9153   12.0893 H   0  0  0  0  0  0  0  0  0  0  0  0
   49.1158    8.1149   11.5247 H   0  0  0  0  0  0  0  0  0  0  0  0
   47.8673    5.2470   13.7025 H   0  0  0  0  0  0  0  0  0  0  0  0
   46.7774    6.4360   14.5280 H   0  0  0  0  0  0  0  0  0  0  0  0
   48.5166    7.8598   16.5454 H   0  0  0  0  0  0  0  0  0  0  0  0
   50.2336    7.8568   16.0235 H   0  0  0  0  0  0  0  0  0  0  0  0
   50.5252    5.5240   16.6340 H   0  0  0  0  0  0  0  0  0  0  0  0
   49.7023    6.3450   18.0197 H   0  0  0  0  0  0  0  0  0  0  0  0
  1  2  2  0
  2  3  1  0
  3  4  2  0
  4  5  1  0
  5  6  2  0
  1  6  1  0
  7  8  1  0
  8  9  1  0
  5  7  1  0
 10 11  1  0
 11 12  2  0
  8 10  1  0
 13 14  1  0
 11 13  1  0
 15 16  1  0
 16 17  1  0
 17 18  1  0
 14 18  1  0
 13 15  1  0
 19 20  2  0
 20 21  1  0
 17 19  1  0
 18 21  2  0
  1 22  1  0
  2 23  1  0
  4 24  1  0
 19 25  1  0
 25 26  1  0
 25 27  1  0
 25 28  1  0
  3 29  1  0
  6 30  1  0
  7 31  1  0
  7 32  1  0
  8 33  1  6
  9 34  1  0
  9 35  1  0
 10 36  1  0
 10 37  1  0
 14 38  1  0
 14 39  1  0
 15 40  1  0
 15 41  1  0
 16 42  1  0
 16 43  1  0
M  END
> <Uni-Dock RESULT> 
ENERGY=   -3.668  LOWER_BOUND=    4.742  UPPER_BOUND=    7.259
INTER + INTRA:          -3.668
INTER:                  -3.668
INTRA:                   0.000
UNBOUND:                 0.000

$$$$
