
     RDKit          3D

 43 45  0  0  0  0  0  0  0  0999 V2000
   45.7674    2.2753    8.2188 C   0  0  0  0  0  0  0  0  0  0  0  0
   46.4380    3.4094    7.7528 C   0  0  0  0  0  0  0  0  0  0  0  0
   46.1317    4.6667    8.2789 C   0  0  0  0  0  0  0  0  0  0  0  0
   45.1590    4.7951    9.2754 C   0  0  0  0  0  0  0  0  0  0  0  0
   44.4872    3.6561    9.7618 C   0  0  0  0  0  0  0  0  0  0  0  0
   44.7954    2.3971    9.2165 C   0  0  0  0  0  0  0  0  0  0  0  0
   43.4539    3.7711   10.8620 C   0  0  0  0  0  0  0  0  0  0  0  0
   44.0006    3.4009   12.2642 C   0  0  1  0  0  0  0  0  0  0  0  0
   44.4583    2.0091   12.2819 N   0  0  0  0  0  0  0  0  0  0  0  0
   45.1464    4.3330   12.7238 C   0  0  0  0  0  0  0  0  0  0  0  0
   44.7086    5.7688   12.9102 C   0  0  0  0  0  0  0  0  0  0  0  0
   43.5657    5.9984   13.3939 O   0  0  0  0  0  0  0  0  0  0  0  0
   45.5814    6.8788   12.6019 N   0  0  0  0  0  0  0  0  0  0  0  0
   44.9436    8.1790   12.3001 C   0  0  0  0  0  0  0  0  0  0  0  0
   47.0330    6.6563   12.4132 C   0  0  0  0  0  0  0  0  0  0  0  0
   47.8611    7.8923   12.7857 C   0  0  0  0  0  0  0  0  0  0  0  0
   47.2589    9.0732   12.1880 N   0  0  0  0  0  0  0  0  0  0  0  0
   45.9500    9.2362   11.9817 C   0  0  0  0  0  0  0  0  0  0  0  0
   47.7838   10.2736   11.8803 C   0  0  0  0  0  0  0  0  0  0  0  0
   46.8210   11.1288   11.4751 N   0  0  0  0  0  0  0  0  0  0  0  0
   45.6657   10.4779   11.5452 N   0  0  0  0  0  0  0  0  0  0  0  0
   46.0581    1.0547    7.7044 F   0  0  0  0  0  0  0  0  0  0  0  0
   47.3817    3.2925    6.7860 F   0  0  0  0  0  0  0  0  0  0  0  0
   44.8682    6.0300    9.7534 F   0  0  0  0  0  0  0  0  0  0  0  0
   49.2355   10.6293   11.9793 C   0  0  0  0  0  0  0  0  0  0  0  0
   49.4220   11.9645   11.6701 F   0  0  0  0  0  0  0  0  0  0  0  0
   49.6847   10.3987   13.2662 F   0  0  0  0  0  0  0  0  0  0  0  0
   49.9626    9.8560   11.0941 F   0  0  0  0  0  0  0  0  0  0  0  0
   46.6469    5.5450    7.9117 H   0  0  0  0  0  0  0  0  0  0  0  0
   44.2814    1.5094    9.5629 H   0  0  0  0  0  0  0  0  0  0  0  0
   42.5979    3.1031   10.6221 H   0  0  0  0  0  0  0  0  0  0  0  0
   43.0293    4.7975   10.8878 H   0  0  0  0  0  0  0  0  0  0  0  0
   43.1599    3.4952   12.9894 H   0  0  0  0  0  0  0  0  0  0  0  0
   43.6445    1.3916   12.0566 H   0  0  0  0  0  0  0  0  0  0  0  0
   44.7372    1.7625   13.2595 H   0  0  0  0  0  0  0  0  0  0  0  0
   45.5403    3.9766   13.6997 H   0  0  0  0  0  0  0  0  0  0  0  0
   45.9746    4.2639   11.9889 H   0  0  0  0  0  0  0  0  0  0  0  0
   44.2531    8.0652   11.4375 H   0  0  0  0  0  0  0  0  0  0  0  0
   44.3593    8.5170   13.1824 H   0  0  0  0  0  0  0  0  0  0  0  0
   47.3854    5.8175   13.0513 H   0  0  0  0  0  0  0  0  0  0  0  0
   47.2227    6.3944   11.3498 H   0  0  0  0  0  0  0  0  0  0  0  0
   48.9027    7.7634   12.4220 H   0  0  0  0  0  0  0  0  0  0  0  0
   47.8772    8.0123   13.8905 H   0  0  0  0  0  0  0  0  0  0  0  0
  1  2  2  0
  2  3  1  0
  3  4  2  0
  4  5  1  0
  5  6  2  0
  1  6  1  0
  7  8  1  0
  8  9  1  0
  5  7  1  0
 10 11  1  0
 11 12  2  0
  8 10  1  0
 13 14  1  0
 11 13  1  0
 15 16  1  0
 16 17  1  0
 17 18  1  0
 14 18  1  0
 13 15  1  0
 19 20  2  0
 20 21  1  0
 17 19  1  0
 18 21  2  0
  1 22  1  0
  2 23  1  0
  4 24  1  0
 19 25  1  0
 25 26  1  0
 25 27  1  0
 25 28  1  0
  3 29  1  0
  6 30  1  0
  7 31  1  0
  7 32  1  0
  8 33  1  1
  9 34  1  0
  9 35  1  0
 10 36  1  0
 10 37  1  0
 14 38  1  0
 14 39  1  0
 15 40  1  0
 15 41  1  0
 16 42  1  0
 16 43  1  0
M  END
> <Uni-Dock RESULT> 
ENERGY=   -5.220  LOWER_BOUND=    0.000  UPPER_BOUND=    0.000
INTER + INTRA:          -5.220
INTER:                  -5.220
INTRA:                   0.000
UNBOUND:                 0.000

$$$$

     RDKit          3D

 43 45  0  0  0  0  0  0  0  0999 V2000
   48.7113    3.3186   17.7130 C   0  0  0  0  0  0  0  0  0  0  0  0
   48.0105    4.2765   16.9752 C   0  0  0  0  0  0  0  0  0  0  0  0
   47.4659    5.3910   17.6177 C   0  0  0  0  0  0  0  0  0  0  0  0
   47.6236    5.5553   18.9975 C   0  0  0  0  0  0  0  0  0  0  0  0
   48.3403    4.6022   19.7479 C   0  0  0  0  0  0  0  0  0  0  0  0
   48.8740    3.4784   19.0925 C   0  0  0  0  0  0  0  0  0  0  0  0
   48.5483    4.7787   21.2369 C   0  0  0  0  0  0  0  0  0  0  0  0
   49.9443    5.3439   21.6028 C   0  0  1  0  0  0  0  0  0  0  0  0
   50.9982    4.4314   21.1517 N   0  0  0  0  0  0  0  0  0  0  0  0
   50.1898    6.7547   21.0177 C   0  0  0  0  0  0  0  0  0  0  0  0
   49.2537    7.8031   21.5767 C   0  0  0  0  0  0  0  0  0  0  0  0
   48.9346    7.7455   22.7965 O   0  0  0  0  0  0  0  0  0  0  0  0
   48.7612    8.8953   20.7684 N   0  0  0  0  0  0  0  0  0  0  0  0
   47.4947    9.5331   21.1898 C   0  0  0  0  0  0  0  0  0  0  0  0
   49.4077    9.2172   19.4758 C   0  0  0  0  0  0  0  0  0  0  0  0
   49.2721   10.7017   19.1149 C   0  0  0  0  0  0  0  0  0  0  0  0
   47.8966   11.1243   19.3244 N   0  0  0  0  0  0  0  0  0  0  0  0
   47.0862   10.6326   20.2646 C   0  0  0  0  0  0  0  0  0  0  0  0
   47.1971   12.1484   18.8019 C   0  0  0  0  0  0  0  0  0  0  0  0
   45.9881   12.2550   19.3931 N   0  0  0  0  0  0  0  0  0  0  0  0
   45.9207   11.3050   20.3184 N   0  0  0  0  0  0  0  0  0  0  0  0
   49.2346    2.2322   17.0925 F   0  0  0  0  0  0  0  0  0  0  0  0
   47.8529    4.1232   15.6371 F   0  0  0  0  0  0  0  0  0  0  0  0
   47.0674    6.6364   19.5975 F   0  0  0  0  0  0  0  0  0  0  0  0
   47.6855   13.0605   17.7187 C   0  0  0  0  0  0  0  0  0  0  0  0
   46.7549   14.0547   17.4761 F   0  0  0  0  0  0  0  0  0  0  0  0
   48.8776   13.6447   18.1042 F   0  0  0  0  0  0  0  0  0  0  0  0
   47.8837   12.3361   16.5584 F   0  0  0  0  0  0  0  0  0  0  0  0
   46.9173    6.1285   17.0460 H   0  0  0  0  0  0  0  0  0  0  0  0
   49.4150    2.7246   19.6503 H   0  0  0  0  0  0  0  0  0  0  0  0
   48.4167    3.7944   21.7371 H   0  0  0  0  0  0  0  0  0  0  0  0
   47.7587    5.4343   21.6625 H   0  0  0  0  0  0  0  0  0  0  0  0
   50.0003    5.4106   22.7137 H   0  0  0  0  0  0  0  0  0  0  0  0
   50.8642    3.5108   21.6301 H   0  0  0  0  0  0  0  0  0  0  0  0
   51.9196    4.7934   21.4898 H   0  0  0  0  0  0  0  0  0  0  0  0
   51.2269    7.0751   21.2550 H   0  0  0  0  0  0  0  0  0  0  0  0
   50.1066    6.6985   19.9129 H   0  0  0  0  0  0  0  0  0  0  0  0
   46.6868    8.7717   21.2260 H   0  0  0  0  0  0  0  0  0  0  0  0
   47.6204    9.9682   22.2042 H   0  0  0  0  0  0  0  0  0  0  0  0
   50.4936    8.9840   19.5139 H   0  0  0  0  0  0  0  0  0  0  0  0
   48.9424    8.6012   18.6763 H   0  0  0  0  0  0  0  0  0  0  0  0
   49.5656   10.8531   18.0543 H   0  0  0  0  0  0  0  0  0  0  0  0
   49.9410   11.3069   19.7640 H   0  0  0  0  0  0  0  0  0  0  0  0
  1  2  2  0
  2  3  1  0
  3  4  2  0
  4  5  1  0
  5  6  2  0
  1  6  1  0
  7  8  1  0
  8  9  1  0
  5  7  1  0
 10 11  1  0
 11 12  2  0
  8 10  1  0
 13 14  1  0
 11 13  1  0
 15 16  1  0
 16 17  1  0
 17 18  1  0
 14 18  1  0
 13 15  1  0
 19 20  2  0
 20 21  1  0
 17 19  1  0
 18 21  2  0
  1 22  1  0
  2 23  1  0
  4 24  1  0
 19 25  1  0
 25 26  1  0
 25 27  1  0
 25 28  1  0
  3 29  1  0
  6 30  1  0
  7 31  1  0
  7 32  1  0
  8 33  1  1
  9 34  1  0
  9 35  1  0
 10 36  1  0
 10 37  1  0
 14 38  1  0
 14 39  1  0
 15 40  1  0
 15 41  1  0
 16 42  1  0
 16 43  1  0
M  END
> <Uni-Dock RESULT> 
ENERGY=   -4.059  LOWER_BOUND=    7.756  UPPER_BOUND=    9.185
INTER + INTRA:          -4.059
INTER:                  -4.059
INTRA:                   0.000
UNBOUND:                 0.000

$$$$

     RDKit          3D

 43 45  0  0  0  0  0  0  0  0999 V2000
   49.0311    6.3796   20.6559 C   0  0  0  0  0  0  0  0  0  0  0  0
   47.7076    6.4045   20.2080 C   0  0  0  0  0  0  0  0  0  0  0  0
   47.3745    7.1191   19.0548 C   0  0  0  0  0  0  0  0  0  0  0  0
   48.3622    7.8065   18.3424 C   0  0  0  0  0  0  0  0  0  0  0  0
   49.7018    7.7759   18.7780 C   0  0  0  0  0  0  0  0  0  0  0  0
   50.0235    7.0631   19.9467 C   0  0  0  0  0  0  0  0  0  0  0  0
   50.7899    8.4876   18.0029 C   0  0  0  0  0  0  0  0  0  0  0  0
   51.6151    7.5455   17.0898 C   0  0  1  0  0  0  0  0  0  0  0  0
   52.2915    6.5222   17.8914 N   0  0  0  0  0  0  0  0  0  0  0  0
   50.7548    6.8682   15.9971 C   0  0  0  0  0  0  0  0  0  0  0  0
   50.1649    7.8498   15.0091 C   0  0  0  0  0  0  0  0  0  0  0  0
   50.8584    8.8406   14.6481 O   0  0  0  0  0  0  0  0  0  0  0  0
   48.8559    7.6545   14.4284 N   0  0  0  0  0  0  0  0  0  0  0  0
   48.1513    8.8543   13.9261 C   0  0  0  0  0  0  0  0  0  0  0  0
   48.1895    6.3353   14.5178 C   0  0  0  0  0  0  0  0  0  0  0  0
   47.2350    6.0884   13.3430 C   0  0  0  0  0  0  0  0  0  0  0  0
   46.4095    7.2677   13.1374 N   0  0  0  0  0  0  0  0  0  0  0  0
   46.8058    8.5215   13.3685 C   0  0  0  0  0  0  0  0  0  0  0  0
   45.2096    7.4148   12.5462 C   0  0  0  0  0  0  0  0  0  0  0  0
   44.8801    8.7202   12.4469 N   0  0  0  0  0  0  0  0  0  0  0  0
   45.8878    9.4173   12.9585 N   0  0  0  0  0  0  0  0  0  0  0  0
   49.3555    5.6925   21.7792 F   0  0  0  0  0  0  0  0  0  0  0  0
   46.7444    5.7411   20.8944 F   0  0  0  0  0  0  0  0  0  0  0  0
   48.0067    8.5078   17.2380 F   0  0  0  0  0  0  0  0  0  0  0  0
   44.3505    6.2919   12.0512 C   0  0  0  0  0  0  0  0  0  0  0  0
   43.2255    6.7933   11.4217 F   0  0  0  0  0  0  0  0  0  0  0  0
   45.0636    5.5217   11.1516 F   0  0  0  0  0  0  0  0  0  0  0  0
   43.9572    5.5056   13.1177 F   0  0  0  0  0  0  0  0  0  0  0  0
   46.3476    7.1434   18.7132 H   0  0  0  0  0  0  0  0  0  0  0  0
   51.0430    7.0381   20.3099 H   0  0  0  0  0  0  0  0  0  0  0  0
   51.4775    8.9839   18.7222 H   0  0  0  0  0  0  0  0  0  0  0  0
   50.3563    9.3094   17.3937 H   0  0  0  0  0  0  0  0  0  0  0  0
   52.3969    8.1613   16.5887 H   0  0  0  0  0  0  0  0  0  0  0  0
   52.9356    7.0014   18.5621 H   0  0  0  0  0  0  0  0  0  0  0  0
   52.9084    5.9594   17.2614 H   0  0  0  0  0  0  0  0  0  0  0  0
   51.3855    6.1567   15.4221 H   0  0  0  0  0  0  0  0  0  0  0  0
   49.9572    6.2765   16.4915 H   0  0  0  0  0  0  0  0  0  0  0  0
   48.0297    9.5888   14.7505 H   0  0  0  0  0  0  0  0  0  0  0  0
   48.7511    9.3226   13.1168 H   0  0  0  0  0  0  0  0  0  0  0  0
   48.9414    5.5170   14.5106 H   0  0  0  0  0  0  0  0  0  0  0  0
   47.6199    6.2826   15.4707 H   0  0  0  0  0  0  0  0  0  0  0  0
   46.5987    5.2047   13.5623 H   0  0  0  0  0  0  0  0  0  0  0  0
   47.8216    5.8901   12.4201 H   0  0  0  0  0  0  0  0  0  0  0  0
  1  2  2  0
  2  3  1  0
  3  4  2  0
  4  5  1  0
  5  6  2  0
  1  6  1  0
  7  8  1  0
  8  9  1  0
  5  7  1  0
 10 11  1  0
 11 12  2  0
  8 10  1  0
 13 14  1  0
 11 13  1  0
 15 16  1  0
 16 17  1  0
 17 18  1  0
 14 18  1  0
 13 15  1  0
 19 20  2  0
 20 21  1  0
 17 19  1  0
 18 21  2  0
  1 22  1  0
  2 23  1  0
  4 24  1  0
 19 25  1  0
 25 26  1  0
 25 27  1  0
 25 28  1  0
  3 29  1  0
  6 30  1  0
  7 31  1  0
  7 32  1  0
  8 33  1  1
  9 34  1  0
  9 35  1  0
 10 36  1  0
 10 37  1  0
 14 38  1  0
 14 39  1  0
 15 40  1  0
 15 41  1  0
 16 42  1  0
 16 43  1  0
M  END
> <Uni-Dock RESULT> 
ENERGY=   -3.829  LOWER_BOUND=    5.252  UPPER_BOUND=    8.764
INTER + INTRA:          -3.829
INTER:                  -3.829
INTRA:                   0.000
UNBOUND:                 0.000

$$$$

     RDKit          3D

 43 45  0  0  0  0  0  0  0  0999 V2000
   42.8681   12.5797    6.1933 C   0  0  0  0  0  0  0  0  0  0  0  0
   43.6558   11.4261    6.1515 C   0  0  0  0  0  0  0  0  0  0  0  0
   44.7098   11.2677    7.0546 C   0  0  0  0  0  0  0  0  0  0  0  0
   44.9773   12.2578    8.0052 C   0  0  0  0  0  0  0  0  0  0  0  0
   44.1802   13.4181    8.0645 C   0  0  0  0  0  0  0  0  0  0  0  0
   43.1293   13.5721    7.1429 C   0  0  0  0  0  0  0  0  0  0  0  0
   44.4346   14.4862    9.1066 C   0  0  0  0  0  0  0  0  0  0  0  0
   43.4786   14.4019   10.3237 C   0  0  1  0  0  0  0  0  0  0  0  0
   42.0890   14.5779    9.8937 N   0  0  0  0  0  0  0  0  0  0  0  0
   43.6195   13.0732   11.1031 C   0  0  0  0  0  0  0  0  0  0  0  0
   44.9797   12.8973   11.7407 C   0  0  0  0  0  0  0  0  0  0  0  0
   45.5545   13.9059   12.2359 O   0  0  0  0  0  0  0  0  0  0  0  0
   45.6111   11.6016   11.8463 N   0  0  0  0  0  0  0  0  0  0  0  0
   47.0849   11.5739   11.9722 C   0  0  0  0  0  0  0  0  0  0  0  0
   44.8196   10.3671   11.6415 C   0  0  0  0  0  0  0  0  0  0  0  0
   45.3858    9.1793   12.4294 C   0  0  0  0  0  0  0  0  0  0  0  0
   46.8259    9.1172   12.2378 N   0  0  0  0  0  0  0  0  0  0  0  0
   47.6140   10.1792   12.0551 C   0  0  0  0  0  0  0  0  0  0  0  0
   47.6910    8.0939   12.3626 C   0  0  0  0  0  0  0  0  0  0  0  0
   48.9643    8.5233   12.2331 N   0  0  0  0  0  0  0  0  0  0  0  0
   48.9164    9.8370   12.0460 N   0  0  0  0  0  0  0  0  0  0  0  0
   41.8489   12.7388    5.3129 F   0  0  0  0  0  0  0  0  0  0  0  0
   43.4028   10.4623    5.2317 F   0  0  0  0  0  0  0  0  0  0  0  0
   46.0189   12.0863    8.8561 F   0  0  0  0  0  0  0  0  0  0  0  0
   47.3075    6.6691   12.6209 C   0  0  0  0  0  0  0  0  0  0  0  0
   48.4401    5.8908   12.7780 F   0  0  0  0  0  0  0  0  0  0  0  0
   46.5463    6.5932   13.7723 F   0  0  0  0  0  0  0  0  0  0  0  0
   46.5740    6.1868   11.5533 F   0  0  0  0  0  0  0  0  0  0  0  0
   45.3235   10.3769    7.0163 H   0  0  0  0  0  0  0  0  0  0  0  0
   42.5131   14.4620    7.1586 H   0  0  0  0  0  0  0  0  0  0  0  0
   44.3241   15.4853    8.6313 H   0  0  0  0  0  0  0  0  0  0  0  0
   45.4878   14.4408    9.4575 H   0  0  0  0  0  0  0  0  0  0  0  0
   43.7340   15.2405   11.0115 H   0  0  0  0  0  0  0  0  0  0  0  0
   41.9981   15.5211    9.4502 H   0  0  0  0  0  0  0  0  0  0  0  0
   41.4785   14.6057   10.7427 H   0  0  0  0  0  0  0  0  0  0  0  0
   42.8645   13.0439   11.9178 H   0  0  0  0  0  0  0  0  0  0  0  0
   43.3937   12.2336   10.4140 H   0  0  0  0  0  0  0  0  0  0  0  0
   47.5442   12.0839   11.0988 H   0  0  0  0  0  0  0  0  0  0  0  0
   47.3862   12.1100   12.8973 H   0  0  0  0  0  0  0  0  0  0  0  0
   43.7705   10.5162   11.9765 H   0  0  0  0  0  0  0  0  0  0  0  0
   44.8121   10.1188   10.5582 H   0  0  0  0  0  0  0  0  0  0  0  0
   44.9083    8.2402   12.0774 H   0  0  0  0  0  0  0  0  0  0  0  0
   45.1685    9.3107   13.5113 H   0  0  0  0  0  0  0  0  0  0  0  0
  1  2  2  0
  2  3  1  0
  3  4  2  0
  4  5  1  0
  5  6  2  0
  1  6  1  0
  7  8  1  0
  8  9  1  0
  5  7  1  0
 10 11  1  0
 11 12  2  0
  8 10  1  0
 13 14  1  0
 11 13  1  0
 15 16  1  0
 16 17  1  0
 17 18  1  0
 14 18  1  0
 13 15  1  0
 19 20  2  0
 20 21  1  0
 17 19  1  0
 18 21  2  0
  1 22  1  0
  2 23  1  0
  4 24  1  0
 19 25  1  0
 25 26  1  0
 25 27  1  0
 25 28  1  0
  3 29  1  0
  6 30  1  0
  7 31  1  0
  7 32  1  0
  8 33  1  1
  9 34  1  0
  9 35  1  0
 10 36  1  0
 10 37  1  0
 14 38  1  0
 14 39  1  0
 15 40  1  0
 15 41  1  0
 16 42  1  0
 16 43  1  0
M  END
> <Uni-Dock RESULT> 
ENERGY=   -3.771  LOWER_BOUND=    4.795  UPPER_BOUND=    7.602
INTER + INTRA:          -3.771
INTER:                  -3.771
INTRA:                   0.000
UNBOUND:                 0.000

$$$$

     RDKit          3D

 43 45  0  0  0  0  0  0  0  0999 V2000
   44.6726    5.9983   12.2219 C   0  0  0  0  0  0  0  0  0  0  0  0
   44.9881    5.0007   13.1484 C   0  0  0  0  0  0  0  0  0  0  0  0
   46.2694    4.9423   13.7018 C   0  0  0  0  0  0  0  0  0  0  0  0
   47.2379    5.8825   13.3361 C   0  0  0  0  0  0  0  0  0  0  0  0
   46.9254    6.9005   12.4134 C   0  0  0  0  0  0  0  0  0  0  0  0
   45.6360    6.9424   11.8540 C   0  0  0  0  0  0  0  0  0  0  0  0
   47.9507    7.9457   12.0291 C   0  0  0  0  0  0  0  0  0  0  0  0
   47.7710    9.2915   12.7766 C   0  0  1  0  0  0  0  0  0  0  0  0
   46.4626    9.8749   12.4690 N   0  0  0  0  0  0  0  0  0  0  0  0
   47.9323    9.1502   14.3085 C   0  0  0  0  0  0  0  0  0  0  0  0
   49.3232    8.7259   14.7250 C   0  0  0  0  0  0  0  0  0  0  0  0
   50.3142    9.1858   14.0930 O   0  0  0  0  0  0  0  0  0  0  0  0
   49.5488    7.8557   15.8565 N   0  0  0  0  0  0  0  0  0  0  0  0
   50.8096    7.0820   15.8759 C   0  0  0  0  0  0  0  0  0  0  0  0
   48.4695    7.6185   16.8420 C   0  0  0  0  0  0  0  0  0  0  0  0
   49.0200    7.3013   18.2379 C   0  0  0  0  0  0  0  0  0  0  0  0
   50.0815    6.3141   18.1238 N   0  0  0  0  0  0  0  0  0  0  0  0
   50.9137    6.2107   17.0850 C   0  0  0  0  0  0  0  0  0  0  0  0
   50.5802    5.4444   19.0217 C   0  0  0  0  0  0  0  0  0  0  0  0
   51.6679    4.8155   18.5278 N   0  0  0  0  0  0  0  0  0  0  0  0
   51.8818    5.3025   17.3112 N   0  0  0  0  0  0  0  0  0  0  0  0
   43.4315    6.0525   11.6780 F   0  0  0  0  0  0  0  0  0  0  0  0
   44.0543    4.0851   13.5069 F   0  0  0  0  0  0  0  0  0  0  0  0
   48.4788    5.7897   13.8742 F   0  0  0  0  0  0  0  0  0  0  0  0
   50.0208    5.2047   20.3904 C   0  0  0  0  0  0  0  0  0  0  0  0
   50.8196    4.3128   21.0831 F   0  0  0  0  0  0  0  0  0  0  0  0
   49.9687    6.3972   21.0877 F   0  0  0  0  0  0  0  0  0  0  0  0
   48.7468    4.6795   20.2838 F   0  0  0  0  0  0  0  0  0  0  0  0
   46.5144    4.1647   14.4138 H   0  0  0  0  0  0  0  0  0  0  0  0
   45.3771    7.7056   11.1311 H   0  0  0  0  0  0  0  0  0  0  0  0
   47.8824    8.1305   10.9347 H   0  0  0  0  0  0  0  0  0  0  0  0
   48.9787    7.5601   12.1999 H   0  0  0  0  0  0  0  0  0  0  0  0
   48.5547    9.9909   12.4047 H   0  0  0  0  0  0  0  0  0  0  0  0
   46.4117   10.0452   11.4380 H   0  0  0  0  0  0  0  0  0  0  0  0
   46.4062   10.8199   12.9139 H   0  0  0  0  0  0  0  0  0  0  0  0
   47.7253   10.1293   14.7912 H   0  0  0  0  0  0  0  0  0  0  0  0
   47.1720    8.4324   14.6793 H   0  0  0  0  0  0  0  0  0  0  0  0
   50.8728    6.4477   14.9663 H   0  0  0  0  0  0  0  0  0  0  0  0
   51.6720    7.7822   15.8831 H   0  0  0  0  0  0  0  0  0  0  0  0
   47.8239    8.5179   16.9377 H   0  0  0  0  0  0  0  0  0  0  0  0
   47.8425    6.7696   16.4932 H   0  0  0  0  0  0  0  0  0  0  0  0
   48.2002    6.9148   18.8802 H   0  0  0  0  0  0  0  0  0  0  0  0
   49.4316    8.2261   18.6965 H   0  0  0  0  0  0  0  0  0  0  0  0
  1  2  2  0
  2  3  1  0
  3  4  2  0
  4  5  1  0
  5  6  2  0
  1  6  1  0
  7  8  1  0
  8  9  1  0
  5  7  1  0
 10 11  1  0
 11 12  2  0
  8 10  1  0
 13 14  1  0
 11 13  1  0
 15 16  1  0
 16 17  1  0
 17 18  1  0
 14 18  1  0
 13 15  1  0
 19 20  2  0
 20 21  1  0
 17 19  1  0
 18 21  2  0
  1 22  1  0
  2 23  1  0
  4 24  1  0
 19 25  1  0
 25 26  1  0
 25 27  1  0
 25 28  1  0
  3 29  1  0
  6 30  1  0
  7 31  1  0
  7 32  1  0
  8 33  1  1
  9 34  1  0
  9 35  1  0
 10 36  1  0
 10 37  1  0
 14 38  1  0
 14 39  1  0
 15 40  1  0
 15 41  1  0
 16 42  1  0
 16 43  1  0
M  END
> <Uni-Dock RESULT> 
ENERGY=   -3.679  LOWER_BOUND=    5.392  UPPER_BOUND=    7.450
INTER + INTRA:          -3.679
INTER:                  -3.679
INTRA:                   0.000
UNBOUND:                 0.000

$$$$

     RDKit          3D

 43 45  0  0  0  0  0  0  0  0999 V2000
   48.3735   12.7972   17.1176 C   0  0  0  0  0  0  0  0  0  0  0  0
   48.7739   11.7738   16.2542 C   0  0  0  0  0  0  0  0  0  0  0  0
   49.3007   10.5888   16.7737 C   0  0  0  0  0  0  0  0  0  0  0  0
   49.4244   10.4198   18.1563 C   0  0  0  0  0  0  0  0  0  0  0  0
   49.0107   11.4401   19.0355 C   0  0  0  0  0  0  0  0  0  0  0  0
   48.4928   12.6332   18.5010 C   0  0  0  0  0  0  0  0  0  0  0  0
   49.1076   11.2631   20.5357 C   0  0  0  0  0  0  0  0  0  0  0  0
   47.7638   10.8682   21.1993 C   0  0  1  0  0  0  0  0  0  0  0  0
   46.7597   11.9121   20.9783 N   0  0  0  0  0  0  0  0  0  0  0  0
   47.2242    9.5096   20.6932 C   0  0  0  0  0  0  0  0  0  0  0  0
   48.1204    8.3434   21.0460 C   0  0  0  0  0  0  0  0  0  0  0  0
   48.6992    8.3384   22.1676 O   0  0  0  0  0  0  0  0  0  0  0  0
   48.2872    7.2138   20.1600 N   0  0  0  0  0  0  0  0  0  0  0  0
   49.5250    6.4166   20.3036 C   0  0  0  0  0  0  0  0  0  0  0  0
   47.3426    6.9983   19.0403 C   0  0  0  0  0  0  0  0  0  0  0  0
   47.2112    5.5154   18.6715 C   0  0  0  0  0  0  0  0  0  0  0  0
   48.5358    4.9222   18.5828 N   0  0  0  0  0  0  0  0  0  0  0  0
   49.5845    5.2923   19.3216 C   0  0  0  0  0  0  0  0  0  0  0  0
   48.9732    3.8293   17.9306 C   0  0  0  0  0  0  0  0  0  0  0  0
   50.2581    3.5631   18.2477 N   0  0  0  0  0  0  0  0  0  0  0  0
   50.6410    4.4802   19.1284 N   0  0  0  0  0  0  0  0  0  0  0  0
   47.8685   13.9512   16.6153 F   0  0  0  0  0  0  0  0  0  0  0  0
   48.6577   11.9311   14.9124 F   0  0  0  0  0  0  0  0  0  0  0  0
   49.9574    9.2673   18.6315 F   0  0  0  0  0  0  0  0  0  0  0  0
   48.1532    3.0048   16.9863 C   0  0  0  0  0  0  0  0  0  0  0  0
   48.8783    1.9078   16.5571 F   0  0  0  0  0  0  0  0  0  0  0  0
   47.0087    2.5654   17.6250 F   0  0  0  0  0  0  0  0  0  0  0  0
   47.8019    3.7695   15.8899 F   0  0  0  0  0  0  0  0  0  0  0  0
   49.6170    9.7999   16.1034 H   0  0  0  0  0  0  0  0  0  0  0  0
   48.1829   13.4377   19.1558 H   0  0  0  0  0  0  0  0  0  0  0  0
   49.4655   12.2142   20.9872 H   0  0  0  0  0  0  0  0  0  0  0  0
   49.8823   10.5072   20.7866 H   0  0  0  0  0  0  0  0  0  0  0  0
   47.9403   10.7883   22.2966 H   0  0  0  0  0  0  0  0  0  0  0  0
   47.1073   12.8002   21.4086 H   0  0  0  0  0  0  0  0  0  0  0  0
   45.8949   11.6607   21.5105 H   0  0  0  0  0  0  0  0  0  0  0  0
   46.2307    9.3156   21.1516 H   0  0  0  0  0  0  0  0  0  0  0  0
   47.0739    9.5756   19.5961 H   0  0  0  0  0  0  0  0  0  0  0  0
   50.4103    7.0715   20.1579 H   0  0  0  0  0  0  0  0  0  0  0  0
   49.5673    5.9817   21.3250 H   0  0  0  0  0  0  0  0  0  0  0  0
   46.3282    7.3632   19.3098 H   0  0  0  0  0  0  0  0  0  0  0  0
   47.6981    7.5668   18.1538 H   0  0  0  0  0  0  0  0  0  0  0  0
   46.6797    5.4211   17.7006 H   0  0  0  0  0  0  0  0  0  0  0  0
   46.6275    4.9857   19.4549 H   0  0  0  0  0  0  0  0  0  0  0  0
  1  2  2  0
  2  3  1  0
  3  4  2  0
  4  5  1  0
  5  6  2  0
  1  6  1  0
  7  8  1  0
  8  9  1  0
  5  7  1  0
 10 11  1  0
 11 12  2  0
  8 10  1  0
 13 14  1  0
 11 13  1  0
 15 16  1  0
 16 17  1  0
 17 18  1  0
 14 18  1  0
 13 15  1  0
 19 20  2  0
 20 21  1  0
 17 19  1  0
 18 21  2  0
  1 22  1  0
  2 23  1  0
  4 24  1  0
 19 25  1  0
 25 26  1  0
 25 27  1  0
 25 28  1  0
  3 29  1  0
  6 30  1  0
  7 31  1  0
  7 32  1  0
  8 33  1  1
  9 34  1  0
  9 35  1  0
 10 36  1  0
 10 37  1  0
 14 38  1  0
 14 39  1  0
 15 40  1  0
 15 41  1  0
 16 42  1  0
 16 43  1  0
M  END
> <Uni-Dock RESULT> 
ENERGY=   -3.669  LOWER_BOUND=    7.365  UPPER_BOUND=   10.891
INTER + INTRA:          -3.669
INTER:                  -3.669
INTRA:                   0.000
UNBOUND:                 0.000

$$$$

     RDKit          3D

 43 45  0  0  0  0  0  0  0  0999 V2000
   48.1003   11.7902   10.5734 C   0  0  0  0  0  0  0  0  0  0  0  0
   47.7114   11.9963   11.8998 C   0  0  0  0  0  0  0  0  0  0  0  0
   46.6083   12.8043   12.1861 C   0  0  0  0  0  0  0  0  0  0  0  0
   45.8872   13.4046   11.1492 C   0  0  0  0  0  0  0  0  0  0  0  0
   46.2629   13.1917    9.8081 C   0  0  0  0  0  0  0  0  0  0  0  0
   47.3819   12.3860    9.5324 C   0  0  0  0  0  0  0  0  0  0  0  0
   45.4758   13.8074    8.6710 C   0  0  0  0  0  0  0  0  0  0  0  0
   44.4849   12.8219    8.0008 C   0  0  1  0  0  0  0  0  0  0  0  0
   45.2077   11.6850    7.4246 N   0  0  0  0  0  0  0  0  0  0  0  0
   43.3997   12.3097    8.9769 C   0  0  0  0  0  0  0  0  0  0  0  0
   42.4851   13.4047    9.4794 C   0  0  0  0  0  0  0  0  0  0  0  0
   42.1415   14.3228    8.6844 O   0  0  0  0  0  0  0  0  0  0  0  0
   41.9528   13.3976   10.8230 N   0  0  0  0  0  0  0  0  0  0  0  0
   41.5381   14.6974   11.3947 C   0  0  0  0  0  0  0  0  0  0  0  0
   42.0087   12.1647   11.6410 C   0  0  0  0  0  0  0  0  0  0  0  0
   40.8657   12.0948   12.6612 C   0  0  0  0  0  0  0  0  0  0  0  0
   40.7515   13.3734   13.3443 N   0  0  0  0  0  0  0  0  0  0  0  0
   41.0238   14.5572   12.7903 C   0  0  0  0  0  0  0  0  0  0  0  0
   40.2199   13.6933   14.5386 C   0  0  0  0  0  0  0  0  0  0  0  0
   40.1963   15.0321   14.7104 N   0  0  0  0  0  0  0  0  0  0  0  0
   40.6962   15.5763   13.6072 N   0  0  0  0  0  0  0  0  0  0  0  0
   49.1751   11.0120   10.2936 F   0  0  0  0  0  0  0  0  0  0  0  0
   48.4066   11.4182   12.9104 F   0  0  0  0  0  0  0  0  0  0  0  0
   44.8332   14.1997   11.4575 F   0  0  0  0  0  0  0  0  0  0  0  0
   39.7102   12.7083   15.5455 C   0  0  0  0  0  0  0  0  0  0  0  0
   39.1539   13.3724   16.6238 F   0  0  0  0  0  0  0  0  0  0  0  0
   38.7456   11.9059   14.9651 F   0  0  0  0  0  0  0  0  0  0  0  0
   40.7546   11.9205   15.9917 F   0  0  0  0  0  0  0  0  0  0  0  0
   46.3127   12.9688   13.2144 H   0  0  0  0  0  0  0  0  0  0  0  0
   47.6993   12.2205    8.5106 H   0  0  0  0  0  0  0  0  0  0  0  0
   46.1874   14.1800    7.9020 H   0  0  0  0  0  0  0  0  0  0  0  0
   44.9251   14.7056    9.0238 H   0  0  0  0  0  0  0  0  0  0  0  0
   43.9801   13.3650    7.1691 H   0  0  0  0  0  0  0  0  0  0  0  0
   45.8719   12.0484    6.7025 H   0  0  0  0  0  0  0  0  0  0  0  0
   44.5261   11.0858    6.9044 H   0  0  0  0  0  0  0  0  0  0  0  0
   42.7653   11.5587    8.4591 H   0  0  0  0  0  0  0  0  0  0  0  0
   43.8996   11.7929    9.8217 H   0  0  0  0  0  0  0  0  0  0  0  0
   42.4005   15.3975   11.3955 H   0  0  0  0  0  0  0  0  0  0  0  0
   40.7266   15.1320   10.7728 H   0  0  0  0  0  0  0  0  0  0  0  0
   41.9307   11.2639   10.9949 H   0  0  0  0  0  0  0  0  0  0  0  0
   42.9817   12.1312   12.1771 H   0  0  0  0  0  0  0  0  0  0  0  0
   41.0705   11.2834   13.3917 H   0  0  0  0  0  0  0  0  0  0  0  0
   39.9102   11.8759   12.1377 H   0  0  0  0  0  0  0  0  0  0  0  0
  1  2  2  0
  2  3  1  0
  3  4  2  0
  4  5  1  0
  5  6  2  0
  1  6  1  0
  7  8  1  0
  8  9  1  0
  5  7  1  0
 10 11  1  0
 11 12  2  0
  8 10  1  0
 13 14  1  0
 11 13  1  0
 15 16  1  0
 16 17  1  0
 17 18  1  0
 14 18  1  0
 13 15  1  0
 19 20  2  0
 20 21  1  0
 17 19  1  0
 18 21  2  0
  1 22  1  0
  2 23  1  0
  4 24  1  0
 19 25  1  0
 25 26  1  0
 25 27  1  0
 25 28  1  0
  3 29  1  0
  6 30  1  0
  7 31  1  0
  7 32  1  0
  8 33  1  1
  9 34  1  0
  9 35  1  0
 10 36  1  0
 10 37  1  0
 14 38  1  0
 14 39  1  0
 15 40  1  0
 15 41  1  0
 16 42  1  0
 16 43  1  0
M  END
> <Uni-Dock RESULT> 
ENERGY=   -3.648  LOWER_BOUND=    7.097  UPPER_BOUND=    9.370
INTER + INTRA:          -3.648
INTER:                  -3.648
INTRA:                   0.000
UNBOUND:                 0.000

$$$$

     RDKit          3D

 43 45  0  0  0  0  0  0  0  0999 V2000
   46.2982    5.9088   12.6654 C   0  0  0  0  0  0  0  0  0  0  0  0
   46.1857    4.9760   13.6999 C   0  0  0  0  0  0  0  0  0  0  0  0
   47.1181    4.9719   14.7402 C   0  0  0  0  0  0  0  0  0  0  0  0
   48.1622    5.9021   14.7537 C   0  0  0  0  0  0  0  0  0  0  0  0
   48.2761    6.8555   13.7225 C   0  0  0  0  0  0  0  0  0  0  0  0
   47.3387    6.8426   12.6744 C   0  0  0  0  0  0  0  0  0  0  0  0
   49.3809    7.8902   13.7362 C   0  0  0  0  0  0  0  0  0  0  0  0
   48.9220    9.2772   14.2537 C   0  0  1  0  0  0  0  0  0  0  0  0
   47.8688    9.8201   13.3917 N   0  0  0  0  0  0  0  0  0  0  0  0
   48.4271    9.2344   15.7186 C   0  0  0  0  0  0  0  0  0  0  0  0
   49.5116    8.8584   16.7036 C   0  0  0  0  0  0  0  0  0  0  0  0
   50.6816    9.2929   16.5154 O   0  0  0  0  0  0  0  0  0  0  0  0
   49.2334    8.0641   17.8785 N   0  0  0  0  0  0  0  0  0  0  0  0
   50.3613    7.3126   18.4713 C   0  0  0  0  0  0  0  0  0  0  0  0
   47.8384    7.8725   18.3362 C   0  0  0  0  0  0  0  0  0  0  0  0
   47.7517    7.6517   19.8514 C   0  0  0  0  0  0  0  0  0  0  0  0
   48.7517    6.6756   20.2536 N   0  0  0  0  0  0  0  0  0  0  0  0
   49.9404    6.5202   19.6659 C   0  0  0  0  0  0  0  0  0  0  0  0
   48.8192    5.8715   21.3306 C   0  0  0  0  0  0  0  0  0  0  0  0
   50.0059    5.2296   21.3768 N   0  0  0  0  0  0  0  0  0  0  0  0
   50.7144    5.6428   20.3325 N   0  0  0  0  0  0  0  0  0  0  0  0
   45.3984    5.9099   11.6507 F   0  0  0  0  0  0  0  0  0  0  0  0
   45.1764    4.0704   13.6929 F   0  0  0  0  0  0  0  0  0  0  0  0
   49.0638    5.8621   15.7654 F   0  0  0  0  0  0  0  0  0  0  0  0
   47.7365    5.7093   22.3529 C   0  0  0  0  0  0  0  0  0  0  0  0
   48.1620    4.8748   23.3708 F   0  0  0  0  0  0  0  0  0  0  0  0
   47.4125    6.9422   22.8879 F   0  0  0  0  0  0  0  0  0  0  0  0
   46.6170    5.1590   21.7576 F   0  0  0  0  0  0  0  0  0  0  0  0
   47.0338    4.2442   15.5371 H   0  0  0  0  0  0  0  0  0  0  0  0
   47.4147    7.5551   11.8628 H   0  0  0  0  0  0  0  0  0  0  0  0
   49.7782    8.0052   12.7039 H   0  0  0  0  0  0  0  0  0  0  0  0
   50.2388    7.5318   14.3445 H   0  0  0  0  0  0  0  0  0  0  0  0
   49.7979    9.9639   14.1996 H   0  0  0  0  0  0  0  0  0  0  0  0
   48.2552    9.9248   12.4252 H   0  0  0  0  0  0  0  0  0  0  0  0
   47.6434   10.7902   13.7118 H   0  0  0  0  0  0  0  0  0  0  0  0
   48.0494   10.2386   16.0079 H   0  0  0  0  0  0  0  0  0  0  0  0
   47.5727    8.5297   15.7826 H   0  0  0  0  0  0  0  0  0  0  0  0
   50.7908    6.6236   17.7132 H   0  0  0  0  0  0  0  0  0  0  0  0
   51.1505    8.0249   18.7936 H   0  0  0  0  0  0  0  0  0  0  0  0
   47.2229    8.7662   18.0965 H   0  0  0  0  0  0  0  0  0  0  0  0
   47.4040    6.9940   17.8119 H   0  0  0  0  0  0  0  0  0  0  0  0
   46.7339    7.2936   20.1158 H   0  0  0  0  0  0  0  0  0  0  0  0
   47.9455    8.6096   20.3805 H   0  0  0  0  0  0  0  0  0  0  0  0
  1  2  2  0
  2  3  1  0
  3  4  2  0
  4  5  1  0
  5  6  2  0
  1  6  1  0
  7  8  1  0
  8  9  1  0
  5  7  1  0
 10 11  1  0
 11 12  2  0
  8 10  1  0
 13 14  1  0
 11 13  1  0
 15 16  1  0
 16 17  1  0
 17 18  1  0
 14 18  1  0
 13 15  1  0
 19 20  2  0
 20 21  1  0
 17 19  1  0
 18 21  2  0
  1 22  1  0
  2 23  1  0
  4 24  1  0
 19 25  1  0
 25 26  1  0
 25 27  1  0
 25 28  1  0
  3 29  1  0
  6 30  1  0
  7 31  1  0
  7 32  1  0
  8 33  1  1
  9 34  1  0
  9 35  1  0
 10 36  1  0
 10 37  1  0
 14 38  1  0
 14 39  1  0
 15 40  1  0
 15 41  1  0
 16 42  1  0
 16 43  1  0
M  END
> <Uni-Dock RESULT> 
ENERGY=   -3.632  LOWER_BOUND=    6.486  UPPER_BOUND=    8.556
INTER + INTRA:          -3.632
INTER:                  -3.632
INTRA:                   0.000
UNBOUND:                 0.000

$$$$

     RDKit          3D

 43 45  0  0  0  0  0  0  0  0999 V2000
   48.8603    3.2054   17.2325 C   0  0  0  0  0  0  0  0  0  0  0  0
   47.7578    3.9533   17.6546 C   0  0  0  0  0  0  0  0  0  0  0  0
   47.9058    4.9040   18.6674 C   0  0  0  0  0  0  0  0  0  0  0  0
   49.1557    5.1146   19.2582 C   0  0  0  0  0  0  0  0  0  0  0  0
   50.2762    4.3755   18.8300 C   0  0  0  0  0  0  0  0  0  0  0  0
   50.1129    3.4130   17.8180 C   0  0  0  0  0  0  0  0  0  0  0  0
   51.6434    4.6115   19.4356 C   0  0  0  0  0  0  0  0  0  0  0  0
   52.5588    5.5081   18.5637 C   0  0  1  0  0  0  0  0  0  0  0  0
   52.7954    4.8810   17.2607 N   0  0  0  0  0  0  0  0  0  0  0  0
   51.9850    6.9304   18.3618 C   0  0  0  0  0  0  0  0  0  0  0  0
   51.8808    7.7193   19.6482 C   0  0  0  0  0  0  0  0  0  0  0  0
   52.7914    7.5955   20.5132 O   0  0  0  0  0  0  0  0  0  0  0  0
   50.7999    8.6482   19.8882 N   0  0  0  0  0  0  0  0  0  0  0  0
   50.4712    8.9563   21.2972 C   0  0  0  0  0  0  0  0  0  0  0  0
   49.9492    9.1085   18.7671 C   0  0  0  0  0  0  0  0  0  0  0  0
   49.3764   10.5098   19.0130 C   0  0  0  0  0  0  0  0  0  0  0  0
   48.8398   10.5805   20.3627 N   0  0  0  0  0  0  0  0  0  0  0  0
   49.3285    9.9119   21.4099 C   0  0  0  0  0  0  0  0  0  0  0  0
   47.9157   11.3947   20.9051 C   0  0  0  0  0  0  0  0  0  0  0  0
   47.8315   11.2039   22.2389 N   0  0  0  0  0  0  0  0  0  0  0  0
   48.7254   10.2752   22.5578 N   0  0  0  0  0  0  0  0  0  0  0  0
   48.7173    2.2770   16.2545 F   0  0  0  0  0  0  0  0  0  0  0  0
   46.5425    3.7537   17.0869 F   0  0  0  0  0  0  0  0  0  0  0  0
   49.2658    6.0297   20.2525 F   0  0  0  0  0  0  0  0  0  0  0  0
   47.0929   12.3895   20.1456 C   0  0  0  0  0  0  0  0  0  0  0  0
   46.3038   13.1201   21.0157 F   0  0  0  0  0  0  0  0  0  0  0  0
   47.9245   13.2542   19.4587 F   0  0  0  0  0  0  0  0  0  0  0  0
   46.2780   11.7263   19.2475 F   0  0  0  0  0  0  0  0  0  0  0  0
   47.0494    5.4774   18.9982 H   0  0  0  0  0  0  0  0  0  0  0  0
   50.9558    2.8218   17.4832 H   0  0  0  0  0  0  0  0  0  0  0  0
   52.1426    3.6298   19.5890 H   0  0  0  0  0  0  0  0  0  0  0  0
   51.5458    5.0549   20.4496 H   0  0  0  0  0  0  0  0  0  0  0  0
   53.5395    5.5966   19.0852 H   0  0  0  0  0  0  0  0  0  0  0  0
   53.2662    3.9602   17.4186 H   0  0  0  0  0  0  0  0  0  0  0  0
   53.4847    5.4629   16.7311 H   0  0  0  0  0  0  0  0  0  0  0  0
   52.6482    7.4997   17.6758 H   0  0  0  0  0  0  0  0  0  0  0  0
   50.9951    6.8454   17.8684 H   0  0  0  0  0  0  0  0  0  0  0  0
   50.2133    8.0188   21.8344 H   0  0  0  0  0  0  0  0  0  0  0  0
   51.3536    9.4180   21.7894 H   0  0  0  0  0  0  0  0  0  0  0  0
   50.5359    9.1518   17.8243 H   0  0  0  0  0  0  0  0  0  0  0  0
   49.1131    8.3892   18.6296 H   0  0  0  0  0  0  0  0  0  0  0  0
   48.5790   10.7197   18.2687 H   0  0  0  0  0  0  0  0  0  0  0  0
   50.1816   11.2676   18.9020 H   0  0  0  0  0  0  0  0  0  0  0  0
  1  2  2  0
  2  3  1  0
  3  4  2  0
  4  5  1  0
  5  6  2  0
  1  6  1  0
  7  8  1  0
  8  9  1  0
  5  7  1  0
 10 11  1  0
 11 12  2  0
  8 10  1  0
 13 14  1  0
 11 13  1  0
 15 16  1  0
 16 17  1  0
 17 18  1  0
 14 18  1  0
 13 15  1  0
 19 20  2  0
 20 21  1  0
 17 19  1  0
 18 21  2  0
  1 22  1  0
  2 23  1  0
  4 24  1  0
 19 25  1  0
 25 26  1  0
 25 27  1  0
 25 28  1  0
  3 29  1  0
  6 30  1  0
  7 31  1  0
  7 32  1  0
  8 33  1  1
  9 34  1  0
  9 35  1  0
 10 36  1  0
 10 37  1  0
 14 38  1  0
 14 39  1  0
 15 40  1  0
 15 41  1  0
 16 42  1  0
 16 43  1  0
M  END
> <Uni-Dock RESULT> 
ENERGY=   -3.619  LOWER_BOUND=    8.392  UPPER_BOUND=    9.908
INTER + INTRA:          -3.619
INTER:                  -3.619
INTRA:                   0.000
UNBOUND:                 0.000

$$$$
