
     RDKit          2D

 62 67  0  0  0  0  0  0  0  0999 V2000
    2.0043    3.3833    0.0000 C   0  0  0  0  0  0  0  0  0  0  0  0
    2.0659    4.2060    0.0000 N   0  0  0  0  0  0  0  0  0  0  0  0
    1.3226    2.9185    0.0000 C   0  0  0  0  0  0  0  0  0  0  0  0
    0.2329    3.9297    0.0000 S   0  0  0  0  0  0  0  0  0  0  0  0
    2.7188    2.9708    0.0000 N   0  0  0  0  0  0  0  0  0  0  0  0
    0.5343    3.1617    0.0000 C   0  0  0  0  0  0  0  0  0  0  0  0
    1.4612    4.7671    0.0000 C   0  0  0  0  0  0  0  0  0  0  0  0
    0.6454    4.6441    0.0000 C   0  0  0  0  0  0  0  0  0  0  0  0
    4.1477    2.1458    0.0000 N   0  0  0  0  0  0  0  0  0  0  0  0
    2.7188    2.1458    0.0000 C   0  0  0  0  0  0  0  0  0  0  0  0
    3.4332    3.3833    0.0000 C   0  0  0  0  0  0  0  0  0  0  0  0
    3.4332    1.7333    0.0000 C   0  0  0  0  0  0  0  0  0  0  0  0
    4.1477    2.9708    0.0000 C   0  0  0  0  0  0  0  0  0  0  0  0
    1.5062    2.1142    0.0000 C   0  0  0  0  0  0  0  0  0  0  0  0
   -0.0705    2.6005    0.0000 C   0  0  0  0  0  0  0  0  0  0  0  0
    4.8622    1.7333    0.0000 C   0  0  0  0  0  0  0  0  0  0  0  0
    8.4345    2.1458    0.0000 O   0  0  0  0  0  0  0  0  0  0  0  0
    1.7626    5.5351    0.0000 C   0  0  0  0  0  0  0  0  0  0  0  0
    0.1310    5.2891    0.0000 C   0  0  0  0  0  0  0  0  0  0  0  0
    6.2911    1.7333    0.0000 O   0  0  0  0  0  0  0  0  0  0  0  0
    7.7200    1.7333    0.0000 C   0  0  0  0  0  0  0  0  0  0  0  0
    5.5766    2.1458    0.0000 C   0  0  0  0  0  0  0  0  0  0  0  0
    7.0056    2.1458    0.0000 C   0  0  0  0  0  0  0  0  0  0  0  0
    0.9014    1.5531    0.0000 C   0  0  0  0  0  0  0  0  0  0  0  0
    0.1131    1.7962    0.0000 C   0  0  0  0  0  0  0  0  0  0  0  0
    0.4324    6.0571    0.0000 C   0  0  0  0  0  0  0  0  0  0  0  0
    1.2482    6.1801    0.0000 C   0  0  0  0  0  0  0  0  0  0  0  0
   -0.7654    0.2306    0.0000 C   0  0  0  0  0  0  0  0  0  0  0  0
   -0.7037    1.0533    0.0000 N   0  0  0  0  0  0  0  0  0  0  0  0
   -1.4470   -0.2342    0.0000 C   0  0  0  0  0  0  0  0  0  0  0  0
   -2.5368    0.7770    0.0000 S   0  0  0  0  0  0  0  0  0  0  0  0
   -0.0509   -0.1819    0.0000 N   0  0  0  0  0  0  0  0  0  0  0  0
   -2.2354    0.0090    0.0000 C   0  0  0  0  0  0  0  0  0  0  0  0
   -1.3085    1.6144    0.0000 C   0  0  0  0  0  0  0  0  0  0  0  0
   -2.1243    1.4915    0.0000 C   0  0  0  0  0  0  0  0  0  0  0  0
    1.3780   -1.0069    0.0000 N   0  0  0  0  0  0  0  0  0  0  0  0
   -0.0509   -1.0069    0.0000 C   0  0  0  0  0  0  0  0  0  0  0  0
    0.6636    0.2306    0.0000 C   0  0  0  0  0  0  0  0  0  0  0  0
    0.6636   -1.4194    0.0000 C   0  0  0  0  0  0  0  0  0  0  0  0
    1.3780   -0.1819    0.0000 C   0  0  0  0  0  0  0  0  0  0  0  0
   -1.2634   -1.0385    0.0000 C   0  0  0  0  0  0  0  0  0  0  0  0
   -2.8401   -0.5521    0.0000 C   0  0  0  0  0  0  0  0  0  0  0  0
    2.0925   -1.4194    0.0000 C   0  0  0  0  0  0  0  0  0  0  0  0
    5.6649   -1.0069    0.0000 O   0  0  0  0  0  0  0  0  0  0  0  0
   -1.0071    2.3824    0.0000 C   0  0  0  0  0  0  0  0  0  0  0  0
   -2.6386    2.1365    0.0000 C   0  0  0  0  0  0  0  0  0  0  0  0
    3.5215   -1.4194    0.0000 O   0  0  0  0  0  0  0  0  0  0  0  0
    4.9504   -1.4194    0.0000 C   0  0  0  0  0  0  0  0  0  0  0  0
    2.8070   -1.0069    0.0000 C   0  0  0  0  0  0  0  0  0  0  0  0
    4.2359   -1.0069    0.0000 C   0  0  0  0  0  0  0  0  0  0  0  0
   -1.8682   -1.5996    0.0000 C   0  0  0  0  0  0  0  0  0  0  0  0
   -2.6565   -1.3564    0.0000 C   0  0  0  0  0  0  0  0  0  0  0  0
   -2.3372    2.9044    0.0000 C   0  0  0  0  0  0  0  0  0  0  0  0
   -1.5215    3.0274    0.0000 C   0  0  0  0  0  0  0  0  0  0  0  0
   10.2613    0.7145    0.0000 C   0  0  0  0  0  0  0  0  0  0  0  0
    8.6113   -0.7145    0.0000 C   0  0  0  0  0  0  0  0  0  0  0  0
    9.8488    0.0000    0.0000 C   0  0  0  0  0  0  0  0  0  0  0  0
    9.0238    0.0000    0.0000 C   0  0  0  0  0  0  0  0  0  0  0  0
   11.0863    0.7145    0.0000 O   0  0  0  0  0  0  0  0  0  0  0  0
    9.0238   -1.4289    0.0000 O   0  0  0  0  0  0  0  0  0  0  0  0
    9.8488    1.4289    0.0000 O   0  0  0  0  0  0  0  0  0  0  0  0
    7.7863   -0.7145    0.0000 O   0  0  0  0  0  0  0  0  0  0  0  0
  2  1  2  0
  3  1  1  0
  4  6  1  0
  5  1  1  0
  6  3  1  0
  7  2  1  0
  8  7  1  0
  9 13  1  0
 10  5  1  0
 11  5  1  0
 12 10  1  0
 13 11  1  0
 14  3  2  0
 15  6  2  0
 16  9  1  0
 17 21  1  0
 18  7  2  0
 19  8  2  0
 20 22  1  0
 21 23  1  0
 22 16  1  0
 23 20  1  0
 24 14  1  0
 25 15  1  0
 26 19  1  0
 27 18  1  0
  9 12  1  0
  8  4  1  0
 24 25  2  0
 27 26  2  0
 29 28  2  0
 30 28  1  0
 31 33  1  0
 32 28  1  0
 33 30  1  0
 34 29  1  0
 35 34  1  0
 36 40  1  0
 37 32  1  0
 38 32  1  0
 39 37  1  0
 40 38  1  0
 41 30  2  0
 42 33  2  0
 43 36  1  0
 44 48  1  0
 45 34  2  0
 46 35  2  0
 47 49  1  0
 48 50  1  0
 49 43  1  0
 50 47  1  0
 51 41  1  0
 52 42  1  0
 53 46  1  0
 54 45  1  0
 36 39  1  0
 35 31  1  0
 51 52  2  0
 54 53  2  0
 56 58  1  0
 57 55  1  0
 58 57  2  0
 59 55  2  0
 60 56  2  0
 61 55  1  0
 62 56  1  0
M  END
> <chembl_id>
CHEMBL3188993

> <chembl_pref_name>
QUETIAPINE FUMARATE
