
     RDKit          3D

116121  0  0  0  0  0  0  0  0999 V2000
   -2.0421   -0.2353   -0.0181 C   0  0  0  0  0  0  0  0  0  0  0  0
   -2.6359   -1.3289    0.3798 N   0  0  0  0  0  0  0  0  0  0  0  0
   -2.7800    1.0026   -0.4360 C   0  0  0  0  0  0  0  0  0  0  0  0
   -4.1976    0.9280    1.9777 S   0  0  0  0  0  0  0  0  0  0  0  0
   -0.6451   -0.2250   -0.0830 N   0  0  0  0  0  0  0  0  0  0  0  0
   -3.6987    1.6367    0.4123 C   0  0  0  0  0  0  0  0  0  0  0  0
   -4.0288   -1.4641    0.5222 C   0  0  0  0  0  0  0  0  0  0  0  0
   -4.8346   -0.6058    1.2952 C   0  0  0  0  0  0  0  0  0  0  0  0
    2.1895   -0.3380   -0.6181 N   0  0  0  0  0  0  0  0  0  0  0  0
    0.1527    0.9699    0.2071 C   0  0  0  0  0  0  0  0  0  0  0  0
    0.0907   -1.4985    0.0752 C   0  0  0  0  0  0  0  0  0  0  0  0
    1.4865    0.9585   -0.5804 C   0  0  0  0  0  0  0  0  0  0  0  0
    1.6108   -1.3090    0.3128 C   0  0  0  0  0  0  0  0  0  0  0  0
   -2.4886    1.5496   -1.6920 C   0  0  0  0  0  0  0  0  0  0  0  0
   -4.3032    2.8279   -0.0064 C   0  0  0  0  0  0  0  0  0  0  0  0
    3.6476   -0.2314   -0.5685 C   0  0  0  0  0  0  0  0  0  0  0  0
    8.1352    0.8057   -0.6314 O   0  0  0  0  0  0  0  0  0  0  0  0
   -4.6173   -2.5992   -0.0448 C   0  0  0  0  0  0  0  0  0  0  0  0
   -6.1934   -0.8990    1.4902 C   0  0  0  0  0  0  0  0  0  0  0  0
    5.6553    0.5207    0.6451 O   0  0  0  0  0  0  0  0  0  0  0  0
    7.9552   -0.1215    0.4376 C   0  0  0  0  0  0  0  0  0  0  0  0
    4.2751    0.1663    0.7789 C   0  0  0  0  0  0  0  0  0  0  0  0
    6.5120   -0.6129    0.4534 C   0  0  0  0  0  0  0  0  0  0  0  0
   -3.1011    2.7325   -2.0981 C   0  0  0  0  0  0  0  0  0  0  0  0
   -4.0052    3.3730   -1.2560 C   0  0  0  0  0  0  0  0  0  0  0  0
   -6.7581   -2.0343    0.9105 C   0  0  0  0  0  0  0  0  0  0  0  0
   -5.9746   -2.8777    0.1296 C   0  0  0  0  0  0  0  0  0  0  0  0
   -1.7792    0.3730    0.0214 C   0  0  0  0  0  0  0  0  0  0  0  0
   -2.6126    0.4679   -0.9789 N   0  0  0  0  0  0  0  0  0  0  0  0
   -2.1827    0.3729    1.4686 C   0  0  0  0  0  0  0  0  0  0  0  0
   -3.7227    2.6559    1.0373 S   0  0  0  0  0  0  0  0  0  0  0  0
   -0.4226    0.2097   -0.2765 N   0  0  0  0  0  0  0  0  0  0  0  0
   -3.0045    1.3615    2.0227 C   0  0  0  0  0  0  0  0  0  0  0  0
   -4.0004    0.6191   -0.8571 C   0  0  0  0  0  0  0  0  0  0  0  0
   -4.6357    1.5979   -0.0729 C   0  0  0  0  0  0  0  0  0  0  0  0
    2.3317    0.7081   -1.3904 N   0  0  0  0  0  0  0  0  0  0  0  0
   -0.0368   -0.1092   -1.6645 C   0  0  0  0  0  0  0  0  0  0  0  0
    0.6250    0.8837    0.5145 C   0  0  0  0  0  0  0  0  0  0  0  0
    1.4635   -0.4348   -1.7515 C   0  0  0  0  0  0  0  0  0  0  0  0
    1.6746    1.5831   -0.3955 C   0  0  0  0  0  0  0  0  0  0  0  0
   -1.6673   -0.6525    2.2771 C   0  0  0  0  0  0  0  0  0  0  0  0
   -3.2888    1.3198    3.3969 C   0  0  0  0  0  0  0  0  0  0  0  0
    3.6842    0.3087   -0.9706 C   0  0  0  0  0  0  0  0  0  0  0  0
    5.8890   -1.2349    1.2129 O   0  0  0  0  0  0  0  0  0  0  0  0
   -4.7930   -0.1940   -1.6778 C   0  0  0  0  0  0  0  0  0  0  0  0
   -6.0312    1.7373   -0.1119 C   0  0  0  0  0  0  0  0  0  0  0  0
    5.8295   -0.6252   -1.6484 O   0  0  0  0  0  0  0  0  0  0  0  0
    5.6090   -2.2415    0.2405 C   0  0  0  0  0  0  0  0  0  0  0  0
    4.4488   -0.5380   -2.0090 C   0  0  0  0  0  0  0  0  0  0  0  0
    6.2413   -1.8831   -1.1073 C   0  0  0  0  0  0  0  0  0  0  0  0
   -1.9643   -0.6921    3.6389 C   0  0  0  0  0  0  0  0  0  0  0  0
   -2.7742    0.2948    4.1972 C   0  0  0  0  0  0  0  0  0  0  0  0
   -6.7997    0.9188   -0.9377 C   0  0  0  0  0  0  0  0  0  0  0  0
   -6.1800   -0.0481   -1.7247 C   0  0  0  0  0  0  0  0  0  0  0  0
   -1.8422   -0.0968   -0.3049 C   0  0  0  0  0  0  0  0  0  0  0  0
    1.9308    0.1976   -0.5823 C   0  0  0  0  0  0  0  0  0  0  0  0
   -0.4296   -0.0933    0.0709 C   0  0  0  0  0  0  0  0  0  0  0  0
    0.4933    0.1831   -0.8587 C   0  0  0  0  0  0  0  0  0  0  0  0
   -2.3186    0.1633   -1.3916 O   0  0  0  0  0  0  0  0  0  0  0  0
    2.7926    0.4300   -1.4088 O   0  0  0  0  0  0  0  0  0  0  0  0
   -2.6010   -0.4143    0.7527 O   0  0  0  0  0  0  0  0  0  0  0  0
    2.2375   -0.0684    0.6948 O   0  0  0  0  0  0  0  0  0  0  0  0
    0.3573    0.9980    1.2824 H   0  0  0  0  0  0  0  0  0  0  0  0
   -0.3705    1.8976   -0.0313 H   0  0  0  0  0  0  0  0  0  0  0  0
   -0.3080   -2.0765    0.9144 H   0  0  0  0  0  0  0  0  0  0  0  0
   -0.0511   -2.0979   -0.8336 H   0  0  0  0  0  0  0  0  0  0  0  0
    1.2727    1.2320   -1.6211 H   0  0  0  0  0  0  0  0  0  0  0  0
    2.1171    1.7597   -0.1700 H   0  0  0  0  0  0  0  0  0  0  0  0
    2.0987   -2.2849    0.1987 H   0  0  0  0  0  0  0  0  0  0  0  0
    1.7702   -0.9870    1.3498 H   0  0  0  0  0  0  0  0  0  0  0  0
   -1.7834    1.0461   -2.3462 H   0  0  0  0  0  0  0  0  0  0  0  0
   -5.0194    3.3368    0.6361 H   0  0  0  0  0  0  0  0  0  0  0  0
    4.0645   -1.1985   -0.8755 H   0  0  0  0  0  0  0  0  0  0  0  0
    3.9876    0.4699   -1.3429 H   0  0  0  0  0  0  0  0  0  0  0  0
    7.4081    1.4510   -0.5382 H   0  0  0  0  0  0  0  0  0  0  0  0
   -3.9972   -3.2764   -0.6202 H   0  0  0  0  0  0  0  0  0  0  0  0
   -6.8201   -0.2382    2.0837 H   0  0  0  0  0  0  0  0  0  0  0  0
    8.2046    0.3905    1.3703 H   0  0  0  0  0  0  0  0  0  0  0  0
    8.6546   -0.9504    0.2943 H   0  0  0  0  0  0  0  0  0  0  0  0
    3.7819    1.0520    1.1863 H   0  0  0  0  0  0  0  0  0  0  0  0
    4.1710   -0.6278    1.5227 H   0  0  0  0  0  0  0  0  0  0  0  0
    6.3653   -1.3392    1.2608 H   0  0  0  0  0  0  0  0  0  0  0  0
    6.2775   -1.0758   -0.5109 H   0  0  0  0  0  0  0  0  0  0  0  0
   -2.8781    3.1487   -3.0729 H   0  0  0  0  0  0  0  0  0  0  0  0
   -4.4902    4.2935   -1.5762 H   0  0  0  0  0  0  0  0  0  0  0  0
   -7.8114   -2.2561    1.0576 H   0  0  0  0  0  0  0  0  0  0  0  0
   -6.4077   -3.7579   -0.3361 H   0  0  0  0  0  0  0  0  0  0  0  0
   -0.5974   -0.9854   -2.0104 H   0  0  0  0  0  0  0  0  0  0  0  0
   -0.2786    0.7300   -2.3251 H   0  0  0  0  0  0  0  0  0  0  0  0
    0.1894    1.6412    1.1732 H   0  0  0  0  0  0  0  0  0  0  0  0
    1.1208    0.1460    1.1478 H   0  0  0  0  0  0  0  0  0  0  0  0
    1.6662   -1.2832   -1.0855 H   0  0  0  0  0  0  0  0  0  0  0  0
    1.7037   -0.7526   -2.7721 H   0  0  0  0  0  0  0  0  0  0  0  0
    1.1628    2.3765   -0.9577 H   0  0  0  0  0  0  0  0  0  0  0  0
    2.4079    2.1045    0.2312 H   0  0  0  0  0  0  0  0  0  0  0  0
   -1.0298   -1.4184    1.8440 H   0  0  0  0  0  0  0  0  0  0  0  0
   -3.9264    2.0827    3.8478 H   0  0  0  0  0  0  0  0  0  0  0  0
    4.2798    1.2142   -0.7904 H   0  0  0  0  0  0  0  0  0  0  0  0
    3.6500   -0.2170   -0.0076 H   0  0  0  0  0  0  0  0  0  0  0  0
    5.4721   -1.5016    2.0503 H   0  0  0  0  0  0  0  0  0  0  0  0
   -4.3110   -0.9429   -2.3035 H   0  0  0  0  0  0  0  0  0  0  0  0
   -6.5244    2.4871    0.5016 H   0  0  0  0  0  0  0  0  0  0  0  0
    6.0228   -3.1844    0.6115 H   0  0  0  0  0  0  0  0  0  0  0  0
    4.5269   -2.3442    0.1567 H   0  0  0  0  0  0  0  0  0  0  0  0
    4.4090   -0.0239   -2.9785 H   0  0  0  0  0  0  0  0  0  0  0  0
    4.0035   -1.5316   -2.1428 H   0  0  0  0  0  0  0  0  0  0  0  0
    7.3299   -1.8135   -0.9799 H   0  0  0  0  0  0  0  0  0  0  0  0
    6.0456   -2.6729   -1.8382 H   0  0  0  0  0  0  0  0  0  0  0  0
   -1.5729   -1.4920    4.2629 H   0  0  0  0  0  0  0  0  0  0  0  0
   -2.9986    0.2733    5.2618 H   0  0  0  0  0  0  0  0  0  0  0  0
   -7.8790    1.0401   -0.9770 H   0  0  0  0  0  0  0  0  0  0  0  0
   -6.7732   -0.6907   -2.3730 H   0  0  0  0  0  0  0  0  0  0  0  0
   -0.1865   -0.3250    1.0974 H   0  0  0  0  0  0  0  0  0  0  0  0
    0.2253    0.4164   -1.8820 H   0  0  0  0  0  0  0  0  0  0  0  0
   -3.5180   -0.3846    0.4086 H   0  0  0  0  0  0  0  0  0  0  0  0
    3.2164   -0.0080    0.7236 H   0  0  0  0  0  0  0  0  0  0  0  0
  2  1  2  0
  3  1  1  0
  4  6  1  0
  5  1  1  0
  6  3  2  0
  7  2  1  0
  8  7  2  0
  9 13  1  0
 10  5  1  0
 11  5  1  0
 12 10  1  0
 13 11  1  0
 14  3  1  0
 15  6  1  0
 16  9  1  0
 17 21  1  0
 18  7  1  0
 19  8  1  0
 20 22  1  0
 21 23  1  0
 22 16  1  0
 23 20  1  0
 24 14  2  0
 25 15  2  0
 26 19  2  0
 27 18  2  0
  9 12  1  0
  8  4  1  0
 24 25  1  0
 27 26  1  0
 29 28  2  0
 30 28  1  0
 31 33  1  0
 32 28  1  0
 33 30  2  0
 34 29  1  0
 35 34  2  0
 36 40  1  0
 37 32  1  0
 38 32  1  0
 39 37  1  0
 40 38  1  0
 41 30  1  0
 42 33  1  0
 43 36  1  0
 44 48  1  0
 45 34  1  0
 46 35  1  0
 47 49  1  0
 48 50  1  0
 49 43  1  0
 50 47  1  0
 51 41  2  0
 52 42  2  0
 53 46  2  0
 54 45  2  0
 36 39  1  0
 35 31  1  0
 51 52  1  0
 54 53  1  0
 56 58  1  0
 57 55  1  0
 58 57  2  0
 59 55  2  0
 60 56  2  0
 61 55  1  0
 62 56  1  0
 10 63  1  0
 10 64  1  0
 11 65  1  0
 11 66  1  0
 12 67  1  0
 12 68  1  0
 13 69  1  0
 13 70  1  0
 14 71  1  0
 15 72  1  0
 16 73  1  0
 16 74  1  0
 17 75  1  0
 18 76  1  0
 19 77  1  0
 21 78  1  0
 21 79  1  0
 22 80  1  0
 22 81  1  0
 23 82  1  0
 23 83  1  0
 24 84  1  0
 25 85  1  0
 26 86  1  0
 27 87  1  0
 37 88  1  0
 37 89  1  0
 38 90  1  0
 38 91  1  0
 39 92  1  0
 39 93  1  0
 40 94  1  0
 40 95  1  0
 41 96  1  0
 42 97  1  0
 43 98  1  0
 43 99  1  0
 44100  1  0
 45101  1  0
 46102  1  0
 48103  1  0
 48104  1  0
 49105  1  0
 49106  1  0
 50107  1  0
 50108  1  0
 51109  1  0
 52110  1  0
 53111  1  0
 54112  1  0
 57113  1  0
 58114  1  0
 61115  1  0
 62116  1  0
M  END
$$$$
