
     RDKit          3D

 62 67  0  0  0  0  0  0  0  0999 V2000
   -1.1971    0.0562    0.4435 C   0  0  0  0  0  0  0  0  0  0  0  0
   -1.9791   -0.9699    0.4966 N   0  0  0  0  0  0  0  0  0  0  0  0
   -1.5588    1.4396    0.1873 C   0  0  0  0  0  0  0  0  0  0  0  0
   -3.8008    1.0091   -1.5158 S   0  0  0  0  0  0  0  0  0  0  0  0
    0.2079   -0.2101    0.6640 N   0  0  0  0  0  0  0  0  0  0  0  0
   -2.5830    1.9510   -0.5837 C   0  0  0  0  0  0  0  0  0  0  0  0
   -3.3764   -1.1323    0.3392 C   0  0  0  0  0  0  0  0  0  0  0  0
   -4.2192   -0.3938   -0.4542 C   0  0  0  0  0  0  0  0  0  0  0  0
    2.7747   -1.0721    0.2604 N   0  0  0  0  0  0  0  0  0  0  0  0
    0.5429   -1.5544    1.1298 C   0  0  0  0  0  0  0  0  0  0  0  0
    1.2271    0.7819    0.4232 C   0  0  0  0  0  0  0  0  0  0  0  0
    1.7601   -2.0560    0.3371 C   0  0  0  0  0  0  0  0  0  0  0  0
    2.5590    0.1919    0.8325 C   0  0  0  0  0  0  0  0  0  0  0  0
   -0.6964    2.2831    0.8564 C   0  0  0  0  0  0  0  0  0  0  0  0
   -2.7605    3.3320   -0.6978 C   0  0  0  0  0  0  0  0  0  0  0  0
    3.4117   -1.0395   -0.9941 C   0  0  0  0  0  0  0  0  0  0  0  0
    8.6205    0.1923    0.6304 O   0  0  0  0  0  0  0  0  0  0  0  0
   -3.8754   -2.1675    1.0936 C   0  0  0  0  0  0  0  0  0  0  0  0
   -5.5627   -0.7038   -0.4839 C   0  0  0  0  0  0  0  0  0  0  0  0
    5.5450   -1.5724   -0.1547 O   0  0  0  0  0  0  0  0  0  0  0  0
    7.2200    0.0139    0.5629 C   0  0  0  0  0  0  0  0  0  0  0  0
    4.8789   -0.6332   -0.9410 C   0  0  0  0  0  0  0  0  0  0  0  0
    6.8949   -1.3307   -0.0570 C   0  0  0  0  0  0  0  0  0  0  0  0
   -0.8586    3.6595    0.7547 C   0  0  0  0  0  0  0  0  0  0  0  0
   -1.8794    4.1678   -0.0154 C   0  0  0  0  0  0  0  0  0  0  0  0
   -6.0860   -1.7540    0.2759 C   0  0  0  0  0  0  0  0  0  0  0  0
   -5.2093   -2.4885    1.0746 C   0  0  0  0  0  0  0  0  0  0  0  0
   -1.0195   -0.2140    0.1403 C   0  0  0  0  0  0  0  0  0  0  0  0
   -1.1164    1.0363    0.3074 N   0  0  0  0  0  0  0  0  0  0  0  0
   -2.0370   -1.2252    0.1159 C   0  0  0  0  0  0  0  0  0  0  0  0
   -4.4554    0.1853    0.6145 S   0  0  0  0  0  0  0  0  0  0  0  0
    0.3292   -0.6662   -0.0503 N   0  0  0  0  0  0  0  0  0  0  0  0
   -3.3848   -1.1866    0.2837 C   0  0  0  0  0  0  0  0  0  0  0  0
   -2.1548    1.9316    0.5253 C   0  0  0  0  0  0  0  0  0  0  0  0
   -3.4932    1.6651    0.6546 C   0  0  0  0  0  0  0  0  0  0  0  0
    2.9237   -1.3889   -0.6843 N   0  0  0  0  0  0  0  0  0  0  0  0
    0.9006   -1.7397    0.6968 C   0  0  0  0  0  0  0  0  0  0  0  0
    1.0824    0.0636   -1.0787 C   0  0  0  0  0  0  0  0  0  0  0  0
    2.1553   -2.2944    0.1347 C   0  0  0  0  0  0  0  0  0  0  0  0
    2.0204   -0.9257   -1.7501 C   0  0  0  0  0  0  0  0  0  0  0  0
   -1.4281   -2.4626   -0.1378 C   0  0  0  0  0  0  0  0  0  0  0  0
   -4.1676   -2.3457    0.2091 C   0  0  0  0  0  0  0  0  0  0  0  0
    3.2737   -0.2222    0.1050 C   0  0  0  0  0  0  0  0  0  0  0  0
    6.9999    0.6428    2.0798 O   0  0  0  0  0  0  0  0  0  0  0  0
   -1.7065    3.2452    0.6090 C   0  0  0  0  0  0  0  0  0  0  0  0
   -4.3420    2.7523    0.8664 C   0  0  0  0  0  0  0  0  0  0  0  0
    5.3391    0.2954   -1.0556 O   0  0  0  0  0  0  0  0  0  0  0  0
    6.2608    1.0484    0.9679 C   0  0  0  0  0  0  0  0  0  0  0  0
    4.1268    0.7615   -0.6164 C   0  0  0  0  0  0  0  0  0  0  0  0
    6.0741   -0.1372    0.0378 C   0  0  0  0  0  0  0  0  0  0  0  0
   -2.2032   -3.5961   -0.2101 C   0  0  0  0  0  0  0  0  0  0  0  0
   -3.5681   -3.5544   -0.0396 C   0  0  0  0  0  0  0  0  0  0  0  0
   -3.8778    4.0295    0.9440 C   0  0  0  0  0  0  0  0  0  0  0  0
   -2.5314    4.3019    0.8147 C   0  0  0  0  0  0  0  0  0  0  0  0
   -1.8969   -0.2269    0.2791 C   0  0  0  0  0  0  0  0  0  0  0  0
    1.8903    0.1496    0.3265 C   0  0  0  0  0  0  0  0  0  0  0  0
   -0.4576   -0.4349    0.3607 C   0  0  0  0  0  0  0  0  0  0  0  0
    0.4599    0.4837    0.2223 C   0  0  0  0  0  0  0  0  0  0  0  0
   -2.7113   -1.1906    0.4288 O   0  0  0  0  0  0  0  0  0  0  0  0
    2.2591   -1.0135    0.5485 O   0  0  0  0  0  0  0  0  0  0  0  0
   -2.3714    1.0556    0.0323 O   0  0  0  0  0  0  0  0  0  0  0  0
    2.8281    1.1770    0.1690 O   0  0  0  0  0  0  0  0  0  0  0  0
  2  1  2  0
  3  1  1  0
  4  6  1  0
  5  1  1  0
  6  3  2  0
  7  2  1  0
  8  7  2  0
  9 13  1  0
 10  5  1  0
 11  5  1  0
 12 10  1  0
 13 11  1  0
 14  3  1  0
 15  6  1  0
 16  9  1  0
 17 21  1  0
 18  7  1  0
 19  8  1  0
 20 22  1  0
 21 23  1  0
 22 16  1  0
 23 20  1  0
 24 14  2  0
 25 15  2  0
 26 19  2  0
 27 18  2  0
  9 12  1  0
  8  4  1  0
 24 25  1  0
 27 26  1  0
 29 28  2  0
 30 28  1  0
 31 33  1  0
 32 28  1  0
 33 30  2  0
 34 29  1  0
 35 34  2  0
 36 40  1  0
 37 32  1  0
 38 32  1  0
 39 37  1  0
 40 38  1  0
 41 30  1  0
 42 33  1  0
 43 36  1  0
 44 48  1  0
 45 34  1  0
 46 35  1  0
 47 49  1  0
 48 50  1  0
 49 43  1  0
 50 47  1  0
 51 41  2  0
 52 42  2  0
 53 46  2  0
 54 45  2  0
 36 39  1  0
 35 31  1  0
 51 52  1  0
 54 53  1  0
 56 58  1  0
 57 55  1  0
 58 57  2  0
 59 55  2  0
 60 56  2  0
 61 55  1  0
 62 56  1  0
M  END
