
     RDKit          3D

116121  0  0  0  0  0  0  0  0999 V2000
   -1.9638    0.1399    0.4394 C   0  0  0  0  0  0  0  0  0  0  0  0
   -2.4763    1.1857   -0.1559 N   0  0  0  0  0  0  0  0  0  0  0  0
   -2.7841   -0.9714    1.0274 C   0  0  0  0  0  0  0  0  0  0  0  0
   -4.1440   -1.2022   -1.3954 S   0  0  0  0  0  0  0  0  0  0  0  0
   -0.5716    0.0611    0.5670 N   0  0  0  0  0  0  0  0  0  0  0  0
   -3.7236   -1.6779    0.2677 C   0  0  0  0  0  0  0  0  0  0  0  0
   -3.8552    1.3796   -0.3648 C   0  0  0  0  0  0  0  0  0  0  0  0
   -4.7050    0.4465   -0.9858 C   0  0  0  0  0  0  0  0  0  0  0  0
    2.4089   -0.1434    0.2613 N   0  0  0  0  0  0  0  0  0  0  0  0
    0.1456   -1.2284    0.5448 C   0  0  0  0  0  0  0  0  0  0  0  0
    0.2548    1.2389    0.2516 C   0  0  0  0  0  0  0  0  0  0  0  0
    1.4563   -1.1440   -0.2664 C   0  0  0  0  0  0  0  0  0  0  0  0
    1.6895    1.0464    0.7819 C   0  0  0  0  0  0  0  0  0  0  0  0
   -2.5426   -1.3189    2.3648 C   0  0  0  0  0  0  0  0  0  0  0  0
   -4.4001   -2.7538    0.8562 C   0  0  0  0  0  0  0  0  0  0  0  0
    3.4179    0.2487   -0.7343 C   0  0  0  0  0  0  0  0  0  0  0  0
    8.4174    1.4568   -1.0704 O   0  0  0  0  0  0  0  0  0  0  0  0
   -4.3797    2.6224    0.0151 C   0  0  0  0  0  0  0  0  0  0  0  0
   -6.0490    0.7678   -1.2157 C   0  0  0  0  0  0  0  0  0  0  0  0
    5.3922   -0.3851   -2.0206 O   0  0  0  0  0  0  0  0  0  0  0  0
    7.2183    1.1740   -1.7876 C   0  0  0  0  0  0  0  0  0  0  0  0
    4.2950   -0.9077   -1.2614 C   0  0  0  0  0  0  0  0  0  0  0  0
    6.5181   -0.0532   -1.2067 C   0  0  0  0  0  0  0  0  0  0  0  0
   -3.2311   -2.3855    2.9430 C   0  0  0  0  0  0  0  0  0  0  0  0
   -4.1574   -3.0996    2.1877 C   0  0  0  0  0  0  0  0  0  0  0  0
   -6.5559    2.0116   -0.8443 C   0  0  0  0  0  0  0  0  0  0  0  0
   -5.7212    2.9407   -0.2193 C   0  0  0  0  0  0  0  0  0  0  0  0
   -1.8121   -0.9408   -0.5029 C   0  0  0  0  0  0  0  0  0  0  0  0
   -2.1365   -0.1172   -1.4654 N   0  0  0  0  0  0  0  0  0  0  0  0
   -2.6469   -1.1676    0.7221 C   0  0  0  0  0  0  0  0  0  0  0  0
   -2.7773    1.6013    1.1216 S   0  0  0  0  0  0  0  0  0  0  0  0
   -0.6336   -1.6948   -0.6251 N   0  0  0  0  0  0  0  0  0  0  0  0
   -3.0647   -0.1128    1.5419 C   0  0  0  0  0  0  0  0  0  0  0  0
   -3.2852    0.6884   -1.4761 C   0  0  0  0  0  0  0  0  0  0  0  0
   -3.6566    1.5655   -0.4413 C   0  0  0  0  0  0  0  0  0  0  0  0
    2.0107   -0.3953   -0.8011 N   0  0  0  0  0  0  0  0  0  0  0  0
    0.3168   -1.7407    0.5090 C   0  0  0  0  0  0  0  0  0  0  0  0
    0.1132   -1.6396   -1.9027 C   0  0  0  0  0  0  0  0  0  0  0  0
    1.2690   -0.5208    0.4756 C   0  0  0  0  0  0  0  0  0  0  0  0
    1.0534   -0.4110   -1.9410 C   0  0  0  0  0  0  0  0  0  0  0  0
   -2.9415   -2.4895    1.0827 C   0  0  0  0  0  0  0  0  0  0  0  0
   -3.7548   -0.3986    2.7353 C   0  0  0  0  0  0  0  0  0  0  0  0
    2.8253    0.8392   -0.8580 C   0  0  0  0  0  0  0  0  0  0  0  0
    6.6955    2.4079    0.8400 O   0  0  0  0  0  0  0  0  0  0  0  0
   -4.0418    0.6869   -2.6568 C   0  0  0  0  0  0  0  0  0  0  0  0
   -4.7777    2.3902   -0.5898 C   0  0  0  0  0  0  0  0  0  0  0  0
    4.9408   -0.0250   -0.0184 O   0  0  0  0  0  0  0  0  0  0  0  0
    7.0749    1.0857    0.4509 C   0  0  0  0  0  0  0  0  0  0  0  0
    3.9462    0.9798    0.1878 C   0  0  0  0  0  0  0  0  0  0  0  0
    6.0330    0.0605    0.9038 C   0  0  0  0  0  0  0  0  0  0  0  0
   -3.6438   -2.7641    2.2567 C   0  0  0  0  0  0  0  0  0  0  0  0
   -4.0436   -1.7194    3.0844 C   0  0  0  0  0  0  0  0  0  0  0  0
   -5.5192    2.3715   -1.7692 C   0  0  0  0  0  0  0  0  0  0  0  0
   -5.1500    1.5236   -2.8087 C   0  0  0  0  0  0  0  0  0  0  0  0
   -1.6684   -0.2740   -1.0847 C   0  0  0  0  0  0  0  0  0  0  0  0
    1.6679    0.2763    0.7166 C   0  0  0  0  0  0  0  0  0  0  0  0
   -0.3135   -0.4579   -0.5576 C   0  0  0  0  0  0  0  0  0  0  0  0
    0.3101    0.4562    0.1981 C   0  0  0  0  0  0  0  0  0  0  0  0
   -2.2574   -1.0958   -1.7626 O   0  0  0  0  0  0  0  0  0  0  0  0
    2.2490    1.0852    1.4175 O   0  0  0  0  0  0  0  0  0  0  0  0
   -2.2299    0.8955   -0.7419 O   0  0  0  0  0  0  0  0  0  0  0  0
    2.2381   -0.8844    0.3616 O   0  0  0  0  0  0  0  0  0  0  0  0
    0.3642   -1.5352    1.5758 H   0  0  0  0  0  0  0  0  0  0  0  0
   -0.4773   -2.0080    0.0888 H   0  0  0  0  0  0  0  0  0  0  0  0
   -0.1718    2.1344    0.7231 H   0  0  0  0  0  0  0  0  0  0  0  0
    0.2712    1.4023   -0.8329 H   0  0  0  0  0  0  0  0  0  0  0  0
    1.9358   -2.1307   -0.2522 H   0  0  0  0  0  0  0  0  0  0  0  0
    1.1982   -0.9199   -1.3116 H   0  0  0  0  0  0  0  0  0  0  0  0
    2.2617    1.9723    0.6226 H   0  0  0  0  0  0  0  0  0  0  0  0
    1.6336    0.9255    1.8742 H   0  0  0  0  0  0  0  0  0  0  0  0
   -1.8195   -0.7527    2.9522 H   0  0  0  0  0  0  0  0  0  0  0  0
   -5.1411   -3.3130    0.2889 H   0  0  0  0  0  0  0  0  0  0  0  0
    4.0827    0.9978   -0.2816 H   0  0  0  0  0  0  0  0  0  0  0  0
    2.9512    0.7548   -1.5909 H   0  0  0  0  0  0  0  0  0  0  0  0
    9.0677    0.7847   -1.3254 H   0  0  0  0  0  0  0  0  0  0  0  0
   -3.7299    3.3516    0.4887 H   0  0  0  0  0  0  0  0  0  0  0  0
   -6.7154    0.0420   -1.6811 H   0  0  0  0  0  0  0  0  0  0  0  0
    6.5504    2.0433   -1.6968 H   0  0  0  0  0  0  0  0  0  0  0  0
    7.4484    1.0520   -2.8524 H   0  0  0  0  0  0  0  0  0  0  0  0
    3.7053   -1.5343   -1.9368 H   0  0  0  0  0  0  0  0  0  0  0  0
    4.6594   -1.5458   -0.4476 H   0  0  0  0  0  0  0  0  0  0  0  0
    6.2338    0.1519   -0.1679 H   0  0  0  0  0  0  0  0  0  0  0  0
    7.2021   -0.9094   -1.1947 H   0  0  0  0  0  0  0  0  0  0  0  0
   -3.0497   -2.6422    3.9843 H   0  0  0  0  0  0  0  0  0  0  0  0
   -4.7017   -3.9284    2.6447 H   0  0  0  0  0  0  0  0  0  0  0  0
   -7.6026    2.2528   -1.0135 H   0  0  0  0  0  0  0  0  0  0  0  0
   -6.1097    3.9053    0.0821 H   0  0  0  0  0  0  0  0  0  0  0  0
    0.8944   -2.6698    0.4499 H   0  0  0  0  0  0  0  0  0  0  0  0
   -0.2021   -1.7554    1.4705 H   0  0  0  0  0  0  0  0  0  0  0  0
    0.7111   -2.5537   -1.9986 H   0  0  0  0  0  0  0  0  0  0  0  0
   -0.5659   -1.6307   -2.7619 H   0  0  0  0  0  0  0  0  0  0  0  0
    1.9770   -0.6455    1.3032 H   0  0  0  0  0  0  0  0  0  0  0  0
    0.6937    0.3955    0.6673 H   0  0  0  0  0  0  0  0  0  0  0  0
    1.6152   -0.4402   -2.8825 H   0  0  0  0  0  0  0  0  0  0  0  0
    0.4569    0.5117   -1.9475 H   0  0  0  0  0  0  0  0  0  0  0  0
   -2.6166   -3.3115    0.4435 H   0  0  0  0  0  0  0  0  0  0  0  0
   -4.0795    0.4125    3.3824 H   0  0  0  0  0  0  0  0  0  0  0  0
    2.1706    1.7153   -0.7828 H   0  0  0  0  0  0  0  0  0  0  0  0
    3.3040    0.8667   -1.8473 H   0  0  0  0  0  0  0  0  0  0  0  0
    7.3028    3.0120    0.3748 H   0  0  0  0  0  0  0  0  0  0  0  0
   -3.7432    0.0315   -3.4720 H   0  0  0  0  0  0  0  0  0  0  0  0
   -5.0885    3.0514    0.2186 H   0  0  0  0  0  0  0  0  0  0  0  0
    8.0441    0.8701    0.9214 H   0  0  0  0  0  0  0  0  0  0  0  0
    7.1843    1.0673   -0.6381 H   0  0  0  0  0  0  0  0  0  0  0  0
    4.3947    1.9672    0.0632 H   0  0  0  0  0  0  0  0  0  0  0  0
    3.5517    0.9105    1.2030 H   0  0  0  0  0  0  0  0  0  0  0  0
    5.6685    0.2674    1.9164 H   0  0  0  0  0  0  0  0  0  0  0  0
    6.5035   -0.9274    0.9096 H   0  0  0  0  0  0  0  0  0  0  0  0
   -3.8666   -3.7938    2.5329 H   0  0  0  0  0  0  0  0  0  0  0  0
   -4.5862   -1.9276    4.0038 H   0  0  0  0  0  0  0  0  0  0  0  0
   -6.3965    3.0083   -1.8753 H   0  0  0  0  0  0  0  0  0  0  0  0
   -5.7207    1.5049   -3.7336 H   0  0  0  0  0  0  0  0  0  0  0  0
    0.1540   -1.3970   -0.8350 H   0  0  0  0  0  0  0  0  0  0  0  0
   -0.1581    1.3931    0.4777 H   0  0  0  0  0  0  0  0  0  0  0  0
   -3.1148    0.8573   -1.1613 H   0  0  0  0  0  0  0  0  0  0  0  0
    3.1230   -0.8545    0.7826 H   0  0  0  0  0  0  0  0  0  0  0  0
  2  1  2  0
  3  1  1  0
  4  6  1  0
  5  1  1  0
  6  3  2  0
  7  2  1  0
  8  7  2  0
  9 13  1  0
 10  5  1  0
 11  5  1  0
 12 10  1  0
 13 11  1  0
 14  3  1  0
 15  6  1  0
 16  9  1  0
 17 21  1  0
 18  7  1  0
 19  8  1  0
 20 22  1  0
 21 23  1  0
 22 16  1  0
 23 20  1  0
 24 14  2  0
 25 15  2  0
 26 19  2  0
 27 18  2  0
  9 12  1  0
  8  4  1  0
 24 25  1  0
 27 26  1  0
 29 28  2  0
 30 28  1  0
 31 33  1  0
 32 28  1  0
 33 30  2  0
 34 29  1  0
 35 34  2  0
 36 40  1  0
 37 32  1  0
 38 32  1  0
 39 37  1  0
 40 38  1  0
 41 30  1  0
 42 33  1  0
 43 36  1  0
 44 48  1  0
 45 34  1  0
 46 35  1  0
 47 49  1  0
 48 50  1  0
 49 43  1  0
 50 47  1  0
 51 41  2  0
 52 42  2  0
 53 46  2  0
 54 45  2  0
 36 39  1  0
 35 31  1  0
 51 52  1  0
 54 53  1  0
 56 58  1  0
 57 55  1  0
 58 57  2  0
 59 55  2  0
 60 56  2  0
 61 55  1  0
 62 56  1  0
 10 63  1  0
 10 64  1  0
 11 65  1  0
 11 66  1  0
 12 67  1  0
 12 68  1  0
 13 69  1  0
 13 70  1  0
 14 71  1  0
 15 72  1  0
 16 73  1  0
 16 74  1  0
 17 75  1  0
 18 76  1  0
 19 77  1  0
 21 78  1  0
 21 79  1  0
 22 80  1  0
 22 81  1  0
 23 82  1  0
 23 83  1  0
 24 84  1  0
 25 85  1  0
 26 86  1  0
 27 87  1  0
 37 88  1  0
 37 89  1  0
 38 90  1  0
 38 91  1  0
 39 92  1  0
 39 93  1  0
 40 94  1  0
 40 95  1  0
 41 96  1  0
 42 97  1  0
 43 98  1  0
 43 99  1  0
 44100  1  0
 45101  1  0
 46102  1  0
 48103  1  0
 48104  1  0
 49105  1  0
 49106  1  0
 50107  1  0
 50108  1  0
 51109  1  0
 52110  1  0
 53111  1  0
 54112  1  0
 57113  1  0
 58114  1  0
 61115  1  0
 62116  1  0
M  END
$$$$
