
     RDKit          3D

116121  0  0  0  0  0  0  0  0999 V2000
   -1.8962    0.1847    0.0285 C   0  0  0  0  0  0  0  0  0  0  0  0
   -2.3415    0.9227   -0.9566 N   0  0  0  0  0  0  0  0  0  0  0  0
   -2.7263   -0.8596    0.7206 C   0  0  0  0  0  0  0  0  0  0  0  0
   -3.3069   -1.9940   -1.7698 S   0  0  0  0  0  0  0  0  0  0  0  0
   -0.5861    0.3858    0.4839 N   0  0  0  0  0  0  0  0  0  0  0  0
   -3.3128   -1.9199    0.0136 C   0  0  0  0  0  0  0  0  0  0  0  0
   -3.6258    0.7853   -1.5157 C   0  0  0  0  0  0  0  0  0  0  0  0
   -4.1467   -0.4271   -2.0151 C   0  0  0  0  0  0  0  0  0  0  0  0
    2.1094    0.7821    1.5010 N   0  0  0  0  0  0  0  0  0  0  0  0
    0.2069    1.5007   -0.0560 C   0  0  0  0  0  0  0  0  0  0  0  0
    0.2099   -0.7332    1.0406 C   0  0  0  0  0  0  0  0  0  0  0  0
    1.3792    1.8984    0.8768 C   0  0  0  0  0  0  0  0  0  0  0  0
    1.7329   -0.5093    0.9176 C   0  0  0  0  0  0  0  0  0  0  0  0
   -2.8537   -0.7748    2.1154 C   0  0  0  0  0  0  0  0  0  0  0  0
   -3.9892   -2.9158    0.7266 C   0  0  0  0  0  0  0  0  0  0  0  0
    3.5541    0.9886    1.6497 C   0  0  0  0  0  0  0  0  0  0  0  0
    7.9089   -0.9172   -1.5847 O   0  0  0  0  0  0  0  0  0  0  0  0
   -4.3808    1.9552   -1.6728 C   0  0  0  0  0  0  0  0  0  0  0  0
   -5.3933   -0.4388   -2.6615 C   0  0  0  0  0  0  0  0  0  0  0  0
    4.6156   -0.4654   -0.0002 O   0  0  0  0  0  0  0  0  0  0  0  0
    6.9683   -0.8059   -0.5234 C   0  0  0  0  0  0  0  0  0  0  0  0
    4.4303    0.9008    0.3838 C   0  0  0  0  0  0  0  0  0  0  0  0
    5.5541   -0.6162   -1.0667 C   0  0  0  0  0  0  0  0  0  0  0  0
   -3.5409   -1.7701    2.8106 C   0  0  0  0  0  0  0  0  0  0  0  0
   -4.0949   -2.8454    2.1173 C   0  0  0  0  0  0  0  0  0  0  0  0
   -6.1328    0.7357   -2.7983 C   0  0  0  0  0  0  0  0  0  0  0  0
   -5.6308    1.9340   -2.2978 C   0  0  0  0  0  0  0  0  0  0  0  0
   -2.0413   -0.1502   -0.3809 C   0  0  0  0  0  0  0  0  0  0  0  0
   -2.6338    0.9164   -0.8429 N   0  0  0  0  0  0  0  0  0  0  0  0
   -2.7755   -1.2849    0.2743 C   0  0  0  0  0  0  0  0  0  0  0  0
   -4.0653    0.5417    1.9631 S   0  0  0  0  0  0  0  0  0  0  0  0
   -0.6480   -0.2694   -0.5125 N   0  0  0  0  0  0  0  0  0  0  0  0
   -3.6244   -1.0828    1.3720 C   0  0  0  0  0  0  0  0  0  0  0  0
   -4.0134    1.1744   -0.7621 C   0  0  0  0  0  0  0  0  0  0  0  0
   -4.7636    1.1423    0.4271 C   0  0  0  0  0  0  0  0  0  0  0  0
    2.3107    0.2180   -0.3643 N   0  0  0  0  0  0  0  0  0  0  0  0
    0.0792    0.6468   -1.4191 C   0  0  0  0  0  0  0  0  0  0  0  0
    0.1580   -0.7634    0.6246 C   0  0  0  0  0  0  0  0  0  0  0  0
    1.3285    1.2511   -0.7475 C   0  0  0  0  0  0  0  0  0  0  0  0
    1.6452   -0.9475    0.2495 C   0  0  0  0  0  0  0  0  0  0  0  0
   -2.5275   -2.5875   -0.1961 C   0  0  0  0  0  0  0  0  0  0  0  0
   -4.1934   -2.1969    2.0075 C   0  0  0  0  0  0  0  0  0  0  0  0
    3.3863    0.7844    0.4601 C   0  0  0  0  0  0  0  0  0  0  0  0
    8.4470   -0.0836    0.1400 O   0  0  0  0  0  0  0  0  0  0  0  0
   -4.6437    1.6199   -1.9368 C   0  0  0  0  0  0  0  0  0  0  0  0
   -6.1086    1.5405    0.4235 C   0  0  0  0  0  0  0  0  0  0  0  0
    5.7155    0.4985    1.2064 O   0  0  0  0  0  0  0  0  0  0  0  0
    7.4421    0.6361   -0.5766 C   0  0  0  0  0  0  0  0  0  0  0  0
    4.6239   -0.1280    0.5298 C   0  0  0  0  0  0  0  0  0  0  0  0
    6.5092    1.3708    0.3924 C   0  0  0  0  0  0  0  0  0  0  0  0
   -3.1093   -3.6857    0.4371 C   0  0  0  0  0  0  0  0  0  0  0  0
   -3.9360   -3.4922    1.5432 C   0  0  0  0  0  0  0  0  0  0  0  0
   -6.7186    1.9726   -0.7576 C   0  0  0  0  0  0  0  0  0  0  0  0
   -5.9879    2.0049   -1.9407 C   0  0  0  0  0  0  0  0  0  0  0  0
    1.8316   -0.2802    0.4080 C   0  0  0  0  0  0  0  0  0  0  0  0
   -1.8303    0.2902   -0.2356 C   0  0  0  0  0  0  0  0  0  0  0  0
    0.5227   -0.2533   -0.2445 C   0  0  0  0  0  0  0  0  0  0  0  0
   -0.5256    0.2431    0.4237 C   0  0  0  0  0  0  0  0  0  0  0  0
    2.1146    0.1362    1.5152 O   0  0  0  0  0  0  0  0  0  0  0  0
   -2.0961   -0.0548   -1.3710 O   0  0  0  0  0  0  0  0  0  0  0  0
    2.7417   -0.8393   -0.4027 O   0  0  0  0  0  0  0  0  0  0  0  0
   -2.7531    0.7935    0.5978 O   0  0  0  0  0  0  0  0  0  0  0  0
   -0.4178    2.3893   -0.1969 H   0  0  0  0  0  0  0  0  0  0  0  0
    0.5987    1.2113   -1.0384 H   0  0  0  0  0  0  0  0  0  0  0  0
   -0.0386   -1.6727    0.5291 H   0  0  0  0  0  0  0  0  0  0  0  0
   -0.0444   -0.8402    2.1000 H   0  0  0  0  0  0  0  0  0  0  0  0
    2.0516    2.5459    0.3024 H   0  0  0  0  0  0  0  0  0  0  0  0
    0.9817    2.5152    1.6909 H   0  0  0  0  0  0  0  0  0  0  0  0
    2.2396   -1.3275    1.4446 H   0  0  0  0  0  0  0  0  0  0  0  0
    2.0257   -0.5690   -0.1412 H   0  0  0  0  0  0  0  0  0  0  0  0
   -2.4059    0.0574    2.6552 H   0  0  0  0  0  0  0  0  0  0  0  0
   -4.4499   -3.7489    0.2007 H   0  0  0  0  0  0  0  0  0  0  0  0
    3.9189    0.2467    2.3691 H   0  0  0  0  0  0  0  0  0  0  0  0
    3.7094    1.9683    2.1183 H   0  0  0  0  0  0  0  0  0  0  0  0
    8.0216   -0.0345   -1.9741 H   0  0  0  0  0  0  0  0  0  0  0  0
   -3.9750    2.8928   -1.2996 H   0  0  0  0  0  0  0  0  0  0  0  0
   -5.8006   -1.3717   -3.0492 H   0  0  0  0  0  0  0  0  0  0  0  0
    7.0183   -1.7142    0.0818 H   0  0  0  0  0  0  0  0  0  0  0  0
    7.2662    0.0254    0.1255 H   0  0  0  0  0  0  0  0  0  0  0  0
    5.4068    1.3513    0.6071 H   0  0  0  0  0  0  0  0  0  0  0  0
    3.9751    1.4567   -0.4440 H   0  0  0  0  0  0  0  0  0  0  0  0
    5.2676   -1.5070   -1.6373 H   0  0  0  0  0  0  0  0  0  0  0  0
    5.5018    0.2258   -1.7683 H   0  0  0  0  0  0  0  0  0  0  0  0
   -3.6293   -1.7094    3.8918 H   0  0  0  0  0  0  0  0  0  0  0  0
   -4.6271   -3.6239    2.6576 H   0  0  0  0  0  0  0  0  0  0  0  0
   -7.1027    0.7152   -3.2946 H   0  0  0  0  0  0  0  0  0  0  0  0
   -6.2025    2.8503   -2.3981 H   0  0  0  0  0  0  0  0  0  0  0  0
   -0.5477    1.4757   -1.7739 H   0  0  0  0  0  0  0  0  0  0  0  0
    0.3740    0.0774   -2.3099 H   0  0  0  0  0  0  0  0  0  0  0  0
    0.0715   -0.0563    1.4634 H   0  0  0  0  0  0  0  0  0  0  0  0
   -0.2162   -1.7314    0.9769 H   0  0  0  0  0  0  0  0  0  0  0  0
    1.8040    1.9402   -1.4540 H   0  0  0  0  0  0  0  0  0  0  0  0
    1.0154    1.8343    0.1249 H   0  0  0  0  0  0  0  0  0  0  0  0
    2.1719   -1.3008    1.1456 H   0  0  0  0  0  0  0  0  0  0  0  0
    1.7121   -1.7596   -0.4831 H   0  0  0  0  0  0  0  0  0  0  0  0
   -1.8640   -2.7402   -1.0429 H   0  0  0  0  0  0  0  0  0  0  0  0
   -4.8507   -2.0638    2.8702 H   0  0  0  0  0  0  0  0  0  0  0  0
    3.6944    1.7474    0.0301 H   0  0  0  0  0  0  0  0  0  0  0  0
    3.0303    1.0184    1.4734 H   0  0  0  0  0  0  0  0  0  0  0  0
    8.8907   -0.6610   -0.4989 H   0  0  0  0  0  0  0  0  0  0  0  0
   -4.0638    1.6795   -2.8573 H   0  0  0  0  0  0  0  0  0  0  0  0
   -6.6896    1.5094    1.3421 H   0  0  0  0  0  0  0  0  0  0  0  0
    6.9005   -0.0799   -1.2060 H   0  0  0  0  0  0  0  0  0  0  0  0
    7.9479    1.3574   -1.2245 H   0  0  0  0  0  0  0  0  0  0  0  0
    4.9183   -0.4687   -0.4729 H   0  0  0  0  0  0  0  0  0  0  0  0
    4.3833   -1.0287    1.1103 H   0  0  0  0  0  0  0  0  0  0  0  0
    7.1137    1.9667    1.0870 H   0  0  0  0  0  0  0  0  0  0  0  0
    5.8621    2.0568   -0.1625 H   0  0  0  0  0  0  0  0  0  0  0  0
   -2.9166   -4.6914    0.0697 H   0  0  0  0  0  0  0  0  0  0  0  0
   -4.3771   -4.3514    2.0470 H   0  0  0  0  0  0  0  0  0  0  0  0
   -7.7641    2.2780   -0.7525 H   0  0  0  0  0  0  0  0  0  0  0  0
   -6.4557    2.3458   -2.8633 H   0  0  0  0  0  0  0  0  0  0  0  0
    0.4510   -0.6379   -1.2559 H   0  0  0  0  0  0  0  0  0  0  0  0
   -0.4521    0.6244    1.4357 H   0  0  0  0  0  0  0  0  0  0  0  0
    3.5720   -0.8129    0.1151 H   0  0  0  0  0  0  0  0  0  0  0  0
   -3.5765    0.7910    0.0651 H   0  0  0  0  0  0  0  0  0  0  0  0
  2  1  2  0
  3  1  1  0
  4  6  1  0
  5  1  1  0
  6  3  2  0
  7  2  1  0
  8  7  2  0
  9 13  1  0
 10  5  1  0
 11  5  1  0
 12 10  1  0
 13 11  1  0
 14  3  1  0
 15  6  1  0
 16  9  1  0
 17 21  1  0
 18  7  1  0
 19  8  1  0
 20 22  1  0
 21 23  1  0
 22 16  1  0
 23 20  1  0
 24 14  2  0
 25 15  2  0
 26 19  2  0
 27 18  2  0
  9 12  1  0
  8  4  1  0
 24 25  1  0
 27 26  1  0
 29 28  2  0
 30 28  1  0
 31 33  1  0
 32 28  1  0
 33 30  2  0
 34 29  1  0
 35 34  2  0
 36 40  1  0
 37 32  1  0
 38 32  1  0
 39 37  1  0
 40 38  1  0
 41 30  1  0
 42 33  1  0
 43 36  1  0
 44 48  1  0
 45 34  1  0
 46 35  1  0
 47 49  1  0
 48 50  1  0
 49 43  1  0
 50 47  1  0
 51 41  2  0
 52 42  2  0
 53 46  2  0
 54 45  2  0
 36 39  1  0
 35 31  1  0
 51 52  1  0
 54 53  1  0
 56 58  1  0
 57 55  1  0
 58 57  2  0
 59 55  2  0
 60 56  2  0
 61 55  1  0
 62 56  1  0
 10 63  1  0
 10 64  1  0
 11 65  1  0
 11 66  1  0
 12 67  1  0
 12 68  1  0
 13 69  1  0
 13 70  1  0
 14 71  1  0
 15 72  1  0
 16 73  1  0
 16 74  1  0
 17 75  1  0
 18 76  1  0
 19 77  1  0
 21 78  1  0
 21 79  1  0
 22 80  1  0
 22 81  1  0
 23 82  1  0
 23 83  1  0
 24 84  1  0
 25 85  1  0
 26 86  1  0
 27 87  1  0
 37 88  1  0
 37 89  1  0
 38 90  1  0
 38 91  1  0
 39 92  1  0
 39 93  1  0
 40 94  1  0
 40 95  1  0
 41 96  1  0
 42 97  1  0
 43 98  1  0
 43 99  1  0
 44100  1  0
 45101  1  0
 46102  1  0
 48103  1  0
 48104  1  0
 49105  1  0
 49106  1  0
 50107  1  0
 50108  1  0
 51109  1  0
 52110  1  0
 53111  1  0
 54112  1  0
 57113  1  0
 58114  1  0
 61115  1  0
 62116  1  0
M  END
$$$$
