
     RDKit          3D

116121  0  0  0  0  0  0  0  0999 V2000
   -1.9063    0.0729    0.1432 C   0  0  0  0  0  0  0  0  0  0  0  0
   -2.4106    1.2147    0.5382 N   0  0  0  0  0  0  0  0  0  0  0  0
   -2.7530   -1.1059   -0.2397 C   0  0  0  0  0  0  0  0  0  0  0  0
   -4.1666    0.5256   -2.0174 S   0  0  0  0  0  0  0  0  0  0  0  0
   -0.5123   -0.0697    0.1030 N   0  0  0  0  0  0  0  0  0  0  0  0
   -3.7240   -1.0236   -1.2436 C   0  0  0  0  0  0  0  0  0  0  0  0
   -3.7907    1.4999    0.5856 C   0  0  0  0  0  0  0  0  0  0  0  0
   -4.6716    1.3455   -0.5019 C   0  0  0  0  0  0  0  0  0  0  0  0
    2.1966    0.5901   -1.0148 N   0  0  0  0  0  0  0  0  0  0  0  0
    0.1598   -0.9571   -0.8679 C   0  0  0  0  0  0  0  0  0  0  0  0
    0.3300    1.0433    0.5994 C   0  0  0  0  0  0  0  0  0  0  0  0
    1.1684   -0.1793   -1.7444 C   0  0  0  0  0  0  0  0  0  0  0  0
    1.8336    0.7624    0.4073 C   0  0  0  0  0  0  0  0  0  0  0  0
   -2.5046   -2.3233    0.4107 C   0  0  0  0  0  0  0  0  0  0  0  0
   -4.4219   -2.1817   -1.6098 C   0  0  0  0  0  0  0  0  0  0  0  0
    3.5498    0.0376   -1.1961 C   0  0  0  0  0  0  0  0  0  0  0  0
    7.6406   -0.2582   -0.6075 O   0  0  0  0  0  0  0  0  0  0  0  0
   -4.2757    2.0862    1.7562 C   0  0  0  0  0  0  0  0  0  0  0  0
   -5.9996    1.7808   -0.4018 C   0  0  0  0  0  0  0  0  0  0  0  0
    4.9422    0.7079    0.7419 O   0  0  0  0  0  0  0  0  0  0  0  0
    7.2867   -0.0334    0.7566 C   0  0  0  0  0  0  0  0  0  0  0  0
    4.6699    0.9419   -0.6415 C   0  0  0  0  0  0  0  0  0  0  0  0
    5.8185   -0.3945    0.9961 C   0  0  0  0  0  0  0  0  0  0  0  0
   -3.2255   -3.4599    0.0589 C   0  0  0  0  0  0  0  0  0  0  0  0
   -4.1749   -3.3936   -0.9576 C   0  0  0  0  0  0  0  0  0  0  0  0
   -6.4658    2.3577    0.7761 C   0  0  0  0  0  0  0  0  0  0  0  0
   -5.6046    2.5070    1.8603 C   0  0  0  0  0  0  0  0  0  0  0  0
   -2.0124   -0.4418    0.0166 C   0  0  0  0  0  0  0  0  0  0  0  0
   -2.8016   -1.4591    0.2474 N   0  0  0  0  0  0  0  0  0  0  0  0
   -2.4842    0.9735   -0.1736 C   0  0  0  0  0  0  0  0  0  0  0  0
   -4.0347    0.7646    2.1485 S   0  0  0  0  0  0  0  0  0  0  0  0
   -0.6335   -0.6719   -0.1124 N   0  0  0  0  0  0  0  0  0  0  0  0
   -3.3246    1.6131    0.7483 C   0  0  0  0  0  0  0  0  0  0  0  0
   -4.2005   -1.3774    0.3590 C   0  0  0  0  0  0  0  0  0  0  0  0
   -4.8897   -0.4950    1.2108 C   0  0  0  0  0  0  0  0  0  0  0  0
    2.2442   -1.3283   -0.0203 N   0  0  0  0  0  0  0  0  0  0  0  0
    0.3069    0.1273    0.7096 C   0  0  0  0  0  0  0  0  0  0  0  0
   -0.1669   -2.0675   -0.2517 C   0  0  0  0  0  0  0  0  0  0  0  0
    1.7414    0.0566    0.1409 C   0  0  0  0  0  0  0  0  0  0  0  0
    1.2639   -2.0945   -0.8268 C   0  0  0  0  0  0  0  0  0  0  0  0
   -2.0060    1.6799   -1.2897 C   0  0  0  0  0  0  0  0  0  0  0  0
   -3.6665    2.9563    0.5448 C   0  0  0  0  0  0  0  0  0  0  0  0
    3.5732   -1.3567   -0.6751 C   0  0  0  0  0  0  0  0  0  0  0  0
    7.3144    1.8636   -1.2113 O   0  0  0  0  0  0  0  0  0  0  0  0
   -4.9410   -2.3092   -0.3770 C   0  0  0  0  0  0  0  0  0  0  0  0
   -6.2867   -0.5531    1.3044 C   0  0  0  0  0  0  0  0  0  0  0  0
    4.7924    0.6746   -0.1268 O   0  0  0  0  0  0  0  0  0  0  0  0
    7.2074    1.1460    0.0145 C   0  0  0  0  0  0  0  0  0  0  0  0
    4.7009   -0.7232    0.1552 C   0  0  0  0  0  0  0  0  0  0  0  0
    5.8163    1.3358    0.6257 C   0  0  0  0  0  0  0  0  0  0  0  0
   -2.3634    3.0114   -1.4901 C   0  0  0  0  0  0  0  0  0  0  0  0
   -3.1889    3.6520   -0.5672 C   0  0  0  0  0  0  0  0  0  0  0  0
   -7.0064   -1.4809    0.5564 C   0  0  0  0  0  0  0  0  0  0  0  0
   -6.3332   -2.3624   -0.2844 C   0  0  0  0  0  0  0  0  0  0  0  0
   -1.6970   -0.7422    0.4809 C   0  0  0  0  0  0  0  0  0  0  0  0
    1.6979    0.7466   -0.4823 C   0  0  0  0  0  0  0  0  0  0  0  0
   -0.3089   -0.2803    0.5235 C   0  0  0  0  0  0  0  0  0  0  0  0
    0.3158    0.2617   -0.5309 C   0  0  0  0  0  0  0  0  0  0  0  0
   -2.3064   -1.1834    1.4409 O   0  0  0  0  0  0  0  0  0  0  0  0
    2.2782    1.2654   -1.4173 O   0  0  0  0  0  0  0  0  0  0  0  0
   -2.2654   -0.6422   -0.7281 O   0  0  0  0  0  0  0  0  0  0  0  0
    2.2883    0.5771    0.7118 O   0  0  0  0  0  0  0  0  0  0  0  0
    0.6726   -1.7579   -0.3228 H   0  0  0  0  0  0  0  0  0  0  0  0
   -0.5584   -1.4353   -1.5410 H   0  0  0  0  0  0  0  0  0  0  0  0
    0.1431    1.1916    1.6680 H   0  0  0  0  0  0  0  0  0  0  0  0
    0.0659    1.9711    0.0776 H   0  0  0  0  0  0  0  0  0  0  0  0
    0.6038    0.5536   -2.3395 H   0  0  0  0  0  0  0  0  0  0  0  0
    1.6173   -0.8729   -2.4670 H   0  0  0  0  0  0  0  0  0  0  0  0
    2.1008   -0.1359    0.9802 H   0  0  0  0  0  0  0  0  0  0  0  0
    2.3971    1.6048    0.8271 H   0  0  0  0  0  0  0  0  0  0  0  0
   -1.7553   -2.3691    1.1983 H   0  0  0  0  0  0  0  0  0  0  0  0
   -5.1867   -2.1395   -2.3809 H   0  0  0  0  0  0  0  0  0  0  0  0
    3.7261   -0.0431   -2.2748 H   0  0  0  0  0  0  0  0  0  0  0  0
    3.6106   -0.9733   -0.7758 H   0  0  0  0  0  0  0  0  0  0  0  0
    8.4983    0.1764   -0.7532 H   0  0  0  0  0  0  0  0  0  0  0  0
   -3.5977    2.2387    2.5906 H   0  0  0  0  0  0  0  0  0  0  0  0
   -6.6773    1.6594   -1.2438 H   0  0  0  0  0  0  0  0  0  0  0  0
    7.9360   -0.6760    1.3632 H   0  0  0  0  0  0  0  0  0  0  0  0
    7.4845    1.0175    0.9972 H   0  0  0  0  0  0  0  0  0  0  0  0
    4.3714    1.9906   -0.7317 H   0  0  0  0  0  0  0  0  0  0  0  0
    5.5741    0.8330   -1.2415 H   0  0  0  0  0  0  0  0  0  0  0  0
    5.5102   -1.2741    0.4197 H   0  0  0  0  0  0  0  0  0  0  0  0
    5.6982   -0.6301    2.0603 H   0  0  0  0  0  0  0  0  0  0  0  0
   -3.0394   -4.4005    0.5726 H   0  0  0  0  0  0  0  0  0  0  0  0
   -4.7313   -4.2845   -1.2451 H   0  0  0  0  0  0  0  0  0  0  0  0
   -7.4922    2.6997    0.8438 H   0  0  0  0  0  0  0  0  0  0  0  0
   -5.9599    2.9624    2.7763 H   0  0  0  0  0  0  0  0  0  0  0  0
    0.0077    1.1809    0.7414 H   0  0  0  0  0  0  0  0  0  0  0  0
    0.2888   -0.2495    1.7420 H   0  0  0  0  0  0  0  0  0  0  0  0
   -0.2043   -2.5726    0.7225 H   0  0  0  0  0  0  0  0  0  0  0  0
   -0.8168   -2.6178   -0.9425 H   0  0  0  0  0  0  0  0  0  0  0  0
    1.7603    0.5862   -0.8202 H   0  0  0  0  0  0  0  0  0  0  0  0
    2.3839    0.6161    0.8279 H   0  0  0  0  0  0  0  0  0  0  0  0
    1.2309   -1.6972   -1.8472 H   0  0  0  0  0  0  0  0  0  0  0  0
    1.5815   -3.1421   -0.8904 H   0  0  0  0  0  0  0  0  0  0  0  0
   -1.3429    1.1874   -1.9980 H   0  0  0  0  0  0  0  0  0  0  0  0
   -4.3197    3.4659    1.2489 H   0  0  0  0  0  0  0  0  0  0  0  0
    3.8426   -2.4078   -0.8396 H   0  0  0  0  0  0  0  0  0  0  0  0
    3.5205   -0.8717   -1.6595 H   0  0  0  0  0  0  0  0  0  0  0  0
    8.2036    1.6998   -1.5706 H   0  0  0  0  0  0  0  0  0  0  0  0
   -4.4135   -3.0035   -1.0250 H   0  0  0  0  0  0  0  0  0  0  0  0
   -6.8273    0.1363    1.9492 H   0  0  0  0  0  0  0  0  0  0  0  0
    7.9695    1.5379    0.6954 H   0  0  0  0  0  0  0  0  0  0  0  0
    7.4189    0.0932   -0.1923 H   0  0  0  0  0  0  0  0  0  0  0  0
    5.6439   -1.2056   -0.1155 H   0  0  0  0  0  0  0  0  0  0  0  0
    4.5357   -0.8808    1.2247 H   0  0  0  0  0  0  0  0  0  0  0  0
    5.5623    2.3990    0.6231 H   0  0  0  0  0  0  0  0  0  0  0  0
    5.7911    0.9904    1.6655 H   0  0  0  0  0  0  0  0  0  0  0  0
   -1.9983    3.5443   -2.3633 H   0  0  0  0  0  0  0  0  0  0  0  0
   -3.4637    4.6946   -0.7147 H   0  0  0  0  0  0  0  0  0  0  0  0
   -8.0900   -1.5213    0.6354 H   0  0  0  0  0  0  0  0  0  0  0  0
   -6.8855   -3.0956   -0.8650 H   0  0  0  0  0  0  0  0  0  0  0  0
    0.1714   -0.3977    1.4893 H   0  0  0  0  0  0  0  0  0  0  0  0
   -0.1679    0.3818   -1.4947 H   0  0  0  0  0  0  0  0  0  0  0  0
   -3.1883   -0.9511   -0.5834 H   0  0  0  0  0  0  0  0  0  0  0  0
    3.1823    0.9642    0.5903 H   0  0  0  0  0  0  0  0  0  0  0  0
  2  1  2  0
  3  1  1  0
  4  6  1  0
  5  1  1  0
  6  3  2  0
  7  2  1  0
  8  7  2  0
  9 13  1  0
 10  5  1  0
 11  5  1  0
 12 10  1  0
 13 11  1  0
 14  3  1  0
 15  6  1  0
 16  9  1  0
 17 21  1  0
 18  7  1  0
 19  8  1  0
 20 22  1  0
 21 23  1  0
 22 16  1  0
 23 20  1  0
 24 14  2  0
 25 15  2  0
 26 19  2  0
 27 18  2  0
  9 12  1  0
  8  4  1  0
 24 25  1  0
 27 26  1  0
 29 28  2  0
 30 28  1  0
 31 33  1  0
 32 28  1  0
 33 30  2  0
 34 29  1  0
 35 34  2  0
 36 40  1  0
 37 32  1  0
 38 32  1  0
 39 37  1  0
 40 38  1  0
 41 30  1  0
 42 33  1  0
 43 36  1  0
 44 48  1  0
 45 34  1  0
 46 35  1  0
 47 49  1  0
 48 50  1  0
 49 43  1  0
 50 47  1  0
 51 41  2  0
 52 42  2  0
 53 46  2  0
 54 45  2  0
 36 39  1  0
 35 31  1  0
 51 52  1  0
 54 53  1  0
 56 58  1  0
 57 55  1  0
 58 57  2  0
 59 55  2  0
 60 56  2  0
 61 55  1  0
 62 56  1  0
 10 63  1  0
 10 64  1  0
 11 65  1  0
 11 66  1  0
 12 67  1  0
 12 68  1  0
 13 69  1  0
 13 70  1  0
 14 71  1  0
 15 72  1  0
 16 73  1  0
 16 74  1  0
 17 75  1  0
 18 76  1  0
 19 77  1  0
 21 78  1  0
 21 79  1  0
 22 80  1  0
 22 81  1  0
 23 82  1  0
 23 83  1  0
 24 84  1  0
 25 85  1  0
 26 86  1  0
 27 87  1  0
 37 88  1  0
 37 89  1  0
 38 90  1  0
 38 91  1  0
 39 92  1  0
 39 93  1  0
 40 94  1  0
 40 95  1  0
 41 96  1  0
 42 97  1  0
 43 98  1  0
 43 99  1  0
 44100  1  0
 45101  1  0
 46102  1  0
 48103  1  0
 48104  1  0
 49105  1  0
 49106  1  0
 50107  1  0
 50108  1  0
 51109  1  0
 52110  1  0
 53111  1  0
 54112  1  0
 57113  1  0
 58114  1  0
 61115  1  0
 62116  1  0
M  END
$$$$
