
     RDKit          3D

116121  0  0  0  0  0  0  0  0999 V2000
   -1.9394   -0.1981    0.1726 C   0  0  0  0  0  0  0  0  0  0  0  0
   -2.5601    0.5677    1.0329 N   0  0  0  0  0  0  0  0  0  0  0  0
   -2.5134   -0.5886   -1.1576 C   0  0  0  0  0  0  0  0  0  0  0  0
   -3.0427    2.1023   -1.7077 S   0  0  0  0  0  0  0  0  0  0  0  0
   -0.6852   -0.7115    0.5260 N   0  0  0  0  0  0  0  0  0  0  0  0
   -2.9546    0.3620   -2.0887 C   0  0  0  0  0  0  0  0  0  0  0  0
   -3.8157    1.1608    0.8141 C   0  0  0  0  0  0  0  0  0  0  0  0
   -4.1466    1.9457   -0.3063 C   0  0  0  0  0  0  0  0  0  0  0  0
    2.1686   -1.2924    1.2744 N   0  0  0  0  0  0  0  0  0  0  0  0
   -0.1813   -0.4964    1.8962 C   0  0  0  0  0  0  0  0  0  0  0  0
    0.3501   -1.0492   -0.4695 C   0  0  0  0  0  0  0  0  0  0  0  0
    1.0189   -1.4140    2.2000 C   0  0  0  0  0  0  0  0  0  0  0  0
    1.7609   -0.6414    0.0084 C   0  0  0  0  0  0  0  0  0  0  0  0
   -2.5520   -1.9540   -1.4732 C   0  0  0  0  0  0  0  0  0  0  0  0
   -3.3988   -0.0694   -3.3455 C   0  0  0  0  0  0  0  0  0  0  0  0
    3.3032   -0.5917    1.9094 C   0  0  0  0  0  0  0  0  0  0  0  0
    7.0870    2.0195   -0.0399 O   0  0  0  0  0  0  0  0  0  0  0  0
   -4.7533    1.0488    1.8483 C   0  0  0  0  0  0  0  0  0  0  0  0
   -5.3938    2.5871   -0.3758 C   0  0  0  0  0  0  0  0  0  0  0  0
    4.5436    0.4656    0.0933 O   0  0  0  0  0  0  0  0  0  0  0  0
    6.9669    0.6517   -0.4117 C   0  0  0  0  0  0  0  0  0  0  0  0
    4.5907   -0.5838    1.0612 C   0  0  0  0  0  0  0  0  0  0  0  0
    5.5513    0.3562   -0.9161 C   0  0  0  0  0  0  0  0  0  0  0  0
   -3.0059   -2.3728   -2.7236 C   0  0  0  0  0  0  0  0  0  0  0  0
   -3.4227   -1.4289   -3.6615 C   0  0  0  0  0  0  0  0  0  0  0  0
   -6.3213    2.4449    0.6571 C   0  0  0  0  0  0  0  0  0  0  0  0
   -6.0008    1.6732    1.7698 C   0  0  0  0  0  0  0  0  0  0  0  0
    1.9587   -0.2739   -0.1401 C   0  0  0  0  0  0  0  0  0  0  0  0
    2.8220   -1.2172    0.1351 N   0  0  0  0  0  0  0  0  0  0  0  0
    2.3358    1.1318   -0.5092 C   0  0  0  0  0  0  0  0  0  0  0  0
    3.9950    1.2590    1.7351 S   0  0  0  0  0  0  0  0  0  0  0  0
    0.5889   -0.5861   -0.1394 N   0  0  0  0  0  0  0  0  0  0  0  0
    3.1838    1.9114    0.2858 C   0  0  0  0  0  0  0  0  0  0  0  0
    4.2155   -1.0396    0.1536 C   0  0  0  0  0  0  0  0  0  0  0  0
    4.8841   -0.0449    0.8919 C   0  0  0  0  0  0  0  0  0  0  0  0
   -2.2051   -1.4058    0.3578 N   0  0  0  0  0  0  0  0  0  0  0  0
    0.2108   -2.0136   -0.0494 C   0  0  0  0  0  0  0  0  0  0  0  0
   -0.3276    0.2588    0.6591 C   0  0  0  0  0  0  0  0  0  0  0  0
   -1.2645   -2.2140   -0.4525 C   0  0  0  0  0  0  0  0  0  0  0  0
   -1.8043    0.0158    0.2703 C   0  0  0  0  0  0  0  0  0  0  0  0
    1.7657    1.6744   -1.6716 C   0  0  0  0  0  0  0  0  0  0  0  0
    3.4482    3.2363   -0.0895 C   0  0  0  0  0  0  0  0  0  0  0  0
   -3.5935   -1.6219   -0.1024 C   0  0  0  0  0  0  0  0  0  0  0  0
   -7.4063    1.3175    1.3017 O   0  0  0  0  0  0  0  0  0  0  0  0
    4.9825   -1.9814   -0.5412 C   0  0  0  0  0  0  0  0  0  0  0  0
    6.2866   -0.0098    0.9196 C   0  0  0  0  0  0  0  0  0  0  0  0
   -4.8389    0.3323    0.8202 O   0  0  0  0  0  0  0  0  0  0  0  0
   -7.1172    0.6878    0.0537 C   0  0  0  0  0  0  0  0  0  0  0  0
   -4.6736   -1.0869    0.8625 C   0  0  0  0  0  0  0  0  0  0  0  0
   -5.6287    0.8195   -0.2672 C   0  0  0  0  0  0  0  0  0  0  0  0
    2.0411    2.9904   -2.0400 C   0  0  0  0  0  0  0  0  0  0  0  0
    2.8770    3.7741   -1.2450 C   0  0  0  0  0  0  0  0  0  0  0  0
    7.0317   -0.9505    0.2133 C   0  0  0  0  0  0  0  0  0  0  0  0
    6.3786   -1.9391   -0.5174 C   0  0  0  0  0  0  0  0  0  0  0  0
   -1.8743    0.3813    0.1052 C   0  0  0  0  0  0  0  0  0  0  0  0
    1.8747   -0.3814    0.2639 C   0  0  0  0  0  0  0  0  0  0  0  0
   -0.4305    0.4930    0.3308 C   0  0  0  0  0  0  0  0  0  0  0  0
    0.4304   -0.4934    0.0462 C   0  0  0  0  0  0  0  0  0  0  0  0
   -2.6784    1.2620    0.3494 O   0  0  0  0  0  0  0  0  0  0  0  0
    2.6770   -1.2606    0.0097 O   0  0  0  0  0  0  0  0  0  0  0  0
   -2.2584   -0.7993   -0.4025 O   0  0  0  0  0  0  0  0  0  0  0  0
    2.2588    0.7948    0.7802 O   0  0  0  0  0  0  0  0  0  0  0  0
   -0.9701   -0.7240    2.6241 H   0  0  0  0  0  0  0  0  0  0  0  0
    0.1058    0.5543    2.0315 H   0  0  0  0  0  0  0  0  0  0  0  0
    0.1609   -0.5423   -1.4233 H   0  0  0  0  0  0  0  0  0  0  0  0
    0.3268   -2.1293   -0.6541 H   0  0  0  0  0  0  0  0  0  0  0  0
    1.3249   -1.2730    3.2430 H   0  0  0  0  0  0  0  0  0  0  0  0
    0.6690   -2.4525    2.1339 H   0  0  0  0  0  0  0  0  0  0  0  0
    2.4777   -0.9089   -0.7741 H   0  0  0  0  0  0  0  0  0  0  0  0
    1.7774    0.4505    0.1150 H   0  0  0  0  0  0  0  0  0  0  0  0
   -2.2306   -2.6898   -0.7422 H   0  0  0  0  0  0  0  0  0  0  0  0
   -3.7443    0.6536   -4.0828 H   0  0  0  0  0  0  0  0  0  0  0  0
    3.5489   -1.1252    2.8364 H   0  0  0  0  0  0  0  0  0  0  0  0
    3.0214    0.4344    2.1747 H   0  0  0  0  0  0  0  0  0  0  0  0
    7.9602    2.1354    0.3722 H   0  0  0  0  0  0  0  0  0  0  0  0
   -4.4952    0.4772    2.7351 H   0  0  0  0  0  0  0  0  0  0  0  0
   -5.6519    3.1961   -1.2392 H   0  0  0  0  0  0  0  0  0  0  0  0
    7.2242    0.0362    0.4511 H   0  0  0  0  0  0  0  0  0  0  0  0
    7.6923    0.4533   -1.2072 H   0  0  0  0  0  0  0  0  0  0  0  0
    5.4397   -0.4024    1.7284 H   0  0  0  0  0  0  0  0  0  0  0  0
    4.7322   -1.5572    0.5756 H   0  0  0  0  0  0  0  0  0  0  0  0
    5.5048   -0.6386   -1.3726 H   0  0  0  0  0  0  0  0  0  0  0  0
    5.2882    1.0865   -1.6879 H   0  0  0  0  0  0  0  0  0  0  0  0
   -3.0371   -3.4328   -2.9661 H   0  0  0  0  0  0  0  0  0  0  0  0
   -3.7778   -1.7493   -4.6380 H   0  0  0  0  0  0  0  0  0  0  0  0
   -7.2892    2.9380    0.5928 H   0  0  0  0  0  0  0  0  0  0  0  0
   -6.7116    1.5668    2.5873 H   0  0  0  0  0  0  0  0  0  0  0  0
    0.3715   -2.3806    0.9738 H   0  0  0  0  0  0  0  0  0  0  0  0
    0.8306   -2.6101   -0.7318 H   0  0  0  0  0  0  0  0  0  0  0  0
   -0.1113    1.3208    0.5175 H   0  0  0  0  0  0  0  0  0  0  0  0
   -0.1872    0.0385    1.7239 H   0  0  0  0  0  0  0  0  0  0  0  0
   -1.5023   -3.2770   -0.3305 H   0  0  0  0  0  0  0  0  0  0  0  0
   -1.3803   -1.9724   -1.5166 H   0  0  0  0  0  0  0  0  0  0  0  0
   -2.4154    0.6243    0.9438 H   0  0  0  0  0  0  0  0  0  0  0  0
   -1.9618    0.3906   -0.7500 H   0  0  0  0  0  0  0  0  0  0  0  0
    1.1094    1.0668   -2.2892 H   0  0  0  0  0  0  0  0  0  0  0  0
    4.1080    3.8564    0.5144 H   0  0  0  0  0  0  0  0  0  0  0  0
   -3.7602   -2.7048   -0.1699 H   0  0  0  0  0  0  0  0  0  0  0  0
   -3.7292   -1.2092   -1.1085 H   0  0  0  0  0  0  0  0  0  0  0  0
   -6.6359    1.1383    1.8739 H   0  0  0  0  0  0  0  0  0  0  0  0
    4.4769   -2.7653   -1.1029 H   0  0  0  0  0  0  0  0  0  0  0  0
    6.8010    0.7667    1.4786 H   0  0  0  0  0  0  0  0  0  0  0  0
   -7.4210   -0.3605    0.1333 H   0  0  0  0  0  0  0  0  0  0  0  0
   -7.7222    1.1648   -0.7259 H   0  0  0  0  0  0  0  0  0  0  0  0
   -4.4061   -1.3550    1.8915 H   0  0  0  0  0  0  0  0  0  0  0  0
   -5.6296   -1.5818    0.6590 H   0  0  0  0  0  0  0  0  0  0  0  0
   -5.3692    0.3313   -1.2095 H   0  0  0  0  0  0  0  0  0  0  0  0
   -5.3838    1.8814   -0.3601 H   0  0  0  0  0  0  0  0  0  0  0  0
    1.6062    3.4069   -2.9451 H   0  0  0  0  0  0  0  0  0  0  0  0
    3.0951    4.8006   -1.5295 H   0  0  0  0  0  0  0  0  0  0  0  0
    8.1189   -0.9130    0.2316 H   0  0  0  0  0  0  0  0  0  0  0  0
    6.9514   -2.6819   -1.0672 H   0  0  0  0  0  0  0  0  0  0  0  0
   -0.1106    1.4423    0.7457 H   0  0  0  0  0  0  0  0  0  0  0  0
    0.1088   -1.4430   -0.3691 H   0  0  0  0  0  0  0  0  0  0  0  0
   -3.2306   -0.7118   -0.4940 H   0  0  0  0  0  0  0  0  0  0  0  0
    3.2330    0.7163    0.8585 H   0  0  0  0  0  0  0  0  0  0  0  0
  2  1  2  0
  3  1  1  0
  4  6  1  0
  5  1  1  0
  6  3  2  0
  7  2  1  0
  8  7  2  0
  9 13  1  0
 10  5  1  0
 11  5  1  0
 12 10  1  0
 13 11  1  0
 14  3  1  0
 15  6  1  0
 16  9  1  0
 17 21  1  0
 18  7  1  0
 19  8  1  0
 20 22  1  0
 21 23  1  0
 22 16  1  0
 23 20  1  0
 24 14  2  0
 25 15  2  0
 26 19  2  0
 27 18  2  0
  9 12  1  0
  8  4  1  0
 24 25  1  0
 27 26  1  0
 29 28  2  0
 30 28  1  0
 31 33  1  0
 32 28  1  0
 33 30  2  0
 34 29  1  0
 35 34  2  0
 36 40  1  0
 37 32  1  0
 38 32  1  0
 39 37  1  0
 40 38  1  0
 41 30  1  0
 42 33  1  0
 43 36  1  0
 44 48  1  0
 45 34  1  0
 46 35  1  0
 47 49  1  0
 48 50  1  0
 49 43  1  0
 50 47  1  0
 51 41  2  0
 52 42  2  0
 53 46  2  0
 54 45  2  0
 36 39  1  0
 35 31  1  0
 51 52  1  0
 54 53  1  0
 56 58  1  0
 57 55  1  0
 58 57  2  0
 59 55  2  0
 60 56  2  0
 61 55  1  0
 62 56  1  0
 10 63  1  0
 10 64  1  0
 11 65  1  0
 11 66  1  0
 12 67  1  0
 12 68  1  0
 13 69  1  0
 13 70  1  0
 14 71  1  0
 15 72  1  0
 16 73  1  0
 16 74  1  0
 17 75  1  0
 18 76  1  0
 19 77  1  0
 21 78  1  0
 21 79  1  0
 22 80  1  0
 22 81  1  0
 23 82  1  0
 23 83  1  0
 24 84  1  0
 25 85  1  0
 26 86  1  0
 27 87  1  0
 37 88  1  0
 37 89  1  0
 38 90  1  0
 38 91  1  0
 39 92  1  0
 39 93  1  0
 40 94  1  0
 40 95  1  0
 41 96  1  0
 42 97  1  0
 43 98  1  0
 43 99  1  0
 44100  1  0
 45101  1  0
 46102  1  0
 48103  1  0
 48104  1  0
 49105  1  0
 49106  1  0
 50107  1  0
 50108  1  0
 51109  1  0
 52110  1  0
 53111  1  0
 54112  1  0
 57113  1  0
 58114  1  0
 61115  1  0
 62116  1  0
M  END
$$$$
