
     RDKit          3D

116121  0  0  0  0  0  0  0  0999 V2000
   -1.8161    0.3332    0.3592 C   0  0  0  0  0  0  0  0  0  0  0  0
   -2.0874    1.5925    0.5627 N   0  0  0  0  0  0  0  0  0  0  0  0
   -2.8392   -0.7082    0.0283 C   0  0  0  0  0  0  0  0  0  0  0  0
   -3.8920    0.9397   -1.9745 S   0  0  0  0  0  0  0  0  0  0  0  0
   -0.4889   -0.1006    0.4990 N   0  0  0  0  0  0  0  0  0  0  0  0
   -3.7702   -0.5503   -1.0031 C   0  0  0  0  0  0  0  0  0  0  0  0
   -3.3657    2.1691    0.4848 C   0  0  0  0  0  0  0  0  0  0  0  0
   -4.2412    2.0405   -0.6088 C   0  0  0  0  0  0  0  0  0  0  0  0
    2.4193   -0.5726    0.3947 N   0  0  0  0  0  0  0  0  0  0  0  0
    0.1354   -0.7768   -0.6615 C   0  0  0  0  0  0  0  0  0  0  0  0
    0.4679    0.8294    1.1434 C   0  0  0  0  0  0  0  0  0  0  0  0
    1.4518   -1.4773   -0.2624 C   0  0  0  0  0  0  0  0  0  0  0  0
    1.7577    0.0876    1.5431 C   0  0  0  0  0  0  0  0  0  0  0  0
   -2.8048   -1.8971    0.7734 C   0  0  0  0  0  0  0  0  0  0  0  0
   -4.6634   -1.5946   -1.2737 C   0  0  0  0  0  0  0  0  0  0  0  0
    3.6357   -1.2892    0.8181 C   0  0  0  0  0  0  0  0  0  0  0  0
    7.6054    1.1969   -0.4402 O   0  0  0  0  0  0  0  0  0  0  0  0
   -3.7297    3.0240    1.5297 C   0  0  0  0  0  0  0  0  0  0  0  0
   -5.4533    2.7473   -0.6307 C   0  0  0  0  0  0  0  0  0  0  0  0
    4.7688   -0.9878   -1.4143 O   0  0  0  0  0  0  0  0  0  0  0  0
    6.9337   -0.0216   -0.7480 C   0  0  0  0  0  0  0  0  0  0  0  0
    4.4983   -1.8758   -0.3244 C   0  0  0  0  0  0  0  0  0  0  0  0
    5.4657    0.2114   -1.0901 C   0  0  0  0  0  0  0  0  0  0  0  0
   -3.7025   -2.9244    0.4986 C   0  0  0  0  0  0  0  0  0  0  0  0
   -4.6328   -2.7725   -0.5258 C   0  0  0  0  0  0  0  0  0  0  0  0
   -5.8028    3.5870    0.4266 C   0  0  0  0  0  0  0  0  0  0  0  0
   -4.9375    3.7275    1.5095 C   0  0  0  0  0  0  0  0  0  0  0  0
   -1.9633   -0.0276    0.5010 C   0  0  0  0  0  0  0  0  0  0  0  0
   -2.1570    1.2535    0.6755 N   0  0  0  0  0  0  0  0  0  0  0  0
   -3.0176   -0.9598   -0.0314 C   0  0  0  0  0  0  0  0  0  0  0  0
   -3.4097    0.7745   -2.1916 S   0  0  0  0  0  0  0  0  0  0  0  0
   -0.7147   -0.5786    0.8450 N   0  0  0  0  0  0  0  0  0  0  0  0
   -3.6377   -0.7375   -1.2677 C   0  0  0  0  0  0  0  0  0  0  0  0
   -3.3474    1.9283    0.3566 C   0  0  0  0  0  0  0  0  0  0  0  0
   -3.9768    1.8838   -0.9027 C   0  0  0  0  0  0  0  0  0  0  0  0
    1.7587   -0.2705   -0.6046 N   0  0  0  0  0  0  0  0  0  0  0  0
   -0.1676   -1.7087    0.0576 C   0  0  0  0  0  0  0  0  0  0  0  0
    0.3252    0.2962    1.4182 C   0  0  0  0  0  0  0  0  0  0  0  0
    1.3617   -1.6085   -0.1633 C   0  0  0  0  0  0  0  0  0  0  0  0
    1.2997    0.7871    0.3208 C   0  0  0  0  0  0  0  0  0  0  0  0
   -3.3118   -2.1165    0.7078 C   0  0  0  0  0  0  0  0  0  0  0  0
   -4.5241   -1.6985   -1.7696 C   0  0  0  0  0  0  0  0  0  0  0  0
    3.1600   -0.1347   -1.0069 C   0  0  0  0  0  0  0  0  0  0  0  0
    7.7347    1.5600   -0.0788 O   0  0  0  0  0  0  0  0  0  0  0  0
   -3.8729    2.7752    1.3357 C   0  0  0  0  0  0  0  0  0  0  0  0
   -5.1098    2.6701   -1.1565 C   0  0  0  0  0  0  0  0  0  0  0  0
    5.5054   -0.0868   -0.4674 O   0  0  0  0  0  0  0  0  0  0  0  0
    7.8569    0.1381   -0.1388 C   0  0  0  0  0  0  0  0  0  0  0  0
    4.2309   -0.4952    0.0380 C   0  0  0  0  0  0  0  0  0  0  0  0
    6.5750   -0.5031    0.3894 C   0  0  0  0  0  0  0  0  0  0  0  0
   -4.2039   -3.0624    0.1983 C   0  0  0  0  0  0  0  0  0  0  0  0
   -4.8031   -2.8577   -1.0396 C   0  0  0  0  0  0  0  0  0  0  0  0
   -5.6329    3.4902   -0.1567 C   0  0  0  0  0  0  0  0  0  0  0  0
   -5.0118    3.5469    1.0906 C   0  0  0  0  0  0  0  0  0  0  0  0
   -1.9148   -0.4364   -0.1949 C   0  0  0  0  0  0  0  0  0  0  0  0
    1.8439    0.0610   -0.0585 C   0  0  0  0  0  0  0  0  0  0  0  0
   -0.4661   -0.5690   -0.3745 C   0  0  0  0  0  0  0  0  0  0  0  0
    0.4175    0.2630    0.1914 C   0  0  0  0  0  0  0  0  0  0  0  0
   -2.7451   -1.1786   -0.6856 O   0  0  0  0  0  0  0  0  0  0  0  0
    2.3552   -0.8185   -0.7227 O   0  0  0  0  0  0  0  0  0  0  0  0
   -2.2703    0.5998    0.5795 O   0  0  0  0  0  0  0  0  0  0  0  0
    2.5648    1.0126    0.5555 O   0  0  0  0  0  0  0  0  0  0  0  0
   -0.5358   -1.5320   -1.0877 H   0  0  0  0  0  0  0  0  0  0  0  0
    0.3367   -0.0376   -1.4498 H   0  0  0  0  0  0  0  0  0  0  0  0
    0.7082    1.6566    0.4604 H   0  0  0  0  0  0  0  0  0  0  0  0
    0.0282    1.2599    2.0527 H   0  0  0  0  0  0  0  0  0  0  0  0
    1.2214   -2.3183    0.4088 H   0  0  0  0  0  0  0  0  0  0  0  0
    1.8955   -1.8911   -1.1756 H   0  0  0  0  0  0  0  0  0  0  0  0
    2.4434    0.8172    1.9868 H   0  0  0  0  0  0  0  0  0  0  0  0
    1.5096   -0.6551    2.3094 H   0  0  0  0  0  0  0  0  0  0  0  0
   -2.0747   -2.0174    1.5751 H   0  0  0  0  0  0  0  0  0  0  0  0
   -5.3988   -1.5009   -2.0714 H   0  0  0  0  0  0  0  0  0  0  0  0
    4.2669   -0.5930    1.3745 H   0  0  0  0  0  0  0  0  0  0  0  0
    3.3807   -2.0994    1.5117 H   0  0  0  0  0  0  0  0  0  0  0  0
    7.1483    1.6112    0.3121 H   0  0  0  0  0  0  0  0  0  0  0  0
   -3.0488    3.1546    2.3646 H   0  0  0  0  0  0  0  0  0  0  0  0
   -6.1391    2.6513   -1.4736 H   0  0  0  0  0  0  0  0  0  0  0  0
    7.0401   -0.6940    0.1098 H   0  0  0  0  0  0  0  0  0  0  0  0
    7.4525   -0.4940   -1.5912 H   0  0  0  0  0  0  0  0  0  0  0  0
    5.4429   -2.2627    0.0789 H   0  0  0  0  0  0  0  0  0  0  0  0
    3.9847   -2.7397   -0.7585 H   0  0  0  0  0  0  0  0  0  0  0  0
    5.4233    0.8654   -1.9745 H   0  0  0  0  0  0  0  0  0  0  0  0
    4.9588    0.7673   -0.2953 H   0  0  0  0  0  0  0  0  0  0  0  0
   -3.6725   -3.8411    1.0812 H   0  0  0  0  0  0  0  0  0  0  0  0
   -5.3453   -3.5656   -0.7351 H   0  0  0  0  0  0  0  0  0  0  0  0
   -6.7392    4.1392    0.4050 H   0  0  0  0  0  0  0  0  0  0  0  0
   -5.1991    4.3820    2.3358 H   0  0  0  0  0  0  0  0  0  0  0  0
   -0.4002   -2.6475    0.5699 H   0  0  0  0  0  0  0  0  0  0  0  0
   -0.6367   -1.7501   -0.9330 H   0  0  0  0  0  0  0  0  0  0  0  0
   -0.0938    1.1488    1.9652 H   0  0  0  0  0  0  0  0  0  0  0  0
    0.8781   -0.2853    2.1631 H   0  0  0  0  0  0  0  0  0  0  0  0
    1.8782   -1.8883    0.7657 H   0  0  0  0  0  0  0  0  0  0  0  0
    1.6422   -2.3498   -0.9237 H   0  0  0  0  0  0  0  0  0  0  0  0
    2.1408    1.2853    0.8278 H   0  0  0  0  0  0  0  0  0  0  0  0
    0.8033    1.5548   -0.2876 H   0  0  0  0  0  0  0  0  0  0  0  0
   -2.8539   -2.2675    1.6825 H   0  0  0  0  0  0  0  0  0  0  0  0
   -5.0223   -1.5396   -2.7224 H   0  0  0  0  0  0  0  0  0  0  0  0
    3.3325   -0.7698   -1.8897 H   0  0  0  0  0  0  0  0  0  0  0  0
    3.3361    0.8862   -1.3748 H   0  0  0  0  0  0  0  0  0  0  0  0
    6.8210    1.7493   -0.3667 H   0  0  0  0  0  0  0  0  0  0  0  0
   -3.3719    2.8447    2.2967 H   0  0  0  0  0  0  0  0  0  0  0  0
   -5.6069    2.6274   -2.1237 H   0  0  0  0  0  0  0  0  0  0  0  0
    8.0242   -0.1339   -1.1866 H   0  0  0  0  0  0  0  0  0  0  0  0
    8.7205   -0.1648    0.4573 H   0  0  0  0  0  0  0  0  0  0  0  0
    4.2355   -1.5762    0.2200 H   0  0  0  0  0  0  0  0  0  0  0  0
    4.0466    0.0271    0.9835 H   0  0  0  0  0  0  0  0  0  0  0  0
    6.6526   -1.5969    0.3697 H   0  0  0  0  0  0  0  0  0  0  0  0
    6.3764   -0.1544    1.4114 H   0  0  0  0  0  0  0  0  0  0  0  0
   -4.4321   -3.9564    0.7710 H   0  0  0  0  0  0  0  0  0  0  0  0
   -5.4976   -3.5900   -1.4423 H   0  0  0  0  0  0  0  0  0  0  0  0
   -6.5168    4.0920   -0.3542 H   0  0  0  0  0  0  0  0  0  0  0  0
   -5.4020    4.1972    1.8637 H   0  0  0  0  0  0  0  0  0  0  0  0
   -0.1569   -1.3906   -1.0113 H   0  0  0  0  0  0  0  0  0  0  0  0
    0.1297    1.0942    0.8204 H   0  0  0  0  0  0  0  0  0  0  0  0
   -3.2488    0.5566    0.5952 H   0  0  0  0  0  0  0  0  0  0  0  0
    3.4907    0.8060    0.3056 H   0  0  0  0  0  0  0  0  0  0  0  0
  2  1  2  0
  3  1  1  0
  4  6  1  0
  5  1  1  0
  6  3  2  0
  7  2  1  0
  8  7  2  0
  9 13  1  0
 10  5  1  0
 11  5  1  0
 12 10  1  0
 13 11  1  0
 14  3  1  0
 15  6  1  0
 16  9  1  0
 17 21  1  0
 18  7  1  0
 19  8  1  0
 20 22  1  0
 21 23  1  0
 22 16  1  0
 23 20  1  0
 24 14  2  0
 25 15  2  0
 26 19  2  0
 27 18  2  0
  9 12  1  0
  8  4  1  0
 24 25  1  0
 27 26  1  0
 29 28  2  0
 30 28  1  0
 31 33  1  0
 32 28  1  0
 33 30  2  0
 34 29  1  0
 35 34  2  0
 36 40  1  0
 37 32  1  0
 38 32  1  0
 39 37  1  0
 40 38  1  0
 41 30  1  0
 42 33  1  0
 43 36  1  0
 44 48  1  0
 45 34  1  0
 46 35  1  0
 47 49  1  0
 48 50  1  0
 49 43  1  0
 50 47  1  0
 51 41  2  0
 52 42  2  0
 53 46  2  0
 54 45  2  0
 36 39  1  0
 35 31  1  0
 51 52  1  0
 54 53  1  0
 56 58  1  0
 57 55  1  0
 58 57  2  0
 59 55  2  0
 60 56  2  0
 61 55  1  0
 62 56  1  0
 10 63  1  0
 10 64  1  0
 11 65  1  0
 11 66  1  0
 12 67  1  0
 12 68  1  0
 13 69  1  0
 13 70  1  0
 14 71  1  0
 15 72  1  0
 16 73  1  0
 16 74  1  0
 17 75  1  0
 18 76  1  0
 19 77  1  0
 21 78  1  0
 21 79  1  0
 22 80  1  0
 22 81  1  0
 23 82  1  0
 23 83  1  0
 24 84  1  0
 25 85  1  0
 26 86  1  0
 27 87  1  0
 37 88  1  0
 37 89  1  0
 38 90  1  0
 38 91  1  0
 39 92  1  0
 39 93  1  0
 40 94  1  0
 40 95  1  0
 41 96  1  0
 42 97  1  0
 43 98  1  0
 43 99  1  0
 44100  1  0
 45101  1  0
 46102  1  0
 48103  1  0
 48104  1  0
 49105  1  0
 49106  1  0
 50107  1  0
 50108  1  0
 51109  1  0
 52110  1  0
 53111  1  0
 54112  1  0
 57113  1  0
 58114  1  0
 61115  1  0
 62116  1  0
M  END
$$$$
