
     RDKit          3D

 29 28  0  0  0  0  0  0  0  0999 V2000
   47.9005    1.8533    6.3446 O   0  0  0  0  0  0  0  0  0  0  0  0
   47.0994    1.2171    7.0946 C   0  0  0  0  0  0  0  0  0  0  0  0
   46.9219   -0.0226    7.2392 O   0  0  0  0  0  0  0  0  0  0  0  0
   46.2039    2.1525    7.9654 C   0  0  0  0  0  0  0  0  0  0  0  0
   45.3024    1.6437    8.8135 C   0  0  0  0  0  0  0  0  0  0  0  0
   44.4788    2.5652    9.6156 C   0  0  0  0  0  0  0  0  0  0  0  0
   43.6371    2.1522   10.4086 O   0  0  0  0  0  0  0  0  0  0  0  0
   44.7051    3.9009    9.4263 N   0  0  0  0  0  0  0  0  0  0  0  0
   45.6236    4.4322    8.5625 C   0  0  0  0  0  0  0  0  0  0  0  0
   45.7681    5.6466    8.4488 O   0  0  0  0  0  0  0  0  0  0  0  0
   46.3481    3.5226    7.8550 N   0  0  0  0  0  0  0  0  0  0  0  0
   45.7391    2.7160    8.4189 Mg  0  0  0  0  0 15  0  0  0  0  0  0
   44.1218    4.7649   10.1232 O   0  0  0  0  0  0  0  0  0  0  0  0
   44.2522    3.5037   10.1567 C   0  0  0  0  0  0  0  0  0  0  0  0
   43.7421    2.6472   10.9285 O   0  0  0  0  0  0  0  0  0  0  0  0
   45.2058    2.9582    9.0484 C   0  0  0  0  0  0  0  0  0  0  0  0
   45.4543    1.6474    8.9419 C   0  0  0  0  0  0  0  0  0  0  0  0
   46.3614    1.1780    7.8800 C   0  0  0  0  0  0  0  0  0  0  0  0
   46.6237   -0.0130    7.7374 O   0  0  0  0  0  0  0  0  0  0  0  0
   46.8916    2.1413    7.0663 N   0  0  0  0  0  0  0  0  0  0  0  0
   46.6447    3.4835    7.1659 C   0  0  0  0  0  0  0  0  0  0  0  0
   47.1606    4.2884    6.3948 O   0  0  0  0  0  0  0  0  0  0  0  0
   45.7983    3.8446    8.1688 N   0  0  0  0  0  0  0  0  0  0  0  0
   45.1488    0.5793    8.9388 H   0  0  0  0  0  0  0  0  0  0  0  0
   44.1546    4.5470    9.9630 H   0  0  0  0  0  0  0  0  0  0  0  0
   47.0544    3.8336    7.1889 H   0  0  0  0  0  0  0  0  0  0  0  0
   45.0170    0.9109    9.6040 H   0  0  0  0  0  0  0  0  0  0  0  0
   47.5126    1.8433    6.3356 H   0  0  0  0  0  0  0  0  0  0  0  0
   45.5606    4.8252    8.3132 H   0  0  0  0  0  0  0  0  0  0  0  0
  1  2  1  0
  2  3  2  0
  2  4  1  0
  4  5  2  0
  5  6  1  0
  6  7  2  0
  6  8  1  0
  8  9  1  0
  9 10  2  0
  9 11  1  0
  4 11  1  0
 13 14  1  0
 14 15  2  0
 14 16  1  0
 16 17  2  0
 17 18  1  0
 18 19  2  0
 18 20  1  0
 20 21  1  0
 21 22  2  0
 21 23  1  0
 16 23  1  0
  5 24  1  0
  8 25  1  0
 11 26  1  0
 17 27  1  0
 20 28  1  0
 23 29  1  0
M  CHG  3   1  -1  12   2  13  -1
M  END
> <Uni-Dock RESULT> 
ENERGY=   -6.891  LOWER_BOUND=    0.000  UPPER_BOUND=    0.000
INTER + INTRA:          -6.891
INTER:                  -6.891
INTRA:                   0.000
UNBOUND:                 0.000

$$$$

     RDKit          3D

 29 28  0  0  0  0  0  0  0  0999 V2000
   45.2923    3.1022    7.7367 O   0  0  0  0  0  0  0  0  0  0  0  0
   45.5359    4.1436    8.4186 C   0  0  0  0  0  0  0  0  0  0  0  0
   46.1931    5.1791    8.1266 O   0  0  0  0  0  0  0  0  0  0  0  0
   44.9041    4.1020    9.8448 C   0  0  0  0  0  0  0  0  0  0  0  0
   45.0644    5.1224   10.6958 C   0  0  0  0  0  0  0  0  0  0  0  0
   44.4497    5.0392   12.0322 C   0  0  0  0  0  0  0  0  0  0  0  0
   44.5654    5.9464   12.8517 O   0  0  0  0  0  0  0  0  0  0  0  0
   43.7463    3.8984   12.3057 N   0  0  0  0  0  0  0  0  0  0  0  0
   43.5758    2.8494   11.4439 C   0  0  0  0  0  0  0  0  0  0  0  0
   42.9281    1.8562   11.7644 O   0  0  0  0  0  0  0  0  0  0  0  0
   44.1708    2.9950   10.2284 N   0  0  0  0  0  0  0  0  0  0  0  0
   44.5333    4.0233   10.6166 Mg  0  0  0  0  0 15  0  0  0  0  0  0
   43.1109    3.7671   13.3788 O   0  0  0  0  0  0  0  0  0  0  0  0
   43.6978    4.7175   12.7779 C   0  0  0  0  0  0  0  0  0  0  0  0
   43.8965    5.9115   13.1306 O   0  0  0  0  0  0  0  0  0  0  0  0
   44.2510    4.3064   11.3778 C   0  0  0  0  0  0  0  0  0  0  0  0
   44.8986    5.1907   10.6098 C   0  0  0  0  0  0  0  0  0  0  0  0
   45.4035    4.7578    9.2951 C   0  0  0  0  0  0  0  0  0  0  0  0
   46.0042    5.5278    8.5508 O   0  0  0  0  0  0  0  0  0  0  0  0
   45.1655    3.4547    8.9538 N   0  0  0  0  0  0  0  0  0  0  0  0
   44.5049    2.5423    9.7306 C   0  0  0  0  0  0  0  0  0  0  0  0
   44.3304    1.3867    9.3527 O   0  0  0  0  0  0  0  0  0  0  0  0
   44.0669    3.0116   10.9308 N   0  0  0  0  0  0  0  0  0  0  0  0
   45.6285    6.0122   10.4465 H   0  0  0  0  0  0  0  0  0  0  0  0
   43.3189    3.8208   13.2112 H   0  0  0  0  0  0  0  0  0  0  0  0
   44.0933    2.2598    9.5265 H   0  0  0  0  0  0  0  0  0  0  0  0
   45.0700    6.2163   10.9114 H   0  0  0  0  0  0  0  0  0  0  0  0
   45.5012    3.1385    8.0617 H   0  0  0  0  0  0  0  0  0  0  0  0
   43.5652    2.3974   11.5711 H   0  0  0  0  0  0  0  0  0  0  0  0
  1  2  1  0
  2  3  2  0
  2  4  1  0
  4  5  2  0
  5  6  1  0
  6  7  2  0
  6  8  1  0
  8  9  1  0
  9 10  2  0
  9 11  1  0
  4 11  1  0
 13 14  1  0
 14 15  2  0
 14 16  1  0
 16 17  2  0
 17 18  1  0
 18 19  2  0
 18 20  1  0
 20 21  1  0
 21 22  2  0
 21 23  1  0
 16 23  1  0
  5 24  1  0
  8 25  1  0
 11 26  1  0
 17 27  1  0
 20 28  1  0
 23 29  1  0
M  CHG  3   1  -1  12   2  13  -1
M  END
> <Uni-Dock RESULT> 
ENERGY=   -5.990  LOWER_BOUND=    2.138  UPPER_BOUND=    3.904
INTER + INTRA:          -5.990
INTER:                  -5.990
INTRA:                   0.000
UNBOUND:                 0.000

$$$$

     RDKit          3D

 29 28  0  0  0  0  0  0  0  0999 V2000
   45.8891    2.9829    8.0730 O   0  0  0  0  0  0  0  0  0  0  0  0
   45.0434    2.5449    8.9108 C   0  0  0  0  0  0  0  0  0  0  0  0
   44.4543    1.4320    8.9749 O   0  0  0  0  0  0  0  0  0  0  0  0
   44.7000    3.5771   10.0295 C   0  0  0  0  0  0  0  0  0  0  0  0
   43.8240    3.2756   10.9953 C   0  0  0  0  0  0  0  0  0  0  0  0
   43.5306    4.2816   12.0309 C   0  0  0  0  0  0  0  0  0  0  0  0
   42.7354    4.0574   12.9393 O   0  0  0  0  0  0  0  0  0  0  0  0
   44.1920    5.4739   11.9220 N   0  0  0  0  0  0  0  0  0  0  0  0
   45.0893    5.7931   10.9396 C   0  0  0  0  0  0  0  0  0  0  0  0
   45.6439    6.8886   10.9102 O   0  0  0  0  0  0  0  0  0  0  0  0
   45.3113    4.8167   10.0176 N   0  0  0  0  0  0  0  0  0  0  0  0
   44.5502    4.1850   10.6188 Mg  0  0  0  0  0 15  0  0  0  0  0  0
   44.0815    6.3620   12.8005 O   0  0  0  0  0  0  0  0  0  0  0  0
   43.7494    5.1428   12.6907 C   0  0  0  0  0  0  0  0  0  0  0  0
   43.0945    4.3984   13.4695 O   0  0  0  0  0  0  0  0  0  0  0  0
   44.2494    4.4902   11.3643 C   0  0  0  0  0  0  0  0  0  0  0  0
   43.9854    3.2073   11.0893 C   0  0  0  0  0  0  0  0  0  0  0  0
   44.4777    2.6336    9.8246 C   0  0  0  0  0  0  0  0  0  0  0  0
   44.2640    1.4628    9.5225 O   0  0  0  0  0  0  0  0  0  0  0  0
   45.1830    3.4768    9.0107 N   0  0  0  0  0  0  0  0  0  0  0  0
   45.4589    4.7894    9.2815 C   0  0  0  0  0  0  0  0  0  0  0  0
   46.1005    5.4839    8.4975 O   0  0  0  0  0  0  0  0  0  0  0  0
   44.9735    5.2515   10.4663 N   0  0  0  0  0  0  0  0  0  0  0  0
   43.3173    2.3204   11.0516 H   0  0  0  0  0  0  0  0  0  0  0  0
   44.0069    6.1742   12.6177 H   0  0  0  0  0  0  0  0  0  0  0  0
   45.9655    4.9719    9.2514 H   0  0  0  0  0  0  0  0  0  0  0  0
   43.4231    2.5669   11.7571 H   0  0  0  0  0  0  0  0  0  0  0  0
   45.5280    3.1063    8.1434 H   0  0  0  0  0  0  0  0  0  0  0  0
   45.1339    6.2185   10.7458 H   0  0  0  0  0  0  0  0  0  0  0  0
  1  2  1  0
  2  3  2  0
  2  4  1  0
  4  5  2  0
  5  6  1  0
  6  7  2  0
  6  8  1  0
  8  9  1  0
  9 10  2  0
  9 11  1  0
  4 11  1  0
 13 14  1  0
 14 15  2  0
 14 16  1  0
 16 17  2  0
 17 18  1  0
 18 19  2  0
 18 20  1  0
 20 21  1  0
 21 22  2  0
 21 23  1  0
 16 23  1  0
  5 24  1  0
  8 25  1  0
 11 26  1  0
 17 27  1  0
 20 28  1  0
 23 29  1  0
M  CHG  3   1  -1  12   2  13  -1
M  END
> <Uni-Dock RESULT> 
ENERGY=   -5.702  LOWER_BOUND=    2.021  UPPER_BOUND=    2.992
INTER + INTRA:          -5.702
INTER:                  -5.702
INTRA:                   0.000
UNBOUND:                 0.000

$$$$

     RDKit          3D

 29 28  0  0  0  0  0  0  0  0999 V2000
   47.9104    5.7057   14.2913 O   0  0  0  0  0  0  0  0  0  0  0  0
   47.1141    4.7820   13.9425 C   0  0  0  0  0  0  0  0  0  0  0  0
   47.1728    3.5363   14.1273 O   0  0  0  0  0  0  0  0  0  0  0  0
   45.8713    5.3094   13.1599 C   0  0  0  0  0  0  0  0  0  0  0  0
   44.9307    4.4662   12.7180 C   0  0  0  0  0  0  0  0  0  0  0  0
   43.7746    5.0093   11.9837 C   0  0  0  0  0  0  0  0  0  0  0  0
   42.8833    4.2808   11.5563 O   0  0  0  0  0  0  0  0  0  0  0  0
   43.7522    6.3655   11.8065 N   0  0  0  0  0  0  0  0  0  0  0  0
   44.7077    7.2369   12.2536 C   0  0  0  0  0  0  0  0  0  0  0  0
   44.6158    8.4454   12.0542 O   0  0  0  0  0  0  0  0  0  0  0  0
   45.7458    6.6654   12.9232 N   0  0  0  0  0  0  0  0  0  0  0  0
   45.2095    5.6571   12.7351 Mg  0  0  0  0  0 15  0  0  0  0  0  0
   42.7704    6.9361   11.2744 O   0  0  0  0  0  0  0  0  0  0  0  0
   43.0201    5.7725   11.7131 C   0  0  0  0  0  0  0  0  0  0  0  0
   42.3235    4.7218   11.6924 O   0  0  0  0  0  0  0  0  0  0  0  0
   44.4263    5.6595   12.3804 C   0  0  0  0  0  0  0  0  0  0  0  0
   44.8492    4.4993   12.8964 C   0  0  0  0  0  0  0  0  0  0  0  0
   46.1843    4.4397   13.5166 C   0  0  0  0  0  0  0  0  0  0  0  0
   46.6215    3.4014   14.0049 O   0  0  0  0  0  0  0  0  0  0  0  0
   46.9048    5.6024   13.5167 N   0  0  0  0  0  0  0  0  0  0  0  0
   46.4828    6.7937   12.9924 C   0  0  0  0  0  0  0  0  0  0  0  0
   47.1903    7.7970   13.0313 O   0  0  0  0  0  0  0  0  0  0  0  0
   45.2406    6.7749   12.4361 N   0  0  0  0  0  0  0  0  0  0  0  0
   44.9799    3.3962   12.8760 H   0  0  0  0  0  0  0  0  0  0  0  0
   42.9730    6.7570   11.3084 H   0  0  0  0  0  0  0  0  0  0  0  0
   46.5014    7.2430   13.2903 H   0  0  0  0  0  0  0  0  0  0  0  0
   44.2520    3.5963   12.8793 H   0  0  0  0  0  0  0  0  0  0  0  0
   47.8178    5.5842   13.9345 H   0  0  0  0  0  0  0  0  0  0  0  0
   44.8494    7.6204   12.0226 H   0  0  0  0  0  0  0  0  0  0  0  0
  1  2  1  0
  2  3  2  0
  2  4  1  0
  4  5  2  0
  5  6  1  0
  6  7  2  0
  6  8  1  0
  8  9  1  0
  9 10  2  0
  9 11  1  0
  4 11  1  0
 13 14  1  0
 14 15  2  0
 14 16  1  0
 16 17  2  0
 17 18  1  0
 18 19  2  0
 18 20  1  0
 20 21  1  0
 21 22  2  0
 21 23  1  0
 16 23  1  0
  5 24  1  0
  8 25  1  0
 11 26  1  0
 17 27  1  0
 20 28  1  0
 23 29  1  0
M  CHG  3   1  -1  12   2  13  -1
M  END
> <Uni-Dock RESULT> 
ENERGY=   -5.302  LOWER_BOUND=    5.198  UPPER_BOUND=    5.671
INTER + INTRA:          -5.302
INTER:                  -5.302
INTRA:                   0.000
UNBOUND:                 0.000

$$$$

     RDKit          3D

 29 28  0  0  0  0  0  0  0  0999 V2000
   47.3428    7.8051   13.3378 O   0  0  0  0  0  0  0  0  0  0  0  0
   46.1383    7.8637   12.9445 C   0  0  0  0  0  0  0  0  0  0  0  0
   45.4178    8.8573   12.6563 O   0  0  0  0  0  0  0  0  0  0  0  0
   45.4716    6.4596   12.8056 C   0  0  0  0  0  0  0  0  0  0  0  0
   44.2016    6.3406   12.4008 C   0  0  0  0  0  0  0  0  0  0  0  0
   43.6138    4.9946   12.2843 C   0  0  0  0  0  0  0  0  0  0  0  0
   42.4537    4.8282   11.9177 O   0  0  0  0  0  0  0  0  0  0  0  0
   44.4313    3.9465   12.6069 N   0  0  0  0  0  0  0  0  0  0  0  0
   45.7306    4.0561   13.0217 C   0  0  0  0  0  0  0  0  0  0  0  0
   46.4018    3.0641   13.2937 O   0  0  0  0  0  0  0  0  0  0  0  0
   46.2068    5.3285   13.1060 N   0  0  0  0  0  0  0  0  0  0  0  0
   45.1577    5.6612   12.7479 Mg  0  0  0  0  0 15  0  0  0  0  0  0
   44.0573    2.7591   12.4560 O   0  0  0  0  0  0  0  0  0  0  0  0
   43.6243    3.9012   12.1139 C   0  0  0  0  0  0  0  0  0  0  0  0
   42.5619    4.2308   11.5205 O   0  0  0  0  0  0  0  0  0  0  0  0
   44.5886    5.0634   12.5071 C   0  0  0  0  0  0  0  0  0  0  0  0
   44.2836    6.3344   12.2196 C   0  0  0  0  0  0  0  0  0  0  0  0
   45.2244    7.3989   12.6101 C   0  0  0  0  0  0  0  0  0  0  0  0
   44.9941    8.5811   12.3711 O   0  0  0  0  0  0  0  0  0  0  0  0
   46.3634    6.9957   13.2513 N   0  0  0  0  0  0  0  0  0  0  0  0
   46.6855    5.6999   13.5502 C   0  0  0  0  0  0  0  0  0  0  0  0
   47.7308    5.4173   14.1299 O   0  0  0  0  0  0  0  0  0  0  0  0
   45.7710    4.7703   13.1601 N   0  0  0  0  0  0  0  0  0  0  0  0
   43.5817    7.1929   12.1530 H   0  0  0  0  0  0  0  0  0  0  0  0
   44.0508    3.0199   12.5346 H   0  0  0  0  0  0  0  0  0  0  0  0
   47.1656    5.4998   13.4072 H   0  0  0  0  0  0  0  0  0  0  0  0
   43.3716    6.6189   11.7102 H   0  0  0  0  0  0  0  0  0  0  0  0
   47.0187    7.7052   13.5264 H   0  0  0  0  0  0  0  0  0  0  0  0
   45.9328    3.7808   13.3440 H   0  0  0  0  0  0  0  0  0  0  0  0
  1  2  1  0
  2  3  2  0
  2  4  1  0
  4  5  2  0
  5  6  1  0
  6  7  2  0
  6  8  1  0
  8  9  1  0
  9 10  2  0
  9 11  1  0
  4 11  1  0
 13 14  1  0
 14 15  2  0
 14 16  1  0
 16 17  2  0
 17 18  1  0
 18 19  2  0
 18 20  1  0
 20 21  1  0
 21 22  2  0
 21 23  1  0
 16 23  1  0
  5 24  1  0
  8 25  1  0
 11 26  1  0
 17 27  1  0
 20 28  1  0
 23 29  1  0
M  CHG  3   1  -1  12   2  13  -1
M  END
> <Uni-Dock RESULT> 
ENERGY=   -5.234  LOWER_BOUND=    4.920  UPPER_BOUND=    6.329
INTER + INTRA:          -5.234
INTER:                  -5.234
INTRA:                   0.000
UNBOUND:                 0.000

$$$$

     RDKit          3D

 29 28  0  0  0  0  0  0  0  0999 V2000
   42.7821    3.6294   11.8994 O   0  0  0  0  0  0  0  0  0  0  0  0
   43.0062    4.8769   11.8501 C   0  0  0  0  0  0  0  0  0  0  0  0
   42.2842    5.8233   11.4348 O   0  0  0  0  0  0  0  0  0  0  0  0
   44.4130    5.2675   12.4008 C   0  0  0  0  0  0  0  0  0  0  0  0
   44.8107    6.5451   12.4215 C   0  0  0  0  0  0  0  0  0  0  0  0
   46.1476    6.8670   12.9506 C   0  0  0  0  0  0  0  0  0  0  0  0
   46.5625    8.0220   12.9927 O   0  0  0  0  0  0  0  0  0  0  0  0
   46.8960    5.8097   13.3899 N   0  0  0  0  0  0  0  0  0  0  0  0
   46.5000    4.5001   13.3736 C   0  0  0  0  0  0  0  0  0  0  0  0
   47.2318    3.6045   13.7872 O   0  0  0  0  0  0  0  0  0  0  0  0
   45.2544    4.2773   12.8718 N   0  0  0  0  0  0  0  0  0  0  0  0
   45.1980    5.4227   12.7154 Mg  0  0  0  0  0 15  0  0  0  0  0  0
   48.0094    5.9844   13.9399 O   0  0  0  0  0  0  0  0  0  0  0  0
   47.0408    6.7240   13.5883 C   0  0  0  0  0  0  0  0  0  0  0  0
   46.9104    7.9774   13.6279 O   0  0  0  0  0  0  0  0  0  0  0  0
   45.8317    5.9182   13.0191 C   0  0  0  0  0  0  0  0  0  0  0  0
   44.7256    6.5452   12.6013 C   0  0  0  0  0  0  0  0  0  0  0  0
   43.6089    5.7434   12.0714 C   0  0  0  0  0  0  0  0  0  0  0  0
   42.5716    6.2672   11.6746 O   0  0  0  0  0  0  0  0  0  0  0  0
   43.7940    4.3883   12.0471 N   0  0  0  0  0  0  0  0  0  0  0  0
   44.9199    3.7367   12.4714 C   0  0  0  0  0  0  0  0  0  0  0  0
   45.0103    2.5130   12.4173 O   0  0  0  0  0  0  0  0  0  0  0  0
   45.9099    4.5401   12.9482 N   0  0  0  0  0  0  0  0  0  0  0  0
   44.1919    7.3589   12.0653 H   0  0  0  0  0  0  0  0  0  0  0  0
   47.8108    6.0064   13.7546 H   0  0  0  0  0  0  0  0  0  0  0  0
   44.8814    3.3298   12.8233 H   0  0  0  0  0  0  0  0  0  0  0  0
   44.6122    7.6214   12.6347 H   0  0  0  0  0  0  0  0  0  0  0  0
   43.0452    3.8226   11.6896 H   0  0  0  0  0  0  0  0  0  0  0  0
   46.7829    4.1359   13.2849 H   0  0  0  0  0  0  0  0  0  0  0  0
  1  2  1  0
  2  3  2  0
  2  4  1  0
  4  5  2  0
  5  6  1  0
  6  7  2  0
  6  8  1  0
  8  9  1  0
  9 10  2  0
  9 11  1  0
  4 11  1  0
 13 14  1  0
 14 15  2  0
 14 16  1  0
 16 17  2  0
 17 18  1  0
 18 19  2  0
 18 20  1  0
 20 21  1  0
 21 22  2  0
 21 23  1  0
 16 23  1  0
  5 24  1  0
  8 25  1  0
 11 26  1  0
 17 27  1  0
 20 28  1  0
 23 29  1  0
M  CHG  3   1  -1  12   2  13  -1
M  END
> <Uni-Dock RESULT> 
ENERGY=   -5.221  LOWER_BOUND=    4.732  UPPER_BOUND=    6.253
INTER + INTRA:          -5.221
INTER:                  -5.221
INTRA:                   0.000
UNBOUND:                 0.000

$$$$

     RDKit          3D

 29 28  0  0  0  0  0  0  0  0999 V2000
   43.9007    2.8682   12.6103 O   0  0  0  0  0  0  0  0  0  0  0  0
   43.5161    4.0062   12.2031 C   0  0  0  0  0  0  0  0  0  0  0  0
   42.4622    4.3481   11.6015 O   0  0  0  0  0  0  0  0  0  0  0  0
   44.5374    5.1442   12.5145 C   0  0  0  0  0  0  0  0  0  0  0  0
   44.2871    6.4081   12.1528 C   0  0  0  0  0  0  0  0  0  0  0  0
   45.2805    7.4496   12.4677 C   0  0  0  0  0  0  0  0  0  0  0  0
   45.1015    8.6245   12.1588 O   0  0  0  0  0  0  0  0  0  0  0  0
   46.4082    7.0337   13.1207 N   0  0  0  0  0  0  0  0  0  0  0  0
   46.6746    5.7450   13.4953 C   0  0  0  0  0  0  0  0  0  0  0  0
   47.7134    5.4500   14.0806 O   0  0  0  0  0  0  0  0  0  0  0  0
   45.7135    4.8369   13.1723 N   0  0  0  0  0  0  0  0  0  0  0  0
   45.1364    5.7285   12.7124 Mg  0  0  0  0  0 15  0  0  0  0  0  0
   47.2724    7.8532   13.5134 O   0  0  0  0  0  0  0  0  0  0  0  0
   46.0943    7.9240   13.0487 C   0  0  0  0  0  0  0  0  0  0  0  0
   45.3889    8.9262   12.7527 O   0  0  0  0  0  0  0  0  0  0  0  0
   45.4430    6.5248   12.8183 C   0  0  0  0  0  0  0  0  0  0  0  0
   44.2008    6.4184   12.3317 C   0  0  0  0  0  0  0  0  0  0  0  0
   43.6266    5.0766   12.1306 C   0  0  0  0  0  0  0  0  0  0  0  0
   42.4921    4.9216   11.6871 O   0  0  0  0  0  0  0  0  0  0  0  0
   44.4268    4.0187   12.4648 N   0  0  0  0  0  0  0  0  0  0  0  0
   45.6976    4.1155   12.9629 C   0  0  0  0  0  0  0  0  0  0  0  0
   46.3547    3.1155   13.2398 O   0  0  0  0  0  0  0  0  0  0  0  0
   46.1628    5.3848   13.1225 N   0  0  0  0  0  0  0  0  0  0  0  0
   43.3826    6.7032   11.6361 H   0  0  0  0  0  0  0  0  0  0  0  0
   47.0988    7.7275   13.3452 H   0  0  0  0  0  0  0  0  0  0  0  0
   45.8324    3.8539   13.4149 H   0  0  0  0  0  0  0  0  0  0  0  0
   43.5939    7.2782   12.0771 H   0  0  0  0  0  0  0  0  0  0  0  0
   44.0551    3.0949   12.3357 H   0  0  0  0  0  0  0  0  0  0  0  0
   47.1003    5.5467   13.4882 H   0  0  0  0  0  0  0  0  0  0  0  0
  1  2  1  0
  2  3  2  0
  2  4  1  0
  4  5  2  0
  5  6  1  0
  6  7  2  0
  6  8  1  0
  8  9  1  0
  9 10  2  0
  9 11  1  0
  4 11  1  0
 13 14  1  0
 14 15  2  0
 14 16  1  0
 16 17  2  0
 17 18  1  0
 18 19  2  0
 18 20  1  0
 20 21  1  0
 21 22  2  0
 21 23  1  0
 16 23  1  0
  5 24  1  0
  8 25  1  0
 11 26  1  0
 17 27  1  0
 20 28  1  0
 23 29  1  0
M  CHG  3   1  -1  12   2  13  -1
M  END
> <Uni-Dock RESULT> 
ENERGY=   -5.191  LOWER_BOUND=    4.986  UPPER_BOUND=    6.162
INTER + INTRA:          -5.191
INTER:                  -5.191
INTRA:                   0.000
UNBOUND:                 0.000

$$$$

     RDKit          3D

 29 28  0  0  0  0  0  0  0  0999 V2000
   42.4882    4.0744   11.3149 O   0  0  0  0  0  0  0  0  0  0  0  0
   43.4473    3.6072   12.0010 C   0  0  0  0  0  0  0  0  0  0  0  0
   43.6987    2.4250   12.3595 O   0  0  0  0  0  0  0  0  0  0  0  0
   44.4614    4.7014   12.4586 C   0  0  0  0  0  0  0  0  0  0  0  0
   45.5335    4.3790   13.1918 C   0  0  0  0  0  0  0  0  0  0  0  0
   46.4640    5.4455   13.6012 C   0  0  0  0  0  0  0  0  0  0  0  0
   47.4627    5.2054   14.2741 O   0  0  0  0  0  0  0  0  0  0  0  0
   46.1521    6.7124   13.1902 N   0  0  0  0  0  0  0  0  0  0  0  0
   45.0594    7.0536   12.4407 C   0  0  0  0  0  0  0  0  0  0  0  0
   44.8476    8.2175   12.1104 O   0  0  0  0  0  0  0  0  0  0  0  0
   44.2444    6.0183   12.0992 N   0  0  0  0  0  0  0  0  0  0  0  0
   44.9850    5.3460   12.6815 Mg  0  0  0  0  0 15  0  0  0  0  0  0
   46.9243    7.6760   13.4087 O   0  0  0  0  0  0  0  0  0  0  0  0
   46.9926    6.4133   13.5070 C   0  0  0  0  0  0  0  0  0  0  0  0
   47.9125    5.6745   13.9515 O   0  0  0  0  0  0  0  0  0  0  0  0
   45.7132    5.6893   12.9833 C   0  0  0  0  0  0  0  0  0  0  0  0
   45.6196    4.3545   13.0142 C   0  0  0  0  0  0  0  0  0  0  0  0
   44.3926    3.7143   12.5090 C   0  0  0  0  0  0  0  0  0  0  0  0
   44.2540    2.4943   12.5140 O   0  0  0  0  0  0  0  0  0  0  0  0
   43.4215    4.5539   12.0365 N   0  0  0  0  0  0  0  0  0  0  0  0
   43.5063    5.9191   12.0001 C   0  0  0  0  0  0  0  0  0  0  0  0
   42.5886    6.6062   11.5593 O   0  0  0  0  0  0  0  0  0  0  0  0
   44.6672    6.4411   12.4826 N   0  0  0  0  0  0  0  0  0  0  0  0
   45.7507    3.3643   13.5004 H   0  0  0  0  0  0  0  0  0  0  0  0
   46.7730    7.4548   13.4582 H   0  0  0  0  0  0  0  0  0  0  0  0
   43.4076    6.1849   11.5413 H   0  0  0  0  0  0  0  0  0  0  0  0
   46.4087    3.7189   13.3957 H   0  0  0  0  0  0  0  0  0  0  0  0
   42.5766    4.1385   11.6873 H   0  0  0  0  0  0  0  0  0  0  0  0
   44.8127    7.4499   12.4921 H   0  0  0  0  0  0  0  0  0  0  0  0
  1  2  1  0
  2  3  2  0
  2  4  1  0
  4  5  2  0
  5  6  1  0
  6  7  2  0
  6  8  1  0
  8  9  1  0
  9 10  2  0
  9 11  1  0
  4 11  1  0
 13 14  1  0
 14 15  2  0
 14 16  1  0
 16 17  2  0
 17 18  1  0
 18 19  2  0
 18 20  1  0
 20 21  1  0
 21 22  2  0
 21 23  1  0
 16 23  1  0
  5 24  1  0
  8 25  1  0
 11 26  1  0
 17 27  1  0
 20 28  1  0
 23 29  1  0
M  CHG  3   1  -1  12   2  13  -1
M  END
> <Uni-Dock RESULT> 
ENERGY=   -5.065  LOWER_BOUND=    4.844  UPPER_BOUND=    5.728
INTER + INTRA:          -5.065
INTER:                  -5.065
INTRA:                   0.000
UNBOUND:                 0.000

$$$$

     RDKit          3D

 29 28  0  0  0  0  0  0  0  0999 V2000
   46.7848    7.8701   13.5550 O   0  0  0  0  0  0  0  0  0  0  0  0
   46.9449    6.6132   13.6157 C   0  0  0  0  0  0  0  0  0  0  0  0
   47.9007    5.9300   14.0730 O   0  0  0  0  0  0  0  0  0  0  0  0
   45.7445    5.8146   13.0188 C   0  0  0  0  0  0  0  0  0  0  0  0
   45.7510    4.4764   13.0035 C   0  0  0  0  0  0  0  0  0  0  0  0
   44.5957    3.7645   12.4298 C   0  0  0  0  0  0  0  0  0  0  0  0
   44.5499    2.5380   12.3905 O   0  0  0  0  0  0  0  0  0  0  0  0
   43.5823    4.5453   11.9458 N   0  0  0  0  0  0  0  0  0  0  0  0
   43.5647    5.9134   11.9561 C   0  0  0  0  0  0  0  0  0  0  0  0
   42.6147    6.5451   11.5012 O   0  0  0  0  0  0  0  0  0  0  0  0
   44.6639    6.5032   12.5009 N   0  0  0  0  0  0  0  0  0  0  0  0
   45.0561    5.4287   12.6775 Mg  0  0  0  0  0 15  0  0  0  0  0  0
   42.5172    4.0388   11.5195 O   0  0  0  0  0  0  0  0  0  0  0  0
   43.5326    3.6236   12.1563 C   0  0  0  0  0  0  0  0  0  0  0  0
   43.8432    2.4623   12.5362 O   0  0  0  0  0  0  0  0  0  0  0  0
   44.5395    4.7620   12.5105 C   0  0  0  0  0  0  0  0  0  0  0  0
   45.6661    4.4964   13.1823 C   0  0  0  0  0  0  0  0  0  0  0  0
   46.5873    5.6030   13.4947 C   0  0  0  0  0  0  0  0  0  0  0  0
   47.6342    5.4154   14.1083 O   0  0  0  0  0  0  0  0  0  0  0  0
   46.2104    6.8452   13.0636 N   0  0  0  0  0  0  0  0  0  0  0  0
   45.0616    7.1283   12.3764 C   0  0  0  0  0  0  0  0  0  0  0  0
   44.7928    8.2734   12.0225 O   0  0  0  0  0  0  0  0  0  0  0  0
   44.2588    6.0586   12.1230 N   0  0  0  0  0  0  0  0  0  0  0  0
   46.5711    3.8884   13.3958 H   0  0  0  0  0  0  0  0  0  0  0  0
   42.7848    4.0805   11.5501 H   0  0  0  0  0  0  0  0  0  0  0  0
   44.7321    7.5193   12.5482 H   0  0  0  0  0  0  0  0  0  0  0  0
   45.9342    3.4996   13.5091 H   0  0  0  0  0  0  0  0  0  0  0  0
   46.8238    7.6141   13.2659 H   0  0  0  0  0  0  0  0  0  0  0  0
   43.3832    6.1814   11.6159 H   0  0  0  0  0  0  0  0  0  0  0  0
  1  2  1  0
  2  3  2  0
  2  4  1  0
  4  5  2  0
  5  6  1  0
  6  7  2  0
  6  8  1  0
  8  9  1  0
  9 10  2  0
  9 11  1  0
  4 11  1  0
 13 14  1  0
 14 15  2  0
 14 16  1  0
 16 17  2  0
 17 18  1  0
 18 19  2  0
 18 20  1  0
 20 21  1  0
 21 22  2  0
 21 23  1  0
 16 23  1  0
  5 24  1  0
  8 25  1  0
 11 26  1  0
 17 27  1  0
 20 28  1  0
 23 29  1  0
M  CHG  3   1  -1  12   2  13  -1
M  END
> <Uni-Dock RESULT> 
ENERGY=   -4.964  LOWER_BOUND=    4.771  UPPER_BOUND=    5.833
INTER + INTRA:          -4.964
INTER:                  -4.964
INTRA:                   0.000
UNBOUND:                 0.000

$$$$
