
     RDKit          3D

 29 28  0  0  0  0  0  0  0  0999 V2000
   44.8225    4.9474    8.4694 O   0  0  0  0  0  0  0  0  0  0  0  0
   44.9354    3.7567    8.8682 C   0  0  0  0  0  0  0  0  0  0  0  0
   44.4143    3.1677    9.8634 O   0  0  0  0  0  0  0  0  0  0  0  0
   45.8602    2.8267    8.0227 C   0  0  0  0  0  0  0  0  0  0  0  0
   46.4899    3.2898    6.9364 C   0  0  0  0  0  0  0  0  0  0  0  0
   47.3532    2.3752    6.1688 C   0  0  0  0  0  0  0  0  0  0  0  0
   47.9538    2.7478    5.1648 O   0  0  0  0  0  0  0  0  0  0  0  0
   47.4461    1.0936    6.6375 N   0  0  0  0  0  0  0  0  0  0  0  0
   46.8073    0.6092    7.7465 C   0  0  0  0  0  0  0  0  0  0  0  0
   46.9419   -0.5580    8.1043 O   0  0  0  0  0  0  0  0  0  0  0  0
   46.0274    1.5092    8.4056 N   0  0  0  0  0  0  0  0  0  0  0  0
   46.3565    2.2687    7.5966 Mg  0  0  0  0  0 15  0  0  0  0  0  0
   45.1229    4.6668    9.1605 O   0  0  0  0  0  0  0  0  0  0  0  0
   45.0021    3.4070    9.2460 C   0  0  0  0  0  0  0  0  0  0  0  0
   44.3109    2.7014   10.0295 O   0  0  0  0  0  0  0  0  0  0  0  0
   45.8627    2.6377    8.1959 C   0  0  0  0  0  0  0  0  0  0  0  0
   45.8519    1.3003    8.1480 C   0  0  0  0  0  0  0  0  0  0  0  0
   46.6805    0.6166    7.1396 C   0  0  0  0  0  0  0  0  0  0  0  0
   46.7080   -0.6079    7.0517 O   0  0  0  0  0  0  0  0  0  0  0  0
   47.4136    1.4212    6.3112 N   0  0  0  0  0  0  0  0  0  0  0  0
   47.4323    2.7889    6.3510 C   0  0  0  0  0  0  0  0  0  0  0  0
   48.1191    3.4428    5.5704 O   0  0  0  0  0  0  0  0  0  0  0  0
   46.6437    3.3519    7.3069 N   0  0  0  0  0  0  0  0  0  0  0  0
   46.3940    4.3120    6.5928 H   0  0  0  0  0  0  0  0  0  0  0  0
   48.0294    0.4532    6.1293 H   0  0  0  0  0  0  0  0  0  0  0  0
   45.5159    1.2309    9.2424 H   0  0  0  0  0  0  0  0  0  0  0  0
   45.2589    0.6931    8.8201 H   0  0  0  0  0  0  0  0  0  0  0  0
   47.9856    0.9759    5.6162 H   0  0  0  0  0  0  0  0  0  0  0  0
   46.5991    4.3655    7.4054 H   0  0  0  0  0  0  0  0  0  0  0  0
  1  2  1  0
  2  3  2  0
  2  4  1  0
  4  5  2  0
  5  6  1  0
  6  7  2  0
  6  8  1  0
  8  9  1  0
  9 10  2  0
  9 11  1  0
  4 11  1  0
 13 14  1  0
 14 15  2  0
 14 16  1  0
 16 17  2  0
 17 18  1  0
 18 19  2  0
 18 20  1  0
 20 21  1  0
 21 22  2  0
 21 23  1  0
 16 23  1  0
  5 24  1  0
  8 25  1  0
 11 26  1  0
 17 27  1  0
 20 28  1  0
 23 29  1  0
M  CHG  3   1  -1  12   2  13  -1
M  END
> <Uni-Dock RESULT> 
ENERGY=   -7.049  LOWER_BOUND=    0.000  UPPER_BOUND=    0.000
INTER + INTRA:          -7.049
INTER:                  -7.049
INTRA:                   0.000
UNBOUND:                 0.000

$$$$

     RDKit          3D

 29 28  0  0  0  0  0  0  0  0999 V2000
   45.8799    4.6271    7.7878 O   0  0  0  0  0  0  0  0  0  0  0  0
   45.5335    3.5650    8.3723 C   0  0  0  0  0  0  0  0  0  0  0  0
   45.8016    2.3537    8.1084 O   0  0  0  0  0  0  0  0  0  0  0  0
   44.6257    3.7302    9.6307 C   0  0  0  0  0  0  0  0  0  0  0  0
   44.2474    4.9439   10.0488 C   0  0  0  0  0  0  0  0  0  0  0  0
   43.3898    5.0515   11.2421 C   0  0  0  0  0  0  0  0  0  0  0  0
   43.0138    6.1398   11.6686 O   0  0  0  0  0  0  0  0  0  0  0  0
   43.0387    3.8744   11.8439 N   0  0  0  0  0  0  0  0  0  0  0  0
   43.4193    2.6285   11.4255 C   0  0  0  0  0  0  0  0  0  0  0  0
   43.0615    1.6158   12.0214 O   0  0  0  0  0  0  0  0  0  0  0  0
   44.2102    2.6053   10.3179 N   0  0  0  0  0  0  0  0  0  0  0  0
   44.1256    3.7596   10.3295 Mg  0  0  0  0  0 15  0  0  0  0  0  0
   45.4379    4.0140    7.5132 O   0  0  0  0  0  0  0  0  0  0  0  0
   45.3584    3.0764    8.3637 C   0  0  0  0  0  0  0  0  0  0  0  0
   45.8086    1.8992    8.3301 O   0  0  0  0  0  0  0  0  0  0  0  0
   44.5687    3.4809    9.6475 C   0  0  0  0  0  0  0  0  0  0  0  0
   44.3911    2.6084   10.6466 C   0  0  0  0  0  0  0  0  0  0  0  0
   43.6387    3.0344   11.8396 C   0  0  0  0  0  0  0  0  0  0  0  0
   43.4465    2.2746   12.7848 O   0  0  0  0  0  0  0  0  0  0  0  0
   43.1691    4.3192   11.8328 N   0  0  0  0  0  0  0  0  0  0  0  0
   43.3446    5.2195   10.8175 C   0  0  0  0  0  0  0  0  0  0  0  0
   42.8908    6.3587   10.8864 O   0  0  0  0  0  0  0  0  0  0  0  0
   44.0485    4.7574    9.7481 N   0  0  0  0  0  0  0  0  0  0  0  0
   44.5440    5.8568    9.5479 H   0  0  0  0  0  0  0  0  0  0  0  0
   42.4543    3.9246   12.6592 H   0  0  0  0  0  0  0  0  0  0  0  0
   44.5389    1.7178    9.9391 H   0  0  0  0  0  0  0  0  0  0  0  0
   44.7771    1.5972   10.6191 H   0  0  0  0  0  0  0  0  0  0  0  0
   42.6534    4.6305   12.6364 H   0  0  0  0  0  0  0  0  0  0  0  0
   44.2250    5.3635    8.9477 H   0  0  0  0  0  0  0  0  0  0  0  0
  1  2  1  0
  2  3  2  0
  2  4  1  0
  4  5  2  0
  5  6  1  0
  6  7  2  0
  6  8  1  0
  8  9  1  0
  9 10  2  0
  9 11  1  0
  4 11  1  0
 13 14  1  0
 14 15  2  0
 14 16  1  0
 16 17  2  0
 17 18  1  0
 18 19  2  0
 18 20  1  0
 20 21  1  0
 21 22  2  0
 21 23  1  0
 16 23  1  0
  5 24  1  0
  8 25  1  0
 11 26  1  0
 17 27  1  0
 20 28  1  0
 23 29  1  0
M  CHG  3   1  -1  12   2  13  -1
M  END
> <Uni-Dock RESULT> 
ENERGY=   -7.041  LOWER_BOUND=    2.888  UPPER_BOUND=    5.066
INTER + INTRA:          -7.041
INTER:                  -7.041
INTRA:                   0.000
UNBOUND:                 0.000

$$$$

     RDKit          3D

 29 28  0  0  0  0  0  0  0  0999 V2000
   47.2600    3.4089   13.7074 O   0  0  0  0  0  0  0  0  0  0  0  0
   46.5764    4.4655   13.6309 C   0  0  0  0  0  0  0  0  0  0  0  0
   46.8201    5.6373   14.0507 O   0  0  0  0  0  0  0  0  0  0  0  0
   45.1985    4.3494   12.9076 C   0  0  0  0  0  0  0  0  0  0  0  0
   44.7851    3.1807   12.4033 C   0  0  0  0  0  0  0  0  0  0  0  0
   43.4767    3.1185   11.7286 C   0  0  0  0  0  0  0  0  0  0  0  0
   43.0492    2.0724   11.2483 O   0  0  0  0  0  0  0  0  0  0  0  0
   42.7697    4.2879   11.6688 N   0  0  0  0  0  0  0  0  0  0  0  0
   43.1822    5.4879   12.1807 C   0  0  0  0  0  0  0  0  0  0  0  0
   42.4879    6.4968   12.0866 O   0  0  0  0  0  0  0  0  0  0  0  0
   44.3995    5.4710   12.7894 N   0  0  0  0  0  0  0  0  0  0  0  0
   44.4310    4.3457   12.5201 Mg  0  0  0  0  0 15  0  0  0  0  0  0
   46.9461    3.8577   14.2963 O   0  0  0  0  0  0  0  0  0  0  0  0
   46.3806    4.8978   13.8411 C   0  0  0  0  0  0  0  0  0  0  0  0
   46.6767    6.1162   13.9738 O   0  0  0  0  0  0  0  0  0  0  0  0
   45.1168    4.5805   12.9824 C   0  0  0  0  0  0  0  0  0  0  0  0
   44.4009    5.5650   12.4262 C   0  0  0  0  0  0  0  0  0  0  0  0
   43.2151    5.2180   11.6234 C   0  0  0  0  0  0  0  0  0  0  0  0
   42.5230    6.0813   11.0910 O   0  0  0  0  0  0  0  0  0  0  0  0
   42.9316    3.8849   11.5064 N   0  0  0  0  0  0  0  0  0  0  0  0
   43.6561    2.8703   12.0703 C   0  0  0  0  0  0  0  0  0  0  0  0
   43.3363    1.6942   11.9187 O   0  0  0  0  0  0  0  0  0  0  0  0
   44.7371    3.2645   12.7976 N   0  0  0  0  0  0  0  0  0  0  0  0
   45.3710    2.2726   12.4683 H   0  0  0  0  0  0  0  0  0  0  0  0
   41.8749    4.2681   11.2132 H   0  0  0  0  0  0  0  0  0  0  0  0
   44.7822    6.3229   13.1980 H   0  0  0  0  0  0  0  0  0  0  0  0
   44.6540    6.6116   12.5392 H   0  0  0  0  0  0  0  0  0  0  0  0
   42.1275    3.6260   10.9635 H   0  0  0  0  0  0  0  0  0  0  0  0
   45.3315    2.5721   13.2519 H   0  0  0  0  0  0  0  0  0  0  0  0
  1  2  1  0
  2  3  2  0
  2  4  1  0
  4  5  2  0
  5  6  1  0
  6  7  2  0
  6  8  1  0
  8  9  1  0
  9 10  2  0
  9 11  1  0
  4 11  1  0
 13 14  1  0
 14 15  2  0
 14 16  1  0
 16 17  2  0
 17 18  1  0
 18 19  2  0
 18 20  1  0
 20 21  1  0
 21 22  2  0
 21 23  1  0
 16 23  1  0
  5 24  1  0
  8 25  1  0
 11 26  1  0
 17 27  1  0
 20 28  1  0
 23 29  1  0
M  CHG  3   1  -1  12   2  13  -1
M  END
> <Uni-Dock RESULT> 
ENERGY=   -6.512  LOWER_BOUND=    5.467  UPPER_BOUND=    6.640
INTER + INTRA:          -6.512
INTER:                  -6.512
INTRA:                   0.000
UNBOUND:                 0.000

$$$$

     RDKit          3D

 29 28  0  0  0  0  0  0  0  0999 V2000
   45.3745    1.5361    8.4596 O   0  0  0  0  0  0  0  0  0  0  0  0
   45.2549    2.7912    8.4688 C   0  0  0  0  0  0  0  0  0  0  0  0
   45.5996    3.6585    7.6099 O   0  0  0  0  0  0  0  0  0  0  0  0
   44.5761    3.4141    9.7283 C   0  0  0  0  0  0  0  0  0  0  0  0
   44.1514    2.6384   10.7327 C   0  0  0  0  0  0  0  0  0  0  0  0
   43.5161    3.2707   11.9022 C   0  0  0  0  0  0  0  0  0  0  0  0
   43.1086    2.6064   12.8510 O   0  0  0  0  0  0  0  0  0  0  0  0
   43.4074    4.6338   11.8693 N   0  0  0  0  0  0  0  0  0  0  0  0
   43.8379    5.4367   10.8484 C   0  0  0  0  0  0  0  0  0  0  0  0
   43.7039    6.6568   10.8932 O   0  0  0  0  0  0  0  0  0  0  0  0
   44.4143    4.7848    9.8017 N   0  0  0  0  0  0  0  0  0  0  0  0
   44.2099    3.8130   10.3962 Mg  0  0  0  0  0 15  0  0  0  0  0  0
   45.9444    2.1033    8.4501 O   0  0  0  0  0  0  0  0  0  0  0  0
   45.4449    3.2676    8.3892 C   0  0  0  0  0  0  0  0  0  0  0  0
   45.4989    4.1357    7.4764 O   0  0  0  0  0  0  0  0  0  0  0  0
   44.6395    3.6551    9.6684 C   0  0  0  0  0  0  0  0  0  0  0  0
   44.0464    4.8505    9.7693 C   0  0  0  0  0  0  0  0  0  0  0  0
   43.2965    5.1729   10.9960 C   0  0  0  0  0  0  0  0  0  0  0  0
   42.7335    6.2544   11.1409 O   0  0  0  0  0  0  0  0  0  0  0  0
   43.2644    4.2020   11.9591 N   0  0  0  0  0  0  0  0  0  0  0  0
   43.8668    2.9769   11.8669 C   0  0  0  0  0  0  0  0  0  0  0  0
   43.7920    2.1564   12.7778 O   0  0  0  0  0  0  0  0  0  0  0  0
   44.5413    2.7483   10.7068 N   0  0  0  0  0  0  0  0  0  0  0  0
   44.2534    1.5605   10.7262 H   0  0  0  0  0  0  0  0  0  0  0  0
   42.9774    5.0856   12.6565 H   0  0  0  0  0  0  0  0  0  0  0  0
   44.7626    5.3078    8.9990 H   0  0  0  0  0  0  0  0  0  0  0  0
   44.0919    5.5970    8.9863 H   0  0  0  0  0  0  0  0  0  0  0  0
   42.7587    4.4008   12.8037 H   0  0  0  0  0  0  0  0  0  0  0  0
   45.0191    1.8606   10.5561 H   0  0  0  0  0  0  0  0  0  0  0  0
  1  2  1  0
  2  3  2  0
  2  4  1  0
  4  5  2  0
  5  6  1  0
  6  7  2  0
  6  8  1  0
  8  9  1  0
  9 10  2  0
  9 11  1  0
  4 11  1  0
 13 14  1  0
 14 15  2  0
 14 16  1  0
 16 17  2  0
 17 18  1  0
 18 19  2  0
 18 20  1  0
 20 21  1  0
 21 22  2  0
 21 23  1  0
 16 23  1  0
  5 24  1  0
  8 25  1  0
 11 26  1  0
 17 27  1  0
 20 28  1  0
 23 29  1  0
M  CHG  3   1  -1  12   2  13  -1
M  END
> <Uni-Dock RESULT> 
ENERGY=   -6.280  LOWER_BOUND=    2.876  UPPER_BOUND=    5.640
INTER + INTRA:          -6.280
INTER:                  -6.280
INTRA:                   0.000
UNBOUND:                 0.000

$$$$

     RDKit          3D

 29 28  0  0  0  0  0  0  0  0999 V2000
   46.6579    6.3085   14.0166 O   0  0  0  0  0  0  0  0  0  0  0  0
   46.5761    5.1387   13.5533 C   0  0  0  0  0  0  0  0  0  0  0  0
   47.4012    4.1763   13.5944 O   0  0  0  0  0  0  0  0  0  0  0  0
   45.2573    4.7817   12.7995 C   0  0  0  0  0  0  0  0  0  0  0  0
   44.2789    5.6846   12.6641 C   0  0  0  0  0  0  0  0  0  0  0  0
   43.0511    5.3028   11.9444 C   0  0  0  0  0  0  0  0  0  0  0  0
   42.1229    6.0918   11.7914 O   0  0  0  0  0  0  0  0  0  0  0  0
   43.0060    4.0247   11.4592 N   0  0  0  0  0  0  0  0  0  0  0  0
   43.9998    3.0935   11.5916 C   0  0  0  0  0  0  0  0  0  0  0  0
   43.8838    1.9627   11.1263 O   0  0  0  0  0  0  0  0  0  0  0  0
   45.1036    3.5154   12.2671 N   0  0  0  0  0  0  0  0  0  0  0  0
   44.5540    4.5284   12.3747 Mg  0  0  0  0  0 15  0  0  0  0  0  0
   47.1096    5.9481   13.4573 O   0  0  0  0  0  0  0  0  0  0  0  0
   46.7793    4.7336   13.3003 C   0  0  0  0  0  0  0  0  0  0  0  0
   47.4153    3.6731   13.5462 O   0  0  0  0  0  0  0  0  0  0  0  0
   45.3475    4.5615   12.7040 C   0  0  0  0  0  0  0  0  0  0  0  0
   44.8422    3.3438   12.4744 C   0  0  0  0  0  0  0  0  0  0  0  0
   43.4857    3.2297   11.9103 C   0  0  0  0  0  0  0  0  0  0  0  0
   42.9740    2.1375   11.6801 O   0  0  0  0  0  0  0  0  0  0  0  0
   42.8331    4.4054   11.6595 N   0  0  0  0  0  0  0  0  0  0  0  0
   43.3397    5.6555   11.8902 C   0  0  0  0  0  0  0  0  0  0  0  0
   42.6895    6.6664   11.6375 O   0  0  0  0  0  0  0  0  0  0  0  0
   44.5967    5.6845   12.4116 N   0  0  0  0  0  0  0  0  0  0  0  0
   44.3476    6.6895   13.0613 H   0  0  0  0  0  0  0  0  0  0  0  0
   42.1781    3.7433   10.9653 H   0  0  0  0  0  0  0  0  0  0  0  0
   45.8912    2.8843   12.4109 H   0  0  0  0  0  0  0  0  0  0  0  0
   45.3871    2.4322   12.6851 H   0  0  0  0  0  0  0  0  0  0  0  0
   41.9071    4.3508   11.2748 H   0  0  0  0  0  0  0  0  0  0  0  0
   45.0491    6.5753   12.6139 H   0  0  0  0  0  0  0  0  0  0  0  0
  1  2  1  0
  2  3  2  0
  2  4  1  0
  4  5  2  0
  5  6  1  0
  6  7  2  0
  6  8  1  0
  8  9  1  0
  9 10  2  0
  9 11  1  0
  4 11  1  0
 13 14  1  0
 14 15  2  0
 14 16  1  0
 16 17  2  0
 17 18  1  0
 18 19  2  0
 18 20  1  0
 20 21  1  0
 21 22  2  0
 21 23  1  0
 16 23  1  0
  5 24  1  0
  8 25  1  0
 11 26  1  0
 17 27  1  0
 20 28  1  0
 23 29  1  0
M  CHG  3   1  -1  12   2  13  -1
M  END
> <Uni-Dock RESULT> 
ENERGY=   -6.198  LOWER_BOUND=    5.093  UPPER_BOUND=    6.215
INTER + INTRA:          -6.198
INTER:                  -6.198
INTRA:                   0.000
UNBOUND:                 0.000

$$$$

     RDKit          3D

 29 28  0  0  0  0  0  0  0  0999 V2000
   42.4604    6.5379   11.1720 O   0  0  0  0  0  0  0  0  0  0  0  0
   43.0067    5.5819   11.7861 C   0  0  0  0  0  0  0  0  0  0  0  0
   42.6155    4.3895   11.9702 O   0  0  0  0  0  0  0  0  0  0  0  0
   44.3924    5.8786   12.4395 C   0  0  0  0  0  0  0  0  0  0  0  0
   44.9518    7.0903   12.3405 C   0  0  0  0  0  0  0  0  0  0  0  0
   46.2616    7.3245   12.9735 C   0  0  0  0  0  0  0  0  0  0  0  0
   46.8195    8.4166   12.9134 O   0  0  0  0  0  0  0  0  0  0  0  0
   46.8169    6.2598   13.6286 N   0  0  0  0  0  0  0  0  0  0  0  0
   46.2543    5.0172   13.7362 C   0  0  0  0  0  0  0  0  0  0  0  0
   46.8173    4.1098   14.3432 O   0  0  0  0  0  0  0  0  0  0  0  0
   45.0452    4.8734   13.1279 N   0  0  0  0  0  0  0  0  0  0  0  0
   45.1566    5.9835   12.8194 Mg  0  0  0  0  0 15  0  0  0  0  0  0
   42.2071    6.1372   11.8214 O   0  0  0  0  0  0  0  0  0  0  0  0
   42.9865    5.1803   12.1144 C   0  0  0  0  0  0  0  0  0  0  0  0
   42.7987    3.9338   12.0909 O   0  0  0  0  0  0  0  0  0  0  0  0
   44.3982    5.6607   12.5744 C   0  0  0  0  0  0  0  0  0  0  0  0
   45.3434    4.7788   12.9207 C   0  0  0  0  0  0  0  0  0  0  0  0
   46.6618    5.2784   13.3488 C   0  0  0  0  0  0  0  0  0  0  0  0
   47.5645    4.5134   13.6771 O   0  0  0  0  0  0  0  0  0  0  0  0
   46.8208    6.6369   13.3589 N   0  0  0  0  0  0  0  0  0  0  0  0
   45.8621    7.5476   13.0070 C   0  0  0  0  0  0  0  0  0  0  0  0
   46.0824    8.7554   13.0427 O   0  0  0  0  0  0  0  0  0  0  0  0
   44.6699    7.0150   12.6226 N   0  0  0  0  0  0  0  0  0  0  0  0
   44.4839    7.9122   11.8135 H   0  0  0  0  0  0  0  0  0  0  0  0
   47.7097    6.3974   14.0673 H   0  0  0  0  0  0  0  0  0  0  0  0
   44.5564    3.9794   13.1596 H   0  0  0  0  0  0  0  0  0  0  0  0
   45.1836    3.7082   12.9011 H   0  0  0  0  0  0  0  0  0  0  0  0
   47.7119    6.9991   13.6474 H   0  0  0  0  0  0  0  0  0  0  0  0
   43.9007    7.6233   12.3442 H   0  0  0  0  0  0  0  0  0  0  0  0
  1  2  1  0
  2  3  2  0
  2  4  1  0
  4  5  2  0
  5  6  1  0
  6  7  2  0
  6  8  1  0
  8  9  1  0
  9 10  2  0
  9 11  1  0
  4 11  1  0
 13 14  1  0
 14 15  2  0
 14 16  1  0
 16 17  2  0
 17 18  1  0
 18 19  2  0
 18 20  1  0
 20 21  1  0
 21 22  2  0
 21 23  1  0
 16 23  1  0
  5 24  1  0
  8 25  1  0
 11 26  1  0
 17 27  1  0
 20 28  1  0
 23 29  1  0
M  CHG  3   1  -1  12   2  13  -1
M  END
> <Uni-Dock RESULT> 
ENERGY=   -5.700  LOWER_BOUND=    6.295  UPPER_BOUND=    6.822
INTER + INTRA:          -5.700
INTER:                  -5.700
INTRA:                   0.000
UNBOUND:                 0.000

$$$$

     RDKit          3D

 29 28  0  0  0  0  0  0  0  0999 V2000
   43.2399    3.7883   13.0438 O   0  0  0  0  0  0  0  0  0  0  0  0
   43.4566    3.0396   12.0528 C   0  0  0  0  0  0  0  0  0  0  0  0
   43.1086    1.8396   11.8344 O   0  0  0  0  0  0  0  0  0  0  0  0
   44.2859    3.6580   10.8845 C   0  0  0  0  0  0  0  0  0  0  0  0
   44.7330    4.9175   10.9526 C   0  0  0  0  0  0  0  0  0  0  0  0
   45.5122    5.4593    9.8255 C   0  0  0  0  0  0  0  0  0  0  0  0
   45.9461    6.6079    9.8360 O   0  0  0  0  0  0  0  0  0  0  0  0
   45.7229    4.6124    8.7722 N   0  0  0  0  0  0  0  0  0  0  0  0
   45.2709    3.3234    8.6917 C   0  0  0  0  0  0  0  0  0  0  0  0
   45.5022    2.6239    7.7089 O   0  0  0  0  0  0  0  0  0  0  0  0
   44.5591    2.8903    9.7680 N   0  0  0  0  0  0  0  0  0  0  0  0
   44.7373    3.9447   10.2112 Mg  0  0  0  0  0 15  0  0  0  0  0  0
   43.6479    3.0964   13.0062 O   0  0  0  0  0  0  0  0  0  0  0  0
   43.5911    2.5819   11.8482 C   0  0  0  0  0  0  0  0  0  0  0  0
   43.0490    1.5150   11.4512 O   0  0  0  0  0  0  0  0  0  0  0  0
   44.3209    3.4345   10.7640 C   0  0  0  0  0  0  0  0  0  0  0  0
   44.3567    3.0351    9.4872 C   0  0  0  0  0  0  0  0  0  0  0  0
   45.0575    3.8724    8.4978 C   0  0  0  0  0  0  0  0  0  0  0  0
   45.1208    3.5532    7.3138 O   0  0  0  0  0  0  0  0  0  0  0  0
   45.6305    5.0201    8.9728 N   0  0  0  0  0  0  0  0  0  0  0  0
   45.6002    5.4382   10.2753 C   0  0  0  0  0  0  0  0  0  0  0  0
   46.1403    6.4846   10.6246 O   0  0  0  0  0  0  0  0  0  0  0  0
   44.9361    4.6159   11.1329 N   0  0  0  0  0  0  0  0  0  0  0  0
   44.5477    5.5616   11.8030 H   0  0  0  0  0  0  0  0  0  0  0  0
   46.2517    4.9613    7.9929 H   0  0  0  0  0  0  0  0  0  0  0  0
   44.1854    1.9421    9.7899 H   0  0  0  0  0  0  0  0  0  0  0  0
   43.8917    2.1192    9.1448 H   0  0  0  0  0  0  0  0  0  0  0  0
   46.1134    5.6058    8.3153 H   0  0  0  0  0  0  0  0  0  0  0  0
   44.8658    4.8528   12.1219 H   0  0  0  0  0  0  0  0  0  0  0  0
  1  2  1  0
  2  3  2  0
  2  4  1  0
  4  5  2  0
  5  6  1  0
  6  7  2  0
  6  8  1  0
  8  9  1  0
  9 10  2  0
  9 11  1  0
  4 11  1  0
 13 14  1  0
 14 15  2  0
 14 16  1  0
 16 17  2  0
 17 18  1  0
 18 19  2  0
 18 20  1  0
 20 21  1  0
 21 22  2  0
 21 23  1  0
 16 23  1  0
  5 24  1  0
  8 25  1  0
 11 26  1  0
 17 27  1  0
 20 28  1  0
 23 29  1  0
M  CHG  3   1  -1  12   2  13  -1
M  END
> <Uni-Dock RESULT> 
ENERGY=   -5.379  LOWER_BOUND=    2.848  UPPER_BOUND=    4.163
INTER + INTRA:          -5.379
INTER:                  -5.379
INTRA:                   0.000
UNBOUND:                 0.000

$$$$

     RDKit          3D

 29 28  0  0  0  0  0  0  0  0999 V2000
   45.0128    7.6111   10.8428 O   0  0  0  0  0  0  0  0  0  0  0  0
   44.7413    6.7171   11.6894 C   0  0  0  0  0  0  0  0  0  0  0  0
   44.6102    6.7872   12.9491 O   0  0  0  0  0  0  0  0  0  0  0  0
   44.5248    5.2760   11.1314 C   0  0  0  0  0  0  0  0  0  0  0  0
   44.6268    5.0257    9.8207 C   0  0  0  0  0  0  0  0  0  0  0  0
   44.4141    3.6495    9.3392 C   0  0  0  0  0  0  0  0  0  0  0  0
   44.4956    3.3646    8.1476 O   0  0  0  0  0  0  0  0  0  0  0  0
   44.1220    2.7126   10.2920 N   0  0  0  0  0  0  0  0  0  0  0  0
   44.0153    2.9569   11.6341 C   0  0  0  0  0  0  0  0  0  0  0  0
   43.7490    2.0593   12.4292 O   0  0  0  0  0  0  0  0  0  0  0  0
   44.2242    4.2493   12.0066 N   0  0  0  0  0  0  0  0  0  0  0  0
   44.3952    4.4634   10.8820 Mg  0  0  0  0  0 15  0  0  0  0  0  0
   45.4545    7.3384   11.4569 O   0  0  0  0  0  0  0  0  0  0  0  0
   44.8211    6.4818   12.1452 C   0  0  0  0  0  0  0  0  0  0  0  0
   44.4037    6.5321   13.3339 O   0  0  0  0  0  0  0  0  0  0  0  0
   44.5278    5.1642   11.3620 C   0  0  0  0  0  0  0  0  0  0  0  0
   43.8670    4.1549   11.9414 C   0  0  0  0  0  0  0  0  0  0  0  0
   43.6127    2.9298   11.1633 C   0  0  0  0  0  0  0  0  0  0  0  0
   43.0115    1.9740   11.6457 O   0  0  0  0  0  0  0  0  0  0  0  0
   44.0831    2.9193    9.8789 N   0  0  0  0  0  0  0  0  0  0  0  0
   44.7595    3.9449    9.2764 C   0  0  0  0  0  0  0  0  0  0  0  0
   45.1509    3.8590    8.1154 O   0  0  0  0  0  0  0  0  0  0  0  0
   44.9583    5.0442   10.0542 N   0  0  0  0  0  0  0  0  0  0  0  0
   44.8598    5.7923    9.0925 H   0  0  0  0  0  0  0  0  0  0  0  0
   43.9732    1.7678    9.9857 H   0  0  0  0  0  0  0  0  0  0  0  0
   44.1636    4.5180   12.9882 H   0  0  0  0  0  0  0  0  0  0  0  0
   43.5080    4.1967   12.9620 H   0  0  0  0  0  0  0  0  0  0  0  0
   43.9207    2.0938    9.3304 H   0  0  0  0  0  0  0  0  0  0  0  0
   45.4538    5.8540    9.6830 H   0  0  0  0  0  0  0  0  0  0  0  0
  1  2  1  0
  2  3  2  0
  2  4  1  0
  4  5  2  0
  5  6  1  0
  6  7  2  0
  6  8  1  0
  8  9  1  0
  9 10  2  0
  9 11  1  0
  4 11  1  0
 13 14  1  0
 14 15  2  0
 14 16  1  0
 16 17  2  0
 17 18  1  0
 18 19  2  0
 18 20  1  0
 20 21  1  0
 21 22  2  0
 21 23  1  0
 16 23  1  0
  5 24  1  0
  8 25  1  0
 11 26  1  0
 17 27  1  0
 20 28  1  0
 23 29  1  0
M  CHG  3   1  -1  12   2  13  -1
M  END
> <Uni-Dock RESULT> 
ENERGY=   -5.369  LOWER_BOUND=    3.475  UPPER_BOUND=    4.687
INTER + INTRA:          -5.369
INTER:                  -5.369
INTRA:                   0.000
UNBOUND:                 0.000

$$$$

     RDKit          3D

 29 28  0  0  0  0  0  0  0  0999 V2000
   46.6901    3.4558   13.9272 O   0  0  0  0  0  0  0  0  0  0  0  0
   46.8610    4.6909   13.7406 C   0  0  0  0  0  0  0  0  0  0  0  0
   47.8509    5.4363   14.0110 O   0  0  0  0  0  0  0  0  0  0  0  0
   45.6814    5.4607   13.0689 C   0  0  0  0  0  0  0  0  0  0  0  0
   44.5581    4.8235   12.7182 C   0  0  0  0  0  0  0  0  0  0  0  0
   43.4705    5.5912   12.0867 C   0  0  0  0  0  0  0  0  0  0  0  0
   42.4192    5.0566   11.7454 O   0  0  0  0  0  0  0  0  0  0  0  0
   43.6993    6.9273   11.9038 N   0  0  0  0  0  0  0  0  0  0  0  0
   44.8432    7.5892   12.2582 C   0  0  0  0  0  0  0  0  0  0  0  0
   44.9731    8.7944   12.0602 O   0  0  0  0  0  0  0  0  0  0  0  0
   45.8042    6.8176   12.8360 N   0  0  0  0  0  0  0  0  0  0  0  0
   45.0657    5.9363   12.7028 Mg  0  0  0  0  0 15  0  0  0  0  0  0
   46.8051    4.0423   14.4652 O   0  0  0  0  0  0  0  0  0  0  0  0
   47.0172    5.1589   13.9021 C   0  0  0  0  0  0  0  0  0  0  0  0
   48.0491    5.8830   13.8807 O   0  0  0  0  0  0  0  0  0  0  0  0
   45.7785    5.6929   13.1174 C   0  0  0  0  0  0  0  0  0  0  0  0
   45.8316    6.8597   12.4642 C   0  0  0  0  0  0  0  0  0  0  0  0
   44.6374    7.3243   11.7368 C   0  0  0  0  0  0  0  0  0  0  0  0
   44.6314    8.3866   11.1211 O   0  0  0  0  0  0  0  0  0  0  0  0
   43.5415    6.5073   11.7871 N   0  0  0  0  0  0  0  0  0  0  0  0
   43.4758    5.3128   12.4515 C   0  0  0  0  0  0  0  0  0  0  0  0
   42.4519    4.6345   12.4495 O   0  0  0  0  0  0  0  0  0  0  0  0
   44.6150    4.9472   13.1006 N   0  0  0  0  0  0  0  0  0  0  0  0
   44.4099    3.7629   12.8779 H   0  0  0  0  0  0  0  0  0  0  0  0
   42.9710    7.4698   11.4748 H   0  0  0  0  0  0  0  0  0  0  0  0
   46.6881    7.2314   13.1303 H   0  0  0  0  0  0  0  0  0  0  0  0
   46.7170    7.4826   12.4449 H   0  0  0  0  0  0  0  0  0  0  0  0
   42.7163    6.8048   11.2981 H   0  0  0  0  0  0  0  0  0  0  0  0
   44.6520    4.0712   13.6206 H   0  0  0  0  0  0  0  0  0  0  0  0
  1  2  1  0
  2  3  2  0
  2  4  1  0
  4  5  2  0
  5  6  1  0
  6  7  2  0
  6  8  1  0
  8  9  1  0
  9 10  2  0
  9 11  1  0
  4 11  1  0
 13 14  1  0
 14 15  2  0
 14 16  1  0
 16 17  2  0
 17 18  1  0
 18 19  2  0
 18 20  1  0
 20 21  1  0
 21 22  2  0
 21 23  1  0
 16 23  1  0
  5 24  1  0
  8 25  1  0
 11 26  1  0
 17 27  1  0
 20 28  1  0
 23 29  1  0
M  CHG  3   1  -1  12   2  13  -1
M  END
> <Uni-Dock RESULT> 
ENERGY=   -5.127  LOWER_BOUND=    6.362  UPPER_BOUND=    7.401
INTER + INTRA:          -5.127
INTER:                  -5.127
INTRA:                   0.000
UNBOUND:                 0.000

$$$$
