
     RDKit          3D

 29 28  0  0  0  0  0  0  0  0999 V2000
   44.7534    4.6930    8.9390 O   0  0  0  0  0  0  0  0  0  0  0  0
   44.8436    3.4432    9.0785 C   0  0  0  0  0  0  0  0  0  0  0  0
   44.2736    2.6620    9.8994 O   0  0  0  0  0  0  0  0  0  0  0  0
   45.8049    2.7032    8.0970 C   0  0  0  0  0  0  0  0  0  0  0  0
   46.4871    3.3793    7.1651 C   0  0  0  0  0  0  0  0  0  0  0  0
   47.3833    2.6385    6.2602 C   0  0  0  0  0  0  0  0  0  0  0  0
   48.0324    3.2091    5.3878 O   0  0  0  0  0  0  0  0  0  0  0  0
   47.4499    1.2853    6.4475 N   0  0  0  0  0  0  0  0  0  0  0  0
   46.7575    0.5837    7.3965 C   0  0  0  0  0  0  0  0  0  0  0  0
   46.8713   -0.6347    7.5019 O   0  0  0  0  0  0  0  0  0  0  0  0
   45.9496    1.3322    8.1964 N   0  0  0  0  0  0  0  0  0  0  0  0
   46.3193    2.2426    7.5846 Mg  0  0  0  0  0 15  0  0  0  0  0  0
   44.8725    4.9231    8.5909 O   0  0  0  0  0  0  0  0  0  0  0  0
   44.9491    3.7117    8.9319 C   0  0  0  0  0  0  0  0  0  0  0  0
   44.4126    3.0923    9.9001 O   0  0  0  0  0  0  0  0  0  0  0  0
   45.8420    2.7948    8.0391 C   0  0  0  0  0  0  0  0  0  0  0  0
   46.4827    3.2895    6.9733 C   0  0  0  0  0  0  0  0  0  0  0  0
   47.3148    2.3862    6.1593 C   0  0  0  0  0  0  0  0  0  0  0  0
   47.9239    2.7873    5.1715 O   0  0  0  0  0  0  0  0  0  0  0  0
   47.3689    1.0812    6.5659 N   0  0  0  0  0  0  0  0  0  0  0  0
   46.7183    0.5647    7.6532 C   0  0  0  0  0  0  0  0  0  0  0  0
   46.8173   -0.6219    7.9544 O   0  0  0  0  0  0  0  0  0  0  0  0
   45.9688    1.4559    8.3579 N   0  0  0  0  0  0  0  0  0  0  0  0
   46.4107    4.4525    7.0442 H   0  0  0  0  0  0  0  0  0  0  0  0
   48.0550    0.7607    5.8414 H   0  0  0  0  0  0  0  0  0  0  0  0
   45.3980    0.8884    8.9297 H   0  0  0  0  0  0  0  0  0  0  0  0
   46.4179    4.3294    6.6793 H   0  0  0  0  0  0  0  0  0  0  0  0
   47.9304    0.4481    6.0252 H   0  0  0  0  0  0  0  0  0  0  0  0
   45.4513    1.1541    9.1827 H   0  0  0  0  0  0  0  0  0  0  0  0
  1  2  1  0
  2  3  2  0
  2  4  1  0
  4  5  2  0
  5  6  1  0
  6  7  2  0
  6  8  1  0
  8  9  1  0
  9 10  2  0
  9 11  1  0
  4 11  1  0
 13 14  1  0
 14 15  2  0
 14 16  1  0
 16 17  2  0
 17 18  1  0
 18 19  2  0
 18 20  1  0
 20 21  1  0
 21 22  2  0
 21 23  1  0
 16 23  1  0
  5 24  1  0
  8 25  1  0
 11 26  1  0
 17 27  1  0
 20 28  1  0
 23 29  1  0
M  CHG  3   1  -1  12   2  13  -1
M  END
> <Uni-Dock RESULT> 
ENERGY=   -9.430  LOWER_BOUND=    0.000  UPPER_BOUND=    0.000
INTER + INTRA:          -9.430
INTER:                  -9.430
INTRA:                   0.000
UNBOUND:                 0.000

$$$$

     RDKit          3D

 29 28  0  0  0  0  0  0  0  0999 V2000
   43.4946    4.1703   10.2522 O   0  0  0  0  0  0  0  0  0  0  0  0
   43.9359    2.9960   10.1256 C   0  0  0  0  0  0  0  0  0  0  0  0
   43.6707    1.9408   10.7777 O   0  0  0  0  0  0  0  0  0  0  0  0
   44.9814    2.7665    8.9901 C   0  0  0  0  0  0  0  0  0  0  0  0
   45.3741    3.7767    8.2050 C   0  0  0  0  0  0  0  0  0  0  0  0
   46.3635    3.5130    7.1457 C   0  0  0  0  0  0  0  0  0  0  0  0
   46.7583    4.4031    6.3975 O   0  0  0  0  0  0  0  0  0  0  0  0
   46.8146    2.2257    7.0448 N   0  0  0  0  0  0  0  0  0  0  0  0
   46.4205    1.1854    7.8414 C   0  0  0  0  0  0  0  0  0  0  0  0
   46.8731    0.0540    7.6876 O   0  0  0  0  0  0  0  0  0  0  0  0
   45.5051    1.5019    8.7977 N   0  0  0  0  0  0  0  0  0  0  0  0
   45.5597    2.5806    8.3815 Mg  0  0  0  0  0 15  0  0  0  0  0  0
   43.5174    4.4877    9.9573 O   0  0  0  0  0  0  0  0  0  0  0  0
   43.9514    3.3066   10.0360 C   0  0  0  0  0  0  0  0  0  0  0  0
   43.6856    2.3842   10.8651 O   0  0  0  0  0  0  0  0  0  0  0  0
   44.9871    2.8743    8.9518 C   0  0  0  0  0  0  0  0  0  0  0  0
   45.3791    3.7283    7.9988 C   0  0  0  0  0  0  0  0  0  0  0  0
   46.3592    3.2762    6.9959 C   0  0  0  0  0  0  0  0  0  0  0  0
   46.7529    4.0183    6.1004 O   0  0  0  0  0  0  0  0  0  0  0  0
   46.8026    1.9881    7.1197 N   0  0  0  0  0  0  0  0  0  0  0  0
   46.4089    1.1065    8.0893 C   0  0  0  0  0  0  0  0  0  0  0  0
   46.8543   -0.0372    8.1338 O   0  0  0  0  0  0  0  0  0  0  0  0
   45.5024    1.5922    8.9811 N   0  0  0  0  0  0  0  0  0  0  0  0
   44.9960    4.7855    8.3127 H   0  0  0  0  0  0  0  0  0  0  0  0
   47.4898    2.0238    6.3292 H   0  0  0  0  0  0  0  0  0  0  0  0
   45.1576    0.7856    9.4343 H   0  0  0  0  0  0  0  0  0  0  0  0
   45.0073    4.7428    7.9300 H   0  0  0  0  0  0  0  0  0  0  0  0
   47.4711    1.6592    6.4464 H   0  0  0  0  0  0  0  0  0  0  0  0
   45.1561    1.0011    9.7359 H   0  0  0  0  0  0  0  0  0  0  0  0
  1  2  1  0
  2  3  2  0
  2  4  1  0
  4  5  2  0
  5  6  1  0
  6  7  2  0
  6  8  1  0
  8  9  1  0
  9 10  2  0
  9 11  1  0
  4 11  1  0
 13 14  1  0
 14 15  2  0
 14 16  1  0
 16 17  2  0
 17 18  1  0
 18 19  2  0
 18 20  1  0
 20 21  1  0
 21 22  2  0
 21 23  1  0
 16 23  1  0
  5 24  1  0
  8 25  1  0
 11 26  1  0
 17 27  1  0
 20 28  1  0
 23 29  1  0
M  CHG  3   1  -1  12   2  13  -1
M  END
> <Uni-Dock RESULT> 
ENERGY=   -7.675  LOWER_BOUND=    1.169  UPPER_BOUND=    1.386
INTER + INTRA:          -7.675
INTER:                  -7.675
INTRA:                   0.000
UNBOUND:                 0.000

$$$$

     RDKit          3D

 29 28  0  0  0  0  0  0  0  0999 V2000
   45.7577    3.7430    7.4964 O   0  0  0  0  0  0  0  0  0  0  0  0
   45.4962    2.9039    8.4004 C   0  0  0  0  0  0  0  0  0  0  0  0
   45.8193    1.6822    8.5098 O   0  0  0  0  0  0  0  0  0  0  0  0
   44.6360    3.4183    9.5965 C   0  0  0  0  0  0  0  0  0  0  0  0
   44.2096    4.6861    9.6393 C   0  0  0  0  0  0  0  0  0  0  0  0
   43.3999    5.1274   10.7884 C   0  0  0  0  0  0  0  0  0  0  0  0
   42.9830    6.2789   10.8780 O   0  0  0  0  0  0  0  0  0  0  0  0
   43.1408    4.1844   11.7448 N   0  0  0  0  0  0  0  0  0  0  0  0
   43.5712    2.8860   11.7115 C   0  0  0  0  0  0  0  0  0  0  0  0
   43.2962    2.0970   12.6117 O   0  0  0  0  0  0  0  0  0  0  0  0
   44.3135    2.5489   10.6215 N   0  0  0  0  0  0  0  0  0  0  0  0
   44.1658    3.6449   10.2798 Mg  0  0  0  0  0 15  0  0  0  0  0  0
   45.7285    4.1747    7.5287 O   0  0  0  0  0  0  0  0  0  0  0  0
   45.4502    3.2003    8.2789 C   0  0  0  0  0  0  0  0  0  0  0  0
   45.7347    1.9690    8.1706 O   0  0  0  0  0  0  0  0  0  0  0  0
   44.6206    3.5258    9.5599 C   0  0  0  0  0  0  0  0  0  0  0  0
   44.2361    4.7794    9.8277 C   0  0  0  0  0  0  0  0  0  0  0  0
   43.4540    5.0394   11.0490 C   0  0  0  0  0  0  0  0  0  0  0  0
   43.0758    6.1701   11.3427 O   0  0  0  0  0  0  0  0  0  0  0  0
   43.1754    3.9535   11.8328 N   0  0  0  0  0  0  0  0  0  0  0  0
   43.5632    2.6682   11.5691 C   0  0  0  0  0  0  0  0  0  0  0  0
   43.2729    1.7441   12.3242 O   0  0  0  0  0  0  0  0  0  0  0  0
   44.2818    2.5025   10.4249 N   0  0  0  0  0  0  0  0  0  0  0  0
   44.4334    5.4077    8.8637 H   0  0  0  0  0  0  0  0  0  0  0  0
   42.5903    4.4639   12.5369 H   0  0  0  0  0  0  0  0  0  0  0  0
   44.6741    1.6011   10.5179 H   0  0  0  0  0  0  0  0  0  0  0  0
   44.4742    5.6171    9.1845 H   0  0  0  0  0  0  0  0  0  0  0  0
   42.6433    4.1083   12.6703 H   0  0  0  0  0  0  0  0  0  0  0  0
   44.6103    1.5765   10.1535 H   0  0  0  0  0  0  0  0  0  0  0  0
  1  2  1  0
  2  3  2  0
  2  4  1  0
  4  5  2  0
  5  6  1  0
  6  7  2  0
  6  8  1  0
  8  9  1  0
  9 10  2  0
  9 11  1  0
  4 11  1  0
 13 14  1  0
 14 15  2  0
 14 16  1  0
 16 17  2  0
 17 18  1  0
 18 19  2  0
 18 20  1  0
 20 21  1  0
 21 22  2  0
 21 23  1  0
 16 23  1  0
  5 24  1  0
  8 25  1  0
 11 26  1  0
 17 27  1  0
 20 28  1  0
 23 29  1  0
M  CHG  3   1  -1  12   2  13  -1
M  END
> <Uni-Dock RESULT> 
ENERGY=   -7.478  LOWER_BOUND=    2.771  UPPER_BOUND=    4.984
INTER + INTRA:          -7.478
INTER:                  -7.478
INTRA:                   0.000
UNBOUND:                 0.000

$$$$

     RDKit          3D

 29 28  0  0  0  0  0  0  0  0999 V2000
   46.9008    5.5896   14.0196 O   0  0  0  0  0  0  0  0  0  0  0  0
   46.4910    4.4478   13.6758 C   0  0  0  0  0  0  0  0  0  0  0  0
   47.0094    3.3019   13.8401 O   0  0  0  0  0  0  0  0  0  0  0  0
   45.1252    4.3987   12.9226 C   0  0  0  0  0  0  0  0  0  0  0  0
   44.4428    5.5210   12.6661 C   0  0  0  0  0  0  0  0  0  0  0  0
   43.1575    5.4262   11.9522 C   0  0  0  0  0  0  0  0  0  0  0  0
   42.4909    6.4239   11.6912 O   0  0  0  0  0  0  0  0  0  0  0  0
   42.7521    4.1686   11.5987 N   0  0  0  0  0  0  0  0  0  0  0  0
   43.4411    3.0147   11.8556 C   0  0  0  0  0  0  0  0  0  0  0  0
   43.0095    1.9196   11.5048 O   0  0  0  0  0  0  0  0  0  0  0  0
   44.6190    3.1779   12.5178 N   0  0  0  0  0  0  0  0  0  0  0  0
   44.3790    4.3102   12.5047 Mg  0  0  0  0  0 15  0  0  0  0  0  0
   46.6630    5.9514   14.0476 O   0  0  0  0  0  0  0  0  0  0  0  0
   46.4510    4.7688   13.6655 C   0  0  0  0  0  0  0  0  0  0  0  0
   47.1607    3.7243   13.7844 O   0  0  0  0  0  0  0  0  0  0  0  0
   45.1043    4.5114   12.9204 C   0  0  0  0  0  0  0  0  0  0  0  0
   44.2359    5.5077   12.7096 C   0  0  0  0  0  0  0  0  0  0  0  0
   42.9768    5.2177   12.0015 C   0  0  0  0  0  0  0  0  0  0  0  0
   42.1453    6.0940   11.7816 O   0  0  0  0  0  0  0  0  0  0  0  0
   42.7889    3.9219   11.6053 N   0  0  0  0  0  0  0  0  0  0  0  0
   43.6692    2.8958   11.8154 C   0  0  0  0  0  0  0  0  0  0  0  0
   43.4278    1.7556   11.4280 O   0  0  0  0  0  0  0  0  0  0  0  0
   44.8102    3.2364   12.4750 N   0  0  0  0  0  0  0  0  0  0  0  0
   44.7935    6.5021   12.9606 H   0  0  0  0  0  0  0  0  0  0  0  0
   41.8785    4.0810   11.1110 H   0  0  0  0  0  0  0  0  0  0  0  0
   45.1953    2.3696   12.7491 H   0  0  0  0  0  0  0  0  0  0  0  0
   44.4166    6.5236   13.0371 H   0  0  0  0  0  0  0  0  0  0  0  0
   41.9371    3.7022   11.1209 H   0  0  0  0  0  0  0  0  0  0  0  0
   45.5198    2.5319   12.6727 H   0  0  0  0  0  0  0  0  0  0  0  0
  1  2  1  0
  2  3  2  0
  2  4  1  0
  4  5  2  0
  5  6  1  0
  6  7  2  0
  6  8  1  0
  8  9  1  0
  9 10  2  0
  9 11  1  0
  4 11  1  0
 13 14  1  0
 14 15  2  0
 14 16  1  0
 16 17  2  0
 17 18  1  0
 18 19  2  0
 18 20  1  0
 20 21  1  0
 21 22  2  0
 21 23  1  0
 16 23  1  0
  5 24  1  0
  8 25  1  0
 11 26  1  0
 17 27  1  0
 20 28  1  0
 23 29  1  0
M  CHG  3   1  -1  12   2  13  -1
M  END
> <Uni-Dock RESULT> 
ENERGY=   -7.365  LOWER_BOUND=    5.397  UPPER_BOUND=    6.292
INTER + INTRA:          -7.365
INTER:                  -7.365
INTRA:                   0.000
UNBOUND:                 0.000

$$$$

     RDKit          3D

 29 28  0  0  0  0  0  0  0  0999 V2000
   45.0634    2.1170    9.0849 O   0  0  0  0  0  0  0  0  0  0  0  0
   44.5871    3.2810    8.9961 C   0  0  0  0  0  0  0  0  0  0  0  0
   44.4609    4.0458    7.9920 O   0  0  0  0  0  0  0  0  0  0  0  0
   44.0562    3.9161   10.3190 C   0  0  0  0  0  0  0  0  0  0  0  0
   44.1136    3.2429   11.4741 C   0  0  0  0  0  0  0  0  0  0  0  0
   43.6004    3.8825   12.6981 C   0  0  0  0  0  0  0  0  0  0  0  0
   43.6287    3.3101   13.7841 O   0  0  0  0  0  0  0  0  0  0  0  0
   43.0931    5.1447   12.5551 N   0  0  0  0  0  0  0  0  0  0  0  0
   43.0293    5.8424   11.3798 C   0  0  0  0  0  0  0  0  0  0  0  0
   42.5578    6.9755   11.3326 O   0  0  0  0  0  0  0  0  0  0  0  0
   43.5212    5.1902   10.2909 N   0  0  0  0  0  0  0  0  0  0  0  0
   43.7488    4.3164   11.0151 Mg  0  0  0  0  0 15  0  0  0  0  0  0
   45.0016    1.8370    9.4106 O   0  0  0  0  0  0  0  0  0  0  0  0
   44.6757    3.0340    9.1855 C   0  0  0  0  0  0  0  0  0  0  0  0
   44.7486    3.7223    8.1226 O   0  0  0  0  0  0  0  0  0  0  0  0
   44.0815    3.8293   10.3894 C   0  0  0  0  0  0  0  0  0  0  0  0
   43.9350    3.2515   11.5877 C   0  0  0  0  0  0  0  0  0  0  0  0
   43.3695    4.0414   12.6954 C   0  0  0  0  0  0  0  0  0  0  0  0
   43.2133    3.5609   13.8145 O   0  0  0  0  0  0  0  0  0  0  0  0
   43.0302    5.3346   12.4060 N   0  0  0  0  0  0  0  0  0  0  0  0
   43.1754    5.9355   11.1854 C   0  0  0  0  0  0  0  0  0  0  0  0
   42.8463    7.1048   11.0042 O   0  0  0  0  0  0  0  0  0  0  0  0
   43.7038    5.1467   10.2100 N   0  0  0  0  0  0  0  0  0  0  0  0
   44.5224    2.2433   11.5519 H   0  0  0  0  0  0  0  0  0  0  0  0
   42.7378    5.5995   13.3770 H   0  0  0  0  0  0  0  0  0  0  0  0
   43.5119    5.6383    9.3754 H   0  0  0  0  0  0  0  0  0  0  0  0
   44.2144    2.2239   11.7824 H   0  0  0  0  0  0  0  0  0  0  0  0
   42.6428    5.8911   13.1469 H   0  0  0  0  0  0  0  0  0  0  0  0
   43.8458    5.5161    9.2706 H   0  0  0  0  0  0  0  0  0  0  0  0
  1  2  1  0
  2  3  2  0
  2  4  1  0
  4  5  2  0
  5  6  1  0
  6  7  2  0
  6  8  1  0
  8  9  1  0
  9 10  2  0
  9 11  1  0
  4 11  1  0
 13 14  1  0
 14 15  2  0
 14 16  1  0
 16 17  2  0
 17 18  1  0
 18 19  2  0
 18 20  1  0
 20 21  1  0
 21 22  2  0
 21 23  1  0
 16 23  1  0
  5 24  1  0
  8 25  1  0
 11 26  1  0
 17 27  1  0
 20 28  1  0
 23 29  1  0
M  CHG  3   1  -1  12   2  13  -1
M  END
> <Uni-Dock RESULT> 
ENERGY=   -7.144  LOWER_BOUND=    3.626  UPPER_BOUND=    6.267
INTER + INTRA:          -7.144
INTER:                  -7.144
INTRA:                   0.000
UNBOUND:                 0.000

$$$$

     RDKit          3D

 29 28  0  0  0  0  0  0  0  0999 V2000
   47.0290    0.0951    7.1523 O   0  0  0  0  0  0  0  0  0  0  0  0
   47.1479    1.3451    7.0384 C   0  0  0  0  0  0  0  0  0  0  0  0
   47.8822    2.0367    6.2694 O   0  0  0  0  0  0  0  0  0  0  0  0
   46.2611    2.2152    7.9827 C   0  0  0  0  0  0  0  0  0  0  0  0
   45.4263    1.6436    8.8587 C   0  0  0  0  0  0  0  0  0  0  0  0
   44.6084    2.5051    9.7303 C   0  0  0  0  0  0  0  0  0  0  0  0
   43.8267    2.0333   10.5513 O   0  0  0  0  0  0  0  0  0  0  0  0
   44.7698    3.8542    9.5724 N   0  0  0  0  0  0  0  0  0  0  0  0
   45.6198    4.4495    8.6806 C   0  0  0  0  0  0  0  0  0  0  0  0
   45.7082    5.6717    8.5985 O   0  0  0  0  0  0  0  0  0  0  0  0
   46.3433    3.5930    7.9088 N   0  0  0  0  0  0  0  0  0  0  0  0
   45.7977    2.7447    8.4769 Mg  0  0  0  0  0 15  0  0  0  0  0  0
   46.7017   -0.1167    7.3429 O   0  0  0  0  0  0  0  0  0  0  0  0
   47.0202    1.0946    7.1987 C   0  0  0  0  0  0  0  0  0  0  0  0
   47.9084    1.6324    6.4702 O   0  0  0  0  0  0  0  0  0  0  0  0
   46.2098    2.1298    8.0393 C   0  0  0  0  0  0  0  0  0  0  0  0
   45.2331    1.7304    8.8626 C   0  0  0  0  0  0  0  0  0  0  0  0
   44.4947    2.7435    9.6366 C   0  0  0  0  0  0  0  0  0  0  0  0
   43.5898    2.4323   10.4061 O   0  0  0  0  0  0  0  0  0  0  0  0
   44.8737    4.0444    9.4490 N   0  0  0  0  0  0  0  0  0  0  0  0
   45.8701    4.4641    8.6104 C   0  0  0  0  0  0  0  0  0  0  0  0
   46.1521    5.6541    8.4964 O   0  0  0  0  0  0  0  0  0  0  0  0
   46.5089    3.4746    7.9280 N   0  0  0  0  0  0  0  0  0  0  0  0
   45.3233    0.5704    8.9577 H   0  0  0  0  0  0  0  0  0  0  0  0
   44.2218    4.4600   10.1567 H   0  0  0  0  0  0  0  0  0  0  0  0
   47.0006    3.9533    7.2181 H   0  0  0  0  0  0  0  0  0  0  0  0
   44.9585    0.6906    8.9874 H   0  0  0  0  0  0  0  0  0  0  0  0
   44.3833    4.7514    9.9669 H   0  0  0  0  0  0  0  0  0  0  0  0
   47.2641    3.7004    7.2817 H   0  0  0  0  0  0  0  0  0  0  0  0
  1  2  1  0
  2  3  2  0
  2  4  1  0
  4  5  2  0
  5  6  1  0
  6  7  2  0
  6  8  1  0
  8  9  1  0
  9 10  2  0
  9 11  1  0
  4 11  1  0
 13 14  1  0
 14 15  2  0
 14 16  1  0
 16 17  2  0
 17 18  1  0
 18 19  2  0
 18 20  1  0
 20 21  1  0
 21 22  2  0
 21 23  1  0
 16 23  1  0
  5 24  1  0
  8 25  1  0
 11 26  1  0
 17 27  1  0
 20 28  1  0
 23 29  1  0
M  CHG  3   1  -1  12   2  13  -1
M  END
> <Uni-Dock RESULT> 
ENERGY=   -7.030  LOWER_BOUND=    1.479  UPPER_BOUND=    4.489
INTER + INTRA:          -7.030
INTER:                  -7.030
INTRA:                   0.000
UNBOUND:                 0.000

$$$$
