
     RDKit          3D

 29 28  0  0  0  0  0  0  0  0999 V2000
   47.1138    3.7165   13.3451 O   0  0  0  0  0  0  0  0  0  0  0  0
   46.0397    4.2804   13.6885 C   0  0  0  0  0  0  0  0  0  0  0  0
   45.6109    4.6077   14.8365 O   0  0  0  0  0  0  0  0  0  0  0  0
   45.0522    4.6508   12.5384 C   0  0  0  0  0  0  0  0  0  0  0  0
   45.3504    4.3750   11.2632 C   0  0  0  0  0  0  0  0  0  0  0  0
   44.3874    4.7432   10.2104 C   0  0  0  0  0  0  0  0  0  0  0  0
   44.6106    4.5134    9.0251 O   0  0  0  0  0  0  0  0  0  0  0  0
   43.2364    5.3525   10.6284 N   0  0  0  0  0  0  0  0  0  0  0  0
   42.9211    5.6393   11.9287 C   0  0  0  0  0  0  0  0  0  0  0  0
   41.8639    6.1900   12.2247 O   0  0  0  0  0  0  0  0  0  0  0  0
   43.8563    5.2713   12.8468 N   0  0  0  0  0  0  0  0  0  0  0  0
   44.4701    4.8779   11.9477 Mg  0  0  0  0  0 15  0  0  0  0  0  0
   47.5603    5.2713   12.7135 O   0  0  0  0  0  0  0  0  0  0  0  0
   46.5009    5.9546   12.7013 C   0  0  0  0  0  0  0  0  0  0  0  0
   46.2952    7.1628   13.0280 O   0  0  0  0  0  0  0  0  0  0  0  0
   45.2113    5.2264   12.2092 C   0  0  0  0  0  0  0  0  0  0  0  0
   45.2517    3.9449   11.8255 C   0  0  0  0  0  0  0  0  0  0  0  0
   44.0092    3.2984   11.3682 C   0  0  0  0  0  0  0  0  0  0  0  0
   43.9896    2.1256   11.0052 O   0  0  0  0  0  0  0  0  0  0  0  0
   42.8844    4.0769   11.3715 N   0  0  0  0  0  0  0  0  0  0  0  0
   42.8315    5.3874   11.7614 C   0  0  0  0  0  0  0  0  0  0  0  0
   41.7796    6.0211   11.7356 O   0  0  0  0  0  0  0  0  0  0  0  0
   44.0157    5.9187   12.1713 N   0  0  0  0  0  0  0  0  0  0  0  0
   46.2722    3.8909   10.9668 H   0  0  0  0  0  0  0  0  0  0  0  0
   42.5660    5.6120    9.9272 H   0  0  0  0  0  0  0  0  0  0  0  0
   43.7007    5.4480   13.8386 H   0  0  0  0  0  0  0  0  0  0  0  0
   46.1607    3.3570   11.8355 H   0  0  0  0  0  0  0  0  0  0  0  0
   42.0262    3.6561   11.0635 H   0  0  0  0  0  0  0  0  0  0  0  0
   44.0650    6.8894   12.4786 H   0  0  0  0  0  0  0  0  0  0  0  0
  1  2  1  0
  2  3  2  0
  2  4  1  0
  4  5  2  0
  5  6  1  0
  6  7  2  0
  6  8  1  0
  8  9  1  0
  9 10  2  0
  9 11  1  0
  4 11  1  0
 13 14  1  0
 14 15  2  0
 14 16  1  0
 16 17  2  0
 17 18  1  0
 18 19  2  0
 18 20  1  0
 20 21  1  0
 21 22  2  0
 21 23  1  0
 16 23  1  0
  5 24  1  0
  8 25  1  0
 11 26  1  0
 17 27  1  0
 20 28  1  0
 23 29  1  0
M  CHG  3   1  -1  12   2  13  -1
M  END
> <Uni-Dock RESULT> 
ENERGY=   -4.536  LOWER_BOUND=    0.000  UPPER_BOUND=    0.000
INTER + INTRA:          -4.536
INTER:                  -4.536
INTRA:                   0.000
UNBOUND:                 0.000

$$$$

     RDKit          3D

 29 28  0  0  0  0  0  0  0  0999 V2000
   45.4084    7.9922   13.3815 O   0  0  0  0  0  0  0  0  0  0  0  0
   45.1254    7.7779   12.1718 C   0  0  0  0  0  0  0  0  0  0  0  0
   44.9282    8.5874   11.2153 O   0  0  0  0  0  0  0  0  0  0  0  0
   44.9873    6.2830   11.7460 C   0  0  0  0  0  0  0  0  0  0  0  0
   45.1640    5.2979   12.6343 C   0  0  0  0  0  0  0  0  0  0  0  0
   45.0236    3.9010   12.1869 C   0  0  0  0  0  0  0  0  0  0  0  0
   45.1752    2.9592   12.9600 O   0  0  0  0  0  0  0  0  0  0  0  0
   44.7161    3.7156   10.8671 N   0  0  0  0  0  0  0  0  0  0  0  0
   44.5331    4.7147    9.9502 C   0  0  0  0  0  0  0  0  0  0  0  0
   44.2580    4.4666    8.7792 O   0  0  0  0  0  0  0  0  0  0  0  0
   44.6783    5.9789   10.4335 N   0  0  0  0  0  0  0  0  0  0  0  0
   44.8985    5.4791   11.4541 Mg  0  0  0  0  0 15  0  0  0  0  0  0
   46.9837    7.3874   12.9710 O   0  0  0  0  0  0  0  0  0  0  0  0
   46.8590    6.8422   11.8411 C   0  0  0  0  0  0  0  0  0  0  0  0
   47.6106    6.8797   10.8201 O   0  0  0  0  0  0  0  0  0  0  0  0
   45.5820    5.9708   11.6285 C   0  0  0  0  0  0  0  0  0  0  0  0
   44.6812    5.8242   12.6074 C   0  0  0  0  0  0  0  0  0  0  0  0
   43.4905    4.9918   12.3614 C   0  0  0  0  0  0  0  0  0  0  0  0
   42.6331    4.8238   13.2241 O   0  0  0  0  0  0  0  0  0  0  0  0
   43.3964    4.4201   11.1223 N   0  0  0  0  0  0  0  0  0  0  0  0
   44.3108    4.5630   10.1144 C   0  0  0  0  0  0  0  0  0  0  0  0
   44.1547    4.0157    9.0260 O   0  0  0  0  0  0  0  0  0  0  0  0
   45.3844    5.3449   10.4121 N   0  0  0  0  0  0  0  0  0  0  0  0
   45.4071    5.4804   13.6734 H   0  0  0  0  0  0  0  0  0  0  0  0
   44.6157    2.7712   10.5408 H   0  0  0  0  0  0  0  0  0  0  0  0
   44.5588    6.7820    9.8172 H   0  0  0  0  0  0  0  0  0  0  0  0
   44.7870    6.2917   13.5780 H   0  0  0  0  0  0  0  0  0  0  0  0
   42.5925    3.8486   10.9332 H   0  0  0  0  0  0  0  0  0  0  0  0
   46.1132    5.5039    9.7175 H   0  0  0  0  0  0  0  0  0  0  0  0
  1  2  1  0
  2  3  2  0
  2  4  1  0
  4  5  2  0
  5  6  1  0
  6  7  2  0
  6  8  1  0
  8  9  1  0
  9 10  2  0
  9 11  1  0
  4 11  1  0
 13 14  1  0
 14 15  2  0
 14 16  1  0
 16 17  2  0
 17 18  1  0
 18 19  2  0
 18 20  1  0
 20 21  1  0
 21 22  2  0
 21 23  1  0
 16 23  1  0
  5 24  1  0
  8 25  1  0
 11 26  1  0
 17 27  1  0
 20 28  1  0
 23 29  1  0
M  CHG  3   1  -1  12   2  13  -1
M  END
> <Uni-Dock RESULT> 
ENERGY=   -4.497  LOWER_BOUND=    1.483  UPPER_BOUND=    2.957
INTER + INTRA:          -4.497
INTER:                  -4.497
INTRA:                   0.000
UNBOUND:                 0.000

$$$$

     RDKit          3D

 29 28  0  0  0  0  0  0  0  0999 V2000
   46.1768    3.8125    8.5659 O   0  0  0  0  0  0  0  0  0  0  0  0
   44.9728    4.1486    8.7296 C   0  0  0  0  0  0  0  0  0  0  0  0
   44.0057    4.1767    7.9092 O   0  0  0  0  0  0  0  0  0  0  0  0
   44.5708    4.6116   10.1646 C   0  0  0  0  0  0  0  0  0  0  0  0
   45.4725    4.6423   11.1530 C   0  0  0  0  0  0  0  0  0  0  0  0
   45.0475    5.0865   12.4920 C   0  0  0  0  0  0  0  0  0  0  0  0
   45.8335    5.1337   13.4341 O   0  0  0  0  0  0  0  0  0  0  0  0
   43.7331    5.4416   12.6237 N   0  0  0  0  0  0  0  0  0  0  0  0
   42.8027    5.4143   11.6207 C   0  0  0  0  0  0  0  0  0  0  0  0
   41.6379    5.7496   11.8186 O   0  0  0  0  0  0  0  0  0  0  0  0
   43.2656    4.9938   10.4117 N   0  0  0  0  0  0  0  0  0  0  0  0
   44.2918    4.8754   10.9339 Mg  0  0  0  0  0 15  0  0  0  0  0  0
   45.7628    2.4100    9.5027 O   0  0  0  0  0  0  0  0  0  0  0  0
   44.6424    2.6623   10.0226 C   0  0  0  0  0  0  0  0  0  0  0  0
   43.6148    1.9319   10.1621 O   0  0  0  0  0  0  0  0  0  0  0  0
   44.4532    4.0999   10.5997 C   0  0  0  0  0  0  0  0  0  0  0  0
   45.4415    5.0001   10.5350 C   0  0  0  0  0  0  0  0  0  0  0  0
   45.2178    6.3453   11.0930 C   0  0  0  0  0  0  0  0  0  0  0  0
   46.0899    7.2090   11.0602 O   0  0  0  0  0  0  0  0  0  0  0  0
   43.9882    6.5747   11.6469 N   0  0  0  0  0  0  0  0  0  0  0  0
   42.9710    5.6624   11.7185 C   0  0  0  0  0  0  0  0  0  0  0  0
   41.8922    5.9453   12.2332 O   0  0  0  0  0  0  0  0  0  0  0  0
   43.2481    4.4418   11.1837 N   0  0  0  0  0  0  0  0  0  0  0  0
   46.5067    4.3539   11.0139 H   0  0  0  0  0  0  0  0  0  0  0  0
   43.4220    5.7476   13.5281 H   0  0  0  0  0  0  0  0  0  0  0  0
   42.6382    4.9436    9.6098 H   0  0  0  0  0  0  0  0  0  0  0  0
   46.4041    4.7848   10.0888 H   0  0  0  0  0  0  0  0  0  0  0  0
   43.8144    7.4852   12.0332 H   0  0  0  0  0  0  0  0  0  0  0  0
   42.5453    3.7036   11.1953 H   0  0  0  0  0  0  0  0  0  0  0  0
  1  2  1  0
  2  3  2  0
  2  4  1  0
  4  5  2  0
  5  6  1  0
  6  7  2  0
  6  8  1  0
  8  9  1  0
  9 10  2  0
  9 11  1  0
  4 11  1  0
 13 14  1  0
 14 15  2  0
 14 16  1  0
 16 17  2  0
 17 18  1  0
 18 19  2  0
 18 20  1  0
 20 21  1  0
 21 22  2  0
 21 23  1  0
 16 23  1  0
  5 24  1  0
  8 25  1  0
 11 26  1  0
 17 27  1  0
 20 28  1  0
 23 29  1  0
M  CHG  3   1  -1  12   2  13  -1
M  END
> <Uni-Dock RESULT> 
ENERGY=   -4.463  LOWER_BOUND=    1.138  UPPER_BOUND=    3.560
INTER + INTRA:          -4.463
INTER:                  -4.463
INTRA:                   0.000
UNBOUND:                 0.000

$$$$

     RDKit          3D

 29 28  0  0  0  0  0  0  0  0999 V2000
   45.5448    4.0912   11.2382 O   0  0  0  0  0  0  0  0  0  0  0  0
   44.9630    5.1950   11.0580 C   0  0  0  0  0  0  0  0  0  0  0  0
   44.0212    5.5115   10.2693 O   0  0  0  0  0  0  0  0  0  0  0  0
   45.4566    6.3901   11.9316 C   0  0  0  0  0  0  0  0  0  0  0  0
   46.4461    6.2287   12.8181 C   0  0  0  0  0  0  0  0  0  0  0  0
   46.8792    7.3857   13.6212 C   0  0  0  0  0  0  0  0  0  0  0  0
   47.7819    7.2933   14.4485 O   0  0  0  0  0  0  0  0  0  0  0  0
   46.2206    8.5626   13.3926 N   0  0  0  0  0  0  0  0  0  0  0  0
   45.2081    8.7391   12.4893 C   0  0  0  0  0  0  0  0  0  0  0  0
   44.6649    9.8307   12.3415 O   0  0  0  0  0  0  0  0  0  0  0  0
   44.8606    7.6284   11.7833 N   0  0  0  0  0  0  0  0  0  0  0  0
   45.6863    7.0839   12.3846 Mg  0  0  0  0  0 15  0  0  0  0  0  0
   44.6966    4.0548   12.7533 O   0  0  0  0  0  0  0  0  0  0  0  0
   44.2423    5.2188   12.9209 C   0  0  0  0  0  0  0  0  0  0  0  0
   43.1108    5.6099   13.3400 O   0  0  0  0  0  0  0  0  0  0  0  0
   45.2024    6.3963   12.5643 C   0  0  0  0  0  0  0  0  0  0  0  0
   46.4375    6.1593   12.1068 C   0  0  0  0  0  0  0  0  0  0  0  0
   47.3092    7.3023   11.7830 C   0  0  0  0  0  0  0  0  0  0  0  0
   48.4507    7.1419   11.3601 O   0  0  0  0  0  0  0  0  0  0  0  0
   46.7754    8.5462   11.9800 N   0  0  0  0  0  0  0  0  0  0  0  0
   45.5146    8.8003   12.4472 C   0  0  0  0  0  0  0  0  0  0  0  0
   45.1069    9.9491   12.5976 O   0  0  0  0  0  0  0  0  0  0  0  0
   44.7662    7.6979   12.7252 N   0  0  0  0  0  0  0  0  0  0  0  0
   46.9466    5.2815   12.9740 H   0  0  0  0  0  0  0  0  0  0  0  0
   46.4999    9.3641   13.9292 H   0  0  0  0  0  0  0  0  0  0  0  0
   44.1154    7.6724   11.0892 H   0  0  0  0  0  0  0  0  0  0  0  0
   46.8290    5.1603   11.9623 H   0  0  0  0  0  0  0  0  0  0  0  0
   47.3524    9.3397   11.7657 H   0  0  0  0  0  0  0  0  0  0  0  0
   43.8149    7.7976   13.0777 H   0  0  0  0  0  0  0  0  0  0  0  0
  1  2  1  0
  2  3  2  0
  2  4  1  0
  4  5  2  0
  5  6  1  0
  6  7  2  0
  6  8  1  0
  8  9  1  0
  9 10  2  0
  9 11  1  0
  4 11  1  0
 13 14  1  0
 14 15  2  0
 14 16  1  0
 16 17  2  0
 17 18  1  0
 18 19  2  0
 18 20  1  0
 20 21  1  0
 21 22  2  0
 21 23  1  0
 16 23  1  0
  5 24  1  0
  8 25  1  0
 11 26  1  0
 17 27  1  0
 20 28  1  0
 23 29  1  0
M  CHG  3   1  -1  12   2  13  -1
M  END
> <Uni-Dock RESULT> 
ENERGY=   -3.980  LOWER_BOUND=    2.285  UPPER_BOUND=    4.141
INTER + INTRA:          -3.980
INTER:                  -3.980
INTRA:                   0.000
UNBOUND:                 0.000

$$$$

     RDKit          3D

 29 28  0  0  0  0  0  0  0  0999 V2000
   54.9676    4.4456    8.1889 O   0  0  0  0  0  0  0  0  0  0  0  0
   53.9637    4.9543    7.6208 C   0  0  0  0  0  0  0  0  0  0  0  0
   52.8687    4.4285    7.2553 O   0  0  0  0  0  0  0  0  0  0  0  0
   54.0469    6.4792    7.2997 C   0  0  0  0  0  0  0  0  0  0  0  0
   55.1356    7.1888    7.6193 C   0  0  0  0  0  0  0  0  0  0  0  0
   55.1695    8.6261    7.2967 C   0  0  0  0  0  0  0  0  0  0  0  0
   56.1430    9.3238    7.5676 O   0  0  0  0  0  0  0  0  0  0  0  0
   54.0593    9.1353    6.6810 N   0  0  0  0  0  0  0  0  0  0  0  0
   52.9411    8.4196    6.3497 C   0  0  0  0  0  0  0  0  0  0  0  0
   51.9817    8.9505    5.7963 O   0  0  0  0  0  0  0  0  0  0  0  0
   52.9797    7.0990    6.6773 N   0  0  0  0  0  0  0  0  0  0  0  0
   54.0360    7.3150    7.0984 Mg  0  0  0  0  0 15  0  0  0  0  0  0
   54.4466    5.3335    9.5875 O   0  0  0  0  0  0  0  0  0  0  0  0
   53.5846    6.1544    9.1721 C   0  0  0  0  0  0  0  0  0  0  0  0
   52.4691    6.4998    9.6672 O   0  0  0  0  0  0  0  0  0  0  0  0
   53.9104    6.8837    7.8314 C   0  0  0  0  0  0  0  0  0  0  0  0
   55.0500    6.6352    7.1753 C   0  0  0  0  0  0  0  0  0  0  0  0
   55.3154    7.3475    5.9130 C   0  0  0  0  0  0  0  0  0  0  0  0
   56.3446    7.1576    5.2708 O   0  0  0  0  0  0  0  0  0  0  0  0
   54.3535    8.2281    5.5004 N   0  0  0  0  0  0  0  0  0  0  0  0
   53.1852    8.4900    6.1629 C   0  0  0  0  0  0  0  0  0  0  0  0
   52.3688    9.2973    5.7266 O   0  0  0  0  0  0  0  0  0  0  0  0
   53.0071    7.7965    7.3205 N   0  0  0  0  0  0  0  0  0  0  0  0
   55.9984    6.7533    8.1071 H   0  0  0  0  0  0  0  0  0  0  0  0
   54.0612   10.1130    6.4521 H   0  0  0  0  0  0  0  0  0  0  0  0
   52.1876    6.4932    6.4657 H   0  0  0  0  0  0  0  0  0  0  0  0
   55.7911    5.9306    7.5308 H   0  0  0  0  0  0  0  0  0  0  0  0
   54.5141    8.7246    4.6423 H   0  0  0  0  0  0  0  0  0  0  0  0
   52.1635    7.9317    7.8764 H   0  0  0  0  0  0  0  0  0  0  0  0
  1  2  1  0
  2  3  2  0
  2  4  1  0
  4  5  2  0
  5  6  1  0
  6  7  2  0
  6  8  1  0
  8  9  1  0
  9 10  2  0
  9 11  1  0
  4 11  1  0
 13 14  1  0
 14 15  2  0
 14 16  1  0
 16 17  2  0
 17 18  1  0
 18 19  2  0
 18 20  1  0
 20 21  1  0
 21 22  2  0
 21 23  1  0
 16 23  1  0
  5 24  1  0
  8 25  1  0
 11 26  1  0
 17 27  1  0
 20 28  1  0
 23 29  1  0
M  CHG  3   1  -1  12   2  13  -1
M  END
> <Uni-Dock RESULT> 
ENERGY=   -3.781  LOWER_BOUND=    9.832  UPPER_BOUND=   11.198
INTER + INTRA:          -3.781
INTER:                  -3.781
INTRA:                   0.000
UNBOUND:                 0.000

$$$$

     RDKit          3D

 29 28  0  0  0  0  0  0  0  0999 V2000
   44.0749   10.5242   12.2360 O   0  0  0  0  0  0  0  0  0  0  0  0
   43.9690    9.9587   11.1142 C   0  0  0  0  0  0  0  0  0  0  0  0
   43.9173    8.7275   10.8132 O   0  0  0  0  0  0  0  0  0  0  0  0
   43.8850   10.8964    9.8698 C   0  0  0  0  0  0  0  0  0  0  0  0
   43.9253   12.2268   10.0096 C   0  0  0  0  0  0  0  0  0  0  0  0
   43.8429   13.0728    8.8061 C   0  0  0  0  0  0  0  0  0  0  0  0
   43.8752   14.2982    8.8773 O   0  0  0  0  0  0  0  0  0  0  0  0
   43.7289   12.4170    7.6112 N   0  0  0  0  0  0  0  0  0  0  0  0
   43.6867   11.0581    7.4562 C   0  0  0  0  0  0  0  0  0  0  0  0
   43.5829   10.5432    6.3460 O   0  0  0  0  0  0  0  0  0  0  0  0
   43.7677   10.3402    8.6099 N   0  0  0  0  0  0  0  0  0  0  0  0
   43.8348   11.3624    9.1489 Mg  0  0  0  0  0 15  0  0  0  0  0  0
   42.4163   10.9824   12.0009 O   0  0  0  0  0  0  0  0  0  0  0  0
   42.1642   10.7503   10.7877 C   0  0  0  0  0  0  0  0  0  0  0  0
   41.1445   10.2288   10.2426 O   0  0  0  0  0  0  0  0  0  0  0  0
   43.2652   11.1586    9.7598 C   0  0  0  0  0  0  0  0  0  0  0  0
   44.4079   11.7236   10.1674 C   0  0  0  0  0  0  0  0  0  0  0  0
   45.4189   12.0927    9.1611 C   0  0  0  0  0  0  0  0  0  0  0  0
   46.4842   12.6135    9.4799 O   0  0  0  0  0  0  0  0  0  0  0  0
   45.1034   11.8227    7.8578 N   0  0  0  0  0  0  0  0  0  0  0  0
   43.9388   11.2457    7.4298 C   0  0  0  0  0  0  0  0  0  0  0  0
   43.7288   11.0351    6.2381 O   0  0  0  0  0  0  0  0  0  0  0  0
   43.0518   10.9316    8.4133 N   0  0  0  0  0  0  0  0  0  0  0  0
   44.0163   12.7138   10.9722 H   0  0  0  0  0  0  0  0  0  0  0  0
   43.6712   12.9745    6.7779 H   0  0  0  0  0  0  0  0  0  0  0  0
   43.7438    9.3215    8.5844 H   0  0  0  0  0  0  0  0  0  0  0  0
   44.6257   11.9235   11.2088 H   0  0  0  0  0  0  0  0  0  0  0  0
   45.7785   12.0663    7.1554 H   0  0  0  0  0  0  0  0  0  0  0  0
   42.1587   10.4983    8.1812 H   0  0  0  0  0  0  0  0  0  0  0  0
  1  2  1  0
  2  3  2  0
  2  4  1  0
  4  5  2  0
  5  6  1  0
  6  7  2  0
  6  8  1  0
  8  9  1  0
  9 10  2  0
  9 11  1  0
  4 11  1  0
 13 14  1  0
 14 15  2  0
 14 16  1  0
 16 17  2  0
 17 18  1  0
 18 19  2  0
 18 20  1  0
 20 21  1  0
 21 22  2  0
 21 23  1  0
 16 23  1  0
  5 24  1  0
  8 25  1  0
 11 26  1  0
 17 27  1  0
 20 28  1  0
 23 29  1  0
M  CHG  3   1  -1  12   2  13  -1
M  END
> <Uni-Dock RESULT> 
ENERGY=   -3.754  LOWER_BOUND=    6.377  UPPER_BOUND=    7.711
INTER + INTRA:          -3.754
INTER:                  -3.754
INTRA:                   0.000
UNBOUND:                 0.000

$$$$

     RDKit          3D

 29 28  0  0  0  0  0  0  0  0999 V2000
   44.2031   11.7258   10.0111 O   0  0  0  0  0  0  0  0  0  0  0  0
   43.1687   11.1610    9.5634 C   0  0  0  0  0  0  0  0  0  0  0  0
   42.9542   10.5984    8.4469 O   0  0  0  0  0  0  0  0  0  0  0  0
   41.9295   11.1305   10.5114 C   0  0  0  0  0  0  0  0  0  0  0  0
   41.9849   11.6808   11.7301 C   0  0  0  0  0  0  0  0  0  0  0  0
   40.7900   11.6281   12.5908 C   0  0  0  0  0  0  0  0  0  0  0  0
   40.7861   12.1170   13.7171 O   0  0  0  0  0  0  0  0  0  0  0  0
   39.6912   11.0063   12.0646 N   0  0  0  0  0  0  0  0  0  0  0  0
   39.6233   10.4405   10.8206 C   0  0  0  0  0  0  0  0  0  0  0  0
   38.5969    9.8987   10.4188 O   0  0  0  0  0  0  0  0  0  0  0  0
   40.7631   10.5263   10.0815 N   0  0  0  0  0  0  0  0  0  0  0  0
   41.2163   11.0835   10.9892 Mg  0  0  0  0  0 15  0  0  0  0  0  0
   44.3362   10.3398   11.0491 O   0  0  0  0  0  0  0  0  0  0  0  0
   43.2291    9.7422   10.9682 C   0  0  0  0  0  0  0  0  0  0  0  0
   42.9649    8.5052   10.8731 O   0  0  0  0  0  0  0  0  0  0  0  0
   41.9530   10.6403   10.9848 C   0  0  0  0  0  0  0  0  0  0  0  0
   42.0527   11.9714   11.0806 C   0  0  0  0  0  0  0  0  0  0  0  0
   40.8205   12.7793   11.0926 C   0  0  0  0  0  0  0  0  0  0  0  0
   40.8544   14.0037   11.1786 O   0  0  0  0  0  0  0  0  0  0  0  0
   39.6427   12.0895   11.0027 N   0  0  0  0  0  0  0  0  0  0  0  0
   39.5290   10.7294   10.9045 C   0  0  0  0  0  0  0  0  0  0  0  0
   38.4319   10.1826   10.8275 O   0  0  0  0  0  0  0  0  0  0  0  0
   40.7071   10.0479   10.8993 N   0  0  0  0  0  0  0  0  0  0  0  0
   42.8724   12.1661   12.1159 H   0  0  0  0  0  0  0  0  0  0  0  0
   38.8657   10.9591   12.6344 H   0  0  0  0  0  0  0  0  0  0  0  0
   40.7984   10.1305    9.1428 H   0  0  0  0  0  0  0  0  0  0  0  0
   43.0026   12.4860   11.1502 H   0  0  0  0  0  0  0  0  0  0  0  0
   38.7905   12.6207   11.0091 H   0  0  0  0  0  0  0  0  0  0  0  0
   40.7128    9.0310   10.8291 H   0  0  0  0  0  0  0  0  0  0  0  0
  1  2  1  0
  2  3  2  0
  2  4  1  0
  4  5  2  0
  5  6  1  0
  6  7  2  0
  6  8  1  0
  8  9  1  0
  9 10  2  0
  9 11  1  0
  4 11  1  0
 13 14  1  0
 14 15  2  0
 14 16  1  0
 16 17  2  0
 17 18  1  0
 18 19  2  0
 18 20  1  0
 20 21  1  0
 21 22  2  0
 21 23  1  0
 16 23  1  0
  5 24  1  0
  8 25  1  0
 11 26  1  0
 17 27  1  0
 20 28  1  0
 23 29  1  0
M  CHG  3   1  -1  12   2  13  -1
M  END
> <Uni-Dock RESULT> 
ENERGY=   -3.655  LOWER_BOUND=    6.007  UPPER_BOUND=    7.666
INTER + INTRA:          -3.655
INTER:                  -3.655
INTRA:                   0.000
UNBOUND:                 0.000

$$$$

     RDKit          3D

 29 28  0  0  0  0  0  0  0  0999 V2000
   41.0760   13.5919   13.9920 O   0  0  0  0  0  0  0  0  0  0  0  0
   40.2344   12.6546   14.0419 C   0  0  0  0  0  0  0  0  0  0  0  0
   39.5923   12.1746   15.0250 O   0  0  0  0  0  0  0  0  0  0  0  0
   39.9042   11.9460   12.6914 C   0  0  0  0  0  0  0  0  0  0  0  0
   40.4949   12.3295   11.5534 C   0  0  0  0  0  0  0  0  0  0  0  0
   40.1521   11.6314   10.3020 C   0  0  0  0  0  0  0  0  0  0  0  0
   40.6642   11.9426    9.2302 O   0  0  0  0  0  0  0  0  0  0  0  0
   39.2350   10.6216   10.4032 N   0  0  0  0  0  0  0  0  0  0  0  0
   38.6249   10.2211   11.5606 C   0  0  0  0  0  0  0  0  0  0  0  0
   37.8092    9.3029   11.5698 O   0  0  0  0  0  0  0  0  0  0  0  0
   38.9893   10.9100   12.6766 N   0  0  0  0  0  0  0  0  0  0  0  0
   39.6831   11.5192   11.9785 Mg  0  0  0  0  0 15  0  0  0  0  0  0
   39.8195   14.4852   13.1927 O   0  0  0  0  0  0  0  0  0  0  0  0
   38.9404   13.6373   12.8801 C   0  0  0  0  0  0  0  0  0  0  0  0
   37.6756   13.6949   12.9556 O   0  0  0  0  0  0  0  0  0  0  0  0
   39.4573   12.2831   12.3020 C   0  0  0  0  0  0  0  0  0  0  0  0
   40.7680   12.0561   12.1548 C   0  0  0  0  0  0  0  0  0  0  0  0
   41.2099   10.7627   11.6047 C   0  0  0  0  0  0  0  0  0  0  0  0
   42.3997   10.5022   11.4487 O   0  0  0  0  0  0  0  0  0  0  0  0
   40.2227    9.8734   11.2795 N   0  0  0  0  0  0  0  0  0  0  0  0
   38.8803   10.0947   11.4256 C   0  0  0  0  0  0  0  0  0  0  0  0
   38.0530    9.2436   11.1094 O   0  0  0  0  0  0  0  0  0  0  0  0
   38.5454   11.3099   11.9391 N   0  0  0  0  0  0  0  0  0  0  0  0
   41.2178   13.1342   11.5090 H   0  0  0  0  0  0  0  0  0  0  0  0
   38.9868   10.1323    9.5621 H   0  0  0  0  0  0  0  0  0  0  0  0
   38.5824   10.6758   13.5814 H   0  0  0  0  0  0  0  0  0  0  0  0
   41.5239   12.7833   12.4228 H   0  0  0  0  0  0  0  0  0  0  0  0
   40.5017    8.9853   10.9028 H   0  0  0  0  0  0  0  0  0  0  0  0
   37.5665   11.5564   12.0806 H   0  0  0  0  0  0  0  0  0  0  0  0
  1  2  1  0
  2  3  2  0
  2  4  1  0
  4  5  2  0
  5  6  1  0
  6  7  2  0
  6  8  1  0
  8  9  1  0
  9 10  2  0
  9 11  1  0
  4 11  1  0
 13 14  1  0
 14 15  2  0
 14 16  1  0
 16 17  2  0
 17 18  1  0
 18 19  2  0
 18 20  1  0
 20 21  1  0
 21 22  2  0
 21 23  1  0
 16 23  1  0
  5 24  1  0
  8 25  1  0
 11 26  1  0
 17 27  1  0
 20 28  1  0
 23 29  1  0
M  CHG  3   1  -1  12   2  13  -1
M  END
> <Uni-Dock RESULT> 
ENERGY=   -3.642  LOWER_BOUND=    6.962  UPPER_BOUND=    8.631
INTER + INTRA:          -3.642
INTER:                  -3.642
INTRA:                   0.000
UNBOUND:                 0.000

$$$$

     RDKit          3D

 29 28  0  0  0  0  0  0  0  0999 V2000
   48.2505    6.4168   18.2514 O   0  0  0  0  0  0  0  0  0  0  0  0
   47.4504    5.9623   19.1132 C   0  0  0  0  0  0  0  0  0  0  0  0
   46.2772    5.4973   18.9849 O   0  0  0  0  0  0  0  0  0  0  0  0
   47.9527    5.9552   20.5906 C   0  0  0  0  0  0  0  0  0  0  0  0
   49.1712    6.4122   20.9028 C   0  0  0  0  0  0  0  0  0  0  0  0
   49.6029    6.3861   22.3114 C   0  0  0  0  0  0  0  0  0  0  0  0
   50.7100    6.7928   22.6529 O   0  0  0  0  0  0  0  0  0  0  0  0
   48.7032    5.8850   23.2116 N   0  0  0  0  0  0  0  0  0  0  0  0
   47.4554    5.4152   22.9040 C   0  0  0  0  0  0  0  0  0  0  0  0
   46.7033    4.9797   23.7718 O   0  0  0  0  0  0  0  0  0  0  0  0
   47.1242    5.4698   21.5848 N   0  0  0  0  0  0  0  0  0  0  0  0
   48.1750    5.9266   21.4207 Mg  0  0  0  0  0 15  0  0  0  0  0  0
   49.1477    4.9548   18.5225 O   0  0  0  0  0  0  0  0  0  0  0  0
   48.6682    4.4468   19.5720 C   0  0  0  0  0  0  0  0  0  0  0  0
   48.3832    3.2423   19.8492 O   0  0  0  0  0  0  0  0  0  0  0  0
   48.3629    5.4322   20.7429 C   0  0  0  0  0  0  0  0  0  0  0  0
   48.6053    6.7424   20.6171 C   0  0  0  0  0  0  0  0  0  0  0  0
   48.3013    7.6352   21.7492 C   0  0  0  0  0  0  0  0  0  0  0  0
   48.5040    8.8447   21.6876 O   0  0  0  0  0  0  0  0  0  0  0  0
   47.7828    7.0413   22.8670 N   0  0  0  0  0  0  0  0  0  0  0  0
   47.5311    5.7036   23.0066 C   0  0  0  0  0  0  0  0  0  0  0  0
   47.0631    5.2452   24.0456 O   0  0  0  0  0  0  0  0  0  0  0  0
   47.8359    4.9399   21.9220 N   0  0  0  0  0  0  0  0  0  0  0  0
   49.8593    6.8028   20.1639 H   0  0  0  0  0  0  0  0  0  0  0  0
   48.9770    5.8579   24.1774 H   0  0  0  0  0  0  0  0  0  0  0  0
   46.2128    5.1400   21.2693 H   0  0  0  0  0  0  0  0  0  0  0  0
   49.0170    7.1800   19.7166 H   0  0  0  0  0  0  0  0  0  0  0  0
   47.5683    7.6316   23.6506 H   0  0  0  0  0  0  0  0  0  0  0  0
   47.6794    3.9329   21.9416 H   0  0  0  0  0  0  0  0  0  0  0  0
  1  2  1  0
  2  3  2  0
  2  4  1  0
  4  5  2  0
  5  6  1  0
  6  7  2  0
  6  8  1  0
  8  9  1  0
  9 10  2  0
  9 11  1  0
  4 11  1  0
 13 14  1  0
 14 15  2  0
 14 16  1  0
 16 17  2  0
 17 18  1  0
 18 19  2  0
 18 20  1  0
 20 21  1  0
 21 22  2  0
 21 23  1  0
 16 23  1  0
  5 24  1  0
  8 25  1  0
 11 26  1  0
 17 27  1  0
 20 28  1  0
 23 29  1  0
M  CHG  3   1  -1  12   2  13  -1
M  END
> <Uni-Dock RESULT> 
ENERGY=   -3.487  LOWER_BOUND=    8.446  UPPER_BOUND=   10.674
INTER + INTRA:          -3.487
INTER:                  -3.487
INTRA:                   0.000
UNBOUND:                 0.000

$$$$
