
     RDKit          3D

 29 28  0  0  0  0  0  0  0  0999 V2000
   44.8221    4.9928    8.7683 O   0  0  0  0  0  0  0  0  0  0  0  0
   44.8851    3.7690    9.0646 C   0  0  0  0  0  0  0  0  0  0  0  0
   44.3580    3.1240   10.0212 O   0  0  0  0  0  0  0  0  0  0  0  0
   45.7441    2.8701    8.1214 C   0  0  0  0  0  0  0  0  0  0  0  0
   46.3714    3.3922    7.0608 C   0  0  0  0  0  0  0  0  0  0  0  0
   47.1714    2.5052    6.1981 C   0  0  0  0  0  0  0  0  0  0  0  0
   47.7671    2.9316    5.2126 O   0  0  0  0  0  0  0  0  0  0  0  0
   47.2117    1.1859    6.5571 N   0  0  0  0  0  0  0  0  0  0  0  0
   46.5748    0.6414    7.6388 C   0  0  0  0  0  0  0  0  0  0  0  0
   46.6598   -0.5567    7.8956 O   0  0  0  0  0  0  0  0  0  0  0  0
   45.8548    1.5189    8.3900 N   0  0  0  0  0  0  0  0  0  0  0  0
   46.2028    2.3269    7.6379 Mg  0  0  0  0  0 15  0  0  0  0  0  0
   44.1927    2.4706   10.0165 O   0  0  0  0  0  0  0  0  0  0  0  0
   44.5691    3.2995    9.1332 C   0  0  0  0  0  0  0  0  0  0  0  0
   44.2288    4.4973    8.9355 O   0  0  0  0  0  0  0  0  0  0  0  0
   45.6248    2.7066    8.1487 C   0  0  0  0  0  0  0  0  0  0  0  0
   46.1282    3.4484    7.1551 C   0  0  0  0  0  0  0  0  0  0  0  0
   47.1228    2.8465    6.2498 C   0  0  0  0  0  0  0  0  0  0  0  0
   47.6166    3.4817    5.3223 O   0  0  0  0  0  0  0  0  0  0  0  0
   47.4622    1.5455    6.5015 N   0  0  0  0  0  0  0  0  0  0  0  0
   46.9541    0.7779    7.5139 C   0  0  0  0  0  0  0  0  0  0  0  0
   47.3103   -0.3865    7.6751 O   0  0  0  0  0  0  0  0  0  0  0  0
   46.0412    1.3986    8.3101 N   0  0  0  0  0  0  0  0  0  0  0  0
   46.3181    4.4428    6.8050 H   0  0  0  0  0  0  0  0  0  0  0  0
   47.7514    0.5635    5.9828 H   0  0  0  0  0  0  0  0  0  0  0  0
   45.3492    1.1961    9.2142 H   0  0  0  0  0  0  0  0  0  0  0  0
   45.8370    4.4770    6.9841 H   0  0  0  0  0  0  0  0  0  0  0  0
   48.1385    1.1155    5.8964 H   0  0  0  0  0  0  0  0  0  0  0  0
   45.6130    0.8985    9.0883 H   0  0  0  0  0  0  0  0  0  0  0  0
  1  2  1  0
  2  3  2  0
  2  4  1  0
  4  5  2  0
  5  6  1  0
  6  7  2  0
  6  8  1  0
  8  9  1  0
  9 10  2  0
  9 11  1  0
  4 11  1  0
 13 14  1  0
 14 15  2  0
 14 16  1  0
 16 17  2  0
 17 18  1  0
 18 19  2  0
 18 20  1  0
 20 21  1  0
 21 22  2  0
 21 23  1  0
 16 23  1  0
  5 24  1  0
  8 25  1  0
 11 26  1  0
 17 27  1  0
 20 28  1  0
 23 29  1  0
M  CHG  3   1  -1  12   2  13  -1
M  END
> <Uni-Dock RESULT> 
ENERGY=   -9.250  LOWER_BOUND=    0.000  UPPER_BOUND=    0.000
INTER + INTRA:          -9.250
INTER:                  -9.250
INTRA:                   0.000
UNBOUND:                 0.000

$$$$

     RDKit          3D

 29 28  0  0  0  0  0  0  0  0999 V2000
   46.7488    6.2028   13.6962 O   0  0  0  0  0  0  0  0  0  0  0  0
   46.5153    4.9788   13.5048 C   0  0  0  0  0  0  0  0  0  0  0  0
   47.2278    3.9565   13.7422 O   0  0  0  0  0  0  0  0  0  0  0  0
   45.1323    4.6267   12.8734 C   0  0  0  0  0  0  0  0  0  0  0  0
   44.2567    5.5891   12.5600 C   0  0  0  0  0  0  0  0  0  0  0  0
   42.9629    5.2096   11.9658 C   0  0  0  0  0  0  0  0  0  0  0  0
   42.1235    6.0518   11.6595 O   0  0  0  0  0  0  0  0  0  0  0  0
   42.7526    3.8714   11.7761 N   0  0  0  0  0  0  0  0  0  0  0  0
   43.6401    2.8792   12.0925 C   0  0  0  0  0  0  0  0  0  0  0  0
   43.3768    1.6966   11.8910 O   0  0  0  0  0  0  0  0  0  0  0  0
   44.8133    3.3028   12.6372 N   0  0  0  0  0  0  0  0  0  0  0  0
   44.3867    4.3732   12.5283 Mg  0  0  0  0  0 15  0  0  0  0  0  0
   47.0006    3.3357   13.8736 O   0  0  0  0  0  0  0  0  0  0  0  0
   46.4590    4.4781   13.7715 C   0  0  0  0  0  0  0  0  0  0  0  0
   46.8300    5.6025   14.2046 O   0  0  0  0  0  0  0  0  0  0  0  0
   45.1177    4.4497   12.9744 C   0  0  0  0  0  0  0  0  0  0  0  0
   44.4156    5.5713   12.7736 C   0  0  0  0  0  0  0  0  0  0  0  0
   43.1546    5.4965   12.0151 C   0  0  0  0  0  0  0  0  0  0  0  0
   42.4715    6.4943   11.8019 O   0  0  0  0  0  0  0  0  0  0  0  0
   42.7912    4.2572   11.5645 N   0  0  0  0  0  0  0  0  0  0  0  0
   43.5008    3.1044   11.7638 C   0  0  0  0  0  0  0  0  0  0  0  0
   43.1070    2.0264   11.3261 O   0  0  0  0  0  0  0  0  0  0  0  0
   44.6542    3.2485   12.4720 N   0  0  0  0  0  0  0  0  0  0  0  0
   44.4557    6.6406   12.7239 H   0  0  0  0  0  0  0  0  0  0  0  0
   41.8771    3.5905   11.3722 H   0  0  0  0  0  0  0  0  0  0  0  0
   45.5305    2.6285   12.9020 H   0  0  0  0  0  0  0  0  0  0  0  0
   44.7329    6.5375   13.1449 H   0  0  0  0  0  0  0  0  0  0  0  0
   41.9349    4.1835   11.0450 H   0  0  0  0  0  0  0  0  0  0  0  0
   45.2434    2.4395   12.6656 H   0  0  0  0  0  0  0  0  0  0  0  0
  1  2  1  0
  2  3  2  0
  2  4  1  0
  4  5  2  0
  5  6  1  0
  6  7  2  0
  6  8  1  0
  8  9  1  0
  9 10  2  0
  9 11  1  0
  4 11  1  0
 13 14  1  0
 14 15  2  0
 14 16  1  0
 16 17  2  0
 17 18  1  0
 18 19  2  0
 18 20  1  0
 20 21  1  0
 21 22  2  0
 21 23  1  0
 16 23  1  0
  5 24  1  0
  8 25  1  0
 11 26  1  0
 17 27  1  0
 20 28  1  0
 23 29  1  0
M  CHG  3   1  -1  12   2  13  -1
M  END
> <Uni-Dock RESULT> 
ENERGY=   -7.152  LOWER_BOUND=    5.357  UPPER_BOUND=    6.224
INTER + INTRA:          -7.152
INTER:                  -7.152
INTRA:                   0.000
UNBOUND:                 0.000

$$$$

     RDKit          3D

 29 28  0  0  0  0  0  0  0  0999 V2000
   45.1859    1.8606    9.4985 O   0  0  0  0  0  0  0  0  0  0  0  0
   44.8196    3.0360    9.2271 C   0  0  0  0  0  0  0  0  0  0  0  0
   44.8910    3.6925    8.1441 O   0  0  0  0  0  0  0  0  0  0  0  0
   44.1673    3.8456   10.3909 C   0  0  0  0  0  0  0  0  0  0  0  0
   44.0151    3.3010   11.6038 C   0  0  0  0  0  0  0  0  0  0  0  0
   43.3938    4.1030   12.6724 C   0  0  0  0  0  0  0  0  0  0  0  0
   43.2301    3.6526   13.8029 O   0  0  0  0  0  0  0  0  0  0  0  0
   43.0121    5.3720   12.3333 N   0  0  0  0  0  0  0  0  0  0  0  0
   43.1627    5.9389   11.0972 C   0  0  0  0  0  0  0  0  0  0  0  0
   42.7932    7.0881   10.8705 O   0  0  0  0  0  0  0  0  0  0  0  0
   43.7435    5.1407   10.1601 N   0  0  0  0  0  0  0  0  0  0  0  0
   43.8017    4.3389   10.9928 Mg  0  0  0  0  0 15  0  0  0  0  0  0
   44.4784    4.1902    7.9532 O   0  0  0  0  0  0  0  0  0  0  0  0
   44.4704    3.3394    8.8940 C   0  0  0  0  0  0  0  0  0  0  0  0
   44.7478    2.1095    8.8891 O   0  0  0  0  0  0  0  0  0  0  0  0
   44.0432    3.9487   10.2657 C   0  0  0  0  0  0  0  0  0  0  0  0
   43.9816    3.1875   11.3647 C   0  0  0  0  0  0  0  0  0  0  0  0
   43.5731    3.8061   12.6381 C   0  0  0  0  0  0  0  0  0  0  0  0
   43.4999    3.1543   13.6761 O   0  0  0  0  0  0  0  0  0  0  0  0
   43.2818    5.1419   12.5968 N   0  0  0  0  0  0  0  0  0  0  0  0
   43.3412    5.9296   11.4795 C   0  0  0  0  0  0  0  0  0  0  0  0
   43.0633    7.1252   11.5235 O   0  0  0  0  0  0  0  0  0  0  0  0
   43.7257    5.2918   10.3402 N   0  0  0  0  0  0  0  0  0  0  0  0
   44.3290    2.2918   11.8384 H   0  0  0  0  0  0  0  0  0  0  0  0
   42.5863    5.9363   13.0467 H   0  0  0  0  0  0  0  0  0  0  0  0
   43.8934    5.4853    9.2125 H   0  0  0  0  0  0  0  0  0  0  0  0
   44.2195    2.1314   11.3620 H   0  0  0  0  0  0  0  0  0  0  0  0
   43.0011    5.5837   13.4538 H   0  0  0  0  0  0  0  0  0  0  0  0
   43.7962    5.8050    9.4622 H   0  0  0  0  0  0  0  0  0  0  0  0
  1  2  1  0
  2  3  2  0
  2  4  1  0
  4  5  2  0
  5  6  1  0
  6  7  2  0
  6  8  1  0
  8  9  1  0
  9 10  2  0
  9 11  1  0
  4 11  1  0
 13 14  1  0
 14 15  2  0
 14 16  1  0
 16 17  2  0
 17 18  1  0
 18 19  2  0
 18 20  1  0
 20 21  1  0
 21 22  2  0
 21 23  1  0
 16 23  1  0
  5 24  1  0
  8 25  1  0
 11 26  1  0
 17 27  1  0
 20 28  1  0
 23 29  1  0
M  CHG  3   1  -1  12   2  13  -1
M  END
> <Uni-Dock RESULT> 
ENERGY=   -6.521  LOWER_BOUND=    3.481  UPPER_BOUND=    6.150
INTER + INTRA:          -6.521
INTER:                  -6.521
INTRA:                   0.000
UNBOUND:                 0.000

$$$$
