
     RDKit          3D

 29 28  0  0  0  0  0  0  0  0999 V2000
   45.5963    4.4680    7.6110 O   0  0  0  0  0  0  0  0  0  0  0  0
   45.3780    3.4447    8.3144 C   0  0  0  0  0  0  0  0  0  0  0  0
   45.7122    2.2342    8.1349 O   0  0  0  0  0  0  0  0  0  0  0  0
   44.5664    3.6664    9.6287 C   0  0  0  0  0  0  0  0  0  0  0  0
   44.1352    4.8862    9.9707 C   0  0  0  0  0  0  0  0  0  0  0  0
   43.3724    5.0480   11.2209 C   0  0  0  0  0  0  0  0  0  0  0  0
   42.9535    6.1442   11.5821 O   0  0  0  0  0  0  0  0  0  0  0  0
   43.1594    3.9118   11.9520 N   0  0  0  0  0  0  0  0  0  0  0  0
   43.5953    2.6599   11.6122 C   0  0  0  0  0  0  0  0  0  0  0  0
   43.3630    1.6861   12.3237 O   0  0  0  0  0  0  0  0  0  0  0  0
   44.2926    2.5856   10.4456 N   0  0  0  0  0  0  0  0  0  0  0  0
   44.1244    3.7279   10.3636 Mg  0  0  0  0  0 15  0  0  0  0  0  0
   45.5967    3.8133    7.6170 O   0  0  0  0  0  0  0  0  0  0  0  0
   45.4035    2.9061    8.4821 C   0  0  0  0  0  0  0  0  0  0  0  0
   45.7658    1.6987    8.4984 O   0  0  0  0  0  0  0  0  0  0  0  0
   44.5804    3.4001    9.7125 C   0  0  0  0  0  0  0  0  0  0  0  0
   44.2865    2.5688   10.7193 C   0  0  0  0  0  0  0  0  0  0  0  0
   43.5069    3.0793   11.8606 C   0  0  0  0  0  0  0  0  0  0  0  0
   43.2098    2.3601   12.8104 O   0  0  0  0  0  0  0  0  0  0  0  0
   43.1353    4.3943   11.8008 N   0  0  0  0  0  0  0  0  0  0  0  0
   43.4300    5.2531   10.7771 C   0  0  0  0  0  0  0  0  0  0  0  0
   43.0595    6.4239   10.7968 O   0  0  0  0  0  0  0  0  0  0  0  0
   44.1522    4.7135    9.7573 N   0  0  0  0  0  0  0  0  0  0  0  0
   44.3219    5.7659    9.3676 H   0  0  0  0  0  0  0  0  0  0  0  0
   42.6416    3.9992   12.8079 H   0  0  0  0  0  0  0  0  0  0  0  0
   44.6537    1.6903   10.1184 H   0  0  0  0  0  0  0  0  0  0  0  0
   44.5969    1.5317   10.7346 H   0  0  0  0  0  0  0  0  0  0  0  0
   42.6032    4.7631   12.5685 H   0  0  0  0  0  0  0  0  0  0  0  0
   44.4147    5.2844    8.9547 H   0  0  0  0  0  0  0  0  0  0  0  0
  1  2  1  0
  2  3  2  0
  2  4  1  0
  4  5  2  0
  5  6  1  0
  6  7  2  0
  6  8  1  0
  8  9  1  0
  9 10  2  0
  9 11  1  0
  4 11  1  0
 13 14  1  0
 14 15  2  0
 14 16  1  0
 16 17  2  0
 17 18  1  0
 18 19  2  0
 18 20  1  0
 20 21  1  0
 21 22  2  0
 21 23  1  0
 16 23  1  0
  5 24  1  0
  8 25  1  0
 11 26  1  0
 17 27  1  0
 20 28  1  0
 23 29  1  0
M  CHG  3   1  -1  12   2  13  -1
M  END
> <Uni-Dock RESULT> 
ENERGY=   -6.727  LOWER_BOUND=    0.000  UPPER_BOUND=    0.000
INTER + INTRA:          -6.727
INTER:                  -6.727
INTRA:                   0.000
UNBOUND:                 0.000

$$$$

     RDKit          3D

 29 28  0  0  0  0  0  0  0  0999 V2000
   46.5993    6.2384   13.9520 O   0  0  0  0  0  0  0  0  0  0  0  0
   46.4443    5.0310   13.6236 C   0  0  0  0  0  0  0  0  0  0  0  0
   47.1986    4.0261   13.7970 O   0  0  0  0  0  0  0  0  0  0  0  0
   45.1182    4.6790   12.8801 C   0  0  0  0  0  0  0  0  0  0  0  0
   44.2086    5.6244   12.6158 C   0  0  0  0  0  0  0  0  0  0  0  0
   42.9711    5.2457   11.9115 C   0  0  0  0  0  0  0  0  0  0  0  0
   42.1037    6.0727   11.6442 O   0  0  0  0  0  0  0  0  0  0  0  0
   42.8452    3.9260   11.5747 N   0  0  0  0  0  0  0  0  0  0  0  0
   43.7683    2.9512   11.8397 C   0  0  0  0  0  0  0  0  0  0  0  0
   43.5818    1.7845   11.5039 O   0  0  0  0  0  0  0  0  0  0  0  0
   44.8858    3.3729   12.4922 N   0  0  0  0  0  0  0  0  0  0  0  0
   44.4070    4.4264   12.4682 Mg  0  0  0  0  0 15  0  0  0  0  0  0
   46.9019    5.6637   13.8695 O   0  0  0  0  0  0  0  0  0  0  0  0
   46.5522    4.4782   13.5848 C   0  0  0  0  0  0  0  0  0  0  0  0
   47.1355    3.3798   13.7914 O   0  0  0  0  0  0  0  0  0  0  0  0
   45.1709    4.4051   12.8623 C   0  0  0  0  0  0  0  0  0  0  0  0
   44.6528    3.2283   12.4910 C   0  0  0  0  0  0  0  0  0  0  0  0
   43.3456    3.2078   11.8115 C   0  0  0  0  0  0  0  0  0  0  0  0
   42.8245    2.1565   11.4496 O   0  0  0  0  0  0  0  0  0  0  0  0
   42.7492    4.4219   11.6082 N   0  0  0  0  0  0  0  0  0  0  0  0
   43.2694    5.6306   11.9834 C   0  0  0  0  0  0  0  0  0  0  0  0
   42.6710    6.6808   11.7649 O   0  0  0  0  0  0  0  0  0  0  0  0
   44.4787    5.5735   12.6054 N   0  0  0  0  0  0  0  0  0  0  0  0
   44.3404    6.6616   12.8972 H   0  0  0  0  0  0  0  0  0  0  0  0
   42.0093    3.6459   11.0939 H   0  0  0  0  0  0  0  0  0  0  0  0
   45.6241    2.7109   12.7285 H   0  0  0  0  0  0  0  0  0  0  0  0
   45.1525    2.2844   12.6677 H   0  0  0  0  0  0  0  0  0  0  0  0
   41.8574    4.4310   11.1467 H   0  0  0  0  0  0  0  0  0  0  0  0
   44.9373    6.4286   12.9178 H   0  0  0  0  0  0  0  0  0  0  0  0
  1  2  1  0
  2  3  2  0
  2  4  1  0
  4  5  2  0
  5  6  1  0
  6  7  2  0
  6  8  1  0
  8  9  1  0
  9 10  2  0
  9 11  1  0
  4 11  1  0
 13 14  1  0
 14 15  2  0
 14 16  1  0
 16 17  2  0
 17 18  1  0
 18 19  2  0
 18 20  1  0
 20 21  1  0
 21 22  2  0
 21 23  1  0
 16 23  1  0
  5 24  1  0
  8 25  1  0
 11 26  1  0
 17 27  1  0
 20 28  1  0
 23 29  1  0
M  CHG  3   1  -1  12   2  13  -1
M  END
> <Uni-Dock RESULT> 
ENERGY=   -6.552  LOWER_BOUND=    2.553  UPPER_BOUND=    3.499
INTER + INTRA:          -6.552
INTER:                  -6.552
INTRA:                   0.000
UNBOUND:                 0.000

$$$$

     RDKit          3D

 29 28  0  0  0  0  0  0  0  0999 V2000
   47.1498    3.3616   13.8320 O   0  0  0  0  0  0  0  0  0  0  0  0
   46.5479    4.4572   13.6677 C   0  0  0  0  0  0  0  0  0  0  0  0
   46.8711    5.6349   14.0107 O   0  0  0  0  0  0  0  0  0  0  0  0
   45.1774    4.3913   12.9243 C   0  0  0  0  0  0  0  0  0  0  0  0
   44.6868    3.2233   12.4930 C   0  0  0  0  0  0  0  0  0  0  0  0
   43.3888    3.2093   11.7960 C   0  0  0  0  0  0  0  0  0  0  0  0
   42.8929    2.1659   11.3798 O   0  0  0  0  0  0  0  0  0  0  0  0
   42.7718    4.4200   11.6401 N   0  0  0  0  0  0  0  0  0  0  0  0
   43.2638    5.6199   12.0767 C   0  0  0  0  0  0  0  0  0  0  0  0
   42.6480    6.6675   11.8980 O   0  0  0  0  0  0  0  0  0  0  0  0
   44.4661    5.5571   12.7115 N   0  0  0  0  0  0  0  0  0  0  0  0
   44.4184    4.4163   12.5214 Mg  0  0  0  0  0 15  0  0  0  0  0  0
   47.1172    3.9873   14.0217 O   0  0  0  0  0  0  0  0  0  0  0  0
   46.4568    5.0143   13.6782 C   0  0  0  0  0  0  0  0  0  0  0  0
   46.7011    6.2397   13.8462 O   0  0  0  0  0  0  0  0  0  0  0  0
   45.1332    4.6673   12.9280 C   0  0  0  0  0  0  0  0  0  0  0  0
   44.3163    5.6350   12.4954 C   0  0  0  0  0  0  0  0  0  0  0  0
   43.0771    5.2601   11.7920 C   0  0  0  0  0  0  0  0  0  0  0  0
   42.2925    6.1072   11.3742 O   0  0  0  0  0  0  0  0  0  0  0  0
   42.8527    3.9203   11.6321 N   0  0  0  0  0  0  0  0  0  0  0  0
   43.6805    2.9226   12.0700 C   0  0  0  0  0  0  0  0  0  0  0  0
   43.4086    1.7388   11.8875 O   0  0  0  0  0  0  0  0  0  0  0  0
   44.8056    3.3422   12.7108 N   0  0  0  0  0  0  0  0  0  0  0  0
   45.2026    2.2817   12.6334 H   0  0  0  0  0  0  0  0  0  0  0  0
   41.8858    4.4335   11.1676 H   0  0  0  0  0  0  0  0  0  0  0  0
   44.9042    6.4055   13.0684 H   0  0  0  0  0  0  0  0  0  0  0  0
   44.5247    6.6877   12.6390 H   0  0  0  0  0  0  0  0  0  0  0  0
   42.0138    3.6424   11.1552 H   0  0  0  0  0  0  0  0  0  0  0  0
   45.4767    2.6637   13.0692 H   0  0  0  0  0  0  0  0  0  0  0  0
  1  2  1  0
  2  3  2  0
  2  4  1  0
  4  5  2  0
  5  6  1  0
  6  7  2  0
  6  8  1  0
  8  9  1  0
  9 10  2  0
  9 11  1  0
  4 11  1  0
 13 14  1  0
 14 15  2  0
 14 16  1  0
 16 17  2  0
 17 18  1  0
 18 19  2  0
 18 20  1  0
 20 21  1  0
 21 22  2  0
 21 23  1  0
 16 23  1  0
  5 24  1  0
  8 25  1  0
 11 26  1  0
 17 27  1  0
 20 28  1  0
 23 29  1  0
M  CHG  3   1  -1  12   2  13  -1
M  END
> <Uni-Dock RESULT> 
ENERGY=   -6.545  LOWER_BOUND=    2.619  UPPER_BOUND=    4.326
INTER + INTRA:          -6.545
INTER:                  -6.545
INTRA:                   0.000
UNBOUND:                 0.000

$$$$

     RDKit          3D

 29 28  0  0  0  0  0  0  0  0999 V2000
   46.5183    6.4997   13.9931 O   0  0  0  0  0  0  0  0  0  0  0  0
   46.4191    5.2834   13.6765 C   0  0  0  0  0  0  0  0  0  0  0  0
   47.2164    4.3148   13.8645 O   0  0  0  0  0  0  0  0  0  0  0  0
   45.1145    4.8650   12.9295 C   0  0  0  0  0  0  0  0  0  0  0  0
   44.1652    5.7661   12.6505 C   0  0  0  0  0  0  0  0  0  0  0  0
   42.9500    5.3254   11.9434 C   0  0  0  0  0  0  0  0  0  0  0  0
   42.0482    6.1102   11.6627 O   0  0  0  0  0  0  0  0  0  0  0  0
   42.8850    3.9981   11.6198 N   0  0  0  0  0  0  0  0  0  0  0  0
   43.8490    3.0681   11.8999 C   0  0  0  0  0  0  0  0  0  0  0  0
   43.7166    1.8910   11.5753 O   0  0  0  0  0  0  0  0  0  0  0  0
   44.9428    3.5459   12.5541 N   0  0  0  0  0  0  0  0  0  0  0  0
   44.4177    4.5768   12.5164 Mg  0  0  0  0  0 15  0  0  0  0  0  0
   46.8466    5.9383   13.9183 O   0  0  0  0  0  0  0  0  0  0  0  0
   46.5518    4.7355   13.6441 C   0  0  0  0  0  0  0  0  0  0  0  0
   47.1822    3.6663   13.8653 O   0  0  0  0  0  0  0  0  0  0  0  0
   45.1794    4.5935   12.9149 C   0  0  0  0  0  0  0  0  0  0  0  0
   44.7164    3.3911   12.5531 C   0  0  0  0  0  0  0  0  0  0  0  0
   43.4155    3.3054   11.8667 C   0  0  0  0  0  0  0  0  0  0  0  0
   42.9439    2.2282   11.5130 O   0  0  0  0  0  0  0  0  0  0  0  0
   42.7668    4.4895   11.6475 N   0  0  0  0  0  0  0  0  0  0  0  0
   43.2304    5.7240   12.0129 C   0  0  0  0  0  0  0  0  0  0  0  0
   42.5872    6.7442   11.7802 O   0  0  0  0  0  0  0  0  0  0  0  0
   44.4374    5.7272   12.6420 N   0  0  0  0  0  0  0  0  0  0  0  0
   44.2490    6.8110   12.9217 H   0  0  0  0  0  0  0  0  0  0  0  0
   42.0652    3.6761   11.1373 H   0  0  0  0  0  0  0  0  0  0  0  0
   45.7084    2.9200   12.8013 H   0  0  0  0  0  0  0  0  0  0  0  0
   45.2566    2.4722   12.7423 H   0  0  0  0  0  0  0  0  0  0  0  0
   41.8782    4.4542   11.1811 H   0  0  0  0  0  0  0  0  0  0  0  0
   44.8556    6.6051   12.9479 H   0  0  0  0  0  0  0  0  0  0  0  0
  1  2  1  0
  2  3  2  0
  2  4  1  0
  4  5  2  0
  5  6  1  0
  6  7  2  0
  6  8  1  0
  8  9  1  0
  9 10  2  0
  9 11  1  0
  4 11  1  0
 13 14  1  0
 14 15  2  0
 14 16  1  0
 16 17  2  0
 17 18  1  0
 18 19  2  0
 18 20  1  0
 20 21  1  0
 21 22  2  0
 21 23  1  0
 16 23  1  0
  5 24  1  0
  8 25  1  0
 11 26  1  0
 17 27  1  0
 20 28  1  0
 23 29  1  0
M  CHG  3   1  -1  12   2  13  -1
M  END
> <Uni-Dock RESULT> 
ENERGY=   -6.373  LOWER_BOUND=    2.558  UPPER_BOUND=    3.585
INTER + INTRA:          -6.373
INTER:                  -6.373
INTRA:                   0.000
UNBOUND:                 0.000

$$$$

     RDKit          3D

 29 28  0  0  0  0  0  0  0  0999 V2000
   44.0283    3.4190    8.8025 O   0  0  0  0  0  0  0  0  0  0  0  0
   44.8983    4.2890    9.0776 C   0  0  0  0  0  0  0  0  0  0  0  0
   45.9155    4.6731    8.4242 O   0  0  0  0  0  0  0  0  0  0  0  0
   44.7271    5.0357   10.4371 C   0  0  0  0  0  0  0  0  0  0  0  0
   43.7039    4.7513   11.2514 C   0  0  0  0  0  0  0  0  0  0  0  0
   43.5826    5.4818   12.5252 C   0  0  0  0  0  0  0  0  0  0  0  0
   42.6637    5.2606   13.3092 O   0  0  0  0  0  0  0  0  0  0  0  0
   44.5479    6.4161   12.7823 N   0  0  0  0  0  0  0  0  0  0  0  0
   45.5981    6.7150   11.9574 C   0  0  0  0  0  0  0  0  0  0  0  0
   46.4265    7.5699   12.2599 O   0  0  0  0  0  0  0  0  0  0  0  0
   45.6468    6.0018   10.7992 N   0  0  0  0  0  0  0  0  0  0  0  0
   44.6840    5.4790   11.1725 Mg  0  0  0  0  0 15  0  0  0  0  0  0
   44.6230    3.6468    8.6510 O   0  0  0  0  0  0  0  0  0  0  0  0
   45.3459    4.6260    9.0079 C   0  0  0  0  0  0  0  0  0  0  0  0
   46.3110    5.1882    8.4232 O   0  0  0  0  0  0  0  0  0  0  0  0
   44.9478    5.2036   10.4019 C   0  0  0  0  0  0  0  0  0  0  0  0
   45.6096    6.2407   10.9288 C   0  0  0  0  0  0  0  0  0  0  0  0
   45.1985    6.7525   12.2478 C   0  0  0  0  0  0  0  0  0  0  0  0
   45.7709    7.7012   12.7772 O   0  0  0  0  0  0  0  0  0  0  0  0
   44.1475    6.1128   12.8454 N   0  0  0  0  0  0  0  0  0  0  0  0
   43.4638    5.0522   12.3163 C   0  0  0  0  0  0  0  0  0  0  0  0
   42.5277    4.5303   12.9163 O   0  0  0  0  0  0  0  0  0  0  0  0
   43.8978    4.6329   11.0963 N   0  0  0  0  0  0  0  0  0  0  0  0
   42.9561    4.0044   11.0165 H   0  0  0  0  0  0  0  0  0  0  0  0
   44.4845    6.9258   13.6451 H   0  0  0  0  0  0  0  0  0  0  0  0
   46.3969    6.1620   10.1278 H   0  0  0  0  0  0  0  0  0  0  0  0
   46.4386    6.7244   10.4278 H   0  0  0  0  0  0  0  0  0  0  0  0
   43.8507    6.4456   13.7452 H   0  0  0  0  0  0  0  0  0  0  0  0
   43.4436    3.8481   10.6306 H   0  0  0  0  0  0  0  0  0  0  0  0
  1  2  1  0
  2  3  2  0
  2  4  1  0
  4  5  2  0
  5  6  1  0
  6  7  2  0
  6  8  1  0
  8  9  1  0
  9 10  2  0
  9 11  1  0
  4 11  1  0
 13 14  1  0
 14 15  2  0
 14 16  1  0
 16 17  2  0
 17 18  1  0
 18 19  2  0
 18 20  1  0
 20 21  1  0
 21 22  2  0
 21 23  1  0
 16 23  1  0
  5 24  1  0
  8 25  1  0
 11 26  1  0
 17 27  1  0
 20 28  1  0
 23 29  1  0
M  CHG  3   1  -1  12   2  13  -1
M  END
> <Uni-Dock RESULT> 
ENERGY=   -5.920  LOWER_BOUND=    2.017  UPPER_BOUND=    3.093
INTER + INTRA:          -5.920
INTER:                  -5.920
INTRA:                   0.000
UNBOUND:                 0.000

$$$$

     RDKit          3D

 29 28  0  0  0  0  0  0  0  0999 V2000
   42.4528    6.7274   11.3618 O   0  0  0  0  0  0  0  0  0  0  0  0
   42.9575    5.6480   11.7737 C   0  0  0  0  0  0  0  0  0  0  0  0
   42.4973    4.4660   11.7633 O   0  0  0  0  0  0  0  0  0  0  0  0
   44.3809    5.7443   12.4059 C   0  0  0  0  0  0  0  0  0  0  0  0
   45.0131    6.9205   12.4956 C   0  0  0  0  0  0  0  0  0  0  0  0
   46.3561    6.9635   13.1002 C   0  0  0  0  0  0  0  0  0  0  0  0
   46.9805    8.0154   13.2073 O   0  0  0  0  0  0  0  0  0  0  0  0
   46.8642    5.7696   13.5328 N   0  0  0  0  0  0  0  0  0  0  0  0
   46.2272    4.5616   13.4463 C   0  0  0  0  0  0  0  0  0  0  0  0
   46.7514    3.5303   13.8589 O   0  0  0  0  0  0  0  0  0  0  0  0
   44.9913    4.5973   12.8772 N   0  0  0  0  0  0  0  0  0  0  0  0
   45.1628    5.7364   12.7634 Mg  0  0  0  0  0 15  0  0  0  0  0  0
   42.3267    6.1055   11.5228 O   0  0  0  0  0  0  0  0  0  0  0  0
   43.0087    5.0940   11.8698 C   0  0  0  0  0  0  0  0  0  0  0  0
   42.7357    3.8643   11.8171 O   0  0  0  0  0  0  0  0  0  0  0  0
   44.4069    5.4699   12.4520 C   0  0  0  0  0  0  0  0  0  0  0  0
   45.2545    4.5210   12.8670 C   0  0  0  0  0  0  0  0  0  0  0  0
   46.5641    4.9229   13.4097 C   0  0  0  0  0  0  0  0  0  0  0  0
   47.3793    4.0938   13.8044 O   0  0  0  0  0  0  0  0  0  0  0  0
   46.8176    6.2665   13.4480 N   0  0  0  0  0  0  0  0  0  0  0  0
   45.9590    7.2450   13.0267 C   0  0  0  0  0  0  0  0  0  0  0  0
   46.2606    8.4338   13.0937 O   0  0  0  0  0  0  0  0  0  0  0  0
   44.7689    6.8011   12.5377 N   0  0  0  0  0  0  0  0  0  0  0  0
   44.5809    7.8483   12.1424 H   0  0  0  0  0  0  0  0  0  0  0  0
   47.7784    5.7759   13.9483 H   0  0  0  0  0  0  0  0  0  0  0  0
   44.4477    3.7413   12.7739 H   0  0  0  0  0  0  0  0  0  0  0  0
   45.0215    3.4647   12.8224 H   0  0  0  0  0  0  0  0  0  0  0  0
   47.7045    6.5626   13.8142 H   0  0  0  0  0  0  0  0  0  0  0  0
   44.0711    7.4642   12.2023 H   0  0  0  0  0  0  0  0  0  0  0  0
  1  2  1  0
  2  3  2  0
  2  4  1  0
  4  5  2  0
  5  6  1  0
  6  7  2  0
  6  8  1  0
  8  9  1  0
  9 10  2  0
  9 11  1  0
  4 11  1  0
 13 14  1  0
 14 15  2  0
 14 16  1  0
 16 17  2  0
 17 18  1  0
 18 19  2  0
 18 20  1  0
 20 21  1  0
 21 22  2  0
 21 23  1  0
 16 23  1  0
  5 24  1  0
  8 25  1  0
 11 26  1  0
 17 27  1  0
 20 28  1  0
 23 29  1  0
M  CHG  3   1  -1  12   2  13  -1
M  END
> <Uni-Dock RESULT> 
ENERGY=   -5.801  LOWER_BOUND=    3.246  UPPER_BOUND=    4.259
INTER + INTRA:          -5.801
INTER:                  -5.801
INTRA:                   0.000
UNBOUND:                 0.000

$$$$

     RDKit          3D

 29 28  0  0  0  0  0  0  0  0999 V2000
   42.7536    3.6586   11.8694 O   0  0  0  0  0  0  0  0  0  0  0  0
   43.0749    4.8768   11.8230 C   0  0  0  0  0  0  0  0  0  0  0  0
   42.4537    5.8758   11.3483 O   0  0  0  0  0  0  0  0  0  0  0  0
   44.4569    5.2540   12.4418 C   0  0  0  0  0  0  0  0  0  0  0  0
   45.2424    4.3177   12.9871 C   0  0  0  0  0  0  0  0  0  0  0  0
   46.5391    4.7202   13.5594 C   0  0  0  0  0  0  0  0  0  0  0  0
   47.2983    3.9023   14.0718 O   0  0  0  0  0  0  0  0  0  0  0  0
   46.8463    6.0510   13.4873 N   0  0  0  0  0  0  0  0  0  0  0  0
   46.0513    7.0167   12.9324 C   0  0  0  0  0  0  0  0  0  0  0  0
   46.3986    8.1946   12.9058 O   0  0  0  0  0  0  0  0  0  0  0  0
   44.8695    6.5730   12.4236 N   0  0  0  0  0  0  0  0  0  0  0  0
   45.2068    5.5204   12.7672 Mg  0  0  0  0  0 15  0  0  0  0  0  0
   42.6209    4.2362   11.5914 O   0  0  0  0  0  0  0  0  0  0  0  0
   43.0252    5.4309   11.7262 C   0  0  0  0  0  0  0  0  0  0  0  0
   42.4780    6.5218   11.4101 O   0  0  0  0  0  0  0  0  0  0  0  0
   44.4316    5.5284   12.3953 C   0  0  0  0  0  0  0  0  0  0  0  0
   45.0068    6.7172   12.6122 C   0  0  0  0  0  0  0  0  0  0  0  0
   46.3358    6.7607   13.2469 C   0  0  0  0  0  0  0  0  0  0  0  0
   46.9086    7.8239   13.4690 O   0  0  0  0  0  0  0  0  0  0  0  0
   46.8915    5.5541   13.5727 N   0  0  0  0  0  0  0  0  0  0  0  0
   46.3129    4.3332   13.3558 C   0  0  0  0  0  0  0  0  0  0  0  0
   46.8773    3.2909   13.6778 O   0  0  0  0  0  0  0  0  0  0  0  0
   45.0866    4.3692   12.7664 N   0  0  0  0  0  0  0  0  0  0  0  0
   44.9679    3.2711   13.0276 H   0  0  0  0  0  0  0  0  0  0  0  0
   47.7255    6.3473   13.8714 H   0  0  0  0  0  0  0  0  0  0  0  0
   44.2175    7.2269   11.9918 H   0  0  0  0  0  0  0  0  0  0  0  0
   44.5381    7.6548   12.3414 H   0  0  0  0  0  0  0  0  0  0  0  0
   47.7971    5.5606   14.0065 H   0  0  0  0  0  0  0  0  0  0  0  0
   44.5853    3.5039   12.5688 H   0  0  0  0  0  0  0  0  0  0  0  0
  1  2  1  0
  2  3  2  0
  2  4  1  0
  4  5  2  0
  5  6  1  0
  6  7  2  0
  6  8  1  0
  8  9  1  0
  9 10  2  0
  9 11  1  0
  4 11  1  0
 13 14  1  0
 14 15  2  0
 14 16  1  0
 16 17  2  0
 17 18  1  0
 18 19  2  0
 18 20  1  0
 20 21  1  0
 21 22  2  0
 21 23  1  0
 16 23  1  0
  5 24  1  0
  8 25  1  0
 11 26  1  0
 17 27  1  0
 20 28  1  0
 23 29  1  0
M  CHG  3   1  -1  12   2  13  -1
M  END
> <Uni-Dock RESULT> 
ENERGY=   -5.743  LOWER_BOUND=    3.135  UPPER_BOUND=    4.866
INTER + INTRA:          -5.743
INTER:                  -5.743
INTRA:                   0.000
UNBOUND:                 0.000

$$$$

     RDKit          3D

 29 28  0  0  0  0  0  0  0  0999 V2000
   43.2200    3.5402   12.5663 O   0  0  0  0  0  0  0  0  0  0  0  0
   43.1721    4.7704   12.2946 C   0  0  0  0  0  0  0  0  0  0  0  0
   42.2408    5.4672   11.7886 O   0  0  0  0  0  0  0  0  0  0  0  0
   44.4506    5.6034   12.6213 C   0  0  0  0  0  0  0  0  0  0  0  0
   45.5285    5.0219   13.1607 C   0  0  0  0  0  0  0  0  0  0  0  0
   46.7131    5.8481   13.4521 C   0  0  0  0  0  0  0  0  0  0  0  0
   47.7284    5.3659   13.9468 O   0  0  0  0  0  0  0  0  0  0  0  0
   46.6166    7.1766   13.1414 N   0  0  0  0  0  0  0  0  0  0  0  0
   45.5202    7.7817   12.5899 C   0  0  0  0  0  0  0  0  0  0  0  0
   45.5109    8.9840   12.3390 O   0  0  0  0  0  0  0  0  0  0  0  0
   44.4639    6.9582   12.3479 N   0  0  0  0  0  0  0  0  0  0  0  0
   45.1254    6.1121   12.7795 Mg  0  0  0  0  0 15  0  0  0  0  0  0
   42.8965    4.0019   12.2337 O   0  0  0  0  0  0  0  0  0  0  0  0
   42.9553    5.2646   12.1288 C   0  0  0  0  0  0  0  0  0  0  0  0
   42.0864    6.0970   11.7525 O   0  0  0  0  0  0  0  0  0  0  0  0
   44.3427    5.8483   12.5407 C   0  0  0  0  0  0  0  0  0  0  0  0
   44.5751    7.1653   12.4892 C   0  0  0  0  0  0  0  0  0  0  0  0
   45.9003    7.6712   12.8876 C   0  0  0  0  0  0  0  0  0  0  0  0
   46.1671    8.8694   12.8595 O   0  0  0  0  0  0  0  0  0  0  0  0
   46.8115    6.7332   13.2887 N   0  0  0  0  0  0  0  0  0  0  0  0
   46.5850    5.3849   13.3453 C   0  0  0  0  0  0  0  0  0  0  0  0
   47.4571    4.6042   13.7177 O   0  0  0  0  0  0  0  0  0  0  0  0
   45.3399    4.9896   12.9630 N   0  0  0  0  0  0  0  0  0  0  0  0
   45.5711    3.9656   13.3945 H   0  0  0  0  0  0  0  0  0  0  0  0
   47.4128    7.7582   13.3318 H   0  0  0  0  0  0  0  0  0  0  0  0
   43.6069    7.3278   11.9381 H   0  0  0  0  0  0  0  0  0  0  0  0
   43.8300    7.8812   12.1662 H   0  0  0  0  0  0  0  0  0  0  0  0
   47.7214    7.0562   13.5648 H   0  0  0  0  0  0  0  0  0  0  0  0
   45.0875    4.0020   12.9752 H   0  0  0  0  0  0  0  0  0  0  0  0
  1  2  1  0
  2  3  2  0
  2  4  1  0
  4  5  2  0
  5  6  1  0
  6  7  2  0
  6  8  1  0
  8  9  1  0
  9 10  2  0
  9 11  1  0
  4 11  1  0
 13 14  1  0
 14 15  2  0
 14 16  1  0
 16 17  2  0
 17 18  1  0
 18 19  2  0
 18 20  1  0
 20 21  1  0
 21 22  2  0
 21 23  1  0
 16 23  1  0
  5 24  1  0
  8 25  1  0
 11 26  1  0
 17 27  1  0
 20 28  1  0
 23 29  1  0
M  CHG  3   1  -1  12   2  13  -1
M  END
> <Uni-Dock RESULT> 
ENERGY=   -5.635  LOWER_BOUND=    3.379  UPPER_BOUND=    5.121
INTER + INTRA:          -5.635
INTER:                  -5.635
INTRA:                   0.000
UNBOUND:                 0.000

$$$$

     RDKit          3D

 29 28  0  0  0  0  0  0  0  0999 V2000
   47.4421    7.6783   13.3172 O   0  0  0  0  0  0  0  0  0  0  0  0
   46.2258    7.7866   13.0036 C   0  0  0  0  0  0  0  0  0  0  0  0
   45.5073    8.8177   12.8317 O   0  0  0  0  0  0  0  0  0  0  0  0
   45.4449    6.4536   12.7826 C   0  0  0  0  0  0  0  0  0  0  0  0
   46.0543    5.2706   12.9241 C   0  0  0  0  0  0  0  0  0  0  0  0
   45.2771    4.0380   12.7056 C   0  0  0  0  0  0  0  0  0  0  0  0
   45.7864    2.9267   12.8221 O   0  0  0  0  0  0  0  0  0  0  0  0
   43.9622    4.2028   12.3670 N   0  0  0  0  0  0  0  0  0  0  0  0
   43.3289    5.4069   12.2197 C   0  0  0  0  0  0  0  0  0  0  0  0
   42.1414    5.4724   11.9128 O   0  0  0  0  0  0  0  0  0  0  0  0
   44.1077    6.5019   12.4367 N   0  0  0  0  0  0  0  0  0  0  0  0
   44.9647    5.7533   12.6484 Mg  0  0  0  0  0 15  0  0  0  0  0  0
   46.9297    8.0853   13.2957 O   0  0  0  0  0  0  0  0  0  0  0  0
   45.7390    8.0349   12.8617 C   0  0  0  0  0  0  0  0  0  0  0  0
   44.9434    8.9593   12.5423 O   0  0  0  0  0  0  0  0  0  0  0  0
   45.2044    6.5766   12.7109 C   0  0  0  0  0  0  0  0  0  0  0  0
   43.9645    6.3436   12.2645 C   0  0  0  0  0  0  0  0  0  0  0  0
   43.5025    4.9502   12.1383 C   0  0  0  0  0  0  0  0  0  0  0  0
   42.3750    4.6798   11.7341 O   0  0  0  0  0  0  0  0  0  0  0  0
   44.3983    3.9801   12.4957 N   0  0  0  0  0  0  0  0  0  0  0  0
   45.6678    4.2066   12.9531 C   0  0  0  0  0  0  0  0  0  0  0  0
   46.4147    3.2793   13.2546 O   0  0  0  0  0  0  0  0  0  0  0  0
   46.0263    5.5165   13.0441 N   0  0  0  0  0  0  0  0  0  0  0  0
   47.0987    5.1761   13.1935 H   0  0  0  0  0  0  0  0  0  0  0  0
   43.4138    3.3757   12.2135 H   0  0  0  0  0  0  0  0  0  0  0  0
   43.7147    7.4383   12.3479 H   0  0  0  0  0  0  0  0  0  0  0  0
   43.2802    7.1363   11.9899 H   0  0  0  0  0  0  0  0  0  0  0  0
   44.1041    3.0232   12.4174 H   0  0  0  0  0  0  0  0  0  0  0  0
   46.9552    5.7737   13.3759 H   0  0  0  0  0  0  0  0  0  0  0  0
  1  2  1  0
  2  3  2  0
  2  4  1  0
  4  5  2  0
  5  6  1  0
  6  7  2  0
  6  8  1  0
  8  9  1  0
  9 10  2  0
  9 11  1  0
  4 11  1  0
 13 14  1  0
 14 15  2  0
 14 16  1  0
 16 17  2  0
 17 18  1  0
 18 19  2  0
 18 20  1  0
 20 21  1  0
 21 22  2  0
 21 23  1  0
 16 23  1  0
  5 24  1  0
  8 25  1  0
 11 26  1  0
 17 27  1  0
 20 28  1  0
 23 29  1  0
M  CHG  3   1  -1  12   2  13  -1
M  END
> <Uni-Dock RESULT> 
ENERGY=   -5.598  LOWER_BOUND=    3.117  UPPER_BOUND=    4.824
INTER + INTRA:          -5.598
INTER:                  -5.598
INTRA:                   0.000
UNBOUND:                 0.000

$$$$
