
     RDKit          3D

 29 28  0  0  0  0  0  0  0  0999 V2000
   46.9625   -0.0706    7.4356 O   0  0  0  0  0  0  0  0  0  0  0  0
   47.1227    1.1354    7.0764 C   0  0  0  0  0  0  0  0  0  0  0  0
   47.8445    1.6313    6.1695 O   0  0  0  0  0  0  0  0  0  0  0  0
   46.2731    2.1408    7.9146 C   0  0  0  0  0  0  0  0  0  0  0  0
   46.3240    3.4549    7.6662 C   0  0  0  0  0  0  0  0  0  0  0  0
   45.5045    4.3668    8.4832 C   0  0  0  0  0  0  0  0  0  0  0  0
   45.5133    5.5807    8.2981 O   0  0  0  0  0  0  0  0  0  0  0  0
   44.7371    3.7856    9.4550 N   0  0  0  0  0  0  0  0  0  0  0  0
   44.6773    2.4441    9.7177 C   0  0  0  0  0  0  0  0  0  0  0  0
   43.9614    1.9978   10.6104 O   0  0  0  0  0  0  0  0  0  0  0  0
   45.4600    1.6624    8.9245 N   0  0  0  0  0  0  0  0  0  0  0  0
   45.7835    2.6466    8.4083 Mg  0  0  0  0  0 15  0  0  0  0  0  0
   43.5368    2.7826   10.6941 O   0  0  0  0  0  0  0  0  0  0  0  0
   44.2268    3.5823   10.0057 C   0  0  0  0  0  0  0  0  0  0  0  0
   44.2550    4.8505    9.9975 O   0  0  0  0  0  0  0  0  0  0  0  0
   45.2196    2.9421    8.9862 C   0  0  0  0  0  0  0  0  0  0  0  0
   45.3167    1.6127    8.8661 C   0  0  0  0  0  0  0  0  0  0  0  0
   46.2680    1.0529    7.8901 C   0  0  0  0  0  0  0  0  0  0  0  0
   46.3972   -0.1589    7.7393 O   0  0  0  0  0  0  0  0  0  0  0  0
   46.9951    1.9570    7.1655 N   0  0  0  0  0  0  0  0  0  0  0  0
   46.9042    3.3174    7.2799 C   0  0  0  0  0  0  0  0  0  0  0  0
   47.5936    4.0653    6.5913 O   0  0  0  0  0  0  0  0  0  0  0  0
   46.0059    3.7633    8.2002 N   0  0  0  0  0  0  0  0  0  0  0  0
   46.9435    3.8822    6.8878 H   0  0  0  0  0  0  0  0  0  0  0  0
   44.1705    4.3890   10.0237 H   0  0  0  0  0  0  0  0  0  0  0  0
   45.4749    0.6514    9.0531 H   0  0  0  0  0  0  0  0  0  0  0  0
   44.7249    0.9247    9.4565 H   0  0  0  0  0  0  0  0  0  0  0  0
   47.6497    1.5968    6.4944 H   0  0  0  0  0  0  0  0  0  0  0  0
   45.8753    4.7631    8.3490 H   0  0  0  0  0  0  0  0  0  0  0  0
  1  2  1  0
  2  3  2  0
  2  4  1  0
  4  5  2  0
  5  6  1  0
  6  7  2  0
  6  8  1  0
  8  9  1  0
  9 10  2  0
  9 11  1  0
  4 11  1  0
 13 14  1  0
 14 15  2  0
 14 16  1  0
 16 17  2  0
 17 18  1  0
 18 19  2  0
 18 20  1  0
 20 21  1  0
 21 22  2  0
 21 23  1  0
 16 23  1  0
  5 24  1  0
  8 25  1  0
 11 26  1  0
 17 27  1  0
 20 28  1  0
 23 29  1  0
M  CHG  3   1  -1  12   2  13  -1
M  END
> <Uni-Dock RESULT> 
ENERGY=   -6.219  LOWER_BOUND=    0.000  UPPER_BOUND=    0.000
INTER + INTRA:          -6.219
INTER:                  -6.219
INTRA:                   0.000
UNBOUND:                 0.000

$$$$

     RDKit          3D

 29 28  0  0  0  0  0  0  0  0999 V2000
   46.5028    4.3484    7.3052 O   0  0  0  0  0  0  0  0  0  0  0  0
   46.0276    3.3067    7.8510 C   0  0  0  0  0  0  0  0  0  0  0  0
   46.1691    2.0893    7.5552 O   0  0  0  0  0  0  0  0  0  0  0  0
   45.1267    3.6204    9.0860 C   0  0  0  0  0  0  0  0  0  0  0  0
   44.5454    2.6339    9.7789 C   0  0  0  0  0  0  0  0  0  0  0  0
   43.7030    2.9774   10.9378 C   0  0  0  0  0  0  0  0  0  0  0  0
   43.1465    2.1121   11.6082 O   0  0  0  0  0  0  0  0  0  0  0  0
   43.5777    4.3095   11.2222 N   0  0  0  0  0  0  0  0  0  0  0  0
   44.1670    5.3261   10.5211 C   0  0  0  0  0  0  0  0  0  0  0  0
   44.0058    6.5012   10.8400 O   0  0  0  0  0  0  0  0  0  0  0  0
   44.9302    4.9351    9.4641 N   0  0  0  0  0  0  0  0  0  0  0  0
   44.6415    3.8531    9.7566 Mg  0  0  0  0  0 15  0  0  0  0  0  0
   43.6444    6.2629   11.6246 O   0  0  0  0  0  0  0  0  0  0  0  0
   43.4611    5.0203   11.5160 C   0  0  0  0  0  0  0  0  0  0  0  0
   42.7352    4.2316   12.1942 O   0  0  0  0  0  0  0  0  0  0  0  0
   44.2392    4.3018   10.3699 C   0  0  0  0  0  0  0  0  0  0  0  0
   45.0520    4.9881    9.5578 C   0  0  0  0  0  0  0  0  0  0  0  0
   45.7663    4.2677    8.4893 C   0  0  0  0  0  0  0  0  0  0  0  0
   46.5238    4.8483    7.7167 O   0  0  0  0  0  0  0  0  0  0  0  0
   45.5377    2.9215    8.4086 N   0  0  0  0  0  0  0  0  0  0  0  0
   44.7093    2.2098    9.2329 C   0  0  0  0  0  0  0  0  0  0  0  0
   44.5560    0.9988    9.0961 O   0  0  0  0  0  0  0  0  0  0  0  0
   44.0830    2.9395   10.1962 N   0  0  0  0  0  0  0  0  0  0  0  0
   44.6659    1.5881    9.5259 H   0  0  0  0  0  0  0  0  0  0  0  0
   43.0079    4.5661   12.0083 H   0  0  0  0  0  0  0  0  0  0  0  0
   45.4052    5.6292    8.8881 H   0  0  0  0  0  0  0  0  0  0  0  0
   45.2104    6.0552    9.6499 H   0  0  0  0  0  0  0  0  0  0  0  0
   46.0146    2.4109    7.6873 H   0  0  0  0  0  0  0  0  0  0  0  0
   43.4481    2.4871   10.8529 H   0  0  0  0  0  0  0  0  0  0  0  0
  1  2  1  0
  2  3  2  0
  2  4  1  0
  4  5  2  0
  5  6  1  0
  6  7  2  0
  6  8  1  0
  8  9  1  0
  9 10  2  0
  9 11  1  0
  4 11  1  0
 13 14  1  0
 14 15  2  0
 14 16  1  0
 16 17  2  0
 17 18  1  0
 18 19  2  0
 18 20  1  0
 20 21  1  0
 21 22  2  0
 21 23  1  0
 16 23  1  0
  5 24  1  0
  8 25  1  0
 11 26  1  0
 17 27  1  0
 20 28  1  0
 23 29  1  0
M  CHG  3   1  -1  12   2  13  -1
M  END
> <Uni-Dock RESULT> 
ENERGY=   -6.160  LOWER_BOUND=    1.553  UPPER_BOUND=    3.363
INTER + INTRA:          -6.160
INTER:                  -6.160
INTRA:                   0.000
UNBOUND:                 0.000

$$$$

     RDKit          3D

 29 28  0  0  0  0  0  0  0  0999 V2000
   44.7804    1.4617    8.8730 O   0  0  0  0  0  0  0  0  0  0  0  0
   45.0923    2.6749    8.6735 C   0  0  0  0  0  0  0  0  0  0  0  0
   45.6240    3.2307    7.6745 O   0  0  0  0  0  0  0  0  0  0  0  0
   44.7475    3.6012    9.8811 C   0  0  0  0  0  0  0  0  0  0  0  0
   45.0112    4.9125    9.8364 C   0  0  0  0  0  0  0  0  0  0  0  0
   44.6684    5.7484   11.0003 C   0  0  0  0  0  0  0  0  0  0  0  0
   44.8885    6.9564   11.0125 O   0  0  0  0  0  0  0  0  0  0  0  0
   44.0936    5.1038   12.0610 N   0  0  0  0  0  0  0  0  0  0  0  0
   43.8195    3.7644   12.1176 C   0  0  0  0  0  0  0  0  0  0  0  0
   43.3002    3.2585   13.1090 O   0  0  0  0  0  0  0  0  0  0  0  0
   44.1627    3.0549   11.0079 N   0  0  0  0  0  0  0  0  0  0  0  0
   44.5358    4.0617   10.5756 Mg  0  0  0  0  0 15  0  0  0  0  0  0
   43.0961    4.0650   13.4423 O   0  0  0  0  0  0  0  0  0  0  0  0
   43.7245    4.8721   12.7053 C   0  0  0  0  0  0  0  0  0  0  0  0
   44.0236    6.0916   12.8856 O   0  0  0  0  0  0  0  0  0  0  0  0
   44.2323    4.3136   11.3396 C   0  0  0  0  0  0  0  0  0  0  0  0
   44.0016    3.0424   10.9903 C   0  0  0  0  0  0  0  0  0  0  0  0
   44.5001    2.5587    9.6909 C   0  0  0  0  0  0  0  0  0  0  0  0
   44.3164    1.4023    9.3210 O   0  0  0  0  0  0  0  0  0  0  0  0
   45.1758    3.4681    8.9244 N   0  0  0  0  0  0  0  0  0  0  0  0
   45.4174    4.7695    9.2713 C   0  0  0  0  0  0  0  0  0  0  0  0
   46.0339    5.5268    8.5263 O   0  0  0  0  0  0  0  0  0  0  0  0
   44.9284    5.1468   10.4842 N   0  0  0  0  0  0  0  0  0  0  0  0
   45.4679    5.3912    8.9793 H   0  0  0  0  0  0  0  0  0  0  0  0
   43.8518    5.6547   12.8651 H   0  0  0  0  0  0  0  0  0  0  0  0
   43.9931    2.0507   10.9667 H   0  0  0  0  0  0  0  0  0  0  0  0
   43.4622    2.3481   11.6221 H   0  0  0  0  0  0  0  0  0  0  0  0
   45.5243    3.1594    8.0347 H   0  0  0  0  0  0  0  0  0  0  0  0
   45.0643    6.0996   10.8198 H   0  0  0  0  0  0  0  0  0  0  0  0
  1  2  1  0
  2  3  2  0
  2  4  1  0
  4  5  2  0
  5  6  1  0
  6  7  2  0
  6  8  1  0
  8  9  1  0
  9 10  2  0
  9 11  1  0
  4 11  1  0
 13 14  1  0
 14 15  2  0
 14 16  1  0
 16 17  2  0
 17 18  1  0
 18 19  2  0
 18 20  1  0
 20 21  1  0
 21 22  2  0
 21 23  1  0
 16 23  1  0
  5 24  1  0
  8 25  1  0
 11 26  1  0
 17 27  1  0
 20 28  1  0
 23 29  1  0
M  CHG  3   1  -1  12   2  13  -1
M  END
> <Uni-Dock RESULT> 
ENERGY=   -5.951  LOWER_BOUND=    2.027  UPPER_BOUND=    2.962
INTER + INTRA:          -5.951
INTER:                  -5.951
INTRA:                   0.000
UNBOUND:                 0.000

$$$$

     RDKit          3D

 29 28  0  0  0  0  0  0  0  0999 V2000
   43.1321    4.0693   13.4083 O   0  0  0  0  0  0  0  0  0  0  0  0
   43.7551    4.9611   12.7559 C   0  0  0  0  0  0  0  0  0  0  0  0
   44.0100    6.1611   13.0465 O   0  0  0  0  0  0  0  0  0  0  0  0
   44.2766    4.4558   11.3746 C   0  0  0  0  0  0  0  0  0  0  0  0
   44.9557    5.2705   10.5585 C   0  0  0  0  0  0  0  0  0  0  0  0
   45.4287    4.7498    9.2638 C   0  0  0  0  0  0  0  0  0  0  0  0
   46.0561    5.4539    8.4773 O   0  0  0  0  0  0  0  0  0  0  0  0
   45.1299    3.4434    8.9904 N   0  0  0  0  0  0  0  0  0  0  0  0
   44.4366    2.6016    9.8169 C   0  0  0  0  0  0  0  0  0  0  0  0
   44.2074    1.4376    9.4991 O   0  0  0  0  0  0  0  0  0  0  0  0
   44.0309    3.1498   10.9949 N   0  0  0  0  0  0  0  0  0  0  0  0
   44.5390    4.1225   10.6268 Mg  0  0  0  0  0 15  0  0  0  0  0  0
   44.7873    1.4851    8.8174 O   0  0  0  0  0  0  0  0  0  0  0  0
   45.0666    2.7117    8.7341 C   0  0  0  0  0  0  0  0  0  0  0  0
   45.6000    3.3736    7.7926 O   0  0  0  0  0  0  0  0  0  0  0  0
   44.7118    3.5899    9.9742 C   0  0  0  0  0  0  0  0  0  0  0  0
   44.1418    3.0486   11.0573 C   0  0  0  0  0  0  0  0  0  0  0  0
   43.8244    3.9166   12.2048 C   0  0  0  0  0  0  0  0  0  0  0  0
   43.3015    3.4721   13.2230 O   0  0  0  0  0  0  0  0  0  0  0  0
   44.1447    5.2397   12.0705 N   0  0  0  0  0  0  0  0  0  0  0  0
   44.7273    5.8039   10.9685 C   0  0  0  0  0  0  0  0  0  0  0  0
   44.9847    7.0040   10.9240 O   0  0  0  0  0  0  0  0  0  0  0  0
   44.9920    4.9432    9.9477 N   0  0  0  0  0  0  0  0  0  0  0  0
   45.1753    6.3012   10.8066 H   0  0  0  0  0  0  0  0  0  0  0  0
   45.4429    3.0680    8.1131 H   0  0  0  0  0  0  0  0  0  0  0  0
   43.5083    2.5916   11.6689 H   0  0  0  0  0  0  0  0  0  0  0  0
   43.9013    1.9955   11.1304 H   0  0  0  0  0  0  0  0  0  0  0  0
   43.9369    5.8494   12.8410 H   0  0  0  0  0  0  0  0  0  0  0  0
   45.4255    5.2810    9.0894 H   0  0  0  0  0  0  0  0  0  0  0  0
  1  2  1  0
  2  3  2  0
  2  4  1  0
  4  5  2  0
  5  6  1  0
  6  7  2  0
  6  8  1  0
  8  9  1  0
  9 10  2  0
  9 11  1  0
  4 11  1  0
 13 14  1  0
 14 15  2  0
 14 16  1  0
 16 17  2  0
 17 18  1  0
 18 19  2  0
 18 20  1  0
 20 21  1  0
 21 22  2  0
 21 23  1  0
 16 23  1  0
  5 24  1  0
  8 25  1  0
 11 26  1  0
 17 27  1  0
 20 28  1  0
 23 29  1  0
M  CHG  3   1  -1  12   2  13  -1
M  END
> <Uni-Dock RESULT> 
ENERGY=   -5.858  LOWER_BOUND=    2.061  UPPER_BOUND=    4.592
INTER + INTRA:          -5.858
INTER:                  -5.858
INTRA:                   0.000
UNBOUND:                 0.000

$$$$

     RDKit          3D

 29 28  0  0  0  0  0  0  0  0999 V2000
   47.5047    3.8160   14.3990 O   0  0  0  0  0  0  0  0  0  0  0  0
   47.1460    4.9629   13.9928 C   0  0  0  0  0  0  0  0  0  0  0  0
   47.6864    6.0919   14.1441 O   0  0  0  0  0  0  0  0  0  0  0  0
   45.8162    4.9340   13.1767 C   0  0  0  0  0  0  0  0  0  0  0  0
   45.2957    6.0598   12.6740 C   0  0  0  0  0  0  0  0  0  0  0  0
   44.0381    5.9844   11.9101 C   0  0  0  0  0  0  0  0  0  0  0  0
   43.5172    6.9860   11.4271 O   0  0  0  0  0  0  0  0  0  0  0  0
   43.4874    4.7401   11.7709 N   0  0  0  0  0  0  0  0  0  0  0  0
   44.0104    3.5829   12.2802 C   0  0  0  0  0  0  0  0  0  0  0  0
   43.4548    2.5005   12.1118 O   0  0  0  0  0  0  0  0  0  0  0  0
   45.1725    3.7279   12.9740 N   0  0  0  0  0  0  0  0  0  0  0  0
   45.0820    4.8570   12.7360 Mg  0  0  0  0  0 15  0  0  0  0  0  0
   42.9102    2.8503   11.4919 O   0  0  0  0  0  0  0  0  0  0  0  0
   43.0982    4.0938   11.5815 C   0  0  0  0  0  0  0  0  0  0  0  0
   42.4028    5.0654   11.1556 O   0  0  0  0  0  0  0  0  0  0  0  0
   44.3881    4.5482   12.3329 C   0  0  0  0  0  0  0  0  0  0  0  0
   45.2352    3.6485   12.8468 C   0  0  0  0  0  0  0  0  0  0  0  0
   46.4406    4.1238   13.5482 C   0  0  0  0  0  0  0  0  0  0  0  0
   47.2507    3.3419   14.0382 O   0  0  0  0  0  0  0  0  0  0  0  0
   46.6040    5.4800   13.6212 N   0  0  0  0  0  0  0  0  0  0  0  0
   45.7449    6.4086   13.0998 C   0  0  0  0  0  0  0  0  0  0  0  0
   45.9618    7.6128   13.2070 O   0  0  0  0  0  0  0  0  0  0  0  0
   44.6538    5.8980   12.4662 N   0  0  0  0  0  0  0  0  0  0  0  0
   45.7585    7.0300   12.8032 H   0  0  0  0  0  0  0  0  0  0  0  0
   42.6297    4.6658   11.2536 H   0  0  0  0  0  0  0  0  0  0  0  0
   45.6296    2.9158   13.3870 H   0  0  0  0  0  0  0  0  0  0  0  0
   45.0752    2.5804   12.7707 H   0  0  0  0  0  0  0  0  0  0  0  0
   47.4191    5.8257   14.0951 H   0  0  0  0  0  0  0  0  0  0  0  0
   43.9630    6.5207   12.0491 H   0  0  0  0  0  0  0  0  0  0  0  0
  1  2  1  0
  2  3  2  0
  2  4  1  0
  4  5  2  0
  5  6  1  0
  6  7  2  0
  6  8  1  0
  8  9  1  0
  9 10  2  0
  9 11  1  0
  4 11  1  0
 13 14  1  0
 14 15  2  0
 14 16  1  0
 16 17  2  0
 17 18  1  0
 18 19  2  0
 18 20  1  0
 20 21  1  0
 21 22  2  0
 21 23  1  0
 16 23  1  0
  5 24  1  0
  8 25  1  0
 11 26  1  0
 17 27  1  0
 20 28  1  0
 23 29  1  0
M  CHG  3   1  -1  12   2  13  -1
M  END
> <Uni-Dock RESULT> 
ENERGY=   -5.396  LOWER_BOUND=    4.806  UPPER_BOUND=    5.499
INTER + INTRA:          -5.396
INTER:                  -5.396
INTRA:                   0.000
UNBOUND:                 0.000

$$$$

     RDKit          3D

 29 28  0  0  0  0  0  0  0  0999 V2000
   42.4826    4.5398   11.5611 O   0  0  0  0  0  0  0  0  0  0  0  0
   42.9946    5.6966   11.6538 C   0  0  0  0  0  0  0  0  0  0  0  0
   42.5534    6.8196   11.2883 O   0  0  0  0  0  0  0  0  0  0  0  0
   44.3980    5.6910   12.3361 C   0  0  0  0  0  0  0  0  0  0  0  0
   45.0787    6.8296   12.5133 C   0  0  0  0  0  0  0  0  0  0  0  0
   46.4004    6.7760   13.1622 C   0  0  0  0  0  0  0  0  0  0  0  0
   47.0672    7.7901   13.3494 O   0  0  0  0  0  0  0  0  0  0  0  0
   46.8391    5.5375   13.5422 N   0  0  0  0  0  0  0  0  0  0  0  0
   46.1520    4.3674   13.3663 C   0  0  0  0  0  0  0  0  0  0  0  0
   46.6148    3.2914   13.7360 O   0  0  0  0  0  0  0  0  0  0  0  0
   44.9395    4.4924   12.7606 N   0  0  0  0  0  0  0  0  0  0  0  0
   45.1658    5.6267   12.7176 Mg  0  0  0  0  0 15  0  0  0  0  0  0
   47.2566    3.7029   14.2070 O   0  0  0  0  0  0  0  0  0  0  0  0
   47.1821    4.9079   13.8441 C   0  0  0  0  0  0  0  0  0  0  0  0
   48.0122    5.8591   13.9679 O   0  0  0  0  0  0  0  0  0  0  0  0
   45.8668    5.3347   13.1208 C   0  0  0  0  0  0  0  0  0  0  0  0
   44.8840    4.4517   12.9079 C   0  0  0  0  0  0  0  0  0  0  0  0
   43.6599    4.8996   12.2208 C   0  0  0  0  0  0  0  0  0  0  0  0
   42.7278    4.1314   12.0000 O   0  0  0  0  0  0  0  0  0  0  0  0
   43.6226    6.2144   11.8452 N   0  0  0  0  0  0  0  0  0  0  0  0
   44.6209    7.1256   12.0576 C   0  0  0  0  0  0  0  0  0  0  0  0
   44.5120    8.2923   11.6893 O   0  0  0  0  0  0  0  0  0  0  0  0
   45.7210    6.6422   12.6971 N   0  0  0  0  0  0  0  0  0  0  0  0
   44.7012    7.7947   12.1998 H   0  0  0  0  0  0  0  0  0  0  0  0
   47.7378    5.4781   13.9866 H   0  0  0  0  0  0  0  0  0  0  0  0
   44.3621    3.6697   12.5911 H   0  0  0  0  0  0  0  0  0  0  0  0
   44.9465    3.4165   13.2189 H   0  0  0  0  0  0  0  0  0  0  0  0
   42.7973    6.5410   11.3753 H   0  0  0  0  0  0  0  0  0  0  0  0
   46.5115    7.2545   12.8950 H   0  0  0  0  0  0  0  0  0  0  0  0
  1  2  1  0
  2  3  2  0
  2  4  1  0
  4  5  2  0
  5  6  1  0
  6  7  2  0
  6  8  1  0
  8  9  1  0
  9 10  2  0
  9 11  1  0
  4 11  1  0
 13 14  1  0
 14 15  2  0
 14 16  1  0
 16 17  2  0
 17 18  1  0
 18 19  2  0
 18 20  1  0
 20 21  1  0
 21 22  2  0
 21 23  1  0
 16 23  1  0
  5 24  1  0
  8 25  1  0
 11 26  1  0
 17 27  1  0
 20 28  1  0
 23 29  1  0
M  CHG  3   1  -1  12   2  13  -1
M  END
> <Uni-Dock RESULT> 
ENERGY=   -5.311  LOWER_BOUND=    5.285  UPPER_BOUND=    6.049
INTER + INTRA:          -5.311
INTER:                  -5.311
INTRA:                   0.000
UNBOUND:                 0.000

$$$$

     RDKit          3D

 29 28  0  0  0  0  0  0  0  0999 V2000
   47.1834    7.5561   13.3881 O   0  0  0  0  0  0  0  0  0  0  0  0
   47.1150    6.3030   13.5727 C   0  0  0  0  0  0  0  0  0  0  0  0
   47.9259    5.5104   14.1237 O   0  0  0  0  0  0  0  0  0  0  0  0
   45.8004    5.6738   13.0148 C   0  0  0  0  0  0  0  0  0  0  0  0
   45.5677    4.3607   13.1265 C   0  0  0  0  0  0  0  0  0  0  0  0
   44.3127    3.8108   12.5848 C   0  0  0  0  0  0  0  0  0  0  0  0
   44.0488    2.6139   12.6602 O   0  0  0  0  0  0  0  0  0  0  0  0
   43.4629    4.7065   11.9962 N   0  0  0  0  0  0  0  0  0  0  0  0
   43.6903    6.0504   11.8765 C   0  0  0  0  0  0  0  0  0  0  0  0
   42.8758    6.7917   11.3328 O   0  0  0  0  0  0  0  0  0  0  0  0
   44.8687    6.4878   12.3988 N   0  0  0  0  0  0  0  0  0  0  0  0
   45.0595    5.3837   12.6890 Mg  0  0  0  0  0 15  0  0  0  0  0  0
   42.2497    6.1506   11.3445 O   0  0  0  0  0  0  0  0  0  0  0  0
   42.8784    5.1105   11.6795 C   0  0  0  0  0  0  0  0  0  0  0  0
   42.5604    3.8866   11.5790 O   0  0  0  0  0  0  0  0  0  0  0  0
   44.2815    5.3263   12.3274 C   0  0  0  0  0  0  0  0  0  0  0  0
   44.7712    6.5586   12.5079 C   0  0  0  0  0  0  0  0  0  0  0  0
   46.1007    6.7141   13.1237 C   0  0  0  0  0  0  0  0  0  0  0  0
   46.5973    7.8212   13.3123 O   0  0  0  0  0  0  0  0  0  0  0  0
   46.7463    5.5594   13.4712 N   0  0  0  0  0  0  0  0  0  0  0  0
   46.2556    4.2948   13.2915 C   0  0  0  0  0  0  0  0  0  0  0  0
   46.8980    3.3045   13.6310 O   0  0  0  0  0  0  0  0  0  0  0  0
   45.0232    4.2271   12.7177 N   0  0  0  0  0  0  0  0  0  0  0  0
   46.2632    3.6788   13.5992 H   0  0  0  0  0  0  0  0  0  0  0  0
   42.6014    4.3529   11.6202 H   0  0  0  0  0  0  0  0  0  0  0  0
   45.1169    7.4754   12.3520 H   0  0  0  0  0  0  0  0  0  0  0  0
   44.2326    7.4528   12.2207 H   0  0  0  0  0  0  0  0  0  0  0  0
   47.6541    5.6424   13.8926 H   0  0  0  0  0  0  0  0  0  0  0  0
   44.5839    3.3232   12.5478 H   0  0  0  0  0  0  0  0  0  0  0  0
  1  2  1  0
  2  3  2  0
  2  4  1  0
  4  5  2  0
  5  6  1  0
  6  7  2  0
  6  8  1  0
  8  9  1  0
  9 10  2  0
  9 11  1  0
  4 11  1  0
 13 14  1  0
 14 15  2  0
 14 16  1  0
 16 17  2  0
 17 18  1  0
 18 19  2  0
 18 20  1  0
 20 21  1  0
 21 22  2  0
 21 23  1  0
 16 23  1  0
  5 24  1  0
  8 25  1  0
 11 26  1  0
 17 27  1  0
 20 28  1  0
 23 29  1  0
M  CHG  3   1  -1  12   2  13  -1
M  END
> <Uni-Dock RESULT> 
ENERGY=   -5.226  LOWER_BOUND=    5.007  UPPER_BOUND=    6.160
INTER + INTRA:          -5.226
INTER:                  -5.226
INTRA:                   0.000
UNBOUND:                 0.000

$$$$

     RDKit          3D

 29 28  0  0  0  0  0  0  0  0999 V2000
   42.4496    4.9950   12.5574 O   0  0  0  0  0  0  0  0  0  0  0  0
   43.5817    4.4453   12.7159 C   0  0  0  0  0  0  0  0  0  0  0  0
   43.8943    3.2284   12.8208 O   0  0  0  0  0  0  0  0  0  0  0  0
   44.7549    5.4717   12.7884 C   0  0  0  0  0  0  0  0  0  0  0  0
   46.0174    5.0594   12.9536 C   0  0  0  0  0  0  0  0  0  0  0  0
   47.0928    6.0646   13.0165 C   0  0  0  0  0  0  0  0  0  0  0  0
   48.2679    5.7414   13.1667 O   0  0  0  0  0  0  0  0  0  0  0  0
   46.7081    7.3718   12.8982 N   0  0  0  0  0  0  0  0  0  0  0  0
   45.4211    7.8047   12.7291 C   0  0  0  0  0  0  0  0  0  0  0  0
   45.1553    8.9997   12.6306 O   0  0  0  0  0  0  0  0  0  0  0  0
   44.4806    6.8220   12.6801 N   0  0  0  0  0  0  0  0  0  0  0  0
   45.3595    6.0821   12.8211 Mg  0  0  0  0  0 15  0  0  0  0  0  0
   46.0204    9.2070   12.5224 O   0  0  0  0  0  0  0  0  0  0  0  0
   46.6312    8.1396   12.8001 C   0  0  0  0  0  0  0  0  0  0  0  0
   47.8508    7.9377   13.0843 O   0  0  0  0  0  0  0  0  0  0  0  0
   45.7782    6.8330   12.8039 C   0  0  0  0  0  0  0  0  0  0  0  0
   44.4698    6.8675   12.5244 C   0  0  0  0  0  0  0  0  0  0  0  0
   43.7043    5.6086   12.5400 C   0  0  0  0  0  0  0  0  0  0  0  0
   42.5021    5.5832   12.2912 O   0  0  0  0  0  0  0  0  0  0  0  0
   44.4072    4.4757   12.8460 N   0  0  0  0  0  0  0  0  0  0  0  0
   45.7441    4.4287   13.1333 C   0  0  0  0  0  0  0  0  0  0  0  0
   46.3049    3.3688   13.3994 O   0  0  0  0  0  0  0  0  0  0  0  0
   46.3869    5.6280   13.1003 N   0  0  0  0  0  0  0  0  0  0  0  0
   46.2873    4.0148   13.0439 H   0  0  0  0  0  0  0  0  0  0  0  0
   47.4254    8.0736   12.9383 H   0  0  0  0  0  0  0  0  0  0  0  0
   43.4966    7.0576   12.5563 H   0  0  0  0  0  0  0  0  0  0  0  0
   43.9439    7.7833   12.2858 H   0  0  0  0  0  0  0  0  0  0  0  0
   43.9047    3.6064   12.8623 H   0  0  0  0  0  0  0  0  0  0  0  0
   47.3846    5.6826   13.3021 H   0  0  0  0  0  0  0  0  0  0  0  0
  1  2  1  0
  2  3  2  0
  2  4  1  0
  4  5  2  0
  5  6  1  0
  6  7  2  0
  6  8  1  0
  8  9  1  0
  9 10  2  0
  9 11  1  0
  4 11  1  0
 13 14  1  0
 14 15  2  0
 14 16  1  0
 16 17  2  0
 17 18  1  0
 18 19  2  0
 18 20  1  0
 20 21  1  0
 21 22  2  0
 21 23  1  0
 16 23  1  0
  5 24  1  0
  8 25  1  0
 11 26  1  0
 17 27  1  0
 20 28  1  0
 23 29  1  0
M  CHG  3   1  -1  12   2  13  -1
M  END
> <Uni-Dock RESULT> 
ENERGY=   -5.132  LOWER_BOUND=    5.334  UPPER_BOUND=    6.510
INTER + INTRA:          -5.132
INTER:                  -5.132
INTRA:                   0.000
UNBOUND:                 0.000

$$$$

     RDKit          3D

 29 28  0  0  0  0  0  0  0  0999 V2000
   45.7322    9.0073   12.7669 O   0  0  0  0  0  0  0  0  0  0  0  0
   46.4020    7.9682   13.0509 C   0  0  0  0  0  0  0  0  0  0  0  0
   47.5750    7.8458   13.4965 O   0  0  0  0  0  0  0  0  0  0  0  0
   45.6153    6.6450   12.7953 C   0  0  0  0  0  0  0  0  0  0  0  0
   46.1760    5.4553   13.0429 C   0  0  0  0  0  0  0  0  0  0  0  0
   45.3953    4.2323   12.7864 C   0  0  0  0  0  0  0  0  0  0  0  0
   45.8610    3.1156   12.9959 O   0  0  0  0  0  0  0  0  0  0  0  0
   44.1282    4.4124   12.3038 N   0  0  0  0  0  0  0  0  0  0  0  0
   43.5450    5.6233   12.0471 C   0  0  0  0  0  0  0  0  0  0  0  0
   42.3987    5.7027   11.6131 O   0  0  0  0  0  0  0  0  0  0  0  0
   44.3239    6.7088   12.3071 N   0  0  0  0  0  0  0  0  0  0  0  0
   45.1343    5.9505   12.6355 Mg  0  0  0  0  0 15  0  0  0  0  0  0
   42.2478    4.8367   11.7878 O   0  0  0  0  0  0  0  0  0  0  0  0
   43.3861    4.3761   12.0736 C   0  0  0  0  0  0  0  0  0  0  0  0
   43.8023    3.1788   12.1228 O   0  0  0  0  0  0  0  0  0  0  0  0
   44.4881    5.4216   12.4307 C   0  0  0  0  0  0  0  0  0  0  0  0
   44.2168    6.7321   12.4271 C   0  0  0  0  0  0  0  0  0  0  0  0
   45.2887    7.6828   12.7708 C   0  0  0  0  0  0  0  0  0  0  0  0
   45.0944    8.8952   12.7830 O   0  0  0  0  0  0  0  0  0  0  0  0
   46.5067    7.1389   13.0740 N   0  0  0  0  0  0  0  0  0  0  0  0
   46.7953    5.8015   13.0808 C   0  0  0  0  0  0  0  0  0  0  0  0
   47.9172    5.3900   13.3649 O   0  0  0  0  0  0  0  0  0  0  0  0
   45.7583    4.9827   12.7538 N   0  0  0  0  0  0  0  0  0  0  0  0
   47.1833    5.3486   13.4254 H   0  0  0  0  0  0  0  0  0  0  0  0
   43.5784    3.5919   12.1219 H   0  0  0  0  0  0  0  0  0  0  0  0
   43.9664    7.6493   12.1437 H   0  0  0  0  0  0  0  0  0  0  0  0
   43.2399    7.1292   12.1819 H   0  0  0  0  0  0  0  0  0  0  0  0
   47.2517    7.7691   13.3113 H   0  0  0  0  0  0  0  0  0  0  0  0
   45.8873    3.9718   12.7346 H   0  0  0  0  0  0  0  0  0  0  0  0
  1  2  1  0
  2  3  2  0
  2  4  1  0
  4  5  2  0
  5  6  1  0
  6  7  2  0
  6  8  1  0
  8  9  1  0
  9 10  2  0
  9 11  1  0
  4 11  1  0
 13 14  1  0
 14 15  2  0
 14 16  1  0
 16 17  2  0
 17 18  1  0
 18 19  2  0
 18 20  1  0
 20 21  1  0
 21 22  2  0
 21 23  1  0
 16 23  1  0
  5 24  1  0
  8 25  1  0
 11 26  1  0
 17 27  1  0
 20 28  1  0
 23 29  1  0
M  CHG  3   1  -1  12   2  13  -1
M  END
> <Uni-Dock RESULT> 
ENERGY=   -4.964  LOWER_BOUND=    4.984  UPPER_BOUND=    6.429
INTER + INTRA:          -4.964
INTER:                  -4.964
INTRA:                   0.000
UNBOUND:                 0.000

$$$$
