
     RDKit          3D

 29 28  0  0  0  0  0  0  0  0999 V2000
   47.8722    1.8411    6.1899 O   0  0  0  0  0  0  0  0  0  0  0  0
   47.1326    1.2519    7.0239 C   0  0  0  0  0  0  0  0  0  0  0  0
   46.9737    0.0150    7.2554 O   0  0  0  0  0  0  0  0  0  0  0  0
   46.2548    2.1627    7.9378 C   0  0  0  0  0  0  0  0  0  0  0  0
   46.3010    3.4955    7.8247 C   0  0  0  0  0  0  0  0  0  0  0  0
   45.4543    4.3154    8.7088 C   0  0  0  0  0  0  0  0  0  0  0  0
   45.4577    5.5418    8.6474 O   0  0  0  0  0  0  0  0  0  0  0  0
   44.6685    3.6346    9.5975 N   0  0  0  0  0  0  0  0  0  0  0  0
   44.6132    2.2730    9.7218 C   0  0  0  0  0  0  0  0  0  0  0  0
   43.8796    1.7348   10.5469 O   0  0  0  0  0  0  0  0  0  0  0  0
   45.4213    1.5800    8.8737 N   0  0  0  0  0  0  0  0  0  0  0  0
   45.7492    2.6131    8.4676 Mg  0  0  0  0  0 15  0  0  0  0  0  0
   46.5987   -0.2654    7.6243 O   0  0  0  0  0  0  0  0  0  0  0  0
   46.9677    0.8970    7.2755 C   0  0  0  0  0  0  0  0  0  0  0  0
   47.8357    1.2645    6.4381 O   0  0  0  0  0  0  0  0  0  0  0  0
   46.2023    2.0319    8.0248 C   0  0  0  0  0  0  0  0  0  0  0  0
   46.4694    3.3193    7.7757 C   0  0  0  0  0  0  0  0  0  0  0  0
   45.7216    4.3568    8.5071 C   0  0  0  0  0  0  0  0  0  0  0  0
   45.9266    5.5527    8.3174 O   0  0  0  0  0  0  0  0  0  0  0  0
   44.7904    3.9129    9.4053 N   0  0  0  0  0  0  0  0  0  0  0  0
   44.5090    2.5998    9.6681 C   0  0  0  0  0  0  0  0  0  0  0  0
   43.6557    2.2803   10.4918 O   0  0  0  0  0  0  0  0  0  0  0  0
   45.2376    1.6970    8.9562 N   0  0  0  0  0  0  0  0  0  0  0  0
   46.9356    4.0027    7.1091 H   0  0  0  0  0  0  0  0  0  0  0  0
   44.0833    4.1742   10.2099 H   0  0  0  0  0  0  0  0  0  0  0  0
   45.4414    0.5612    8.8999 H   0  0  0  0  0  0  0  0  0  0  0  0
   47.2144    3.6363    7.0568 H   0  0  0  0  0  0  0  0  0  0  0  0
   44.2691    4.6034    9.9150 H   0  0  0  0  0  0  0  0  0  0  0  0
   45.0911    0.6972    9.0907 H   0  0  0  0  0  0  0  0  0  0  0  0
  1  2  1  0
  2  3  2  0
  2  4  1  0
  4  5  2  0
  5  6  1  0
  6  7  2  0
  6  8  1  0
  8  9  1  0
  9 10  2  0
  9 11  1  0
  4 11  1  0
 13 14  1  0
 14 15  2  0
 14 16  1  0
 16 17  2  0
 17 18  1  0
 18 19  2  0
 18 20  1  0
 20 21  1  0
 21 22  2  0
 21 23  1  0
 16 23  1  0
  5 24  1  0
  8 25  1  0
 11 26  1  0
 17 27  1  0
 20 28  1  0
 23 29  1  0
M  CHG  3   1  -1  12   2  13  -1
M  END
> <Uni-Dock RESULT> 
ENERGY=   -7.745  LOWER_BOUND=    0.000  UPPER_BOUND=    0.000
INTER + INTRA:          -7.745
INTER:                  -7.745
INTRA:                   0.000
UNBOUND:                 0.000

$$$$

     RDKit          3D

 29 28  0  0  0  0  0  0  0  0999 V2000
   45.7226    4.0817    7.4023 O   0  0  0  0  0  0  0  0  0  0  0  0
   45.5236    3.1274    8.2018 C   0  0  0  0  0  0  0  0  0  0  0  0
   45.8983    1.9167    8.1499 O   0  0  0  0  0  0  0  0  0  0  0  0
   44.6821    3.4529    9.4750 C   0  0  0  0  0  0  0  0  0  0  0  0
   44.2074    4.6863    9.6862 C   0  0  0  0  0  0  0  0  0  0  0  0
   43.4177    4.9473   10.9025 C   0  0  0  0  0  0  0  0  0  0  0  0
   42.9585    6.0600   11.1454 O   0  0  0  0  0  0  0  0  0  0  0  0
   43.2268    3.8836   11.7409 N   0  0  0  0  0  0  0  0  0  0  0  0
   43.7072    2.6190   11.5351 C   0  0  0  0  0  0  0  0  0  0  0  0
   43.4925    1.7142   12.3375 O   0  0  0  0  0  0  0  0  0  0  0  0
   44.4272    2.4510   10.3924 N   0  0  0  0  0  0  0  0  0  0  0  0
   44.2253    3.5733   10.1934 Mg  0  0  0  0  0 15  0  0  0  0  0  0
   45.7750    1.4570    8.5087 O   0  0  0  0  0  0  0  0  0  0  0  0
   45.5793    2.7043    8.3872 C   0  0  0  0  0  0  0  0  0  0  0  0
   45.9713    3.5130    7.5029 O   0  0  0  0  0  0  0  0  0  0  0  0
   44.7083    3.3012    9.5362 C   0  0  0  0  0  0  0  0  0  0  0  0
   44.4060    4.6047    9.5612 C   0  0  0  0  0  0  0  0  0  0  0  0
   43.5806    5.1238   10.6657 C   0  0  0  0  0  0  0  0  0  0  0  0
   43.2739    6.3108   10.7373 O   0  0  0  0  0  0  0  0  0  0  0  0
   43.1780    4.2115   11.6019 N   0  0  0  0  0  0  0  0  0  0  0  0
   43.4809    2.8772   11.5866 C   0  0  0  0  0  0  0  0  0  0  0  0
   43.0805    2.1196   12.4666 O   0  0  0  0  0  0  0  0  0  0  0  0
   44.2461    2.4684   10.5378 N   0  0  0  0  0  0  0  0  0  0  0  0
   44.3775    5.5067    9.0006 H   0  0  0  0  0  0  0  0  0  0  0  0
   42.6912    4.0394   12.5760 H   0  0  0  0  0  0  0  0  0  0  0  0
   44.8216    1.5397   10.1622 H   0  0  0  0  0  0  0  0  0  0  0  0
   44.7419    5.3002    8.8025 H   0  0  0  0  0  0  0  0  0  0  0  0
   42.6145    4.5441   12.3637 H   0  0  0  0  0  0  0  0  0  0  0  0
   44.5176    1.4898   10.4498 H   0  0  0  0  0  0  0  0  0  0  0  0
  1  2  1  0
  2  3  2  0
  2  4  1  0
  4  5  2  0
  5  6  1  0
  6  7  2  0
  6  8  1  0
  8  9  1  0
  9 10  2  0
  9 11  1  0
  4 11  1  0
 13 14  1  0
 14 15  2  0
 14 16  1  0
 16 17  2  0
 17 18  1  0
 18 19  2  0
 18 20  1  0
 20 21  1  0
 21 22  2  0
 21 23  1  0
 16 23  1  0
  5 24  1  0
  8 25  1  0
 11 26  1  0
 17 27  1  0
 20 28  1  0
 23 29  1  0
M  CHG  3   1  -1  12   2  13  -1
M  END
> <Uni-Dock RESULT> 
ENERGY=   -7.313  LOWER_BOUND=    2.135  UPPER_BOUND=    2.689
INTER + INTRA:          -7.313
INTER:                  -7.313
INTRA:                   0.000
UNBOUND:                 0.000

$$$$

     RDKit          3D

 29 28  0  0  0  0  0  0  0  0999 V2000
   46.7004    6.1094   13.8888 O   0  0  0  0  0  0  0  0  0  0  0  0
   46.4558    4.8933   13.6636 C   0  0  0  0  0  0  0  0  0  0  0  0
   47.1296    3.8531   13.9335 O   0  0  0  0  0  0  0  0  0  0  0  0
   45.1121    4.5792   12.9348 C   0  0  0  0  0  0  0  0  0  0  0  0
   44.2794    5.5642   12.5774 C   0  0  0  0  0  0  0  0  0  0  0  0
   43.0217    5.2203   11.8912 C   0  0  0  0  0  0  0  0  0  0  0  0
   42.2223    6.0841   11.5414 O   0  0  0  0  0  0  0  0  0  0  0  0
   42.7978    3.8896   11.6676 N   0  0  0  0  0  0  0  0  0  0  0  0
   43.6415    2.8746   12.0284 C   0  0  0  0  0  0  0  0  0  0  0  0
   43.3687    1.7006   11.7918 O   0  0  0  0  0  0  0  0  0  0  0  0
   44.7833    3.2657   12.6576 N   0  0  0  0  0  0  0  0  0  0  0  0
   44.3867    4.3463   12.5363 Mg  0  0  0  0  0 15  0  0  0  0  0  0
   47.0320    3.2814   13.7961 O   0  0  0  0  0  0  0  0  0  0  0  0
   46.5077    4.4320   13.6961 C   0  0  0  0  0  0  0  0  0  0  0  0
   46.9156    5.5561   14.0959 O   0  0  0  0  0  0  0  0  0  0  0  0
   45.1359    4.4162   12.9523 C   0  0  0  0  0  0  0  0  0  0  0  0
   44.4469    5.5473   12.7603 C   0  0  0  0  0  0  0  0  0  0  0  0
   43.1562    5.4842   12.0526 C   0  0  0  0  0  0  0  0  0  0  0  0
   42.4833    6.4912   11.8496 O   0  0  0  0  0  0  0  0  0  0  0  0
   42.7529    4.2450   11.6371 N   0  0  0  0  0  0  0  0  0  0  0  0
   43.4488    3.0823   11.8278 C   0  0  0  0  0  0  0  0  0  0  0  0
   43.0186    2.0051   11.4237 O   0  0  0  0  0  0  0  0  0  0  0  0
   44.6313    3.2160   12.4882 N   0  0  0  0  0  0  0  0  0  0  0  0
   44.4882    6.6089   12.7701 H   0  0  0  0  0  0  0  0  0  0  0  0
   41.9463    3.6328   11.2011 H   0  0  0  0  0  0  0  0  0  0  0  0
   45.4669    2.5729   12.9604 H   0  0  0  0  0  0  0  0  0  0  0  0
   44.7960    6.5132   13.1030 H   0  0  0  0  0  0  0  0  0  0  0  0
   41.8758    4.1791   11.1526 H   0  0  0  0  0  0  0  0  0  0  0  0
   45.2129    2.3993   12.6723 H   0  0  0  0  0  0  0  0  0  0  0  0
  1  2  1  0
  2  3  2  0
  2  4  1  0
  4  5  2  0
  5  6  1  0
  6  7  2  0
  6  8  1  0
  8  9  1  0
  9 10  2  0
  9 11  1  0
  4 11  1  0
 13 14  1  0
 14 15  2  0
 14 16  1  0
 16 17  2  0
 17 18  1  0
 18 19  2  0
 18 20  1  0
 20 21  1  0
 21 22  2  0
 21 23  1  0
 16 23  1  0
  5 24  1  0
  8 25  1  0
 11 26  1  0
 17 27  1  0
 20 28  1  0
 23 29  1  0
M  CHG  3   1  -1  12   2  13  -1
M  END
> <Uni-Dock RESULT> 
ENERGY=   -7.199  LOWER_BOUND=    4.681  UPPER_BOUND=    5.419
INTER + INTRA:          -7.199
INTER:                  -7.199
INTRA:                   0.000
UNBOUND:                 0.000

$$$$

     RDKit          3D

 29 28  0  0  0  0  0  0  0  0999 V2000
   47.1596    3.5730   13.7755 O   0  0  0  0  0  0  0  0  0  0  0  0
   46.5091    4.6304   13.5556 C   0  0  0  0  0  0  0  0  0  0  0  0
   46.7833    5.8386   13.8276 O   0  0  0  0  0  0  0  0  0  0  0  0
   45.1370    4.4630   12.8314 C   0  0  0  0  0  0  0  0  0  0  0  0
   44.6945    3.2520   12.4723 C   0  0  0  0  0  0  0  0  0  0  0  0
   43.3929    3.1421   11.7907 C   0  0  0  0  0  0  0  0  0  0  0  0
   42.9397    2.0562   11.4398 O   0  0  0  0  0  0  0  0  0  0  0  0
   42.7222    4.3141   11.5728 N   0  0  0  0  0  0  0  0  0  0  0  0
   43.1647    5.5571   11.9354 C   0  0  0  0  0  0  0  0  0  0  0  0
   42.5023    6.5652   11.7038 O   0  0  0  0  0  0  0  0  0  0  0  0
   44.3737    5.5828   12.5601 N   0  0  0  0  0  0  0  0  0  0  0  0
   44.3743    4.4320   12.4356 Mg  0  0  0  0  0 15  0  0  0  0  0  0
   46.4609    6.3349   13.7562 O   0  0  0  0  0  0  0  0  0  0  0  0
   46.4326    5.0883   13.5237 C   0  0  0  0  0  0  0  0  0  0  0  0
   47.2827    4.1896   13.7675 O   0  0  0  0  0  0  0  0  0  0  0  0
   45.1176    4.6272   12.8212 C   0  0  0  0  0  0  0  0  0  0  0  0
   44.9242    3.3415   12.5039 C   0  0  0  0  0  0  0  0  0  0  0  0
   43.6671    2.9523   11.8414 C   0  0  0  0  0  0  0  0  0  0  0  0
   43.4383    1.7871   11.5284 O   0  0  0  0  0  0  0  0  0  0  0  0
   42.7743    3.9592   11.5964 N   0  0  0  0  0  0  0  0  0  0  0  0
   42.9613    5.2764   11.9163 C   0  0  0  0  0  0  0  0  0  0  0  0
   42.1093    6.1240   11.6626 O   0  0  0  0  0  0  0  0  0  0  0  0
   44.1441    5.5628   12.5256 N   0  0  0  0  0  0  0  0  0  0  0  0
   45.2520    2.3432   12.6606 H   0  0  0  0  0  0  0  0  0  0  0  0
   41.8327    4.2622   11.1095 H   0  0  0  0  0  0  0  0  0  0  0  0
   44.7770    6.4683   12.8637 H   0  0  0  0  0  0  0  0  0  0  0  0
   45.6533    2.5688   12.7126 H   0  0  0  0  0  0  0  0  0  0  0  0
   41.9106    3.7160   11.1454 H   0  0  0  0  0  0  0  0  0  0  0  0
   44.3640    6.5203   12.7978 H   0  0  0  0  0  0  0  0  0  0  0  0
  1  2  1  0
  2  3  2  0
  2  4  1  0
  4  5  2  0
  5  6  1  0
  6  7  2  0
  6  8  1  0
  8  9  1  0
  9 10  2  0
  9 11  1  0
  4 11  1  0
 13 14  1  0
 14 15  2  0
 14 16  1  0
 16 17  2  0
 17 18  1  0
 18 19  2  0
 18 20  1  0
 20 21  1  0
 21 22  2  0
 21 23  1  0
 16 23  1  0
  5 24  1  0
  8 25  1  0
 11 26  1  0
 17 27  1  0
 20 28  1  0
 23 29  1  0
M  CHG  3   1  -1  12   2  13  -1
M  END
> <Uni-Dock RESULT> 
ENERGY=   -7.030  LOWER_BOUND=    4.609  UPPER_BOUND=    5.779
INTER + INTRA:          -7.030
INTER:                  -7.030
INTRA:                   0.000
UNBOUND:                 0.000

$$$$

     RDKit          3D

 29 28  0  0  0  0  0  0  0  0999 V2000
   43.0447    1.6042   11.2723 O   0  0  0  0  0  0  0  0  0  0  0  0
   43.5133    2.6608   11.7759 C   0  0  0  0  0  0  0  0  0  0  0  0
   43.4434    3.1114   12.9595 O   0  0  0  0  0  0  0  0  0  0  0  0
   44.3171    3.5905   10.8143 C   0  0  0  0  0  0  0  0  0  0  0  0
   44.4872    3.2635    9.5276 C   0  0  0  0  0  0  0  0  0  0  0  0
   45.2534    4.1721    8.6567 C   0  0  0  0  0  0  0  0  0  0  0  0
   45.4394    3.9208    7.4693 O   0  0  0  0  0  0  0  0  0  0  0  0
   45.7429    5.3057    9.2450 N   0  0  0  0  0  0  0  0  0  0  0  0
   45.5752    5.6500   10.5586 C   0  0  0  0  0  0  0  0  0  0  0  0
   46.0472    6.6888   11.0135 O   0  0  0  0  0  0  0  0  0  0  0  0
   44.8577    4.7648   11.3030 N   0  0  0  0  0  0  0  0  0  0  0  0
   44.7686    4.1410   10.3322 Mg  0  0  0  0  0 15  0  0  0  0  0  0
   43.6337    3.6271   13.1899 O   0  0  0  0  0  0  0  0  0  0  0  0
   43.6354    2.9583   12.1121 C   0  0  0  0  0  0  0  0  0  0  0  0
   43.1543    1.8224   11.8518 O   0  0  0  0  0  0  0  0  0  0  0  0
   44.3589    3.6907   10.9394 C   0  0  0  0  0  0  0  0  0  0  0  0
   44.4517    3.1243    9.7304 C   0  0  0  0  0  0  0  0  0  0  0  0
   45.1439    3.8530    8.6531 C   0  0  0  0  0  0  0  0  0  0  0  0
   45.2577    3.3798    7.5257 O   0  0  0  0  0  0  0  0  0  0  0  0
   45.6500    5.0810    8.9802 N   0  0  0  0  0  0  0  0  0  0  0  0
   45.5611    5.6697   10.2123 C   0  0  0  0  0  0  0  0  0  0  0  0
   46.0428    6.7788   10.4281 O   0  0  0  0  0  0  0  0  0  0  0  0
   44.9089    4.9398   11.1580 N   0  0  0  0  0  0  0  0  0  0  0  0
   44.0854    2.3566    9.0939 H   0  0  0  0  0  0  0  0  0  0  0  0
   46.2683    5.9392    8.6693 H   0  0  0  0  0  0  0  0  0  0  0  0
   44.6859    4.9446   12.2915 H   0  0  0  0  0  0  0  0  0  0  0  0
   44.0390    2.1489    9.5054 H   0  0  0  0  0  0  0  0  0  0  0  0
   46.1259    5.5950    8.2607 H   0  0  0  0  0  0  0  0  0  0  0  0
   44.7978    5.3047   12.1033 H   0  0  0  0  0  0  0  0  0  0  0  0
  1  2  1  0
  2  3  2  0
  2  4  1  0
  4  5  2  0
  5  6  1  0
  6  7  2  0
  6  8  1  0
  8  9  1  0
  9 10  2  0
  9 11  1  0
  4 11  1  0
 13 14  1  0
 14 15  2  0
 14 16  1  0
 16 17  2  0
 17 18  1  0
 18 19  2  0
 18 20  1  0
 20 21  1  0
 21 22  2  0
 21 23  1  0
 16 23  1  0
  5 24  1  0
  8 25  1  0
 11 26  1  0
 17 27  1  0
 20 28  1  0
 23 29  1  0
M  CHG  3   1  -1  12   2  13  -1
M  END
> <Uni-Dock RESULT> 
ENERGY=   -6.298  LOWER_BOUND=    2.490  UPPER_BOUND=    4.493
INTER + INTRA:          -6.298
INTER:                  -6.298
INTRA:                   0.000
UNBOUND:                 0.000

$$$$

     RDKit          3D

 29 28  0  0  0  0  0  0  0  0999 V2000
   43.3359    3.6369   12.5591 O   0  0  0  0  0  0  0  0  0  0  0  0
   43.2173    4.8770   12.3649 C   0  0  0  0  0  0  0  0  0  0  0  0
   42.2270    5.5566   11.9571 O   0  0  0  0  0  0  0  0  0  0  0  0
   44.4756    5.7497   12.6654 C   0  0  0  0  0  0  0  0  0  0  0  0
   45.6091    5.1901   13.1049 C   0  0  0  0  0  0  0  0  0  0  0  0
   46.7719    6.0536   13.3754 C   0  0  0  0  0  0  0  0  0  0  0  0
   47.8358    5.5927   13.7797 O   0  0  0  0  0  0  0  0  0  0  0  0
   46.5982    7.3916   13.1510 N   0  0  0  0  0  0  0  0  0  0  0  0
   45.4446    7.9745   12.7021 C   0  0  0  0  0  0  0  0  0  0  0  0
   45.3670    9.1874   12.5248 O   0  0  0  0  0  0  0  0  0  0  0  0
   44.4126    7.1170   12.4734 N   0  0  0  0  0  0  0  0  0  0  0  0
   45.1359    6.2800   12.8140 Mg  0  0  0  0  0 15  0  0  0  0  0  0
   42.1808    6.1374   11.8313 O   0  0  0  0  0  0  0  0  0  0  0  0
   42.9987    5.2794   12.2827 C   0  0  0  0  0  0  0  0  0  0  0  0
   42.8612    4.0423   12.4832 O   0  0  0  0  0  0  0  0  0  0  0  0
   44.3907    5.8892   12.6372 C   0  0  0  0  0  0  0  0  0  0  0  0
   45.3713    5.1210   13.1264 C   0  0  0  0  0  0  0  0  0  0  0  0
   46.6693    5.7403   13.4467 C   0  0  0  0  0  0  0  0  0  0  0  0
   47.6027    5.0822   13.8979 O   0  0  0  0  0  0  0  0  0  0  0  0
   46.7735    7.0841   13.2136 N   0  0  0  0  0  0  0  0  0  0  0  0
   45.7781    7.8790   12.7139 C   0  0  0  0  0  0  0  0  0  0  0  0
   45.9497    9.0816   12.5321 O   0  0  0  0  0  0  0  0  0  0  0  0
   44.6077    7.2401   12.4412 N   0  0  0  0  0  0  0  0  0  0  0  0
   45.7124    4.1255   13.2720 H   0  0  0  0  0  0  0  0  0  0  0  0
   47.3783    7.9986   13.3290 H   0  0  0  0  0  0  0  0  0  0  0  0
   43.5167    7.4684   12.1375 H   0  0  0  0  0  0  0  0  0  0  0  0
   45.2547    4.0586   13.2991 H   0  0  0  0  0  0  0  0  0  0  0  0
   47.6498    7.5266   13.4250 H   0  0  0  0  0  0  0  0  0  0  0  0
   43.8141    7.7582   12.0659 H   0  0  0  0  0  0  0  0  0  0  0  0
  1  2  1  0
  2  3  2  0
  2  4  1  0
  4  5  2  0
  5  6  1  0
  6  7  2  0
  6  8  1  0
  8  9  1  0
  9 10  2  0
  9 11  1  0
  4 11  1  0
 13 14  1  0
 14 15  2  0
 14 16  1  0
 16 17  2  0
 17 18  1  0
 18 19  2  0
 18 20  1  0
 20 21  1  0
 21 22  2  0
 21 23  1  0
 16 23  1  0
  5 24  1  0
  8 25  1  0
 11 26  1  0
 17 27  1  0
 20 28  1  0
 23 29  1  0
M  CHG  3   1  -1  12   2  13  -1
M  END
> <Uni-Dock RESULT> 
ENERGY=   -5.999  LOWER_BOUND=    5.782  UPPER_BOUND=    6.737
INTER + INTRA:          -5.999
INTER:                  -5.999
INTRA:                   0.000
UNBOUND:                 0.000

$$$$

     RDKit          3D

 29 28  0  0  0  0  0  0  0  0999 V2000
   42.4821    6.4511   11.4973 O   0  0  0  0  0  0  0  0  0  0  0  0
   43.0309    5.3723   11.8505 C   0  0  0  0  0  0  0  0  0  0  0  0
   42.6136    4.1762   11.7882 O   0  0  0  0  0  0  0  0  0  0  0  0
   44.4583    5.4904   12.4699 C   0  0  0  0  0  0  0  0  0  0  0  0
   45.0488    6.6834   12.6090 C   0  0  0  0  0  0  0  0  0  0  0  0
   46.3974    6.7464   13.1992 C   0  0  0  0  0  0  0  0  0  0  0  0
   46.9848    7.8142   13.3499 O   0  0  0  0  0  0  0  0  0  0  0  0
   46.9540    5.5526   13.5676 N   0  0  0  0  0  0  0  0  0  0  0  0
   46.3598    4.3277   13.4302 C   0  0  0  0  0  0  0  0  0  0  0  0
   46.9264    3.2977   13.7862 O   0  0  0  0  0  0  0  0  0  0  0  0
   45.1159    4.3453   12.8780 N   0  0  0  0  0  0  0  0  0  0  0  0
   45.2447    5.4940   12.8174 Mg  0  0  0  0  0 15  0  0  0  0  0  0
   42.8570    3.6698   11.9871 O   0  0  0  0  0  0  0  0  0  0  0  0
   43.0908    4.9121   11.8831 C   0  0  0  0  0  0  0  0  0  0  0  0
   42.3942    5.8383   11.3867 O   0  0  0  0  0  0  0  0  0  0  0  0
   44.4738    5.3256   12.4761 C   0  0  0  0  0  0  0  0  0  0  0  0
   44.8781    6.6010   12.4483 C   0  0  0  0  0  0  0  0  0  0  0  0
   46.1917    6.9449   13.0200 C   0  0  0  0  0  0  0  0  0  0  0  0
   46.6114    8.0990   13.0207 O   0  0  0  0  0  0  0  0  0  0  0  0
   46.9129    5.9092   13.5473 N   0  0  0  0  0  0  0  0  0  0  0  0
   46.5098    4.6020   13.5812 C   0  0  0  0  0  0  0  0  0  0  0  0
   47.2167    3.7265   14.0737 O   0  0  0  0  0  0  0  0  0  0  0  0
   45.2869    4.3580   13.0357 N   0  0  0  0  0  0  0  0  0  0  0  0
   44.5788    7.6104   12.3062 H   0  0  0  0  0  0  0  0  0  0  0  0
   47.8730    5.5726   13.9722 H   0  0  0  0  0  0  0  0  0  0  0  0
   44.6022    3.4758   12.7397 H   0  0  0  0  0  0  0  0  0  0  0  0
   44.2810    7.3974   12.0223 H   0  0  0  0  0  0  0  0  0  0  0  0
   47.8115    6.1213   13.9424 H   0  0  0  0  0  0  0  0  0  0  0  0
   44.9104    3.4109   13.0197 H   0  0  0  0  0  0  0  0  0  0  0  0
  1  2  1  0
  2  3  2  0
  2  4  1  0
  4  5  2  0
  5  6  1  0
  6  7  2  0
  6  8  1  0
  8  9  1  0
  9 10  2  0
  9 11  1  0
  4 11  1  0
 13 14  1  0
 14 15  2  0
 14 16  1  0
 16 17  2  0
 17 18  1  0
 18 19  2  0
 18 20  1  0
 20 21  1  0
 21 22  2  0
 21 23  1  0
 16 23  1  0
  5 24  1  0
  8 25  1  0
 11 26  1  0
 17 27  1  0
 20 28  1  0
 23 29  1  0
M  CHG  3   1  -1  12   2  13  -1
M  END
> <Uni-Dock RESULT> 
ENERGY=   -5.990  LOWER_BOUND=    5.337  UPPER_BOUND=    6.040
INTER + INTRA:          -5.990
INTER:                  -5.990
INTRA:                   0.000
UNBOUND:                 0.000

$$$$

     RDKit          3D

 29 28  0  0  0  0  0  0  0  0999 V2000
   47.5022    7.3121   13.4183 O   0  0  0  0  0  0  0  0  0  0  0  0
   46.3206    7.5799   13.0692 C   0  0  0  0  0  0  0  0  0  0  0  0
   45.7394    8.6968   12.9157 O   0  0  0  0  0  0  0  0  0  0  0  0
   45.3931    6.3616   12.7684 C   0  0  0  0  0  0  0  0  0  0  0  0
   45.8489    5.1084   12.8817 C   0  0  0  0  0  0  0  0  0  0  0  0
   44.9370    3.9890   12.5875 C   0  0  0  0  0  0  0  0  0  0  0  0
   45.3032    2.8203   12.6755 O   0  0  0  0  0  0  0  0  0  0  0  0
   43.6655    4.3259   12.2128 N   0  0  0  0  0  0  0  0  0  0  0  0
   43.1887    5.6030   12.0937 C   0  0  0  0  0  0  0  0  0  0  0  0
   42.0304    5.8245   11.7506 O   0  0  0  0  0  0  0  0  0  0  0  0
   44.0855    6.5858   12.3808 N   0  0  0  0  0  0  0  0  0  0  0  0
   44.8369    5.7306   12.5900 Mg  0  0  0  0  0 15  0  0  0  0  0  0
   45.1718    8.8239   12.7855 O   0  0  0  0  0  0  0  0  0  0  0  0
   45.9643    7.8438   12.9283 C   0  0  0  0  0  0  0  0  0  0  0  0
   47.1935    7.8178   13.2074 O   0  0  0  0  0  0  0  0  0  0  0  0
   45.2714    6.4616   12.7172 C   0  0  0  0  0  0  0  0  0  0  0  0
   45.9645    5.3225   12.8313 C   0  0  0  0  0  0  0  0  0  0  0  0
   45.2685    4.0408   12.6233 C   0  0  0  0  0  0  0  0  0  0  0  0
   45.8562    2.9665   12.7158 O   0  0  0  0  0  0  0  0  0  0  0  0
   43.9362    4.1165   12.3226 N   0  0  0  0  0  0  0  0  0  0  0  0
   43.2176    5.2749   12.2035 C   0  0  0  0  0  0  0  0  0  0  0  0
   42.0202    5.2602   11.9300 O   0  0  0  0  0  0  0  0  0  0  0  0
   43.9247    6.4196   12.4087 N   0  0  0  0  0  0  0  0  0  0  0  0
   46.8632    4.8770   13.1813 H   0  0  0  0  0  0  0  0  0  0  0  0
   43.0272    3.5782   12.0076 H   0  0  0  0  0  0  0  0  0  0  0  0
   43.8125    7.5658   12.3172 H   0  0  0  0  0  0  0  0  0  0  0  0
   47.0201    5.2987   13.0709 H   0  0  0  0  0  0  0  0  0  0  0  0
   43.4422    3.2545   12.1768 H   0  0  0  0  0  0  0  0  0  0  0  0
   43.4658    7.3271   12.3391 H   0  0  0  0  0  0  0  0  0  0  0  0
  1  2  1  0
  2  3  2  0
  2  4  1  0
  4  5  2  0
  5  6  1  0
  6  7  2  0
  6  8  1  0
  8  9  1  0
  9 10  2  0
  9 11  1  0
  4 11  1  0
 13 14  1  0
 14 15  2  0
 14 16  1  0
 16 17  2  0
 17 18  1  0
 18 19  2  0
 18 20  1  0
 20 21  1  0
 21 22  2  0
 21 23  1  0
 16 23  1  0
  5 24  1  0
  8 25  1  0
 11 26  1  0
 17 27  1  0
 20 28  1  0
 23 29  1  0
M  CHG  3   1  -1  12   2  13  -1
M  END
> <Uni-Dock RESULT> 
ENERGY=   -5.934  LOWER_BOUND=    4.930  UPPER_BOUND=    6.475
INTER + INTRA:          -5.934
INTER:                  -5.934
INTRA:                   0.000
UNBOUND:                 0.000

$$$$

     RDKit          3D

 29 28  0  0  0  0  0  0  0  0999 V2000
   44.6634    8.8618   12.2085 O   0  0  0  0  0  0  0  0  0  0  0  0
   45.5350    8.0846   12.6839 C   0  0  0  0  0  0  0  0  0  0  0  0
   46.6715    8.3314   13.1902 O   0  0  0  0  0  0  0  0  0  0  0  0
   45.1929    6.5622   12.6623 C   0  0  0  0  0  0  0  0  0  0  0  0
   44.0305    6.1277   12.1611 C   0  0  0  0  0  0  0  0  0  0  0  0
   43.7505    4.6811   12.1615 C   0  0  0  0  0  0  0  0  0  0  0  0
   42.7004    4.2286   11.7140 O   0  0  0  0  0  0  0  0  0  0  0  0
   44.7235    3.8759   12.6866 N   0  0  0  0  0  0  0  0  0  0  0  0
   45.9150    4.3088   13.2015 C   0  0  0  0  0  0  0  0  0  0  0  0
   46.7400    3.5208   13.6563 O   0  0  0  0  0  0  0  0  0  0  0  0
   46.1056    5.6561   13.1685 N   0  0  0  0  0  0  0  0  0  0  0  0
   45.0592    5.7130   12.6768 Mg  0  0  0  0  0 15  0  0  0  0  0  0
   47.0986    7.9628   13.3824 O   0  0  0  0  0  0  0  0  0  0  0  0
   45.9194    7.9612   12.9151 C   0  0  0  0  0  0  0  0  0  0  0  0
   45.1713    8.9174   12.5751 O   0  0  0  0  0  0  0  0  0  0  0  0
   45.3304    6.5259   12.7472 C   0  0  0  0  0  0  0  0  0  0  0  0
   44.0950    6.3436   12.2660 C   0  0  0  0  0  0  0  0  0  0  0  0
   43.5806    4.9702   12.1248 C   0  0  0  0  0  0  0  0  0  0  0  0
   42.4546    4.7461   11.6889 O   0  0  0  0  0  0  0  0  0  0  0  0
   44.4258    3.9644   12.5056 N   0  0  0  0  0  0  0  0  0  0  0  0
   45.6902    4.1389   12.9987 C   0  0  0  0  0  0  0  0  0  0  0  0
   46.3900    3.1818   13.3197 O   0  0  0  0  0  0  0  0  0  0  0  0
   46.0990    5.4331   13.1016 N   0  0  0  0  0  0  0  0  0  0  0  0
   43.2812    6.7939   11.7526 H   0  0  0  0  0  0  0  0  0  0  0  0
   44.5532    2.8861   12.6967 H   0  0  0  0  0  0  0  0  0  0  0  0
   46.9666    6.0628   13.5321 H   0  0  0  0  0  0  0  0  0  0  0  0
   43.4515    7.1638   11.9736 H   0  0  0  0  0  0  0  0  0  0  0  0
   44.0952    3.0203   12.4177 H   0  0  0  0  0  0  0  0  0  0  0  0
   47.0279    5.6522   13.4597 H   0  0  0  0  0  0  0  0  0  0  0  0
  1  2  1  0
  2  3  2  0
  2  4  1  0
  4  5  2  0
  5  6  1  0
  6  7  2  0
  6  8  1  0
  8  9  1  0
  9 10  2  0
  9 11  1  0
  4 11  1  0
 13 14  1  0
 14 15  2  0
 14 16  1  0
 16 17  2  0
 17 18  1  0
 18 19  2  0
 18 20  1  0
 20 21  1  0
 21 22  2  0
 21 23  1  0
 16 23  1  0
  5 24  1  0
  8 25  1  0
 11 26  1  0
 17 27  1  0
 20 28  1  0
 23 29  1  0
M  CHG  3   1  -1  12   2  13  -1
M  END
> <Uni-Dock RESULT> 
ENERGY=   -5.496  LOWER_BOUND=    5.120  UPPER_BOUND=    6.532
INTER + INTRA:          -5.496
INTER:                  -5.496
INTRA:                   0.000
UNBOUND:                 0.000

$$$$
