
     RDKit          3D

 29 28  0  0  0  0  0  0  0  0999 V2000
   44.6697    1.6726    9.2643 O   0  0  0  0  0  0  0  0  0  0  0  0
   44.7167    2.9139    9.0074 C   0  0  0  0  0  0  0  0  0  0  0  0
   45.0187    3.5197    7.9438 O   0  0  0  0  0  0  0  0  0  0  0  0
   44.3324    3.8059   10.2288 C   0  0  0  0  0  0  0  0  0  0  0  0
   44.3304    5.1406   10.1293 C   0  0  0  0  0  0  0  0  0  0  0  0
   43.9607    5.9425   11.3089 C   0  0  0  0  0  0  0  0  0  0  0  0
   43.9423    7.1698   11.2728 O   0  0  0  0  0  0  0  0  0  0  0  0
   43.6407    5.2439   12.4404 N   0  0  0  0  0  0  0  0  0  0  0  0
   43.6393    3.8802   12.5535 C   0  0  0  0  0  0  0  0  0  0  0  0
   43.3391    3.3254   13.6073 O   0  0  0  0  0  0  0  0  0  0  0  0
   43.9908    3.2046   11.4254 N   0  0  0  0  0  0  0  0  0  0  0  0
   44.1123    4.2456   10.9341 Mg  0  0  0  0  0 15  0  0  0  0  0  0
   45.3639    1.9240    9.1079 O   0  0  0  0  0  0  0  0  0  0  0  0
   44.6801    2.9724    8.9573 C   0  0  0  0  0  0  0  0  0  0  0  0
   44.2126    3.5080    7.9067 O   0  0  0  0  0  0  0  0  0  0  0  0
   44.3333    3.7671   10.2548 C   0  0  0  0  0  0  0  0  0  0  0  0
   44.7502    3.3397   11.4526 C   0  0  0  0  0  0  0  0  0  0  0  0
   44.3989    4.1225   12.6505 C   0  0  0  0  0  0  0  0  0  0  0  0
   44.7553    3.7758   13.7733 O   0  0  0  0  0  0  0  0  0  0  0  0
   43.6565    5.2518   12.4400 N   0  0  0  0  0  0  0  0  0  0  0  0
   43.2251    5.6982   11.2206 C   0  0  0  0  0  0  0  0  0  0  0  0
   42.5601    6.7254   11.1134 O   0  0  0  0  0  0  0  0  0  0  0  0
   43.5862    4.9260   10.1595 N   0  0  0  0  0  0  0  0  0  0  0  0
   44.5895    5.6622    9.2167 H   0  0  0  0  0  0  0  0  0  0  0  0
   43.3856    5.7709   13.2563 H   0  0  0  0  0  0  0  0  0  0  0  0
   44.0157    2.1855   11.4229 H   0  0  0  0  0  0  0  0  0  0  0  0
   45.3373    2.4396   11.5835 H   0  0  0  0  0  0  0  0  0  0  0  0
   43.4059    5.8004   13.2430 H   0  0  0  0  0  0  0  0  0  0  0  0
   43.3060    5.1867    9.2147 H   0  0  0  0  0  0  0  0  0  0  0  0
  1  2  1  0
  2  3  2  0
  2  4  1  0
  4  5  2  0
  5  6  1  0
  6  7  2  0
  6  8  1  0
  8  9  1  0
  9 10  2  0
  9 11  1  0
  4 11  1  0
 13 14  1  0
 14 15  2  0
 14 16  1  0
 16 17  2  0
 17 18  1  0
 18 19  2  0
 18 20  1  0
 20 21  1  0
 21 22  2  0
 21 23  1  0
 16 23  1  0
  5 24  1  0
  8 25  1  0
 11 26  1  0
 17 27  1  0
 20 28  1  0
 23 29  1  0
M  CHG  3   1  -1  12   2  13  -1
M  END
> <Uni-Dock RESULT> 
ENERGY=   -6.169  LOWER_BOUND=    0.000  UPPER_BOUND=    0.000
INTER + INTRA:          -6.169
INTER:                  -6.169
INTRA:                   0.000
UNBOUND:                 0.000

$$$$

     RDKit          3D

 29 28  0  0  0  0  0  0  0  0999 V2000
   44.0400    3.7096    8.1400 O   0  0  0  0  0  0  0  0  0  0  0  0
   45.0720    4.1878    8.7015 C   0  0  0  0  0  0  0  0  0  0  0  0
   46.2887    4.1145    8.3792 O   0  0  0  0  0  0  0  0  0  0  0  0
   44.7452    4.9912    9.9988 C   0  0  0  0  0  0  0  0  0  0  0  0
   45.7204    5.5633   10.7149 C   0  0  0  0  0  0  0  0  0  0  0  0
   45.3646    6.3122   11.9330 C   0  0  0  0  0  0  0  0  0  0  0  0
   46.2192    6.8564   12.6268 O   0  0  0  0  0  0  0  0  0  0  0  0
   44.0338    6.3657   12.2443 N   0  0  0  0  0  0  0  0  0  0  0  0
   43.0286    5.7849   11.5199 C   0  0  0  0  0  0  0  0  0  0  0  0
   41.8538    5.8782   11.8658 O   0  0  0  0  0  0  0  0  0  0  0  0
   43.4305    5.1100   10.4083 N   0  0  0  0  0  0  0  0  0  0  0  0
   44.5055    5.4210   10.7039 Mg  0  0  0  0  0 15  0  0  0  0  0  0
   44.5126    3.1840    8.4046 O   0  0  0  0  0  0  0  0  0  0  0  0
   45.1354    4.2431    8.6872 C   0  0  0  0  0  0  0  0  0  0  0  0
   46.0784    4.8328    8.0773 O   0  0  0  0  0  0  0  0  0  0  0  0
   44.7014    4.9752    9.9953 C   0  0  0  0  0  0  0  0  0  0  0  0
   43.7182    4.4865   10.7605 C   0  0  0  0  0  0  0  0  0  0  0  0
   43.3422    5.2116   11.9868 C   0  0  0  0  0  0  0  0  0  0  0  0
   42.4476    4.8077   12.7247 O   0  0  0  0  0  0  0  0  0  0  0  0
   44.0440    6.3548   12.2540 N   0  0  0  0  0  0  0  0  0  0  0  0
   45.0505    6.8636   11.4792 C   0  0  0  0  0  0  0  0  0  0  0  0
   45.6348    7.8991   11.7875 O   0  0  0  0  0  0  0  0  0  0  0  0
   45.3441    6.1422   10.3629 N   0  0  0  0  0  0  0  0  0  0  0  0
   46.7656    5.5011   10.4394 H   0  0  0  0  0  0  0  0  0  0  0  0
   43.7690    6.8712   13.0707 H   0  0  0  0  0  0  0  0  0  0  0  0
   42.7454    4.6476    9.8116 H   0  0  0  0  0  0  0  0  0  0  0  0
   43.1825    3.5772   10.5190 H   0  0  0  0  0  0  0  0  0  0  0  0
   43.8039    6.8648   13.0851 H   0  0  0  0  0  0  0  0  0  0  0  0
   46.0813    6.4510    9.7302 H   0  0  0  0  0  0  0  0  0  0  0  0
  1  2  1  0
  2  3  2  0
  2  4  1  0
  4  5  2  0
  5  6  1  0
  6  7  2  0
  6  8  1  0
  8  9  1  0
  9 10  2  0
  9 11  1  0
  4 11  1  0
 13 14  1  0
 14 15  2  0
 14 16  1  0
 16 17  2  0
 17 18  1  0
 18 19  2  0
 18 20  1  0
 20 21  1  0
 21 22  2  0
 21 23  1  0
 16 23  1  0
  5 24  1  0
  8 25  1  0
 11 26  1  0
 17 27  1  0
 20 28  1  0
 23 29  1  0
M  CHG  3   1  -1  12   2  13  -1
M  END
> <Uni-Dock RESULT> 
ENERGY=   -6.009  LOWER_BOUND=    1.439  UPPER_BOUND=    2.034
INTER + INTRA:          -6.009
INTER:                  -6.009
INTRA:                   0.000
UNBOUND:                 0.000

$$$$

     RDKit          3D

 29 28  0  0  0  0  0  0  0  0999 V2000
   44.9889    3.8024    7.9973 O   0  0  0  0  0  0  0  0  0  0  0  0
   44.7004    3.0437    8.9719 C   0  0  0  0  0  0  0  0  0  0  0  0
   44.6593    1.7858    9.0471 O   0  0  0  0  0  0  0  0  0  0  0  0
   44.3437    3.8284   10.2728 C   0  0  0  0  0  0  0  0  0  0  0  0
   44.0148    3.1798   11.3964 C   0  0  0  0  0  0  0  0  0  0  0  0
   43.6855    3.9625   12.6006 C   0  0  0  0  0  0  0  0  0  0  0  0
   43.3772    3.4185   13.6574 O   0  0  0  0  0  0  0  0  0  0  0  0
   43.7430    5.3231   12.4734 N   0  0  0  0  0  0  0  0  0  0  0  0
   44.0779    5.9967   11.3303 C   0  0  0  0  0  0  0  0  0  0  0  0
   44.1071    7.2240   11.2956 O   0  0  0  0  0  0  0  0  0  0  0  0
   44.3696    5.2102   10.2584 N   0  0  0  0  0  0  0  0  0  0  0  0
   44.1570    4.3130   10.9581 Mg  0  0  0  0  0 15  0  0  0  0  0  0
   44.3616    3.3966    7.8906 O   0  0  0  0  0  0  0  0  0  0  0  0
   44.7354    2.9837    9.0217 C   0  0  0  0  0  0  0  0  0  0  0  0
   45.3914    1.9476    9.3456 O   0  0  0  0  0  0  0  0  0  0  0  0
   44.3440    3.8673   10.2470 C   0  0  0  0  0  0  0  0  0  0  0  0
   43.6485    4.9989   10.0820 C   0  0  0  0  0  0  0  0  0  0  0  0
   43.3013    5.8013   11.2680 C   0  0  0  0  0  0  0  0  0  0  0  0
   42.6651    6.8473   11.1738 O   0  0  0  0  0  0  0  0  0  0  0  0
   43.7269    5.3156   12.4739 N   0  0  0  0  0  0  0  0  0  0  0  0
   44.4381    4.1607   12.6543 C   0  0  0  0  0  0  0  0  0  0  0  0
   44.7849    3.7904   13.7729 O   0  0  0  0  0  0  0  0  0  0  0  0
   44.7230    3.4713   11.5157 N   0  0  0  0  0  0  0  0  0  0  0  0
   43.9790    2.0998   11.4623 H   0  0  0  0  0  0  0  0  0  0  0  0
   43.5223    5.8760   13.2822 H   0  0  0  0  0  0  0  0  0  0  0  0
   44.6291    5.6313    9.3670 H   0  0  0  0  0  0  0  0  0  0  0  0
   43.3270    5.3547    9.1114 H   0  0  0  0  0  0  0  0  0  0  0  0
   43.5011    5.8471   13.2955 H   0  0  0  0  0  0  0  0  0  0  0  0
   45.2495    2.5996   11.5604 H   0  0  0  0  0  0  0  0  0  0  0  0
  1  2  1  0
  2  3  2  0
  2  4  1  0
  4  5  2  0
  5  6  1  0
  6  7  2  0
  6  8  1  0
  8  9  1  0
  9 10  2  0
  9 11  1  0
  4 11  1  0
 13 14  1  0
 14 15  2  0
 14 16  1  0
 16 17  2  0
 17 18  1  0
 18 19  2  0
 18 20  1  0
 20 21  1  0
 21 22  2  0
 21 23  1  0
 16 23  1  0
  5 24  1  0
  8 25  1  0
 11 26  1  0
 17 27  1  0
 20 28  1  0
 23 29  1  0
M  CHG  3   1  -1  12   2  13  -1
M  END
> <Uni-Dock RESULT> 
ENERGY=   -5.953  LOWER_BOUND=    0.348  UPPER_BOUND=    2.549
INTER + INTRA:          -5.953
INTER:                  -5.953
INTRA:                   0.000
UNBOUND:                 0.000

$$$$

     RDKit          3D

 29 28  0  0  0  0  0  0  0  0999 V2000
   42.5174    4.6974   12.6954 O   0  0  0  0  0  0  0  0  0  0  0  0
   43.2110    5.5013   12.0014 C   0  0  0  0  0  0  0  0  0  0  0  0
   42.8941    6.2106   11.0085 O   0  0  0  0  0  0  0  0  0  0  0  0
   44.6918    5.6039   12.4831 C   0  0  0  0  0  0  0  0  0  0  0  0
   45.5611    6.4086   11.8603 C   0  0  0  0  0  0  0  0  0  0  0  0
   46.9493    6.4733   12.3502 C   0  0  0  0  0  0  0  0  0  0  0  0
   47.7874    7.1945   11.8161 O   0  0  0  0  0  0  0  0  0  0  0  0
   47.2483    5.6874   13.4290 N   0  0  0  0  0  0  0  0  0  0  0  0
   46.3681    4.8614   14.0734 C   0  0  0  0  0  0  0  0  0  0  0  0
   46.7140    4.1849   15.0383 O   0  0  0  0  0  0  0  0  0  0  0  0
   45.1047    4.8522   13.5669 N   0  0  0  0  0  0  0  0  0  0  0  0
   45.4938    5.6196   12.7926 Mg  0  0  0  0  0 15  0  0  0  0  0  0
   42.6080    4.4792   11.9786 O   0  0  0  0  0  0  0  0  0  0  0  0
   43.2154    5.5840   11.9808 C   0  0  0  0  0  0  0  0  0  0  0  0
   42.8313    6.7368   11.6171 O   0  0  0  0  0  0  0  0  0  0  0  0
   44.6829    5.5678   12.5114 C   0  0  0  0  0  0  0  0  0  0  0  0
   45.2459    4.4304   12.9362 C   0  0  0  0  0  0  0  0  0  0  0  0
   46.6342    4.4629   13.4288 C   0  0  0  0  0  0  0  0  0  0  0  0
   47.1987    3.4490   13.8301 O   0  0  0  0  0  0  0  0  0  0  0  0
   47.2542    5.6821   13.4131 N   0  0  0  0  0  0  0  0  0  0  0  0
   46.6888    6.8508   12.9812 C   0  0  0  0  0  0  0  0  0  0  0  0
   47.3127    7.9087   12.9985 O   0  0  0  0  0  0  0  0  0  0  0  0
   45.4052    6.7458   12.5405 N   0  0  0  0  0  0  0  0  0  0  0  0
   45.2905    7.0182   11.0075 H   0  0  0  0  0  0  0  0  0  0  0  0
   48.1891    5.7162   13.7793 H   0  0  0  0  0  0  0  0  0  0  0  0
   44.3862    4.2643   13.9878 H   0  0  0  0  0  0  0  0  0  0  0  0
   44.7255    3.4810   12.9350 H   0  0  0  0  0  0  0  0  0  0  0  0
   48.2011    5.7269   13.7446 H   0  0  0  0  0  0  0  0  0  0  0  0
   44.9090    7.5690   12.2010 H   0  0  0  0  0  0  0  0  0  0  0  0
  1  2  1  0
  2  3  2  0
  2  4  1  0
  4  5  2  0
  5  6  1  0
  6  7  2  0
  6  8  1  0
  8  9  1  0
  9 10  2  0
  9 11  1  0
  4 11  1  0
 13 14  1  0
 14 15  2  0
 14 16  1  0
 16 17  2  0
 17 18  1  0
 18 19  2  0
 18 20  1  0
 20 21  1  0
 21 22  2  0
 21 23  1  0
 16 23  1  0
  5 24  1  0
  8 25  1  0
 11 26  1  0
 17 27  1  0
 20 28  1  0
 23 29  1  0
M  CHG  3   1  -1  12   2  13  -1
M  END
> <Uni-Dock RESULT> 
ENERGY=   -5.304  LOWER_BOUND=    2.891  UPPER_BOUND=    3.731
INTER + INTRA:          -5.304
INTER:                  -5.304
INTRA:                   0.000
UNBOUND:                 0.000

$$$$

     RDKit          3D

 29 28  0  0  0  0  0  0  0  0999 V2000
   42.9941    6.4715   10.8988 O   0  0  0  0  0  0  0  0  0  0  0  0
   43.1455    5.6356   11.8407 C   0  0  0  0  0  0  0  0  0  0  0  0
   42.3273    4.8296   12.3606 O   0  0  0  0  0  0  0  0  0  0  0  0
   44.5916    5.6313   12.4275 C   0  0  0  0  0  0  0  0  0  0  0  0
   44.9226    4.8074   13.4289 C   0  0  0  0  0  0  0  0  0  0  0  0
   46.3001    4.8381   13.9512 C   0  0  0  0  0  0  0  0  0  0  0  0
   46.6572    4.1040   14.8685 O   0  0  0  0  0  0  0  0  0  0  0  0
   47.1534    5.7272   13.3577 N   0  0  0  0  0  0  0  0  0  0  0  0
   46.8261    6.5739   12.3338 C   0  0  0  0  0  0  0  0  0  0  0  0
   47.6513    7.3458   11.8526 O   0  0  0  0  0  0  0  0  0  0  0  0
   45.5377    6.4910   11.9024 N   0  0  0  0  0  0  0  0  0  0  0  0
   45.4025    5.6730   12.7100 Mg  0  0  0  0  0 15  0  0  0  0  0  0
   42.5840    6.6284   11.5126 O   0  0  0  0  0  0  0  0  0  0  0  0
   43.1428    5.5516   11.8556 C   0  0  0  0  0  0  0  0  0  0  0  0
   42.7154    4.3575   11.8336 O   0  0  0  0  0  0  0  0  0  0  0  0
   44.5999    5.6694   12.4018 C   0  0  0  0  0  0  0  0  0  0  0  0
   45.2040    6.8602   12.4923 C   0  0  0  0  0  0  0  0  0  0  0  0
   46.5805    6.9232   13.0140 C   0  0  0  0  0  0  0  0  0  0  0  0
   47.1814    7.9890   13.1180 O   0  0  0  0  0  0  0  0  0  0  0  0
   47.1472    5.7314   13.3738 N   0  0  0  0  0  0  0  0  0  0  0  0
   46.5394    4.5087   13.2857 C   0  0  0  0  0  0  0  0  0  0  0  0
   47.1164    3.4805   13.6301 O   0  0  0  0  0  0  0  0  0  0  0  0
   45.2697    4.5263   12.7954 N   0  0  0  0  0  0  0  0  0  0  0  0
   44.2210    4.1149   13.8763 H   0  0  0  0  0  0  0  0  0  0  0  0
   48.0974    5.7646   13.6984 H   0  0  0  0  0  0  0  0  0  0  0  0
   45.2105    7.0868   11.1427 H   0  0  0  0  0  0  0  0  0  0  0  0
   44.7254    7.7857   12.1980 H   0  0  0  0  0  0  0  0  0  0  0  0
   48.0852    5.7514   13.7320 H   0  0  0  0  0  0  0  0  0  0  0  0
   44.7443    3.6583   12.6969 H   0  0  0  0  0  0  0  0  0  0  0  0
  1  2  1  0
  2  3  2  0
  2  4  1  0
  4  5  2  0
  5  6  1  0
  6  7  2  0
  6  8  1  0
  8  9  1  0
  9 10  2  0
  9 11  1  0
  4 11  1  0
 13 14  1  0
 14 15  2  0
 14 16  1  0
 16 17  2  0
 17 18  1  0
 18 19  2  0
 18 20  1  0
 20 21  1  0
 21 22  2  0
 21 23  1  0
 16 23  1  0
  5 24  1  0
  8 25  1  0
 11 26  1  0
 17 27  1  0
 20 28  1  0
 23 29  1  0
M  CHG  3   1  -1  12   2  13  -1
M  END
> <Uni-Dock RESULT> 
ENERGY=   -5.137  LOWER_BOUND=    2.818  UPPER_BOUND=    4.347
INTER + INTRA:          -5.137
INTER:                  -5.137
INTRA:                   0.000
UNBOUND:                 0.000

$$$$

     RDKit          3D

 29 28  0  0  0  0  0  0  0  0999 V2000
   46.3377    7.5572   13.4063 O   0  0  0  0  0  0  0  0  0  0  0  0
   46.5828    7.1348   12.2357 C   0  0  0  0  0  0  0  0  0  0  0  0
   47.5804    7.3236   11.4883 O   0  0  0  0  0  0  0  0  0  0  0  0
   45.4429    6.2390   11.6580 C   0  0  0  0  0  0  0  0  0  0  0  0
   45.5408    5.7103   10.4324 C   0  0  0  0  0  0  0  0  0  0  0  0
   44.4398    4.8708    9.9284 C   0  0  0  0  0  0  0  0  0  0  0  0
   44.4780    4.3612    8.8119 O   0  0  0  0  0  0  0  0  0  0  0  0
   43.3782    4.6930   10.7724 N   0  0  0  0  0  0  0  0  0  0  0  0
   43.2674    5.2284   12.0268 C   0  0  0  0  0  0  0  0  0  0  0  0
   42.2791    5.0218   12.7261 O   0  0  0  0  0  0  0  0  0  0  0  0
   44.3208    5.9923   12.4262 N   0  0  0  0  0  0  0  0  0  0  0  0
   44.7843    5.7541   11.3927 Mg  0  0  0  0  0 15  0  0  0  0  0  0
   46.3753    8.1044   12.8879 O   0  0  0  0  0  0  0  0  0  0  0  0
   46.6383    7.0856   12.1934 C   0  0  0  0  0  0  0  0  0  0  0  0
   47.7522    6.6079   11.8193 O   0  0  0  0  0  0  0  0  0  0  0  0
   45.4171    6.2516   11.6948 C   0  0  0  0  0  0  0  0  0  0  0  0
   44.1665    6.6173   12.0005 C   0  0  0  0  0  0  0  0  0  0  0  0
   43.0443    5.7994   11.5079 C   0  0  0  0  0  0  0  0  0  0  0  0
   41.8777    6.0892   11.7588 O   0  0  0  0  0  0  0  0  0  0  0  0
   43.3760    4.7041   10.7587 N   0  0  0  0  0  0  0  0  0  0  0  0
   44.6503    4.3209   10.4402 C   0  0  0  0  0  0  0  0  0  0  0  0
   44.8672    3.3211    9.7605 O   0  0  0  0  0  0  0  0  0  0  0  0
   45.6361    5.1225   10.9285 N   0  0  0  0  0  0  0  0  0  0  0  0
   46.3969    5.8717    9.7896 H   0  0  0  0  0  0  0  0  0  0  0  0
   42.6165    4.1240   10.4488 H   0  0  0  0  0  0  0  0  0  0  0  0
   44.3193    6.4290   13.3473 H   0  0  0  0  0  0  0  0  0  0  0  0
   43.9392    7.4918   12.5969 H   0  0  0  0  0  0  0  0  0  0  0  0
   42.6263    4.1324   10.4128 H   0  0  0  0  0  0  0  0  0  0  0  0
   46.6144    4.9089   10.7378 H   0  0  0  0  0  0  0  0  0  0  0  0
  1  2  1  0
  2  3  2  0
  2  4  1  0
  4  5  2  0
  5  6  1  0
  6  7  2  0
  6  8  1  0
  8  9  1  0
  9 10  2  0
  9 11  1  0
  4 11  1  0
 13 14  1  0
 14 15  2  0
 14 16  1  0
 16 17  2  0
 17 18  1  0
 18 19  2  0
 18 20  1  0
 20 21  1  0
 21 22  2  0
 21 23  1  0
 16 23  1  0
  5 24  1  0
  8 25  1  0
 11 26  1  0
 17 27  1  0
 20 28  1  0
 23 29  1  0
M  CHG  3   1  -1  12   2  13  -1
M  END
> <Uni-Dock RESULT> 
ENERGY=   -5.054  LOWER_BOUND=    2.041  UPPER_BOUND=    4.002
INTER + INTRA:          -5.054
INTER:                  -5.054
INTRA:                   0.000
UNBOUND:                 0.000

$$$$

     RDKit          3D

 29 28  0  0  0  0  0  0  0  0999 V2000
   47.5442    7.1982   11.4016 O   0  0  0  0  0  0  0  0  0  0  0  0
   46.6096    7.1052   12.2541 C   0  0  0  0  0  0  0  0  0  0  0  0
   46.5130    7.5775   13.4190 O   0  0  0  0  0  0  0  0  0  0  0  0
   45.3991    6.2624   11.7445 C   0  0  0  0  0  0  0  0  0  0  0  0
   44.3264    6.0648   12.5200 C   0  0  0  0  0  0  0  0  0  0  0  0
   43.2069    5.2622   11.9968 C   0  0  0  0  0  0  0  0  0  0  0  0
   42.1992    5.0500   12.6657 O   0  0  0  0  0  0  0  0  0  0  0  0
   43.3547    4.7700   10.7292 N   0  0  0  0  0  0  0  0  0  0  0  0
   44.4464    4.9655    9.9277 C   0  0  0  0  0  0  0  0  0  0  0  0
   44.5043    4.4890    8.7972 O   0  0  0  0  0  0  0  0  0  0  0  0
   45.4410    5.7159   10.4758 N   0  0  0  0  0  0  0  0  0  0  0  0
   44.7629    5.7900   11.4108 Mg  0  0  0  0  0 15  0  0  0  0  0  0
   47.7386    6.8194   12.0247 O   0  0  0  0  0  0  0  0  0  0  0  0
   46.5537    7.1538   12.2964 C   0  0  0  0  0  0  0  0  0  0  0  0
   46.1072    8.1222   12.9833 O   0  0  0  0  0  0  0  0  0  0  0  0
   45.4255    6.2505   11.7078 C   0  0  0  0  0  0  0  0  0  0  0  0
   45.7233    5.1830   10.9575 C   0  0  0  0  0  0  0  0  0  0  0  0
   44.6251    4.3589   10.4228 C   0  0  0  0  0  0  0  0  0  0  0  0
   44.8418    3.3692    9.7290 O   0  0  0  0  0  0  0  0  0  0  0  0
   43.3566    4.7586   10.7427 N   0  0  0  0  0  0  0  0  0  0  0  0
   43.0405    5.8475   11.5086 C   0  0  0  0  0  0  0  0  0  0  0  0
   41.8732    6.1419   11.7521 O   0  0  0  0  0  0  0  0  0  0  0  0
   44.1043    6.5617   11.9681 N   0  0  0  0  0  0  0  0  0  0  0  0
   44.2420    6.4697   13.5205 H   0  0  0  0  0  0  0  0  0  0  0  0
   42.6034    4.2201   10.3529 H   0  0  0  0  0  0  0  0  0  0  0  0
   46.2901    5.9100    9.9461 H   0  0  0  0  0  0  0  0  0  0  0  0
   46.7402    4.8947   10.7232 H   0  0  0  0  0  0  0  0  0  0  0  0
   42.5929    4.2110   10.3885 H   0  0  0  0  0  0  0  0  0  0  0  0
   43.9576    7.3882   12.5464 H   0  0  0  0  0  0  0  0  0  0  0  0
  1  2  1  0
  2  3  2  0
  2  4  1  0
  4  5  2  0
  5  6  1  0
  6  7  2  0
  6  8  1  0
  8  9  1  0
  9 10  2  0
  9 11  1  0
  4 11  1  0
 13 14  1  0
 14 15  2  0
 14 16  1  0
 16 17  2  0
 17 18  1  0
 18 19  2  0
 18 20  1  0
 20 21  1  0
 21 22  2  0
 21 23  1  0
 16 23  1  0
  5 24  1  0
  8 25  1  0
 11 26  1  0
 17 27  1  0
 20 28  1  0
 23 29  1  0
M  CHG  3   1  -1  12   2  13  -1
M  END
> <Uni-Dock RESULT> 
ENERGY=   -4.932  LOWER_BOUND=    2.064  UPPER_BOUND=    4.001
INTER + INTRA:          -4.932
INTER:                  -4.932
INTRA:                   0.000
UNBOUND:                 0.000

$$$$

     RDKit          3D

 29 28  0  0  0  0  0  0  0  0999 V2000
   45.0022    9.0280   12.7475 O   0  0  0  0  0  0  0  0  0  0  0  0
   46.0444    8.3142   12.8630 C   0  0  0  0  0  0  0  0  0  0  0  0
   47.2609    8.6417   12.9108 O   0  0  0  0  0  0  0  0  0  0  0  0
   45.7325    6.7881   12.9589 C   0  0  0  0  0  0  0  0  0  0  0  0
   46.7196    5.8932   13.0847 C   0  0  0  0  0  0  0  0  0  0  0  0
   46.3777    4.4626   13.1716 C   0  0  0  0  0  0  0  0  0  0  0  0
   47.2436    3.5997   13.2879 O   0  0  0  0  0  0  0  0  0  0  0  0
   45.0465    4.1533   13.1156 N   0  0  0  0  0  0  0  0  0  0  0  0
   44.0292    5.0594   12.9871 C   0  0  0  0  0  0  0  0  0  0  0  0
   42.8550    4.7020   12.9441 O   0  0  0  0  0  0  0  0  0  0  0  0
   44.4187    6.3616   12.9127 N   0  0  0  0  0  0  0  0  0  0  0  0
   45.5007    5.9616   13.0071 Mg  0  0  0  0  0 15  0  0  0  0  0  0
   45.4541    9.0507   12.1434 O   0  0  0  0  0  0  0  0  0  0  0  0
   46.1098    8.3008   12.9162 C   0  0  0  0  0  0  0  0  0  0  0  0
   47.0782    8.5617   13.6928 O   0  0  0  0  0  0  0  0  0  0  0  0
   45.6883    6.7986   12.9480 C   0  0  0  0  0  0  0  0  0  0  0  0
   44.6816    6.3527   12.1871 C   0  0  0  0  0  0  0  0  0  0  0  0
   44.3185    4.9261   12.2499 C   0  0  0  0  0  0  0  0  0  0  0  0
   43.4036    4.4643   11.5735 O   0  0  0  0  0  0  0  0  0  0  0  0
   45.0562    4.1501   13.1012 N   0  0  0  0  0  0  0  0  0  0  0  0
   46.0870    4.5949   13.8834 C   0  0  0  0  0  0  0  0  0  0  0  0
   46.7031    3.8335   14.6245 O   0  0  0  0  0  0  0  0  0  0  0  0
   46.3666    5.9226   13.7742 N   0  0  0  0  0  0  0  0  0  0  0  0
   47.7647    6.1730   13.1259 H   0  0  0  0  0  0  0  0  0  0  0  0
   44.7911    3.1838   13.1732 H   0  0  0  0  0  0  0  0  0  0  0  0
   43.7241    7.1013   12.8159 H   0  0  0  0  0  0  0  0  0  0  0  0
   44.1176    6.9955   11.5231 H   0  0  0  0  0  0  0  0  0  0  0  0
   44.8255    3.1744   13.1595 H   0  0  0  0  0  0  0  0  0  0  0  0
   47.1201    6.3362   14.3222 H   0  0  0  0  0  0  0  0  0  0  0  0
  1  2  1  0
  2  3  2  0
  2  4  1  0
  4  5  2  0
  5  6  1  0
  6  7  2  0
  6  8  1  0
  8  9  1  0
  9 10  2  0
  9 11  1  0
  4 11  1  0
 13 14  1  0
 14 15  2  0
 14 16  1  0
 16 17  2  0
 17 18  1  0
 18 19  2  0
 18 20  1  0
 20 21  1  0
 21 22  2  0
 21 23  1  0
 16 23  1  0
  5 24  1  0
  8 25  1  0
 11 26  1  0
 17 27  1  0
 20 28  1  0
 23 29  1  0
M  CHG  3   1  -1  12   2  13  -1
M  END
> <Uni-Dock RESULT> 
ENERGY=   -4.698  LOWER_BOUND=    2.685  UPPER_BOUND=    4.930
INTER + INTRA:          -4.698
INTER:                  -4.698
INTRA:                   0.000
UNBOUND:                 0.000

$$$$

     RDKit          3D

 29 28  0  0  0  0  0  0  0  0999 V2000
   43.7912    7.7509   11.4208 O   0  0  0  0  0  0  0  0  0  0  0  0
   44.9160    7.5779   11.9810 C   0  0  0  0  0  0  0  0  0  0  0  0
   45.8208    8.4051   12.2753 O   0  0  0  0  0  0  0  0  0  0  0  0
   45.1911    6.0874   12.3525 C   0  0  0  0  0  0  0  0  0  0  0  0
   46.3334    5.7296   12.9510 C   0  0  0  0  0  0  0  0  0  0  0  0
   46.5498    4.3104   13.2830 C   0  0  0  0  0  0  0  0  0  0  0  0
   47.5792    3.9275   13.8322 O   0  0  0  0  0  0  0  0  0  0  0  0
   45.5424    3.4488   12.9458 N   0  0  0  0  0  0  0  0  0  0  0  0
   44.3709    3.8032   12.3340 C   0  0  0  0  0  0  0  0  0  0  0  0
   43.5121    2.9682   12.0627 O   0  0  0  0  0  0  0  0  0  0  0  0
   44.2396    5.1295   12.0572 N   0  0  0  0  0  0  0  0  0  0  0  0
   45.2874    5.2523   12.5332 Mg  0  0  0  0  0 15  0  0  0  0  0  0
   44.3796    7.9048   10.9740 O   0  0  0  0  0  0  0  0  0  0  0  0
   44.9588    7.5999   12.0515 C   0  0  0  0  0  0  0  0  0  0  0  0
   45.4236    8.3355   12.9744 O   0  0  0  0  0  0  0  0  0  0  0  0
   45.1529    6.0763   12.3279 C   0  0  0  0  0  0  0  0  0  0  0  0
   44.7196    5.1603   11.4536 C   0  0  0  0  0  0  0  0  0  0  0  0
   44.9247    3.7330   11.7565 C   0  0  0  0  0  0  0  0  0  0  0  0
   44.5470    2.8515   10.9897 O   0  0  0  0  0  0  0  0  0  0  0  0
   45.5570    3.4487   12.9357 N   0  0  0  0  0  0  0  0  0  0  0  0
   46.0040    4.3765   13.8365 C   0  0  0  0  0  0  0  0  0  0  0  0
   46.5645    4.0407   14.8767 O   0  0  0  0  0  0  0  0  0  0  0  0
   45.7808    5.6741   13.4916 N   0  0  0  0  0  0  0  0  0  0  0  0
   47.1112    6.4388   13.2042 H   0  0  0  0  0  0  0  0  0  0  0  0
   45.6692    2.4766   13.1631 H   0  0  0  0  0  0  0  0  0  0  0  0
   43.3970    5.4788   11.6019 H   0  0  0  0  0  0  0  0  0  0  0  0
   44.2220    5.4206   10.5280 H   0  0  0  0  0  0  0  0  0  0  0  0
   45.7070    2.4818   13.1619 H   0  0  0  0  0  0  0  0  0  0  0  0
   46.0823    6.4290   14.1067 H   0  0  0  0  0  0  0  0  0  0  0  0
  1  2  1  0
  2  3  2  0
  2  4  1  0
  4  5  2  0
  5  6  1  0
  6  7  2  0
  6  8  1  0
  8  9  1  0
  9 10  2  0
  9 11  1  0
  4 11  1  0
 13 14  1  0
 14 15  2  0
 14 16  1  0
 16 17  2  0
 17 18  1  0
 18 19  2  0
 18 20  1  0
 20 21  1  0
 21 22  2  0
 21 23  1  0
 16 23  1  0
  5 24  1  0
  8 25  1  0
 11 26  1  0
 17 27  1  0
 20 28  1  0
 23 29  1  0
M  CHG  3   1  -1  12   2  13  -1
M  END
> <Uni-Dock RESULT> 
ENERGY=   -4.443  LOWER_BOUND=    1.919  UPPER_BOUND=    4.296
INTER + INTRA:          -4.443
INTER:                  -4.443
INTRA:                   0.000
UNBOUND:                 0.000

$$$$
