
     RDKit          3D

 29 28  0  0  0  0  0  0  0  0999 V2000
   47.2514    3.7113   13.7212 O   0  0  0  0  0  0  0  0  0  0  0  0
   46.5041    4.7099   13.5366 C   0  0  0  0  0  0  0  0  0  0  0  0
   46.6813    5.9348   13.8140 O   0  0  0  0  0  0  0  0  0  0  0  0
   45.1272    4.4298   12.8576 C   0  0  0  0  0  0  0  0  0  0  0  0
   44.7795    3.1881   12.4990 C   0  0  0  0  0  0  0  0  0  0  0  0
   43.4693    2.9711   11.8609 C   0  0  0  0  0  0  0  0  0  0  0  0
   43.1003    1.8530   11.5122 O   0  0  0  0  0  0  0  0  0  0  0  0
   42.6919    4.0820   11.6803 N   0  0  0  0  0  0  0  0  0  0  0  0
   43.0369    5.3556   12.0428 C   0  0  0  0  0  0  0  0  0  0  0  0
   42.2815    6.3040   11.8465 O   0  0  0  0  0  0  0  0  0  0  0  0
   44.2602    5.4811   12.6263 N   0  0  0  0  0  0  0  0  0  0  0  0
   44.3567    4.3359   12.4877 Mg  0  0  0  0  0 15  0  0  0  0  0  0
   47.0029    3.5252   13.9227 O   0  0  0  0  0  0  0  0  0  0  0  0
   46.3831    4.6222   13.7771 C   0  0  0  0  0  0  0  0  0  0  0  0
   46.6607    5.7811   14.1888 O   0  0  0  0  0  0  0  0  0  0  0  0
   45.0685    4.4765   12.9490 C   0  0  0  0  0  0  0  0  0  0  0  0
   44.2928    5.5386   12.7015 C   0  0  0  0  0  0  0  0  0  0  0  0
   43.0606    5.3535   11.9152 C   0  0  0  0  0  0  0  0  0  0  0  0
   42.3130    6.2933   11.6591 O   0  0  0  0  0  0  0  0  0  0  0  0
   42.7992    4.0801   11.4893 N   0  0  0  0  0  0  0  0  0  0  0  0
   43.5847    2.9873   11.7363 C   0  0  0  0  0  0  0  0  0  0  0  0
   43.2812    1.8731   11.3181 O   0  0  0  0  0  0  0  0  0  0  0  0
   44.7060    3.2326   12.4679 N   0  0  0  0  0  0  0  0  0  0  0  0
   45.4201    2.3298   12.6570 H   0  0  0  0  0  0  0  0  0  0  0  0
   41.7946    3.9568   11.2470 H   0  0  0  0  0  0  0  0  0  0  0  0
   44.5954    6.3956   12.9268 H   0  0  0  0  0  0  0  0  0  0  0  0
   44.5298    6.5343   13.0544 H   0  0  0  0  0  0  0  0  0  0  0  0
   41.9642    3.9314   10.9515 H   0  0  0  0  0  0  0  0  0  0  0  0
   45.3467    2.4737   12.6973 H   0  0  0  0  0  0  0  0  0  0  0  0
  1  2  1  0
  2  3  2  0
  2  4  1  0
  4  5  2  0
  5  6  1  0
  6  7  2  0
  6  8  1  0
  8  9  1  0
  9 10  2  0
  9 11  1  0
  4 11  1  0
 13 14  1  0
 14 15  2  0
 14 16  1  0
 16 17  2  0
 17 18  1  0
 18 19  2  0
 18 20  1  0
 20 21  1  0
 21 22  2  0
 21 23  1  0
 16 23  1  0
  5 24  1  0
  8 25  1  0
 11 26  1  0
 17 27  1  0
 20 28  1  0
 23 29  1  0
M  CHG  3   1  -1  12   2  13  -1
M  END
> <Uni-Dock RESULT> 
ENERGY=   -7.275  LOWER_BOUND=    0.000  UPPER_BOUND=    0.000
INTER + INTRA:          -7.275
INTER:                  -7.275
INTRA:                   0.000
UNBOUND:                 0.000

$$$$

     RDKit          3D

 29 28  0  0  0  0  0  0  0  0999 V2000
   42.8512    4.7513   11.9088 O   0  0  0  0  0  0  0  0  0  0  0  0
   43.6668    5.3026   11.1211 C   0  0  0  0  0  0  0  0  0  0  0  0
   44.0440    6.5108   11.0377 O   0  0  0  0  0  0  0  0  0  0  0  0
   44.3422    4.3769   10.0618 C   0  0  0  0  0  0  0  0  0  0  0  0
   44.0556    3.0706   10.0107 C   0  0  0  0  0  0  0  0  0  0  0  0
   44.7175    2.2350    8.9935 C   0  0  0  0  0  0  0  0  0  0  0  0
   44.4913    1.0315    8.9024 O   0  0  0  0  0  0  0  0  0  0  0  0
   45.5942    2.8747    8.1609 N   0  0  0  0  0  0  0  0  0  0  0  0
   45.8947    4.2090    8.2039 C   0  0  0  0  0  0  0  0  0  0  0  0
   46.6953    4.7106    7.4191 O   0  0  0  0  0  0  0  0  0  0  0  0
   45.2465    4.9185    9.1679 N   0  0  0  0  0  0  0  0  0  0  0  0
   44.7446    3.9164    9.4574 Mg  0  0  0  0  0 15  0  0  0  0  0  0
   42.6327    4.6219   11.6394 O   0  0  0  0  0  0  0  0  0  0  0  0
   43.4435    5.3089   10.9471 C   0  0  0  0  0  0  0  0  0  0  0  0
   43.6557    6.5516   10.9274 O   0  0  0  0  0  0  0  0  0  0  0  0
   44.3016    4.4432    9.9726 C   0  0  0  0  0  0  0  0  0  0  0  0
   45.2080    5.0109    9.1683 C   0  0  0  0  0  0  0  0  0  0  0  0
   45.9952    4.1538    8.2647 C   0  0  0  0  0  0  0  0  0  0  0  0
   46.8396    4.6223    7.5062 O   0  0  0  0  0  0  0  0  0  0  0  0
   45.7320    2.8126    8.3196 N   0  0  0  0  0  0  0  0  0  0  0  0
   44.8080    2.2215    9.1375 C   0  0  0  0  0  0  0  0  0  0  0  0
   44.6294    1.0063    9.1285 O   0  0  0  0  0  0  0  0  0  0  0  0
   44.1185    3.0736    9.9445 N   0  0  0  0  0  0  0  0  0  0  0  0
   43.3554    2.5958   10.6863 H   0  0  0  0  0  0  0  0  0  0  0  0
   46.0566    2.3239    7.4599 H   0  0  0  0  0  0  0  0  0  0  0  0
   45.4126    5.9191    9.2693 H   0  0  0  0  0  0  0  0  0  0  0  0
   45.3913    6.0778    9.1503 H   0  0  0  0  0  0  0  0  0  0  0  0
   46.2573    2.2099    7.7119 H   0  0  0  0  0  0  0  0  0  0  0  0
   43.4110    2.7158   10.5852 H   0  0  0  0  0  0  0  0  0  0  0  0
  1  2  1  0
  2  3  2  0
  2  4  1  0
  4  5  2  0
  5  6  1  0
  6  7  2  0
  6  8  1  0
  8  9  1  0
  9 10  2  0
  9 11  1  0
  4 11  1  0
 13 14  1  0
 14 15  2  0
 14 16  1  0
 16 17  2  0
 17 18  1  0
 18 19  2  0
 18 20  1  0
 20 21  1  0
 21 22  2  0
 21 23  1  0
 16 23  1  0
  5 24  1  0
  8 25  1  0
 11 26  1  0
 17 27  1  0
 20 28  1  0
 23 29  1  0
M  CHG  3   1  -1  12   2  13  -1
M  END
> <Uni-Dock RESULT> 
ENERGY=   -6.361  LOWER_BOUND=    3.274  UPPER_BOUND=    4.127
INTER + INTRA:          -6.361
INTER:                  -6.361
INTRA:                   0.000
UNBOUND:                 0.000

$$$$

     RDKit          3D

 29 28  0  0  0  0  0  0  0  0999 V2000
   43.3637    3.3498   13.1504 O   0  0  0  0  0  0  0  0  0  0  0  0
   43.4384    2.8713   11.9862 C   0  0  0  0  0  0  0  0  0  0  0  0
   42.9415    1.8119   11.4968 O   0  0  0  0  0  0  0  0  0  0  0  0
   44.2710    3.6907   10.9515 C   0  0  0  0  0  0  0  0  0  0  0  0
   44.8652    4.8372   11.3035 C   0  0  0  0  0  0  0  0  0  0  0  0
   45.6413    5.5771   10.2929 C   0  0  0  0  0  0  0  0  0  0  0  0
   46.2064    6.6336   10.5619 O   0  0  0  0  0  0  0  0  0  0  0  0
   45.6953    5.0215    9.0442 N   0  0  0  0  0  0  0  0  0  0  0  0
   45.0921    3.8506    8.6732 C   0  0  0  0  0  0  0  0  0  0  0  0
   45.1876    3.4158    7.5285 O   0  0  0  0  0  0  0  0  0  0  0  0
   44.3929    3.2216    9.6572 N   0  0  0  0  0  0  0  0  0  0  0  0
   44.7164    4.0988   10.3396 Mg  0  0  0  0  0 15  0  0  0  0  0  0
   43.7301    3.3578   13.2027 O   0  0  0  0  0  0  0  0  0  0  0  0
   43.6863    2.7707   12.0792 C   0  0  0  0  0  0  0  0  0  0  0  0
   43.2059    1.6501   11.7584 O   0  0  0  0  0  0  0  0  0  0  0  0
   44.3424    3.5987   10.9306 C   0  0  0  0  0  0  0  0  0  0  0  0
   44.3818    3.1247    9.6797 C   0  0  0  0  0  0  0  0  0  0  0  0
   45.0115    3.9414    8.6275 C   0  0  0  0  0  0  0  0  0  0  0  0
   45.0748    3.5547    7.4638 O   0  0  0  0  0  0  0  0  0  0  0  0
   45.5190    5.1494    9.0205 N   0  0  0  0  0  0  0  0  0  0  0  0
   45.4844    5.6439   10.2958 C   0  0  0  0  0  0  0  0  0  0  0  0
   45.9632    6.7412   10.5702 O   0  0  0  0  0  0  0  0  0  0  0  0
   44.8880    4.8363   11.2150 N   0  0  0  0  0  0  0  0  0  0  0  0
   44.8020    5.2491   12.3026 H   0  0  0  0  0  0  0  0  0  0  0  0
   46.2192    5.5094    8.3398 H   0  0  0  0  0  0  0  0  0  0  0  0
   43.9126    2.3430    9.4657 H   0  0  0  0  0  0  0  0  0  0  0  0
   43.9698    2.1625    9.4028 H   0  0  0  0  0  0  0  0  0  0  0  0
   45.9528    5.7224    8.3191 H   0  0  0  0  0  0  0  0  0  0  0  0
   44.8196    5.1286   12.1891 H   0  0  0  0  0  0  0  0  0  0  0  0
  1  2  1  0
  2  3  2  0
  2  4  1  0
  4  5  2  0
  5  6  1  0
  6  7  2  0
  6  8  1  0
  8  9  1  0
  9 10  2  0
  9 11  1  0
  4 11  1  0
 13 14  1  0
 14 15  2  0
 14 16  1  0
 16 17  2  0
 17 18  1  0
 18 19  2  0
 18 20  1  0
 20 21  1  0
 21 22  2  0
 21 23  1  0
 16 23  1  0
  5 24  1  0
  8 25  1  0
 11 26  1  0
 17 27  1  0
 20 28  1  0
 23 29  1  0
M  CHG  3   1  -1  12   2  13  -1
M  END
> <Uni-Dock RESULT> 
ENERGY=   -5.947  LOWER_BOUND=    2.716  UPPER_BOUND=    4.195
INTER + INTRA:          -5.947
INTER:                  -5.947
INTRA:                   0.000
UNBOUND:                 0.000

$$$$

     RDKit          3D

 29 28  0  0  0  0  0  0  0  0999 V2000
   45.7778    7.3220   11.4216 O   0  0  0  0  0  0  0  0  0  0  0  0
   45.1849    6.3947   12.0367 C   0  0  0  0  0  0  0  0  0  0  0  0
   44.8178    6.3118   13.2480 O   0  0  0  0  0  0  0  0  0  0  0  0
   44.8289    5.1252   11.2018 C   0  0  0  0  0  0  0  0  0  0  0  0
   45.1458    5.0472    9.9038 C   0  0  0  0  0  0  0  0  0  0  0  0
   44.7899    3.8290    9.1553 C   0  0  0  0  0  0  0  0  0  0  0  0
   45.0567    3.7049    7.9632 O   0  0  0  0  0  0  0  0  0  0  0  0
   44.1481    2.8494    9.8622 N   0  0  0  0  0  0  0  0  0  0  0  0
   43.8193    2.9183   11.1886 C   0  0  0  0  0  0  0  0  0  0  0  0
   43.2413    1.9936   11.7538 O   0  0  0  0  0  0  0  0  0  0  0  0
   44.1784    4.0717   11.8159 N   0  0  0  0  0  0  0  0  0  0  0  0
   44.6079    4.4019   10.7930 Mg  0  0  0  0  0 15  0  0  0  0  0  0
   46.0616    7.1099   11.3147 O   0  0  0  0  0  0  0  0  0  0  0  0
   45.4457    6.2863   12.0571 C   0  0  0  0  0  0  0  0  0  0  0  0
   45.2204    6.3107   13.2973 O   0  0  0  0  0  0  0  0  0  0  0  0
   44.8900    5.0554   11.2751 C   0  0  0  0  0  0  0  0  0  0  0  0
   44.2135    4.0895   11.9079 C   0  0  0  0  0  0  0  0  0  0  0  0
   43.7075    2.9460   11.1288 C   0  0  0  0  0  0  0  0  0  0  0  0
   43.0810    2.0326   11.6588 O   0  0  0  0  0  0  0  0  0  0  0  0
   43.9749    2.9610    9.7873 N   0  0  0  0  0  0  0  0  0  0  0  0
   44.6652    3.9427    9.1301 C   0  0  0  0  0  0  0  0  0  0  0  0
   44.8650    3.8841    7.9196 O   0  0  0  0  0  0  0  0  0  0  0  0
   45.1023    4.9673    9.9123 N   0  0  0  0  0  0  0  0  0  0  0  0
   45.6548    5.8426    9.3744 H   0  0  0  0  0  0  0  0  0  0  0  0
   43.8962    2.0103    9.3713 H   0  0  0  0  0  0  0  0  0  0  0  0
   43.9710    4.2054   12.8049 H   0  0  0  0  0  0  0  0  0  0  0  0
   44.0194    4.1091   12.9729 H   0  0  0  0  0  0  0  0  0  0  0  0
   43.6390    2.1910    9.2371 H   0  0  0  0  0  0  0  0  0  0  0  0
   45.6252    5.7404    9.5024 H   0  0  0  0  0  0  0  0  0  0  0  0
  1  2  1  0
  2  3  2  0
  2  4  1  0
  4  5  2  0
  5  6  1  0
  6  7  2  0
  6  8  1  0
  8  9  1  0
  9 10  2  0
  9 11  1  0
  4 11  1  0
 13 14  1  0
 14 15  2  0
 14 16  1  0
 16 17  2  0
 17 18  1  0
 18 19  2  0
 18 20  1  0
 20 21  1  0
 21 22  2  0
 21 23  1  0
 16 23  1  0
  5 24  1  0
  8 25  1  0
 11 26  1  0
 17 27  1  0
 20 28  1  0
 23 29  1  0
M  CHG  3   1  -1  12   2  13  -1
M  END
> <Uni-Dock RESULT> 
ENERGY=   -5.813  LOWER_BOUND=    2.295  UPPER_BOUND=    3.078
INTER + INTRA:          -5.813
INTER:                  -5.813
INTRA:                   0.000
UNBOUND:                 0.000

$$$$

     RDKit          3D

 29 28  0  0  0  0  0  0  0  0999 V2000
   42.8786    7.1889   11.2292 O   0  0  0  0  0  0  0  0  0  0  0  0
   43.9608    6.9532   11.8316 C   0  0  0  0  0  0  0  0  0  0  0  0
   44.8333    7.7460   12.2998 O   0  0  0  0  0  0  0  0  0  0  0  0
   44.3174    5.4506   12.0553 C   0  0  0  0  0  0  0  0  0  0  0  0
   43.5029    4.4808   11.6222 C   0  0  0  0  0  0  0  0  0  0  0  0
   43.8805    3.0759   11.8557 C   0  0  0  0  0  0  0  0  0  0  0  0
   43.1704    2.1474   11.4797 O   0  0  0  0  0  0  0  0  0  0  0  0
   45.0620    2.8672   12.5126 N   0  0  0  0  0  0  0  0  0  0  0  0
   45.9022    3.8503   12.9597 C   0  0  0  0  0  0  0  0  0  0  0  0
   46.9491    3.5815   13.5431 O   0  0  0  0  0  0  0  0  0  0  0  0
   45.4902    5.1232   12.7093 N   0  0  0  0  0  0  0  0  0  0  0  0
   44.5655    4.6414   12.2067 Mg  0  0  0  0  0 15  0  0  0  0  0  0
   42.9695    6.9942   10.9278 O   0  0  0  0  0  0  0  0  0  0  0  0
   44.0613    6.9195   11.5690 C   0  0  0  0  0  0  0  0  0  0  0  0
   44.8784    7.8195   11.9035 O   0  0  0  0  0  0  0  0  0  0  0  0
   44.4201    5.4626   11.9978 C   0  0  0  0  0  0  0  0  0  0  0  0
   45.5404    5.2058   12.6833 C   0  0  0  0  0  0  0  0  0  0  0  0
   45.8383    3.8148   13.0669 C   0  0  0  0  0  0  0  0  0  0  0  0
   46.8517    3.5233   13.6959 O   0  0  0  0  0  0  0  0  0  0  0  0
   44.9247    2.8717   12.6834 N   0  0  0  0  0  0  0  0  0  0  0  0
   43.7765    3.1226   11.9827 C   0  0  0  0  0  0  0  0  0  0  0  0
   43.0040    2.2188   11.6747 O   0  0  0  0  0  0  0  0  0  0  0  0
   43.5662    4.4288   11.6626 N   0  0  0  0  0  0  0  0  0  0  0  0
   42.5734    4.6817   11.1048 H   0  0  0  0  0  0  0  0  0  0  0  0
   45.3387    1.9168   12.6823 H   0  0  0  0  0  0  0  0  0  0  0  0
   46.0571    5.9157   13.0088 H   0  0  0  0  0  0  0  0  0  0  0  0
   46.2430    5.9776   12.9711 H   0  0  0  0  0  0  0  0  0  0  0  0
   45.1081    1.9168   12.9346 H   0  0  0  0  0  0  0  0  0  0  0  0
   42.7345    4.7030   11.1410 H   0  0  0  0  0  0  0  0  0  0  0  0
  1  2  1  0
  2  3  2  0
  2  4  1  0
  4  5  2  0
  5  6  1  0
  6  7  2  0
  6  8  1  0
  8  9  1  0
  9 10  2  0
  9 11  1  0
  4 11  1  0
 13 14  1  0
 14 15  2  0
 14 16  1  0
 16 17  2  0
 17 18  1  0
 18 19  2  0
 18 20  1  0
 20 21  1  0
 21 22  2  0
 21 23  1  0
 16 23  1  0
  5 24  1  0
  8 25  1  0
 11 26  1  0
 17 27  1  0
 20 28  1  0
 23 29  1  0
M  CHG  3   1  -1  12   2  13  -1
M  END
> <Uni-Dock RESULT> 
ENERGY=   -5.612  LOWER_BOUND=    1.235  UPPER_BOUND=    3.263
INTER + INTRA:          -5.612
INTER:                  -5.612
INTRA:                   0.000
UNBOUND:                 0.000

$$$$

     RDKit          3D

 29 28  0  0  0  0  0  0  0  0999 V2000
   44.7645    9.1625   12.4397 O   0  0  0  0  0  0  0  0  0  0  0  0
   45.5947    8.2966   12.8277 C   0  0  0  0  0  0  0  0  0  0  0  0
   46.7632    8.4294   13.3028 O   0  0  0  0  0  0  0  0  0  0  0  0
   45.1443    6.8063   12.7201 C   0  0  0  0  0  0  0  0  0  0  0  0
   43.9367    6.4881   12.2386 C   0  0  0  0  0  0  0  0  0  0  0  0
   43.5544    5.0676   12.1553 C   0  0  0  0  0  0  0  0  0  0  0  0
   42.4594    4.7200   11.7218 O   0  0  0  0  0  0  0  0  0  0  0  0
   44.4855    4.1633   12.5869 N   0  0  0  0  0  0  0  0  0  0  0  0
   45.7224    4.4770   13.0808 C   0  0  0  0  0  0  0  0  0  0  0  0
   46.5048    3.6048   13.4493 O   0  0  0  0  0  0  0  0  0  0  0  0
   46.0074    5.8071   13.1285 N   0  0  0  0  0  0  0  0  0  0  0  0
   44.9510    5.9693   12.6842 Mg  0  0  0  0  0 15  0  0  0  0  0  0
   44.7342    9.0235   12.0980 O   0  0  0  0  0  0  0  0  0  0  0  0
   45.6558    8.2794   12.5517 C   0  0  0  0  0  0  0  0  0  0  0  0
   46.8270    8.5603   12.9242 O   0  0  0  0  0  0  0  0  0  0  0  0
   45.2369    6.7795   12.6517 C   0  0  0  0  0  0  0  0  0  0  0  0
   46.0918    5.8580   13.1111 C   0  0  0  0  0  0  0  0  0  0  0  0
   45.6527    4.4537   13.1878 C   0  0  0  0  0  0  0  0  0  0  0  0
   46.3962    3.5683   13.6013 O   0  0  0  0  0  0  0  0  0  0  0  0
   44.3750    4.1950   12.7735 N   0  0  0  0  0  0  0  0  0  0  0  0
   43.4927    5.1286   12.3022 C   0  0  0  0  0  0  0  0  0  0  0  0
   42.3586    4.8166   11.9484 O   0  0  0  0  0  0  0  0  0  0  0  0
   43.9660    6.4041   12.2593 N   0  0  0  0  0  0  0  0  0  0  0  0
   43.2229    7.2306   11.9050 H   0  0  0  0  0  0  0  0  0  0  0  0
   44.2455    3.1892   12.5390 H   0  0  0  0  0  0  0  0  0  0  0  0
   46.9076    6.1278   13.4832 H   0  0  0  0  0  0  0  0  0  0  0  0
   47.0979    6.0977   13.4312 H   0  0  0  0  0  0  0  0  0  0  0  0
   44.0550    3.2440   12.8174 H   0  0  0  0  0  0  0  0  0  0  0  0
   43.3735    7.1614   11.9211 H   0  0  0  0  0  0  0  0  0  0  0  0
  1  2  1  0
  2  3  2  0
  2  4  1  0
  4  5  2  0
  5  6  1  0
  6  7  2  0
  6  8  1  0
  8  9  1  0
  9 10  2  0
  9 11  1  0
  4 11  1  0
 13 14  1  0
 14 15  2  0
 14 16  1  0
 16 17  2  0
 17 18  1  0
 18 19  2  0
 18 20  1  0
 20 21  1  0
 21 22  2  0
 21 23  1  0
 16 23  1  0
  5 24  1  0
  8 25  1  0
 11 26  1  0
 17 27  1  0
 20 28  1  0
 23 29  1  0
M  CHG  3   1  -1  12   2  13  -1
M  END
> <Uni-Dock RESULT> 
ENERGY=   -5.509  LOWER_BOUND=    1.928  UPPER_BOUND=    3.458
INTER + INTRA:          -5.509
INTER:                  -5.509
INTRA:                   0.000
UNBOUND:                 0.000

$$$$

     RDKit          3D

 29 28  0  0  0  0  0  0  0  0999 V2000
   46.7428    2.8017   17.6896 O   0  0  0  0  0  0  0  0  0  0  0  0
   47.4749    3.8249   17.7710 C   0  0  0  0  0  0  0  0  0  0  0  0
   47.1713    5.0445   17.9423 O   0  0  0  0  0  0  0  0  0  0  0  0
   49.0125    3.5897   17.6446 C   0  0  0  0  0  0  0  0  0  0  0  0
   49.5049    2.3590   17.4600 C   0  0  0  0  0  0  0  0  0  0  0  0
   50.9635    2.1847   17.3461 C   0  0  0  0  0  0  0  0  0  0  0  0
   51.4683    1.0783   17.1762 O   0  0  0  0  0  0  0  0  0  0  0  0
   51.7187    3.3213   17.4402 N   0  0  0  0  0  0  0  0  0  0  0  0
   51.2264    4.5840   17.6288 C   0  0  0  0  0  0  0  0  0  0  0  0
   51.9718    5.5574   17.7031 O   0  0  0  0  0  0  0  0  0  0  0  0
   49.8713    4.6696   17.7250 N   0  0  0  0  0  0  0  0  0  0  0  0
   49.8672    3.5210   17.5820 Mg  0  0  0  0  0 15  0  0  0  0  0  0
   46.8676    2.7025   17.3556 O   0  0  0  0  0  0  0  0  0  0  0  0
   47.4678    3.8120   17.4882 C   0  0  0  0  0  0  0  0  0  0  0  0
   47.0127    4.9847   17.5738 O   0  0  0  0  0  0  0  0  0  0  0  0
   49.0199    3.6637   17.5526 C   0  0  0  0  0  0  0  0  0  0  0  0
   49.8061    4.7377   17.6914 C   0  0  0  0  0  0  0  0  0  0  0  0
   51.2663    4.5496   17.7474 C   0  0  0  0  0  0  0  0  0  0  0  0
   52.0335    5.5000   17.8738 O   0  0  0  0  0  0  0  0  0  0  0  0
   51.7154    3.2611   17.6509 N   0  0  0  0  0  0  0  0  0  0  0  0
   50.9212    2.1560   17.5089 C   0  0  0  0  0  0  0  0  0  0  0  0
   51.4015    1.0284   17.4289 O   0  0  0  0  0  0  0  0  0  0  0  0
   49.5837    2.4049   17.4647 N   0  0  0  0  0  0  0  0  0  0  0  0
   48.8774    1.4795   17.3899 H   0  0  0  0  0  0  0  0  0  0  0  0
   52.7156    3.2254   17.3653 H   0  0  0  0  0  0  0  0  0  0  0  0
   49.4218    5.5735   17.8662 H   0  0  0  0  0  0  0  0  0  0  0  0
   49.4168    5.7453   17.7649 H   0  0  0  0  0  0  0  0  0  0  0  0
   52.7076    3.1101   17.6869 H   0  0  0  0  0  0  0  0  0  0  0  0
   48.9209    1.6375   17.3605 H   0  0  0  0  0  0  0  0  0  0  0  0
  1  2  1  0
  2  3  2  0
  2  4  1  0
  4  5  2  0
  5  6  1  0
  6  7  2  0
  6  8  1  0
  8  9  1  0
  9 10  2  0
  9 11  1  0
  4 11  1  0
 13 14  1  0
 14 15  2  0
 14 16  1  0
 16 17  2  0
 17 18  1  0
 18 19  2  0
 18 20  1  0
 20 21  1  0
 21 22  2  0
 21 23  1  0
 16 23  1  0
  5 24  1  0
  8 25  1  0
 11 26  1  0
 17 27  1  0
 20 28  1  0
 23 29  1  0
M  CHG  3   1  -1  12   2  13  -1
M  END
> <Uni-Dock RESULT> 
ENERGY=   -5.026  LOWER_BOUND=    6.458  UPPER_BOUND=    8.122
INTER + INTRA:          -5.026
INTER:                  -5.026
INTRA:                   0.000
UNBOUND:                 0.000

$$$$

     RDKit          3D

 29 28  0  0  0  0  0  0  0  0999 V2000
   46.9919    4.9877   17.6376 O   0  0  0  0  0  0  0  0  0  0  0  0
   47.4471    3.8183   17.5153 C   0  0  0  0  0  0  0  0  0  0  0  0
   46.8470    2.7131   17.3502 O   0  0  0  0  0  0  0  0  0  0  0  0
   48.9994    3.6686   17.5717 C   0  0  0  0  0  0  0  0  0  0  0  0
   49.7856    4.7383   17.7415 C   0  0  0  0  0  0  0  0  0  0  0  0
   51.2461    4.5491   17.7887 C   0  0  0  0  0  0  0  0  0  0  0  0
   52.0132    5.4955   17.9423 O   0  0  0  0  0  0  0  0  0  0  0  0
   51.6953    3.2644   17.6518 N   0  0  0  0  0  0  0  0  0  0  0  0
   50.9012    2.1637   17.4778 C   0  0  0  0  0  0  0  0  0  0  0  0
   51.3817    1.0393   17.3624 O   0  0  0  0  0  0  0  0  0  0  0  0
   49.5635    2.4133   17.4442 N   0  0  0  0  0  0  0  0  0  0  0  0
   49.8469    3.5254   17.5949 Mg  0  0  0  0  0 15  0  0  0  0  0  0
   47.1516    5.0474   17.9661 O   0  0  0  0  0  0  0  0  0  0  0  0
   47.4556    3.8275   17.7982 C   0  0  0  0  0  0  0  0  0  0  0  0
   46.7241    2.8032   17.7261 O   0  0  0  0  0  0  0  0  0  0  0  0
   48.9925    3.5934   17.6627 C   0  0  0  0  0  0  0  0  0  0  0  0
   49.4852    2.3626   17.4803 C   0  0  0  0  0  0  0  0  0  0  0  0
   50.9432    2.1894   17.3577 C   0  0  0  0  0  0  0  0  0  0  0  0
   51.4482    1.0829   17.1895 O   0  0  0  0  0  0  0  0  0  0  0  0
   51.6977    3.3273   17.4419 N   0  0  0  0  0  0  0  0  0  0  0  0
   51.2050    4.5902   17.6282 C   0  0  0  0  0  0  0  0  0  0  0  0
   51.9497    5.5647   17.6933 O   0  0  0  0  0  0  0  0  0  0  0  0
   49.8505    4.6747   17.7328 N   0  0  0  0  0  0  0  0  0  0  0  0
   49.3962    5.7430   17.8467 H   0  0  0  0  0  0  0  0  0  0  0  0
   52.6876    3.1126   17.6810 H   0  0  0  0  0  0  0  0  0  0  0  0
   48.9007    1.6492   17.3179 H   0  0  0  0  0  0  0  0  0  0  0  0
   48.8583    1.4821   17.4183 H   0  0  0  0  0  0  0  0  0  0  0  0
   52.6941    3.2321   17.3609 H   0  0  0  0  0  0  0  0  0  0  0  0
   49.4009    5.5787   17.8730 H   0  0  0  0  0  0  0  0  0  0  0  0
  1  2  1  0
  2  3  2  0
  2  4  1  0
  4  5  2  0
  5  6  1  0
  6  7  2  0
  6  8  1  0
  8  9  1  0
  9 10  2  0
  9 11  1  0
  4 11  1  0
 13 14  1  0
 14 15  2  0
 14 16  1  0
 16 17  2  0
 17 18  1  0
 18 19  2  0
 18 20  1  0
 20 21  1  0
 21 22  2  0
 21 23  1  0
 16 23  1  0
  5 24  1  0
  8 25  1  0
 11 26  1  0
 17 27  1  0
 20 28  1  0
 23 29  1  0
M  CHG  3   1  -1  12   2  13  -1
M  END
> <Uni-Dock RESULT> 
ENERGY=   -5.013  LOWER_BOUND=    6.461  UPPER_BOUND=    8.484
INTER + INTRA:          -5.013
INTER:                  -5.013
INTRA:                   0.000
UNBOUND:                 0.000

$$$$

     RDKit          3D

 29 28  0  0  0  0  0  0  0  0999 V2000
   47.0157    2.5825   17.7120 O   0  0  0  0  0  0  0  0  0  0  0  0
   47.7079    3.6362   17.6979 C   0  0  0  0  0  0  0  0  0  0  0  0
   48.4410    4.1531   18.5948 O   0  0  0  0  0  0  0  0  0  0  0  0
   47.6821    4.4657   16.3763 C   0  0  0  0  0  0  0  0  0  0  0  0
   46.9568    4.0610   15.3269 C   0  0  0  0  0  0  0  0  0  0  0  0
   46.9626    4.8763   14.0996 C   0  0  0  0  0  0  0  0  0  0  0  0
   46.3154    4.5515   13.1079 O   0  0  0  0  0  0  0  0  0  0  0  0
   47.7270    6.0103   14.1292 N   0  0  0  0  0  0  0  0  0  0  0  0
   48.4721    6.4336   15.1959 C   0  0  0  0  0  0  0  0  0  0  0  0
   49.1344    7.4668   15.1446 O   0  0  0  0  0  0  0  0  0  0  0  0
   48.4193    5.6319   16.2947 N   0  0  0  0  0  0  0  0  0  0  0  0
   47.7062    4.9629   15.6753 Mg  0  0  0  0  0 15  0  0  0  0  0  0
   46.6981    2.7546   17.6314 O   0  0  0  0  0  0  0  0  0  0  0  0
   47.4607    3.7600   17.7594 C   0  0  0  0  0  0  0  0  0  0  0  0
   48.0771    4.1977   18.7684 O   0  0  0  0  0  0  0  0  0  0  0  0
   47.6432    4.5619   16.4332 C   0  0  0  0  0  0  0  0  0  0  0  0
   48.4173    5.6528   16.3925 C   0  0  0  0  0  0  0  0  0  0  0  0
   48.5601    6.3783   15.1182 C   0  0  0  0  0  0  0  0  0  0  0  0
   49.2575    7.3847   15.0249 O   0  0  0  0  0  0  0  0  0  0  0  0
   47.8740    5.8682   14.0504 N   0  0  0  0  0  0  0  0  0  0  0  0
   47.0801    4.7541   14.0803 C   0  0  0  0  0  0  0  0  0  0  0  0
   46.4950    4.3577   13.0758 O   0  0  0  0  0  0  0  0  0  0  0  0
   46.9948    4.1352   15.2897 N   0  0  0  0  0  0  0  0  0  0  0  0
   46.3619    3.1565   15.3375 H   0  0  0  0  0  0  0  0  0  0  0  0
   47.7453    6.5809   13.3030 H   0  0  0  0  0  0  0  0  0  0  0  0
   48.9452    5.8740   17.1337 H   0  0  0  0  0  0  0  0  0  0  0  0
   48.9471    6.0299   17.2582 H   0  0  0  0  0  0  0  0  0  0  0  0
   47.9573    6.3472   13.1717 H   0  0  0  0  0  0  0  0  0  0  0  0
   46.4241    3.2978   15.3997 H   0  0  0  0  0  0  0  0  0  0  0  0
  1  2  1  0
  2  3  2  0
  2  4  1  0
  4  5  2  0
  5  6  1  0
  6  7  2  0
  6  8  1  0
  8  9  1  0
  9 10  2  0
  9 11  1  0
  4 11  1  0
 13 14  1  0
 14 15  2  0
 14 16  1  0
 16 17  2  0
 17 18  1  0
 18 19  2  0
 18 20  1  0
 20 21  1  0
 21 22  2  0
 21 23  1  0
 16 23  1  0
  5 24  1  0
  8 25  1  0
 11 26  1  0
 17 27  1  0
 20 28  1  0
 23 29  1  0
M  CHG  3   1  -1  12   2  13  -1
M  END
> <Uni-Dock RESULT> 
ENERGY=   -4.829  LOWER_BOUND=    3.710  UPPER_BOUND=    5.219
INTER + INTRA:          -4.829
INTER:                  -4.829
INTRA:                   0.000
UNBOUND:                 0.000

$$$$
