
     RDKit          3D

 18 17  0  0  0  0  0  0  0  0999 V2000
    0.0000    0.0000    0.0000 Na  0  0  0  0  0 15  0  0  0  0  0  0
    2.1994    0.5057    1.4791 C   0  0  0  0  0  0  0  0  0  0  0  0
    3.0023   -0.4685    1.3817 O   0  0  0  0  0  0  0  0  0  0  0  0
    1.8703    1.1727    2.5037 O   0  0  0  0  0  0  0  0  0  0  0  0
    1.5894    0.9850    0.1624 C   0  0  0  0  0  0  0  0  0  0  0  0
    0.2837    0.2955   -0.1460 C   0  0  0  0  0  0  0  0  0  0  0  0
   -0.9275    0.8289    0.3121 C   0  0  0  0  0  0  0  0  0  0  0  0
    0.2664   -0.9022   -0.8717 C   0  0  0  0  0  0  0  0  0  0  0  0
   -0.9417   -1.5407   -1.1570 C   0  0  0  0  0  0  0  0  0  0  0  0
   -2.1359    0.1908    0.0270 C   0  0  0  0  0  0  0  0  0  0  0  0
   -2.1434   -0.9916   -0.7117 C   0  0  0  0  0  0  0  0  0  0  0  0
    2.3012    0.8175   -0.6559 H   0  0  0  0  0  0  0  0  0  0  0  0
    1.4366    2.0712    0.2011 H   0  0  0  0  0  0  0  0  0  0  0  0
   -0.9204    1.7365    0.9122 H   0  0  0  0  0  0  0  0  0  0  0  0
    1.2056   -1.3461   -1.1957 H   0  0  0  0  0  0  0  0  0  0  0  0
   -0.9382   -2.4729   -1.7132 H   0  0  0  0  0  0  0  0  0  0  0  0
   -3.0657    0.6119    0.3963 H   0  0  0  0  0  0  0  0  0  0  0  0
   -3.0820   -1.4935   -0.9244 H   0  0  0  0  0  0  0  0  0  0  0  0
  3  2  1  0
  4  2  2  0
  5  2  1  0
  6  5  1  0
  7  6  2  0
  8  6  1  0
  9  8  2  0
 10  7  1  0
 11 10  2  0
 11  9  1  0
  5 12  1  0
  5 13  1  0
  7 14  1  0
  8 15  1  0
  9 16  1  0
 10 17  1  0
 11 18  1  0
M  CHG  2   1   1   3  -1
M  END
$$$$
