
     RDKit          3D

 18 17  0  0  0  0  0  0  0  0999 V2000
    0.0000    0.0000    0.0000 Na  0  0  0  0  0 15  0  0  0  0  0  0
   -2.6546    0.0216    0.4829 C   0  0  0  0  0  0  0  0  0  0  0  0
   -2.9095   -0.7492    1.4545 O   0  0  0  0  0  0  0  0  0  0  0  0
   -3.1162    1.1737    0.2324 O   0  0  0  0  0  0  0  0  0  0  0  0
   -1.7031   -0.5453   -0.5701 C   0  0  0  0  0  0  0  0  0  0  0  0
   -0.2625   -0.2056   -0.2791 C   0  0  0  0  0  0  0  0  0  0  0  0
    0.5216   -1.0530    0.5137 C   0  0  0  0  0  0  0  0  0  0  0  0
    0.3037    0.9753   -0.7755 C   0  0  0  0  0  0  0  0  0  0  0  0
    1.6367    1.2900   -0.5062 C   0  0  0  0  0  0  0  0  0  0  0  0
    1.8547   -0.7387    0.7833 C   0  0  0  0  0  0  0  0  0  0  0  0
    2.4138    0.4305    0.2692 C   0  0  0  0  0  0  0  0  0  0  0  0
   -1.8243   -1.6345   -0.6278 H   0  0  0  0  0  0  0  0  0  0  0  0
   -1.9822   -0.1657   -1.5613 H   0  0  0  0  0  0  0  0  0  0  0  0
    0.0784   -1.9515    0.9383 H   0  0  0  0  0  0  0  0  0  0  0  0
   -0.3097    1.6603   -1.3574 H   0  0  0  0  0  0  0  0  0  0  0  0
    2.0588    2.2132   -0.8908 H   0  0  0  0  0  0  0  0  0  0  0  0
    2.4471   -1.4012    1.4066 H   0  0  0  0  0  0  0  0  0  0  0  0
    3.4472    0.6802    0.4875 H   0  0  0  0  0  0  0  0  0  0  0  0
  3  2  1  0
  4  2  2  0
  5  2  1  0
  6  5  1  0
  7  6  2  0
  8  6  1  0
  9  8  2  0
 10  7  1  0
 11 10  2  0
 11  9  1  0
  5 12  1  0
  5 13  1  0
  7 14  1  0
  8 15  1  0
  9 16  1  0
 10 17  1  0
 11 18  1  0
M  CHG  2   1   1   3  -1
M  END
$$$$
