
     RDKit          3D

 18 17  0  0  0  0  0  0  0  0999 V2000
    0.0000    0.0000    0.0000 Na  0  0  0  0  0 15  0  0  0  0  0  0
    2.5173   -0.2414    1.0054 C   0  0  0  0  0  0  0  0  0  0  0  0
    3.2200   -0.8739    0.1632 O   0  0  0  0  0  0  0  0  0  0  0  0
    2.4837   -0.3544    2.2660 O   0  0  0  0  0  0  0  0  0  0  0  0
    1.6301    0.8583    0.4230 C   0  0  0  0  0  0  0  0  0  0  0  0
    0.2545    0.3526    0.0663 C   0  0  0  0  0  0  0  0  0  0  0  0
   -0.0020   -0.1721   -1.2067 C   0  0  0  0  0  0  0  0  0  0  0  0
   -0.7787    0.3757    1.0114 C   0  0  0  0  0  0  0  0  0  0  0  0
   -2.0517   -0.0924    0.6816 C   0  0  0  0  0  0  0  0  0  0  0  0
   -1.2748   -0.6404   -1.5370 C   0  0  0  0  0  0  0  0  0  0  0  0
   -2.3011   -0.5961   -0.5943 C   0  0  0  0  0  0  0  0  0  0  0  0
    1.5484    1.6844    1.1410 H   0  0  0  0  0  0  0  0  0  0  0  0
    2.1109    1.2876   -0.4652 H   0  0  0  0  0  0  0  0  0  0  0  0
    0.8052   -0.2327   -1.9339 H   0  0  0  0  0  0  0  0  0  0  0  0
   -0.5779    0.7428    2.0159 H   0  0  0  0  0  0  0  0  0  0  0  0
   -2.8400   -0.0759    1.4277 H   0  0  0  0  0  0  0  0  0  0  0  0
   -1.4559   -1.0521   -2.5249 H   0  0  0  0  0  0  0  0  0  0  0  0
   -3.2880   -0.9699   -0.8476 H   0  0  0  0  0  0  0  0  0  0  0  0
  3  2  1  0
  4  2  2  0
  5  2  1  0
  6  5  1  0
  7  6  2  0
  8  6  1  0
  9  8  2  0
 10  7  1  0
 11 10  2  0
 11  9  1  0
  5 12  1  0
  5 13  1  0
  7 14  1  0
  8 15  1  0
  9 16  1  0
 10 17  1  0
 11 18  1  0
M  CHG  2   1   1   3  -1
M  END
$$$$
