
     RDKit          3D

 18 17  0  0  0  0  0  0  0  0999 V2000
    0.0000    0.0000    0.0000 Na  0  0  0  0  0 15  0  0  0  0  0  0
   -2.6804    0.1423   -0.2755 C   0  0  0  0  0  0  0  0  0  0  0  0
   -3.0719    1.3056    0.0354 O   0  0  0  0  0  0  0  0  0  0  0  0
   -3.0414   -0.5926   -1.2414 O   0  0  0  0  0  0  0  0  0  0  0  0
   -1.6763   -0.4896    0.6878 C   0  0  0  0  0  0  0  0  0  0  0  0
   -0.2490   -0.2017    0.2940 C   0  0  0  0  0  0  0  0  0  0  0  0
    0.4355   -1.0601   -0.5757 C   0  0  0  0  0  0  0  0  0  0  0  0
    0.4033    0.9421    0.7710 C   0  0  0  0  0  0  0  0  0  0  0  0
    1.7241    1.2088    0.4066 C   0  0  0  0  0  0  0  0  0  0  0  0
    1.7563   -0.7938   -0.9404 C   0  0  0  0  0  0  0  0  0  0  0  0
    2.4023    0.3383   -0.4455 C   0  0  0  0  0  0  0  0  0  0  0  0
   -1.8625   -0.1243    1.7058 H   0  0  0  0  0  0  0  0  0  0  0  0
   -1.8392   -1.5741    0.7306 H   0  0  0  0  0  0  0  0  0  0  0  0
   -0.0767   -1.9287   -0.9844 H   0  0  0  0  0  0  0  0  0  0  0  0
   -0.1341    1.6366    1.4137 H   0  0  0  0  0  0  0  0  0  0  0  0
    2.2133    2.1040    0.7776 H   0  0  0  0  0  0  0  0  0  0  0  0
    2.2707   -1.4639   -1.6222 H   0  0  0  0  0  0  0  0  0  0  0  0
    3.4258    0.5511   -0.7374 H   0  0  0  0  0  0  0  0  0  0  0  0
  3  2  1  0
  4  2  2  0
  5  2  1  0
  6  5  1  0
  7  6  2  0
  8  6  1  0
  9  8  2  0
 10  7  1  0
 11 10  2  0
 11  9  1  0
  5 12  1  0
  5 13  1  0
  7 14  1  0
  8 15  1  0
  9 16  1  0
 10 17  1  0
 11 18  1  0
M  CHG  2   1   1   3  -1
M  END
$$$$
