
     RDKit          3D

 11 10  0  0  0  0  0  0  0  0999 V2000
    0.0000    0.0000    0.0000 Na  0  0  0  0  0 15  0  0  0  0  0  0
   -2.1345   -0.3803   -0.5322 C   0  0  0  0  0  0  0  0  0  0  0  0
   -3.3383   -0.8394   -1.0603 O   0  0  0  0  0  0  0  0  0  0  0  0
   -2.1132    0.3418    0.5032 O   0  0  0  0  0  0  0  0  0  0  0  0
   -0.8944   -0.7872   -1.2526 C   0  0  0  0  0  0  0  0  0  0  0  0
    0.3170   -0.2404   -0.5993 C   0  0  0  0  0  0  0  0  0  0  0  0
    0.7527    1.0023   -1.0265 C   0  0  0  0  0  0  0  0  0  0  0  0
    0.9416   -0.9702    0.3779 C   0  0  0  0  0  0  0  0  0  0  0  0
    2.0674   -0.4420    0.9723 C   0  0  0  0  0  0  0  0  0  0  0  0
    1.8872    1.5258   -0.4219 C   0  0  0  0  0  0  0  0  0  0  0  0
    2.5144    0.7896    0.5615 C   0  0  0  0  0  0  0  0  0  0  0  0
  3  2  1  0
  4  2  2  0
  5  2  1  0
  6  5  1  0
  7  6  2  0
  8  6  1  0
  9  8  2  0
 10  7  1  0
 11 10  2  0
 11  9  1  0
M  CHG  2   1   1   3  -1
M  END
