
     RDKit          3D

 18 17  0  0  0  0  0  0  0  0999 V2000
    0.0000    0.0000    0.0000 Na  0  0  0  0  0 15  0  0  0  0  0  0
   -2.6167   -0.0084   -0.6584 C   0  0  0  0  0  0  0  0  0  0  0  0
   -2.9080   -1.1142   -1.2021 O   0  0  0  0  0  0  0  0  0  0  0  0
   -2.9693    1.1626   -0.9865 O   0  0  0  0  0  0  0  0  0  0  0  0
   -1.7715   -0.1058    0.6111 C   0  0  0  0  0  0  0  0  0  0  0  0
   -0.2932   -0.0382    0.3189 C   0  0  0  0  0  0  0  0  0  0  0  0
    0.4335   -1.2059    0.0547 C   0  0  0  0  0  0  0  0  0  0  0  0
    0.3682    1.1957    0.2811 C   0  0  0  0  0  0  0  0  0  0  0  0
    1.7362    1.2587    0.0105 C   0  0  0  0  0  0  0  0  0  0  0  0
    1.8015   -1.1435   -0.2159 C   0  0  0  0  0  0  0  0  0  0  0  0
    2.4540    0.0885   -0.2333 C   0  0  0  0  0  0  0  0  0  0  0  0
   -2.0514    0.6990    1.3027 H   0  0  0  0  0  0  0  0  0  0  0  0
   -2.0044   -1.0400    1.1379 H   0  0  0  0  0  0  0  0  0  0  0  0
   -0.0802   -2.1651    0.0406 H   0  0  0  0  0  0  0  0  0  0  0  0
   -0.1964    2.1116    0.4438 H   0  0  0  0  0  0  0  0  0  0  0  0
    2.2330    2.2232   -0.0237 H   0  0  0  0  0  0  0  0  0  0  0  0
    2.3493   -2.0565   -0.4272 H   0  0  0  0  0  0  0  0  0  0  0  0
    3.5154    0.1382   -0.4541 H   0  0  0  0  0  0  0  0  0  0  0  0
  3  2  1  0
  4  2  2  0
  5  2  1  0
  6  5  1  0
  7  6  2  0
  8  6  1  0
  9  8  2  0
 10  7  1  0
 11 10  2  0
 11  9  1  0
  5 12  1  0
  5 13  1  0
  7 14  1  0
  8 15  1  0
  9 16  1  0
 10 17  1  0
 11 18  1  0
M  CHG  2   1   1   3  -1
M  END
$$$$
