
     RDKit          3D

129139  0  0  0  0  0  0  0  0999 V2000
   48.1034    8.7538   19.9762 C   0  0  0  0  0  0  0  0  0  0  0  0
   47.4039    9.6465   19.1235 C   0  0  0  0  0  0  0  0  0  0  0  0
   48.1065    8.8084   21.3919 C   0  0  0  0  0  0  0  0  0  0  0  0
   48.8501    7.7286   19.3566 C   0  0  0  0  0  0  0  0  0  0  0  0
   48.8192    7.8847   22.1673 C   0  0  0  0  0  0  0  0  0  0  0  0
   49.5666    6.8795   21.5333 C   0  0  0  0  0  0  0  0  0  0  0  0
   49.5736    6.8090   20.1372 C   0  0  0  0  0  0  0  0  0  0  0  0
   47.4190    9.5403   17.7642 N   0  0  0  0  0  0  0  0  0  0  0  0
   48.7085   13.9348   18.9421 C   0  0  0  0  0  0  0  0  0  0  0  0
   46.6026   10.8220   19.6491 C   0  0  0  0  0  0  0  0  0  0  0  0
   48.9972   14.3846   20.2448 C   0  0  0  0  0  0  0  0  0  0  0  0
   47.9359   12.7802   18.7672 C   0  0  0  0  0  0  0  0  0  0  0  0
   47.4292   12.0717   19.8698 C   0  0  0  0  0  0  0  0  0  0  0  0
   48.4856   13.6862   21.3436 C   0  0  0  0  0  0  0  0  0  0  0  0
   47.7048   12.5417   21.1572 C   0  0  0  0  0  0  0  0  0  0  0  0
   48.1453    8.5470   17.2208 C   0  0  0  0  0  0  0  0  0  0  0  0
   48.8541    7.8875   23.5401 O   0  0  0  0  0  0  0  0  0  0  0  0
   50.2410    6.0161   22.3601 O   0  0  0  0  0  0  0  0  0  0  0  0
   49.2343   14.6791   17.9142 O   0  0  0  0  0  0  0  0  0  0  0  0
   49.7652   15.5188   20.3385 O   0  0  0  0  0  0  0  0  0  0  0  0
   48.8671    7.6334   17.9624 C   0  0  0  0  0  0  0  0  0  0  0  0
   48.0062    8.7982   24.2249 C   0  0  0  0  0  0  0  0  0  0  0  0
   48.8715   14.3136   16.5900 C   0  0  0  0  0  0  0  0  0  0  0  0
   51.0636    5.0273   21.7574 C   0  0  0  0  0  0  0  0  0  0  0  0
   50.2671   15.8639   21.6219 C   0  0  0  0  0  0  0  0  0  0  0  0
   48.9195   10.7872   21.2042 C   0  0  2  0  0  0  0  0  0  0  0  0
   48.6062    9.6700   20.2625 C   0  0  0  0  0  0  0  0  0  0  0  0
   49.9945   11.6828   20.5719 C   0  0  2  0  0  0  0  0  0  0  0  0
   48.3951    8.4963   20.9506 C   0  0  0  0  0  0  0  0  0  0  0  0
   49.3275    9.9241   22.4150 C   0  0  1  0  0  0  0  0  0  0  0  0
   48.6299    8.6300   22.2956 O   0  0  0  0  0  0  0  0  0  0  0  0
   49.4071   12.1833   19.2099 C   0  0  1  0  0  0  0  0  0  0  0  0
   48.6134    9.7386   18.8800 C   0  0  0  0  0  0  0  0  0  0  0  0
   51.3331   10.9893   20.4792 C   0  0  0  0  0  0  0  0  0  0  0  0
   49.1005   11.0026   18.2205 C   0  0  0  0  0  0  0  0  0  0  0  0
   48.2531   13.0651   19.5370 N   0  0  0  0  0  0  0  0  0  0  0  0
   47.6476   11.6160   21.4717 C   0  0  0  0  0  0  0  0  0  0  0  0
   51.7090   10.0752   21.3871 C   0  0  0  0  0  0  0  0  0  0  0  0
   50.8600    9.6888   22.5641 C   0  0  2  0  0  0  0  0  0  0  0  0
   48.0579    7.3438   20.2762 C   0  0  0  0  0  0  0  0  0  0  0  0
   47.1602   12.3656   20.2227 C   0  0  0  0  0  0  0  0  0  0  0  0
   48.2744    8.5772   18.1821 C   0  0  0  0  0  0  0  0  0  0  0  0
   47.9783    7.3870   18.8799 C   0  0  0  0  0  0  0  0  0  0  0  0
   47.8465    6.1909   20.9675 O   0  0  0  0  0  0  0  0  0  0  0  0
   51.1633    8.3360   22.8979 O   0  0  0  0  0  0  0  0  0  0  0  0
   47.7596   13.8182   18.3877 C   0  0  0  0  0  0  0  0  0  0  0  0
   48.9682   11.4680   21.0612 C   0  0  2  0  0  0  0  0  0  0  0  0
   48.5278   10.1978   20.3961 C   0  0  0  0  0  0  0  0  0  0  0  0
   50.0305   12.1488   20.1829 C   0  0  2  0  0  0  0  0  0  0  0  0
   48.2601    9.2218   21.3342 C   0  0  0  0  0  0  0  0  0  0  0  0
   49.4243   10.8245   22.3868 C   0  0  1  0  0  0  0  0  0  0  0  0
   48.5956    9.6273   22.6059 O   0  0  0  0  0  0  0  0  0  0  0  0
   49.3380   12.3657   18.7855 C   0  0  2  0  0  0  0  0  0  0  0  0
   48.1830   13.2994   18.9139 N   0  0  0  0  0  0  0  0  0  0  0  0
   48.4611    9.9599   19.0371 C   0  0  0  0  0  0  0  0  0  0  0  0
   51.3335   11.3877   20.1562 C   0  0  0  0  0  0  0  0  0  0  0  0
   49.0384   10.9838   18.1000 C   0  0  0  0  0  0  0  0  0  0  0  0
   47.7243   12.3761   21.2252 C   0  0  0  0  0  0  0  0  0  0  0  0
   51.7250   10.6185   21.1836 C   0  0  0  0  0  0  0  0  0  0  0  0
   50.9377   10.4503   22.4508 C   0  0  2  0  0  0  0  0  0  0  0  0
   47.7886    7.9750   20.9653 C   0  0  0  0  0  0  0  0  0  0  0  0
   47.7490   13.5836   20.2820 C   0  0  0  0  0  0  0  0  0  0  0  0
   47.9920    8.7100   18.6337 C   0  0  0  0  0  0  0  0  0  0  0  0
   47.6357    7.7338   19.5918 C   0  0  0  0  0  0  0  0  0  0  0  0
   47.0646   13.0836   18.0086 C   0  0  0  0  0  0  0  0  0  0  0  0
   51.1492    9.1170   22.9163 O   0  0  0  0  0  0  0  0  0  0  0  0
   47.5465    7.0885   21.9738 O   0  0  0  0  0  0  0  0  0  0  0  0
   47.0880    5.7970   21.5977 C   0  0  0  0  0  0  0  0  0  0  0  0
   47.5402    9.5877   21.8848 H   0  0  0  0  0  0  0  0  0  0  0  0
   50.1390    6.0344   19.6288 H   0  0  0  0  0  0  0  0  0  0  0  0
   46.0585   10.5433   20.5583 H   0  0  0  0  0  0  0  0  0  0  0  0
   45.8118   11.0631   18.9249 H   0  0  0  0  0  0  0  0  0  0  0  0
   47.7164   12.3984   17.7737 H   0  0  0  0  0  0  0  0  0  0  0  0
   48.6704   14.0134   22.3613 H   0  0  0  0  0  0  0  0  0  0  0  0
   47.3159   12.0256   22.0315 H   0  0  0  0  0  0  0  0  0  0  0  0
   48.1342    8.5032   16.1350 H   0  0  0  0  0  0  0  0  0  0  0  0
   49.4318    6.8602   17.4518 H   0  0  0  0  0  0  0  0  0  0  0  0
   46.9554    8.6375   23.9612 H   0  0  0  0  0  0  0  0  0  0  0  0
   48.1114    8.6114   25.2981 H   0  0  0  0  0  0  0  0  0  0  0  0
   48.3086    9.8335   24.0366 H   0  0  0  0  0  0  0  0  0  0  0  0
   47.7861   14.3537   16.4497 H   0  0  0  0  0  0  0  0  0  0  0  0
   49.3207   15.0418   15.9076 H   0  0  0  0  0  0  0  0  0  0  0  0
   49.2695   13.3268   16.3314 H   0  0  0  0  0  0  0  0  0  0  0  0
   51.8541    5.4843   21.1530 H   0  0  0  0  0  0  0  0  0  0  0  0
   51.5455    4.4596   22.5594 H   0  0  0  0  0  0  0  0  0  0  0  0
   50.4668    4.3256   21.1660 H   0  0  0  0  0  0  0  0  0  0  0  0
   49.4569   16.1758   22.2889 H   0  0  0  0  0  0  0  0  0  0  0  0
   50.8456   15.0424   22.0578 H   0  0  0  0  0  0  0  0  0  0  0  0
   50.9418   16.7168   21.4987 H   0  0  0  0  0  0  0  0  0  0  0  0
   50.1647   12.5621   21.2122 H   0  0  0  0  0  0  0  0  0  0  0  0
   48.9674   10.3715   23.3498 H   0  0  0  0  0  0  0  0  0  0  0  0
   50.1667   12.8188   18.7334 H   0  0  0  0  0  0  0  0  0  0  0  0
   52.0164   11.2724   19.6831 H   0  0  0  0  0  0  0  0  0  0  0  0
   50.0393   10.7550   17.7058 H   0  0  0  0  0  0  0  0  0  0  0  0
   48.3937   11.3075   17.4434 H   0  0  0  0  0  0  0  0  0  0  0  0
   46.8307   10.9865   21.8477 H   0  0  0  0  0  0  0  0  0  0  0  0
   47.8640   12.3490   22.2605 H   0  0  0  0  0  0  0  0  0  0  0  0
   52.6934    9.6190   21.3199 H   0  0  0  0  0  0  0  0  0  0  0  0
   51.2135   10.2974   23.4060 H   0  0  0  0  0  0  0  0  0  0  0  0
   46.6473   11.6734   19.5439 H   0  0  0  0  0  0  0  0  0  0  0  0
   46.4054   13.0935   20.5455 H   0  0  0  0  0  0  0  0  0  0  0  0
   48.2653    8.5744   17.0945 H   0  0  0  0  0  0  0  0  0  0  0  0
   47.7266    6.4970   18.3105 H   0  0  0  0  0  0  0  0  0  0  0  0
   47.5941    5.4934   20.3429 H   0  0  0  0  0  0  0  0  0  0  0  0
   50.3633    7.8152   22.6812 H   0  0  0  0  0  0  0  0  0  0  0  0
   48.5750   14.3663   17.9032 H   0  0  0  0  0  0  0  0  0  0  0  0
   47.2743   13.1844   17.6394 H   0  0  0  0  0  0  0  0  0  0  0  0
   47.0317   14.5695   18.7125 H   0  0  0  0  0  0  0  0  0  0  0  0
   50.2952   13.1312   20.5998 H   0  0  0  0  0  0  0  0  0  0  0  0
   49.2207   11.4940   23.2317 H   0  0  0  0  0  0  0  0  0  0  0  0
   50.0523   12.8820   18.1302 H   0  0  0  0  0  0  0  0  0  0  0  0
   51.9860   11.5071   19.2948 H   0  0  0  0  0  0  0  0  0  0  0  0
   48.4077   11.0889   17.2127 H   0  0  0  0  0  0  0  0  0  0  0  0
   49.9927   10.5816   17.7321 H   0  0  0  0  0  0  0  0  0  0  0  0
   47.6766   12.7696   22.2485 H   0  0  0  0  0  0  0  0  0  0  0  0
   46.7895   11.8215   21.0682 H   0  0  0  0  0  0  0  0  0  0  0  0
   52.6875   10.1140   21.1395 H   0  0  0  0  0  0  0  0  0  0  0  0
   51.4107   11.1048   23.1936 H   0  0  0  0  0  0  0  0  0  0  0  0
   46.7692   14.0783   20.2998 H   0  0  0  0  0  0  0  0  0  0  0  0
   48.4322   14.3364   20.6983 H   0  0  0  0  0  0  0  0  0  0  0  0
   47.9246    8.4654   17.5760 H   0  0  0  0  0  0  0  0  0  0  0  0
   47.2797    6.7768   19.2231 H   0  0  0  0  0  0  0  0  0  0  0  0
   46.5097   12.1691   18.2428 H   0  0  0  0  0  0  0  0  0  0  0  0
   47.4051   13.0460   16.9684 H   0  0  0  0  0  0  0  0  0  0  0  0
   46.3606   13.9227   18.0574 H   0  0  0  0  0  0  0  0  0  0  0  0
   50.2697    8.6891   22.9388 H   0  0  0  0  0  0  0  0  0  0  0  0
   46.9428    5.2137   22.5128 H   0  0  0  0  0  0  0  0  0  0  0  0
   46.1232    5.8551   21.0827 H   0  0  0  0  0  0  0  0  0  0  0  0
   47.8321    5.2765   20.9855 H   0  0  0  0  0  0  0  0  0  0  0  0
  2  1  1  0
  3  1  2  0
  4  1  1  0
  5  3  1  0
  6  7  1  0
  7  4  2  0
  8  2  2  0
  9 12  2  0
 10  2  1  0
 11 14  2  0
 12 13  1  0
 13 10  1  0
 14 15  1  0
 15 13  2  0
 16 21  2  0
 17  5  1  0
 18  6  1  0
 19  9  1  0
 20 11  1  0
 21  4  1  0
 22 17  1  0
 23 19  1  0
 24 18  1  0
 25 20  1  0
 16  8  1  0
  6  5  2  0
 11  9  1  0
 27 26  1  0
 28 26  1  0
 29 27  2  0
 30 26  1  0
 30 31  1  0
 32 28  1  0
 33 27  1  0
 28 34  1  0
 32 35  1  0
 36 41  1  0
 26 37  1  1
 38 39  1  0
 39 30  1  0
 40 29  1  0
 41 37  1  0
 42 33  2  0
 43 42  1  0
 44 40  1  0
 39 45  1  0
 46 36  1  0
 29 31  1  0
 32 36  1  0
 38 34  2  0
 35 33  1  0
 43 40  2  0
 48 47  1  0
 49 47  1  0
 50 48  2  0
 51 47  1  0
 52 51  1  0
 53 49  1  0
 54 62  1  0
 55 48  1  0
 49 56  1  0
 53 57  1  0
 47 58  1  1
 59 60  1  0
 60 51  1  0
 61 50  1  0
 62 58  1  0
 63 55  2  0
 64 63  1  0
 65 54  1  0
 60 66  1  0
 67 61  1  0
 68 67  1  0
 52 50  1  0
 53 54  1  0
 59 56  2  0
 57 55  1  0
 64 61  2  0
  3 69  1  0
  7 70  1  0
 10 71  1  0
 10 72  1  0
 12 73  1  0
 14 74  1  0
 15 75  1  0
 16 76  1  0
 21 77  1  0
 22 78  1  0
 22 79  1  0
 22 80  1  0
 23 81  1  0
 23 82  1  0
 23 83  1  0
 24 84  1  0
 24 85  1  0
 24 86  1  0
 25 87  1  0
 25 88  1  0
 25 89  1  0
 28 90  1  1
 30 91  1  1
 32 92  1  6
 34 93  1  0
 35 94  1  0
 35 95  1  0
 37 96  1  0
 37 97  1  0
 38 98  1  0
 39 99  1  1
 41100  1  0
 41101  1  0
 42102  1  0
 43103  1  0
 44104  1  0
 45105  1  0
 46106  1  0
 46107  1  0
 46108  1  0
 49109  1  1
 51110  1  1
 53111  1  6
 56112  1  0
 57113  1  0
 57114  1  0
 58115  1  0
 58116  1  0
 59117  1  0
 60118  1  1
 62119  1  0
 62120  1  0
 63121  1  0
 64122  1  0
 65123  1  0
 65124  1  0
 65125  1  0
 66126  1  0
 68127  1  0
 68128  1  0
 68129  1  0
M  END
> <Uni-Dock RESULT> 
ENERGY=   -6.991  LOWER_BOUND=    0.000  UPPER_BOUND=    0.000
INTER + INTRA:          -6.991
INTER:                  -6.991
INTRA:                   0.000
UNBOUND:                 0.000

$$$$

     RDKit          3D

129139  0  0  0  0  0  0  0  0999 V2000
   48.0729   12.2302   18.8094 C   0  0  0  0  0  0  0  0  0  0  0  0
   47.2520   11.7156   19.8460 C   0  0  0  0  0  0  0  0  0  0  0  0
   48.2851   11.6136   17.5516 C   0  0  0  0  0  0  0  0  0  0  0  0
   48.7234   13.4583   19.0571 C   0  0  0  0  0  0  0  0  0  0  0  0
   49.1078   12.1884   16.5742 C   0  0  0  0  0  0  0  0  0  0  0  0
   49.7567   13.4039   16.8432 C   0  0  0  0  0  0  0  0  0  0  0  0
   49.5575   14.0278   18.0782 C   0  0  0  0  0  0  0  0  0  0  0  0
   47.0664   12.3578   21.0344 N   0  0  0  0  0  0  0  0  0  0  0  0
   48.5007    7.9402   21.9223 C   0  0  0  0  0  0  0  0  0  0  0  0
   46.5332   10.3846   19.7366 C   0  0  0  0  0  0  0  0  0  0  0  0
   48.9773    7.0235   20.9656 C   0  0  0  0  0  0  0  0  0  0  0  0
   47.7148    9.0223   21.5081 C   0  0  0  0  0  0  0  0  0  0  0  0
   47.3790    9.2001   20.1552 C   0  0  0  0  0  0  0  0  0  0  0  0
   48.6362    7.1933   19.6196 C   0  0  0  0  0  0  0  0  0  0  0  0
   47.8403    8.2704   19.2187 C   0  0  0  0  0  0  0  0  0  0  0  0
   47.7078   13.5250   21.2233 C   0  0  0  0  0  0  0  0  0  0  0  0
   49.3453   11.6381   15.3387 O   0  0  0  0  0  0  0  0  0  0  0  0
   50.5489   13.9007   15.8385 O   0  0  0  0  0  0  0  0  0  0  0  0
   48.8662    7.7009   23.2247 O   0  0  0  0  0  0  0  0  0  0  0  0
   49.7469    5.9922   21.4444 O   0  0  0  0  0  0  0  0  0  0  0  0
   48.5344   14.1046   20.2818 C   0  0  0  0  0  0  0  0  0  0  0  0
   48.6048   10.4830   14.9718 C   0  0  0  0  0  0  0  0  0  0  0  0
   48.3129    8.5447   24.2249 C   0  0  0  0  0  0  0  0  0  0  0  0
   51.2768   15.0930   16.0960 C   0  0  0  0  0  0  0  0  0  0  0  0
   50.4318    5.1911   20.4919 C   0  0  0  0  0  0  0  0  0  0  0  0
   49.0546    9.9251   18.6326 C   0  0  2  0  0  0  0  0  0  0  0  0
   48.6094   11.3062   18.9897 C   0  0  0  0  0  0  0  0  0  0  0  0
   50.0213    9.4201   19.7134 C   0  0  2  0  0  0  0  0  0  0  0  0
   48.5064   12.0921   17.8639 C   0  0  0  0  0  0  0  0  0  0  0  0
   49.6402   10.2527   17.2444 C   0  0  1  0  0  0  0  0  0  0  0  0
   48.9370   11.4446   16.7337 O   0  0  0  0  0  0  0  0  0  0  0  0
   49.2373    9.4744   21.0673 C   0  0  1  0  0  0  0  0  0  0  0  0
   48.4119   11.7974   20.2686 C   0  0  0  0  0  0  0  0  0  0  0  0
   51.3338   10.1673   19.6996 C   0  0  0  0  0  0  0  0  0  0  0  0
   48.7918   10.9331   21.4427 C   0  0  0  0  0  0  0  0  0  0  0  0
   48.1413    8.4715   20.9705 N   0  0  0  0  0  0  0  0  0  0  0  0
   47.8334    8.9879   18.5521 C   0  0  0  0  0  0  0  0  0  0  0  0
   51.8430   10.6611   18.5603 C   0  0  0  0  0  0  0  0  0  0  0  0
   51.1786   10.4951   17.2237 C   0  0  2  0  0  0  0  0  0  0  0  0
   48.0772   13.3971   17.9617 C   0  0  0  0  0  0  0  0  0  0  0  0
   47.1642    8.7748   19.9182 C   0  0  0  0  0  0  0  0  0  0  0  0
   47.9774   13.1198   20.3838 C   0  0  0  0  0  0  0  0  0  0  0  0
   47.7919   13.9121   19.2310 C   0  0  0  0  0  0  0  0  0  0  0  0
   47.9743   14.1628   16.8415 O   0  0  0  0  0  0  0  0  0  0  0  0
   51.5326   11.6159   16.4163 O   0  0  0  0  0  0  0  0  0  0  0  0
   47.4806    8.2150   22.2470 C   0  0  0  0  0  0  0  0  0  0  0  0
   49.0794    9.3625   19.0439 C   0  0  2  0  0  0  0  0  0  0  0  0
   48.5498   10.7655   19.0716 C   0  0  0  0  0  0  0  0  0  0  0  0
   49.9978    9.1517   20.2585 C   0  0  2  0  0  0  0  0  0  0  0  0
   48.4271   11.2674   17.7920 C   0  0  0  0  0  0  0  0  0  0  0  0
   49.7286    9.4460   17.6473 C   0  0  1  0  0  0  0  0  0  0  0  0
   48.9455   10.4063   16.8517 O   0  0  0  0  0  0  0  0  0  0  0  0
   49.1055    9.4736   21.5154 C   0  0  2  0  0  0  0  0  0  0  0  0
   47.9790    8.5027   21.6191 N   0  0  0  0  0  0  0  0  0  0  0  0
   48.2837   11.5234   20.1953 C   0  0  0  0  0  0  0  0  0  0  0  0
   51.2851    9.9323   20.1529 C   0  0  0  0  0  0  0  0  0  0  0  0
   48.7127   10.9950   21.5356 C   0  0  0  0  0  0  0  0  0  0  0  0
   47.8702    8.3957   19.0930 C   0  0  0  0  0  0  0  0  0  0  0  0
   51.8268   10.2466   18.9663 C   0  0  0  0  0  0  0  0  0  0  0  0
   51.2361    9.8485   17.6447 C   0  0  2  0  0  0  0  0  0  0  0  0
   47.9106   12.5287   17.5570 C   0  0  0  0  0  0  0  0  0  0  0  0
   47.7511    7.6704   20.4375 C   0  0  0  0  0  0  0  0  0  0  0  0
   47.7645   12.8015   19.9906 C   0  0  0  0  0  0  0  0  0  0  0  0
   47.5571   13.2905   18.6807 C   0  0  0  0  0  0  0  0  0  0  0  0
   46.7398    8.9992   22.1978 C   0  0  0  0  0  0  0  0  0  0  0  0
   51.5187   10.8935   16.7134 O   0  0  0  0  0  0  0  0  0  0  0  0
   47.8233   12.9219   16.2535 O   0  0  0  0  0  0  0  0  0  0  0  0
   47.3186   14.2276   16.0086 C   0  0  0  0  0  0  0  0  0  0  0  0
   47.7953   10.6714   17.3437 H   0  0  0  0  0  0  0  0  0  0  0  0
   50.0442   14.9718   18.3020 H   0  0  0  0  0  0  0  0  0  0  0  0
   46.1304   10.2446   18.7273 H   0  0  0  0  0  0  0  0  0  0  0  0
   45.6432   10.4092   20.3810 H   0  0  0  0  0  0  0  0  0  0  0  0
   47.3520    9.7569   22.2221 H   0  0  0  0  0  0  0  0  0  0  0  0
   48.9683    6.4970   18.8568 H   0  0  0  0  0  0  0  0  0  0  0  0
   47.5868    8.3703   18.1663 H   0  0  0  0  0  0  0  0  0  0  0  0
   47.5364   13.9992   22.1860 H   0  0  0  0  0  0  0  0  0  0  0  0
   49.0201   15.0482   20.5080 H   0  0  0  0  0  0  0  0  0  0  0  0
   47.5272   10.6760   15.0018 H   0  0  0  0  0  0  0  0  0  0  0  0
   48.8682   10.2300   13.9401 H   0  0  0  0  0  0  0  0  0  0  0  0
   48.8725    9.6286   15.6021 H   0  0  0  0  0  0  0  0  0  0  0  0
   47.2185    8.5027   24.2197 H   0  0  0  0  0  0  0  0  0  0  0  0
   48.6538    8.1774   25.1978 H   0  0  0  0  0  0  0  0  0  0  0  0
   48.6717    9.5734   24.1141 H   0  0  0  0  0  0  0  0  0  0  0  0
   51.9677   14.9618   16.9354 H   0  0  0  0  0  0  0  0  0  0  0  0
   51.8739   15.3184   15.2070 H   0  0  0  0  0  0  0  0  0  0  0  0
   50.6015   15.9378   16.2656 H   0  0  0  0  0  0  0  0  0  0  0  0
   49.7280    4.5929   19.9042 H   0  0  0  0  0  0  0  0  0  0  0  0
   51.0711    5.8007   19.8446 H   0  0  0  0  0  0  0  0  0  0  0  0
   51.0779    4.4987   21.0403 H   0  0  0  0  0  0  0  0  0  0  0  0
   50.2813    8.3691   19.5132 H   0  0  0  0  0  0  0  0  0  0  0  0
   49.4206    9.4489   16.5307 H   0  0  0  0  0  0  0  0  0  0  0  0
   49.9159    9.1270   21.8590 H   0  0  0  0  0  0  0  0  0  0  0  0
   51.8909   10.2659   20.6274 H   0  0  0  0  0  0  0  0  0  0  0  0
   49.6450   11.4188   21.9363 H   0  0  0  0  0  0  0  0  0  0  0  0
   47.9768   10.9253   22.1722 H   0  0  0  0  0  0  0  0  0  0  0  0
   47.0833    9.3667   17.8460 H   0  0  0  0  0  0  0  0  0  0  0  0
   48.1615    8.0139   18.1648 H   0  0  0  0  0  0  0  0  0  0  0  0
   52.8082   11.1610   18.5711 H   0  0  0  0  0  0  0  0  0  0  0  0
   51.6506    9.6214   16.7568 H   0  0  0  0  0  0  0  0  0  0  0  0
   46.5589    9.6506   20.1821 H   0  0  0  0  0  0  0  0  0  0  0  0
   46.4629    7.9370   19.8176 H   0  0  0  0  0  0  0  0  0  0  0  0
   47.8076   13.5573   21.3650 H   0  0  0  0  0  0  0  0  0  0  0  0
   47.4618   14.9398   19.3517 H   0  0  0  0  0  0  0  0  0  0  0  0
   47.6347   15.0365   17.0898 H   0  0  0  0  0  0  0  0  0  0  0  0
   50.7112   12.1336   16.2924 H   0  0  0  0  0  0  0  0  0  0  0  0
   48.2136    7.9539   23.0181 H   0  0  0  0  0  0  0  0  0  0  0  0
   46.8923    9.0667   22.6011 H   0  0  0  0  0  0  0  0  0  0  0  0
   46.8062    7.3565   22.1576 H   0  0  0  0  0  0  0  0  0  0  0  0
   50.3178    8.1012   20.3151 H   0  0  0  0  0  0  0  0  0  0  0  0
   49.6499    8.4839   17.1260 H   0  0  0  0  0  0  0  0  0  0  0  0
   49.7134    9.3043   22.4144 H   0  0  0  0  0  0  0  0  0  0  0  0
   51.8027   10.2050   21.0694 H   0  0  0  0  0  0  0  0  0  0  0  0
   47.9573   11.2183   22.2944 H   0  0  0  0  0  0  0  0  0  0  0  0
   49.6035   11.5642   21.8360 H   0  0  0  0  0  0  0  0  0  0  0  0
   47.9730    7.6235   18.3201 H   0  0  0  0  0  0  0  0  0  0  0  0
   46.9244    8.9128   18.8829 H   0  0  0  0  0  0  0  0  0  0  0  0
   52.7740   10.7803   18.9336 H   0  0  0  0  0  0  0  0  0  0  0  0
   51.8115    8.9792   17.3023 H   0  0  0  0  0  0  0  0  0  0  0  0
   46.7830    7.1553   20.4877 H   0  0  0  0  0  0  0  0  0  0  0  0
   48.4858    6.8540   20.4588 H   0  0  0  0  0  0  0  0  0  0  0  0
   47.5423   13.4449   20.8389 H   0  0  0  0  0  0  0  0  0  0  0  0
   47.1538   14.2932   18.5785 H   0  0  0  0  0  0  0  0  0  0  0  0
   46.2288    9.7104   21.5404 H   0  0  0  0  0  0  0  0  0  0  0  0
   46.9229    9.4695   23.1697 H   0  0  0  0  0  0  0  0  0  0  0  0
   46.0479    8.1724   22.3968 H   0  0  0  0  0  0  0  0  0  0  0  0
   50.6537   11.2260   16.4000 H   0  0  0  0  0  0  0  0  0  0  0  0
   47.3123   14.3865   14.9254 H   0  0  0  0  0  0  0  0  0  0  0  0
   46.2880   14.3261   16.3661 H   0  0  0  0  0  0  0  0  0  0  0  0
   47.9658   14.9910   16.4535 H   0  0  0  0  0  0  0  0  0  0  0  0
  2  1  1  0
  3  1  2  0
  4  1  1  0
  5  3  1  0
  6  7  1  0
  7  4  2  0
  8  2  2  0
  9 12  2  0
 10  2  1  0
 11 14  2  0
 12 13  1  0
 13 10  1  0
 14 15  1  0
 15 13  2  0
 16 21  2  0
 17  5  1  0
 18  6  1  0
 19  9  1  0
 20 11  1  0
 21  4  1  0
 22 17  1  0
 23 19  1  0
 24 18  1  0
 25 20  1  0
 16  8  1  0
  6  5  2  0
 11  9  1  0
 27 26  1  0
 28 26  1  0
 29 27  2  0
 30 26  1  0
 30 31  1  0
 32 28  1  0
 33 27  1  0
 28 34  1  0
 32 35  1  0
 36 41  1  0
 26 37  1  1
 38 39  1  0
 39 30  1  0
 40 29  1  0
 41 37  1  0
 42 33  2  0
 43 42  1  0
 44 40  1  0
 39 45  1  0
 46 36  1  0
 29 31  1  0
 32 36  1  0
 38 34  2  0
 35 33  1  0
 43 40  2  0
 48 47  1  0
 49 47  1  0
 50 48  2  0
 51 47  1  0
 52 51  1  0
 53 49  1  0
 54 62  1  0
 55 48  1  0
 49 56  1  0
 53 57  1  0
 47 58  1  1
 59 60  1  0
 60 51  1  0
 61 50  1  0
 62 58  1  0
 63 55  2  0
 64 63  1  0
 65 54  1  0
 60 66  1  0
 67 61  1  0
 68 67  1  0
 52 50  1  0
 53 54  1  0
 59 56  2  0
 57 55  1  0
 64 61  2  0
  3 69  1  0
  7 70  1  0
 10 71  1  0
 10 72  1  0
 12 73  1  0
 14 74  1  0
 15 75  1  0
 16 76  1  0
 21 77  1  0
 22 78  1  0
 22 79  1  0
 22 80  1  0
 23 81  1  0
 23 82  1  0
 23 83  1  0
 24 84  1  0
 24 85  1  0
 24 86  1  0
 25 87  1  0
 25 88  1  0
 25 89  1  0
 28 90  1  1
 30 91  1  1
 32 92  1  6
 34 93  1  0
 35 94  1  0
 35 95  1  0
 37 96  1  0
 37 97  1  0
 38 98  1  0
 39 99  1  1
 41100  1  0
 41101  1  0
 42102  1  0
 43103  1  0
 44104  1  0
 45105  1  0
 46106  1  0
 46107  1  0
 46108  1  0
 49109  1  1
 51110  1  1
 53111  1  6
 56112  1  0
 57113  1  0
 57114  1  0
 58115  1  0
 58116  1  0
 59117  1  0
 60118  1  1
 62119  1  0
 62120  1  0
 63121  1  0
 64122  1  0
 65123  1  0
 65124  1  0
 65125  1  0
 66126  1  0
 68127  1  0
 68128  1  0
 68129  1  0
M  END
> <Uni-Dock RESULT> 
ENERGY=   -6.294  LOWER_BOUND=    1.788  UPPER_BOUND=    5.964
INTER + INTRA:          -6.294
INTER:                  -6.294
INTRA:                   0.000
UNBOUND:                 0.000

$$$$

     RDKit          3D

129139  0  0  0  0  0  0  0  0999 V2000
   49.7259   13.8640   22.1181 C   0  0  0  0  0  0  0  0  0  0  0  0
   48.5907   13.0128   22.1121 C   0  0  0  0  0  0  0  0  0  0  0  0
   49.9308   14.9606   21.2448 C   0  0  0  0  0  0  0  0  0  0  0  0
   50.7250   13.5929   23.0778 C   0  0  0  0  0  0  0  0  0  0  0  0
   51.0786   15.7606   21.3166 C   0  0  0  0  0  0  0  0  0  0  0  0
   52.0675   15.4681   22.2692 C   0  0  0  0  0  0  0  0  0  0  0  0
   51.8814   14.3910   23.1407 C   0  0  0  0  0  0  0  0  0  0  0  0
   48.4328   11.9793   22.9873 N   0  0  0  0  0  0  0  0  0  0  0  0
   47.9285   10.3144   18.5901 C   0  0  0  0  0  0  0  0  0  0  0  0
   47.4650   13.1567   21.1060 C   0  0  0  0  0  0  0  0  0  0  0  0
   48.2048   11.0249   17.4063 C   0  0  0  0  0  0  0  0  0  0  0  0
   47.6947   11.0184   19.7775 C   0  0  0  0  0  0  0  0  0  0  0  0
   47.7144   12.4232   19.8048 C   0  0  0  0  0  0  0  0  0  0  0  0
   48.2152   12.4235   17.4291 C   0  0  0  0  0  0  0  0  0  0  0  0
   47.9680   13.1166   18.6178 C   0  0  0  0  0  0  0  0  0  0  0  0
   49.4123   11.7607   23.8830 C   0  0  0  0  0  0  0  0  0  0  0  0
   51.3268   16.8364   20.5001 O   0  0  0  0  0  0  0  0  0  0  0  0
   53.1639   16.2937   22.2745 O   0  0  0  0  0  0  0  0  0  0  0  0
   47.9227    8.9446   18.4868 O   0  0  0  0  0  0  0  0  0  0  0  0
   48.4302   10.2679   16.2832 O   0  0  0  0  0  0  0  0  0  0  0  0
   50.5586   12.5256   23.9646 C   0  0  0  0  0  0  0  0  0  0  0  0
   50.2957   17.2519   19.6161 C   0  0  0  0  0  0  0  0  0  0  0  0
   47.5415    8.2035   19.6374 C   0  0  0  0  0  0  0  0  0  0  0  0
   54.2182   15.9904   23.1767 C   0  0  0  0  0  0  0  0  0  0  0  0
   48.9379   10.9352   15.1364 C   0  0  0  0  0  0  0  0  0  0  0  0
   49.7972   13.5551   19.6265 C   0  0  2  0  0  0  0  0  0  0  0  0
   49.8363   13.4631   21.1175 C   0  0  0  0  0  0  0  0  0  0  0  0
   50.2817   12.2240   19.0340 C   0  0  2  0  0  0  0  0  0  0  0  0
   50.2496   14.6548   21.6694 C   0  0  0  0  0  0  0  0  0  0  0  0
   50.7165   14.7836   19.4744 C   0  0  1  0  0  0  0  0  0  0  0  0
   50.6171   15.5717   20.7174 O   0  0  0  0  0  0  0  0  0  0  0  0
   49.3303   11.1168   19.5993 C   0  0  1  0  0  0  0  0  0  0  0  0
   49.5943   12.3296   21.8741 C   0  0  0  0  0  0  0  0  0  0  0  0
   51.7543   11.9929   19.2780 C   0  0  0  0  0  0  0  0  0  0  0  0
   49.3945   11.0151   21.1654 C   0  0  0  0  0  0  0  0  0  0  0  0
   47.9810   11.3750   19.0258 N   0  0  0  0  0  0  0  0  0  0  0  0
   48.3553   13.8351   19.1589 C   0  0  0  0  0  0  0  0  0  0  0  0
   52.6180   13.0174   19.3511 C   0  0  0  0  0  0  0  0  0  0  0  0
   52.2084   14.4515   19.1750 C   0  0  2  0  0  0  0  0  0  0  0  0
   50.3247   14.8009   23.0368 C   0  0  0  0  0  0  0  0  0  0  0  0
   47.4067   12.6603   19.4409 C   0  0  0  0  0  0  0  0  0  0  0  0
   49.6678   12.4620   23.2626 C   0  0  0  0  0  0  0  0  0  0  0  0
   50.0135   13.7007   23.8433 C   0  0  0  0  0  0  0  0  0  0  0  0
   50.7293   15.9853   23.5710 O   0  0  0  0  0  0  0  0  0  0  0  0
   53.1002   15.2591   19.9405 O   0  0  0  0  0  0  0  0  0  0  0  0
   47.0412   10.2800   19.2481 C   0  0  0  0  0  0  0  0  0  0  0  0
   49.5324   13.0944   19.1750 C   0  0  2  0  0  0  0  0  0  0  0  0
   49.5660   13.3428   20.6538 C   0  0  0  0  0  0  0  0  0  0  0  0
   50.0565   11.6766   18.8951 C   0  0  2  0  0  0  0  0  0  0  0  0
   49.8854   14.6582   20.9217 C   0  0  0  0  0  0  0  0  0  0  0  0
   50.4207   14.2901   18.7746 C   0  0  1  0  0  0  0  0  0  0  0  0
   50.2173   15.3484   19.7780 O   0  0  0  0  0  0  0  0  0  0  0  0
   49.1246   10.7171   19.7259 C   0  0  2  0  0  0  0  0  0  0  0  0
   47.7210   10.7928   19.2293 N   0  0  0  0  0  0  0  0  0  0  0  0
   49.3903   12.4033   21.6510 C   0  0  0  0  0  0  0  0  0  0  0  0
   51.5361   11.5436   19.1614 C   0  0  0  0  0  0  0  0  0  0  0  0
   49.3277   10.9515   21.2664 C   0  0  0  0  0  0  0  0  0  0  0  0
   48.0657   13.2435   18.7000 C   0  0  0  0  0  0  0  0  0  0  0  0
   52.3720   12.5872   19.0491 C   0  0  0  0  0  0  0  0  0  0  0  0
   51.9404   13.9646   18.6366 C   0  0  2  0  0  0  0  0  0  0  0  0
   49.9286   15.1420   22.2167 C   0  0  0  0  0  0  0  0  0  0  0  0
   47.4313   11.9015   18.3196 C   0  0  0  0  0  0  0  0  0  0  0  0
   49.4314   12.8602   22.9680 C   0  0  0  0  0  0  0  0  0  0  0  0
   49.6749   14.2244   23.2470 C   0  0  0  0  0  0  0  0  0  0  0  0
   46.6682   10.5902   20.2129 C   0  0  0  0  0  0  0  0  0  0  0  0
   52.7628   14.9013   19.3334 O   0  0  0  0  0  0  0  0  0  0  0  0
   50.2445   16.4606   22.3680 O   0  0  0  0  0  0  0  0  0  0  0  0
   50.3168   16.9555   23.6982 C   0  0  0  0  0  0  0  0  0  0  0  0
   49.1761   15.1836   20.5021 H   0  0  0  0  0  0  0  0  0  0  0  0
   52.6310   14.1537   23.8891 H   0  0  0  0  0  0  0  0  0  0  0  0
   47.2401   14.2139   20.9261 H   0  0  0  0  0  0  0  0  0  0  0  0
   46.5419   12.7563   21.5485 H   0  0  0  0  0  0  0  0  0  0  0  0
   47.5008   10.4951   20.7101 H   0  0  0  0  0  0  0  0  0  0  0  0
   48.4049   13.0053   16.5332 H   0  0  0  0  0  0  0  0  0  0  0  0
   47.9760   14.2036   18.6008 H   0  0  0  0  0  0  0  0  0  0  0  0
   49.2482   10.9239   24.5565 H   0  0  0  0  0  0  0  0  0  0  0  0
   51.3065   12.2862   24.7134 H   0  0  0  0  0  0  0  0  0  0  0  0
   49.3822   17.5072   20.1635 H   0  0  0  0  0  0  0  0  0  0  0  0
   50.6386   18.1557   19.1029 H   0  0  0  0  0  0  0  0  0  0  0  0
   50.1016   16.4903   18.8538 H   0  0  0  0  0  0  0  0  0  0  0  0
   46.5323    8.4724   19.9671 H   0  0  0  0  0  0  0  0  0  0  0  0
   47.5289    7.1440   19.3633 H   0  0  0  0  0  0  0  0  0  0  0  0
   48.2701    8.3289   20.4452 H   0  0  0  0  0  0  0  0  0  0  0  0
   54.6368   14.9984   22.9777 H   0  0  0  0  0  0  0  0  0  0  0  0
   55.0145   16.7243   23.0187 H   0  0  0  0  0  0  0  0  0  0  0  0
   53.8853   16.0800   24.2158 H   0  0  0  0  0  0  0  0  0  0  0  0
   48.1889   11.6123   14.7132 H   0  0  0  0  0  0  0  0  0  0  0  0
   49.8688   11.4656   15.3634 H   0  0  0  0  0  0  0  0  0  0  0  0
   49.1634   10.1765   14.3806 H   0  0  0  0  0  0  0  0  0  0  0  0
   50.1667   12.2445   17.9393 H   0  0  0  0  0  0  0  0  0  0  0  0
   50.3555   15.4422   18.6746 H   0  0  0  0  0  0  0  0  0  0  0  0
   49.6668   10.1514   19.1960 H   0  0  0  0  0  0  0  0  0  0  0  0
   52.1196   10.9722   19.3525 H   0  0  0  0  0  0  0  0  0  0  0  0
   50.2555   10.3805   21.4169 H   0  0  0  0  0  0  0  0  0  0  0  0
   48.5113   10.5110   21.5683 H   0  0  0  0  0  0  0  0  0  0  0  0
   47.9492   14.7389   19.6312 H   0  0  0  0  0  0  0  0  0  0  0  0
   48.3665   14.0272   18.0776 H   0  0  0  0  0  0  0  0  0  0  0  0
   53.6785   12.8221   19.4887 H   0  0  0  0  0  0  0  0  0  0  0  0
   52.4028   14.6954   18.1229 H   0  0  0  0  0  0  0  0  0  0  0  0
   47.1309   12.6450   20.5024 H   0  0  0  0  0  0  0  0  0  0  0  0
   46.4781   12.8425   18.8858 H   0  0  0  0  0  0  0  0  0  0  0  0
   49.4879   11.6030   23.9053 H   0  0  0  0  0  0  0  0  0  0  0  0
   50.0715   13.7717   24.9255 H   0  0  0  0  0  0  0  0  0  0  0  0
   50.6972   15.9196   24.5379 H   0  0  0  0  0  0  0  0  0  0  0  0
   52.5694   15.6335   20.6727 H   0  0  0  0  0  0  0  0  0  0  0  0
   47.4631    9.3299   18.9024 H   0  0  0  0  0  0  0  0  0  0  0  0
   46.7546   10.1711   20.2984 H   0  0  0  0  0  0  0  0  0  0  0  0
   46.1271   10.4427   18.6670 H   0  0  0  0  0  0  0  0  0  0  0  0
   49.9471   11.4349   17.8280 H   0  0  0  0  0  0  0  0  0  0  0  0
   50.0922   14.7123   17.8168 H   0  0  0  0  0  0  0  0  0  0  0  0
   49.4422    9.6839   19.5308 H   0  0  0  0  0  0  0  0  0  0  0  0
   51.9322   10.5615   19.4079 H   0  0  0  0  0  0  0  0  0  0  0  0
   48.5789   10.4284   21.8679 H   0  0  0  0  0  0  0  0  0  0  0  0
   50.2909   10.5024   21.5466 H   0  0  0  0  0  0  0  0  0  0  0  0
   48.0207   13.8833   17.8096 H   0  0  0  0  0  0  0  0  0  0  0  0
   47.4381   13.7313   19.4577 H   0  0  0  0  0  0  0  0  0  0  0  0
   53.4369   12.4417   19.2158 H   0  0  0  0  0  0  0  0  0  0  0  0
   52.2065   14.0637   17.5768 H   0  0  0  0  0  0  0  0  0  0  0  0
   46.3509   12.0372   18.1802 H   0  0  0  0  0  0  0  0  0  0  0  0
   47.7922   11.6164   17.3220 H   0  0  0  0  0  0  0  0  0  0  0  0
   49.3058   12.1635   23.7937 H   0  0  0  0  0  0  0  0  0  0  0  0
   49.6997   14.5255   24.2897 H   0  0  0  0  0  0  0  0  0  0  0  0
   46.5932   11.4228   20.9202 H   0  0  0  0  0  0  0  0  0  0  0  0
   46.8230    9.6571   20.7649 H   0  0  0  0  0  0  0  0  0  0  0  0
   45.6947   10.4824   19.7203 H   0  0  0  0  0  0  0  0  0  0  0  0
   52.1600   15.4499   19.8743 H   0  0  0  0  0  0  0  0  0  0  0  0
   50.5772   18.0177   23.6465 H   0  0  0  0  0  0  0  0  0  0  0  0
   49.3484   16.8738   24.2031 H   0  0  0  0  0  0  0  0  0  0  0  0
   51.1029   16.4471   24.2665 H   0  0  0  0  0  0  0  0  0  0  0  0
  2  1  1  0
  3  1  2  0
  4  1  1  0
  5  3  1  0
  6  7  1  0
  7  4  2  0
  8  2  2  0
  9 12  2  0
 10  2  1  0
 11 14  2  0
 12 13  1  0
 13 10  1  0
 14 15  1  0
 15 13  2  0
 16 21  2  0
 17  5  1  0
 18  6  1  0
 19  9  1  0
 20 11  1  0
 21  4  1  0
 22 17  1  0
 23 19  1  0
 24 18  1  0
 25 20  1  0
 16  8  1  0
  6  5  2  0
 11  9  1  0
 27 26  1  0
 28 26  1  0
 29 27  2  0
 30 26  1  0
 30 31  1  0
 32 28  1  0
 33 27  1  0
 28 34  1  0
 32 35  1  0
 36 41  1  0
 26 37  1  1
 38 39  1  0
 39 30  1  0
 40 29  1  0
 41 37  1  0
 42 33  2  0
 43 42  1  0
 44 40  1  0
 39 45  1  0
 46 36  1  0
 29 31  1  0
 32 36  1  0
 38 34  2  0
 35 33  1  0
 43 40  2  0
 48 47  1  0
 49 47  1  0
 50 48  2  0
 51 47  1  0
 52 51  1  0
 53 49  1  0
 54 62  1  0
 55 48  1  0
 49 56  1  0
 53 57  1  0
 47 58  1  1
 59 60  1  0
 60 51  1  0
 61 50  1  0
 62 58  1  0
 63 55  2  0
 64 63  1  0
 65 54  1  0
 60 66  1  0
 67 61  1  0
 68 67  1  0
 52 50  1  0
 53 54  1  0
 59 56  2  0
 57 55  1  0
 64 61  2  0
  3 69  1  0
  7 70  1  0
 10 71  1  0
 10 72  1  0
 12 73  1  0
 14 74  1  0
 15 75  1  0
 16 76  1  0
 21 77  1  0
 22 78  1  0
 22 79  1  0
 22 80  1  0
 23 81  1  0
 23 82  1  0
 23 83  1  0
 24 84  1  0
 24 85  1  0
 24 86  1  0
 25 87  1  0
 25 88  1  0
 25 89  1  0
 28 90  1  1
 30 91  1  1
 32 92  1  6
 34 93  1  0
 35 94  1  0
 35 95  1  0
 37 96  1  0
 37 97  1  0
 38 98  1  0
 39 99  1  1
 41100  1  0
 41101  1  0
 42102  1  0
 43103  1  0
 44104  1  0
 45105  1  0
 46106  1  0
 46107  1  0
 46108  1  0
 49109  1  1
 51110  1  1
 53111  1  6
 56112  1  0
 57113  1  0
 57114  1  0
 58115  1  0
 58116  1  0
 59117  1  0
 60118  1  1
 62119  1  0
 62120  1  0
 63121  1  0
 64122  1  0
 65123  1  0
 65124  1  0
 65125  1  0
 66126  1  0
 68127  1  0
 68128  1  0
 68129  1  0
M  END
> <Uni-Dock RESULT> 
ENERGY=   -6.166  LOWER_BOUND=    2.285  UPPER_BOUND=    6.070
INTER + INTRA:          -6.166
INTER:                  -6.166
INTRA:                   0.000
UNBOUND:                 0.000

$$$$

     RDKit          3D

129139  0  0  0  0  0  0  0  0999 V2000
   48.2073   10.8464   18.9508 C   0  0  0  0  0  0  0  0  0  0  0  0
   47.3961    9.6858   19.0408 C   0  0  0  0  0  0  0  0  0  0  0  0
   49.3819   10.9647   18.1674 C   0  0  0  0  0  0  0  0  0  0  0  0
   47.8022   11.9712   19.7014 C   0  0  0  0  0  0  0  0  0  0  0  0
   50.1282   12.1495   18.1255 C   0  0  0  0  0  0  0  0  0  0  0  0
   49.7170   13.2538   18.8886 C   0  0  0  0  0  0  0  0  0  0  0  0
   48.5593   13.1560   19.6661 C   0  0  0  0  0  0  0  0  0  0  0  0
   46.2630    9.6285   19.7971 N   0  0  0  0  0  0  0  0  0  0  0  0
   49.0693    6.0245   21.0205 C   0  0  0  0  0  0  0  0  0  0  0  0
   47.7373    8.3912   18.3283 C   0  0  0  0  0  0  0  0  0  0  0  0
   50.4032    5.8452   20.6067 C   0  0  0  0  0  0  0  0  0  0  0  0
   48.2220    6.8528   20.2747 C   0  0  0  0  0  0  0  0  0  0  0  0
   48.6753    7.4953   19.1101 C   0  0  0  0  0  0  0  0  0  0  0  0
   50.8538    6.4761   19.4423 C   0  0  0  0  0  0  0  0  0  0  0  0
   49.9954    7.2911   18.6983 C   0  0  0  0  0  0  0  0  0  0  0  0
   45.9184   10.7259   20.4946 C   0  0  0  0  0  0  0  0  0  0  0  0
   51.2698   12.3214   17.3819 O   0  0  0  0  0  0  0  0  0  0  0  0
   50.5022   14.3760   18.7988 O   0  0  0  0  0  0  0  0  0  0  0  0
   48.6965    5.3631   22.1653 O   0  0  0  0  0  0  0  0  0  0  0  0
   51.1765    5.0250   21.3906 O   0  0  0  0  0  0  0  0  0  0  0  0
   46.6445   11.8999   20.4811 C   0  0  0  0  0  0  0  0  0  0  0  0
   51.6459   11.2811   16.4911 C   0  0  0  0  0  0  0  0  0  0  0  0
   47.3303    5.4373   22.5480 C   0  0  0  0  0  0  0  0  0  0  0  0
   50.1593   15.4919   19.6080 C   0  0  0  0  0  0  0  0  0  0  0  0
   52.5745    5.0082   21.1388 C   0  0  0  0  0  0  0  0  0  0  0  0
   50.1760    9.3283   19.3091 C   0  0  2  0  0  0  0  0  0  0  0  0
   48.9444   10.1724   19.3710 C   0  0  0  0  0  0  0  0  0  0  0  0
   50.4465    8.7418   20.7021 C   0  0  2  0  0  0  0  0  0  0  0  0
   49.0830   11.2960   18.5874 C   0  0  0  0  0  0  0  0  0  0  0  0
   51.1403   10.4133   18.7891 C   0  0  1  0  0  0  0  0  0  0  0  0
   50.3386   11.4032   18.0453 O   0  0  0  0  0  0  0  0  0  0  0  0
   49.1694    7.9251   21.0928 C   0  0  1  0  0  0  0  0  0  0  0  0
   47.8357    9.9452   20.1678 C   0  0  0  0  0  0  0  0  0  0  0  0
   50.8625    9.8001   21.6961 C   0  0  0  0  0  0  0  0  0  0  0  0
   47.8851    8.8255   21.1748 C   0  0  0  0  0  0  0  0  0  0  0  0
   49.0898    6.7744   20.1517 N   0  0  0  0  0  0  0  0  0  0  0  0
   49.9734    8.1839   18.2964 C   0  0  0  0  0  0  0  0  0  0  0  0
   51.5488   10.8871   21.3109 C   0  0  0  0  0  0  0  0  0  0  0  0
   51.9764   11.1285   19.8915 C   0  0  2  0  0  0  0  0  0  0  0  0
   48.0484   12.1979   18.4729 C   0  0  0  0  0  0  0  0  0  0  0  0
   48.9069    7.1768   18.7522 C   0  0  0  0  0  0  0  0  0  0  0  0
   46.7786   10.8521   20.0634 C   0  0  0  0  0  0  0  0  0  0  0  0
   46.8774   11.9660   19.2028 C   0  0  0  0  0  0  0  0  0  0  0  0
   48.1949   13.3021   17.6912 O   0  0  0  0  0  0  0  0  0  0  0  0
   52.0376   12.5383   19.6861 O   0  0  0  0  0  0  0  0  0  0  0  0
   48.1027    5.7739   20.5471 C   0  0  0  0  0  0  0  0  0  0  0  0
   50.2678    8.6843   19.5603 C   0  0  2  0  0  0  0  0  0  0  0  0
   49.1567    9.6663   19.3349 C   0  0  0  0  0  0  0  0  0  0  0  0
   50.2725    8.2671   21.0399 C   0  0  2  0  0  0  0  0  0  0  0  0
   49.5244   10.6156   18.4033 C   0  0  0  0  0  0  0  0  0  0  0  0
   51.4098    9.5908   19.0569 C   0  0  1  0  0  0  0  0  0  0  0  0
   50.8448   10.4889   18.0359 O   0  0  0  0  0  0  0  0  0  0  0  0
   48.8365    7.6810   21.3113 C   0  0  2  0  0  0  0  0  0  0  0  0
   48.6078    6.4573   20.4911 N   0  0  0  0  0  0  0  0  0  0  0  0
   47.9467    9.7079   19.9998 C   0  0  0  0  0  0  0  0  0  0  0  0
   50.7062    9.3860   21.9552 C   0  0  0  0  0  0  0  0  0  0  0  0
   47.7500    8.8096   21.1890 C   0  0  0  0  0  0  0  0  0  0  0  0
   50.0162    7.4614   18.6437 C   0  0  0  0  0  0  0  0  0  0  0  0
   51.5374   10.3554   21.5432 C   0  0  0  0  0  0  0  0  0  0  0  0
   52.1290   10.4209   20.1650 C   0  0  2  0  0  0  0  0  0  0  0  0
   48.6462   11.6013   17.9908 C   0  0  0  0  0  0  0  0  0  0  0  0
   49.5837    6.2178   19.4275 C   0  0  0  0  0  0  0  0  0  0  0  0
   47.0407   10.6931   19.6081 C   0  0  0  0  0  0  0  0  0  0  0  0
   47.3797   11.6175   18.5939 C   0  0  0  0  0  0  0  0  0  0  0  0
   47.2413    6.2059   20.0597 C   0  0  0  0  0  0  0  0  0  0  0  0
   52.2567   11.7995   19.8153 O   0  0  0  0  0  0  0  0  0  0  0  0
   49.1087   12.4825   17.0575 O   0  0  0  0  0  0  0  0  0  0  0  0
   48.2191   13.5134   16.6508 C   0  0  0  0  0  0  0  0  0  0  0  0
   49.7085   10.1129   17.5856 H   0  0  0  0  0  0  0  0  0  0  0  0
   48.2209   14.0013   20.2569 H   0  0  0  0  0  0  0  0  0  0  0  0
   48.1296    8.5936   17.3255 H   0  0  0  0  0  0  0  0  0  0  0  0
   46.8087    7.8320   18.1466 H   0  0  0  0  0  0  0  0  0  0  0  0
   47.1945    7.0264   20.5833 H   0  0  0  0  0  0  0  0  0  0  0  0
   51.8686    6.3462   19.0816 H   0  0  0  0  0  0  0  0  0  0  0  0
   50.3738    7.7614   17.7941 H   0  0  0  0  0  0  0  0  0  0  0  0
   45.0127   10.6343   21.0881 H   0  0  0  0  0  0  0  0  0  0  0  0
   46.3043   12.7435   21.0727 H   0  0  0  0  0  0  0  0  0  0  0  0
   50.8534   11.0752   15.7638 H   0  0  0  0  0  0  0  0  0  0  0  0
   52.5268   11.6179   15.9358 H   0  0  0  0  0  0  0  0  0  0  0  0
   51.9253   10.3760   17.0403 H   0  0  0  0  0  0  0  0  0  0  0  0
   46.6754    5.0459   21.7622 H   0  0  0  0  0  0  0  0  0  0  0  0
   47.1969    4.8085   23.4338 H   0  0  0  0  0  0  0  0  0  0  0  0
   47.0538    6.4607   22.8227 H   0  0  0  0  0  0  0  0  0  0  0  0
   50.1896   15.2341   20.6718 H   0  0  0  0  0  0  0  0  0  0  0  0
   50.9065   16.2725   19.4344 H   0  0  0  0  0  0  0  0  0  0  0  0
   49.1828   15.8981   19.3253 H   0  0  0  0  0  0  0  0  0  0  0  0
   52.7932    4.5423   20.1726 H   0  0  0  0  0  0  0  0  0  0  0  0
   53.0025    6.0144   21.1998 H   0  0  0  0  0  0  0  0  0  0  0  0
   53.0467    4.3985   21.9153 H   0  0  0  0  0  0  0  0  0  0  0  0
   51.2945    8.0416   20.6487 H   0  0  0  0  0  0  0  0  0  0  0  0
   51.8433    9.9911   18.0602 H   0  0  0  0  0  0  0  0  0  0  0  0
   49.3370    7.5046   22.0944 H   0  0  0  0  0  0  0  0  0  0  0  0
   50.6345    9.6502   22.7480 H   0  0  0  0  0  0  0  0  0  0  0  0
   47.8735    9.2889   22.1711 H   0  0  0  0  0  0  0  0  0  0  0  0
   46.9731    8.2260   21.1027 H   0  0  0  0  0  0  0  0  0  0  0  0
   49.6963    8.5690   17.3066 H   0  0  0  0  0  0  0  0  0  0  0  0
   50.9268    7.6538   18.1683 H   0  0  0  0  0  0  0  0  0  0  0  0
   51.8701   11.6148   22.0518 H   0  0  0  0  0  0  0  0  0  0  0  0
   53.0091   10.7646   19.8198 H   0  0  0  0  0  0  0  0  0  0  0  0
   47.9041    7.5895   18.5879 H   0  0  0  0  0  0  0  0  0  0  0  0
   48.9848    6.2945   18.1046 H   0  0  0  0  0  0  0  0  0  0  0  0
   45.8834   10.7222   20.6674 H   0  0  0  0  0  0  0  0  0  0  0  0
   46.0432   12.6594   19.1487 H   0  0  0  0  0  0  0  0  0  0  0  0
   47.3673   13.8072   17.7049 H   0  0  0  0  0  0  0  0  0  0  0  0
   51.3135   12.7554   19.0643 H   0  0  0  0  0  0  0  0  0  0  0  0
   48.2684    5.4523   21.5811 H   0  0  0  0  0  0  0  0  0  0  0  0
   47.0729    6.1318   20.4554 H   0  0  0  0  0  0  0  0  0  0  0  0
   48.2022    4.8782   19.9245 H   0  0  0  0  0  0  0  0  0  0  0  0
   51.0135    7.4723   21.2081 H   0  0  0  0  0  0  0  0  0  0  0  0
   52.1787    8.9970   18.5473 H   0  0  0  0  0  0  0  0  0  0  0  0
   48.8025    7.3375   22.3540 H   0  0  0  0  0  0  0  0  0  0  0  0
   50.3649    9.3731   22.9874 H   0  0  0  0  0  0  0  0  0  0  0  0
   46.7323    8.4090   21.2014 H   0  0  0  0  0  0  0  0  0  0  0  0
   47.8245    9.4412   22.0853 H   0  0  0  0  0  0  0  0  0  0  0  0
   50.9356    7.1976   18.1058 H   0  0  0  0  0  0  0  0  0  0  0  0
   49.2634    7.6757   17.8734 H   0  0  0  0  0  0  0  0  0  0  0  0
   51.8534   11.1246   22.2442 H   0  0  0  0  0  0  0  0  0  0  0  0
   53.1538   10.0389   20.2539 H   0  0  0  0  0  0  0  0  0  0  0  0
   49.2347    5.4493   18.7256 H   0  0  0  0  0  0  0  0  0  0  0  0
   50.4746    5.7695   19.8881 H   0  0  0  0  0  0  0  0  0  0  0  0
   46.0750   10.7767   20.1016 H   0  0  0  0  0  0  0  0  0  0  0  0
   46.6386   12.3656   18.3302 H   0  0  0  0  0  0  0  0  0  0  0  0
   46.9039    6.9241   19.3051 H   0  0  0  0  0  0  0  0  0  0  0  0
   46.5529    6.2230   20.9113 H   0  0  0  0  0  0  0  0  0  0  0  0
   47.1507    5.2019   19.6286 H   0  0  0  0  0  0  0  0  0  0  0  0
   51.7130   11.9329   19.0130 H   0  0  0  0  0  0  0  0  0  0  0  0
   48.7363   14.1276   15.9065 H   0  0  0  0  0  0  0  0  0  0  0  0
   47.3237   13.0979   16.1762 H   0  0  0  0  0  0  0  0  0  0  0  0
   47.9551   14.1622   17.4927 H   0  0  0  0  0  0  0  0  0  0  0  0
  2  1  1  0
  3  1  2  0
  4  1  1  0
  5  3  1  0
  6  7  1  0
  7  4  2  0
  8  2  2  0
  9 12  2  0
 10  2  1  0
 11 14  2  0
 12 13  1  0
 13 10  1  0
 14 15  1  0
 15 13  2  0
 16 21  2  0
 17  5  1  0
 18  6  1  0
 19  9  1  0
 20 11  1  0
 21  4  1  0
 22 17  1  0
 23 19  1  0
 24 18  1  0
 25 20  1  0
 16  8  1  0
  6  5  2  0
 11  9  1  0
 27 26  1  0
 28 26  1  0
 29 27  2  0
 30 26  1  0
 30 31  1  0
 32 28  1  0
 33 27  1  0
 28 34  1  0
 32 35  1  0
 36 41  1  0
 26 37  1  1
 38 39  1  0
 39 30  1  0
 40 29  1  0
 41 37  1  0
 42 33  2  0
 43 42  1  0
 44 40  1  0
 39 45  1  0
 46 36  1  0
 29 31  1  0
 32 36  1  0
 38 34  2  0
 35 33  1  0
 43 40  2  0
 48 47  1  0
 49 47  1  0
 50 48  2  0
 51 47  1  0
 52 51  1  0
 53 49  1  0
 54 62  1  0
 55 48  1  0
 49 56  1  0
 53 57  1  0
 47 58  1  1
 59 60  1  0
 60 51  1  0
 61 50  1  0
 62 58  1  0
 63 55  2  0
 64 63  1  0
 65 54  1  0
 60 66  1  0
 67 61  1  0
 68 67  1  0
 52 50  1  0
 53 54  1  0
 59 56  2  0
 57 55  1  0
 64 61  2  0
  3 69  1  0
  7 70  1  0
 10 71  1  0
 10 72  1  0
 12 73  1  0
 14 74  1  0
 15 75  1  0
 16 76  1  0
 21 77  1  0
 22 78  1  0
 22 79  1  0
 22 80  1  0
 23 81  1  0
 23 82  1  0
 23 83  1  0
 24 84  1  0
 24 85  1  0
 24 86  1  0
 25 87  1  0
 25 88  1  0
 25 89  1  0
 28 90  1  1
 30 91  1  1
 32 92  1  6
 34 93  1  0
 35 94  1  0
 35 95  1  0
 37 96  1  0
 37 97  1  0
 38 98  1  0
 39 99  1  1
 41100  1  0
 41101  1  0
 42102  1  0
 43103  1  0
 44104  1  0
 45105  1  0
 46106  1  0
 46107  1  0
 46108  1  0
 49109  1  1
 51110  1  1
 53111  1  6
 56112  1  0
 57113  1  0
 57114  1  0
 58115  1  0
 58116  1  0
 59117  1  0
 60118  1  1
 62119  1  0
 62120  1  0
 63121  1  0
 64122  1  0
 65123  1  0
 65124  1  0
 65125  1  0
 66126  1  0
 68127  1  0
 68128  1  0
 68129  1  0
M  END
> <Uni-Dock RESULT> 
ENERGY=   -5.946  LOWER_BOUND=    1.725  UPPER_BOUND=    5.849
INTER + INTRA:          -5.946
INTER:                  -5.946
INTRA:                   0.000
UNBOUND:                 0.000

$$$$

     RDKit          3D

129139  0  0  0  0  0  0  0  0999 V2000
   42.1035   11.3834    9.9463 C   0  0  0  0  0  0  0  0  0  0  0  0
   43.0960   10.8966    9.0568 C   0  0  0  0  0  0  0  0  0  0  0  0
   40.9522   12.1160    9.5656 C   0  0  0  0  0  0  0  0  0  0  0  0
   42.2823   11.1074   11.3191 C   0  0  0  0  0  0  0  0  0  0  0  0
   40.0117   12.5588   10.5047 C   0  0  0  0  0  0  0  0  0  0  0  0
   40.2127   12.2858   11.8670 C   0  0  0  0  0  0  0  0  0  0  0  0
   41.3422   11.5624   12.2610 C   0  0  0  0  0  0  0  0  0  0  0  0
   44.1788   10.1798    9.4726 N   0  0  0  0  0  0  0  0  0  0  0  0
   45.7008   13.8431    6.8989 C   0  0  0  0  0  0  0  0  0  0  0  0
   43.0578   11.1606    7.5638 C   0  0  0  0  0  0  0  0  0  0  0  0
   44.9087   14.9178    6.4513 C   0  0  0  0  0  0  0  0  0  0  0  0
   45.0867   12.6371    7.2572 C   0  0  0  0  0  0  0  0  0  0  0  0
   43.6941   12.4748    7.1619 C   0  0  0  0  0  0  0  0  0  0  0  0
   43.5233   14.7553    6.3464 C   0  0  0  0  0  0  0  0  0  0  0  0
   42.9219   13.5424    6.6950 C   0  0  0  0  0  0  0  0  0  0  0  0
   44.3053    9.9426   10.7907 C   0  0  0  0  0  0  0  0  0  0  0  0
   38.8777   13.2674   10.1922 O   0  0  0  0  0  0  0  0  0  0  0  0
   39.2507   12.7562   12.7256 O   0  0  0  0  0  0  0  0  0  0  0  0
   47.0535   14.0737    6.9631 O   0  0  0  0  0  0  0  0  0  0  0  0
   45.5792   16.0705    6.1241 O   0  0  0  0  0  0  0  0  0  0  0  0
   43.4002   10.3800   11.7368 C   0  0  0  0  0  0  0  0  0  0  0  0
   38.5634   13.4473    8.8189 C   0  0  0  0  0  0  0  0  0  0  0  0
   47.8883   12.9767    7.3070 C   0  0  0  0  0  0  0  0  0  0  0  0
   39.4515   12.5608   14.1180 C   0  0  0  0  0  0  0  0  0  0  0  0
   44.8010   17.2369    5.8960 C   0  0  0  0  0  0  0  0  0  0  0  0
   42.2905   13.5751    8.7337 C   0  0  2  0  0  0  0  0  0  0  0  0
   42.4421   12.3349    9.5536 C   0  0  0  0  0  0  0  0  0  0  0  0
   43.5187   14.4697    8.9549 C   0  0  2  0  0  0  0  0  0  0  0  0
   41.2316   11.9504   10.0851 C   0  0  0  0  0  0  0  0  0  0  0  0
   40.9459   14.0458    9.3236 C   0  0  1  0  0  0  0  0  0  0  0  0
   40.2333   12.8525    9.8174 O   0  0  0  0  0  0  0  0  0  0  0  0
   44.7655   13.6176    8.5426 C   0  0  1  0  0  0  0  0  0  0  0  0
   43.6297   11.6867    9.8452 C   0  0  0  0  0  0  0  0  0  0  0  0
   43.5640   15.0419   10.3520 C   0  0  0  0  0  0  0  0  0  0  0  0
   44.9266   12.3274    9.4238 C   0  0  0  0  0  0  0  0  0  0  0  0
   44.6627   13.3864    7.0755 N   0  0  0  0  0  0  0  0  0  0  0  0
   42.1830   13.2039    7.2415 C   0  0  0  0  0  0  0  0  0  0  0  0
   42.4387   15.3140   11.0307 C   0  0  0  0  0  0  0  0  0  0  0  0
   41.0648   15.1016   10.4625 C   0  0  2  0  0  0  0  0  0  0  0  0
   41.1371   10.8086   10.8496 C   0  0  0  0  0  0  0  0  0  0  0  0
   43.4839   12.6017    6.6897 C   0  0  0  0  0  0  0  0  0  0  0  0
   43.5500   10.5276   10.6205 C   0  0  0  0  0  0  0  0  0  0  0  0
   42.3032   10.0789   11.1055 C   0  0  0  0  0  0  0  0  0  0  0  0
   39.9343   10.4355   11.3652 O   0  0  0  0  0  0  0  0  0  0  0  0
   40.1811   14.8214   11.5460 O   0  0  0  0  0  0  0  0  0  0  0  0
   45.8809   12.8311    6.4929 C   0  0  0  0  0  0  0  0  0  0  0  0
   42.7619   13.8727    8.3148 C   0  0  2  0  0  0  0  0  0  0  0  0
   42.5765   12.6040    9.0931 C   0  0  0  0  0  0  0  0  0  0  0  0
   44.0844   14.5306    8.7406 C   0  0  2  0  0  0  0  0  0  0  0  0
   41.2434   12.4000    9.3856 C   0  0  0  0  0  0  0  0  0  0  0  0
   41.4429   14.5426    8.7517 C   0  0  1  0  0  0  0  0  0  0  0  0
   40.4659   13.4712    9.0079 O   0  0  0  0  0  0  0  0  0  0  0  0
   45.1941   13.4467    8.4701 C   0  0  2  0  0  0  0  0  0  0  0  0
   45.2825   13.1414    7.0136 N   0  0  0  0  0  0  0  0  0  0  0  0
   43.5738   11.7642    9.5490 C   0  0  0  0  0  0  0  0  0  0  0  0
   44.0326   15.0770   10.1465 C   0  0  0  0  0  0  0  0  0  0  0  0
   45.0029   12.2139    9.4256 C   0  0  0  0  0  0  0  0  0  0  0  0
   42.7869   13.5090    6.8095 C   0  0  0  0  0  0  0  0  0  0  0  0
   42.8839   15.4907   10.7030 C   0  0  0  0  0  0  0  0  0  0  0  0
   41.5587   15.4743    9.9978 C   0  0  2  0  0  0  0  0  0  0  0  0
   40.8155   11.2678   10.0549 C   0  0  0  0  0  0  0  0  0  0  0  0
   44.1828   13.6500    6.1933 C   0  0  0  0  0  0  0  0  0  0  0  0
   43.1738   10.6151   10.2304 C   0  0  0  0  0  0  0  0  0  0  0  0
   41.8030   10.3575   10.4600 C   0  0  0  0  0  0  0  0  0  0  0  0
   45.6653   11.7850    6.6524 C   0  0  0  0  0  0  0  0  0  0  0  0
   40.5533   15.2033   10.9750 O   0  0  0  0  0  0  0  0  0  0  0  0
   39.4747   11.1610   10.2833 O   0  0  0  0  0  0  0  0  0  0  0  0
   39.0335   10.0126   10.9946 C   0  0  0  0  0  0  0  0  0  0  0  0
   40.7983   12.3378    8.5177 H   0  0  0  0  0  0  0  0  0  0  0  0
   41.5111   11.3347   13.3088 H   0  0  0  0  0  0  0  0  0  0  0  0
   42.0327   11.0863    7.1842 H   0  0  0  0  0  0  0  0  0  0  0  0
   43.5956   10.3527    7.0479 H   0  0  0  0  0  0  0  0  0  0  0  0
   45.6715   11.7988    7.6267 H   0  0  0  0  0  0  0  0  0  0  0  0
   42.8828   15.5539    5.9872 H   0  0  0  0  0  0  0  0  0  0  0  0
   41.8436   13.4455    6.5953 H   0  0  0  0  0  0  0  0  0  0  0  0
   45.1853    9.3736   11.0783 H   0  0  0  0  0  0  0  0  0  0  0  0
   43.5715   10.1513   12.7836 H   0  0  0  0  0  0  0  0  0  0  0  0
   38.4552   12.4852    8.3069 H   0  0  0  0  0  0  0  0  0  0  0  0
   37.6006   13.9644    8.7606 H   0  0  0  0  0  0  0  0  0  0  0  0
   39.3097   14.0779    8.3247 H   0  0  0  0  0  0  0  0  0  0  0  0
   47.7697   12.1495    6.5990 H   0  0  0  0  0  0  0  0  0  0  0  0
   48.9271   13.3161    7.2485 H   0  0  0  0  0  0  0  0  0  0  0  0
   47.7035   12.6492    8.3355 H   0  0  0  0  0  0  0  0  0  0  0  0
   40.3699   13.0504   14.4584 H   0  0  0  0  0  0  0  0  0  0  0  0
   38.6127   13.0260   14.6450 H   0  0  0  0  0  0  0  0  0  0  0  0
   39.4524   11.4955   14.3701 H   0  0  0  0  0  0  0  0  0  0  0  0
   44.2107   17.1412    4.9791 H   0  0  0  0  0  0  0  0  0  0  0  0
   44.1630   17.4648    6.7565 H   0  0  0  0  0  0  0  0  0  0  0  0
   45.4894   18.0769    5.7610 H   0  0  0  0  0  0  0  0  0  0  0  0
   43.4655   15.3409    8.2839 H   0  0  0  0  0  0  0  0  0  0  0  0
   40.3063   14.4720    8.5407 H   0  0  0  0  0  0  0  0  0  0  0  0
   45.6595   14.2362    8.7042 H   0  0  0  0  0  0  0  0  0  0  0  0
   44.5298   15.2742   10.7925 H   0  0  0  0  0  0  0  0  0  0  0  0
   45.4525   12.6223   10.3424 H   0  0  0  0  0  0  0  0  0  0  0  0
   45.5601   11.5846    8.9303 H   0  0  0  0  0  0  0  0  0  0  0  0
   41.3623   12.4973    7.0624 H   0  0  0  0  0  0  0  0  0  0  0  0
   41.9437   14.1102    6.6692 H   0  0  0  0  0  0  0  0  0  0  0  0
   42.4981   15.7617   12.0196 H   0  0  0  0  0  0  0  0  0  0  0  0
   40.7514   16.0716   10.0562 H   0  0  0  0  0  0  0  0  0  0  0  0
   43.5821   11.5577    7.0113 H   0  0  0  0  0  0  0  0  0  0  0  0
   43.4017   12.5787    5.5959 H   0  0  0  0  0  0  0  0  0  0  0  0
   44.4525    9.9792   10.8806 H   0  0  0  0  0  0  0  0  0  0  0  0
   42.2728    9.1793   11.7134 H   0  0  0  0  0  0  0  0  0  0  0  0
   40.0461    9.6024   11.8487 H   0  0  0  0  0  0  0  0  0  0  0  0
   39.9125   13.8856   11.4444 H   0  0  0  0  0  0  0  0  0  0  0  0
   46.7508   13.4429    6.7556 H   0  0  0  0  0  0  0  0  0  0  0  0
   46.0727   11.8010    6.8079 H   0  0  0  0  0  0  0  0  0  0  0  0
   45.8149   12.8398    5.3996 H   0  0  0  0  0  0  0  0  0  0  0  0
   44.2913   15.4090    8.1124 H   0  0  0  0  0  0  0  0  0  0  0  0
   41.0262   15.1450    7.9351 H   0  0  0  0  0  0  0  0  0  0  0  0
   46.1667   13.8855    8.7304 H   0  0  0  0  0  0  0  0  0  0  0  0
   44.9637   15.1745   10.6994 H   0  0  0  0  0  0  0  0  0  0  0  0
   45.6462   11.3728    9.1515 H   0  0  0  0  0  0  0  0  0  0  0  0
   45.3328   12.5170   10.4291 H   0  0  0  0  0  0  0  0  0  0  0  0
   42.1201   14.1764    6.2489 H   0  0  0  0  0  0  0  0  0  0  0  0
   42.4199   12.4898    6.6288 H   0  0  0  0  0  0  0  0  0  0  0  0
   42.8948   15.9105   11.7064 H   0  0  0  0  0  0  0  0  0  0  0  0
   41.3789   16.5031    9.6613 H   0  0  0  0  0  0  0  0  0  0  0  0
   44.1849   13.2000    5.1920 H   0  0  0  0  0  0  0  0  0  0  0  0
   44.3737   14.7152    6.0042 H   0  0  0  0  0  0  0  0  0  0  0  0
   43.9166    9.9212   10.6175 H   0  0  0  0  0  0  0  0  0  0  0  0
   41.5474    9.4501   10.9983 H   0  0  0  0  0  0  0  0  0  0  0  0
   44.8818   11.0557    6.8832 H   0  0  0  0  0  0  0  0  0  0  0  0
   46.5932   11.4933    7.1557 H   0  0  0  0  0  0  0  0  0  0  0  0
   45.8789   11.7166    5.5792 H   0  0  0  0  0  0  0  0  0  0  0  0
   40.1132   14.3751   10.6968 H   0  0  0  0  0  0  0  0  0  0  0  0
   37.9451   10.0774   11.0931 H   0  0  0  0  0  0  0  0  0  0  0  0
   39.2645    9.0943   10.4441 H   0  0  0  0  0  0  0  0  0  0  0  0
   39.4583    9.9858   12.0037 H   0  0  0  0  0  0  0  0  0  0  0  0
  2  1  1  0
  3  1  2  0
  4  1  1  0
  5  3  1  0
  6  7  1  0
  7  4  2  0
  8  2  2  0
  9 12  2  0
 10  2  1  0
 11 14  2  0
 12 13  1  0
 13 10  1  0
 14 15  1  0
 15 13  2  0
 16 21  2  0
 17  5  1  0
 18  6  1  0
 19  9  1  0
 20 11  1  0
 21  4  1  0
 22 17  1  0
 23 19  1  0
 24 18  1  0
 25 20  1  0
 16  8  1  0
  6  5  2  0
 11  9  1  0
 27 26  1  0
 28 26  1  0
 29 27  2  0
 30 26  1  0
 30 31  1  0
 32 28  1  0
 33 27  1  0
 28 34  1  0
 32 35  1  0
 36 41  1  0
 26 37  1  1
 38 39  1  0
 39 30  1  0
 40 29  1  0
 41 37  1  0
 42 33  2  0
 43 42  1  0
 44 40  1  0
 39 45  1  0
 46 36  1  0
 29 31  1  0
 32 36  1  0
 38 34  2  0
 35 33  1  0
 43 40  2  0
 48 47  1  0
 49 47  1  0
 50 48  2  0
 51 47  1  0
 52 51  1  0
 53 49  1  0
 54 62  1  0
 55 48  1  0
 49 56  1  0
 53 57  1  0
 47 58  1  1
 59 60  1  0
 60 51  1  0
 61 50  1  0
 62 58  1  0
 63 55  2  0
 64 63  1  0
 65 54  1  0
 60 66  1  0
 67 61  1  0
 68 67  1  0
 52 50  1  0
 53 54  1  0
 59 56  2  0
 57 55  1  0
 64 61  2  0
  3 69  1  0
  7 70  1  0
 10 71  1  0
 10 72  1  0
 12 73  1  0
 14 74  1  0
 15 75  1  0
 16 76  1  0
 21 77  1  0
 22 78  1  0
 22 79  1  0
 22 80  1  0
 23 81  1  0
 23 82  1  0
 23 83  1  0
 24 84  1  0
 24 85  1  0
 24 86  1  0
 25 87  1  0
 25 88  1  0
 25 89  1  0
 28 90  1  1
 30 91  1  1
 32 92  1  6
 34 93  1  0
 35 94  1  0
 35 95  1  0
 37 96  1  0
 37 97  1  0
 38 98  1  0
 39 99  1  1
 41100  1  0
 41101  1  0
 42102  1  0
 43103  1  0
 44104  1  0
 45105  1  0
 46106  1  0
 46107  1  0
 46108  1  0
 49109  1  1
 51110  1  1
 53111  1  6
 56112  1  0
 57113  1  0
 57114  1  0
 58115  1  0
 58116  1  0
 59117  1  0
 60118  1  1
 62119  1  0
 62120  1  0
 63121  1  0
 64122  1  0
 65123  1  0
 65124  1  0
 65125  1  0
 66126  1  0
 68127  1  0
 68128  1  0
 68129  1  0
M  END
> <Uni-Dock RESULT> 
ENERGY=   -5.886  LOWER_BOUND=   11.130  UPPER_BOUND=   13.549
INTER + INTRA:          -5.886
INTER:                  -5.886
INTRA:                   0.000
UNBOUND:                 0.000

$$$$

     RDKit          3D

129139  0  0  0  0  0  0  0  0999 V2000
   49.7600   10.8866   17.5245 C   0  0  0  0  0  0  0  0  0  0  0  0
   49.9939    9.4913   17.6325 C   0  0  0  0  0  0  0  0  0  0  0  0
   50.1935   11.8631   18.4550 C   0  0  0  0  0  0  0  0  0  0  0  0
   49.0409   11.3302   16.3937 C   0  0  0  0  0  0  0  0  0  0  0  0
   49.9282   13.2269   18.2754 C   0  0  0  0  0  0  0  0  0  0  0  0
   49.2006   13.6482   17.1511 C   0  0  0  0  0  0  0  0  0  0  0  0
   48.7665   12.6988   16.2213 C   0  0  0  0  0  0  0  0  0  0  0  0
   49.5698    8.5928   16.6987 N   0  0  0  0  0  0  0  0  0  0  0  0
   47.9929    7.2114   20.9374 C   0  0  0  0  0  0  0  0  0  0  0  0
   50.7088    8.8703   18.8172 C   0  0  0  0  0  0  0  0  0  0  0  0
   48.0573    7.9670   22.1238 C   0  0  0  0  0  0  0  0  0  0  0  0
   48.8547    7.5183   19.8775 C   0  0  0  0  0  0  0  0  0  0  0  0
   49.7949    8.5572   19.9835 C   0  0  0  0  0  0  0  0  0  0  0  0
   48.9991    8.9954   22.2350 C   0  0  0  0  0  0  0  0  0  0  0  0
   49.8633    9.2850   21.1750 C   0  0  0  0  0  0  0  0  0  0  0  0
   48.8885    9.0640   15.6390 C   0  0  0  0  0  0  0  0  0  0  0  0
   50.3272   14.2154   19.1410 O   0  0  0  0  0  0  0  0  0  0  0  0
   48.9770   14.9984   17.0477 O   0  0  0  0  0  0  0  0  0  0  0  0
   47.0524    6.2106   20.9073 O   0  0  0  0  0  0  0  0  0  0  0  0
   47.1776    7.6132   23.1168 O   0  0  0  0  0  0  0  0  0  0  0  0
   48.6023   10.4007   15.4466 C   0  0  0  0  0  0  0  0  0  0  0  0
   51.1806   13.8525   20.2167 C   0  0  0  0  0  0  0  0  0  0  0  0
   47.0362    5.3624   19.7676 C   0  0  0  0  0  0  0  0  0  0  0  0
   48.1862   15.4585   15.9611 C   0  0  0  0  0  0  0  0  0  0  0  0
   47.0544    8.4934   24.2250 C   0  0  0  0  0  0  0  0  0  0  0  0
   49.0404   10.8109   19.9298 C   0  0  2  0  0  0  0  0  0  0  0  0
   49.2255   10.7095   18.4504 C   0  0  0  0  0  0  0  0  0  0  0  0
   47.6858   10.1924   20.3041 C   0  0  2  0  0  0  0  0  0  0  0  0
   49.8378   11.8396   17.9567 C   0  0  0  0  0  0  0  0  0  0  0  0
   49.1863   12.3412   20.0486 C   0  0  1  0  0  0  0  0  0  0  0  0
   50.0193   12.7988   18.9205 O   0  0  0  0  0  0  0  0  0  0  0  0
   47.7210    8.7119   19.7964 C   0  0  1  0  0  0  0  0  0  0  0  0
   48.7720    9.6855   17.6371 C   0  0  0  0  0  0  0  0  0  0  0  0
   46.5237   11.0169   19.8029 C   0  0  0  0  0  0  0  0  0  0  0  0
   47.8956    8.6176   18.2383 C   0  0  0  0  0  0  0  0  0  0  0  0
   48.7526    8.0046   20.6037 N   0  0  0  0  0  0  0  0  0  0  0  0
   50.1723   10.0520   20.6502 C   0  0  0  0  0  0  0  0  0  0  0  0
   46.6130   12.3511   19.6900 C   0  0  0  0  0  0  0  0  0  0  0  0
   47.8419   13.1273   20.0683 C   0  0  2  0  0  0  0  0  0  0  0  0
   50.1354   11.9419   16.6158 C   0  0  0  0  0  0  0  0  0  0  0  0
   50.1075    8.5356   20.4137 C   0  0  0  0  0  0  0  0  0  0  0  0
   49.0654    9.7758   16.2745 C   0  0  0  0  0  0  0  0  0  0  0  0
   49.7629   10.8929   15.7680 C   0  0  0  0  0  0  0  0  0  0  0  0
   50.7454   13.0614   16.1401 O   0  0  0  0  0  0  0  0  0  0  0  0
   47.8924   14.2939   19.2498 O   0  0  0  0  0  0  0  0  0  0  0  0
   48.7244    6.5549   20.4320 C   0  0  0  0  0  0  0  0  0  0  0  0
   48.8346   10.3121   20.3715 C   0  0  2  0  0  0  0  0  0  0  0  0
   49.2515   10.4563   18.9380 C   0  0  0  0  0  0  0  0  0  0  0  0
   47.4509    9.6445   20.4241 C   0  0  2  0  0  0  0  0  0  0  0  0
   49.9619   11.6244   18.7503 C   0  0  0  0  0  0  0  0  0  0  0  0
   48.9348   11.8075   20.7362 C   0  0  1  0  0  0  0  0  0  0  0  0
   49.9803   12.4014   19.8863 O   0  0  0  0  0  0  0  0  0  0  0  0
   47.6211    8.2745   19.6668 C   0  0  2  0  0  0  0  0  0  0  0  0
   48.5823    7.3936   20.3897 N   0  0  0  0  0  0  0  0  0  0  0  0
   48.9262    9.6094   17.8964 C   0  0  0  0  0  0  0  0  0  0  0  0
   46.3543   10.5446   19.9094 C   0  0  0  0  0  0  0  0  0  0  0  0
   47.9189    8.5215   18.1438 C   0  0  0  0  0  0  0  0  0  0  0  0
   49.8944    9.4410   21.0906 C   0  0  0  0  0  0  0  0  0  0  0  0
   46.4421   11.8814   19.9849 C   0  0  0  0  0  0  0  0  0  0  0  0
   47.6048   12.6107   20.5933 C   0  0  2  0  0  0  0  0  0  0  0  0
   50.4971   11.9547   17.5185 C   0  0  0  0  0  0  0  0  0  0  0  0
   49.3703    8.0435   21.4374 C   0  0  0  0  0  0  0  0  0  0  0  0
   49.4488    9.9178   16.6407 C   0  0  0  0  0  0  0  0  0  0  0  0
   50.2483   11.0692   16.4592 C   0  0  0  0  0  0  0  0  0  0  0  0
   49.3784    6.4882   19.5753 C   0  0  0  0  0  0  0  0  0  0  0  0
   47.7794   13.8272   19.8661 O   0  0  0  0  0  0  0  0  0  0  0  0
   51.1905   13.1274   17.4462 O   0  0  0  0  0  0  0  0  0  0  0  0
   51.7189   13.4842   16.1761 C   0  0  0  0  0  0  0  0  0  0  0  0
   50.7457   11.5421   19.3284 H   0  0  0  0  0  0  0  0  0  0  0  0
   48.2094   13.0057   15.3417 H   0  0  0  0  0  0  0  0  0  0  0  0
   51.5504    9.4970   19.1327 H   0  0  0  0  0  0  0  0  0  0  0  0
   51.1787    7.9308   18.4939 H   0  0  0  0  0  0  0  0  0  0  0  0
   48.8117    6.9658   18.9426 H   0  0  0  0  0  0  0  0  0  0  0  0
   49.0915    9.5862   23.1402 H   0  0  0  0  0  0  0  0  0  0  0  0
   50.5889   10.0855   21.2955 H   0  0  0  0  0  0  0  0  0  0  0  0
   48.5644    8.3132   14.9232 H   0  0  0  0  0  0  0  0  0  0  0  0
   48.0449   10.7049   14.5667 H   0  0  0  0  0  0  0  0  0  0  0  0
   52.1062   13.3944   19.8522 H   0  0  0  0  0  0  0  0  0  0  0  0
   51.4518   14.7675   20.7524 H   0  0  0  0  0  0  0  0  0  0  0  0
   50.6638   13.1948   20.9231 H   0  0  0  0  0  0  0  0  0  0  0  0
   47.9990    4.8579   19.6338 H   0  0  0  0  0  0  0  0  0  0  0  0
   46.2786    4.5908   19.9363 H   0  0  0  0  0  0  0  0  0  0  0  0
   46.7500    5.9176   18.8682 H   0  0  0  0  0  0  0  0  0  0  0  0
   47.1803   15.0268   15.9926 H   0  0  0  0  0  0  0  0  0  0  0  0
   48.0846   16.5438   16.0580 H   0  0  0  0  0  0  0  0  0  0  0  0
   48.6761   15.2548   15.0036 H   0  0  0  0  0  0  0  0  0  0  0  0
   47.9683    8.4952   24.8277 H   0  0  0  0  0  0  0  0  0  0  0  0
   46.7903    9.5060   23.9022 H   0  0  0  0  0  0  0  0  0  0  0  0
   46.2412    8.1233   24.8571 H   0  0  0  0  0  0  0  0  0  0  0  0
   47.5796   10.1734   21.3997 H   0  0  0  0  0  0  0  0  0  0  0  0
   49.7413   12.6090   20.9564 H   0  0  0  0  0  0  0  0  0  0  0  0
   46.7540    8.2520   20.0443 H   0  0  0  0  0  0  0  0  0  0  0  0
   45.5871   10.5168   19.5717 H   0  0  0  0  0  0  0  0  0  0  0  0
   46.8987    8.7302   17.7900 H   0  0  0  0  0  0  0  0  0  0  0  0
   48.2596    7.6310   17.9373 H   0  0  0  0  0  0  0  0  0  0  0  0
   51.1600   10.4166   20.3399 H   0  0  0  0  0  0  0  0  0  0  0  0
   50.0945   10.2440   21.7288 H   0  0  0  0  0  0  0  0  0  0  0  0
   45.7496   12.9254   19.3638 H   0  0  0  0  0  0  0  0  0  0  0  0
   47.6737   13.4808   21.0934 H   0  0  0  0  0  0  0  0  0  0  0  0
   50.4900    8.2933   19.4147 H   0  0  0  0  0  0  0  0  0  0  0  0
   50.7909    8.0586   21.1272 H   0  0  0  0  0  0  0  0  0  0  0  0
   48.7320    8.9994   15.5895 H   0  0  0  0  0  0  0  0  0  0  0  0
   49.9693   10.9403   14.7027 H   0  0  0  0  0  0  0  0  0  0  0  0
   50.9025   12.9522   15.1895 H   0  0  0  0  0  0  0  0  0  0  0  0
   48.6595   14.1760   18.6533 H   0  0  0  0  0  0  0  0  0  0  0  0
   47.7176    6.1621   20.6111 H   0  0  0  0  0  0  0  0  0  0  0  0
   49.0493    6.2372   19.4367 H   0  0  0  0  0  0  0  0  0  0  0  0
   49.3794    6.0746   21.1669 H   0  0  0  0  0  0  0  0  0  0  0  0
   47.1687    9.4367   21.4663 H   0  0  0  0  0  0  0  0  0  0  0  0
   49.2776   11.9311   21.7709 H   0  0  0  0  0  0  0  0  0  0  0  0
   46.6603    7.7438   19.7069 H   0  0  0  0  0  0  0  0  0  0  0  0
   45.4535   10.0868   19.5080 H   0  0  0  0  0  0  0  0  0  0  0  0
   48.2109    7.6045   17.6241 H   0  0  0  0  0  0  0  0  0  0  0  0
   46.9798    8.8381   17.6688 H   0  0  0  0  0  0  0  0  0  0  0  0
   50.1945    9.9141   22.0342 H   0  0  0  0  0  0  0  0  0  0  0  0
   50.8119    9.3390   20.4957 H   0  0  0  0  0  0  0  0  0  0  0  0
   45.6146   12.4939   19.6341 H   0  0  0  0  0  0  0  0  0  0  0  0
   47.2861   12.9076   21.6004 H   0  0  0  0  0  0  0  0  0  0  0  0
   50.2072    7.4121   21.7628 H   0  0  0  0  0  0  0  0  0  0  0  0
   48.7358    8.1216   22.3308 H   0  0  0  0  0  0  0  0  0  0  0  0
   49.2202    9.2894   15.7828 H   0  0  0  0  0  0  0  0  0  0  0  0
   50.6266   11.2638   15.4604 H   0  0  0  0  0  0  0  0  0  0  0  0
   50.1251    7.0167   18.9735 H   0  0  0  0  0  0  0  0  0  0  0  0
   48.7393    5.8893   18.9178 H   0  0  0  0  0  0  0  0  0  0  0  0
   49.9093    5.7661   20.2067 H   0  0  0  0  0  0  0  0  0  0  0  0
   48.6802   13.7954   19.4860 H   0  0  0  0  0  0  0  0  0  0  0  0
   52.2412   14.4399   16.2873 H   0  0  0  0  0  0  0  0  0  0  0  0
   52.4481   12.7441   15.8297 H   0  0  0  0  0  0  0  0  0  0  0  0
   50.9193   13.6252   15.4412 H   0  0  0  0  0  0  0  0  0  0  0  0
  2  1  1  0
  3  1  2  0
  4  1  1  0
  5  3  1  0
  6  7  1  0
  7  4  2  0
  8  2  2  0
  9 12  2  0
 10  2  1  0
 11 14  2  0
 12 13  1  0
 13 10  1  0
 14 15  1  0
 15 13  2  0
 16 21  2  0
 17  5  1  0
 18  6  1  0
 19  9  1  0
 20 11  1  0
 21  4  1  0
 22 17  1  0
 23 19  1  0
 24 18  1  0
 25 20  1  0
 16  8  1  0
  6  5  2  0
 11  9  1  0
 27 26  1  0
 28 26  1  0
 29 27  2  0
 30 26  1  0
 30 31  1  0
 32 28  1  0
 33 27  1  0
 28 34  1  0
 32 35  1  0
 36 41  1  0
 26 37  1  1
 38 39  1  0
 39 30  1  0
 40 29  1  0
 41 37  1  0
 42 33  2  0
 43 42  1  0
 44 40  1  0
 39 45  1  0
 46 36  1  0
 29 31  1  0
 32 36  1  0
 38 34  2  0
 35 33  1  0
 43 40  2  0
 48 47  1  0
 49 47  1  0
 50 48  2  0
 51 47  1  0
 52 51  1  0
 53 49  1  0
 54 62  1  0
 55 48  1  0
 49 56  1  0
 53 57  1  0
 47 58  1  1
 59 60  1  0
 60 51  1  0
 61 50  1  0
 62 58  1  0
 63 55  2  0
 64 63  1  0
 65 54  1  0
 60 66  1  0
 67 61  1  0
 68 67  1  0
 52 50  1  0
 53 54  1  0
 59 56  2  0
 57 55  1  0
 64 61  2  0
  3 69  1  0
  7 70  1  0
 10 71  1  0
 10 72  1  0
 12 73  1  0
 14 74  1  0
 15 75  1  0
 16 76  1  0
 21 77  1  0
 22 78  1  0
 22 79  1  0
 22 80  1  0
 23 81  1  0
 23 82  1  0
 23 83  1  0
 24 84  1  0
 24 85  1  0
 24 86  1  0
 25 87  1  0
 25 88  1  0
 25 89  1  0
 28 90  1  1
 30 91  1  1
 32 92  1  6
 34 93  1  0
 35 94  1  0
 35 95  1  0
 37 96  1  0
 37 97  1  0
 38 98  1  0
 39 99  1  1
 41100  1  0
 41101  1  0
 42102  1  0
 43103  1  0
 44104  1  0
 45105  1  0
 46106  1  0
 46107  1  0
 46108  1  0
 49109  1  1
 51110  1  1
 53111  1  6
 56112  1  0
 57113  1  0
 57114  1  0
 58115  1  0
 58116  1  0
 59117  1  0
 60118  1  1
 62119  1  0
 62120  1  0
 63121  1  0
 64122  1  0
 65123  1  0
 65124  1  0
 65125  1  0
 66126  1  0
 68127  1  0
 68128  1  0
 68129  1  0
M  END
> <Uni-Dock RESULT> 
ENERGY=   -5.589  LOWER_BOUND=    1.784  UPPER_BOUND=    5.762
INTER + INTRA:          -5.589
INTER:                  -5.589
INTRA:                   0.000
UNBOUND:                 0.000

$$$$

     RDKit          3D

129139  0  0  0  0  0  0  0  0999 V2000
   48.7598    8.8843   18.2667 C   0  0  0  0  0  0  0  0  0  0  0  0
   47.8644    8.0797   19.0179 C   0  0  0  0  0  0  0  0  0  0  0  0
   49.8040    8.3959   17.4430 C   0  0  0  0  0  0  0  0  0  0  0  0
   48.5869   10.2829   18.3481 C   0  0  0  0  0  0  0  0  0  0  0  0
   50.6454    9.2559   16.7255 C   0  0  0  0  0  0  0  0  0  0  0  0
   50.4664   10.6444   16.8287 C   0  0  0  0  0  0  0  0  0  0  0  0
   49.4399   11.1444   17.6352 C   0  0  0  0  0  0  0  0  0  0  0  0
   46.8627    8.5994   19.7832 N   0  0  0  0  0  0  0  0  0  0  0  0
   49.4646    5.7099   22.4744 C   0  0  0  0  0  0  0  0  0  0  0  0
   47.9642    6.5670   19.0630 C   0  0  0  0  0  0  0  0  0  0  0  0
   50.6942    5.1307   22.1067 C   0  0  0  0  0  0  0  0  0  0  0  0
   48.5954    6.1716   21.4786 C   0  0  0  0  0  0  0  0  0  0  0  0
   48.9216    6.0516   20.1171 C   0  0  0  0  0  0  0  0  0  0  0  0
   51.0167    5.0014   20.7516 C   0  0  0  0  0  0  0  0  0  0  0  0
   50.1356    5.4545   19.7653 C   0  0  0  0  0  0  0  0  0  0  0  0
   46.7384    9.9380   19.8288 C   0  0  0  0  0  0  0  0  0  0  0  0
   51.6685    8.8383   15.9102 O   0  0  0  0  0  0  0  0  0  0  0  0
   51.3326   11.4208   16.1000 O   0  0  0  0  0  0  0  0  0  0  0  0
   49.2125    5.7907   23.8223 O   0  0  0  0  0  0  0  0  0  0  0  0
   51.4973    4.7072   23.1366 O   0  0  0  0  0  0  0  0  0  0  0  0
   47.5632   10.8065   19.1426 C   0  0  0  0  0  0  0  0  0  0  0  0
   51.7993    7.4449   15.6681 C   0  0  0  0  0  0  0  0  0  0  0  0
   47.9361    6.2705   24.2213 C   0  0  0  0  0  0  0  0  0  0  0  0
   51.2290   12.8314   16.2305 C   0  0  0  0  0  0  0  0  0  0  0  0
   52.8309    4.3372   22.8159 C   0  0  0  0  0  0  0  0  0  0  0  0
   50.6046    7.4592   19.2019 C   0  0  2  0  0  0  0  0  0  0  0  0
   49.4849    8.4063   18.9147 C   0  0  0  0  0  0  0  0  0  0  0  0
   51.0309    7.6242   20.6677 C   0  0  2  0  0  0  0  0  0  0  0  0
   49.6075    8.9378   17.6506 C   0  0  0  0  0  0  0  0  0  0  0  0
   51.5763    7.9569   18.1131 C   0  0  1  0  0  0  0  0  0  0  0  0
   50.7678    8.5490   17.0306 O   0  0  0  0  0  0  0  0  0  0  0  0
   49.7575    7.3392   21.5325 C   0  0  1  0  0  0  0  0  0  0  0  0
   48.4970    8.7985   19.8013 C   0  0  0  0  0  0  0  0  0  0  0  0
   51.6966    8.9559   20.9223 C   0  0  0  0  0  0  0  0  0  0  0  0
   48.5944    8.3527   21.2372 C   0  0  0  0  0  0  0  0  0  0  0  0
   49.4218    5.9012   21.3434 N   0  0  0  0  0  0  0  0  0  0  0  0
   50.1375    6.0104   18.9590 C   0  0  0  0  0  0  0  0  0  0  0  0
   52.4162    9.5689   19.9696 C   0  0  0  0  0  0  0  0  0  0  0  0
   52.6388    8.9844   18.6042 C   0  0  2  0  0  0  0  0  0  0  0  0
   48.6595    9.8123   17.1672 C   0  0  0  0  0  0  0  0  0  0  0  0
   49.0629    5.5628   19.9611 C   0  0  0  0  0  0  0  0  0  0  0  0
   47.5290    9.6859   19.3257 C   0  0  0  0  0  0  0  0  0  0  0  0
   47.5996   10.1768   18.0047 C   0  0  0  0  0  0  0  0  0  0  0  0
   48.7883   10.3272   15.9142 O   0  0  0  0  0  0  0  0  0  0  0  0
   52.8029   10.0639   17.6870 O   0  0  0  0  0  0  0  0  0  0  0  0
   48.4164    5.4156   22.2843 C   0  0  0  0  0  0  0  0  0  0  0  0
   50.6719    7.0263   19.7444 C   0  0  2  0  0  0  0  0  0  0  0  0
   49.6391    7.9248   19.1314 C   0  0  0  0  0  0  0  0  0  0  0  0
   50.8666    7.4218   21.2171 C   0  0  2  0  0  0  0  0  0  0  0  0
   49.9471    8.1965   17.8140 C   0  0  0  0  0  0  0  0  0  0  0  0
   51.8036    7.3522   18.7483 C   0  0  1  0  0  0  0  0  0  0  0  0
   51.1758    7.6876   17.4593 O   0  0  0  0  0  0  0  0  0  0  0  0
   49.4406    7.2975   21.8732 C   0  0  2  0  0  0  0  0  0  0  0  0
   48.9702    5.8834   21.8372 N   0  0  0  0  0  0  0  0  0  0  0  0
   48.5572    8.4944   19.7739 C   0  0  0  0  0  0  0  0  0  0  0  0
   51.5433    8.7620   21.3717 C   0  0  0  0  0  0  0  0  0  0  0  0
   48.4622    8.3685   21.2688 C   0  0  0  0  0  0  0  0  0  0  0  0
   50.1640    5.5677   19.6281 C   0  0  0  0  0  0  0  0  0  0  0  0
   52.3898    9.2383   20.4460 C   0  0  0  0  0  0  0  0  0  0  0  0
   52.7632    8.4990   19.1938 C   0  0  2  0  0  0  0  0  0  0  0  0
   49.1146    8.9654   17.0211 C   0  0  0  0  0  0  0  0  0  0  0  0
   49.7409    4.9825   20.9797 C   0  0  0  0  0  0  0  0  0  0  0  0
   47.7004    9.2779   19.0011 C   0  0  0  0  0  0  0  0  0  0  0  0
   47.9650    9.4913   17.6291 C   0  0  0  0  0  0  0  0  0  0  0  0
   47.5353    5.6751   21.7163 C   0  0  0  0  0  0  0  0  0  0  0  0
   52.9672    9.4681   18.1651 O   0  0  0  0  0  0  0  0  0  0  0  0
   49.5089    9.1631   15.7300 O   0  0  0  0  0  0  0  0  0  0  0  0
   48.6705    9.9750   14.9193 C   0  0  0  0  0  0  0  0  0  0  0  0
   49.9524    7.3266   17.3685 H   0  0  0  0  0  0  0  0  0  0  0  0
   49.2806   12.2146   17.7217 H   0  0  0  0  0  0  0  0  0  0  0  0
   48.2133    6.1664   18.0741 H   0  0  0  0  0  0  0  0  0  0  0  0
   46.9690    6.1532   19.2786 H   0  0  0  0  0  0  0  0  0  0  0  0
   47.6500    6.6426   21.7347 H   0  0  0  0  0  0  0  0  0  0  0  0
   51.9457    4.5431   20.4295 H   0  0  0  0  0  0  0  0  0  0  0  0
   50.4123    5.3329   18.7210 H   0  0  0  0  0  0  0  0  0  0  0  0
   45.9315   10.3089   20.4552 H   0  0  0  0  0  0  0  0  0  0  0  0
   47.4021   11.8760   19.2310 H   0  0  0  0  0  0  0  0  0  0  0  0
   50.8872    7.0315   15.2248 H   0  0  0  0  0  0  0  0  0  0  0  0
   52.6113    7.3049   14.9479 H   0  0  0  0  0  0  0  0  0  0  0  0
   52.0722    6.9113   16.5844 H   0  0  0  0  0  0  0  0  0  0  0  0
   47.1323    5.6479   23.8141 H   0  0  0  0  0  0  0  0  0  0  0  0
   47.8822    6.2086   25.3126 H   0  0  0  0  0  0  0  0  0  0  0  0
   47.8057    7.3211   23.9415 H   0  0  0  0  0  0  0  0  0  0  0  0
   51.3995   13.1471   17.2650 H   0  0  0  0  0  0  0  0  0  0  0  0
   52.0117   13.2823   15.6127 H   0  0  0  0  0  0  0  0  0  0  0  0
   50.2641   13.1914   15.8591 H   0  0  0  0  0  0  0  0  0  0  0  0
   52.8506    3.4176   22.2223 H   0  0  0  0  0  0  0  0  0  0  0  0
   53.3581    5.1501   22.3054 H   0  0  0  0  0  0  0  0  0  0  0  0
   53.3572    4.1374   23.7544 H   0  0  0  0  0  0  0  0  0  0  0  0
   51.7887    6.8660   20.9186 H   0  0  0  0  0  0  0  0  0  0  0  0
   52.1132    7.1154   17.6576 H   0  0  0  0  0  0  0  0  0  0  0  0
   50.0375    7.4632   22.5881 H   0  0  0  0  0  0  0  0  0  0  0  0
   51.6218    9.3990   21.9116 H   0  0  0  0  0  0  0  0  0  0  0  0
   48.7828    9.2516   21.8405 H   0  0  0  0  0  0  0  0  0  0  0  0
   47.6288    7.9574   21.5656 H   0  0  0  0  0  0  0  0  0  0  0  0
   49.7481    5.8802   17.9410 H   0  0  0  0  0  0  0  0  0  0  0  0
   51.0037    5.3411   19.0487 H   0  0  0  0  0  0  0  0  0  0  0  0
   52.9175   10.5078   20.1904 H   0  0  0  0  0  0  0  0  0  0  0  0
   53.6078    8.4714   18.6482 H   0  0  0  0  0  0  0  0  0  0  0  0
   48.0913    5.9927   19.6889 H   0  0  0  0  0  0  0  0  0  0  0  0
   48.9536    4.4751   19.8673 H   0  0  0  0  0  0  0  0  0  0  0  0
   46.7305   10.0281   19.9802 H   0  0  0  0  0  0  0  0  0  0  0  0
   46.8379   10.8726   17.6651 H   0  0  0  0  0  0  0  0  0  0  0  0
   48.0255   10.8968   15.7301 H   0  0  0  0  0  0  0  0  0  0  0  0
   52.0152   10.0509   17.1061 H   0  0  0  0  0  0  0  0  0  0  0  0
   48.7093    5.6401   23.3157 H   0  0  0  0  0  0  0  0  0  0  0  0
   47.4242    5.8404   22.1046 H   0  0  0  0  0  0  0  0  0  0  0  0
   48.3310    4.3257   22.2168 H   0  0  0  0  0  0  0  0  0  0  0  0
   51.5447    6.7132   21.7143 H   0  0  0  0  0  0  0  0  0  0  0  0
   52.4230    6.4658   18.5632 H   0  0  0  0  0  0  0  0  0  0  0  0
   49.5364    7.5406   22.9400 H   0  0  0  0  0  0  0  0  0  0  0  0
   51.3672    9.3297   22.2821 H   0  0  0  0  0  0  0  0  0  0  0  0
   47.4251    8.2017   21.5735 H   0  0  0  0  0  0  0  0  0  0  0  0
   48.7360    9.3450   21.6922 H   0  0  0  0  0  0  0  0  0  0  0  0
   50.9587    4.9217   19.2338 H   0  0  0  0  0  0  0  0  0  0  0  0
   49.3247    5.4817   18.9251 H   0  0  0  0  0  0  0  0  0  0  0  0
   52.8837   10.1931   20.6115 H   0  0  0  0  0  0  0  0  0  0  0  0
   53.7477    8.0533   19.3841 H   0  0  0  0  0  0  0  0  0  0  0  0
   49.2145    4.0333   20.8156 H   0  0  0  0  0  0  0  0  0  0  0  0
   50.6452    4.6909   21.5310 H   0  0  0  0  0  0  0  0  0  0  0  0
   46.8360    9.7563   19.4560 H   0  0  0  0  0  0  0  0  0  0  0  0
   47.2675   10.1121   17.0753 H   0  0  0  0  0  0  0  0  0  0  0  0
   47.1555    5.9559   20.7284 H   0  0  0  0  0  0  0  0  0  0  0  0
   46.9928    6.2334   22.4866 H   0  0  0  0  0  0  0  0  0  0  0  0
   47.2824    4.6215   21.8837 H   0  0  0  0  0  0  0  0  0  0  0  0
   52.3207    9.2634   17.4600 H   0  0  0  0  0  0  0  0  0  0  0  0
   49.1223   10.0335   13.9238 H   0  0  0  0  0  0  0  0  0  0  0  0
   47.6763    9.5290   14.8086 H   0  0  0  0  0  0  0  0  0  0  0  0
   48.6045   10.9939   15.3156 H   0  0  0  0  0  0  0  0  0  0  0  0
  2  1  1  0
  3  1  2  0
  4  1  1  0
  5  3  1  0
  6  7  1  0
  7  4  2  0
  8  2  2  0
  9 12  2  0
 10  2  1  0
 11 14  2  0
 12 13  1  0
 13 10  1  0
 14 15  1  0
 15 13  2  0
 16 21  2  0
 17  5  1  0
 18  6  1  0
 19  9  1  0
 20 11  1  0
 21  4  1  0
 22 17  1  0
 23 19  1  0
 24 18  1  0
 25 20  1  0
 16  8  1  0
  6  5  2  0
 11  9  1  0
 27 26  1  0
 28 26  1  0
 29 27  2  0
 30 26  1  0
 30 31  1  0
 32 28  1  0
 33 27  1  0
 28 34  1  0
 32 35  1  0
 36 41  1  0
 26 37  1  1
 38 39  1  0
 39 30  1  0
 40 29  1  0
 41 37  1  0
 42 33  2  0
 43 42  1  0
 44 40  1  0
 39 45  1  0
 46 36  1  0
 29 31  1  0
 32 36  1  0
 38 34  2  0
 35 33  1  0
 43 40  2  0
 48 47  1  0
 49 47  1  0
 50 48  2  0
 51 47  1  0
 52 51  1  0
 53 49  1  0
 54 62  1  0
 55 48  1  0
 49 56  1  0
 53 57  1  0
 47 58  1  1
 59 60  1  0
 60 51  1  0
 61 50  1  0
 62 58  1  0
 63 55  2  0
 64 63  1  0
 65 54  1  0
 60 66  1  0
 67 61  1  0
 68 67  1  0
 52 50  1  0
 53 54  1  0
 59 56  2  0
 57 55  1  0
 64 61  2  0
  3 69  1  0
  7 70  1  0
 10 71  1  0
 10 72  1  0
 12 73  1  0
 14 74  1  0
 15 75  1  0
 16 76  1  0
 21 77  1  0
 22 78  1  0
 22 79  1  0
 22 80  1  0
 23 81  1  0
 23 82  1  0
 23 83  1  0
 24 84  1  0
 24 85  1  0
 24 86  1  0
 25 87  1  0
 25 88  1  0
 25 89  1  0
 28 90  1  1
 30 91  1  1
 32 92  1  6
 34 93  1  0
 35 94  1  0
 35 95  1  0
 37 96  1  0
 37 97  1  0
 38 98  1  0
 39 99  1  1
 41100  1  0
 41101  1  0
 42102  1  0
 43103  1  0
 44104  1  0
 45105  1  0
 46106  1  0
 46107  1  0
 46108  1  0
 49109  1  1
 51110  1  1
 53111  1  6
 56112  1  0
 57113  1  0
 57114  1  0
 58115  1  0
 58116  1  0
 59117  1  0
 60118  1  1
 62119  1  0
 62120  1  0
 63121  1  0
 64122  1  0
 65123  1  0
 65124  1  0
 65125  1  0
 66126  1  0
 68127  1  0
 68128  1  0
 68129  1  0
M  END
> <Uni-Dock RESULT> 
ENERGY=   -5.429  LOWER_BOUND=    2.564  UPPER_BOUND=    6.167
INTER + INTRA:          -5.429
INTER:                  -5.429
INTRA:                   0.000
UNBOUND:                 0.000

$$$$

     RDKit          3D

129139  0  0  0  0  0  0  0  0999 V2000
   49.9245    6.8429   20.2932 C   0  0  0  0  0  0  0  0  0  0  0  0
   49.2670    7.7917   21.1183 C   0  0  0  0  0  0  0  0  0  0  0  0
   51.1644    7.0476   19.6391 C   0  0  0  0  0  0  0  0  0  0  0  0
   49.2879    5.5951   20.1190 C   0  0  0  0  0  0  0  0  0  0  0  0
   51.7546    6.0572   18.8434 C   0  0  0  0  0  0  0  0  0  0  0  0
   51.1007    4.8269   18.6713 C   0  0  0  0  0  0  0  0  0  0  0  0
   49.8773    4.6063   19.3108 C   0  0  0  0  0  0  0  0  0  0  0  0
   48.0806    7.5389   21.7409 N   0  0  0  0  0  0  0  0  0  0  0  0
   47.6466   11.5325   19.2462 C   0  0  0  0  0  0  0  0  0  0  0  0
   49.8107    9.1879   21.3539 C   0  0  0  0  0  0  0  0  0  0  0  0
   48.5836   12.0276   18.3191 C   0  0  0  0  0  0  0  0  0  0  0  0
   48.0589   10.6133   20.2184 C   0  0  0  0  0  0  0  0  0  0  0  0
   49.3962   10.1888   20.2957 C   0  0  0  0  0  0  0  0  0  0  0  0
   49.9174   11.6138   18.4002 C   0  0  0  0  0  0  0  0  0  0  0  0
   50.3207   10.7051   19.3831 C   0  0  0  0  0  0  0  0  0  0  0  0
   47.5130    6.3353   21.5439 C   0  0  0  0  0  0  0  0  0  0  0  0
   52.9545    6.1992   18.1908 O   0  0  0  0  0  0  0  0  0  0  0  0
   51.7392    3.9099   17.8742 O   0  0  0  0  0  0  0  0  0  0  0  0
   46.3598   11.9943   19.1117 O   0  0  0  0  0  0  0  0  0  0  0  0
   48.1057   12.9198   17.3913 O   0  0  0  0  0  0  0  0  0  0  0  0
   48.0674    5.3485   20.7536 C   0  0  0  0  0  0  0  0  0  0  0  0
   53.7152    7.3712   18.4455 C   0  0  0  0  0  0  0  0  0  0  0  0
   45.4163   11.5974   20.0970 C   0  0  0  0  0  0  0  0  0  0  0  0
   51.0784    2.6787   17.6193 C   0  0  0  0  0  0  0  0  0  0  0  0
   48.9600   13.2558   16.3072 C   0  0  0  0  0  0  0  0  0  0  0  0
   50.2374    8.7064   18.6385 C   0  0  2  0  0  0  0  0  0  0  0  0
   49.7733    7.6177   19.5509 C   0  0  0  0  0  0  0  0  0  0  0  0
   49.0414    9.2097   17.8176 C   0  0  2  0  0  0  0  0  0  0  0  0
   50.7216    6.6242   19.6470 C   0  0  0  0  0  0  0  0  0  0  0  0
   51.3258    7.9022   17.8994 C   0  0  1  0  0  0  0  0  0  0  0  0
   51.7863    6.8353   18.8080 O   0  0  0  0  0  0  0  0  0  0  0  0
   47.9712    9.6980   18.8505 C   0  0  1  0  0  0  0  0  0  0  0  0
   48.5322    7.5318   20.1575 C   0  0  0  0  0  0  0  0  0  0  0  0
   48.5554    8.1793   16.8261 C   0  0  0  0  0  0  0  0  0  0  0  0
   47.4758    8.5415   19.7908 C   0  0  0  0  0  0  0  0  0  0  0  0
   48.5480   10.8851   19.5392 N   0  0  0  0  0  0  0  0  0  0  0  0
   50.8216    9.8676   19.4670 C   0  0  0  0  0  0  0  0  0  0  0  0
   49.3999    7.3020   16.2619 C   0  0  0  0  0  0  0  0  0  0  0  0
   50.8753    7.2852   16.5422 C   0  0  2  0  0  0  0  0  0  0  0  0
   50.5116    5.5369   20.4659 C   0  0  0  0  0  0  0  0  0  0  0  0
   49.7565   10.5801   20.3141 C   0  0  0  0  0  0  0  0  0  0  0  0
   48.3040    6.4340   20.9904 C   0  0  0  0  0  0  0  0  0  0  0  0
   49.2995    5.4483   21.1593 C   0  0  0  0  0  0  0  0  0  0  0  0
   51.4584    4.5637   20.5570 O   0  0  0  0  0  0  0  0  0  0  0  0
   51.3359    5.9448   16.3848 O   0  0  0  0  0  0  0  0  0  0  0  0
   47.5729   11.6134   20.3459 C   0  0  0  0  0  0  0  0  0  0  0  0
   49.9445    9.3300   18.5309 C   0  0  2  0  0  0  0  0  0  0  0  0
   49.8106    8.1586   19.4580 C   0  0  0  0  0  0  0  0  0  0  0  0
   48.5822    9.6044   17.8736 C   0  0  2  0  0  0  0  0  0  0  0  0
   50.9610    7.3965   19.4526 C   0  0  0  0  0  0  0  0  0  0  0  0
   51.0674    8.7359   17.6562 C   0  0  1  0  0  0  0  0  0  0  0  0
   51.8609    7.8333   18.5071 O   0  0  0  0  0  0  0  0  0  0  0  0
   47.5850    9.8452   19.0681 C   0  0  2  0  0  0  0  0  0  0  0  0
   47.9752   11.0608   19.8378 N   0  0  0  0  0  0  0  0  0  0  0  0
   48.6865    7.8013   20.1769 C   0  0  0  0  0  0  0  0  0  0  0  0
   48.1838    8.5258   16.8960 C   0  0  0  0  0  0  0  0  0  0  0  0
   47.3989    8.5270   19.9030 C   0  0  0  0  0  0  0  0  0  0  0  0
   50.4084   10.5486   19.3669 C   0  0  0  0  0  0  0  0  0  0  0  0
   49.0965    7.7961   16.2365 C   0  0  0  0  0  0  0  0  0  0  0  0
   50.5793    7.9816   16.3805 C   0  0  2  0  0  0  0  0  0  0  0  0
   51.0972    6.2877   20.2680 C   0  0  0  0  0  0  0  0  0  0  0  0
   49.3042   11.5966   19.5421 C   0  0  0  0  0  0  0  0  0  0  0  0
   48.7918    6.6853   21.0065 C   0  0  0  0  0  0  0  0  0  0  0  0
   49.9966    5.9488   21.0692 C   0  0  0  0  0  0  0  0  0  0  0  0
   47.6823   11.0536   21.2629 C   0  0  0  0  0  0  0  0  0  0  0  0
   51.1903    6.6987   16.2399 O   0  0  0  0  0  0  0  0  0  0  0  0
   52.2801    5.6122   20.1913 O   0  0  0  0  0  0  0  0  0  0  0  0
   52.4141    4.4565   21.0074 C   0  0  0  0  0  0  0  0  0  0  0  0
   51.6672    7.9981   19.7604 H   0  0  0  0  0  0  0  0  0  0  0  0
   49.3602    3.6589   19.1964 H   0  0  0  0  0  0  0  0  0  0  0  0
   50.9001    9.1641   21.4693 H   0  0  0  0  0  0  0  0  0  0  0  0
   49.4447    9.5508   22.3246 H   0  0  0  0  0  0  0  0  0  0  0  0
   47.3524   10.1984   20.9324 H   0  0  0  0  0  0  0  0  0  0  0  0
   50.6714   11.9882   17.7160 H   0  0  0  0  0  0  0  0  0  0  0  0
   51.3660   10.4089   19.4242 H   0  0  0  0  0  0  0  0  0  0  0  0
   46.5661    6.1788   22.0536 H   0  0  0  0  0  0  0  0  0  0  0  0
   47.5483    4.4023   20.6405 H   0  0  0  0  0  0  0  0  0  0  0  0
   53.9504    7.4683   19.5107 H   0  0  0  0  0  0  0  0  0  0  0  0
   54.6617    7.2805   17.9035 H   0  0  0  0  0  0  0  0  0  0  0  0
   53.2013    8.2621   18.0699 H   0  0  0  0  0  0  0  0  0  0  0  0
   45.7318   11.9094   21.0982 H   0  0  0  0  0  0  0  0  0  0  0  0
   44.4703   12.1015   19.8758 H   0  0  0  0  0  0  0  0  0  0  0  0
   45.2349   10.5182   20.0557 H   0  0  0  0  0  0  0  0  0  0  0  0
   50.1188    2.8406   17.1173 H   0  0  0  0  0  0  0  0  0  0  0  0
   51.7110    2.0935   16.9447 H   0  0  0  0  0  0  0  0  0  0  0  0
   50.9522    2.1012   18.5407 H   0  0  0  0  0  0  0  0  0  0  0  0
   49.8180   13.8423   16.6513 H   0  0  0  0  0  0  0  0  0  0  0  0
   49.2833   12.3622   15.7627 H   0  0  0  0  0  0  0  0  0  0  0  0
   48.3891   13.8798   15.6126 H   0  0  0  0  0  0  0  0  0  0  0  0
   49.3489   10.0760   17.2117 H   0  0  0  0  0  0  0  0  0  0  0  0
   52.2058    8.5278   17.7045 H   0  0  0  0  0  0  0  0  0  0  0  0
   47.0992   10.0530   18.2835 H   0  0  0  0  0  0  0  0  0  0  0  0
   47.5078    8.1825   16.5374 H   0  0  0  0  0  0  0  0  0  0  0  0
   46.6856    7.9989   19.2535 H   0  0  0  0  0  0  0  0  0  0  0  0
   47.0146    8.9375   20.7002 H   0  0  0  0  0  0  0  0  0  0  0  0
   51.6270    9.5227   20.1283 H   0  0  0  0  0  0  0  0  0  0  0  0
   51.2728   10.5976   18.7816 H   0  0  0  0  0  0  0  0  0  0  0  0
   49.0318    6.5958   15.5220 H   0  0  0  0  0  0  0  0  0  0  0  0
   51.3436    7.8653   15.7369 H   0  0  0  0  0  0  0  0  0  0  0  0
   49.5163    9.9801   21.2003 H   0  0  0  0  0  0  0  0  0  0  0  0
   50.1976   11.5131   20.6865 H   0  0  0  0  0  0  0  0  0  0  0  0
   47.3458    6.3160   21.4914 H   0  0  0  0  0  0  0  0  0  0  0  0
   49.0907    4.6012   21.8061 H   0  0  0  0  0  0  0  0  0  0  0  0
   51.1597    3.8951   21.1926 H   0  0  0  0  0  0  0  0  0  0  0  0
   51.5864    5.6354   17.2791 H   0  0  0  0  0  0  0  0  0  0  0  0
   46.6896   11.8689   19.7505 H   0  0  0  0  0  0  0  0  0  0  0  0
   47.2473   11.0544   21.2283 H   0  0  0  0  0  0  0  0  0  0  0  0
   47.9998   12.5618   20.6895 H   0  0  0  0  0  0  0  0  0  0  0  0
   48.6308   10.5202   17.2669 H   0  0  0  0  0  0  0  0  0  0  0  0
   51.7556    9.5227   17.3232 H   0  0  0  0  0  0  0  0  0  0  0  0
   46.5990   10.0787   18.6442 H   0  0  0  0  0  0  0  0  0  0  0  0
   47.1262    8.3733   16.6950 H   0  0  0  0  0  0  0  0  0  0  0  0
   46.8516    8.6994   20.8342 H   0  0  0  0  0  0  0  0  0  0  0  0
   46.7654    7.8480   19.3152 H   0  0  0  0  0  0  0  0  0  0  0  0
   51.2493   11.0490   18.8699 H   0  0  0  0  0  0  0  0  0  0  0  0
   50.7748   10.2492   20.3579 H   0  0  0  0  0  0  0  0  0  0  0  0
   48.7682    7.0520   15.5144 H   0  0  0  0  0  0  0  0  0  0  0  0
   50.9007    8.5632   15.5073 H   0  0  0  0  0  0  0  0  0  0  0  0
   49.6184   12.3330   20.2930 H   0  0  0  0  0  0  0  0  0  0  0  0
   49.2287   12.1808   18.6149 H   0  0  0  0  0  0  0  0  0  0  0  0
   47.9361    6.3544   21.5908 H   0  0  0  0  0  0  0  0  0  0  0  0
   50.0229    5.0869   21.7288 H   0  0  0  0  0  0  0  0  0  0  0  0
   48.3152   10.3507   21.8147 H   0  0  0  0  0  0  0  0  0  0  0  0
   46.6292   10.8143   21.4446 H   0  0  0  0  0  0  0  0  0  0  0  0
   47.8361   12.0499   21.6940 H   0  0  0  0  0  0  0  0  0  0  0  0
   51.6654    6.5252   17.0773 H   0  0  0  0  0  0  0  0  0  0  0  0
   53.4091    4.0355   20.8307 H   0  0  0  0  0  0  0  0  0  0  0  0
   52.3443    4.7130   22.0698 H   0  0  0  0  0  0  0  0  0  0  0  0
   51.6766    3.6936   20.7358 H   0  0  0  0  0  0  0  0  0  0  0  0
  2  1  1  0
  3  1  2  0
  4  1  1  0
  5  3  1  0
  6  7  1  0
  7  4  2  0
  8  2  2  0
  9 12  2  0
 10  2  1  0
 11 14  2  0
 12 13  1  0
 13 10  1  0
 14 15  1  0
 15 13  2  0
 16 21  2  0
 17  5  1  0
 18  6  1  0
 19  9  1  0
 20 11  1  0
 21  4  1  0
 22 17  1  0
 23 19  1  0
 24 18  1  0
 25 20  1  0
 16  8  1  0
  6  5  2  0
 11  9  1  0
 27 26  1  0
 28 26  1  0
 29 27  2  0
 30 26  1  0
 30 31  1  0
 32 28  1  0
 33 27  1  0
 28 34  1  0
 32 35  1  0
 36 41  1  0
 26 37  1  1
 38 39  1  0
 39 30  1  0
 40 29  1  0
 41 37  1  0
 42 33  2  0
 43 42  1  0
 44 40  1  0
 39 45  1  0
 46 36  1  0
 29 31  1  0
 32 36  1  0
 38 34  2  0
 35 33  1  0
 43 40  2  0
 48 47  1  0
 49 47  1  0
 50 48  2  0
 51 47  1  0
 52 51  1  0
 53 49  1  0
 54 62  1  0
 55 48  1  0
 49 56  1  0
 53 57  1  0
 47 58  1  1
 59 60  1  0
 60 51  1  0
 61 50  1  0
 62 58  1  0
 63 55  2  0
 64 63  1  0
 65 54  1  0
 60 66  1  0
 67 61  1  0
 68 67  1  0
 52 50  1  0
 53 54  1  0
 59 56  2  0
 57 55  1  0
 64 61  2  0
  3 69  1  0
  7 70  1  0
 10 71  1  0
 10 72  1  0
 12 73  1  0
 14 74  1  0
 15 75  1  0
 16 76  1  0
 21 77  1  0
 22 78  1  0
 22 79  1  0
 22 80  1  0
 23 81  1  0
 23 82  1  0
 23 83  1  0
 24 84  1  0
 24 85  1  0
 24 86  1  0
 25 87  1  0
 25 88  1  0
 25 89  1  0
 28 90  1  1
 30 91  1  1
 32 92  1  6
 34 93  1  0
 35 94  1  0
 35 95  1  0
 37 96  1  0
 37 97  1  0
 38 98  1  0
 39 99  1  1
 41100  1  0
 41101  1  0
 42102  1  0
 43103  1  0
 44104  1  0
 45105  1  0
 46106  1  0
 46107  1  0
 46108  1  0
 49109  1  1
 51110  1  1
 53111  1  6
 56112  1  0
 57113  1  0
 57114  1  0
 58115  1  0
 58116  1  0
 59117  1  0
 60118  1  1
 62119  1  0
 62120  1  0
 63121  1  0
 64122  1  0
 65123  1  0
 65124  1  0
 65125  1  0
 66126  1  0
 68127  1  0
 68128  1  0
 68129  1  0
M  END
> <Uni-Dock RESULT> 
ENERGY=   -5.370  LOWER_BOUND=    2.337  UPPER_BOUND=    4.351
INTER + INTRA:          -5.370
INTER:                  -5.370
INTRA:                   0.000
UNBOUND:                 0.000

$$$$

     RDKit          3D

129139  0  0  0  0  0  0  0  0999 V2000
   46.5399   12.8632   10.5362 C   0  0  0  0  0  0  0  0  0  0  0  0
   45.4877   12.6498   11.4640 C   0  0  0  0  0  0  0  0  0  0  0  0
   46.6971   14.0165    9.7286 C   0  0  0  0  0  0  0  0  0  0  0  0
   47.5066   11.8414   10.4177 C   0  0  0  0  0  0  0  0  0  0  0  0
   47.7692   14.1567    8.8379 C   0  0  0  0  0  0  0  0  0  0  0  0
   48.7140   13.1246    8.7242 C   0  0  0  0  0  0  0  0  0  0  0  0
   48.5761   11.9799    9.5148 C   0  0  0  0  0  0  0  0  0  0  0  0
   45.3910   11.5274   12.2321 N   0  0  0  0  0  0  0  0  0  0  0  0
   41.3115   12.1177    9.9146 C   0  0  0  0  0  0  0  0  0  0  0  0
   44.3552   13.6396   11.6592 C   0  0  0  0  0  0  0  0  0  0  0  0
   41.0799   13.0484    8.8836 C   0  0  0  0  0  0  0  0  0  0  0  0
   42.3759   12.3220   10.8010 C   0  0  0  0  0  0  0  0  0  0  0  0
   43.2072   13.4495   10.6899 C   0  0  0  0  0  0  0  0  0  0  0  0
   41.9003   14.1764    8.7772 C   0  0  0  0  0  0  0  0  0  0  0  0
   42.9526   14.3770    9.6755 C   0  0  0  0  0  0  0  0  0  0  0  0
   46.3363   10.5821   12.0829 C   0  0  0  0  0  0  0  0  0  0  0  0
   47.9731   15.2524    8.0356 O   0  0  0  0  0  0  0  0  0  0  0  0
   49.7319   13.3337    7.8275 O   0  0  0  0  0  0  0  0  0  0  0  0
   40.4573   11.0430    9.9632 O   0  0  0  0  0  0  0  0  0  0  0  0
   40.0233   12.7790    8.0493 O   0  0  0  0  0  0  0  0  0  0  0  0
   47.3940   10.6904   11.2024 C   0  0  0  0  0  0  0  0  0  0  0  0
   47.1227   16.3756    8.2155 C   0  0  0  0  0  0  0  0  0  0  0  0
   40.5978   10.1448   11.0549 C   0  0  0  0  0  0  0  0  0  0  0  0
   50.6700   12.2851    7.6326 C   0  0  0  0  0  0  0  0  0  0  0  0
   39.9056   13.5622    6.8700 C   0  0  0  0  0  0  0  0  0  0  0  0
   44.7678   13.5648    8.9003 C   0  0  2  0  0  0  0  0  0  0  0  0
   45.7102   12.8844    9.8395 C   0  0  0  0  0  0  0  0  0  0  0  0
   43.8580   12.5080    8.2577 C   0  0  2  0  0  0  0  0  0  0  0  0
   46.9576   13.4648    9.7849 C   0  0  0  0  0  0  0  0  0  0  0  0
   45.8257   14.2396    8.0042 C   0  0  1  0  0  0  0  0  0  0  0  0
   47.0408   14.4339    8.8175 O   0  0  0  0  0  0  0  0  0  0  0  0
   43.1241   11.7826    9.4350 C   0  0  1  0  0  0  0  0  0  0  0  0
   45.4371   11.7627   10.6031 C   0  0  0  0  0  0  0  0  0  0  0  0
   44.6133   11.6016    7.3147 C   0  0  0  0  0  0  0  0  0  0  0  0
   44.1224   11.0542   10.4043 C   0  0  0  0  0  0  0  0  0  0  0  0
   42.2295   12.7891   10.0697 N   0  0  0  0  0  0  0  0  0  0  0  0
   43.9093   14.5863    9.6720 C   0  0  0  0  0  0  0  0  0  0  0  0
   45.6743   12.0444    6.6224 C   0  0  0  0  0  0  0  0  0  0  0  0
   46.1772   13.4573    6.7040 C   0  0  2  0  0  0  0  0  0  0  0  0
   47.9731   13.0124   10.5978 C   0  0  0  0  0  0  0  0  0  0  0  0
   42.9527   13.9165   10.6698 C   0  0  0  0  0  0  0  0  0  0  0  0
   46.4578   11.2915   11.4320 C   0  0  0  0  0  0  0  0  0  0  0  0
   47.7175   11.9273   11.4434 C   0  0  0  0  0  0  0  0  0  0  0  0
   49.2004   13.5973   10.5389 O   0  0  0  0  0  0  0  0  0  0  0  0
   47.5810   13.4377    6.4546 O   0  0  0  0  0  0  0  0  0  0  0  0
   41.2839   12.2042   11.0160 C   0  0  0  0  0  0  0  0  0  0  0  0
   44.0778   13.4787    8.8477 C   0  0  2  0  0  0  0  0  0  0  0  0
   45.2043   13.0834    9.7557 C   0  0  0  0  0  0  0  0  0  0  0  0
   43.3425   12.2110    8.3836 C   0  0  2  0  0  0  0  0  0  0  0  0
   46.2902   13.9164    9.5792 C   0  0  0  0  0  0  0  0  0  0  0  0
   44.9391   14.2380    7.8176 C   0  0  1  0  0  0  0  0  0  0  0  0
   46.1007   14.7913    8.5336 O   0  0  0  0  0  0  0  0  0  0  0  0
   42.8765   11.4932    9.7053 C   0  0  2  0  0  0  0  0  0  0  0  0
   41.9010   12.3433   10.4457 N   0  0  0  0  0  0  0  0  0  0  0  0
   45.2325   11.9971   10.6083 C   0  0  0  0  0  0  0  0  0  0  0  0
   44.1721   11.3730    7.4416 C   0  0  0  0  0  0  0  0  0  0  0  0
   44.1191   10.9905   10.5254 C   0  0  0  0  0  0  0  0  0  0  0  0
   43.1273   14.4068    9.6440 C   0  0  0  0  0  0  0  0  0  0  0  0
   45.1089   11.9164    6.6495 C   0  0  0  0  0  0  0  0  0  0  0  0
   45.4138   13.3856    6.6000 C   0  0  2  0  0  0  0  0  0  0  0  0
   47.4358   13.7817   10.3423 C   0  0  0  0  0  0  0  0  0  0  0  0
   41.7968   13.7296    9.9895 C   0  0  0  0  0  0  0  0  0  0  0  0
   46.3761   11.8326   11.3893 C   0  0  0  0  0  0  0  0  0  0  0  0
   47.4595   12.7330   11.2738 C   0  0  0  0  0  0  0  0  0  0  0  0
   41.9083   12.2338   11.8965 C   0  0  0  0  0  0  0  0  0  0  0  0
   46.8122   13.5278    6.3485 O   0  0  0  0  0  0  0  0  0  0  0  0
   48.4455   14.6648   10.0931 O   0  0  0  0  0  0  0  0  0  0  0  0
   49.6349   14.5130   10.8558 C   0  0  0  0  0  0  0  0  0  0  0  0
   45.9656   14.8102    9.8052 H   0  0  0  0  0  0  0  0  0  0  0  0
   49.3006   11.1745    9.4470 H   0  0  0  0  0  0  0  0  0  0  0  0
   44.7312   14.6682   11.6285 H   0  0  0  0  0  0  0  0  0  0  0  0
   43.9593   13.5276   12.6784 H   0  0  0  0  0  0  0  0  0  0  0  0
   42.5909   11.6086   11.5920 H   0  0  0  0  0  0  0  0  0  0  0  0
   41.7407   14.9250    8.0083 H   0  0  0  0  0  0  0  0  0  0  0  0
   43.5674   15.2674    9.5705 H   0  0  0  0  0  0  0  0  0  0  0  0
   46.2171    9.7024   12.7097 H   0  0  0  0  0  0  0  0  0  0  0  0
   48.1168    9.8838   11.1363 H   0  0  0  0  0  0  0  0  0  0  0  0
   47.1754   16.7533    9.2422 H   0  0  0  0  0  0  0  0  0  0  0  0
   47.4734   17.1711    7.5508 H   0  0  0  0  0  0  0  0  0  0  0  0
   46.0921   16.1370    7.9331 H   0  0  0  0  0  0  0  0  0  0  0  0
   40.4685   10.6598   12.0128 H   0  0  0  0  0  0  0  0  0  0  0  0
   39.8060    9.3936   10.9734 H   0  0  0  0  0  0  0  0  0  0  0  0
   41.5583    9.6206   11.0119 H   0  0  0  0  0  0  0  0  0  0  0  0
   50.1790   11.3773    7.2664 H   0  0  0  0  0  0  0  0  0  0  0  0
   51.3801   12.6104    6.8662 H   0  0  0  0  0  0  0  0  0  0  0  0
   51.2366   12.0884    8.5484 H   0  0  0  0  0  0  0  0  0  0  0  0
   39.6459   14.5979    7.1115 H   0  0  0  0  0  0  0  0  0  0  0  0
   40.8178   13.5126    6.2660 H   0  0  0  0  0  0  0  0  0  0  0  0
   39.0884   13.1462    6.2726 H   0  0  0  0  0  0  0  0  0  0  0  0
   43.0964   13.0055    7.6376 H   0  0  0  0  0  0  0  0  0  0  0  0
   45.5006   15.2452    7.7095 H   0  0  0  0  0  0  0  0  0  0  0  0
   42.4740   11.0119    8.9973 H   0  0  0  0  0  0  0  0  0  0  0  0
   44.2586   10.5851    7.1677 H   0  0  0  0  0  0  0  0  0  0  0  0
   44.3495   10.0736    9.9635 H   0  0  0  0  0  0  0  0  0  0  0  0
   43.6611   10.8563   11.3761 H   0  0  0  0  0  0  0  0  0  0  0  0
   44.5347   15.3088   10.2120 H   0  0  0  0  0  0  0  0  0  0  0  0
   43.3171   15.1654    8.9506 H   0  0  0  0  0  0  0  0  0  0  0  0
   46.1768   11.3833    5.9209 H   0  0  0  0  0  0  0  0  0  0  0  0
   45.7243   13.9897    5.8581 H   0  0  0  0  0  0  0  0  0  0  0  0
   43.5022   13.6012   11.5652 H   0  0  0  0  0  0  0  0  0  0  0  0
   42.2346   14.6762   11.0029 H   0  0  0  0  0  0  0  0  0  0  0  0
   46.2980   10.4127   12.0526 H   0  0  0  0  0  0  0  0  0  0  0  0
   48.4950   11.5335   12.0915 H   0  0  0  0  0  0  0  0  0  0  0  0
   49.7797   13.1755   11.1921 H   0  0  0  0  0  0  0  0  0  0  0  0
   48.0120   13.6782    7.2999 H   0  0  0  0  0  0  0  0  0  0  0  0
   40.7226   11.3873   10.5493 H   0  0  0  0  0  0  0  0  0  0  0  0
   41.7672   11.8216   11.9199 H   0  0  0  0  0  0  0  0  0  0  0  0
   40.5448   12.9521   11.3228 H   0  0  0  0  0  0  0  0  0  0  0  0
   42.4518   12.4813    7.7982 H   0  0  0  0  0  0  0  0  0  0  0  0
   44.3914   15.0993    7.4155 H   0  0  0  0  0  0  0  0  0  0  0  0
   42.3146   10.5931    9.4217 H   0  0  0  0  0  0  0  0  0  0  0  0
   43.9672   10.3071    7.3790 H   0  0  0  0  0  0  0  0  0  0  0  0
   43.8433   10.6420   11.5247 H   0  0  0  0  0  0  0  0  0  0  0  0
   44.5216   10.1070   10.0104 H   0  0  0  0  0  0  0  0  0  0  0  0
   42.8884   15.2996    9.0523 H   0  0  0  0  0  0  0  0  0  0  0  0
   43.5920   14.7707   10.5702 H   0  0  0  0  0  0  0  0  0  0  0  0
   45.6612   11.2825    5.9594 H   0  0  0  0  0  0  0  0  0  0  0  0
   44.9084   13.7726    5.7063 H   0  0  0  0  0  0  0  0  0  0  0  0
   41.2492   14.3512   10.7097 H   0  0  0  0  0  0  0  0  0  0  0  0
   41.1593   13.7385    9.0949 H   0  0  0  0  0  0  0  0  0  0  0  0
   46.4557   10.9910   12.0737 H   0  0  0  0  0  0  0  0  0  0  0  0
   48.3265   12.5567   11.9030 H   0  0  0  0  0  0  0  0  0  0  0  0
   42.8105   12.6657   12.3423 H   0  0  0  0  0  0  0  0  0  0  0  0
   41.8122   11.1890   12.2104 H   0  0  0  0  0  0  0  0  0  0  0  0
   41.0431   12.7511   12.3274 H   0  0  0  0  0  0  0  0  0  0  0  0
   47.1821   14.0164    7.1111 H   0  0  0  0  0  0  0  0  0  0  0  0
   50.3375   15.2903   10.5386 H   0  0  0  0  0  0  0  0  0  0  0  0
   49.4398   14.6556   11.9240 H   0  0  0  0  0  0  0  0  0  0  0  0
   50.1045   13.5419   10.6660 H   0  0  0  0  0  0  0  0  0  0  0  0
  2  1  1  0
  3  1  2  0
  4  1  1  0
  5  3  1  0
  6  7  1  0
  7  4  2  0
  8  2  2  0
  9 12  2  0
 10  2  1  0
 11 14  2  0
 12 13  1  0
 13 10  1  0
 14 15  1  0
 15 13  2  0
 16 21  2  0
 17  5  1  0
 18  6  1  0
 19  9  1  0
 20 11  1  0
 21  4  1  0
 22 17  1  0
 23 19  1  0
 24 18  1  0
 25 20  1  0
 16  8  1  0
  6  5  2  0
 11  9  1  0
 27 26  1  0
 28 26  1  0
 29 27  2  0
 30 26  1  0
 30 31  1  0
 32 28  1  0
 33 27  1  0
 28 34  1  0
 32 35  1  0
 36 41  1  0
 26 37  1  1
 38 39  1  0
 39 30  1  0
 40 29  1  0
 41 37  1  0
 42 33  2  0
 43 42  1  0
 44 40  1  0
 39 45  1  0
 46 36  1  0
 29 31  1  0
 32 36  1  0
 38 34  2  0
 35 33  1  0
 43 40  2  0
 48 47  1  0
 49 47  1  0
 50 48  2  0
 51 47  1  0
 52 51  1  0
 53 49  1  0
 54 62  1  0
 55 48  1  0
 49 56  1  0
 53 57  1  0
 47 58  1  1
 59 60  1  0
 60 51  1  0
 61 50  1  0
 62 58  1  0
 63 55  2  0
 64 63  1  0
 65 54  1  0
 60 66  1  0
 67 61  1  0
 68 67  1  0
 52 50  1  0
 53 54  1  0
 59 56  2  0
 57 55  1  0
 64 61  2  0
  3 69  1  0
  7 70  1  0
 10 71  1  0
 10 72  1  0
 12 73  1  0
 14 74  1  0
 15 75  1  0
 16 76  1  0
 21 77  1  0
 22 78  1  0
 22 79  1  0
 22 80  1  0
 23 81  1  0
 23 82  1  0
 23 83  1  0
 24 84  1  0
 24 85  1  0
 24 86  1  0
 25 87  1  0
 25 88  1  0
 25 89  1  0
 28 90  1  1
 30 91  1  1
 32 92  1  6
 34 93  1  0
 35 94  1  0
 35 95  1  0
 37 96  1  0
 37 97  1  0
 38 98  1  0
 39 99  1  1
 41100  1  0
 41101  1  0
 42102  1  0
 43103  1  0
 44104  1  0
 45105  1  0
 46106  1  0
 46107  1  0
 46108  1  0
 49109  1  1
 51110  1  1
 53111  1  6
 56112  1  0
 57113  1  0
 57114  1  0
 58115  1  0
 58116  1  0
 59117  1  0
 60118  1  1
 62119  1  0
 62120  1  0
 63121  1  0
 64122  1  0
 65123  1  0
 65124  1  0
 65125  1  0
 66126  1  0
 68127  1  0
 68128  1  0
 68129  1  0
M  END
> <Uni-Dock RESULT> 
ENERGY=   -5.284  LOWER_BOUND=    9.546  UPPER_BOUND=   12.813
INTER + INTRA:          -5.284
INTER:                  -5.284
INTRA:                   0.000
UNBOUND:                 0.000

$$$$
