
     RDKit          3D

129139  0  0  0  0  0  0  0  0999 V2000
   46.9036   14.3636    7.6230 C   0  0  0  0  0  0  0  0  0  0  0  0
   45.8837   13.7217    8.3742 C   0  0  0  0  0  0  0  0  0  0  0  0
   47.4317   13.8846    6.3978 C   0  0  0  0  0  0  0  0  0  0  0  0
   47.4262   15.5678    8.1414 C   0  0  0  0  0  0  0  0  0  0  0  0
   48.4414   14.5705    5.7110 C   0  0  0  0  0  0  0  0  0  0  0  0
   48.9468   15.7696    6.2397 C   0  0  0  0  0  0  0  0  0  0  0  0
   48.4373   16.2557    7.4476 C   0  0  0  0  0  0  0  0  0  0  0  0
   45.4128   14.2228    9.5471 N   0  0  0  0  0  0  0  0  0  0  0  0
   43.5418   10.3479   10.5988 C   0  0  0  0  0  0  0  0  0  0  0  0
   45.2672   12.4202    7.8821 C   0  0  0  0  0  0  0  0  0  0  0  0
   42.1873   10.6646   10.3733 C   0  0  0  0  0  0  0  0  0  0  0  0
   44.5308   10.9200    9.7880 C   0  0  0  0  0  0  0  0  0  0  0  0
   44.1901   11.8051    8.7525 C   0  0  0  0  0  0  0  0  0  0  0  0
   41.8498   11.5557    9.3496 C   0  0  0  0  0  0  0  0  0  0  0  0
   42.8435   12.1245    8.5489 C   0  0  0  0  0  0  0  0  0  0  0  0
   45.9393   15.3723   10.0037 C   0  0  0  0  0  0  0  0  0  0  0  0
   48.9939   14.1562    4.5243 O   0  0  0  0  0  0  0  0  0  0  0  0
   49.9307   16.3849    5.5067 O   0  0  0  0  0  0  0  0  0  0  0  0
   43.7935    9.4683   11.6240 O   0  0  0  0  0  0  0  0  0  0  0  0
   41.2780   10.0558   11.2034 O   0  0  0  0  0  0  0  0  0  0  0  0
   46.9318   16.0709    9.3475 C   0  0  0  0  0  0  0  0  0  0  0  0
   48.5487   12.9245    3.9750 C   0  0  0  0  0  0  0  0  0  0  0  0
   45.1505    9.2489   11.9797 C   0  0  0  0  0  0  0  0  0  0  0  0
   50.4607   17.6066    6.0000 C   0  0  0  0  0  0  0  0  0  0  0  0
   39.9111   10.4086   11.0511 C   0  0  0  0  0  0  0  0  0  0  0  0
   45.8436   13.9196    8.9188 C   0  0  2  0  0  0  0  0  0  0  0  0
   44.8953   12.7831    8.6733 C   0  0  0  0  0  0  0  0  0  0  0  0
   47.2166   13.5395    8.3509 C   0  0  2  0  0  0  0  0  0  0  0  0
   44.0216   12.6431    9.7303 C   0  0  0  0  0  0  0  0  0  0  0  0
   45.6762   13.9686   10.4532 C   0  0  1  0  0  0  0  0  0  0  0  0
   44.3223   13.4862   10.7705 O   0  0  0  0  0  0  0  0  0  0  0  0
   46.9791   13.2146    6.8334 C   0  0  1  0  0  0  0  0  0  0  0  0
   44.9146   11.9025    7.6043 C   0  0  0  0  0  0  0  0  0  0  0  0
   47.8908   12.4466    9.1434 C   0  0  0  0  0  0  0  0  0  0  0  0
   46.0688   11.9593    6.6376 C   0  0  0  0  0  0  0  0  0  0  0  0
   46.3259   14.3355    6.1031 N   0  0  0  0  0  0  0  0  0  0  0  0
   45.3075   15.1916    8.2158 C   0  0  0  0  0  0  0  0  0  0  0  0
   47.6573   12.2800   10.4545 C   0  0  0  0  0  0  0  0  0  0  0  0
   46.7378   13.1563   11.2558 C   0  0  2  0  0  0  0  0  0  0  0  0
   43.0345   11.6828    9.7035 C   0  0  0  0  0  0  0  0  0  0  0  0
   46.0632   15.5202    6.9176 C   0  0  0  0  0  0  0  0  0  0  0  0
   43.9207   10.9208    7.5648 C   0  0  0  0  0  0  0  0  0  0  0  0
   42.9684   10.8257    8.6007 C   0  0  0  0  0  0  0  0  0  0  0  0
   42.1776   11.5609   10.7541 O   0  0  0  0  0  0  0  0  0  0  0  0
   46.1464   12.3488   12.2734 O   0  0  0  0  0  0  0  0  0  0  0  0
   47.0391   14.6779    4.8754 C   0  0  0  0  0  0  0  0  0  0  0  0
   46.2795   14.0833    8.5589 C   0  0  2  0  0  0  0  0  0  0  0  0
   45.2307   13.0125    8.6407 C   0  0  0  0  0  0  0  0  0  0  0  0
   47.4100   13.5714    7.6554 C   0  0  2  0  0  0  0  0  0  0  0  0
   44.6887   12.9550    9.9090 C   0  0  0  0  0  0  0  0  0  0  0  0
   46.5532   14.1956   10.0762 C   0  0  1  0  0  0  0  0  0  0  0  0
   45.3265   13.8030   10.7793 O   0  0  0  0  0  0  0  0  0  0  0  0
   46.7431   13.2386    6.2746 C   0  0  2  0  0  0  0  0  0  0  0  0
   46.0214   14.4015    5.6907 N   0  0  0  0  0  0  0  0  0  0  0  0
   44.8827   12.1191    7.6429 C   0  0  0  0  0  0  0  0  0  0  0  0
   48.1762   12.4313    8.2854 C   0  0  0  0  0  0  0  0  0  0  0  0
   45.7092   12.0719    6.3851 C   0  0  0  0  0  0  0  0  0  0  0  0
   45.6500   15.3675    7.9650 C   0  0  0  0  0  0  0  0  0  0  0  0
   48.3301   12.3459    9.6165 C   0  0  0  0  0  0  0  0  0  0  0  0
   47.8030   13.3957   10.5615 C   0  0  2  0  0  0  0  0  0  0  0  0
   43.6577   12.0825   10.2133 C   0  0  0  0  0  0  0  0  0  0  0  0
   46.0632   15.6146    6.5056 C   0  0  0  0  0  0  0  0  0  0  0  0
   43.8535   11.2208    7.9251 C   0  0  0  0  0  0  0  0  0  0  0  0
   43.2305   11.2195    9.1928 C   0  0  0  0  0  0  0  0  0  0  0  0
   46.4353   14.6692    4.3158 C   0  0  0  0  0  0  0  0  0  0  0  0
   47.6041   12.8369   11.8555 O   0  0  0  0  0  0  0  0  0  0  0  0
   43.1651   12.1300   11.4847 O   0  0  0  0  0  0  0  0  0  0  0  0
   42.1060   11.2394   11.8006 C   0  0  0  0  0  0  0  0  0  0  0  0
   47.0380   12.9623    5.9861 H   0  0  0  0  0  0  0  0  0  0  0  0
   48.8171   17.1794    7.8734 H   0  0  0  0  0  0  0  0  0  0  0  0
   46.0667   11.6778    7.7583 H   0  0  0  0  0  0  0  0  0  0  0  0
   44.8418   12.5905    6.8840 H   0  0  0  0  0  0  0  0  0  0  0  0
   45.5811   10.6973    9.9450 H   0  0  0  0  0  0  0  0  0  0  0  0
   40.8209   11.8334    9.1497 H   0  0  0  0  0  0  0  0  0  0  0  0
   42.5587   12.8266    7.7685 H   0  0  0  0  0  0  0  0  0  0  0  0
   45.5275   15.7290   10.9434 H   0  0  0  0  0  0  0  0  0  0  0  0
   47.3078   16.9934    9.7776 H   0  0  0  0  0  0  0  0  0  0  0  0
   49.1190   12.7404    3.0596 H   0  0  0  0  0  0  0  0  0  0  0  0
   48.7427   12.0918    4.6590 H   0  0  0  0  0  0  0  0  0  0  0  0
   47.4898   12.9755    3.7026 H   0  0  0  0  0  0  0  0  0  0  0  0
   45.6909    8.7411   11.1743 H   0  0  0  0  0  0  0  0  0  0  0  0
   45.1647    8.5909   12.8538 H   0  0  0  0  0  0  0  0  0  0  0  0
   45.6457   10.1843   12.2614 H   0  0  0  0  0  0  0  0  0  0  0  0
   51.2147   17.9562    5.2883 H   0  0  0  0  0  0  0  0  0  0  0  0
   50.9571   17.4606    6.9649 H   0  0  0  0  0  0  0  0  0  0  0  0
   49.6852   18.3768    6.0656 H   0  0  0  0  0  0  0  0  0  0  0  0
   39.7546   11.4769   11.2317 H   0  0  0  0  0  0  0  0  0  0  0  0
   39.3377    9.8577   11.8025 H   0  0  0  0  0  0  0  0  0  0  0  0
   39.5346   10.1137   10.0660 H   0  0  0  0  0  0  0  0  0  0  0  0
   47.9004   14.3977    8.4175 H   0  0  0  0  0  0  0  0  0  0  0  0
   45.7195   15.0037   10.8158 H   0  0  0  0  0  0  0  0  0  0  0  0
   47.9553   12.9934    6.3800 H   0  0  0  0  0  0  0  0  0  0  0  0
   48.6122   11.8074    8.6410 H   0  0  0  0  0  0  0  0  0  0  0  0
   45.6955   11.9082    5.6070 H   0  0  0  0  0  0  0  0  0  0  0  0
   46.6810   11.0623    6.7975 H   0  0  0  0  0  0  0  0  0  0  0  0
   45.4168   16.0615    8.8757 H   0  0  0  0  0  0  0  0  0  0  0  0
   44.2348   15.1059    7.9960 H   0  0  0  0  0  0  0  0  0  0  0  0
   48.1872   11.5026   11.0000 H   0  0  0  0  0  0  0  0  0  0  0  0
   47.3829   13.8745   11.7777 H   0  0  0  0  0  0  0  0  0  0  0  0
   45.4595   16.2384    6.3484 H   0  0  0  0  0  0  0  0  0  0  0  0
   47.0018   16.0351    7.1634 H   0  0  0  0  0  0  0  0  0  0  0  0
   43.8923   10.2056    6.7459 H   0  0  0  0  0  0  0  0  0  0  0  0
   42.2137   10.0468    8.5461 H   0  0  0  0  0  0  0  0  0  0  0  0
   41.5206   10.8805   10.5394 H   0  0  0  0  0  0  0  0  0  0  0  0
   45.1923   12.2978   12.0624 H   0  0  0  0  0  0  0  0  0  0  0  0
   48.0408   15.0729    5.0803 H   0  0  0  0  0  0  0  0  0  0  0  0
   46.4834   15.4280    4.3016 H   0  0  0  0  0  0  0  0  0  0  0  0
   47.1380   13.7995    4.2280 H   0  0  0  0  0  0  0  0  0  0  0  0
   48.1554   14.3642    7.4980 H   0  0  0  0  0  0  0  0  0  0  0  0
   46.7244   15.2417   10.3609 H   0  0  0  0  0  0  0  0  0  0  0  0
   47.5376   12.9131    5.5884 H   0  0  0  0  0  0  0  0  0  0  0  0
   48.6280   11.6842    7.6382 H   0  0  0  0  0  0  0  0  0  0  0  0
   46.2629   11.1241    6.3880 H   0  0  0  0  0  0  0  0  0  0  0  0
   45.0522   12.0512    5.5066 H   0  0  0  0  0  0  0  0  0  0  0  0
   45.9702   16.2465    8.5383 H   0  0  0  0  0  0  0  0  0  0  0  0
   44.5540   15.3430    8.0293 H   0  0  0  0  0  0  0  0  0  0  0  0
   48.9113   11.5249   10.0259 H   0  0  0  0  0  0  0  0  0  0  0  0
   48.6218   14.1190   10.6741 H   0  0  0  0  0  0  0  0  0  0  0  0
   47.0671   16.0594    6.4835 H   0  0  0  0  0  0  0  0  0  0  0  0
   45.3849   16.3678    6.0855 H   0  0  0  0  0  0  0  0  0  0  0  0
   43.5372   10.4988    7.1758 H   0  0  0  0  0  0  0  0  0  0  0  0
   42.4340   10.5014    9.3587 H   0  0  0  0  0  0  0  0  0  0  0  0
   46.2975   13.7798    3.6910 H   0  0  0  0  0  0  0  0  0  0  0  0
   45.8209   15.4609    3.8728 H   0  0  0  0  0  0  0  0  0  0  0  0
   47.4862   14.9741    4.2577 H   0  0  0  0  0  0  0  0  0  0  0  0
   48.3411   12.2394   12.0523 H   0  0  0  0  0  0  0  0  0  0  0  0
   42.4250   10.1962   11.7080 H   0  0  0  0  0  0  0  0  0  0  0  0
   41.8255   11.4085   12.8446 H   0  0  0  0  0  0  0  0  0  0  0  0
   41.2239   11.4389   11.1834 H   0  0  0  0  0  0  0  0  0  0  0  0
  2  1  1  0
  3  1  2  0
  4  1  1  0
  5  3  1  0
  6  7  1  0
  7  4  2  0
  8  2  2  0
  9 12  2  0
 10  2  1  0
 11 14  2  0
 12 13  1  0
 13 10  1  0
 14 15  1  0
 15 13  2  0
 16 21  2  0
 17  5  1  0
 18  6  1  0
 19  9  1  0
 20 11  1  0
 21  4  1  0
 22 17  1  0
 23 19  1  0
 24 18  1  0
 25 20  1  0
 16  8  1  0
  6  5  2  0
 11  9  1  0
 27 26  1  0
 28 26  1  0
 29 27  2  0
 30 26  1  0
 30 31  1  0
 32 28  1  0
 33 27  1  0
 28 34  1  0
 32 35  1  0
 36 41  1  0
 26 37  1  1
 38 39  1  0
 39 30  1  0
 40 29  1  0
 41 37  1  0
 42 33  2  0
 43 42  1  0
 44 40  1  0
 39 45  1  0
 46 36  1  0
 29 31  1  0
 32 36  1  0
 38 34  2  0
 35 33  1  0
 43 40  2  0
 48 47  1  0
 49 47  1  0
 50 48  2  0
 51 47  1  0
 52 51  1  0
 53 49  1  0
 54 62  1  0
 55 48  1  0
 49 56  1  0
 53 57  1  0
 47 58  1  1
 59 60  1  0
 60 51  1  0
 61 50  1  0
 62 58  1  0
 63 55  2  0
 64 63  1  0
 65 54  1  0
 60 66  1  0
 67 61  1  0
 68 67  1  0
 52 50  1  0
 53 54  1  0
 59 56  2  0
 57 55  1  0
 64 61  2  0
  3 69  1  0
  7 70  1  0
 10 71  1  0
 10 72  1  0
 12 73  1  0
 14 74  1  0
 15 75  1  0
 16 76  1  0
 21 77  1  0
 22 78  1  0
 22 79  1  0
 22 80  1  0
 23 81  1  0
 23 82  1  0
 23 83  1  0
 24 84  1  0
 24 85  1  0
 24 86  1  0
 25 87  1  0
 25 88  1  0
 25 89  1  0
 28 90  1  1
 30 91  1  1
 32 92  1  6
 34 93  1  0
 35 94  1  0
 35 95  1  0
 37 96  1  0
 37 97  1  0
 38 98  1  0
 39 99  1  1
 41100  1  0
 41101  1  0
 42102  1  0
 43103  1  0
 44104  1  0
 45105  1  0
 46106  1  0
 46107  1  0
 46108  1  0
 49109  1  1
 51110  1  1
 53111  1  6
 56112  1  0
 57113  1  0
 57114  1  0
 58115  1  0
 58116  1  0
 59117  1  0
 60118  1  1
 62119  1  0
 62120  1  0
 63121  1  0
 64122  1  0
 65123  1  0
 65124  1  0
 65125  1  0
 66126  1  0
 68127  1  0
 68128  1  0
 68129  1  0
M  END
> <Uni-Dock RESULT> 
ENERGY=   -6.680  LOWER_BOUND=    0.000  UPPER_BOUND=    0.000
INTER + INTRA:          -6.680
INTER:                  -6.680
INTRA:                   0.000
UNBOUND:                 0.000

$$$$

     RDKit          3D

129139  0  0  0  0  0  0  0  0999 V2000
   51.0426    5.4468   19.1967 C   0  0  0  0  0  0  0  0  0  0  0  0
   52.2379    4.6858   19.1052 C   0  0  0  0  0  0  0  0  0  0  0  0
   49.8172    5.1108   18.5681 C   0  0  0  0  0  0  0  0  0  0  0  0
   51.0853    6.6248   19.9728 C   0  0  0  0  0  0  0  0  0  0  0  0
   48.6759    5.9118   18.7006 C   0  0  0  0  0  0  0  0  0  0  0  0
   48.7356    7.0785   19.4803 C   0  0  0  0  0  0  0  0  0  0  0  0
   49.9367    7.4247   20.1067 C   0  0  0  0  0  0  0  0  0  0  0  0
   53.3895    5.0537   19.7272 N   0  0  0  0  0  0  0  0  0  0  0  0
   55.7770    2.2918   17.2186 C   0  0  0  0  0  0  0  0  0  0  0  0
   52.2736    3.4017   18.2890 C   0  0  0  0  0  0  0  0  0  0  0  0
   56.0510    1.2829   18.1635 C   0  0  0  0  0  0  0  0  0  0  0  0
   54.5528    2.9713   17.2666 C   0  0  0  0  0  0  0  0  0  0  0  0
   53.5941    2.6599   18.2442 C   0  0  0  0  0  0  0  0  0  0  0  0
   55.1006    0.9818   19.1443 C   0  0  0  0  0  0  0  0  0  0  0  0
   53.8842    1.6679   19.1867 C   0  0  0  0  0  0  0  0  0  0  0  0
   53.3850    6.1831   20.4561 C   0  0  0  0  0  0  0  0  0  0  0  0
   47.4639    5.6408   18.1150 O   0  0  0  0  0  0  0  0  0  0  0  0
   47.5756    7.8073   19.5655 O   0  0  0  0  0  0  0  0  0  0  0  0
   56.7606    2.5319   16.2896 O   0  0  0  0  0  0  0  0  0  0  0  0
   57.2678    0.6571   18.0440 O   0  0  0  0  0  0  0  0  0  0  0  0
   52.2757    6.9897   20.6069 C   0  0  0  0  0  0  0  0  0  0  0  0
   47.3678    4.4973   17.2784 C   0  0  0  0  0  0  0  0  0  0  0  0
   56.5854    3.6432   15.4233 C   0  0  0  0  0  0  0  0  0  0  0  0
   47.5896    8.9882   20.3542 C   0  0  0  0  0  0  0  0  0  0  0  0
   57.6061   -0.3134   19.0236 C   0  0  0  0  0  0  0  0  0  0  0  0
   52.7086    4.9799   19.2766 C   0  0  2  0  0  0  0  0  0  0  0  0
   53.0673    3.6190   18.7567 C   0  0  0  0  0  0  0  0  0  0  0  0
   51.7240    5.6312   18.2976 C   0  0  2  0  0  0  0  0  0  0  0  0
   54.3896    3.3320   19.0201 C   0  0  0  0  0  0  0  0  0  0  0  0
   54.1479    5.5354   19.3426 C   0  0  1  0  0  0  0  0  0  0  0  0
   55.0554    4.3989   19.5696 O   0  0  0  0  0  0  0  0  0  0  0  0
   50.5096    4.6425   18.1876 C   0  0  1  0  0  0  0  0  0  0  0  0
   52.2563    2.7719   18.0197 C   0  0  0  0  0  0  0  0  0  0  0  0
   52.3699    6.0030   16.9854 C   0  0  0  0  0  0  0  0  0  0  0  0
   50.9197    3.2787   17.5436 C   0  0  0  0  0  0  0  0  0  0  0  0
   49.9064    4.3266   19.5116 N   0  0  0  0  0  0  0  0  0  0  0  0
   52.0564    4.8357   20.6744 C   0  0  0  0  0  0  0  0  0  0  0  0
   53.6733    6.3125   16.9040 C   0  0  0  0  0  0  0  0  0  0  0  0
   54.5992    6.3406   18.0861 C   0  0  2  0  0  0  0  0  0  0  0  0
   54.9289    2.1154   18.6644 C   0  0  0  0  0  0  0  0  0  0  0  0
   50.5292    5.0122   20.6422 C   0  0  0  0  0  0  0  0  0  0  0  0
   52.7906    1.5348   17.6491 C   0  0  0  0  0  0  0  0  0  0  0  0
   54.1168    1.1979   17.9909 C   0  0  0  0  0  0  0  0  0  0  0  0
   56.2355    1.8470   18.9357 O   0  0  0  0  0  0  0  0  0  0  0  0
   55.8955    5.9535   17.6312 O   0  0  0  0  0  0  0  0  0  0  0  0
   48.4570    4.5068   19.5094 C   0  0  0  0  0  0  0  0  0  0  0  0
   52.1827    5.2382   19.2207 C   0  0  2  0  0  0  0  0  0  0  0  0
   52.8642    3.9704   18.7946 C   0  0  0  0  0  0  0  0  0  0  0  0
   51.0155    5.4956   18.2576 C   0  0  2  0  0  0  0  0  0  0  0  0
   54.2309    4.0705   18.9603 C   0  0  0  0  0  0  0  0  0  0  0  0
   53.4212    6.1585   19.1276 C   0  0  1  0  0  0  0  0  0  0  0  0
   54.6097    5.3288   19.3562 O   0  0  0  0  0  0  0  0  0  0  0  0
   50.0949    4.2279   18.3449 C   0  0  2  0  0  0  0  0  0  0  0  0
   49.6431    3.9411   19.7333 N   0  0  0  0  0  0  0  0  0  0  0  0
   52.2644    2.8621   18.2228 C   0  0  0  0  0  0  0  0  0  0  0  0
   51.4872    5.8473   16.8657 C   0  0  0  0  0  0  0  0  0  0  0  0
   50.8138    2.9406   17.8267 C   0  0  0  0  0  0  0  0  0  0  0  0
   51.6634    5.0739   20.6705 C   0  0  0  0  0  0  0  0  0  0  0  0
   52.6409    6.5041   16.6655 C   0  0  0  0  0  0  0  0  0  0  0  0
   53.5101    6.9788   17.8022 C   0  0  2  0  0  0  0  0  0  0  0  0
   55.0698    3.0028   18.6900 C   0  0  0  0  0  0  0  0  0  0  0  0
   50.1409    4.8768   20.7402 C   0  0  0  0  0  0  0  0  0  0  0  0
   53.0874    1.7745   17.9299 C   0  0  0  0  0  0  0  0  0  0  0  0
   54.4755    1.8369   18.1841 C   0  0  0  0  0  0  0  0  0  0  0  0
   48.1927    3.7904   19.8174 C   0  0  0  0  0  0  0  0  0  0  0  0
   54.8555    7.1298   17.3625 O   0  0  0  0  0  0  0  0  0  0  0  0
   56.4010    3.1906   18.9231 O   0  0  0  0  0  0  0  0  0  0  0  0
   57.2647    2.0978   18.6503 C   0  0  0  0  0  0  0  0  0  0  0  0
   49.7688    4.2073   17.9710 H   0  0  0  0  0  0  0  0  0  0  0  0
   50.0032    8.3241   20.7112 H   0  0  0  0  0  0  0  0  0  0  0  0
   51.9811    3.6340   17.2564 H   0  0  0  0  0  0  0  0  0  0  0  0
   51.5115    2.7161   18.6828 H   0  0  0  0  0  0  0  0  0  0  0  0
   54.3202    3.7562   16.5545 H   0  0  0  0  0  0  0  0  0  0  0  0
   55.2762    0.2200   19.8956 H   0  0  0  0  0  0  0  0  0  0  0  0
   53.1664    1.4272   19.9678 H   0  0  0  0  0  0  0  0  0  0  0  0
   54.3293    6.4307   20.9322 H   0  0  0  0  0  0  0  0  0  0  0  0
   52.3477    7.8874   21.2120 H   0  0  0  0  0  0  0  0  0  0  0  0
   46.3516    4.4620   16.8747 H   0  0  0  0  0  0  0  0  0  0  0  0
   48.0582    4.5661   16.4314 H   0  0  0  0  0  0  0  0  0  0  0  0
   47.5311    3.5777   17.8493 H   0  0  0  0  0  0  0  0  0  0  0  0
   55.7386    3.4853   14.7476 H   0  0  0  0  0  0  0  0  0  0  0  0
   57.4864    3.7335   14.8091 H   0  0  0  0  0  0  0  0  0  0  0  0
   56.4743    4.5755   15.9873 H   0  0  0  0  0  0  0  0  0  0  0  0
   46.5876    9.4264   20.3188 H   0  0  0  0  0  0  0  0  0  0  0  0
   48.2894    9.7259   19.9482 H   0  0  0  0  0  0  0  0  0  0  0  0
   47.8151    8.7621   21.4015 H   0  0  0  0  0  0  0  0  0  0  0  0
   57.6370    0.1279   20.0250 H   0  0  0  0  0  0  0  0  0  0  0  0
   58.6090   -0.6852   18.7940 H   0  0  0  0  0  0  0  0  0  0  0  0
   56.9207   -1.1665   18.9873 H   0  0  0  0  0  0  0  0  0  0  0  0
   51.3588    6.5824   18.7105 H   0  0  0  0  0  0  0  0  0  0  0  0
   54.2700    6.1958   20.2107 H   0  0  0  0  0  0  0  0  0  0  0  0
   49.7560    5.1064   17.5362 H   0  0  0  0  0  0  0  0  0  0  0  0
   51.7485    6.0575   16.0954 H   0  0  0  0  0  0  0  0  0  0  0  0
   50.1479    2.5190   17.7201 H   0  0  0  0  0  0  0  0  0  0  0  0
   50.9847    3.4176   16.4566 H   0  0  0  0  0  0  0  0  0  0  0  0
   52.4501    5.6012   21.3549 H   0  0  0  0  0  0  0  0  0  0  0  0
   52.2971    3.8662   21.1307 H   0  0  0  0  0  0  0  0  0  0  0  0
   54.0964    6.6083   15.9468 H   0  0  0  0  0  0  0  0  0  0  0  0
   54.6847    7.3950   18.3784 H   0  0  0  0  0  0  0  0  0  0  0  0
   50.1246    4.6218   21.5845 H   0  0  0  0  0  0  0  0  0  0  0  0
   50.2870    6.0834   20.6246 H   0  0  0  0  0  0  0  0  0  0  0  0
   52.1937    0.8339   17.0702 H   0  0  0  0  0  0  0  0  0  0  0  0
   54.5064    0.2327   17.6812 H   0  0  0  0  0  0  0  0  0  0  0  0
   56.4246    0.9334   18.6705 H   0  0  0  0  0  0  0  0  0  0  0  0
   56.0911    5.0958   18.0596 H   0  0  0  0  0  0  0  0  0  0  0  0
   48.1748    5.5550   19.3581 H   0  0  0  0  0  0  0  0  0  0  0  0
   48.0235    4.1663   20.4565 H   0  0  0  0  0  0  0  0  0  0  0  0
   47.9939    3.9050   18.7195 H   0  0  0  0  0  0  0  0  0  0  0  0
   50.4359    6.3681   18.5920 H   0  0  0  0  0  0  0  0  0  0  0  0
   53.4206    6.8899   19.9460 H   0  0  0  0  0  0  0  0  0  0  0  0
   49.2222    4.4022   17.6998 H   0  0  0  0  0  0  0  0  0  0  0  0
   50.8611    5.5802   16.0183 H   0  0  0  0  0  0  0  0  0  0  0  0
   50.7696    2.9428   16.7298 H   0  0  0  0  0  0  0  0  0  0  0  0
   50.2854    2.0394   18.1622 H   0  0  0  0  0  0  0  0  0  0  0  0
   51.8943    5.9704   21.2595 H   0  0  0  0  0  0  0  0  0  0  0  0
   52.1583    4.2368   21.1808 H   0  0  0  0  0  0  0  0  0  0  0  0
   52.9292    6.7612   15.6504 H   0  0  0  0  0  0  0  0  0  0  0  0
   53.1574    7.9938   18.0299 H   0  0  0  0  0  0  0  0  0  0  0  0
   49.6444    5.8512   20.6398 H   0  0  0  0  0  0  0  0  0  0  0  0
   49.8937    4.5087   21.7438 H   0  0  0  0  0  0  0  0  0  0  0  0
   52.6680    0.8763   17.4827 H   0  0  0  0  0  0  0  0  0  0  0  0
   55.0693    0.9622   17.9395 H   0  0  0  0  0  0  0  0  0  0  0  0
   47.8453    3.0091   19.1324 H   0  0  0  0  0  0  0  0  0  0  0  0
   47.8927    3.4797   20.8244 H   0  0  0  0  0  0  0  0  0  0  0  0
   47.6705    4.7223   19.5735 H   0  0  0  0  0  0  0  0  0  0  0  0
   54.8502    7.5177   16.4746 H   0  0  0  0  0  0  0  0  0  0  0  0
   57.2443    1.8326   17.5883 H   0  0  0  0  0  0  0  0  0  0  0  0
   58.2853    2.4076   18.8948 H   0  0  0  0  0  0  0  0  0  0  0  0
   57.0206    1.2343   19.2777 H   0  0  0  0  0  0  0  0  0  0  0  0
  2  1  1  0
  3  1  2  0
  4  1  1  0
  5  3  1  0
  6  7  1  0
  7  4  2  0
  8  2  2  0
  9 12  2  0
 10  2  1  0
 11 14  2  0
 12 13  1  0
 13 10  1  0
 14 15  1  0
 15 13  2  0
 16 21  2  0
 17  5  1  0
 18  6  1  0
 19  9  1  0
 20 11  1  0
 21  4  1  0
 22 17  1  0
 23 19  1  0
 24 18  1  0
 25 20  1  0
 16  8  1  0
  6  5  2  0
 11  9  1  0
 27 26  1  0
 28 26  1  0
 29 27  2  0
 30 26  1  0
 30 31  1  0
 32 28  1  0
 33 27  1  0
 28 34  1  0
 32 35  1  0
 36 41  1  0
 26 37  1  1
 38 39  1  0
 39 30  1  0
 40 29  1  0
 41 37  1  0
 42 33  2  0
 43 42  1  0
 44 40  1  0
 39 45  1  0
 46 36  1  0
 29 31  1  0
 32 36  1  0
 38 34  2  0
 35 33  1  0
 43 40  2  0
 48 47  1  0
 49 47  1  0
 50 48  2  0
 51 47  1  0
 52 51  1  0
 53 49  1  0
 54 62  1  0
 55 48  1  0
 49 56  1  0
 53 57  1  0
 47 58  1  1
 59 60  1  0
 60 51  1  0
 61 50  1  0
 62 58  1  0
 63 55  2  0
 64 63  1  0
 65 54  1  0
 60 66  1  0
 67 61  1  0
 68 67  1  0
 52 50  1  0
 53 54  1  0
 59 56  2  0
 57 55  1  0
 64 61  2  0
  3 69  1  0
  7 70  1  0
 10 71  1  0
 10 72  1  0
 12 73  1  0
 14 74  1  0
 15 75  1  0
 16 76  1  0
 21 77  1  0
 22 78  1  0
 22 79  1  0
 22 80  1  0
 23 81  1  0
 23 82  1  0
 23 83  1  0
 24 84  1  0
 24 85  1  0
 24 86  1  0
 25 87  1  0
 25 88  1  0
 25 89  1  0
 28 90  1  1
 30 91  1  1
 32 92  1  6
 34 93  1  0
 35 94  1  0
 35 95  1  0
 37 96  1  0
 37 97  1  0
 38 98  1  0
 39 99  1  1
 41100  1  0
 41101  1  0
 42102  1  0
 43103  1  0
 44104  1  0
 45105  1  0
 46106  1  0
 46107  1  0
 46108  1  0
 49109  1  1
 51110  1  1
 53111  1  6
 56112  1  0
 57113  1  0
 57114  1  0
 58115  1  0
 58116  1  0
 59117  1  0
 60118  1  1
 62119  1  0
 62120  1  0
 63121  1  0
 64122  1  0
 65123  1  0
 65124  1  0
 65125  1  0
 66126  1  0
 68127  1  0
 68128  1  0
 68129  1  0
M  END
> <Uni-Dock RESULT> 
ENERGY=   -6.588  LOWER_BOUND=   12.526  UPPER_BOUND=   15.984
INTER + INTRA:          -6.588
INTER:                  -6.588
INTRA:                   0.000
UNBOUND:                 0.000

$$$$

     RDKit          3D

129139  0  0  0  0  0  0  0  0999 V2000
   48.7438    9.1090   13.6513 C   0  0  0  0  0  0  0  0  0  0  0  0
   49.7995    8.4672   14.3512 C   0  0  0  0  0  0  0  0  0  0  0  0
   48.7945   10.4307   13.1416 C   0  0  0  0  0  0  0  0  0  0  0  0
   47.5582    8.3696   13.4524 C   0  0  0  0  0  0  0  0  0  0  0  0
   47.7113   11.0016   12.4614 C   0  0  0  0  0  0  0  0  0  0  0  0
   46.5407   10.2495   12.2691 C   0  0  0  0  0  0  0  0  0  0  0  0
   46.4740    8.9444   12.7660 C   0  0  0  0  0  0  0  0  0  0  0  0
   49.6992    7.1958   14.8222 N   0  0  0  0  0  0  0  0  0  0  0  0
   53.1970    7.7680   17.4792 C   0  0  0  0  0  0  0  0  0  0  0  0
   51.1112    9.1963   14.6050 C   0  0  0  0  0  0  0  0  0  0  0  0
   54.1589    7.0138   16.7781 C   0  0  0  0  0  0  0  0  0  0  0  0
   52.2155    8.4708   16.7682 C   0  0  0  0  0  0  0  0  0  0  0  0
   52.1778    8.4341   15.3650 C   0  0  0  0  0  0  0  0  0  0  0  0
   54.1133    6.9680   15.3810 C   0  0  0  0  0  0  0  0  0  0  0  0
   53.1280    7.6688   14.6808 C   0  0  0  0  0  0  0  0  0  0  0  0
   48.5517    6.5286   14.6103 C   0  0  0  0  0  0  0  0  0  0  0  0
   47.6994   12.2749   11.9483 O   0  0  0  0  0  0  0  0  0  0  0  0
   45.5258   10.8761   11.5899 O   0  0  0  0  0  0  0  0  0  0  0  0
   53.3057    7.7610   18.8490 O   0  0  0  0  0  0  0  0  0  0  0  0
   55.0929    6.3619   17.5458 O   0  0  0  0  0  0  0  0  0  0  0  0
   47.4700    7.0638   13.9414 C   0  0  0  0  0  0  0  0  0  0  0  0
   48.8429   13.0902   12.1596 C   0  0  0  0  0  0  0  0  0  0  0  0
   52.2649    8.3791   19.5912 C   0  0  0  0  0  0  0  0  0  0  0  0
   44.3288   10.1464   11.3632 C   0  0  0  0  0  0  0  0  0  0  0  0
   56.0320    5.5346   16.8753 C   0  0  0  0  0  0  0  0  0  0  0  0
   49.6275    7.9909   14.6357 C   0  0  2  0  0  0  0  0  0  0  0  0
   51.0736    8.2957   14.8941 C   0  0  0  0  0  0  0  0  0  0  0  0
   48.8233    9.2892   14.7773 C   0  0  2  0  0  0  0  0  0  0  0  0
   51.6778    7.2517   15.5614 C   0  0  0  0  0  0  0  0  0  0  0  0
   49.4702    6.9116   15.7288 C   0  0  1  0  0  0  0  0  0  0  0  0
   50.7833    6.2746   15.9198 O   0  0  0  0  0  0  0  0  0  0  0  0
   49.4601   10.3024   13.7612 C   0  0  1  0  0  0  0  0  0  0  0  0
   51.7343    9.4811   14.6168 C   0  0  0  0  0  0  0  0  0  0  0  0
   48.7484    9.7732   16.2046 C   0  0  0  0  0  0  0  0  0  0  0  0
   50.9331   10.6641   14.1384 C   0  0  0  0  0  0  0  0  0  0  0  0
   49.4917    9.7743   12.3695 N   0  0  0  0  0  0  0  0  0  0  0  0
   49.4749    7.4210   13.2033 C   0  0  0  0  0  0  0  0  0  0  0  0
   48.8037    8.9226   17.2413 C   0  0  0  0  0  0  0  0  0  0  0  0
   48.9226    7.4329   17.0924 C   0  0  2  0  0  0  0  0  0  0  0  0
   53.0194    7.2979   15.8704 C   0  0  0  0  0  0  0  0  0  0  0  0
   48.9031    8.4461   12.2101 C   0  0  0  0  0  0  0  0  0  0  0  0
   53.0955    9.5440   14.9272 C   0  0  0  0  0  0  0  0  0  0  0  0
   53.7421    8.4459   15.5318 C   0  0  0  0  0  0  0  0  0  0  0  0
   53.6009    6.2564   16.5261 O   0  0  0  0  0  0  0  0  0  0  0  0
   49.6767    6.9448   18.2015 O   0  0  0  0  0  0  0  0  0  0  0  0
   48.9344   10.7249   11.4109 C   0  0  0  0  0  0  0  0  0  0  0  0
   49.2446    8.3530   14.3735 C   0  0  2  0  0  0  0  0  0  0  0  0
   50.6791    8.3617   14.8158 C   0  0  0  0  0  0  0  0  0  0  0  0
   48.7690    9.8094   14.2788 C   0  0  2  0  0  0  0  0  0  0  0  0
   50.9314    7.3128   15.6771 C   0  0  0  0  0  0  0  0  0  0  0  0
   48.6971    7.4807   15.5263 C   0  0  1  0  0  0  0  0  0  0  0  0
   49.7900    6.6173   15.9881 O   0  0  0  0  0  0  0  0  0  0  0  0
   49.7351   10.5148   13.2634 C   0  0  2  0  0  0  0  0  0  0  0  0
   49.7735    9.8347   11.9405 N   0  0  0  0  0  0  0  0  0  0  0  0
   51.6327    9.3160   14.5079 C   0  0  0  0  0  0  0  0  0  0  0  0
   48.6738   10.4710   15.6342 C   0  0  0  0  0  0  0  0  0  0  0  0
   51.2059   10.5683   13.7889 C   0  0  0  0  0  0  0  0  0  0  0  0
   49.1423    7.6583   12.9932 C   0  0  0  0  0  0  0  0  0  0  0  0
   48.3659    9.7657   16.7344 C   0  0  0  0  0  0  0  0  0  0  0  0
   48.0446    8.2934   16.6888 C   0  0  2  0  0  0  0  0  0  0  0  0
   52.2023    7.0777   16.1735 C   0  0  0  0  0  0  0  0  0  0  0  0
   48.9218    8.6506   11.8407 C   0  0  0  0  0  0  0  0  0  0  0  0
   52.9203    9.1106   15.0036 C   0  0  0  0  0  0  0  0  0  0  0  0
   53.2072    7.9871   15.8103 C   0  0  0  0  0  0  0  0  0  0  0  0
   49.5264   10.7626   10.8399 C   0  0  0  0  0  0  0  0  0  0  0  0
   48.2936    7.6964   17.9567 O   0  0  0  0  0  0  0  0  0  0  0  0
   52.3554    5.9928   16.9865 O   0  0  0  0  0  0  0  0  0  0  0  0
   53.6571    5.7460   17.4956 C   0  0  0  0  0  0  0  0  0  0  0  0
   49.6999   11.0097   13.2844 H   0  0  0  0  0  0  0  0  0  0  0  0
   45.5767    8.3485   12.6296 H   0  0  0  0  0  0  0  0  0  0  0  0
   50.8977   10.1207   15.1576 H   0  0  0  0  0  0  0  0  0  0  0  0
   51.5344    9.5008   13.6384 H   0  0  0  0  0  0  0  0  0  0  0  0
   51.4600    9.0537   17.2846 H   0  0  0  0  0  0  0  0  0  0  0  0
   54.8281    6.3917   14.8043 H   0  0  0  0  0  0  0  0  0  0  0  0
   53.1028    7.6064   13.5952 H   0  0  0  0  0  0  0  0  0  0  0  0
   48.5242    5.5174   15.0059 H   0  0  0  0  0  0  0  0  0  0  0  0
   46.5758    6.4639   13.8080 H   0  0  0  0  0  0  0  0  0  0  0  0
   48.6412   14.0710   11.7185 H   0  0  0  0  0  0  0  0  0  0  0  0
   49.0314   13.2402   13.2277 H   0  0  0  0  0  0  0  0  0  0  0  0
   49.7212   12.6735   11.6566 H   0  0  0  0  0  0  0  0  0  0  0  0
   52.2490    9.4604   19.4206 H   0  0  0  0  0  0  0  0  0  0  0  0
   52.4690    8.2148   20.6536 H   0  0  0  0  0  0  0  0  0  0  0  0
   51.2925    7.9278   19.3673 H   0  0  0  0  0  0  0  0  0  0  0  0
   43.6450   10.7906   10.8022 H   0  0  0  0  0  0  0  0  0  0  0  0
   43.8401    9.8863   12.3079 H   0  0  0  0  0  0  0  0  0  0  0  0
   44.5173    9.2552   10.7557 H   0  0  0  0  0  0  0  0  0  0  0  0
   55.5319    4.7269   16.3313 H   0  0  0  0  0  0  0  0  0  0  0  0
   56.6746    5.0760   17.6327 H   0  0  0  0  0  0  0  0  0  0  0  0
   56.6727    6.1231   16.2104 H   0  0  0  0  0  0  0  0  0  0  0  0
   47.7780    9.1165   14.4838 H   0  0  0  0  0  0  0  0  0  0  0  0
   48.7950    6.1141   15.3930 H   0  0  0  0  0  0  0  0  0  0  0  0
   48.8696   11.2284   13.7948 H   0  0  0  0  0  0  0  0  0  0  0  0
   48.6063   10.8350   16.3883 H   0  0  0  0  0  0  0  0  0  0  0  0
   51.4432   11.1433   13.2933 H   0  0  0  0  0  0  0  0  0  0  0  0
   50.9088   11.4002   14.9523 H   0  0  0  0  0  0  0  0  0  0  0  0
   48.7868    6.5663   13.2089 H   0  0  0  0  0  0  0  0  0  0  0  0
   50.4315    7.0423   12.8189 H   0  0  0  0  0  0  0  0  0  0  0  0
   48.7126    9.3049   18.2553 H   0  0  0  0  0  0  0  0  0  0  0  0
   47.9079    7.0344   17.2188 H   0  0  0  0  0  0  0  0  0  0  0  0
   49.0912    8.0737   11.1952 H   0  0  0  0  0  0  0  0  0  0  0  0
   47.8115    8.4920   12.3227 H   0  0  0  0  0  0  0  0  0  0  0  0
   53.6592   10.4525   14.7283 H   0  0  0  0  0  0  0  0  0  0  0  0
   54.7986    8.5283   15.7689 H   0  0  0  0  0  0  0  0  0  0  0  0
   54.5509    6.4342   16.6071 H   0  0  0  0  0  0  0  0  0  0  0  0
   50.5162    6.6033   17.8326 H   0  0  0  0  0  0  0  0  0  0  0  0
   47.8655   10.8983   11.5804 H   0  0  0  0  0  0  0  0  0  0  0  0
   49.0665   10.3623   10.3853 H   0  0  0  0  0  0  0  0  0  0  0  0
   49.4562   11.6864   11.4721 H   0  0  0  0  0  0  0  0  0  0  0  0
   47.7490    9.8473   13.8700 H   0  0  0  0  0  0  0  0  0  0  0  0
   47.9253    6.7933   15.1568 H   0  0  0  0  0  0  0  0  0  0  0  0
   49.3906   11.5510   13.1374 H   0  0  0  0  0  0  0  0  0  0  0  0
   48.8359   11.5433   15.7051 H   0  0  0  0  0  0  0  0  0  0  0  0
   51.2847   11.4013   14.4995 H   0  0  0  0  0  0  0  0  0  0  0  0
   51.9030   10.7851   12.9697 H   0  0  0  0  0  0  0  0  0  0  0  0
   48.2928    6.9639   12.9805 H   0  0  0  0  0  0  0  0  0  0  0  0
   50.0345    7.0539   12.7818 H   0  0  0  0  0  0  0  0  0  0  0  0
   48.2811   10.2854   17.6843 H   0  0  0  0  0  0  0  0  0  0  0  0
   46.9570    8.2404   16.5451 H   0  0  0  0  0  0  0  0  0  0  0  0
   47.8627    8.9393   11.8085 H   0  0  0  0  0  0  0  0  0  0  0  0
   49.1251    8.1252   10.8991 H   0  0  0  0  0  0  0  0  0  0  0  0
   53.7095    9.8274   14.7893 H   0  0  0  0  0  0  0  0  0  0  0  0
   54.2255    7.8741   16.1679 H   0  0  0  0  0  0  0  0  0  0  0  0
   50.2425   11.5914   10.8654 H   0  0  0  0  0  0  0  0  0  0  0  0
   49.6602   10.2632    9.8739 H   0  0  0  0  0  0  0  0  0  0  0  0
   48.5133   11.1788   10.8762 H   0  0  0  0  0  0  0  0  0  0  0  0
   47.9946    8.3038   18.6499 H   0  0  0  0  0  0  0  0  0  0  0  0
   53.9960    6.5698   18.1321 H   0  0  0  0  0  0  0  0  0  0  0  0
   53.6097    4.8459   18.1161 H   0  0  0  0  0  0  0  0  0  0  0  0
   54.3688    5.5539   16.6860 H   0  0  0  0  0  0  0  0  0  0  0  0
  2  1  1  0
  3  1  2  0
  4  1  1  0
  5  3  1  0
  6  7  1  0
  7  4  2  0
  8  2  2  0
  9 12  2  0
 10  2  1  0
 11 14  2  0
 12 13  1  0
 13 10  1  0
 14 15  1  0
 15 13  2  0
 16 21  2  0
 17  5  1  0
 18  6  1  0
 19  9  1  0
 20 11  1  0
 21  4  1  0
 22 17  1  0
 23 19  1  0
 24 18  1  0
 25 20  1  0
 16  8  1  0
  6  5  2  0
 11  9  1  0
 27 26  1  0
 28 26  1  0
 29 27  2  0
 30 26  1  0
 30 31  1  0
 32 28  1  0
 33 27  1  0
 28 34  1  0
 32 35  1  0
 36 41  1  0
 26 37  1  1
 38 39  1  0
 39 30  1  0
 40 29  1  0
 41 37  1  0
 42 33  2  0
 43 42  1  0
 44 40  1  0
 39 45  1  0
 46 36  1  0
 29 31  1  0
 32 36  1  0
 38 34  2  0
 35 33  1  0
 43 40  2  0
 48 47  1  0
 49 47  1  0
 50 48  2  0
 51 47  1  0
 52 51  1  0
 53 49  1  0
 54 62  1  0
 55 48  1  0
 49 56  1  0
 53 57  1  0
 47 58  1  1
 59 60  1  0
 60 51  1  0
 61 50  1  0
 62 58  1  0
 63 55  2  0
 64 63  1  0
 65 54  1  0
 60 66  1  0
 67 61  1  0
 68 67  1  0
 52 50  1  0
 53 54  1  0
 59 56  2  0
 57 55  1  0
 64 61  2  0
  3 69  1  0
  7 70  1  0
 10 71  1  0
 10 72  1  0
 12 73  1  0
 14 74  1  0
 15 75  1  0
 16 76  1  0
 21 77  1  0
 22 78  1  0
 22 79  1  0
 22 80  1  0
 23 81  1  0
 23 82  1  0
 23 83  1  0
 24 84  1  0
 24 85  1  0
 24 86  1  0
 25 87  1  0
 25 88  1  0
 25 89  1  0
 28 90  1  1
 30 91  1  1
 32 92  1  6
 34 93  1  0
 35 94  1  0
 35 95  1  0
 37 96  1  0
 37 97  1  0
 38 98  1  0
 39 99  1  1
 41100  1  0
 41101  1  0
 42102  1  0
 43103  1  0
 44104  1  0
 45105  1  0
 46106  1  0
 46107  1  0
 46108  1  0
 49109  1  1
 51110  1  1
 53111  1  6
 56112  1  0
 57113  1  0
 57114  1  0
 58115  1  0
 58116  1  0
 59117  1  0
 60118  1  1
 62119  1  0
 62120  1  0
 63121  1  0
 64122  1  0
 65123  1  0
 65124  1  0
 65125  1  0
 66126  1  0
 68127  1  0
 68128  1  0
 68129  1  0
M  END
> <Uni-Dock RESULT> 
ENERGY=   -6.109  LOWER_BOUND=    6.823  UPPER_BOUND=   10.263
INTER + INTRA:          -6.109
INTER:                  -6.109
INTRA:                   0.000
UNBOUND:                 0.000

$$$$

     RDKit          3D

129139  0  0  0  0  0  0  0  0999 V2000
   46.9017   13.4527   11.4585 C   0  0  0  0  0  0  0  0  0  0  0  0
   47.5249   12.3601   12.1175 C   0  0  0  0  0  0  0  0  0  0  0  0
   45.7287   13.3608   10.6680 C   0  0  0  0  0  0  0  0  0  0  0  0
   47.5010   14.7220   11.6056 C   0  0  0  0  0  0  0  0  0  0  0  0
   45.1694   14.4831   10.0439 C   0  0  0  0  0  0  0  0  0  0  0  0
   45.7770   15.7392   10.2046 C   0  0  0  0  0  0  0  0  0  0  0  0
   46.9350   15.8472   10.9807 C   0  0  0  0  0  0  0  0  0  0  0  0
   48.6525   12.5017   12.8637 N   0  0  0  0  0  0  0  0  0  0  0  0
   49.4076    8.1376   12.7826 C   0  0  0  0  0  0  0  0  0  0  0  0
   46.9394   10.9594   12.0097 C   0  0  0  0  0  0  0  0  0  0  0  0
   49.0470    7.8055   14.1038 C   0  0  0  0  0  0  0  0  0  0  0  0
   48.7203    9.1586   12.1132 C   0  0  0  0  0  0  0  0  0  0  0  0
   47.6756    9.8555   12.7414 C   0  0  0  0  0  0  0  0  0  0  0  0
   48.0145    8.5084   14.7330 C   0  0  0  0  0  0  0  0  0  0  0  0
   47.3376    9.5279   14.0587 C   0  0  0  0  0  0  0  0  0  0  0  0
   49.1895   13.7288   12.9767 C   0  0  0  0  0  0  0  0  0  0  0  0
   44.0388   14.4569    9.2654 O   0  0  0  0  0  0  0  0  0  0  0  0
   45.1675   16.7904    9.5663 O   0  0  0  0  0  0  0  0  0  0  0  0
   50.4327    7.4051   12.2345 O   0  0  0  0  0  0  0  0  0  0  0  0
   49.7610    6.7878   14.6876 O   0  0  0  0  0  0  0  0  0  0  0  0
   48.6592   14.8522   12.3762 C   0  0  0  0  0  0  0  0  0  0  0  0
   43.4164   13.2014    9.0348 C   0  0  0  0  0  0  0  0  0  0  0  0
   50.9255    7.8151   10.9675 C   0  0  0  0  0  0  0  0  0  0  0  0
   45.7431   18.0803    9.7130 C   0  0  0  0  0  0  0  0  0  0  0  0
   49.4726    6.4766   16.0425 C   0  0  0  0  0  0  0  0  0  0  0  0
   48.0667   12.4778   12.2906 C   0  0  2  0  0  0  0  0  0  0  0  0
   47.6949   11.0518   12.5724 C   0  0  0  0  0  0  0  0  0  0  0  0
   47.6391   12.8185   10.8577 C   0  0  2  0  0  0  0  0  0  0  0  0
   48.6494   10.4487   13.3631 C   0  0  0  0  0  0  0  0  0  0  0  0
   49.5753   12.3354   12.5881 C   0  0  1  0  0  0  0  0  0  0  0  0
   49.7353   11.2594   13.5797 O   0  0  0  0  0  0  0  0  0  0  0  0
   46.0977   12.5285   10.7886 C   0  0  1  0  0  0  0  0  0  0  0  0
   46.6136   10.3582   12.0544 C   0  0  0  0  0  0  0  0  0  0  0  0
   48.4728   12.1097    9.8187 C   0  0  0  0  0  0  0  0  0  0  0  0
   45.7766   11.0116   10.9854 C   0  0  0  0  0  0  0  0  0  0  0  0
   45.3287   13.2673   11.8275 N   0  0  0  0  0  0  0  0  0  0  0  0
   47.3408   13.4025   13.2995 C   0  0  0  0  0  0  0  0  0  0  0  0
   49.7474   11.7618   10.0549 C   0  0  0  0  0  0  0  0  0  0  0  0
   50.4668   12.0532   11.3405 C   0  0  2  0  0  0  0  0  0  0  0  0
   48.4952    9.1448   13.7796 C   0  0  0  0  0  0  0  0  0  0  0  0
   46.1385   14.1346   12.6808 C   0  0  0  0  0  0  0  0  0  0  0  0
   46.4454    9.0333   12.4658 C   0  0  0  0  0  0  0  0  0  0  0  0
   47.3717    8.4349   13.3450 C   0  0  0  0  0  0  0  0  0  0  0  0
   49.4456    8.5659   14.5635 O   0  0  0  0  0  0  0  0  0  0  0  0
   51.3964   10.9941   11.5671 O   0  0  0  0  0  0  0  0  0  0  0  0
   44.1923   13.9870   11.2584 C   0  0  0  0  0  0  0  0  0  0  0  0
   47.7591   12.8499   11.9539 C   0  0  2  0  0  0  0  0  0  0  0  0
   47.7037   11.4122   12.3821 C   0  0  0  0  0  0  0  0  0  0  0  0
   46.9691   12.9853   10.6448 C   0  0  2  0  0  0  0  0  0  0  0  0
   48.9054   11.0207   12.9371 C   0  0  0  0  0  0  0  0  0  0  0  0
   49.2991   12.9688   11.8917 C   0  0  1  0  0  0  0  0  0  0  0  0
   49.8583   12.0039   12.8453 O   0  0  0  0  0  0  0  0  0  0  0  0
   45.5177   12.4798   10.9611 C   0  0  2  0  0  0  0  0  0  0  0  0
   44.8880   13.2137   12.0920 N   0  0  0  0  0  0  0  0  0  0  0  0
   46.6537   10.5321   12.1871 C   0  0  0  0  0  0  0  0  0  0  0  0
   47.6499   12.2889    9.4893 C   0  0  0  0  0  0  0  0  0  0  0  0
   45.4901   10.9622   11.3335 C   0  0  0  0  0  0  0  0  0  0  0  0
   47.1321   13.7344   13.0598 C   0  0  0  0  0  0  0  0  0  0  0  0
   48.9874   12.1910    9.4243 C   0  0  0  0  0  0  0  0  0  0  0  0
   49.8955   12.8073   10.4579 C   0  0  2  0  0  0  0  0  0  0  0  0
   49.0776    9.7507   13.4609 C   0  0  0  0  0  0  0  0  0  0  0  0
   45.7311   14.2470   12.6908 C   0  0  0  0  0  0  0  0  0  0  0  0
   46.8035    9.2417   12.6953 C   0  0  0  0  0  0  0  0  0  0  0  0
   47.9974    8.8624   13.3480 C   0  0  0  0  0  0  0  0  0  0  0  0
   43.5716   13.7388   11.7391 C   0  0  0  0  0  0  0  0  0  0  0  0
   51.1475   12.1303   10.4787 O   0  0  0  0  0  0  0  0  0  0  0  0
   50.2903    9.4747   14.0219 O   0  0  0  0  0  0  0  0  0  0  0  0
   50.4706    8.1749   14.5629 C   0  0  0  0  0  0  0  0  0  0  0  0
   45.2558   12.3926   10.5484 H   0  0  0  0  0  0  0  0  0  0  0  0
   47.4205   16.8090   11.1144 H   0  0  0  0  0  0  0  0  0  0  0  0
   46.8839   10.6830   10.9485 H   0  0  0  0  0  0  0  0  0  0  0  0
   45.9061   10.9831   12.3808 H   0  0  0  0  0  0  0  0  0  0  0  0
   48.9827    9.4376   11.0981 H   0  0  0  0  0  0  0  0  0  0  0  0
   47.7130    8.2910   15.7515 H   0  0  0  0  0  0  0  0  0  0  0  0
   46.5481   10.0711   14.5732 H   0  0  0  0  0  0  0  0  0  0  0  0
   50.0882   13.7868   13.5839 H   0  0  0  0  0  0  0  0  0  0  0  0
   49.1485   15.8110   12.5130 H   0  0  0  0  0  0  0  0  0  0  0  0
   42.5627   13.3676    8.3709 H   0  0  0  0  0  0  0  0  0  0  0  0
   44.0972   12.5075    8.5310 H   0  0  0  0  0  0  0  0  0  0  0  0
   43.0342   12.7748    9.9676 H   0  0  0  0  0  0  0  0  0  0  0  0
   50.1703    7.6738   10.1875 H   0  0  0  0  0  0  0  0  0  0  0  0
   51.7803    7.1788   10.7195 H   0  0  0  0  0  0  0  0  0  0  0  0
   51.2802    8.8509   10.9932 H   0  0  0  0  0  0  0  0  0  0  0  0
   45.1240   18.7888    9.1543 H   0  0  0  0  0  0  0  0  0  0  0  0
   46.7516   18.1134    9.2880 H   0  0  0  0  0  0  0  0  0  0  0  0
   45.7440   18.3966   10.7613 H   0  0  0  0  0  0  0  0  0  0  0  0
   49.6607    7.3350   16.6954 H   0  0  0  0  0  0  0  0  0  0  0  0
   50.1456    5.6713   16.3515 H   0  0  0  0  0  0  0  0  0  0  0  0
   48.4464    6.1111   16.1539 H   0  0  0  0  0  0  0  0  0  0  0  0
   47.7983   13.8888   10.6635 H   0  0  0  0  0  0  0  0  0  0  0  0
   49.9647   13.2441   13.0648 H   0  0  0  0  0  0  0  0  0  0  0  0
   45.7456   12.8175    9.7886 H   0  0  0  0  0  0  0  0  0  0  0  0
   48.0350   11.9149    8.8430 H   0  0  0  0  0  0  0  0  0  0  0  0
   44.7113   10.8661   11.2043 H   0  0  0  0  0  0  0  0  0  0  0  0
   45.9796   10.4917   10.0401 H   0  0  0  0  0  0  0  0  0  0  0  0
   48.0289   14.1750   13.6654 H   0  0  0  0  0  0  0  0  0  0  0  0
   47.0063   12.8452   14.1848 H   0  0  0  0  0  0  0  0  0  0  0  0
   50.3276   11.2823    9.2700 H   0  0  0  0  0  0  0  0  0  0  0  0
   51.0711   12.9498   11.1526 H   0  0  0  0  0  0  0  0  0  0  0  0
   45.5254   14.5293   13.5009 H   0  0  0  0  0  0  0  0  0  0  0  0
   46.4947   15.0071   12.1166 H   0  0  0  0  0  0  0  0  0  0  0  0
   45.6116    8.4462   12.0879 H   0  0  0  0  0  0  0  0  0  0  0  0
   47.2188    7.4010   13.6397 H   0  0  0  0  0  0  0  0  0  0  0  0
   49.1463    7.6755   14.8052 H   0  0  0  0  0  0  0  0  0  0  0  0
   51.0840   10.5217   12.3651 H   0  0  0  0  0  0  0  0  0  0  0  0
   44.5118   14.7857   10.5792 H   0  0  0  0  0  0  0  0  0  0  0  0
   43.5805   14.4324   12.0509 H   0  0  0  0  0  0  0  0  0  0  0  0
   43.5385   13.3025   10.7064 H   0  0  0  0  0  0  0  0  0  0  0  0
   46.9105   14.0422   10.3472 H   0  0  0  0  0  0  0  0  0  0  0  0
   49.6250   13.9522   12.2545 H   0  0  0  0  0  0  0  0  0  0  0  0
   44.9123   12.6088   10.0528 H   0  0  0  0  0  0  0  0  0  0  0  0
   47.0369   11.8841    8.6883 H   0  0  0  0  0  0  0  0  0  0  0  0
   45.5295   10.3814   10.4029 H   0  0  0  0  0  0  0  0  0  0  0  0
   44.5465   10.7013   11.8289 H   0  0  0  0  0  0  0  0  0  0  0  0
   47.7567   14.6187   13.2372 H   0  0  0  0  0  0  0  0  0  0  0  0
   47.0789   13.2002   14.0178 H   0  0  0  0  0  0  0  0  0  0  0  0
   49.4368   11.7063    8.5625 H   0  0  0  0  0  0  0  0  0  0  0  0
   50.1116   13.8178   10.0856 H   0  0  0  0  0  0  0  0  0  0  0  0
   45.8263   15.1068   12.0141 H   0  0  0  0  0  0  0  0  0  0  0  0
   45.2591   14.6276   13.6053 H   0  0  0  0  0  0  0  0  0  0  0  0
   46.0081    8.5103   12.5734 H   0  0  0  0  0  0  0  0  0  0  0  0
   48.0608    7.8472   13.7262 H   0  0  0  0  0  0  0  0  0  0  0  0
   42.9148   12.9335   11.3921 H   0  0  0  0  0  0  0  0  0  0  0  0
   43.0846   14.1847   12.6136 H   0  0  0  0  0  0  0  0  0  0  0  0
   43.6327   14.4994   10.9526 H   0  0  0  0  0  0  0  0  0  0  0  0
   51.4073   11.9302    9.5669 H   0  0  0  0  0  0  0  0  0  0  0  0
   50.3879    7.4078   13.7861 H   0  0  0  0  0  0  0  0  0  0  0  0
   51.4826    8.1206   14.9755 H   0  0  0  0  0  0  0  0  0  0  0  0
   49.7680    7.9858   15.3810 H   0  0  0  0  0  0  0  0  0  0  0  0
  2  1  1  0
  3  1  2  0
  4  1  1  0
  5  3  1  0
  6  7  1  0
  7  4  2  0
  8  2  2  0
  9 12  2  0
 10  2  1  0
 11 14  2  0
 12 13  1  0
 13 10  1  0
 14 15  1  0
 15 13  2  0
 16 21  2  0
 17  5  1  0
 18  6  1  0
 19  9  1  0
 20 11  1  0
 21  4  1  0
 22 17  1  0
 23 19  1  0
 24 18  1  0
 25 20  1  0
 16  8  1  0
  6  5  2  0
 11  9  1  0
 27 26  1  0
 28 26  1  0
 29 27  2  0
 30 26  1  0
 30 31  1  0
 32 28  1  0
 33 27  1  0
 28 34  1  0
 32 35  1  0
 36 41  1  0
 26 37  1  1
 38 39  1  0
 39 30  1  0
 40 29  1  0
 41 37  1  0
 42 33  2  0
 43 42  1  0
 44 40  1  0
 39 45  1  0
 46 36  1  0
 29 31  1  0
 32 36  1  0
 38 34  2  0
 35 33  1  0
 43 40  2  0
 48 47  1  0
 49 47  1  0
 50 48  2  0
 51 47  1  0
 52 51  1  0
 53 49  1  0
 54 62  1  0
 55 48  1  0
 49 56  1  0
 53 57  1  0
 47 58  1  1
 59 60  1  0
 60 51  1  0
 61 50  1  0
 62 58  1  0
 63 55  2  0
 64 63  1  0
 65 54  1  0
 60 66  1  0
 67 61  1  0
 68 67  1  0
 52 50  1  0
 53 54  1  0
 59 56  2  0
 57 55  1  0
 64 61  2  0
  3 69  1  0
  7 70  1  0
 10 71  1  0
 10 72  1  0
 12 73  1  0
 14 74  1  0
 15 75  1  0
 16 76  1  0
 21 77  1  0
 22 78  1  0
 22 79  1  0
 22 80  1  0
 23 81  1  0
 23 82  1  0
 23 83  1  0
 24 84  1  0
 24 85  1  0
 24 86  1  0
 25 87  1  0
 25 88  1  0
 25 89  1  0
 28 90  1  1
 30 91  1  1
 32 92  1  6
 34 93  1  0
 35 94  1  0
 35 95  1  0
 37 96  1  0
 37 97  1  0
 38 98  1  0
 39 99  1  1
 41100  1  0
 41101  1  0
 42102  1  0
 43103  1  0
 44104  1  0
 45105  1  0
 46106  1  0
 46107  1  0
 46108  1  0
 49109  1  1
 51110  1  1
 53111  1  6
 56112  1  0
 57113  1  0
 57114  1  0
 58115  1  0
 58116  1  0
 59117  1  0
 60118  1  1
 62119  1  0
 62120  1  0
 63121  1  0
 64122  1  0
 65123  1  0
 65124  1  0
 65125  1  0
 66126  1  0
 68127  1  0
 68128  1  0
 68129  1  0
M  END
> <Uni-Dock RESULT> 
ENERGY=   -6.049  LOWER_BOUND=    3.234  UPPER_BOUND=    5.836
INTER + INTRA:          -6.049
INTER:                  -6.049
INTRA:                   0.000
UNBOUND:                 0.000

$$$$

     RDKit          3D

129139  0  0  0  0  0  0  0  0999 V2000
   50.7325    9.0694   13.9660 C   0  0  0  0  0  0  0  0  0  0  0  0
   51.7983    8.8385   13.0565 C   0  0  0  0  0  0  0  0  0  0  0  0
   49.3686    8.7831   13.7064 C   0  0  0  0  0  0  0  0  0  0  0  0
   51.0632    9.6262   15.2199 C   0  0  0  0  0  0  0  0  0  0  0  0
   48.3677    9.0399   14.6519 C   0  0  0  0  0  0  0  0  0  0  0  0
   48.7157    9.5905   15.8963 C   0  0  0  0  0  0  0  0  0  0  0  0
   50.0564    9.8794   16.1682 C   0  0  0  0  0  0  0  0  0  0  0  0
   53.0917    9.1333   13.3542 N   0  0  0  0  0  0  0  0  0  0  0  0
   54.2639    8.8838    9.0898 C   0  0  0  0  0  0  0  0  0  0  0  0
   51.5247    8.2391   11.6846 C   0  0  0  0  0  0  0  0  0  0  0  0
   54.9531    7.6546    9.1003 C   0  0  0  0  0  0  0  0  0  0  0  0
   53.1562    9.0636    9.9285 C   0  0  0  0  0  0  0  0  0  0  0  0
   52.7228    8.0344   10.7798 C   0  0  0  0  0  0  0  0  0  0  0  0
   54.5282    6.6343    9.9572 C   0  0  0  0  0  0  0  0  0  0  0  0
   53.4249    6.8245   10.7932 C   0  0  0  0  0  0  0  0  0  0  0  0
   53.3612    9.6623   14.5602 C   0  0  0  0  0  0  0  0  0  0  0  0
   47.0321    8.7874   14.4582 O   0  0  0  0  0  0  0  0  0  0  0  0
   47.6802    9.8087   16.7705 O   0  0  0  0  0  0  0  0  0  0  0  0
   54.7432    9.8372    8.2242 O   0  0  0  0  0  0  0  0  0  0  0  0
   56.0214    7.5534    8.2430 O   0  0  0  0  0  0  0  0  0  0  0  0
   52.3969    9.9231   15.5120 C   0  0  0  0  0  0  0  0  0  0  0  0
   46.6260    8.2749   13.1975 C   0  0  0  0  0  0  0  0  0  0  0  0
   54.1734   11.1355    8.2998 C   0  0  0  0  0  0  0  0  0  0  0  0
   47.9905   10.3532   18.0448 C   0  0  0  0  0  0  0  0  0  0  0  0
   56.7821    6.3551    8.2806 C   0  0  0  0  0  0  0  0  0  0  0  0
   52.2862    9.1180   13.2021 C   0  0  2  0  0  0  0  0  0  0  0  0
   52.4343    8.3926   11.8971 C   0  0  0  0  0  0  0  0  0  0  0  0
   50.9540    9.8777   13.1885 C   0  0  2  0  0  0  0  0  0  0  0  0
   53.7505    8.3943   11.4876 C   0  0  0  0  0  0  0  0  0  0  0  0
   53.5934    9.9345   13.1064 C   0  0  1  0  0  0  0  0  0  0  0  0
   54.5497    9.1542   12.3043 O   0  0  0  0  0  0  0  0  0  0  0  0
   49.8460    8.7979   12.9220 C   0  0  1  0  0  0  0  0  0  0  0  0
   51.4155    7.8669   11.1197 C   0  0  0  0  0  0  0  0  0  0  0  0
   50.9592   11.0424   12.2291 C   0  0  0  0  0  0  0  0  0  0  0  0
   49.9871    8.1493   11.5070 C   0  0  0  0  0  0  0  0  0  0  0  0
   49.8824    7.6840   13.9092 N   0  0  0  0  0  0  0  0  0  0  0  0
   52.3041    8.0903   14.3612 C   0  0  0  0  0  0  0  0  0  0  0  0
   52.0891   11.6994   11.9241 C   0  0  0  0  0  0  0  0  0  0  0  0
   53.4317   11.3651   12.5079 C   0  0  2  0  0  0  0  0  0  0  0  0
   54.1269    7.7502   10.3296 C   0  0  0  0  0  0  0  0  0  0  0  0
   50.9063    7.8216   14.9430 C   0  0  0  0  0  0  0  0  0  0  0  0
   51.7818    7.2127    9.9403 C   0  0  0  0  0  0  0  0  0  0  0  0
   53.1370    7.1343    9.5577 C   0  0  0  0  0  0  0  0  0  0  0  0
   55.4317    7.7584    9.9420 O   0  0  0  0  0  0  0  0  0  0  0  0
   54.4191   11.6533   11.5184 O   0  0  0  0  0  0  0  0  0  0  0  0
   48.5677    7.4244   14.4898 C   0  0  0  0  0  0  0  0  0  0  0  0
   51.7787    9.2080   13.4861 C   0  0  2  0  0  0  0  0  0  0  0  0
   52.2549    8.5991   12.1993 C   0  0  0  0  0  0  0  0  0  0  0  0
   50.3024    9.5907   13.3116 C   0  0  2  0  0  0  0  0  0  0  0  0
   53.5555    8.9764   11.9319 C   0  0  0  0  0  0  0  0  0  0  0  0
   52.8234   10.3453   13.5547 C   0  0  1  0  0  0  0  0  0  0  0  0
   54.0231    9.8902   12.8427 O   0  0  0  0  0  0  0  0  0  0  0  0
   49.5542    8.2656   12.9290 C   0  0  2  0  0  0  0  0  0  0  0  0
   49.7539    7.1840   13.9312 N   0  0  0  0  0  0  0  0  0  0  0  0
   51.5070    7.8360   11.3200 C   0  0  0  0  0  0  0  0  0  0  0  0
   50.1169   10.7321   12.3386 C   0  0  0  0  0  0  0  0  0  0  0  0
   50.0252    7.6995   11.5506 C   0  0  0  0  0  0  0  0  0  0  0  0
   51.9395    8.1743   14.6280 C   0  0  0  0  0  0  0  0  0  0  0  0
   51.0484   11.6890   12.2004 C   0  0  0  0  0  0  0  0  0  0  0  0
   52.3046   11.7224   13.0333 C   0  0  2  0  0  0  0  0  0  0  0  0
   54.2338    8.4916   10.8266 C   0  0  0  0  0  0  0  0  0  0  0  0
   50.6030    7.5526   15.0627 C   0  0  0  0  0  0  0  0  0  0  0  0
   52.1618    7.3426   10.1914 C   0  0  0  0  0  0  0  0  0  0  0  0
   53.5211    7.6491    9.9600 C   0  0  0  0  0  0  0  0  0  0  0  0
   48.4870    6.6124   14.3803 C   0  0  0  0  0  0  0  0  0  0  0  0
   53.3238   12.4502   12.3568 O   0  0  0  0  0  0  0  0  0  0  0  0
   55.5282    8.8943   10.6723 O   0  0  0  0  0  0  0  0  0  0  0  0
   56.2286    8.3976    9.5420 C   0  0  0  0  0  0  0  0  0  0  0  0
   49.1000    8.3525   12.7485 H   0  0  0  0  0  0  0  0  0  0  0  0
   50.3447   10.3078   17.1233 H   0  0  0  0  0  0  0  0  0  0  0  0
   50.8086    8.8827   11.1568 H   0  0  0  0  0  0  0  0  0  0  0  0
   51.0308    7.2676   11.8199 H   0  0  0  0  0  0  0  0  0  0  0  0
   52.6124   10.0023    9.9439 H   0  0  0  0  0  0  0  0  0  0  0  0
   55.0366    5.6778   10.0032 H   0  0  0  0  0  0  0  0  0  0  0  0
   53.1217    6.0223   11.4622 H   0  0  0  0  0  0  0  0  0  0  0  0
   54.4092    9.8782   14.7474 H   0  0  0  0  0  0  0  0  0  0  0  0
   52.6905   10.3514   16.4648 H   0  0  0  0  0  0  0  0  0  0  0  0
   45.5368    8.1724   13.2127 H   0  0  0  0  0  0  0  0  0  0  0  0
   46.8820    8.9654   12.3873 H   0  0  0  0  0  0  0  0  0  0  0  0
   47.0512    7.2818   13.0214 H   0  0  0  0  0  0  0  0  0  0  0  0
   53.1244   11.1233    7.9865 H   0  0  0  0  0  0  0  0  0  0  0  0
   54.7188   11.7809    7.6047 H   0  0  0  0  0  0  0  0  0  0  0  0
   54.2829   11.5618    9.3027 H   0  0  0  0  0  0  0  0  0  0  0  0
   47.0559   10.4443   18.6066 H   0  0  0  0  0  0  0  0  0  0  0  0
   48.4211   11.3555   17.9517 H   0  0  0  0  0  0  0  0  0  0  0  0
   48.6523    9.6881   18.6091 H   0  0  0  0  0  0  0  0  0  0  0  0
   57.2251    6.1973    9.2692 H   0  0  0  0  0  0  0  0  0  0  0  0
   57.6012    6.4560    7.5624 H   0  0  0  0  0  0  0  0  0  0  0  0
   56.1783    5.4943    7.9748 H   0  0  0  0  0  0  0  0  0  0  0  0
   50.7686   10.3268   14.1747 H   0  0  0  0  0  0  0  0  0  0  0  0
   54.0537   10.0484   14.0963 H   0  0  0  0  0  0  0  0  0  0  0  0
   48.8697    9.3005   12.9634 H   0  0  0  0  0  0  0  0  0  0  0  0
   50.0139   11.3763   11.8093 H   0  0  0  0  0  0  0  0  0  0  0  0
   49.3936    7.2288   11.4416 H   0  0  0  0  0  0  0  0  0  0  0  0
   49.5734    8.8462   10.7666 H   0  0  0  0  0  0  0  0  0  0  0  0
   52.9250    8.4628   15.1857 H   0  0  0  0  0  0  0  0  0  0  0  0
   52.7517    7.1383   14.0457 H   0  0  0  0  0  0  0  0  0  0  0  0
   52.0487   12.5554   11.2545 H   0  0  0  0  0  0  0  0  0  0  0  0
   53.5974   12.0864   13.3182 H   0  0  0  0  0  0  0  0  0  0  0  0
   50.9604    6.9023   15.5397 H   0  0  0  0  0  0  0  0  0  0  0  0
   50.6425    8.6263   15.6425 H   0  0  0  0  0  0  0  0  0  0  0  0
   51.0190    6.7824    9.2955 H   0  0  0  0  0  0  0  0  0  0  0  0
   53.3893    6.6270    8.6314 H   0  0  0  0  0  0  0  0  0  0  0  0
   55.5205    7.2132    9.1448 H   0  0  0  0  0  0  0  0  0  0  0  0
   54.8101   10.7933   11.2632 H   0  0  0  0  0  0  0  0  0  0  0  0
   48.2111    8.2692   15.0903 H   0  0  0  0  0  0  0  0  0  0  0  0
   48.5960    6.5348   15.1289 H   0  0  0  0  0  0  0  0  0  0  0  0
   47.8314    7.2215   13.7042 H   0  0  0  0  0  0  0  0  0  0  0  0
   49.8926    9.9573   14.2638 H   0  0  0  0  0  0  0  0  0  0  0  0
   53.1490   10.5080   14.5902 H   0  0  0  0  0  0  0  0  0  0  0  0
   48.4834    8.4980   12.8431 H   0  0  0  0  0  0  0  0  0  0  0  0
   49.1971   10.7832   11.7618 H   0  0  0  0  0  0  0  0  0  0  0  0
   49.5136    8.2608   10.7580 H   0  0  0  0  0  0  0  0  0  0  0  0
   49.7246    6.6501   11.4389 H   0  0  0  0  0  0  0  0  0  0  0  0
   52.3695    8.6544   15.5159 H   0  0  0  0  0  0  0  0  0  0  0  0
   52.6349    7.3721   14.3471 H   0  0  0  0  0  0  0  0  0  0  0  0
   50.8628   12.5063   11.5095 H   0  0  0  0  0  0  0  0  0  0  0  0
   52.0486   12.3230   13.9165 H   0  0  0  0  0  0  0  0  0  0  0  0
   50.0775    8.2513   15.7275 H   0  0  0  0  0  0  0  0  0  0  0  0
   50.8246    6.6634   15.6661 H   0  0  0  0  0  0  0  0  0  0  0  0
   51.6228    6.7343    9.4689 H   0  0  0  0  0  0  0  0  0  0  0  0
   53.9824    7.2379    9.0680 H   0  0  0  0  0  0  0  0  0  0  0  0
   47.9065    6.2424   13.5279 H   0  0  0  0  0  0  0  0  0  0  0  0
   48.6604    5.7529   15.0374 H   0  0  0  0  0  0  0  0  0  0  0  0
   47.8781    7.3445   14.9226 H   0  0  0  0  0  0  0  0  0  0  0  0
   52.9235   13.2244   11.9333 H   0  0  0  0  0  0  0  0  0  0  0  0
   55.7628    8.7319    8.6093 H   0  0  0  0  0  0  0  0  0  0  0  0
   57.2435    8.8057    9.5703 H   0  0  0  0  0  0  0  0  0  0  0  0
   56.3086    7.3061    9.5744 H   0  0  0  0  0  0  0  0  0  0  0  0
  2  1  1  0
  3  1  2  0
  4  1  1  0
  5  3  1  0
  6  7  1  0
  7  4  2  0
  8  2  2  0
  9 12  2  0
 10  2  1  0
 11 14  2  0
 12 13  1  0
 13 10  1  0
 14 15  1  0
 15 13  2  0
 16 21  2  0
 17  5  1  0
 18  6  1  0
 19  9  1  0
 20 11  1  0
 21  4  1  0
 22 17  1  0
 23 19  1  0
 24 18  1  0
 25 20  1  0
 16  8  1  0
  6  5  2  0
 11  9  1  0
 27 26  1  0
 28 26  1  0
 29 27  2  0
 30 26  1  0
 30 31  1  0
 32 28  1  0
 33 27  1  0
 28 34  1  0
 32 35  1  0
 36 41  1  0
 26 37  1  1
 38 39  1  0
 39 30  1  0
 40 29  1  0
 41 37  1  0
 42 33  2  0
 43 42  1  0
 44 40  1  0
 39 45  1  0
 46 36  1  0
 29 31  1  0
 32 36  1  0
 38 34  2  0
 35 33  1  0
 43 40  2  0
 48 47  1  0
 49 47  1  0
 50 48  2  0
 51 47  1  0
 52 51  1  0
 53 49  1  0
 54 62  1  0
 55 48  1  0
 49 56  1  0
 53 57  1  0
 47 58  1  1
 59 60  1  0
 60 51  1  0
 61 50  1  0
 62 58  1  0
 63 55  2  0
 64 63  1  0
 65 54  1  0
 60 66  1  0
 67 61  1  0
 68 67  1  0
 52 50  1  0
 53 54  1  0
 59 56  2  0
 57 55  1  0
 64 61  2  0
  3 69  1  0
  7 70  1  0
 10 71  1  0
 10 72  1  0
 12 73  1  0
 14 74  1  0
 15 75  1  0
 16 76  1  0
 21 77  1  0
 22 78  1  0
 22 79  1  0
 22 80  1  0
 23 81  1  0
 23 82  1  0
 23 83  1  0
 24 84  1  0
 24 85  1  0
 24 86  1  0
 25 87  1  0
 25 88  1  0
 25 89  1  0
 28 90  1  1
 30 91  1  1
 32 92  1  6
 34 93  1  0
 35 94  1  0
 35 95  1  0
 37 96  1  0
 37 97  1  0
 38 98  1  0
 39 99  1  1
 41100  1  0
 41101  1  0
 42102  1  0
 43103  1  0
 44104  1  0
 45105  1  0
 46106  1  0
 46107  1  0
 46108  1  0
 49109  1  1
 51110  1  1
 53111  1  6
 56112  1  0
 57113  1  0
 57114  1  0
 58115  1  0
 58116  1  0
 59117  1  0
 60118  1  1
 62119  1  0
 62120  1  0
 63121  1  0
 64122  1  0
 65123  1  0
 65124  1  0
 65125  1  0
 66126  1  0
 68127  1  0
 68128  1  0
 68129  1  0
M  END
> <Uni-Dock RESULT> 
ENERGY=   -5.829  LOWER_BOUND=    6.717  UPPER_BOUND=   10.400
INTER + INTRA:          -5.829
INTER:                  -5.829
INTRA:                   0.000
UNBOUND:                 0.000

$$$$

     RDKit          3D

129139  0  0  0  0  0  0  0  0999 V2000
   50.2547   12.4945   10.6076 C   0  0  0  0  0  0  0  0  0  0  0  0
   49.7172   11.3832   11.3095 C   0  0  0  0  0  0  0  0  0  0  0  0
   51.5006   12.5012    9.9316 C   0  0  0  0  0  0  0  0  0  0  0  0
   49.4855   13.6776   10.5862 C   0  0  0  0  0  0  0  0  0  0  0  0
   51.9700   13.6373    9.2603 C   0  0  0  0  0  0  0  0  0  0  0  0
   51.1892   14.8048    9.2459 C   0  0  0  0  0  0  0  0  0  0  0  0
   49.9580   14.8152    9.9083 C   0  0  0  0  0  0  0  0  0  0  0  0
   48.5158   11.4295   11.9442 N   0  0  0  0  0  0  0  0  0  0  0  0
   49.4546    7.7723   14.2606 C   0  0  0  0  0  0  0  0  0  0  0  0
   50.4843   10.0705   11.3778 C   0  0  0  0  0  0  0  0  0  0  0  0
   48.6253    6.8464   13.5967 C   0  0  0  0  0  0  0  0  0  0  0  0
   50.0518    8.8113   13.5349 C   0  0  0  0  0  0  0  0  0  0  0  0
   49.8353    8.9423   12.1537 C   0  0  0  0  0  0  0  0  0  0  0  0
   48.4004    6.9846   12.2233 C   0  0  0  0  0  0  0  0  0  0  0  0
   48.9971    8.0267   11.5089 C   0  0  0  0  0  0  0  0  0  0  0  0
   47.8168   12.5768   11.8981 C   0  0  0  0  0  0  0  0  0  0  0  0
   53.1670   13.7058    8.5913 O   0  0  0  0  0  0  0  0  0  0  0  0
   51.7146   15.8737    8.5638 O   0  0  0  0  0  0  0  0  0  0  0  0
   49.6241    7.5721   15.6093 O   0  0  0  0  0  0  0  0  0  0  0  0
   48.0854    5.8519   14.3753 O   0  0  0  0  0  0  0  0  0  0  0  0
   48.2524   13.7100   11.2424 C   0  0  0  0  0  0  0  0  0  0  0  0
   54.0127   12.5651    8.6183 C   0  0  0  0  0  0  0  0  0  0  0  0
   50.3230    8.5716   16.3366 C   0  0  0  0  0  0  0  0  0  0  0  0
   50.9514   17.0702    8.5145 C   0  0  0  0  0  0  0  0  0  0  0  0
   47.1873    4.9454   13.7527 C   0  0  0  0  0  0  0  0  0  0  0  0
   49.2798   11.5275   11.6633 C   0  0  2  0  0  0  0  0  0  0  0  0
   49.6279   10.0728   11.7811 C   0  0  0  0  0  0  0  0  0  0  0  0
   50.5784   12.3429   11.6935 C   0  0  2  0  0  0  0  0  0  0  0  0
   48.6834    9.4072   12.5327 C   0  0  0  0  0  0  0  0  0  0  0  0
   48.3481   11.5923   12.8931 C   0  0  1  0  0  0  0  0  0  0  0  0
   47.7524   10.2584   13.0731 O   0  0  0  0  0  0  0  0  0  0  0  0
   51.4586   11.7934   10.5154 C   0  0  1  0  0  0  0  0  0  0  0  0
   50.7738    9.4530   11.3105 C   0  0  0  0  0  0  0  0  0  0  0  0
   51.2406   12.3307   13.0494 C   0  0  0  0  0  0  0  0  0  0  0  0
   51.8786   10.3050   10.7416 C   0  0  0  0  0  0  0  0  0  0  0  0
   50.7568   11.8457    9.2034 N   0  0  0  0  0  0  0  0  0  0  0  0
   48.5297   11.7655   10.3290 C   0  0  0  0  0  0  0  0  0  0  0  0
   50.5304   12.1913   14.1796 C   0  0  0  0  0  0  0  0  0  0  0  0
   49.0350   12.0566   14.2136 C   0  0  2  0  0  0  0  0  0  0  0  0
   48.7807    8.0490   12.7407 C   0  0  0  0  0  0  0  0  0  0  0  0
   49.4140   12.4204    9.2550 C   0  0  0  0  0  0  0  0  0  0  0  0
   50.8879    8.0755   11.5163 C   0  0  0  0  0  0  0  0  0  0  0  0
   49.8822    7.3707   12.2099 C   0  0  0  0  0  0  0  0  0  0  0  0
   47.8370    7.4067   13.4821 O   0  0  0  0  0  0  0  0  0  0  0  0
   48.6997   11.2215   15.3215 O   0  0  0  0  0  0  0  0  0  0  0  0
   51.5718   12.4825    8.1721 C   0  0  0  0  0  0  0  0  0  0  0  0
   49.6019   11.9333   11.3841 C   0  0  2  0  0  0  0  0  0  0  0  0
   49.6798   10.4728   11.7223 C   0  0  0  0  0  0  0  0  0  0  0  0
   51.0299   12.4396   11.1378 C   0  0  2  0  0  0  0  0  0  0  0  0
   48.7522   10.1451   12.6906 C   0  0  0  0  0  0  0  0  0  0  0  0
   48.8798   12.3871   12.6733 C   0  0  1  0  0  0  0  0  0  0  0  0
   48.0923   11.2508   13.1652 O   0  0  0  0  0  0  0  0  0  0  0  0
   51.6079   11.5561    9.9770 C   0  0  2  0  0  0  0  0  0  0  0  0
   50.7642   11.5945    8.7519 N   0  0  0  0  0  0  0  0  0  0  0  0
   50.5952    9.5588   11.2308 C   0  0  0  0  0  0  0  0  0  0  0  0
   51.8588   12.4555   12.4012 C   0  0  0  0  0  0  0  0  0  0  0  0
   51.7413   10.0546   10.3892 C   0  0  0  0  0  0  0  0  0  0  0  0
   48.7351   12.1156   10.1137 C   0  0  0  0  0  0  0  0  0  0  0  0
   51.2977   12.6767   13.6008 C   0  0  0  0  0  0  0  0  0  0  0  0
   49.8289   12.9745   13.7650 C   0  0  2  0  0  0  0  0  0  0  0  0
   48.5939    8.8399   13.1246 C   0  0  0  0  0  0  0  0  0  0  0  0
   49.5697   12.4300    8.8621 C   0  0  0  0  0  0  0  0  0  0  0  0
   50.4664    8.2375   11.6591 C   0  0  0  0  0  0  0  0  0  0  0  0
   49.4581    7.8777   12.5806 C   0  0  0  0  0  0  0  0  0  0  0  0
   51.5413   11.9308    7.5617 C   0  0  0  0  0  0  0  0  0  0  0  0
   49.4015   12.6308   15.0785 O   0  0  0  0  0  0  0  0  0  0  0  0
   47.6235    8.6138   14.0566 O   0  0  0  0  0  0  0  0  0  0  0  0
   47.4555    7.2768   14.5025 C   0  0  0  0  0  0  0  0  0  0  0  0
   52.1010   11.5985    9.9372 H   0  0  0  0  0  0  0  0  0  0  0  0
   49.3416   15.7090    9.9107 H   0  0  0  0  0  0  0  0  0  0  0  0
   51.4701   10.2627   11.8217 H   0  0  0  0  0  0  0  0  0  0  0  0
   50.6662    9.7183   10.3536 H   0  0  0  0  0  0  0  0  0  0  0  0
   50.6894    9.5407   14.0235 H   0  0  0  0  0  0  0  0  0  0  0  0
   47.7613    6.3000   11.6770 H   0  0  0  0  0  0  0  0  0  0  0  0
   48.7957    8.1233   10.4443 H   0  0  0  0  0  0  0  0  0  0  0  0
   46.8644   12.5600   12.4201 H   0  0  0  0  0  0  0  0  0  0  0  0
   47.6324   14.6005   11.2480 H   0  0  0  0  0  0  0  0  0  0  0  0
   54.9270   12.8130    8.0709 H   0  0  0  0  0  0  0  0  0  0  0  0
   54.2999   12.3083    9.6431 H   0  0  0  0  0  0  0  0  0  0  0  0
   53.5427   11.7153    8.1133 H   0  0  0  0  0  0  0  0  0  0  0  0
   51.3734    8.6178   16.0312 H   0  0  0  0  0  0  0  0  0  0  0  0
   50.2980    8.2940   17.3946 H   0  0  0  0  0  0  0  0  0  0  0  0
   49.8382    9.5488   16.2391 H   0  0  0  0  0  0  0  0  0  0  0  0
   51.5123   17.8011    7.9243 H   0  0  0  0  0  0  0  0  0  0  0  0
   50.8101   17.4900    9.5158 H   0  0  0  0  0  0  0  0  0  0  0  0
   49.9914   16.9071    8.0138 H   0  0  0  0  0  0  0  0  0  0  0  0
   46.3121    5.4666   13.3514 H   0  0  0  0  0  0  0  0  0  0  0  0
   46.8352    4.2457   14.5164 H   0  0  0  0  0  0  0  0  0  0  0  0
   47.6914    4.3610   12.9759 H   0  0  0  0  0  0  0  0  0  0  0  0
   50.3603   13.4024   11.4968 H   0  0  0  0  0  0  0  0  0  0  0  0
   47.5082   12.2744   12.7087 H   0  0  0  0  0  0  0  0  0  0  0  0
   52.3761   12.3965   10.4714 H   0  0  0  0  0  0  0  0  0  0  0  0
   52.3159   12.4788   13.1058 H   0  0  0  0  0  0  0  0  0  0  0  0
   52.2500    9.8612    9.8094 H   0  0  0  0  0  0  0  0  0  0  0  0
   52.7127   10.2878   11.4549 H   0  0  0  0  0  0  0  0  0  0  0  0
   47.6767   12.4367   10.4905 H   0  0  0  0  0  0  0  0  0  0  0  0
   48.1133   10.8303    9.9312 H   0  0  0  0  0  0  0  0  0  0  0  0
   51.0387   12.2210   15.1406 H   0  0  0  0  0  0  0  0  0  0  0  0
   48.6470   13.0534   14.4590 H   0  0  0  0  0  0  0  0  0  0  0  0
   48.9163   12.2941    8.2852 H   0  0  0  0  0  0  0  0  0  0  0  0
   49.4643   13.5027    9.4355 H   0  0  0  0  0  0  0  0  0  0  0  0
   51.7684    7.5423   11.1652 H   0  0  0  0  0  0  0  0  0  0  0  0
   50.0036    6.3024   12.3616 H   0  0  0  0  0  0  0  0  0  0  0  0
   48.0320    6.4566   13.4745 H   0  0  0  0  0  0  0  0  0  0  0  0
   48.3211   10.4027   14.9423 H   0  0  0  0  0  0  0  0  0  0  0  0
   51.7561   13.5406    8.3911 H   0  0  0  0  0  0  0  0  0  0  0  0
   51.0820   12.4130    7.1944 H   0  0  0  0  0  0  0  0  0  0  0  0
   52.5378   11.9747    8.0746 H   0  0  0  0  0  0  0  0  0  0  0  0
   51.0061   13.4852   10.7983 H   0  0  0  0  0  0  0  0  0  0  0  0
   48.1438   13.1697   12.4481 H   0  0  0  0  0  0  0  0  0  0  0  0
   52.6163   11.9264    9.7441 H   0  0  0  0  0  0  0  0  0  0  0  0
   52.9328   12.3079   12.3239 H   0  0  0  0  0  0  0  0  0  0  0  0
   52.6591    9.9431   10.9810 H   0  0  0  0  0  0  0  0  0  0  0  0
   51.8574    9.4178    9.5033 H   0  0  0  0  0  0  0  0  0  0  0  0
   48.0374   12.9517   10.2478 H   0  0  0  0  0  0  0  0  0  0  0  0
   48.1166   11.2291    9.9203 H   0  0  0  0  0  0  0  0  0  0  0  0
   51.9341   12.7068   14.4803 H   0  0  0  0  0  0  0  0  0  0  0  0
   49.7483   14.0682   13.7041 H   0  0  0  0  0  0  0  0  0  0  0  0
   49.8424   13.4938    8.8662 H   0  0  0  0  0  0  0  0  0  0  0  0
   48.9298   12.2810    7.9834 H   0  0  0  0  0  0  0  0  0  0  0  0
   51.1568    7.4771   11.3017 H   0  0  0  0  0  0  0  0  0  0  0  0
   49.4008    6.8359   12.8789 H   0  0  0  0  0  0  0  0  0  0  0  0
   52.3728   11.2293    7.4324 H   0  0  0  0  0  0  0  0  0  0  0  0
   50.9234   11.8532    6.6602 H   0  0  0  0  0  0  0  0  0  0  0  0
   51.9497   12.9463    7.6142 H   0  0  0  0  0  0  0  0  0  0  0  0
   50.0900   12.8934   15.7077 H   0  0  0  0  0  0  0  0  0  0  0  0
   48.3570    6.9105   15.0042 H   0  0  0  0  0  0  0  0  0  0  0  0
   46.6419    7.2669   15.2342 H   0  0  0  0  0  0  0  0  0  0  0  0
   47.1675    6.6177   13.6770 H   0  0  0  0  0  0  0  0  0  0  0  0
  2  1  1  0
  3  1  2  0
  4  1  1  0
  5  3  1  0
  6  7  1  0
  7  4  2  0
  8  2  2  0
  9 12  2  0
 10  2  1  0
 11 14  2  0
 12 13  1  0
 13 10  1  0
 14 15  1  0
 15 13  2  0
 16 21  2  0
 17  5  1  0
 18  6  1  0
 19  9  1  0
 20 11  1  0
 21  4  1  0
 22 17  1  0
 23 19  1  0
 24 18  1  0
 25 20  1  0
 16  8  1  0
  6  5  2  0
 11  9  1  0
 27 26  1  0
 28 26  1  0
 29 27  2  0
 30 26  1  0
 30 31  1  0
 32 28  1  0
 33 27  1  0
 28 34  1  0
 32 35  1  0
 36 41  1  0
 26 37  1  1
 38 39  1  0
 39 30  1  0
 40 29  1  0
 41 37  1  0
 42 33  2  0
 43 42  1  0
 44 40  1  0
 39 45  1  0
 46 36  1  0
 29 31  1  0
 32 36  1  0
 38 34  2  0
 35 33  1  0
 43 40  2  0
 48 47  1  0
 49 47  1  0
 50 48  2  0
 51 47  1  0
 52 51  1  0
 53 49  1  0
 54 62  1  0
 55 48  1  0
 49 56  1  0
 53 57  1  0
 47 58  1  1
 59 60  1  0
 60 51  1  0
 61 50  1  0
 62 58  1  0
 63 55  2  0
 64 63  1  0
 65 54  1  0
 60 66  1  0
 67 61  1  0
 68 67  1  0
 52 50  1  0
 53 54  1  0
 59 56  2  0
 57 55  1  0
 64 61  2  0
  3 69  1  0
  7 70  1  0
 10 71  1  0
 10 72  1  0
 12 73  1  0
 14 74  1  0
 15 75  1  0
 16 76  1  0
 21 77  1  0
 22 78  1  0
 22 79  1  0
 22 80  1  0
 23 81  1  0
 23 82  1  0
 23 83  1  0
 24 84  1  0
 24 85  1  0
 24 86  1  0
 25 87  1  0
 25 88  1  0
 25 89  1  0
 28 90  1  1
 30 91  1  1
 32 92  1  6
 34 93  1  0
 35 94  1  0
 35 95  1  0
 37 96  1  0
 37 97  1  0
 38 98  1  0
 39 99  1  1
 41100  1  0
 41101  1  0
 42102  1  0
 43103  1  0
 44104  1  0
 45105  1  0
 46106  1  0
 46107  1  0
 46108  1  0
 49109  1  1
 51110  1  1
 53111  1  6
 56112  1  0
 57113  1  0
 57114  1  0
 58115  1  0
 58116  1  0
 59117  1  0
 60118  1  1
 62119  1  0
 62120  1  0
 63121  1  0
 64122  1  0
 65123  1  0
 65124  1  0
 65125  1  0
 66126  1  0
 68127  1  0
 68128  1  0
 68129  1  0
M  END
> <Uni-Dock RESULT> 
ENERGY=   -5.790  LOWER_BOUND=    4.408  UPPER_BOUND=    6.104
INTER + INTRA:          -5.790
INTER:                  -5.790
INTRA:                   0.000
UNBOUND:                 0.000

$$$$

     RDKit          3D

129139  0  0  0  0  0  0  0  0999 V2000
   50.0991   11.2156   17.4247 C   0  0  0  0  0  0  0  0  0  0  0  0
   49.7964   10.1264   18.2840 C   0  0  0  0  0  0  0  0  0  0  0  0
   49.1853   12.2337   17.0532 C   0  0  0  0  0  0  0  0  0  0  0  0
   51.4095   11.2828   16.9049 C   0  0  0  0  0  0  0  0  0  0  0  0
   49.5535   13.2794   16.1972 C   0  0  0  0  0  0  0  0  0  0  0  0
   50.8632   13.3325   15.6927 C   0  0  0  0  0  0  0  0  0  0  0  0
   51.7768   12.3359   16.0487 C   0  0  0  0  0  0  0  0  0  0  0  0
   50.7103    9.1735   18.6079 N   0  0  0  0  0  0  0  0  0  0  0  0
   47.5394    6.4482   20.0709 C   0  0  0  0  0  0  0  0  0  0  0  0
   48.4062    9.9836   18.8869 C   0  0  0  0  0  0  0  0  0  0  0  0
   47.7464    6.5606   21.4603 C   0  0  0  0  0  0  0  0  0  0  0  0
   47.7549    7.5604   19.2466 C   0  0  0  0  0  0  0  0  0  0  0  0
   48.1742    8.7868   19.7869 C   0  0  0  0  0  0  0  0  0  0  0  0
   48.1757    7.7791   21.9961 C   0  0  0  0  0  0  0  0  0  0  0  0
   48.3920    8.8815   21.1654 C   0  0  0  0  0  0  0  0  0  0  0  0
   51.9465    9.2768   18.0901 C   0  0  0  0  0  0  0  0  0  0  0  0
   48.7142   14.2908   15.7999 O   0  0  0  0  0  0  0  0  0  0  0  0
   51.1484   14.3894   14.8646 O   0  0  0  0  0  0  0  0  0  0  0  0
   47.1215    5.2193   19.6204 O   0  0  0  0  0  0  0  0  0  0  0  0
   47.5044    5.4295   22.2009 O   0  0  0  0  0  0  0  0  0  0  0  0
   52.3382   10.2967   17.2474 C   0  0  0  0  0  0  0  0  0  0  0  0
   47.3665   14.2535   16.2461 C   0  0  0  0  0  0  0  0  0  0  0  0
   47.0544    5.0254   18.2154 C   0  0  0  0  0  0  0  0  0  0  0  0
   52.4654   14.4873   14.3423 C   0  0  0  0  0  0  0  0  0  0  0  0
   47.7728    5.4870   23.5940 C   0  0  0  0  0  0  0  0  0  0  0  0
   50.1884    9.6988   18.2560 C   0  0  2  0  0  0  0  0  0  0  0  0
   49.0459    9.3416   19.1605 C   0  0  0  0  0  0  0  0  0  0  0  0
   49.6179   10.2884   16.9603 C   0  0  2  0  0  0  0  0  0  0  0  0
   49.3239    8.1873   19.8608 C   0  0  0  0  0  0  0  0  0  0  0  0
   50.8238    8.2924   18.2005 C   0  0  1  0  0  0  0  0  0  0  0  0
   50.5018    7.6067   19.4625 O   0  0  0  0  0  0  0  0  0  0  0  0
   48.7348   11.5109   17.3966 C   0  0  1  0  0  0  0  0  0  0  0  0
   47.8219    9.9845   19.2447 C   0  0  0  0  0  0  0  0  0  0  0  0
   48.9131    9.2571   16.1137 C   0  0  0  0  0  0  0  0  0  0  0  0
   47.5015   11.0692   18.2492 C   0  0  0  0  0  0  0  0  0  0  0  0
   49.4893   12.4995   18.2152 N   0  0  0  0  0  0  0  0  0  0  0  0
   51.0929   10.7384   18.9639 C   0  0  0  0  0  0  0  0  0  0  0  0
   49.2636    7.9619   16.1432 C   0  0  0  0  0  0  0  0  0  0  0  0
   50.3815    7.4195   16.9867 C   0  0  2  0  0  0  0  0  0  0  0  0
   48.4280    7.6914   20.7821 C   0  0  0  0  0  0  0  0  0  0  0  0
   50.8964   12.1656   18.4265 C   0  0  0  0  0  0  0  0  0  0  0  0
   46.9014    9.4911   20.1733 C   0  0  0  0  0  0  0  0  0  0  0  0
   47.2129    8.3607   20.9570 C   0  0  0  0  0  0  0  0  0  0  0  0
   48.7202    6.5525   21.4678 O   0  0  0  0  0  0  0  0  0  0  0  0
   50.0280    6.0920   17.3741 O   0  0  0  0  0  0  0  0  0  0  0  0
   49.3327   13.8609   17.7102 C   0  0  0  0  0  0  0  0  0  0  0  0
   50.2008   10.1577   17.8878 C   0  0  2  0  0  0  0  0  0  0  0  0
   49.2448    9.5112   18.8477 C   0  0  0  0  0  0  0  0  0  0  0  0
   49.3797   10.9650   16.8726 C   0  0  2  0  0  0  0  0  0  0  0  0
   49.6798    8.2479   19.1945 C   0  0  0  0  0  0  0  0  0  0  0  0
   50.8876    8.8605   17.4031 C   0  0  1  0  0  0  0  0  0  0  0  0
   50.7966    7.8772   18.4885 O   0  0  0  0  0  0  0  0  0  0  0  0
   48.5423   11.9922   17.7126 C   0  0  2  0  0  0  0  0  0  0  0  0
   49.3920   12.8524   18.5799 N   0  0  0  0  0  0  0  0  0  0  0  0
   48.0367   10.0266   19.2835 C   0  0  0  0  0  0  0  0  0  0  0  0
   48.5688   10.0783   15.9561 C   0  0  0  0  0  0  0  0  0  0  0  0
   47.5088   11.2854   18.6478 C   0  0  0  0  0  0  0  0  0  0  0  0
   51.1585   11.0878   18.6727 C   0  0  0  0  0  0  0  0  0  0  0  0
   49.0016    8.8569   15.6049 C   0  0  0  0  0  0  0  0  0  0  0  0
   50.3345    8.3111   16.0503 C   0  0  2  0  0  0  0  0  0  0  0  0
   48.9924    7.4768   20.1163 C   0  0  0  0  0  0  0  0  0  0  0  0
   50.8251   12.5770   18.4922 C   0  0  0  0  0  0  0  0  0  0  0  0
   47.3169    9.2661   20.2051 C   0  0  0  0  0  0  0  0  0  0  0  0
   47.8037    8.0118   20.6354 C   0  0  0  0  0  0  0  0  0  0  0  0
   49.1100   14.2726   18.3876 C   0  0  0  0  0  0  0  0  0  0  0  0
   50.3164    6.8880   16.0248 O   0  0  0  0  0  0  0  0  0  0  0  0
   49.5255    6.2582   20.4201 O   0  0  0  0  0  0  0  0  0  0  0  0
   48.8259    5.4651   21.3668 C   0  0  0  0  0  0  0  0  0  0  0  0
   48.1760   12.1967   17.4470 H   0  0  0  0  0  0  0  0  0  0  0  0
   52.7929   12.3583   15.6667 H   0  0  0  0  0  0  0  0  0  0  0  0
   47.6726    9.9404   18.0711 H   0  0  0  0  0  0  0  0  0  0  0  0
   48.1801   10.8910   19.4626 H   0  0  0  0  0  0  0  0  0  0  0  0
   47.6087    7.4982   18.1733 H   0  0  0  0  0  0  0  0  0  0  0  0
   48.3563    7.9047   23.0578 H   0  0  0  0  0  0  0  0  0  0  0  0
   48.7403    9.8148   21.6024 H   0  0  0  0  0  0  0  0  0  0  0  0
   52.6375    8.4908   18.3811 H   0  0  0  0  0  0  0  0  0  0  0  0
   53.3548   10.3142   16.8685 H   0  0  0  0  0  0  0  0  0  0  0  0
   46.8440   15.1078   15.8054 H   0  0  0  0  0  0  0  0  0  0  0  0
   46.8606   13.3444   15.9050 H   0  0  0  0  0  0  0  0  0  0  0  0
   47.3098   14.3544   17.3345 H   0  0  0  0  0  0  0  0  0  0  0  0
   46.2754    5.6518   17.7689 H   0  0  0  0  0  0  0  0  0  0  0  0
   46.7830    3.9810   18.0347 H   0  0  0  0  0  0  0  0  0  0  0  0
   48.0257    5.2019   17.7412 H   0  0  0  0  0  0  0  0  0  0  0  0
   52.5137   15.3876   13.7223 H   0  0  0  0  0  0  0  0  0  0  0  0
   52.7011   13.6305   13.7026 H   0  0  0  0  0  0  0  0  0  0  0  0
   53.2023   14.5978   15.1445 H   0  0  0  0  0  0  0  0  0  0  0  0
   48.8287    5.7035   23.7859 H   0  0  0  0  0  0  0  0  0  0  0  0
   47.5538    4.5025   24.0178 H   0  0  0  0  0  0  0  0  0  0  0  0
   47.1222    6.2136   24.0918 H   0  0  0  0  0  0  0  0  0  0  0  0
   50.4351   10.6614   16.3265 H   0  0  0  0  0  0  0  0  0  0  0  0
   51.9187    8.3618   18.1668 H   0  0  0  0  0  0  0  0  0  0  0  0
   48.3553   11.9939   16.4855 H   0  0  0  0  0  0  0  0  0  0  0  0
   48.1292    9.5859   15.4364 H   0  0  0  0  0  0  0  0  0  0  0  0
   47.0584   11.9304   18.7650 H   0  0  0  0  0  0  0  0  0  0  0  0
   46.7344   10.6791   17.5678 H   0  0  0  0  0  0  0  0  0  0  0  0
   52.1495   10.4845   18.8117 H   0  0  0  0  0  0  0  0  0  0  0  0
   50.9303   10.7372   20.0501 H   0  0  0  0  0  0  0  0  0  0  0  0
   48.7553    7.2529   15.4939 H   0  0  0  0  0  0  0  0  0  0  0  0
   51.2446    7.3182   16.3164 H   0  0  0  0  0  0  0  0  0  0  0  0
   51.3411   12.8621   19.1485 H   0  0  0  0  0  0  0  0  0  0  0  0
   51.4653   12.2850   17.4946 H   0  0  0  0  0  0  0  0  0  0  0  0
   45.9264    9.9615   20.2780 H   0  0  0  0  0  0  0  0  0  0  0  0
   46.4735    7.9958   21.6637 H   0  0  0  0  0  0  0  0  0  0  0  0
   48.0103    6.3862   22.1074 H   0  0  0  0  0  0  0  0  0  0  0  0
   49.9006    6.1147   18.3441 H   0  0  0  0  0  0  0  0  0  0  0  0
   49.7752   13.9820   16.7148 H   0  0  0  0  0  0  0  0  0  0  0  0
   49.8050   14.5813   18.3874 H   0  0  0  0  0  0  0  0  0  0  0  0
   48.2728   14.1330   17.6545 H   0  0  0  0  0  0  0  0  0  0  0  0
   50.0504   11.5271   16.2068 H   0  0  0  0  0  0  0  0  0  0  0  0
   51.9626    9.0253   17.2550 H   0  0  0  0  0  0  0  0  0  0  0  0
   47.9772   12.6193   17.0086 H   0  0  0  0  0  0  0  0  0  0  0  0
   47.6298   10.4558   15.5597 H   0  0  0  0  0  0  0  0  0  0  0  0
   46.6344   11.0100   18.0441 H   0  0  0  0  0  0  0  0  0  0  0  0
   47.1525   11.9749   19.4235 H   0  0  0  0  0  0  0  0  0  0  0  0
   52.1901   10.9495   18.3255 H   0  0  0  0  0  0  0  0  0  0  0  0
   51.1617   10.8471   19.7442 H   0  0  0  0  0  0  0  0  0  0  0  0
   48.4005    8.2633   14.9222 H   0  0  0  0  0  0  0  0  0  0  0  0
   51.0447    8.6122   15.2685 H   0  0  0  0  0  0  0  0  0  0  0  0
   51.2262   12.9243   17.5306 H   0  0  0  0  0  0  0  0  0  0  0  0
   51.3595   13.1392   19.2682 H   0  0  0  0  0  0  0  0  0  0  0  0
   46.3627    9.6250   20.5836 H   0  0  0  0  0  0  0  0  0  0  0  0
   47.2054    7.4624   21.3549 H   0  0  0  0  0  0  0  0  0  0  0  0
   48.0489   14.4827   18.5616 H   0  0  0  0  0  0  0  0  0  0  0  0
   49.6712   14.8803   19.1061 H   0  0  0  0  0  0  0  0  0  0  0  0
   49.3682   14.6070   17.3765 H   0  0  0  0  0  0  0  0  0  0  0  0
   49.8398    6.5978   15.2326 H   0  0  0  0  0  0  0  0  0  0  0  0
   47.8269    5.2036   21.0030 H   0  0  0  0  0  0  0  0  0  0  0  0
   49.3837    4.5335   21.5017 H   0  0  0  0  0  0  0  0  0  0  0  0
   48.7736    5.9646   22.3398 H   0  0  0  0  0  0  0  0  0  0  0  0
  2  1  1  0
  3  1  2  0
  4  1  1  0
  5  3  1  0
  6  7  1  0
  7  4  2  0
  8  2  2  0
  9 12  2  0
 10  2  1  0
 11 14  2  0
 12 13  1  0
 13 10  1  0
 14 15  1  0
 15 13  2  0
 16 21  2  0
 17  5  1  0
 18  6  1  0
 19  9  1  0
 20 11  1  0
 21  4  1  0
 22 17  1  0
 23 19  1  0
 24 18  1  0
 25 20  1  0
 16  8  1  0
  6  5  2  0
 11  9  1  0
 27 26  1  0
 28 26  1  0
 29 27  2  0
 30 26  1  0
 30 31  1  0
 32 28  1  0
 33 27  1  0
 28 34  1  0
 32 35  1  0
 36 41  1  0
 26 37  1  1
 38 39  1  0
 39 30  1  0
 40 29  1  0
 41 37  1  0
 42 33  2  0
 43 42  1  0
 44 40  1  0
 39 45  1  0
 46 36  1  0
 29 31  1  0
 32 36  1  0
 38 34  2  0
 35 33  1  0
 43 40  2  0
 48 47  1  0
 49 47  1  0
 50 48  2  0
 51 47  1  0
 52 51  1  0
 53 49  1  0
 54 62  1  0
 55 48  1  0
 49 56  1  0
 53 57  1  0
 47 58  1  1
 59 60  1  0
 60 51  1  0
 61 50  1  0
 62 58  1  0
 63 55  2  0
 64 63  1  0
 65 54  1  0
 60 66  1  0
 67 61  1  0
 68 67  1  0
 52 50  1  0
 53 54  1  0
 59 56  2  0
 57 55  1  0
 64 61  2  0
  3 69  1  0
  7 70  1  0
 10 71  1  0
 10 72  1  0
 12 73  1  0
 14 74  1  0
 15 75  1  0
 16 76  1  0
 21 77  1  0
 22 78  1  0
 22 79  1  0
 22 80  1  0
 23 81  1  0
 23 82  1  0
 23 83  1  0
 24 84  1  0
 24 85  1  0
 24 86  1  0
 25 87  1  0
 25 88  1  0
 25 89  1  0
 28 90  1  1
 30 91  1  1
 32 92  1  6
 34 93  1  0
 35 94  1  0
 35 95  1  0
 37 96  1  0
 37 97  1  0
 38 98  1  0
 39 99  1  1
 41100  1  0
 41101  1  0
 42102  1  0
 43103  1  0
 44104  1  0
 45105  1  0
 46106  1  0
 46107  1  0
 46108  1  0
 49109  1  1
 51110  1  1
 53111  1  6
 56112  1  0
 57113  1  0
 57114  1  0
 58115  1  0
 58116  1  0
 59117  1  0
 60118  1  1
 62119  1  0
 62120  1  0
 63121  1  0
 64122  1  0
 65123  1  0
 65124  1  0
 65125  1  0
 66126  1  0
 68127  1  0
 68128  1  0
 68129  1  0
M  END
> <Uni-Dock RESULT> 
ENERGY=   -5.769  LOWER_BOUND=    8.560  UPPER_BOUND=   11.528
INTER + INTRA:          -5.769
INTER:                  -5.769
INTRA:                   0.000
UNBOUND:                 0.000

$$$$

     RDKit          3D

129139  0  0  0  0  0  0  0  0999 V2000
   44.3352   12.8416    8.7161 C   0  0  0  0  0  0  0  0  0  0  0  0
   45.3363   12.5307    9.6740 C   0  0  0  0  0  0  0  0  0  0  0  0
   44.5879   13.2546    7.3838 C   0  0  0  0  0  0  0  0  0  0  0  0
   42.9901   12.7291    9.1286 C   0  0  0  0  0  0  0  0  0  0  0  0
   43.5484   13.5477    6.4922 C   0  0  0  0  0  0  0  0  0  0  0  0
   42.2156   13.4263    6.9187 C   0  0  0  0  0  0  0  0  0  0  0  0
   41.9488   13.0206    8.2298 C   0  0  0  0  0  0  0  0  0  0  0  0
   45.0401   12.1404   10.9422 N   0  0  0  0  0  0  0  0  0  0  0  0
   49.1778   12.9577   12.2964 C   0  0  0  0  0  0  0  0  0  0  0  0
   46.8103   12.6257    9.3070 C   0  0  0  0  0  0  0  0  0  0  0  0
   49.6561   11.6381   12.4215 C   0  0  0  0  0  0  0  0  0  0  0  0
   48.2580   13.2679   11.2861 C   0  0  0  0  0  0  0  0  0  0  0  0
   47.8065   12.2807   10.3954 C   0  0  0  0  0  0  0  0  0  0  0  0
   49.1966   10.6529   11.5416 C   0  0  0  0  0  0  0  0  0  0  0  0
   48.2760   10.9710   10.5398 C   0  0  0  0  0  0  0  0  0  0  0  0
   43.7456   12.0468   11.2921 C   0  0  0  0  0  0  0  0  0  0  0  0
   43.7297   13.9541    5.1933 O   0  0  0  0  0  0  0  0  0  0  0  0
   41.2540   13.7264    5.9864 O   0  0  0  0  0  0  0  0  0  0  0  0
   49.6731   13.8674   13.1992 O   0  0  0  0  0  0  0  0  0  0  0  0
   50.5622   11.4167   13.4297 O   0  0  0  0  0  0  0  0  0  0  0  0
   42.7012   12.3259   10.4348 C   0  0  0  0  0  0  0  0  0  0  0  0
   45.0600   14.1372    4.7310 C   0  0  0  0  0  0  0  0  0  0  0  0
   49.0978   15.1656   13.2029 C   0  0  0  0  0  0  0  0  0  0  0  0
   39.8930   13.6048    6.3733 C   0  0  0  0  0  0  0  0  0  0  0  0
   51.0090   10.0839   13.6298 C   0  0  0  0  0  0  0  0  0  0  0  0
   45.1331   12.5130   10.2179 C   0  0  2  0  0  0  0  0  0  0  0  0
   46.6184   12.3049   10.1766 C   0  0  0  0  0  0  0  0  0  0  0  0
   44.7832   13.7043    9.3176 C   0  0  2  0  0  0  0  0  0  0  0  0
   47.0874   11.9093   11.4110 C   0  0  0  0  0  0  0  0  0  0  0  0
   45.0166   12.6943   11.7470 C   0  0  1  0  0  0  0  0  0  0  0  0
   46.1078   11.9293   12.3720 O   0  0  0  0  0  0  0  0  0  0  0  0
   45.3448   13.3481    7.8955 C   0  0  1  0  0  0  0  0  0  0  0  0
   47.4625   12.5581    9.1080 C   0  0  0  0  0  0  0  0  0  0  0  0
   45.2579   15.0198    9.8842 C   0  0  0  0  0  0  0  0  0  0  0  0
   46.9045   13.2463    7.8893 C   0  0  0  0  0  0  0  0  0  0  0  0
   44.8288   12.0483    7.3849 N   0  0  0  0  0  0  0  0  0  0  0  0
   44.4248   11.2324    9.7098 C   0  0  0  0  0  0  0  0  0  0  0  0
   45.3817   15.2143   11.2064 C   0  0  0  0  0  0  0  0  0  0  0  0
   45.0486   14.1741   12.2371 C   0  0  2  0  0  0  0  0  0  0  0  0
   48.4220   11.6234   11.5970 C   0  0  0  0  0  0  0  0  0  0  0  0
   43.8859   11.3763    8.2768 C   0  0  0  0  0  0  0  0  0  0  0  0
   48.8199   12.2754    9.2825 C   0  0  0  0  0  0  0  0  0  0  0  0
   49.2952   11.7870   10.5173 C   0  0  0  0  0  0  0  0  0  0  0  0
   48.8675   11.2302   12.8216 O   0  0  0  0  0  0  0  0  0  0  0  0
   45.9325   14.3599   13.3424 O   0  0  0  0  0  0  0  0  0  0  0  0
   44.2932   12.1661    6.0312 C   0  0  0  0  0  0  0  0  0  0  0  0
   44.8023   12.6971    9.7673 C   0  0  2  0  0  0  0  0  0  0  0  0
   46.2508   12.4452   10.0700 C   0  0  0  0  0  0  0  0  0  0  0  0
   44.7280   13.6881    8.5974 C   0  0  2  0  0  0  0  0  0  0  0  0
   46.4515   12.3211   11.4301 C   0  0  0  0  0  0  0  0  0  0  0  0
   44.4000   13.1977   11.1733 C   0  0  1  0  0  0  0  0  0  0  0  0
   45.3068   12.5736   12.1436 O   0  0  0  0  0  0  0  0  0  0  0  0
   45.5100   13.0187    7.4131 C   0  0  2  0  0  0  0  0  0  0  0  0
   44.9793   11.6735    7.0625 N   0  0  0  0  0  0  0  0  0  0  0  0
   47.2933   12.4236    9.1602 C   0  0  0  0  0  0  0  0  0  0  0  0
   45.2109   15.0673    8.9824 C   0  0  0  0  0  0  0  0  0  0  0  0
   47.0281   12.8373    7.7369 C   0  0  0  0  0  0  0  0  0  0  0  0
   44.1217   11.3586    9.3882 C   0  0  0  0  0  0  0  0  0  0  0  0
   45.0583   15.5363   10.2311 C   0  0  0  0  0  0  0  0  0  0  0  0
   44.3554   14.7523   11.3101 C   0  0  2  0  0  0  0  0  0  0  0  0
   47.7002   12.0261   11.9504 C   0  0  0  0  0  0  0  0  0  0  0  0
   43.8508   11.2329    7.8807 C   0  0  0  0  0  0  0  0  0  0  0  0
   48.5650   12.1391    9.6578 C   0  0  0  0  0  0  0  0  0  0  0  0
   48.7617   11.9187   11.0391 C   0  0  0  0  0  0  0  0  0  0  0  0
   44.6816   11.5562    5.6374 C   0  0  0  0  0  0  0  0  0  0  0  0
   44.7921   15.1833   12.5946 O   0  0  0  0  0  0  0  0  0  0  0  0
   47.7861   11.8859   13.3048 O   0  0  0  0  0  0  0  0  0  0  0  0
   49.0636   11.5805   13.8426 C   0  0  0  0  0  0  0  0  0  0  0  0
   45.6163   13.3427    7.0521 H   0  0  0  0  0  0  0  0  0  0  0  0
   40.9253   12.9236    8.5787 H   0  0  0  0  0  0  0  0  0  0  0  0
   47.0220   13.6478    8.9664 H   0  0  0  0  0  0  0  0  0  0  0  0
   47.0002   11.9653    8.4503 H   0  0  0  0  0  0  0  0  0  0  0  0
   47.8698   14.2747   11.1725 H   0  0  0  0  0  0  0  0  0  0  0  0
   49.5317    9.6240   11.6101 H   0  0  0  0  0  0  0  0  0  0  0  0
   47.9212   10.1853    9.8765 H   0  0  0  0  0  0  0  0  0  0  0  0
   43.5643   11.7303   12.3153 H   0  0  0  0  0  0  0  0  0  0  0  0
   41.6802   12.2274   10.7887 H   0  0  0  0  0  0  0  0  0  0  0  0
   45.0094   14.4942    3.6980 H   0  0  0  0  0  0  0  0  0  0  0  0
   45.5831   14.8984    5.3189 H   0  0  0  0  0  0  0  0  0  0  0  0
   45.6094   13.1905    4.7293 H   0  0  0  0  0  0  0  0  0  0  0  0
   49.3233   15.6981   12.2733 H   0  0  0  0  0  0  0  0  0  0  0  0
   49.5494   15.7290   14.0249 H   0  0  0  0  0  0  0  0  0  0  0  0
   48.0185   15.1234   13.3841 H   0  0  0  0  0  0  0  0  0  0  0  0
   39.2746   13.8672    5.5096 H   0  0  0  0  0  0  0  0  0  0  0  0
   39.6484   14.3022    7.1811 H   0  0  0  0  0  0  0  0  0  0  0  0
   39.6514   12.5740    6.6525 H   0  0  0  0  0  0  0  0  0  0  0  0
   50.1753    9.4190   13.8777 H   0  0  0  0  0  0  0  0  0  0  0  0
   51.6962   10.0856   14.4810 H   0  0  0  0  0  0  0  0  0  0  0  0
   51.5624    9.7179   12.7587 H   0  0  0  0  0  0  0  0  0  0  0  0
   43.6914   13.8087    9.2416 H   0  0  0  0  0  0  0  0  0  0  0  0
   44.0852   12.2501   12.1210 H   0  0  0  0  0  0  0  0  0  0  0  0
   45.0601   14.1575    7.2090 H   0  0  0  0  0  0  0  0  0  0  0  0
   45.4651   15.8381    9.1994 H   0  0  0  0  0  0  0  0  0  0  0  0
   47.2563   12.7407    6.9812 H   0  0  0  0  0  0  0  0  0  0  0  0
   47.3154   14.2639    7.8647 H   0  0  0  0  0  0  0  0  0  0  0  0
   43.5652   10.9977   10.3502 H   0  0  0  0  0  0  0  0  0  0  0  0
   45.0907   10.3604    9.7580 H   0  0  0  0  0  0  0  0  0  0  0  0
   45.6945   16.1868   11.5793 H   0  0  0  0  0  0  0  0  0  0  0  0
   44.0463   14.4249   12.6071 H   0  0  0  0  0  0  0  0  0  0  0  0
   43.6645   10.3708    7.8972 H   0  0  0  0  0  0  0  0  0  0  0  0
   42.9279   11.9131    8.3006 H   0  0  0  0  0  0  0  0  0  0  0  0
   49.5235   12.4563    8.4732 H   0  0  0  0  0  0  0  0  0  0  0  0
   50.3567   11.5850   10.6249 H   0  0  0  0  0  0  0  0  0  0  0  0
   49.8114   11.0180   12.7534 H   0  0  0  0  0  0  0  0  0  0  0  0
   46.5053   13.5670   13.3710 H   0  0  0  0  0  0  0  0  0  0  0  0
   43.4068   12.8098    5.9960 H   0  0  0  0  0  0  0  0  0  0  0  0
   44.0200   11.1811    5.6363 H   0  0  0  0  0  0  0  0  0  0  0  0
   45.0480   12.5769    5.3514 H   0  0  0  0  0  0  0  0  0  0  0  0
   43.6824   13.8276    8.2870 H   0  0  0  0  0  0  0  0  0  0  0  0
   43.3996   12.8337   11.4408 H   0  0  0  0  0  0  0  0  0  0  0  0
   45.4345   13.6852    6.5423 H   0  0  0  0  0  0  0  0  0  0  0  0
   45.6676   15.6931    8.2201 H   0  0  0  0  0  0  0  0  0  0  0  0
   47.5297   13.7999    7.5729 H   0  0  0  0  0  0  0  0  0  0  0  0
   47.4890   12.1195    7.0468 H   0  0  0  0  0  0  0  0  0  0  0  0
   43.1516   11.2704    9.8932 H   0  0  0  0  0  0  0  0  0  0  0  0
   44.7183   10.4981    9.7194 H   0  0  0  0  0  0  0  0  0  0  0  0
   45.3951   16.5435   10.4583 H   0  0  0  0  0  0  0  0  0  0  0  0
   43.3003   15.0494   11.2411 H   0  0  0  0  0  0  0  0  0  0  0  0
   42.9456   11.8007    7.6267 H   0  0  0  0  0  0  0  0  0  0  0  0
   43.6236   10.1814    7.6650 H   0  0  0  0  0  0  0  0  0  0  0  0
   49.4199   12.1059    8.9865 H   0  0  0  0  0  0  0  0  0  0  0  0
   49.7707   11.6992   11.3726 H   0  0  0  0  0  0  0  0  0  0  0  0
   45.5689   11.7862    5.0373 H   0  0  0  0  0  0  0  0  0  0  0  0
   44.3906   10.5304    5.3850 H   0  0  0  0  0  0  0  0  0  0  0  0
   43.8728   12.2297    5.3324 H   0  0  0  0  0  0  0  0  0  0  0  0
   44.8811   16.1481   12.5846 H   0  0  0  0  0  0  0  0  0  0  0  0
   49.7803   12.3831   13.6407 H   0  0  0  0  0  0  0  0  0  0  0  0
   48.9589   11.4953   14.9285 H   0  0  0  0  0  0  0  0  0  0  0  0
   49.4311   10.6195   13.4682 H   0  0  0  0  0  0  0  0  0  0  0  0
  2  1  1  0
  3  1  2  0
  4  1  1  0
  5  3  1  0
  6  7  1  0
  7  4  2  0
  8  2  2  0
  9 12  2  0
 10  2  1  0
 11 14  2  0
 12 13  1  0
 13 10  1  0
 14 15  1  0
 15 13  2  0
 16 21  2  0
 17  5  1  0
 18  6  1  0
 19  9  1  0
 20 11  1  0
 21  4  1  0
 22 17  1  0
 23 19  1  0
 24 18  1  0
 25 20  1  0
 16  8  1  0
  6  5  2  0
 11  9  1  0
 27 26  1  0
 28 26  1  0
 29 27  2  0
 30 26  1  0
 30 31  1  0
 32 28  1  0
 33 27  1  0
 28 34  1  0
 32 35  1  0
 36 41  1  0
 26 37  1  1
 38 39  1  0
 39 30  1  0
 40 29  1  0
 41 37  1  0
 42 33  2  0
 43 42  1  0
 44 40  1  0
 39 45  1  0
 46 36  1  0
 29 31  1  0
 32 36  1  0
 38 34  2  0
 35 33  1  0
 43 40  2  0
 48 47  1  0
 49 47  1  0
 50 48  2  0
 51 47  1  0
 52 51  1  0
 53 49  1  0
 54 62  1  0
 55 48  1  0
 49 56  1  0
 53 57  1  0
 47 58  1  1
 59 60  1  0
 60 51  1  0
 61 50  1  0
 62 58  1  0
 63 55  2  0
 64 63  1  0
 65 54  1  0
 60 66  1  0
 67 61  1  0
 68 67  1  0
 52 50  1  0
 53 54  1  0
 59 56  2  0
 57 55  1  0
 64 61  2  0
  3 69  1  0
  7 70  1  0
 10 71  1  0
 10 72  1  0
 12 73  1  0
 14 74  1  0
 15 75  1  0
 16 76  1  0
 21 77  1  0
 22 78  1  0
 22 79  1  0
 22 80  1  0
 23 81  1  0
 23 82  1  0
 23 83  1  0
 24 84  1  0
 24 85  1  0
 24 86  1  0
 25 87  1  0
 25 88  1  0
 25 89  1  0
 28 90  1  1
 30 91  1  1
 32 92  1  6
 34 93  1  0
 35 94  1  0
 35 95  1  0
 37 96  1  0
 37 97  1  0
 38 98  1  0
 39 99  1  1
 41100  1  0
 41101  1  0
 42102  1  0
 43103  1  0
 44104  1  0
 45105  1  0
 46106  1  0
 46107  1  0
 46108  1  0
 49109  1  1
 51110  1  1
 53111  1  6
 56112  1  0
 57113  1  0
 57114  1  0
 58115  1  0
 58116  1  0
 59117  1  0
 60118  1  1
 62119  1  0
 62120  1  0
 63121  1  0
 64122  1  0
 65123  1  0
 65124  1  0
 65125  1  0
 66126  1  0
 68127  1  0
 68128  1  0
 68129  1  0
M  END
> <Uni-Dock RESULT> 
ENERGY=   -5.741  LOWER_BOUND=    2.242  UPPER_BOUND=    5.034
INTER + INTRA:          -5.741
INTER:                  -5.741
INTRA:                   0.000
UNBOUND:                 0.000

$$$$

     RDKit          3D

129139  0  0  0  0  0  0  0  0999 V2000
   48.7494   11.4097   21.0308 C   0  0  0  0  0  0  0  0  0  0  0  0
   48.8510   12.3775   19.9967 C   0  0  0  0  0  0  0  0  0  0  0  0
   49.7914   11.0718   21.9305 C   0  0  0  0  0  0  0  0  0  0  0  0
   47.5158   10.7376   21.1668 C   0  0  0  0  0  0  0  0  0  0  0  0
   49.6204   10.1029   22.9274 C   0  0  0  0  0  0  0  0  0  0  0  0
   48.3845    9.4470   23.0506 C   0  0  0  0  0  0  0  0  0  0  0  0
   47.3464    9.7681   22.1709 C   0  0  0  0  0  0  0  0  0  0  0  0
   47.8203   12.6635   19.1576 N   0  0  0  0  0  0  0  0  0  0  0  0
   50.5375   14.6851   16.3025 C   0  0  0  0  0  0  0  0  0  0  0  0
   50.1472   13.1469   19.7858 C   0  0  0  0  0  0  0  0  0  0  0  0
   50.1922   16.0286   16.5504 C   0  0  0  0  0  0  0  0  0  0  0  0
   50.5205   13.7604   17.3548 C   0  0  0  0  0  0  0  0  0  0  0  0
   50.1642   14.1548   18.6545 C   0  0  0  0  0  0  0  0  0  0  0  0
   49.8258   16.4181   17.8426 C   0  0  0  0  0  0  0  0  0  0  0  0
   49.8077   15.4877   18.8849 C   0  0  0  0  0  0  0  0  0  0  0  0
   46.6634   11.9993   19.3231 C   0  0  0  0  0  0  0  0  0  0  0  0
   50.5908    9.7312   23.8247 O   0  0  0  0  0  0  0  0  0  0  0  0
   48.2936    8.5146   24.0538 O   0  0  0  0  0  0  0  0  0  0  0  0
   50.8825   14.3795   15.0080 O   0  0  0  0  0  0  0  0  0  0  0  0
   50.2428   16.8750   15.4698 O   0  0  0  0  0  0  0  0  0  0  0  0
   46.4653   11.0427   20.2976 C   0  0  0  0  0  0  0  0  0  0  0  0
   51.8722   10.3325   23.7090 C   0  0  0  0  0  0  0  0  0  0  0  0
   51.0833   13.0103   14.6900 C   0  0  0  0  0  0  0  0  0  0  0  0
   47.0568    7.8369   24.2205 C   0  0  0  0  0  0  0  0  0  0  0  0
   49.8310   18.2191   15.6688 C   0  0  0  0  0  0  0  0  0  0  0  0
   48.4252   12.3363   19.6038 C   0  0  2  0  0  0  0  0  0  0  0  0
   49.4231   13.3916   19.2274 C   0  0  0  0  0  0  0  0  0  0  0  0
   49.1873   11.0752   20.0292 C   0  0  2  0  0  0  0  0  0  0  0  0
   48.9613   14.1393   18.1654 C   0  0  0  0  0  0  0  0  0  0  0  0
   47.6680   12.3128   18.2582 C   0  0  1  0  0  0  0  0  0  0  0  0
   47.7835   13.6515   17.6572 O   0  0  0  0  0  0  0  0  0  0  0  0
   50.1306   11.5184   21.2033 C   0  0  1  0  0  0  0  0  0  0  0  0
   50.6865   13.5691   19.7666 C   0  0  0  0  0  0  0  0  0  0  0  0
   49.8781   10.3959   18.8723 C   0  0  0  0  0  0  0  0  0  0  0  0
   51.2157   12.5392   20.7307 C   0  0  0  0  0  0  0  0  0  0  0  0
   49.3896   12.1673   22.3197 N   0  0  0  0  0  0  0  0  0  0  0  0
   47.5528   12.8544   20.7744 C   0  0  0  0  0  0  0  0  0  0  0  0
   49.4040   10.4814   17.6196 C   0  0  0  0  0  0  0  0  0  0  0  0
   48.1542   11.2275   17.2500 C   0  0  2  0  0  0  0  0  0  0  0  0
   49.7000   15.1930   17.6741 C   0  0  0  0  0  0  0  0  0  0  0  0
   47.9423   12.2381   22.1282 C   0  0  0  0  0  0  0  0  0  0  0  0
   51.4490   14.6327   19.2763 C   0  0  0  0  0  0  0  0  0  0  0  0
   50.9472   15.4574   18.2480 C   0  0  0  0  0  0  0  0  0  0  0  0
   49.2271   15.9235   16.6273 O   0  0  0  0  0  0  0  0  0  0  0  0
   48.3348   11.7516   15.9347 O   0  0  0  0  0  0  0  0  0  0  0  0
   49.7298   11.5835   23.6145 C   0  0  0  0  0  0  0  0  0  0  0  0
   48.4970   11.9358   20.0291 C   0  0  2  0  0  0  0  0  0  0  0  0
   49.2766   13.0460   19.3863 C   0  0  0  0  0  0  0  0  0  0  0  0
   49.4972   10.9654   20.6726 C   0  0  2  0  0  0  0  0  0  0  0  0
   48.6874   13.4336   18.1996 C   0  0  0  0  0  0  0  0  0  0  0  0
   47.7461   11.4731   18.7596 C   0  0  1  0  0  0  0  0  0  0  0  0
   47.6238   12.6323   17.8682 O   0  0  0  0  0  0  0  0  0  0  0  0
   50.3327   11.8177   21.6913 C   0  0  2  0  0  0  0  0  0  0  0  0
   49.4799   12.5134   22.6927 N   0  0  0  0  0  0  0  0  0  0  0  0
   50.4738   13.5794   19.8303 C   0  0  0  0  0  0  0  0  0  0  0  0
   50.3145   10.2183   19.6442 C   0  0  0  0  0  0  0  0  0  0  0  0
   51.1858   12.9169   20.9799 C   0  0  0  0  0  0  0  0  0  0  0  0
   47.5530   12.5323   21.1021 C   0  0  0  0  0  0  0  0  0  0  0  0
   49.8076    9.9116   18.4394 C   0  0  0  0  0  0  0  0  0  0  0  0
   48.3880   10.2387   18.0511 C   0  0  2  0  0  0  0  0  0  0  0  0
   49.1934   14.4841   17.4532 C   0  0  0  0  0  0  0  0  0  0  0  0
   48.0451   12.2807   22.5360 C   0  0  0  0  0  0  0  0  0  0  0  0
   51.0128   14.6328   19.0916 C   0  0  0  0  0  0  0  0  0  0  0  0
   50.3642   15.0963   17.9255 C   0  0  0  0  0  0  0  0  0  0  0  0
   49.9158   12.2494   24.0615 C   0  0  0  0  0  0  0  0  0  0  0  0
   48.2724   10.3221   16.6348 O   0  0  0  0  0  0  0  0  0  0  0  0
   48.5162   14.8143   16.3157 O   0  0  0  0  0  0  0  0  0  0  0  0
   49.0295   15.8926   15.5486 C   0  0  0  0  0  0  0  0  0  0  0  0
   50.7436   11.5819   21.8398 H   0  0  0  0  0  0  0  0  0  0  0  0
   46.3848    9.2700   22.2487 H   0  0  0  0  0  0  0  0  0  0  0  0
   50.9577   12.4274   19.6098 H   0  0  0  0  0  0  0  0  0  0  0  0
   50.3951   13.6754   20.7160 H   0  0  0  0  0  0  0  0  0  0  0  0
   50.7761   12.7190   17.1889 H   0  0  0  0  0  0  0  0  0  0  0  0
   49.5436   17.4392   18.0735 H   0  0  0  0  0  0  0  0  0  0  0  0
   49.5048   15.8102   19.8786 H   0  0  0  0  0  0  0  0  0  0  0  0
   45.8728   12.2660   18.6277 H   0  0  0  0  0  0  0  0  0  0  0  0
   45.5023   10.5480   20.3708 H   0  0  0  0  0  0  0  0  0  0  0  0
   52.5189    9.8928   24.4741 H   0  0  0  0  0  0  0  0  0  0  0  0
   52.3229   10.1216   22.7337 H   0  0  0  0  0  0  0  0  0  0  0  0
   51.8194   11.4096   23.8969 H   0  0  0  0  0  0  0  0  0  0  0  0
   51.9626   12.6117   15.2063 H   0  0  0  0  0  0  0  0  0  0  0  0
   51.2715   12.9411   13.6144 H   0  0  0  0  0  0  0  0  0  0  0  0
   50.1908   12.4145   14.9090 H   0  0  0  0  0  0  0  0  0  0  0  0
   47.1627    7.1498   25.0655 H   0  0  0  0  0  0  0  0  0  0  0  0
   46.8112    7.2402   23.3360 H   0  0  0  0  0  0  0  0  0  0  0  0
   46.2509    8.5375   24.4625 H   0  0  0  0  0  0  0  0  0  0  0  0
   48.7862   18.2703   15.9916 H   0  0  0  0  0  0  0  0  0  0  0  0
   49.9074   18.7381   14.7088 H   0  0  0  0  0  0  0  0  0  0  0  0
   50.4901   18.7333   16.3761 H   0  0  0  0  0  0  0  0  0  0  0  0
   48.4834   10.3246   20.4163 H   0  0  0  0  0  0  0  0  0  0  0  0
   46.5950   12.1470   18.4191 H   0  0  0  0  0  0  0  0  0  0  0  0
   50.6515   10.6239   21.5722 H   0  0  0  0  0  0  0  0  0  0  0  0
   50.7589    9.7915   19.0730 H   0  0  0  0  0  0  0  0  0  0  0  0
   51.6804   13.0370   21.5910 H   0  0  0  0  0  0  0  0  0  0  0  0
   52.0116   11.9827   20.2189 H   0  0  0  0  0  0  0  0  0  0  0  0
   46.4996   12.5999   20.6010 H   0  0  0  0  0  0  0  0  0  0  0  0
   47.5953   13.9491   20.8517 H   0  0  0  0  0  0  0  0  0  0  0  0
   49.9099    9.9505   16.8165 H   0  0  0  0  0  0  0  0  0  0  0  0
   47.3636   10.4709   17.1671 H   0  0  0  0  0  0  0  0  0  0  0  0
   47.4904   12.8494   22.9196 H   0  0  0  0  0  0  0  0  0  0  0  0
   47.4923   11.2401   22.2166 H   0  0  0  0  0  0  0  0  0  0  0  0
   52.4473   14.8145   19.6675 H   0  0  0  0  0  0  0  0  0  0  0  0
   51.5669   16.2706   17.8819 H   0  0  0  0  0  0  0  0  0  0  0  0
   49.8440   16.6519   16.4553 H   0  0  0  0  0  0  0  0  0  0  0  0
   48.3573   12.7254   16.0289 H   0  0  0  0  0  0  0  0  0  0  0  0
   49.4119   10.5371   23.6881 H   0  0  0  0  0  0  0  0  0  0  0  0
   49.2577   12.1453   24.4281 H   0  0  0  0  0  0  0  0  0  0  0  0
   50.8106   11.6311   23.7879 H   0  0  0  0  0  0  0  0  0  0  0  0
   48.9599   10.1859   21.2320 H   0  0  0  0  0  0  0  0  0  0  0  0
   46.7144   11.1891   19.0037 H   0  0  0  0  0  0  0  0  0  0  0  0
   51.0285   11.1392   22.2047 H   0  0  0  0  0  0  0  0  0  0  0  0
   51.3228    9.9065   19.9037 H   0  0  0  0  0  0  0  0  0  0  0  0
   52.0904   12.4412   20.5793 H   0  0  0  0  0  0  0  0  0  0  0  0
   51.5199   13.6750   21.6994 H   0  0  0  0  0  0  0  0  0  0  0  0
   46.5569   12.0788   21.0246 H   0  0  0  0  0  0  0  0  0  0  0  0
   47.4102   13.6111   20.9548 H   0  0  0  0  0  0  0  0  0  0  0  0
   50.4198    9.3498   17.7400 H   0  0  0  0  0  0  0  0  0  0  0  0
   47.7992    9.3593   18.3449 H   0  0  0  0  0  0  0  0  0  0  0  0
   47.7862   11.2557   22.8335 H   0  0  0  0  0  0  0  0  0  0  0  0
   47.4857   12.9450   23.2065 H   0  0  0  0  0  0  0  0  0  0  0  0
   51.9501   15.0916   19.3974 H   0  0  0  0  0  0  0  0  0  0  0  0
   50.8253   15.9196   17.3896 H   0  0  0  0  0  0  0  0  0  0  0  0
   50.9668   12.5293   24.1929 H   0  0  0  0  0  0  0  0  0  0  0  0
   49.3405   12.8503   24.7746 H   0  0  0  0  0  0  0  0  0  0  0  0
   49.8025   11.1929   24.3296 H   0  0  0  0  0  0  0  0  0  0  0  0
   48.8025    9.6147   16.2380 H   0  0  0  0  0  0  0  0  0  0  0  0
   50.0324   15.6680   15.1714 H   0  0  0  0  0  0  0  0  0  0  0  0
   48.3737   16.0312   14.6837 H   0  0  0  0  0  0  0  0  0  0  0  0
   49.0231   16.8249   16.1227 H   0  0  0  0  0  0  0  0  0  0  0  0
  2  1  1  0
  3  1  2  0
  4  1  1  0
  5  3  1  0
  6  7  1  0
  7  4  2  0
  8  2  2  0
  9 12  2  0
 10  2  1  0
 11 14  2  0
 12 13  1  0
 13 10  1  0
 14 15  1  0
 15 13  2  0
 16 21  2  0
 17  5  1  0
 18  6  1  0
 19  9  1  0
 20 11  1  0
 21  4  1  0
 22 17  1  0
 23 19  1  0
 24 18  1  0
 25 20  1  0
 16  8  1  0
  6  5  2  0
 11  9  1  0
 27 26  1  0
 28 26  1  0
 29 27  2  0
 30 26  1  0
 30 31  1  0
 32 28  1  0
 33 27  1  0
 28 34  1  0
 32 35  1  0
 36 41  1  0
 26 37  1  1
 38 39  1  0
 39 30  1  0
 40 29  1  0
 41 37  1  0
 42 33  2  0
 43 42  1  0
 44 40  1  0
 39 45  1  0
 46 36  1  0
 29 31  1  0
 32 36  1  0
 38 34  2  0
 35 33  1  0
 43 40  2  0
 48 47  1  0
 49 47  1  0
 50 48  2  0
 51 47  1  0
 52 51  1  0
 53 49  1  0
 54 62  1  0
 55 48  1  0
 49 56  1  0
 53 57  1  0
 47 58  1  1
 59 60  1  0
 60 51  1  0
 61 50  1  0
 62 58  1  0
 63 55  2  0
 64 63  1  0
 65 54  1  0
 60 66  1  0
 67 61  1  0
 68 67  1  0
 52 50  1  0
 53 54  1  0
 59 56  2  0
 57 55  1  0
 64 61  2  0
  3 69  1  0
  7 70  1  0
 10 71  1  0
 10 72  1  0
 12 73  1  0
 14 74  1  0
 15 75  1  0
 16 76  1  0
 21 77  1  0
 22 78  1  0
 22 79  1  0
 22 80  1  0
 23 81  1  0
 23 82  1  0
 23 83  1  0
 24 84  1  0
 24 85  1  0
 24 86  1  0
 25 87  1  0
 25 88  1  0
 25 89  1  0
 28 90  1  1
 30 91  1  1
 32 92  1  6
 34 93  1  0
 35 94  1  0
 35 95  1  0
 37 96  1  0
 37 97  1  0
 38 98  1  0
 39 99  1  1
 41100  1  0
 41101  1  0
 42102  1  0
 43103  1  0
 44104  1  0
 45105  1  0
 46106  1  0
 46107  1  0
 46108  1  0
 49109  1  1
 51110  1  1
 53111  1  6
 56112  1  0
 57113  1  0
 57114  1  0
 58115  1  0
 58116  1  0
 59117  1  0
 60118  1  1
 62119  1  0
 62120  1  0
 63121  1  0
 64122  1  0
 65123  1  0
 65124  1  0
 65125  1  0
 66126  1  0
 68127  1  0
 68128  1  0
 68129  1  0
M  END
> <Uni-Dock RESULT> 
ENERGY=   -5.352  LOWER_BOUND=    9.154  UPPER_BOUND=   13.098
INTER + INTRA:          -5.352
INTER:                  -5.352
INTRA:                   0.000
UNBOUND:                 0.000

$$$$
