
     RDKit          3D

129139  0  0  0  0  0  0  0  0999 V2000
   50.6808    4.8916   18.6295 C   0  0  0  0  0  0  0  0  0  0  0  0
   49.7270    5.9048   18.9142 C   0  0  0  0  0  0  0  0  0  0  0  0
   52.0837    5.0321   18.7793 C   0  0  0  0  0  0  0  0  0  0  0  0
   50.1878    3.6546   18.1604 C   0  0  0  0  0  0  0  0  0  0  0  0
   52.9658    3.9858   18.4817 C   0  0  0  0  0  0  0  0  0  0  0  0
   52.4573    2.7614   18.0179 C   0  0  0  0  0  0  0  0  0  0  0  0
   51.0767    2.6072   17.8613 C   0  0  0  0  0  0  0  0  0  0  0  0
   48.3906    5.7193   18.7466 N   0  0  0  0  0  0  0  0  0  0  0  0
   47.4926    9.1776   21.3731 C   0  0  0  0  0  0  0  0  0  0  0  0
   50.1757    7.2686   19.4200 C   0  0  0  0  0  0  0  0  0  0  0  0
   47.0380   10.0918   20.4017 C   0  0  0  0  0  0  0  0  0  0  0  0
   48.5089    8.2701   21.0461 C   0  0  0  0  0  0  0  0  0  0  0  0
   49.0810    8.2589   19.7635 C   0  0  0  0  0  0  0  0  0  0  0  0
   47.6013   10.0742   19.1212 C   0  0  0  0  0  0  0  0  0  0  0  0
   48.6107    9.1617   18.8038 C   0  0  0  0  0  0  0  0  0  0  0  0
   47.9655    4.5260   18.2981 C   0  0  0  0  0  0  0  0  0  0  0  0
   54.3312    4.0605   18.6087 O   0  0  0  0  0  0  0  0  0  0  0  0
   53.3847    1.7864   17.7472 O   0  0  0  0  0  0  0  0  0  0  0  0
   46.8901    9.2554   22.6057 O   0  0  0  0  0  0  0  0  0  0  0  0
   46.0454   10.9545   20.8006 O   0  0  0  0  0  0  0  0  0  0  0  0
   48.8116    3.4785   17.9962 C   0  0  0  0  0  0  0  0  0  0  0  0
   54.8908    5.2668   19.1048 C   0  0  0  0  0  0  0  0  0  0  0  0
   47.2056    8.2470   23.5538 C   0  0  0  0  0  0  0  0  0  0  0  0
   52.9127    0.5314   17.2820 C   0  0  0  0  0  0  0  0  0  0  0  0
   45.5050   11.8305   19.8237 C   0  0  0  0  0  0  0  0  0  0  0  0
   49.4813    6.6898   18.5404 C   0  0  2  0  0  0  0  0  0  0  0  0
   50.5250    5.7702   19.0977 C   0  0  0  0  0  0  0  0  0  0  0  0
   48.4058    6.9554   19.5976 C   0  0  2  0  0  0  0  0  0  0  0  0
   51.0249    4.9542   18.1023 C   0  0  0  0  0  0  0  0  0  0  0  0
   49.1144    5.8062   17.3308 C   0  0  1  0  0  0  0  0  0  0  0  0
   50.3422    5.1078   16.9158 O   0  0  0  0  0  0  0  0  0  0  0  0
   49.1714    7.4924   20.8579 C   0  0  1  0  0  0  0  0  0  0  0  0
   50.9066    5.6539   20.4225 C   0  0  0  0  0  0  0  0  0  0  0  0
   47.5041    5.7758   19.8472 C   0  0  0  0  0  0  0  0  0  0  0  0
   50.1304    6.4159   21.4646 C   0  0  0  0  0  0  0  0  0  0  0  0
   50.0026    8.6910   20.5514 N   0  0  0  0  0  0  0  0  0  0  0  0
   50.1595    8.0241   18.1380 C   0  0  0  0  0  0  0  0  0  0  0  0
   47.3162    4.8109   18.9359 C   0  0  0  0  0  0  0  0  0  0  0  0
   47.9728    4.7668   17.5865 C   0  0  2  0  0  0  0  0  0  0  0  0
   52.0274    4.0514   18.3733 C   0  0  0  0  0  0  0  0  0  0  0  0
   49.9252    9.1481   19.1634 C   0  0  0  0  0  0  0  0  0  0  0  0
   51.9173    4.7347   20.7155 C   0  0  0  0  0  0  0  0  0  0  0  0
   52.4916    3.9519   19.6897 C   0  0  0  0  0  0  0  0  0  0  0  0
   52.5106    3.2550   17.3817 O   0  0  0  0  0  0  0  0  0  0  0  0
   48.4033    3.4177   17.3933 O   0  0  0  0  0  0  0  0  0  0  0  0
   49.7462    9.7845   21.4858 C   0  0  0  0  0  0  0  0  0  0  0  0
   49.2896    7.1898   18.6263 C   0  0  2  0  0  0  0  0  0  0  0  0
   50.2483    6.2389   19.2814 C   0  0  0  0  0  0  0  0  0  0  0  0
   47.9371    7.0929   19.3539 C   0  0  2  0  0  0  0  0  0  0  0  0
   51.0799    5.6586   18.3450 C   0  0  0  0  0  0  0  0  0  0  0  0
   49.3935    6.6003   17.2009 C   0  0  1  0  0  0  0  0  0  0  0  0
   50.7307    6.0080   17.0644 O   0  0  0  0  0  0  0  0  0  0  0  0
   48.2426    7.4531   20.8547 C   0  0  2  0  0  0  0  0  0  0  0  0
   48.7088    8.8637   20.9646 N   0  0  0  0  0  0  0  0  0  0  0  0
   50.2846    5.9009   20.6205 C   0  0  0  0  0  0  0  0  0  0  0  0
   47.2617    5.7594   19.1285 C   0  0  0  0  0  0  0  0  0  0  0  0
   49.1653    6.3631   21.5106 C   0  0  0  0  0  0  0  0  0  0  0  0
   49.8833    8.6154   18.7373 C   0  0  0  0  0  0  0  0  0  0  0  0
   47.4305    5.0740   17.9864 C   0  0  0  0  0  0  0  0  0  0  0  0
   48.2529    5.5966   16.8366 C   0  0  2  0  0  0  0  0  0  0  0  0
   52.0962    4.7979   18.7213 C   0  0  0  0  0  0  0  0  0  0  0  0
   49.1015    9.5033   19.7092 C   0  0  0  0  0  0  0  0  0  0  0  0
   51.2905    5.0252   21.0277 C   0  0  0  0  0  0  0  0  0  0  0  0
   52.2044    4.4987   20.0884 C   0  0  0  0  0  0  0  0  0  0  0  0
   49.6238    9.1668   22.0552 C   0  0  0  0  0  0  0  0  0  0  0  0
   48.7330    4.5072   16.0552 O   0  0  0  0  0  0  0  0  0  0  0  0
   52.8924    4.3111   17.7263 O   0  0  0  0  0  0  0  0  0  0  0  0
   53.8867    3.3684   18.0979 C   0  0  0  0  0  0  0  0  0  0  0  0
   52.4771    5.9781   19.1333 H   0  0  0  0  0  0  0  0  0  0  0  0
   50.6643    1.6693   17.5027 H   0  0  0  0  0  0  0  0  0  0  0  0
   50.7915    7.1274   20.3169 H   0  0  0  0  0  0  0  0  0  0  0  0
   50.8279    7.7230   18.6622 H   0  0  0  0  0  0  0  0  0  0  0  0
   48.8719    7.5515   21.7737 H   0  0  0  0  0  0  0  0  0  0  0  0
   47.2733   10.7542   18.3430 H   0  0  0  0  0  0  0  0  0  0  0  0
   49.0219    9.1552   17.7970 H   0  0  0  0  0  0  0  0  0  0  0  0
   46.8896    4.4309   18.1831 H   0  0  0  0  0  0  0  0  0  0  0  0
   48.3948    2.5426   17.6380 H   0  0  0  0  0  0  0  0  0  0  0  0
   55.9758    5.1369   19.1533 H   0  0  0  0  0  0  0  0  0  0  0  0
   54.6871    6.1039   18.4288 H   0  0  0  0  0  0  0  0  0  0  0  0
   54.5368    5.4800   20.1191 H   0  0  0  0  0  0  0  0  0  0  0  0
   46.9737    7.2487   23.1676 H   0  0  0  0  0  0  0  0  0  0  0  0
   48.2517    8.3182   23.8686 H   0  0  0  0  0  0  0  0  0  0  0  0
   46.5826    8.4128   24.4376 H   0  0  0  0  0  0  0  0  0  0  0  0
   52.2705    0.0490   18.0264 H   0  0  0  0  0  0  0  0  0  0  0  0
   52.3988    0.6336   16.3202 H   0  0  0  0  0  0  0  0  0  0  0  0
   53.7817   -0.1156   17.1257 H   0  0  0  0  0  0  0  0  0  0  0  0
   46.2612   12.5354   19.4643 H   0  0  0  0  0  0  0  0  0  0  0  0
   45.0552   11.2734   18.9954 H   0  0  0  0  0  0  0  0  0  0  0  0
   44.7108   12.4129   20.3008 H   0  0  0  0  0  0  0  0  0  0  0  0
   47.7269    7.7450   19.2437 H   0  0  0  0  0  0  0  0  0  0  0  0
   48.8039    6.4329   16.4856 H   0  0  0  0  0  0  0  0  0  0  0  0
   48.4238    7.7433   21.6236 H   0  0  0  0  0  0  0  0  0  0  0  0
   46.9577    5.7356   20.7863 H   0  0  0  0  0  0  0  0  0  0  0  0
   49.5272    5.6926   22.0283 H   0  0  0  0  0  0  0  0  0  0  0  0
   50.8228    6.8788   22.1796 H   0  0  0  0  0  0  0  0  0  0  0  0
   51.2393    7.8977   17.9858 H   0  0  0  0  0  0  0  0  0  0  0  0
   49.7546    8.3759   17.1805 H   0  0  0  0  0  0  0  0  0  0  0  0
   46.6343    3.9936   19.1604 H   0  0  0  0  0  0  0  0  0  0  0  0
   47.1896    4.9420   16.8389 H   0  0  0  0  0  0  0  0  0  0  0  0
   48.9511    9.6153   18.9676 H   0  0  0  0  0  0  0  0  0  0  0  0
   50.6775    9.9279   18.9883 H   0  0  0  0  0  0  0  0  0  0  0  0
   52.2528    4.6004   21.7408 H   0  0  0  0  0  0  0  0  0  0  0  0
   53.2719    3.2427   19.9513 H   0  0  0  0  0  0  0  0  0  0  0  0
   53.1894    2.6710   17.7605 H   0  0  0  0  0  0  0  0  0  0  0  0
   49.2468    3.4686   16.8965 H   0  0  0  0  0  0  0  0  0  0  0  0
   50.4464   10.6093   21.3154 H   0  0  0  0  0  0  0  0  0  0  0  0
   49.8987    9.4535   22.5191 H   0  0  0  0  0  0  0  0  0  0  0  0
   48.7251   10.1720   21.3917 H   0  0  0  0  0  0  0  0  0  0  0  0
   47.2333    7.8348   18.9500 H   0  0  0  0  0  0  0  0  0  0  0  0
   49.3546    7.4001   16.4507 H   0  0  0  0  0  0  0  0  0  0  0  0
   47.2954    7.4229   21.4096 H   0  0  0  0  0  0  0  0  0  0  0  0
   46.6059    5.3702   19.9031 H   0  0  0  0  0  0  0  0  0  0  0  0
   49.5580    6.6793   22.4820 H   0  0  0  0  0  0  0  0  0  0  0  0
   48.5397    5.4843   21.7208 H   0  0  0  0  0  0  0  0  0  0  0  0
   49.8591    9.1128   17.7587 H   0  0  0  0  0  0  0  0  0  0  0  0
   50.9378    8.5963   19.0419 H   0  0  0  0  0  0  0  0  0  0  0  0
   46.9047    4.1323   17.8564 H   0  0  0  0  0  0  0  0  0  0  0  0
   47.5451    6.1371   16.1929 H   0  0  0  0  0  0  0  0  0  0  0  0
   48.1835    9.8414   19.2085 H   0  0  0  0  0  0  0  0  0  0  0  0
   49.6634   10.4302   19.8856 H   0  0  0  0  0  0  0  0  0  0  0  0
   51.3653    4.7207   22.0691 H   0  0  0  0  0  0  0  0  0  0  0  0
   52.9719    3.8256   20.4583 H   0  0  0  0  0  0  0  0  0  0  0  0
   50.6177    8.7345   21.8973 H   0  0  0  0  0  0  0  0  0  0  0  0
   49.2234    8.8148   23.0127 H   0  0  0  0  0  0  0  0  0  0  0  0
   49.7451   10.2504   22.1671 H   0  0  0  0  0  0  0  0  0  0  0  0
   47.9903    3.9104   15.8757 H   0  0  0  0  0  0  0  0  0  0  0  0
   54.4104    3.0563   17.1886 H   0  0  0  0  0  0  0  0  0  0  0  0
   54.6265    3.8186   18.7692 H   0  0  0  0  0  0  0  0  0  0  0  0
   53.4392    2.4751   18.5457 H   0  0  0  0  0  0  0  0  0  0  0  0
  2  1  1  0
  3  1  2  0
  4  1  1  0
  5  3  1  0
  6  7  1  0
  7  4  2  0
  8  2  2  0
  9 12  2  0
 10  2  1  0
 11 14  2  0
 12 13  1  0
 13 10  1  0
 14 15  1  0
 15 13  2  0
 16 21  2  0
 17  5  1  0
 18  6  1  0
 19  9  1  0
 20 11  1  0
 21  4  1  0
 22 17  1  0
 23 19  1  0
 24 18  1  0
 25 20  1  0
 16  8  1  0
  6  5  2  0
 11  9  1  0
 27 26  1  0
 28 26  1  0
 29 27  2  0
 30 26  1  0
 30 31  1  0
 32 28  1  0
 33 27  1  0
 28 34  1  0
 32 35  1  0
 36 41  1  0
 26 37  1  1
 38 39  1  0
 39 30  1  0
 40 29  1  0
 41 37  1  0
 42 33  2  0
 43 42  1  0
 44 40  1  0
 39 45  1  0
 46 36  1  0
 29 31  1  0
 32 36  1  0
 38 34  2  0
 35 33  1  0
 43 40  2  0
 48 47  1  0
 49 47  1  0
 50 48  2  0
 51 47  1  0
 52 51  1  0
 53 49  1  0
 54 62  1  0
 55 48  1  0
 49 56  1  0
 53 57  1  0
 47 58  1  1
 59 60  1  0
 60 51  1  0
 61 50  1  0
 62 58  1  0
 63 55  2  0
 64 63  1  0
 65 54  1  0
 60 66  1  0
 67 61  1  0
 68 67  1  0
 52 50  1  0
 53 54  1  0
 59 56  2  0
 57 55  1  0
 64 61  2  0
  3 69  1  0
  7 70  1  0
 10 71  1  0
 10 72  1  0
 12 73  1  0
 14 74  1  0
 15 75  1  0
 16 76  1  0
 21 77  1  0
 22 78  1  0
 22 79  1  0
 22 80  1  0
 23 81  1  0
 23 82  1  0
 23 83  1  0
 24 84  1  0
 24 85  1  0
 24 86  1  0
 25 87  1  0
 25 88  1  0
 25 89  1  0
 28 90  1  1
 30 91  1  1
 32 92  1  6
 34 93  1  0
 35 94  1  0
 35 95  1  0
 37 96  1  0
 37 97  1  0
 38 98  1  0
 39 99  1  1
 41100  1  0
 41101  1  0
 42102  1  0
 43103  1  0
 44104  1  0
 45105  1  0
 46106  1  0
 46107  1  0
 46108  1  0
 49109  1  1
 51110  1  1
 53111  1  6
 56112  1  0
 57113  1  0
 57114  1  0
 58115  1  0
 58116  1  0
 59117  1  0
 60118  1  1
 62119  1  0
 62120  1  0
 63121  1  0
 64122  1  0
 65123  1  0
 65124  1  0
 65125  1  0
 66126  1  0
 68127  1  0
 68128  1  0
 68129  1  0
M  END
> <Uni-Dock RESULT> 
ENERGY=   -6.424  LOWER_BOUND=    0.000  UPPER_BOUND=    0.000
INTER + INTRA:          -6.424
INTER:                  -6.424
INTRA:                   0.000
UNBOUND:                 0.000

$$$$

     RDKit          3D

129139  0  0  0  0  0  0  0  0999 V2000
   43.5287   12.1433    9.1357 C   0  0  0  0  0  0  0  0  0  0  0  0
   44.4453   12.9218    8.3801 C   0  0  0  0  0  0  0  0  0  0  0  0
   43.8287   10.8971    9.7417 C   0  0  0  0  0  0  0  0  0  0  0  0
   42.2214   12.6539    9.2893 C   0  0  0  0  0  0  0  0  0  0  0  0
   42.8728   10.1851   10.4771 C   0  0  0  0  0  0  0  0  0  0  0  0
   41.5778   10.7095   10.6209 C   0  0  0  0  0  0  0  0  0  0  0  0
   41.2642   11.9355   10.0271 C   0  0  0  0  0  0  0  0  0  0  0  0
   44.1031   14.1097    7.8140 N   0  0  0  0  0  0  0  0  0  0  0  0
   48.3710   15.2384    7.3938 C   0  0  0  0  0  0  0  0  0  0  0  0
   45.8731   12.4408    8.1637 C   0  0  0  0  0  0  0  0  0  0  0  0
   48.5042   15.1164    5.9961 C   0  0  0  0  0  0  0  0  0  0  0  0
   47.5190   14.3671    8.0855 C   0  0  0  0  0  0  0  0  0  0  0  0
   46.7960   13.3737    7.4052 C   0  0  0  0  0  0  0  0  0  0  0  0
   47.7766   14.1330    5.3174 C   0  0  0  0  0  0  0  0  0  0  0  0
   46.9259   13.2725    6.0158 C   0  0  0  0  0  0  0  0  0  0  0  0
   42.8480   14.5579    7.9857 C   0  0  0  0  0  0  0  0  0  0  0  0
   43.1039    8.9772   11.0881 O   0  0  0  0  0  0  0  0  0  0  0  0
   40.6983    9.9527   11.3544 O   0  0  0  0  0  0  0  0  0  0  0  0
   49.1161   16.2281    7.9883 O   0  0  0  0  0  0  0  0  0  0  0  0
   49.3640   16.0014    5.3910 O   0  0  0  0  0  0  0  0  0  0  0  0
   41.8860   13.8774    8.7039 C   0  0  0  0  0  0  0  0  0  0  0  0
   44.4070    8.4218   10.9985 C   0  0  0  0  0  0  0  0  0  0  0  0
   48.8835   16.4859    9.3648 C   0  0  0  0  0  0  0  0  0  0  0  0
   39.3803   10.4492   11.5294 C   0  0  0  0  0  0  0  0  0  0  0  0
   49.4572   15.9627    3.9755 C   0  0  0  0  0  0  0  0  0  0  0  0
   44.8406   12.8564    7.5703 C   0  0  2  0  0  0  0  0  0  0  0  0
   44.5009   12.2905    8.9157 C   0  0  0  0  0  0  0  0  0  0  0  0
   45.6006   14.1751    7.7390 C   0  0  2  0  0  0  0  0  0  0  0  0
   43.2933   11.6231    8.8632 C   0  0  0  0  0  0  0  0  0  0  0  0
   43.3914   12.9102    7.0454 C   0  0  1  0  0  0  0  0  0  0  0  0
   42.6712   11.7741    7.6436 O   0  0  0  0  0  0  0  0  0  0  0  0
   46.8284   13.8440    8.6586 C   0  0  1  0  0  0  0  0  0  0  0  0
   45.2133   12.4572   10.0900 C   0  0  0  0  0  0  0  0  0  0  0  0
   44.7335   15.3127    8.2088 C   0  0  0  0  0  0  0  0  0  0  0  0
   46.3854   13.4034   10.0926 C   0  0  0  0  0  0  0  0  0  0  0  0
   47.6724   12.7456    8.1083 N   0  0  0  0  0  0  0  0  0  0  0  0
   45.7268   11.8357    6.8120 C   0  0  0  0  0  0  0  0  0  0  0  0
   43.4069   15.3300    8.0174 C   0  0  0  0  0  0  0  0  0  0  0  0
   42.6240   14.2413    7.3423 C   0  0  2  0  0  0  0  0  0  0  0  0
   42.7959   10.9852    9.9764 C   0  0  0  0  0  0  0  0  0  0  0  0
   47.2190   12.2139    6.8226 C   0  0  0  0  0  0  0  0  0  0  0  0
   44.7161   11.8232   11.2316 C   0  0  0  0  0  0  0  0  0  0  0  0
   43.5226   11.0706   11.1693 C   0  0  0  0  0  0  0  0  0  0  0  0
   41.6051   10.3306    9.9089 O   0  0  0  0  0  0  0  0  0  0  0  0
   41.4537   14.0364    8.1368 O   0  0  0  0  0  0  0  0  0  0  0  0
   49.0850   13.1160    8.0615 C   0  0  0  0  0  0  0  0  0  0  0  0
   45.2805   12.9669    7.2729 C   0  0  2  0  0  0  0  0  0  0  0  0
   44.9672   12.5204    8.6711 C   0  0  0  0  0  0  0  0  0  0  0  0
   45.5351   14.4844    7.2940 C   0  0  2  0  0  0  0  0  0  0  0  0
   44.0074   11.5284    8.6655 C   0  0  0  0  0  0  0  0  0  0  0  0
   43.9746   12.4565    6.6216 C   0  0  1  0  0  0  0  0  0  0  0  0
   43.5112   11.3040    7.4055 O   0  0  0  0  0  0  0  0  0  0  0  0
   46.7294   14.6943    8.2963 C   0  0  2  0  0  0  0  0  0  0  0  0
   47.9635   14.0416    7.7763 N   0  0  0  0  0  0  0  0  0  0  0  0
   45.4849   13.0487    9.8381 C   0  0  0  0  0  0  0  0  0  0  0  0
   44.2806   15.2696    7.6017 C   0  0  0  0  0  0  0  0  0  0  0  0
   46.3019   14.3076    9.7583 C   0  0  0  0  0  0  0  0  0  0  0  0
   46.5362   12.1958    6.7978 C   0  0  0  0  0  0  0  0  0  0  0  0
   43.0685   14.8237    7.2344 C   0  0  0  0  0  0  0  0  0  0  0  0
   42.8713   13.5500    6.4533 C   0  0  2  0  0  0  0  0  0  0  0  0
   43.6069   10.9089    9.8364 C   0  0  0  0  0  0  0  0  0  0  0  0
   47.7681   13.0968    6.6770 C   0  0  0  0  0  0  0  0  0  0  0  0
   45.0897   12.4530   11.0353 C   0  0  0  0  0  0  0  0  0  0  0  0
   44.1774   11.3748   11.0312 C   0  0  0  0  0  0  0  0  0  0  0  0
   48.9135   13.5566    8.7666 C   0  0  0  0  0  0  0  0  0  0  0  0
   41.5678   13.0322    6.6998 O   0  0  0  0  0  0  0  0  0  0  0  0
   42.6855    9.9095    9.7216 O   0  0  0  0  0  0  0  0  0  0  0  0
   42.2146    9.3240   10.9261 C   0  0  0  0  0  0  0  0  0  0  0  0
   44.8269   10.4899    9.6276 H   0  0  0  0  0  0  0  0  0  0  0  0
   40.2686   12.3567   10.1255 H   0  0  0  0  0  0  0  0  0  0  0  0
   46.3303   12.2408    9.1407 H   0  0  0  0  0  0  0  0  0  0  0  0
   45.8395   11.4802    7.6325 H   0  0  0  0  0  0  0  0  0  0  0  0
   47.3935   14.4445    9.1606 H   0  0  0  0  0  0  0  0  0  0  0  0
   47.8437   14.0124    4.2419 H   0  0  0  0  0  0  0  0  0  0  0  0
   46.3574   12.5266    5.4650 H   0  0  0  0  0  0  0  0  0  0  0  0
   42.6279   15.5112    7.5139 H   0  0  0  0  0  0  0  0  0  0  0  0
   40.8920   14.3024    8.7998 H   0  0  0  0  0  0  0  0  0  0  0  0
   44.4073    7.4787   11.5525 H   0  0  0  0  0  0  0  0  0  0  0  0
   44.6695    8.1962    9.9596 H   0  0  0  0  0  0  0  0  0  0  0  0
   45.1503    9.0789   11.4625 H   0  0  0  0  0  0  0  0  0  0  0  0
   47.8356   16.7444    9.5515 H   0  0  0  0  0  0  0  0  0  0  0  0
   49.1997   15.6384    9.9814 H   0  0  0  0  0  0  0  0  0  0  0  0
   49.4929   17.3482    9.6508 H   0  0  0  0  0  0  0  0  0  0  0  0
   39.3842   11.4011   12.0708 H   0  0  0  0  0  0  0  0  0  0  0  0
   38.8609   10.5399   10.5695 H   0  0  0  0  0  0  0  0  0  0  0  0
   38.8283    9.7252   12.1372 H   0  0  0  0  0  0  0  0  0  0  0  0
   49.8670   15.0074    3.6330 H   0  0  0  0  0  0  0  0  0  0  0  0
   48.4896   16.1708    3.5074 H   0  0  0  0  0  0  0  0  0  0  0  0
   50.1511   16.7500    3.6654 H   0  0  0  0  0  0  0  0  0  0  0  0
   45.9808   14.5097    6.7627 H   0  0  0  0  0  0  0  0  0  0  0  0
   43.3775   12.7591    5.9589 H   0  0  0  0  0  0  0  0  0  0  0  0
   47.4282   14.7594    8.7608 H   0  0  0  0  0  0  0  0  0  0  0  0
   45.2149   16.1652    8.6816 H   0  0  0  0  0  0  0  0  0  0  0  0
   46.0917   14.2990   10.6551 H   0  0  0  0  0  0  0  0  0  0  0  0
   47.2277   12.9507   10.6317 H   0  0  0  0  0  0  0  0  0  0  0  0
   45.6115   10.8221    7.2177 H   0  0  0  0  0  0  0  0  0  0  0  0
   45.4186   11.7812    5.7601 H   0  0  0  0  0  0  0  0  0  0  0  0
   42.8324   16.1893    8.3564 H   0  0  0  0  0  0  0  0  0  0  0  0
   42.2703   14.6423    6.3847 H   0  0  0  0  0  0  0  0  0  0  0  0
   47.4117   12.9371    6.0194 H   0  0  0  0  0  0  0  0  0  0  0  0
   47.7972   11.3161    6.5690 H   0  0  0  0  0  0  0  0  0  0  0  0
   45.2345   11.9243   12.1818 H   0  0  0  0  0  0  0  0  0  0  0  0
   43.1600   10.5941   12.0758 H   0  0  0  0  0  0  0  0  0  0  0  0
   41.4052    9.9660   10.7877 H   0  0  0  0  0  0  0  0  0  0  0  0
   41.2620   13.0759    8.0981 H   0  0  0  0  0  0  0  0  0  0  0  0
   49.6986   12.2588    7.7646 H   0  0  0  0  0  0  0  0  0  0  0  0
   49.4367   13.4240    9.0524 H   0  0  0  0  0  0  0  0  0  0  0  0
   49.2698   13.9351    7.3566 H   0  0  0  0  0  0  0  0  0  0  0  0
   45.8458   14.8322    6.2983 H   0  0  0  0  0  0  0  0  0  0  0  0
   44.1750   12.0607    5.6181 H   0  0  0  0  0  0  0  0  0  0  0  0
   46.9647   15.7667    8.3226 H   0  0  0  0  0  0  0  0  0  0  0  0
   44.3764   16.2273    8.1069 H   0  0  0  0  0  0  0  0  0  0  0  0
   47.1556   14.2505   10.4407 H   0  0  0  0  0  0  0  0  0  0  0  0
   45.6734   15.1221   10.1447 H   0  0  0  0  0  0  0  0  0  0  0  0
   46.3598   11.7598    5.8056 H   0  0  0  0  0  0  0  0  0  0  0  0
   46.7743   11.3541    7.4611 H   0  0  0  0  0  0  0  0  0  0  0  0
   42.1963   15.4335    7.4527 H   0  0  0  0  0  0  0  0  0  0  0  0
   42.8783   13.8511    5.3966 H   0  0  0  0  0  0  0  0  0  0  0  0
   47.6814   13.6808    5.7500 H   0  0  0  0  0  0  0  0  0  0  0  0
   48.6583   12.4744    6.5153 H   0  0  0  0  0  0  0  0  0  0  0  0
   45.4620   12.8296   11.9853 H   0  0  0  0  0  0  0  0  0  0  0  0
   43.9066   10.9433   11.9900 H   0  0  0  0  0  0  0  0  0  0  0  0
   48.5423   12.6775    9.3043 H   0  0  0  0  0  0  0  0  0  0  0  0
   49.1648   14.3429    9.4874 H   0  0  0  0  0  0  0  0  0  0  0  0
   49.8609   13.2806    8.2895 H   0  0  0  0  0  0  0  0  0  0  0  0
   40.9291   13.7548    6.6000 H   0  0  0  0  0  0  0  0  0  0  0  0
   41.4652    8.5705   10.6629 H   0  0  0  0  0  0  0  0  0  0  0  0
   43.0242    8.8146   11.4605 H   0  0  0  0  0  0  0  0  0  0  0  0
   41.7267   10.0676   11.5646 H   0  0  0  0  0  0  0  0  0  0  0  0
  2  1  1  0
  3  1  2  0
  4  1  1  0
  5  3  1  0
  6  7  1  0
  7  4  2  0
  8  2  2  0
  9 12  2  0
 10  2  1  0
 11 14  2  0
 12 13  1  0
 13 10  1  0
 14 15  1  0
 15 13  2  0
 16 21  2  0
 17  5  1  0
 18  6  1  0
 19  9  1  0
 20 11  1  0
 21  4  1  0
 22 17  1  0
 23 19  1  0
 24 18  1  0
 25 20  1  0
 16  8  1  0
  6  5  2  0
 11  9  1  0
 27 26  1  0
 28 26  1  0
 29 27  2  0
 30 26  1  0
 30 31  1  0
 32 28  1  0
 33 27  1  0
 28 34  1  0
 32 35  1  0
 36 41  1  0
 26 37  1  1
 38 39  1  0
 39 30  1  0
 40 29  1  0
 41 37  1  0
 42 33  2  0
 43 42  1  0
 44 40  1  0
 39 45  1  0
 46 36  1  0
 29 31  1  0
 32 36  1  0
 38 34  2  0
 35 33  1  0
 43 40  2  0
 48 47  1  0
 49 47  1  0
 50 48  2  0
 51 47  1  0
 52 51  1  0
 53 49  1  0
 54 62  1  0
 55 48  1  0
 49 56  1  0
 53 57  1  0
 47 58  1  1
 59 60  1  0
 60 51  1  0
 61 50  1  0
 62 58  1  0
 63 55  2  0
 64 63  1  0
 65 54  1  0
 60 66  1  0
 67 61  1  0
 68 67  1  0
 52 50  1  0
 53 54  1  0
 59 56  2  0
 57 55  1  0
 64 61  2  0
  3 69  1  0
  7 70  1  0
 10 71  1  0
 10 72  1  0
 12 73  1  0
 14 74  1  0
 15 75  1  0
 16 76  1  0
 21 77  1  0
 22 78  1  0
 22 79  1  0
 22 80  1  0
 23 81  1  0
 23 82  1  0
 23 83  1  0
 24 84  1  0
 24 85  1  0
 24 86  1  0
 25 87  1  0
 25 88  1  0
 25 89  1  0
 28 90  1  1
 30 91  1  1
 32 92  1  6
 34 93  1  0
 35 94  1  0
 35 95  1  0
 37 96  1  0
 37 97  1  0
 38 98  1  0
 39 99  1  1
 41100  1  0
 41101  1  0
 42102  1  0
 43103  1  0
 44104  1  0
 45105  1  0
 46106  1  0
 46107  1  0
 46108  1  0
 49109  1  1
 51110  1  1
 53111  1  6
 56112  1  0
 57113  1  0
 57114  1  0
 58115  1  0
 58116  1  0
 59117  1  0
 60118  1  1
 62119  1  0
 62120  1  0
 63121  1  0
 64122  1  0
 65123  1  0
 65124  1  0
 65125  1  0
 66126  1  0
 68127  1  0
 68128  1  0
 68129  1  0
M  END
> <Uni-Dock RESULT> 
ENERGY=   -5.881  LOWER_BOUND=   11.788  UPPER_BOUND=   14.426
INTER + INTRA:          -5.881
INTER:                  -5.881
INTRA:                   0.000
UNBOUND:                 0.000

$$$$

     RDKit          3D

129139  0  0  0  0  0  0  0  0999 V2000
   51.2773    7.7706   16.3324 C   0  0  0  0  0  0  0  0  0  0  0  0
   50.1155    8.2291   15.6561 C   0  0  0  0  0  0  0  0  0  0  0  0
   52.4610    7.3177   15.6968 C   0  0  0  0  0  0  0  0  0  0  0  0
   51.2431    7.7663   17.7438 C   0  0  0  0  0  0  0  0  0  0  0  0
   53.5719    6.8823   16.4302 C   0  0  0  0  0  0  0  0  0  0  0  0
   53.5205    6.8868   17.8338 C   0  0  0  0  0  0  0  0  0  0  0  0
   52.3598    7.3271   18.4764 C   0  0  0  0  0  0  0  0  0  0  0  0
   49.0025    8.6473   16.3155 N   0  0  0  0  0  0  0  0  0  0  0  0
   47.5435   10.7538   12.6963 C   0  0  0  0  0  0  0  0  0  0  0  0
   50.0687    8.2615   14.1351 C   0  0  0  0  0  0  0  0  0  0  0  0
   46.4771    9.9007   12.3483 C   0  0  0  0  0  0  0  0  0  0  0  0
   48.7012   10.2135   13.2718 C   0  0  0  0  0  0  0  0  0  0  0  0
   48.8136    8.8334   13.5067 C   0  0  0  0  0  0  0  0  0  0  0  0
   46.5853    8.5273   12.5911 C   0  0  0  0  0  0  0  0  0  0  0  0
   47.7421    7.9992   13.1702 C   0  0  0  0  0  0  0  0  0  0  0  0
   49.0138    8.6266   17.6591 C   0  0  0  0  0  0  0  0  0  0  0  0
   54.7447    6.4357   15.8726 O   0  0  0  0  0  0  0  0  0  0  0  0
   54.6478    6.4447   18.4803 O   0  0  0  0  0  0  0  0  0  0  0  0
   47.3619   12.0893   12.4285 O   0  0  0  0  0  0  0  0  0  0  0  0
   45.3801   10.5041   11.7816 O   0  0  0  0  0  0  0  0  0  0  0  0
   50.0931    8.2019   18.4069 C   0  0  0  0  0  0  0  0  0  0  0  0
   54.8569    6.4428   14.4578 C   0  0  0  0  0  0  0  0  0  0  0  0
   48.3426   12.9939   12.9134 C   0  0  0  0  0  0  0  0  0  0  0  0
   54.6403    6.4388   19.8995 C   0  0  0  0  0  0  0  0  0  0  0  0
   44.2549    9.6874   11.4976 C   0  0  0  0  0  0  0  0  0  0  0  0
   49.4601    7.8523   15.1612 C   0  0  2  0  0  0  0  0  0  0  0  0
   50.9093    8.0979   15.4533 C   0  0  0  0  0  0  0  0  0  0  0  0
   48.7422    9.1865   14.9394 C   0  0  2  0  0  0  0  0  0  0  0  0
   51.3880    7.1477   16.3333 C   0  0  0  0  0  0  0  0  0  0  0  0
   49.1632    7.0692   16.4563 C   0  0  1  0  0  0  0  0  0  0  0  0
   50.3865    6.3279   16.8048 O   0  0  0  0  0  0  0  0  0  0  0  0
   49.5425    9.9168   13.8040 C   0  0  1  0  0  0  0  0  0  0  0  0
   51.6787    9.1561   15.0034 C   0  0  0  0  0  0  0  0  0  0  0  0
   48.5479    9.9819   16.2029 C   0  0  0  0  0  0  0  0  0  0  0  0
   51.0007   10.2686   14.2472 C   0  0  0  0  0  0  0  0  0  0  0  0
   49.6516    9.0951   12.5652 N   0  0  0  0  0  0  0  0  0  0  0  0
   49.3521    6.9818   13.8835 C   0  0  0  0  0  0  0  0  0  0  0  0
   48.5272    9.4096   17.4148 C   0  0  0  0  0  0  0  0  0  0  0  0
   48.7060    7.9414   17.6726 C   0  0  2  0  0  0  0  0  0  0  0  0
   52.7097    7.1495   16.7164 C   0  0  0  0  0  0  0  0  0  0  0  0
   48.9782    7.7977   12.6327 C   0  0  0  0  0  0  0  0  0  0  0  0
   53.0209    9.1773   15.3912 C   0  0  0  0  0  0  0  0  0  0  0  0
   53.5400    8.1641   16.2271 C   0  0  0  0  0  0  0  0  0  0  0  0
   53.1669    6.2060   17.5834 O   0  0  0  0  0  0  0  0  0  0  0  0
   49.5909    7.8346   18.7899 O   0  0  0  0  0  0  0  0  0  0  0  0
   49.2447    9.8436   11.3782 C   0  0  0  0  0  0  0  0  0  0  0  0
   49.1090    7.9176   14.7531 C   0  0  2  0  0  0  0  0  0  0  0  0
   50.5279    8.2907   15.0694 C   0  0  0  0  0  0  0  0  0  0  0  0
   48.2106    9.1311   15.0505 C   0  0  2  0  0  0  0  0  0  0  0  0
   51.2073    7.2187   15.6120 C   0  0  0  0  0  0  0  0  0  0  0  0
   49.0250    6.6996   15.7015 C   0  0  1  0  0  0  0  0  0  0  0  0
   50.3794    6.1458   15.8301 O   0  0  0  0  0  0  0  0  0  0  0  0
   48.7645   10.2933   14.1462 C   0  0  2  0  0  0  0  0  0  0  0  0
   48.5951    9.9547   12.7054 N   0  0  0  0  0  0  0  0  0  0  0  0
   51.1009    9.5396   14.9255 C   0  0  0  0  0  0  0  0  0  0  0  0
   48.1340    9.4361   16.5291 C   0  0  0  0  0  0  0  0  0  0  0  0
   50.2121   10.7063   14.5975 C   0  0  0  0  0  0  0  0  0  0  0  0
   49.0426    7.5261   13.2566 C   0  0  0  0  0  0  0  0  0  0  0  0
   48.2306    8.4637   17.4498 C   0  0  0  0  0  0  0  0  0  0  0  0
   48.3692    7.0078   17.0857 C   0  0  2  0  0  0  0  0  0  0  0  0
   52.5541    7.3021   15.9191 C   0  0  0  0  0  0  0  0  0  0  0  0
   48.2853    8.5554   12.4132 C   0  0  0  0  0  0  0  0  0  0  0  0
   52.4544    9.6577   15.2394 C   0  0  0  0  0  0  0  0  0  0  0  0
   53.1804    8.5405   15.7081 C   0  0  0  0  0  0  0  0  0  0  0  0
   49.5722   10.5141   11.7831 C   0  0  0  0  0  0  0  0  0  0  0  0
   49.0110    6.3064   18.1459 O   0  0  0  0  0  0  0  0  0  0  0  0
   53.1461    6.1751   16.4093 O   0  0  0  0  0  0  0  0  0  0  0  0
   54.5076    6.2777   16.7980 C   0  0  0  0  0  0  0  0  0  0  0  0
   52.4998    7.3102   14.6135 H   0  0  0  0  0  0  0  0  0  0  0  0
   52.3000    7.3368   19.5602 H   0  0  0  0  0  0  0  0  0  0  0  0
   50.9217    8.8457   13.7680 H   0  0  0  0  0  0  0  0  0  0  0  0
   50.2074    7.2383   13.7611 H   0  0  0  0  0  0  0  0  0  0  0  0
   49.5336   10.8495   13.5550 H   0  0  0  0  0  0  0  0  0  0  0  0
   45.7842    7.8387   12.3469 H   0  0  0  0  0  0  0  0  0  0  0  0
   47.7970    6.9306   13.3650 H   0  0  0  0  0  0  0  0  0  0  0  0
   48.1006    8.9716   18.1355 H   0  0  0  0  0  0  0  0  0  0  0  0
   50.0288    8.2134   19.4903 H   0  0  0  0  0  0  0  0  0  0  0  0
   55.8539    6.0745   14.1995 H   0  0  0  0  0  0  0  0  0  0  0  0
   54.1255    5.7684   14.0003 H   0  0  0  0  0  0  0  0  0  0  0  0
   54.7652    7.4585   14.0583 H   0  0  0  0  0  0  0  0  0  0  0  0
   48.4546   12.9171   14.0003 H   0  0  0  0  0  0  0  0  0  0  0  0
   49.2999   12.8447   12.4037 H   0  0  0  0  0  0  0  0  0  0  0  0
   48.0023   14.0086   12.6869 H   0  0  0  0  0  0  0  0  0  0  0  0
   54.5182    7.4510   20.2993 H   0  0  0  0  0  0  0  0  0  0  0  0
   53.8718    5.7624   20.2884 H   0  0  0  0  0  0  0  0  0  0  0  0
   55.6120    6.0647   20.2374 H   0  0  0  0  0  0  0  0  0  0  0  0
   44.4942    8.9360   10.7387 H   0  0  0  0  0  0  0  0  0  0  0  0
   43.8614    9.2222   12.4073 H   0  0  0  0  0  0  0  0  0  0  0  0
   43.4701   10.3313   11.0889 H   0  0  0  0  0  0  0  0  0  0  0  0
   47.7207    9.0005   14.5768 H   0  0  0  0  0  0  0  0  0  0  0  0
   48.3798    6.3229   16.2752 H   0  0  0  0  0  0  0  0  0  0  0  0
   49.0244   10.8601   13.5810 H   0  0  0  0  0  0  0  0  0  0  0  0
   48.3772   11.0521   16.1160 H   0  0  0  0  0  0  0  0  0  0  0  0
   50.9607   11.1455   14.9061 H   0  0  0  0  0  0  0  0  0  0  0  0
   51.6080   10.5513   13.3776 H   0  0  0  0  0  0  0  0  0  0  0  0
   50.2836    6.4344   13.6886 H   0  0  0  0  0  0  0  0  0  0  0  0
   48.5717    6.2212   14.0136 H   0  0  0  0  0  0  0  0  0  0  0  0
   48.3590   10.0299   18.2925 H   0  0  0  0  0  0  0  0  0  0  0  0
   47.7399    7.5525   18.0165 H   0  0  0  0  0  0  0  0  0  0  0  0
   47.8886    7.9294   12.6026 H   0  0  0  0  0  0  0  0  0  0  0  0
   49.2372    7.2002   11.7493 H   0  0  0  0  0  0  0  0  0  0  0  0
   53.6696    9.9881   15.0691 H   0  0  0  0  0  0  0  0  0  0  0  0
   54.5866    8.2122   16.5146 H   0  0  0  0  0  0  0  0  0  0  0  0
   54.1082    6.3780   17.7555 H   0  0  0  0  0  0  0  0  0  0  0  0
   50.1424    7.0409   18.6267 H   0  0  0  0  0  0  0  0  0  0  0  0
   49.4413    9.2632   10.4705 H   0  0  0  0  0  0  0  0  0  0  0  0
   49.8231   10.7698   11.2884 H   0  0  0  0  0  0  0  0  0  0  0  0
   48.1790   10.0997   11.4016 H   0  0  0  0  0  0  0  0  0  0  0  0
   47.1733    8.9186   14.7545 H   0  0  0  0  0  0  0  0  0  0  0  0
   48.4283    5.8990   15.2466 H   0  0  0  0  0  0  0  0  0  0  0  0
   48.1328   11.1772   14.3065 H   0  0  0  0  0  0  0  0  0  0  0  0
   47.9695   10.4643   16.8409 H   0  0  0  0  0  0  0  0  0  0  0  0
   50.7018   11.3657   13.8742 H   0  0  0  0  0  0  0  0  0  0  0  0
   50.1140   11.3021   15.5158 H   0  0  0  0  0  0  0  0  0  0  0  0
   48.5192    6.5681   13.1388 H   0  0  0  0  0  0  0  0  0  0  0  0
   50.0424    7.3804   12.8276 H   0  0  0  0  0  0  0  0  0  0  0  0
   48.1435    8.7250   18.5007 H   0  0  0  0  0  0  0  0  0  0  0  0
   47.3429    6.6171   17.0472 H   0  0  0  0  0  0  0  0  0  0  0  0
   47.2079    8.4136   12.5775 H   0  0  0  0  0  0  0  0  0  0  0  0
   48.4234    8.3241   11.3486 H   0  0  0  0  0  0  0  0  0  0  0  0
   52.9575   10.6177   15.1492 H   0  0  0  0  0  0  0  0  0  0  0  0
   54.2327    8.6846   15.9330 H   0  0  0  0  0  0  0  0  0  0  0  0
   50.5588   10.0504   11.8898 H   0  0  0  0  0  0  0  0  0  0  0  0
   49.6645   11.5976   11.9187 H   0  0  0  0  0  0  0  0  0  0  0  0
   49.2479   10.3736   10.7455 H   0  0  0  0  0  0  0  0  0  0  0  0
   48.5770    6.5489   18.9783 H   0  0  0  0  0  0  0  0  0  0  0  0
   54.8178    5.3060   17.1954 H   0  0  0  0  0  0  0  0  0  0  0  0
   55.1478    6.5045   15.9381 H   0  0  0  0  0  0  0  0  0  0  0  0
   54.6386    7.0182   17.5937 H   0  0  0  0  0  0  0  0  0  0  0  0
  2  1  1  0
  3  1  2  0
  4  1  1  0
  5  3  1  0
  6  7  1  0
  7  4  2  0
  8  2  2  0
  9 12  2  0
 10  2  1  0
 11 14  2  0
 12 13  1  0
 13 10  1  0
 14 15  1  0
 15 13  2  0
 16 21  2  0
 17  5  1  0
 18  6  1  0
 19  9  1  0
 20 11  1  0
 21  4  1  0
 22 17  1  0
 23 19  1  0
 24 18  1  0
 25 20  1  0
 16  8  1  0
  6  5  2  0
 11  9  1  0
 27 26  1  0
 28 26  1  0
 29 27  2  0
 30 26  1  0
 30 31  1  0
 32 28  1  0
 33 27  1  0
 28 34  1  0
 32 35  1  0
 36 41  1  0
 26 37  1  1
 38 39  1  0
 39 30  1  0
 40 29  1  0
 41 37  1  0
 42 33  2  0
 43 42  1  0
 44 40  1  0
 39 45  1  0
 46 36  1  0
 29 31  1  0
 32 36  1  0
 38 34  2  0
 35 33  1  0
 43 40  2  0
 48 47  1  0
 49 47  1  0
 50 48  2  0
 51 47  1  0
 52 51  1  0
 53 49  1  0
 54 62  1  0
 55 48  1  0
 49 56  1  0
 53 57  1  0
 47 58  1  1
 59 60  1  0
 60 51  1  0
 61 50  1  0
 62 58  1  0
 63 55  2  0
 64 63  1  0
 65 54  1  0
 60 66  1  0
 67 61  1  0
 68 67  1  0
 52 50  1  0
 53 54  1  0
 59 56  2  0
 57 55  1  0
 64 61  2  0
  3 69  1  0
  7 70  1  0
 10 71  1  0
 10 72  1  0
 12 73  1  0
 14 74  1  0
 15 75  1  0
 16 76  1  0
 21 77  1  0
 22 78  1  0
 22 79  1  0
 22 80  1  0
 23 81  1  0
 23 82  1  0
 23 83  1  0
 24 84  1  0
 24 85  1  0
 24 86  1  0
 25 87  1  0
 25 88  1  0
 25 89  1  0
 28 90  1  1
 30 91  1  1
 32 92  1  6
 34 93  1  0
 35 94  1  0
 35 95  1  0
 37 96  1  0
 37 97  1  0
 38 98  1  0
 39 99  1  1
 41100  1  0
 41101  1  0
 42102  1  0
 43103  1  0
 44104  1  0
 45105  1  0
 46106  1  0
 46107  1  0
 46108  1  0
 49109  1  1
 51110  1  1
 53111  1  6
 56112  1  0
 57113  1  0
 57114  1  0
 58115  1  0
 58116  1  0
 59117  1  0
 60118  1  1
 62119  1  0
 62120  1  0
 63121  1  0
 64122  1  0
 65123  1  0
 65124  1  0
 65125  1  0
 66126  1  0
 68127  1  0
 68128  1  0
 68129  1  0
M  END
> <Uni-Dock RESULT> 
ENERGY=   -5.716  LOWER_BOUND=    4.071  UPPER_BOUND=    5.909
INTER + INTRA:          -5.716
INTER:                  -5.716
INTRA:                   0.000
UNBOUND:                 0.000

$$$$

     RDKit          3D

129139  0  0  0  0  0  0  0  0999 V2000
   45.0776   12.4928    8.5903 C   0  0  0  0  0  0  0  0  0  0  0  0
   45.5193   12.6115    9.9349 C   0  0  0  0  0  0  0  0  0  0  0  0
   45.4172   13.3855    7.5424 C   0  0  0  0  0  0  0  0  0  0  0  0
   44.2353   11.4026    8.2813 C   0  0  0  0  0  0  0  0  0  0  0  0
   44.9460   13.2032    6.2361 C   0  0  0  0  0  0  0  0  0  0  0  0
   44.1106   12.1118    5.9469 C   0  0  0  0  0  0  0  0  0  0  0  0
   43.7633   11.2239    6.9691 C   0  0  0  0  0  0  0  0  0  0  0  0
   45.1577   11.7292   10.9041 N   0  0  0  0  0  0  0  0  0  0  0  0
   48.5118   13.0553   13.4842 C   0  0  0  0  0  0  0  0  0  0  0  0
   46.4261   13.7606   10.3520 C   0  0  0  0  0  0  0  0  0  0  0  0
   47.7828   13.7535   14.4677 C   0  0  0  0  0  0  0  0  0  0  0  0
   48.0656   13.0654   12.1560 C   0  0  0  0  0  0  0  0  0  0  0  0
   46.9019   13.7619   11.7910 C   0  0  0  0  0  0  0  0  0  0  0  0
   46.6184   14.4393   14.1058 C   0  0  0  0  0  0  0  0  0  0  0  0
   46.1792   14.4389   12.7794 C   0  0  0  0  0  0  0  0  0  0  0  0
   44.3549   10.7062   10.5656 C   0  0  0  0  0  0  0  0  0  0  0  0
   45.2417   14.0306    5.1807 O   0  0  0  0  0  0  0  0  0  0  0  0
   43.6898   12.0024    4.6449 O   0  0  0  0  0  0  0  0  0  0  0  0
   49.6425   12.4054   13.9171 O   0  0  0  0  0  0  0  0  0  0  0  0
   48.2881   13.7031   15.7447 O   0  0  0  0  0  0  0  0  0  0  0  0
   43.8752   10.5029    9.2878 C   0  0  0  0  0  0  0  0  0  0  0  0
   46.1087   15.1295    5.4160 C   0  0  0  0  0  0  0  0  0  0  0  0
   50.3078   11.5606   12.9902 C   0  0  0  0  0  0  0  0  0  0  0  0
   42.8488   10.9098    4.3083 C   0  0  0  0  0  0  0  0  0  0  0  0
   47.5337   14.3233   16.7743 C   0  0  0  0  0  0  0  0  0  0  0  0
   45.3493   13.1649   10.6285 C   0  0  2  0  0  0  0  0  0  0  0  0
   45.7476   12.9294    9.2032 C   0  0  0  0  0  0  0  0  0  0  0  0
   46.3106   12.4270   11.5647 C   0  0  2  0  0  0  0  0  0  0  0  0
   44.6299   12.8942    8.3934 C   0  0  0  0  0  0  0  0  0  0  0  0
   43.9107   12.6274   10.4868 C   0  0  1  0  0  0  0  0  0  0  0  0
   43.4616   12.9455    9.1213 O   0  0  0  0  0  0  0  0  0  0  0  0
   47.7477   12.9246   11.1771 C   0  0  1  0  0  0  0  0  0  0  0  0
   47.0243   12.6887    8.7273 C   0  0  0  0  0  0  0  0  0  0  0  0
   46.1246   10.9330   11.5612 C   0  0  0  0  0  0  0  0  0  0  0  0
   48.1407   12.5065    9.7221 C   0  0  0  0  0  0  0  0  0  0  0  0
   47.8766   14.4076   11.2526 N   0  0  0  0  0  0  0  0  0  0  0  0
   45.4065   14.6872   10.9146 C   0  0  0  0  0  0  0  0  0  0  0  0
   44.9689   10.3548   11.2051 C   0  0  0  0  0  0  0  0  0  0  0  0
   43.7418   11.0955   10.7582 C   0  0  2  0  0  0  0  0  0  0  0  0
   44.7547   12.7288    7.0330 C   0  0  0  0  0  0  0  0  0  0  0  0
   46.6672   15.1031   11.6940 C   0  0  0  0  0  0  0  0  0  0  0  0
   47.1665   12.5095    7.3489 C   0  0  0  0  0  0  0  0  0  0  0  0
   46.0372   12.5520    6.5018 C   0  0  0  0  0  0  0  0  0  0  0  0
   43.6440   12.6974    6.2478 O   0  0  0  0  0  0  0  0  0  0  0  0
   43.2366   10.3880    9.6237 O   0  0  0  0  0  0  0  0  0  0  0  0
   49.0395   14.8134   12.0384 C   0  0  0  0  0  0  0  0  0  0  0  0
   45.5466   13.4041   11.0736 C   0  0  2  0  0  0  0  0  0  0  0  0
   46.0202   13.0667    9.6899 C   0  0  0  0  0  0  0  0  0  0  0  0
   46.0627   12.3233   12.0398 C   0  0  2  0  0  0  0  0  0  0  0  0
   45.0607   13.3885    8.7513 C   0  0  0  0  0  0  0  0  0  0  0  0
   44.0354   13.4284   10.7481 C   0  0  1  0  0  0  0  0  0  0  0  0
   43.8937   13.8115    9.3372 O   0  0  0  0  0  0  0  0  0  0  0  0
   47.6292   12.3466   11.8955 C   0  0  2  0  0  0  0  0  0  0  0  0
   48.1728   13.6546   12.3571 N   0  0  0  0  0  0  0  0  0  0  0  0
   47.2109   12.4506    9.3562 C   0  0  0  0  0  0  0  0  0  0  0  0
   45.4063   10.9827   11.8002 C   0  0  0  0  0  0  0  0  0  0  0  0
   48.0614   11.8828   10.4576 C   0  0  0  0  0  0  0  0  0  0  0  0
   46.1097   14.7984   11.4420 C   0  0  0  0  0  0  0  0  0  0  0  0
   44.1468   10.8922   11.3439 C   0  0  0  0  0  0  0  0  0  0  0  0
   43.2842   12.1012   11.0876 C   0  0  2  0  0  0  0  0  0  0  0  0
   45.2991   13.2329    7.3970 C   0  0  0  0  0  0  0  0  0  0  0  0
   47.1929   14.7279   12.5218 C   0  0  0  0  0  0  0  0  0  0  0  0
   47.4736   12.2687    7.9989 C   0  0  0  0  0  0  0  0  0  0  0  0
   46.5353   12.6805    7.0269 C   0  0  0  0  0  0  0  0  0  0  0  0
   49.4006   14.1125   11.7236 C   0  0  0  0  0  0  0  0  0  0  0  0
   42.2938   11.7870   10.1139 O   0  0  0  0  0  0  0  0  0  0  0  0
   44.3052   13.6210    6.5470 O   0  0  0  0  0  0  0  0  0  0  0  0
   44.5143   13.3919    5.1617 C   0  0  0  0  0  0  0  0  0  0  0  0
   46.0586   14.2303    7.7658 H   0  0  0  0  0  0  0  0  0  0  0  0
   43.1176   10.3753    6.7660 H   0  0  0  0  0  0  0  0  0  0  0  0
   47.3137   13.7620    9.7071 H   0  0  0  0  0  0  0  0  0  0  0  0
   45.9002   14.7055   10.1608 H   0  0  0  0  0  0  0  0  0  0  0  0
   48.6049   12.5302   11.3812 H   0  0  0  0  0  0  0  0  0  0  0  0
   46.0241   14.9805   14.8335 H   0  0  0  0  0  0  0  0  0  0  0  0
   45.2621   14.9649   12.5244 H   0  0  0  0  0  0  0  0  0  0  0  0
   44.0977   10.0311   11.3767 H   0  0  0  0  0  0  0  0  0  0  0  0
   43.2300    9.6530    9.0893 H   0  0  0  0  0  0  0  0  0  0  0  0
   46.2419   15.6592    4.4684 H   0  0  0  0  0  0  0  0  0  0  0  0
   45.6691   15.8334    6.1304 H   0  0  0  0  0  0  0  0  0  0  0  0
   47.0961   14.7910    5.7480 H   0  0  0  0  0  0  0  0  0  0  0  0
   49.6395   10.7810   12.6090 H   0  0  0  0  0  0  0  0  0  0  0  0
   50.7459   12.1430   12.1732 H   0  0  0  0  0  0  0  0  0  0  0  0
   51.1271   11.0646   13.5188 H   0  0  0  0  0  0  0  0  0  0  0  0
   43.3555    9.9536    4.4758 H   0  0  0  0  0  0  0  0  0  0  0  0
   41.9002   10.9580    4.8535 H   0  0  0  0  0  0  0  0  0  0  0  0
   42.6203   10.9806    3.2401 H   0  0  0  0  0  0  0  0  0  0  0  0
   47.4685   15.4047   16.6190 H   0  0  0  0  0  0  0  0  0  0  0  0
   46.5394   13.8740   16.8646 H   0  0  0  0  0  0  0  0  0  0  0  0
   48.0593   14.1565   17.7196 H   0  0  0  0  0  0  0  0  0  0  0  0
   46.1121   12.7222   12.6054 H   0  0  0  0  0  0  0  0  0  0  0  0
   43.2399   13.1580   11.1739 H   0  0  0  0  0  0  0  0  0  0  0  0
   48.4635   12.4528   11.8651 H   0  0  0  0  0  0  0  0  0  0  0  0
   46.9490   10.3112   11.9013 H   0  0  0  0  0  0  0  0  0  0  0  0
   48.4133   11.4432    9.7285 H   0  0  0  0  0  0  0  0  0  0  0  0
   49.0284   13.0607    9.3906 H   0  0  0  0  0  0  0  0  0  0  0  0
   45.3483   15.2739    9.9885 H   0  0  0  0  0  0  0  0  0  0  0  0
   44.5426   14.9867   11.5215 H   0  0  0  0  0  0  0  0  0  0  0  0
   44.8828    9.2711   11.2445 H   0  0  0  0  0  0  0  0  0  0  0  0
   42.9874   10.9781   11.5456 H   0  0  0  0  0  0  0  0  0  0  0  0
   46.4983   14.9354   12.7657 H   0  0  0  0  0  0  0  0  0  0  0  0
   46.7981   16.1860   11.5723 H   0  0  0  0  0  0  0  0  0  0  0  0
   48.1470   12.3135    6.9221 H   0  0  0  0  0  0  0  0  0  0  0  0
   46.1810   12.4039    5.4352 H   0  0  0  0  0  0  0  0  0  0  0  0
   43.9226   12.5501    5.3280 H   0  0  0  0  0  0  0  0  0  0  0  0
   42.8712   11.0672    9.0188 H   0  0  0  0  0  0  0  0  0  0  0  0
   49.1813   15.8981   11.9848 H   0  0  0  0  0  0  0  0  0  0  0  0
   49.9532   14.3587   11.6396 H   0  0  0  0  0  0  0  0  0  0  0  0
   48.9405   14.5286   13.0924 H   0  0  0  0  0  0  0  0  0  0  0  0
   45.8006   12.5820   13.0757 H   0  0  0  0  0  0  0  0  0  0  0  0
   43.5333   14.2229   11.3143 H   0  0  0  0  0  0  0  0  0  0  0  0
   48.0442   11.6051   12.5912 H   0  0  0  0  0  0  0  0  0  0  0  0
   45.9658   10.0801   12.0320 H   0  0  0  0  0  0  0  0  0  0  0  0
   49.1201   12.0758   10.2582 H   0  0  0  0  0  0  0  0  0  0  0  0
   47.9512   10.7901   10.4163 H   0  0  0  0  0  0  0  0  0  0  0  0
   45.3084   15.4389   11.8336 H   0  0  0  0  0  0  0  0  0  0  0  0
   46.5143   15.3205   10.5653 H   0  0  0  0  0  0  0  0  0  0  0  0
   43.7057    9.9082   11.2116 H   0  0  0  0  0  0  0  0  0  0  0  0
   42.7375   12.2742   12.0249 H   0  0  0  0  0  0  0  0  0  0  0  0
   46.7037   14.5831   13.4952 H   0  0  0  0  0  0  0  0  0  0  0  0
   47.6784   15.7087   12.6130 H   0  0  0  0  0  0  0  0  0  0  0  0
   48.3934   11.7856    7.6774 H   0  0  0  0  0  0  0  0  0  0  0  0
   46.7909   12.5211    5.9838 H   0  0  0  0  0  0  0  0  0  0  0  0
   49.2435   14.4193   10.6840 H   0  0  0  0  0  0  0  0  0  0  0  0
   50.1737   13.3367   11.7596 H   0  0  0  0  0  0  0  0  0  0  0  0
   49.8177   14.9694   12.2651 H   0  0  0  0  0  0  0  0  0  0  0  0
   41.8753   10.9490   10.3643 H   0  0  0  0  0  0  0  0  0  0  0  0
   43.6194   13.7261    4.6270 H   0  0  0  0  0  0  0  0  0  0  0  0
   45.3621   13.9770    4.7882 H   0  0  0  0  0  0  0  0  0  0  0  0
   44.6471   12.3258    4.9513 H   0  0  0  0  0  0  0  0  0  0  0  0
  2  1  1  0
  3  1  2  0
  4  1  1  0
  5  3  1  0
  6  7  1  0
  7  4  2  0
  8  2  2  0
  9 12  2  0
 10  2  1  0
 11 14  2  0
 12 13  1  0
 13 10  1  0
 14 15  1  0
 15 13  2  0
 16 21  2  0
 17  5  1  0
 18  6  1  0
 19  9  1  0
 20 11  1  0
 21  4  1  0
 22 17  1  0
 23 19  1  0
 24 18  1  0
 25 20  1  0
 16  8  1  0
  6  5  2  0
 11  9  1  0
 27 26  1  0
 28 26  1  0
 29 27  2  0
 30 26  1  0
 30 31  1  0
 32 28  1  0
 33 27  1  0
 28 34  1  0
 32 35  1  0
 36 41  1  0
 26 37  1  1
 38 39  1  0
 39 30  1  0
 40 29  1  0
 41 37  1  0
 42 33  2  0
 43 42  1  0
 44 40  1  0
 39 45  1  0
 46 36  1  0
 29 31  1  0
 32 36  1  0
 38 34  2  0
 35 33  1  0
 43 40  2  0
 48 47  1  0
 49 47  1  0
 50 48  2  0
 51 47  1  0
 52 51  1  0
 53 49  1  0
 54 62  1  0
 55 48  1  0
 49 56  1  0
 53 57  1  0
 47 58  1  1
 59 60  1  0
 60 51  1  0
 61 50  1  0
 62 58  1  0
 63 55  2  0
 64 63  1  0
 65 54  1  0
 60 66  1  0
 67 61  1  0
 68 67  1  0
 52 50  1  0
 53 54  1  0
 59 56  2  0
 57 55  1  0
 64 61  2  0
  3 69  1  0
  7 70  1  0
 10 71  1  0
 10 72  1  0
 12 73  1  0
 14 74  1  0
 15 75  1  0
 16 76  1  0
 21 77  1  0
 22 78  1  0
 22 79  1  0
 22 80  1  0
 23 81  1  0
 23 82  1  0
 23 83  1  0
 24 84  1  0
 24 85  1  0
 24 86  1  0
 25 87  1  0
 25 88  1  0
 25 89  1  0
 28 90  1  1
 30 91  1  1
 32 92  1  6
 34 93  1  0
 35 94  1  0
 35 95  1  0
 37 96  1  0
 37 97  1  0
 38 98  1  0
 39 99  1  1
 41100  1  0
 41101  1  0
 42102  1  0
 43103  1  0
 44104  1  0
 45105  1  0
 46106  1  0
 46107  1  0
 46108  1  0
 49109  1  1
 51110  1  1
 53111  1  6
 56112  1  0
 57113  1  0
 57114  1  0
 58115  1  0
 58116  1  0
 59117  1  0
 60118  1  1
 62119  1  0
 62120  1  0
 63121  1  0
 64122  1  0
 65123  1  0
 65124  1  0
 65125  1  0
 66126  1  0
 68127  1  0
 68128  1  0
 68129  1  0
M  END
> <Uni-Dock RESULT> 
ENERGY=   -5.686  LOWER_BOUND=   10.315  UPPER_BOUND=   12.818
INTER + INTRA:          -5.686
INTER:                  -5.686
INTRA:                   0.000
UNBOUND:                 0.000

$$$$

     RDKit          3D

129139  0  0  0  0  0  0  0  0999 V2000
   43.8897   12.3090    8.5032 C   0  0  0  0  0  0  0  0  0  0  0  0
   43.0814   12.5011    9.6551 C   0  0  0  0  0  0  0  0  0  0  0  0
   43.4279   11.8003    7.2630 C   0  0  0  0  0  0  0  0  0  0  0  0
   45.2556   12.6505    8.6089 C   0  0  0  0  0  0  0  0  0  0  0  0
   44.2841   11.6408    6.1662 C   0  0  0  0  0  0  0  0  0  0  0  0
   45.6396   11.9877    6.2891 C   0  0  0  0  0  0  0  0  0  0  0  0
   46.1122   12.4876    7.5060 C   0  0  0  0  0  0  0  0  0  0  0  0
   43.5773   12.9872   10.8240 N   0  0  0  0  0  0  0  0  0  0  0  0
   39.4994   14.0246   12.2239 C   0  0  0  0  0  0  0  0  0  0  0  0
   41.5996   12.1539    9.6263 C   0  0  0  0  0  0  0  0  0  0  0  0
   39.3393   13.0371   13.2165 C   0  0  0  0  0  0  0  0  0  0  0  0
   40.2305   13.7283   11.0659 C   0  0  0  0  0  0  0  0  0  0  0  0
   40.8061   12.4606   10.8806 C   0  0  0  0  0  0  0  0  0  0  0  0
   39.9206   11.7775   13.0362 C   0  0  0  0  0  0  0  0  0  0  0  0
   40.6521   11.4938   11.8801 C   0  0  0  0  0  0  0  0  0  0  0  0
   44.8831   13.2994   10.8799 C   0  0  0  0  0  0  0  0  0  0  0  0
   43.8959   11.1567    4.9411 O   0  0  0  0  0  0  0  0  0  0  0  0
   46.4139   11.8016    5.1711 O   0  0  0  0  0  0  0  0  0  0  0  0
   38.9008   15.2360   12.4737 O   0  0  0  0  0  0  0  0  0  0  0  0
   38.6029   13.4010   14.3184 O   0  0  0  0  0  0  0  0  0  0  0  0
   45.7494   13.1517    9.8160 C   0  0  0  0  0  0  0  0  0  0  0  0
   42.5286   10.8227    4.7576 C   0  0  0  0  0  0  0  0  0  0  0  0
   39.1777   16.3009   11.5766 C   0  0  0  0  0  0  0  0  0  0  0  0
   47.7886   12.1454    5.2505 C   0  0  0  0  0  0  0  0  0  0  0  0
   38.4936   12.4601   15.3751 C   0  0  0  0  0  0  0  0  0  0  0  0
   42.6742   11.9674   10.2599 C   0  0  2  0  0  0  0  0  0  0  0  0
   42.9448   12.3817    8.8454 C   0  0  0  0  0  0  0  0  0  0  0  0
   42.1021   13.1501   11.0466 C   0  0  2  0  0  0  0  0  0  0  0  0
   44.0499   11.7153    8.3545 C   0  0  0  0  0  0  0  0  0  0  0  0
   44.1128   11.5086   10.5736 C   0  0  1  0  0  0  0  0  0  0  0  0
   44.6767   10.9667    9.3262 O   0  0  0  0  0  0  0  0  0  0  0  0
   40.8483   13.6337   10.2360 C   0  0  1  0  0  0  0  0  0  0  0  0
   42.2715   13.3492    8.1208 C   0  0  0  0  0  0  0  0  0  0  0  0
   43.1198   14.2163   11.3537 C   0  0  0  0  0  0  0  0  0  0  0  0
   41.2390   14.1887    8.8269 C   0  0  0  0  0  0  0  0  0  0  0  0
   39.8582   12.5420   10.0135 N   0  0  0  0  0  0  0  0  0  0  0  0
   41.6511   10.8031   10.2488 C   0  0  0  0  0  0  0  0  0  0  0  0
   44.4347   13.9606   11.4007 C   0  0  0  0  0  0  0  0  0  0  0  0
   45.0567   12.6183   11.1451 C   0  0  2  0  0  0  0  0  0  0  0  0
   44.4651   11.9072    7.0566 C   0  0  0  0  0  0  0  0  0  0  0  0
   40.2244   11.2561   10.6081 C   0  0  0  0  0  0  0  0  0  0  0  0
   42.6871   13.5625    6.8040 C   0  0  0  0  0  0  0  0  0  0  0  0
   43.7666   12.8272    6.2667 C   0  0  0  0  0  0  0  0  0  0  0  0
   45.5552   11.2424    6.5868 O   0  0  0  0  0  0  0  0  0  0  0  0
   46.1947   12.8548   10.3134 O   0  0  0  0  0  0  0  0  0  0  0  0
   38.5088   12.9431   10.4048 C   0  0  0  0  0  0  0  0  0  0  0  0
   42.2509   11.9044   10.5932 C   0  0  2  0  0  0  0  0  0  0  0  0
   42.5121   12.4458    9.2180 C   0  0  0  0  0  0  0  0  0  0  0  0
   42.2054   13.0854   11.5787 C   0  0  2  0  0  0  0  0  0  0  0  0
   43.3279   11.5928    8.5022 C   0  0  0  0  0  0  0  0  0  0  0  0
   43.4699   10.9551   10.6500 C   0  0  1  0  0  0  0  0  0  0  0  0
   43.7786   10.5499    9.2723 O   0  0  0  0  0  0  0  0  0  0  0  0
   41.0590   14.0256   11.0522 C   0  0  2  0  0  0  0  0  0  0  0  0
   39.7434   13.3307   11.1268 N   0  0  0  0  0  0  0  0  0  0  0  0
   42.0807   13.6587    8.7165 C   0  0  0  0  0  0  0  0  0  0  0  0
   43.5576   13.7393   11.7492 C   0  0  0  0  0  0  0  0  0  0  0  0
   41.4420   14.6409    9.6578 C   0  0  0  0  0  0  0  0  0  0  0  0
   40.8981   11.1522   10.5590 C   0  0  0  0  0  0  0  0  0  0  0  0
   44.6946   13.0336   11.6398 C   0  0  0  0  0  0  0  0  0  0  0  0
   44.7102   11.5469   11.3933 C   0  0  2  0  0  0  0  0  0  0  0  0
   43.6501   11.8468    7.1805 C   0  0  0  0  0  0  0  0  0  0  0  0
   39.7993   11.8840   11.3343 C   0  0  0  0  0  0  0  0  0  0  0  0
   42.4011   13.9483    7.3907 C   0  0  0  0  0  0  0  0  0  0  0  0
   43.1582   13.0368    6.6219 C   0  0  0  0  0  0  0  0  0  0  0  0
   38.7444   13.7146   10.1403 C   0  0  0  0  0  0  0  0  0  0  0  0
   45.9331   11.1771   10.7643 O   0  0  0  0  0  0  0  0  0  0  0  0
   44.4259   10.9214    6.5459 O   0  0  0  0  0  0  0  0  0  0  0  0
   44.8228   11.2151    5.2148 C   0  0  0  0  0  0  0  0  0  0  0  0
   42.3827   11.5286    7.1687 H   0  0  0  0  0  0  0  0  0  0  0  0
   47.1566   12.7599    7.6214 H   0  0  0  0  0  0  0  0  0  0  0  0
   41.1276   12.6896    8.7933 H   0  0  0  0  0  0  0  0  0  0  0  0
   41.4978   11.0828    9.4058 H   0  0  0  0  0  0  0  0  0  0  0  0
   40.3743   14.4730   10.2898 H   0  0  0  0  0  0  0  0  0  0  0  0
   39.8289   10.9938   13.7798 H   0  0  0  0  0  0  0  0  0  0  0  0
   41.1092   10.5132   11.7693 H   0  0  0  0  0  0  0  0  0  0  0  0
   45.2270   13.6842   11.8357 H   0  0  0  0  0  0  0  0  0  0  0  0
   46.7928   13.4253    9.9359 H   0  0  0  0  0  0  0  0  0  0  0  0
   42.4046   10.4753    3.7280 H   0  0  0  0  0  0  0  0  0  0  0  0
   42.2293   10.0051    5.4218 H   0  0  0  0  0  0  0  0  0  0  0  0
   41.8855   11.6991    4.8914 H   0  0  0  0  0  0  0  0  0  0  0  0
   40.2525   16.5028   11.5156 H   0  0  0  0  0  0  0  0  0  0  0  0
   38.7542   16.1003   10.5872 H   0  0  0  0  0  0  0  0  0  0  0  0
   38.6936   17.2009   11.9670 H   0  0  0  0  0  0  0  0  0  0  0  0
   47.9187   13.2133    5.4551 H   0  0  0  0  0  0  0  0  0  0  0  0
   48.3076   11.5319    5.9946 H   0  0  0  0  0  0  0  0  0  0  0  0
   48.2420   11.9375    4.2761 H   0  0  0  0  0  0  0  0  0  0  0  0
   37.9548   11.5641   15.0515 H   0  0  0  0  0  0  0  0  0  0  0  0
   39.4767   12.2065   15.7850 H   0  0  0  0  0  0  0  0  0  0  0  0
   37.9107   12.9247   16.1763 H   0  0  0  0  0  0  0  0  0  0  0  0
   41.7629   12.8069   12.0349 H   0  0  0  0  0  0  0  0  0  0  0  0
   44.0971   10.6859   11.2992 H   0  0  0  0  0  0  0  0  0  0  0  0
   40.3795   14.4528   10.7994 H   0  0  0  0  0  0  0  0  0  0  0  0
   42.7628   15.2167   11.5855 H   0  0  0  0  0  0  0  0  0  0  0  0
   41.6565   15.1958    8.9544 H   0  0  0  0  0  0  0  0  0  0  0  0
   40.3475   14.2913    8.1947 H   0  0  0  0  0  0  0  0  0  0  0  0
   41.6308   10.2936    9.2766 H   0  0  0  0  0  0  0  0  0  0  0  0
   41.9403   10.0437   10.9864 H   0  0  0  0  0  0  0  0  0  0  0  0
   45.1236   14.7644   11.6514 H   0  0  0  0  0  0  0  0  0  0  0  0
   45.4537   12.2573   12.1016 H   0  0  0  0  0  0  0  0  0  0  0  0
   40.1253   11.2970   11.7008 H   0  0  0  0  0  0  0  0  0  0  0  0
   39.5273   10.4795   10.2681 H   0  0  0  0  0  0  0  0  0  0  0  0
   42.1951   14.3136    6.1911 H   0  0  0  0  0  0  0  0  0  0  0  0
   44.0684   13.0204    5.2410 H   0  0  0  0  0  0  0  0  0  0  0  0
   45.7108   11.5192    5.6679 H   0  0  0  0  0  0  0  0  0  0  0  0
   46.2536   12.0874    9.7063 H   0  0  0  0  0  0  0  0  0  0  0  0
   37.7818   12.1725   10.1268 H   0  0  0  0  0  0  0  0  0  0  0  0
   38.2104   13.8579    9.8809 H   0  0  0  0  0  0  0  0  0  0  0  0
   38.4313   13.1192   11.4841 H   0  0  0  0  0  0  0  0  0  0  0  0
   41.9367   12.7319   12.5845 H   0  0  0  0  0  0  0  0  0  0  0  0
   43.2092   10.0260   11.1722 H   0  0  0  0  0  0  0  0  0  0  0  0
   40.9721   14.8736   11.7446 H   0  0  0  0  0  0  0  0  0  0  0  0
   43.5971   14.7980   11.9925 H   0  0  0  0  0  0  0  0  0  0  0  0
   40.5941   15.1352    9.1735 H   0  0  0  0  0  0  0  0  0  0  0  0
   42.1786   15.4361    9.8391 H   0  0  0  0  0  0  0  0  0  0  0  0
   41.0054   10.1594   11.0156 H   0  0  0  0  0  0  0  0  0  0  0  0
   40.5533   10.9779    9.5315 H   0  0  0  0  0  0  0  0  0  0  0  0
   45.6434   13.5391   11.7964 H   0  0  0  0  0  0  0  0  0  0  0  0
   44.7355   11.0856   12.3902 H   0  0  0  0  0  0  0  0  0  0  0  0
   39.9570   11.7094   12.4079 H   0  0  0  0  0  0  0  0  0  0  0  0
   38.8314   11.4079   11.1282 H   0  0  0  0  0  0  0  0  0  0  0  0
   42.0914   14.8902    6.9438 H   0  0  0  0  0  0  0  0  0  0  0  0
   43.3756   13.3078    5.5933 H   0  0  0  0  0  0  0  0  0  0  0  0
   38.9970   13.3643    9.1337 H   0  0  0  0  0  0  0  0  0  0  0  0
   38.6084   14.8019   10.1221 H   0  0  0  0  0  0  0  0  0  0  0  0
   37.7643   13.2994   10.4021 H   0  0  0  0  0  0  0  0  0  0  0  0
   46.6634   11.5854   11.2542 H   0  0  0  0  0  0  0  0  0  0  0  0
   45.4604   10.3965    4.8659 H   0  0  0  0  0  0  0  0  0  0  0  0
   43.9558   11.2685    4.5469 H   0  0  0  0  0  0  0  0  0  0  0  0
   45.4125   12.1364    5.1705 H   0  0  0  0  0  0  0  0  0  0  0  0
  2  1  1  0
  3  1  2  0
  4  1  1  0
  5  3  1  0
  6  7  1  0
  7  4  2  0
  8  2  2  0
  9 12  2  0
 10  2  1  0
 11 14  2  0
 12 13  1  0
 13 10  1  0
 14 15  1  0
 15 13  2  0
 16 21  2  0
 17  5  1  0
 18  6  1  0
 19  9  1  0
 20 11  1  0
 21  4  1  0
 22 17  1  0
 23 19  1  0
 24 18  1  0
 25 20  1  0
 16  8  1  0
  6  5  2  0
 11  9  1  0
 27 26  1  0
 28 26  1  0
 29 27  2  0
 30 26  1  0
 30 31  1  0
 32 28  1  0
 33 27  1  0
 28 34  1  0
 32 35  1  0
 36 41  1  0
 26 37  1  1
 38 39  1  0
 39 30  1  0
 40 29  1  0
 41 37  1  0
 42 33  2  0
 43 42  1  0
 44 40  1  0
 39 45  1  0
 46 36  1  0
 29 31  1  0
 32 36  1  0
 38 34  2  0
 35 33  1  0
 43 40  2  0
 48 47  1  0
 49 47  1  0
 50 48  2  0
 51 47  1  0
 52 51  1  0
 53 49  1  0
 54 62  1  0
 55 48  1  0
 49 56  1  0
 53 57  1  0
 47 58  1  1
 59 60  1  0
 60 51  1  0
 61 50  1  0
 62 58  1  0
 63 55  2  0
 64 63  1  0
 65 54  1  0
 60 66  1  0
 67 61  1  0
 68 67  1  0
 52 50  1  0
 53 54  1  0
 59 56  2  0
 57 55  1  0
 64 61  2  0
  3 69  1  0
  7 70  1  0
 10 71  1  0
 10 72  1  0
 12 73  1  0
 14 74  1  0
 15 75  1  0
 16 76  1  0
 21 77  1  0
 22 78  1  0
 22 79  1  0
 22 80  1  0
 23 81  1  0
 23 82  1  0
 23 83  1  0
 24 84  1  0
 24 85  1  0
 24 86  1  0
 25 87  1  0
 25 88  1  0
 25 89  1  0
 28 90  1  1
 30 91  1  1
 32 92  1  6
 34 93  1  0
 35 94  1  0
 35 95  1  0
 37 96  1  0
 37 97  1  0
 38 98  1  0
 39 99  1  1
 41100  1  0
 41101  1  0
 42102  1  0
 43103  1  0
 44104  1  0
 45105  1  0
 46106  1  0
 46107  1  0
 46108  1  0
 49109  1  1
 51110  1  1
 53111  1  6
 56112  1  0
 57113  1  0
 57114  1  0
 58115  1  0
 58116  1  0
 59117  1  0
 60118  1  1
 62119  1  0
 62120  1  0
 63121  1  0
 64122  1  0
 65123  1  0
 65124  1  0
 65125  1  0
 66126  1  0
 68127  1  0
 68128  1  0
 68129  1  0
M  END
> <Uni-Dock RESULT> 
ENERGY=   -5.674  LOWER_BOUND=   11.324  UPPER_BOUND=   14.179
INTER + INTRA:          -5.674
INTER:                  -5.674
INTRA:                   0.000
UNBOUND:                 0.000

$$$$

     RDKit          3D

129139  0  0  0  0  0  0  0  0999 V2000
   49.3257    9.2652   17.5020 C   0  0  0  0  0  0  0  0  0  0  0  0
   49.9404    7.9863   17.4405 C   0  0  0  0  0  0  0  0  0  0  0  0
   48.5273    9.7312   18.5771 C   0  0  0  0  0  0  0  0  0  0  0  0
   49.5274   10.1318   16.4058 C   0  0  0  0  0  0  0  0  0  0  0  0
   47.9545   11.0092   18.5706 C   0  0  0  0  0  0  0  0  0  0  0  0
   48.1675   11.8585   17.4724 C   0  0  0  0  0  0  0  0  0  0  0  0
   48.9494   11.4134   16.4025 C   0  0  0  0  0  0  0  0  0  0  0  0
   50.6924    7.5865   16.3807 N   0  0  0  0  0  0  0  0  0  0  0  0
   52.5500    4.3685   18.8012 C   0  0  0  0  0  0  0  0  0  0  0  0
   49.7692    6.9907   18.5790 C   0  0  0  0  0  0  0  0  0  0  0  0
   51.9260    3.2498   18.2136 C   0  0  0  0  0  0  0  0  0  0  0  0
   51.8433    5.5729   18.9163 C   0  0  0  0  0  0  0  0  0  0  0  0
   50.5214    5.6808   18.4542 C   0  0  0  0  0  0  0  0  0  0  0  0
   50.6126    3.3601   17.7446 C   0  0  0  0  0  0  0  0  0  0  0  0
   49.9183    4.5672   17.8595 C   0  0  0  0  0  0  0  0  0  0  0  0
   50.8583    8.4435   15.3591 C   0  0  0  0  0  0  0  0  0  0  0  0
   47.1756   11.5169   19.5813 O   0  0  0  0  0  0  0  0  0  0  0  0
   47.5723   13.0935   17.5401 O   0  0  0  0  0  0  0  0  0  0  0  0
   53.8402    4.1824   19.2358 O   0  0  0  0  0  0  0  0  0  0  0  0
   52.6807    2.1034   18.1440 O   0  0  0  0  0  0  0  0  0  0  0  0
   50.3052    9.7074   15.3256 C   0  0  0  0  0  0  0  0  0  0  0  0
   46.9582   10.7084   20.7274 C   0  0  0  0  0  0  0  0  0  0  0  0
   54.5528    5.3266   19.6812 C   0  0  0  0  0  0  0  0  0  0  0  0
   47.7673   13.9854   16.4535 C   0  0  0  0  0  0  0  0  0  0  0  0
   52.1142    0.9834   17.4818 C   0  0  0  0  0  0  0  0  0  0  0  0
   49.6595    7.1346   17.3308 C   0  0  2  0  0  0  0  0  0  0  0  0
   49.6024    8.4561   18.0351 C   0  0  0  0  0  0  0  0  0  0  0  0
   51.0788    6.5651   17.4102 C   0  0  2  0  0  0  0  0  0  0  0  0
   48.7005    9.2935   17.4092 C   0  0  0  0  0  0  0  0  0  0  0  0
   49.1557    7.6537   15.9687 C   0  0  1  0  0  0  0  0  0  0  0  0
   48.2084    8.7464   16.2448 O   0  0  0  0  0  0  0  0  0  0  0  0
   51.4380    6.5291   18.9375 C   0  0  1  0  0  0  0  0  0  0  0  0
   50.3807    8.8604   19.1052 C   0  0  0  0  0  0  0  0  0  0  0  0
   52.0666    7.2887   16.5342 C   0  0  0  0  0  0  0  0  0  0  0  0
   51.5023    7.9630   19.5590 C   0  0  0  0  0  0  0  0  0  0  0  0
   50.4480    5.7533   19.7373 N   0  0  0  0  0  0  0  0  0  0  0  0
   48.6671    6.1627   18.0183 C   0  0  0  0  0  0  0  0  0  0  0  0
   51.6903    7.9870   15.4537 C   0  0  0  0  0  0  0  0  0  0  0  0
   50.2715    8.1523   14.9913 C   0  0  2  0  0  0  0  0  0  0  0  0
   48.4509   10.5521   17.9063 C   0  0  0  0  0  0  0  0  0  0  0  0
   49.3637    5.1588   18.9548 C   0  0  0  0  0  0  0  0  0  0  0  0
   50.1457   10.1396   19.6158 C   0  0  0  0  0  0  0  0  0  0  0  0
   49.1676   10.9743   19.0317 C   0  0  0  0  0  0  0  0  0  0  0  0
   47.5585   11.3654   17.2793 O   0  0  0  0  0  0  0  0  0  0  0  0
   50.1211    9.5299   14.6412 O   0  0  0  0  0  0  0  0  0  0  0  0
   51.0961    4.7582   20.5885 C   0  0  0  0  0  0  0  0  0  0  0  0
   49.7462    6.6123   17.4487 C   0  0  2  0  0  0  0  0  0  0  0  0
   49.8223    7.9376   18.1489 C   0  0  0  0  0  0  0  0  0  0  0  0
   51.1637    6.2217   16.9945 C   0  0  2  0  0  0  0  0  0  0  0  0
   48.7094    8.7047   17.8688 C   0  0  0  0  0  0  0  0  0  0  0  0
   48.7258    7.0358   16.3672 C   0  0  1  0  0  0  0  0  0  0  0  0
   47.8981    8.1074   16.9365 O   0  0  0  0  0  0  0  0  0  0  0  0
   52.0280    6.1823   18.3085 C   0  0  2  0  0  0  0  0  0  0  0  0
   51.5391    5.1090   19.2186 N   0  0  0  0  0  0  0  0  0  0  0  0
   50.8724    8.4022   18.9172 C   0  0  0  0  0  0  0  0  0  0  0  0
   51.6824    7.1267   15.9004 C   0  0  0  0  0  0  0  0  0  0  0  0
   52.1549    7.6188   18.9330 C   0  0  0  0  0  0  0  0  0  0  0  0
   49.1748    5.5781   18.4492 C   0  0  0  0  0  0  0  0  0  0  0  0
   50.8529    7.6940   15.0100 C   0  0  0  0  0  0  0  0  0  0  0  0
   49.3680    7.4360   15.0003 C   0  0  2  0  0  0  0  0  0  0  0  0
   48.5219    9.9421   18.4594 C   0  0  0  0  0  0  0  0  0  0  0  0
   50.2223    4.5571   18.9011 C   0  0  0  0  0  0  0  0  0  0  0  0
   50.7177    9.6523   19.5154 C   0  0  0  0  0  0  0  0  0  0  0  0
   49.5402   10.4040   19.3079 C   0  0  0  0  0  0  0  0  0  0  0  0
   51.7228    5.3280   20.6458 C   0  0  0  0  0  0  0  0  0  0  0  0
   48.6933    8.5358   14.3977 O   0  0  0  0  0  0  0  0  0  0  0  0
   47.3689   10.6035   18.1530 O   0  0  0  0  0  0  0  0  0  0  0  0
   47.2079   11.9057   18.6952 C   0  0  0  0  0  0  0  0  0  0  0  0
   48.3591    9.0747   19.4232 H   0  0  0  0  0  0  0  0  0  0  0  0
   49.1245   12.0542   15.5440 H   0  0  0  0  0  0  0  0  0  0  0  0
   50.0833    7.4679   19.5156 H   0  0  0  0  0  0  0  0  0  0  0  0
   48.6995    6.7664   18.6867 H   0  0  0  0  0  0  0  0  0  0  0  0
   52.3031    6.4506   19.3586 H   0  0  0  0  0  0  0  0  0  0  0  0
   50.1002    2.5263   17.2779 H   0  0  0  0  0  0  0  0  0  0  0  0
   48.9041    4.6343   17.4727 H   0  0  0  0  0  0  0  0  0  0  0  0
   51.4681    8.0748   14.5393 H   0  0  0  0  0  0  0  0  0  0  0  0
   50.4830   10.3447   14.4652 H   0  0  0  0  0  0  0  0  0  0  0  0
   46.3372   11.2775   21.4252 H   0  0  0  0  0  0  0  0  0  0  0  0
   46.4135    9.7944   20.4683 H   0  0  0  0  0  0  0  0  0  0  0  0
   47.9013   10.4786   21.2347 H   0  0  0  0  0  0  0  0  0  0  0  0
   54.6054    6.0934   18.9009 H   0  0  0  0  0  0  0  0  0  0  0  0
   54.1167    5.7262   20.6024 H   0  0  0  0  0  0  0  0  0  0  0  0
   55.5766    5.0150   19.9083 H   0  0  0  0  0  0  0  0  0  0  0  0
   48.8261   14.2377   16.3332 H   0  0  0  0  0  0  0  0  0  0  0  0
   47.3479   13.5783   15.5273 H   0  0  0  0  0  0  0  0  0  0  0  0
   47.2302   14.9117   16.6808 H   0  0  0  0  0  0  0  0  0  0  0  0
   51.2290    0.6179   18.0117 H   0  0  0  0  0  0  0  0  0  0  0  0
   51.8847    1.2138   16.4363 H   0  0  0  0  0  0  0  0  0  0  0  0
   52.8579    0.1808   17.4884 H   0  0  0  0  0  0  0  0  0  0  0  0
   51.0846    5.5332   17.0298 H   0  0  0  0  0  0  0  0  0  0  0  0
   48.5925    6.8681   15.4500 H   0  0  0  0  0  0  0  0  0  0  0  0
   52.4346    6.0766   19.0377 H   0  0  0  0  0  0  0  0  0  0  0  0
   53.1242    7.2010   16.7702 H   0  0  0  0  0  0  0  0  0  0  0  0
   52.4483    8.4300   19.2560 H   0  0  0  0  0  0  0  0  0  0  0  0
   51.5124    7.9056   20.6552 H   0  0  0  0  0  0  0  0  0  0  0  0
   47.8978    6.7050   18.5834 H   0  0  0  0  0  0  0  0  0  0  0  0
   48.1332    5.5750   17.2607 H   0  0  0  0  0  0  0  0  0  0  0  0
   52.4494    8.4703   14.8425 H   0  0  0  0  0  0  0  0  0  0  0  0
   50.1683    7.5914   14.0545 H   0  0  0  0  0  0  0  0  0  0  0  0
   49.7377    4.3143   18.3614 H   0  0  0  0  0  0  0  0  0  0  0  0
   48.6047    4.7438   19.6303 H   0  0  0  0  0  0  0  0  0  0  0  0
   50.7314   10.5091   20.4538 H   0  0  0  0  0  0  0  0  0  0  0  0
   49.0126   11.9653   19.4492 H   0  0  0  0  0  0  0  0  0  0  0  0
   47.5309   12.2139   17.7533 H   0  0  0  0  0  0  0  0  0  0  0  0
   49.2067    9.7774   14.8929 H   0  0  0  0  0  0  0  0  0  0  0  0
   50.3646    4.2815   21.2496 H   0  0  0  0  0  0  0  0  0  0  0  0
   51.8418    5.2314   21.2370 H   0  0  0  0  0  0  0  0  0  0  0  0
   51.5919    3.9774   20.0001 H   0  0  0  0  0  0  0  0  0  0  0  0
   51.1570    5.2173   16.5472 H   0  0  0  0  0  0  0  0  0  0  0  0
   48.0289    6.2154   16.1545 H   0  0  0  0  0  0  0  0  0  0  0  0
   53.0474    5.8795   18.0341 H   0  0  0  0  0  0  0  0  0  0  0  0
   52.7541    7.2922   15.8258 H   0  0  0  0  0  0  0  0  0  0  0  0
   52.5753    7.5983   19.9433 H   0  0  0  0  0  0  0  0  0  0  0  0
   52.8800    8.1794   18.3265 H   0  0  0  0  0  0  0  0  0  0  0  0
   48.3566    5.0129   17.9836 H   0  0  0  0  0  0  0  0  0  0  0  0
   48.7435    6.0618   19.3353 H   0  0  0  0  0  0  0  0  0  0  0  0
   51.2719    8.3162   14.2241 H   0  0  0  0  0  0  0  0  0  0  0  0
   49.2234    6.5866   14.3184 H   0  0  0  0  0  0  0  0  0  0  0  0
   50.3575    3.8197   18.0974 H   0  0  0  0  0  0  0  0  0  0  0  0
   49.8185    3.9681   19.7354 H   0  0  0  0  0  0  0  0  0  0  0  0
   51.5132   10.0703   20.1279 H   0  0  0  0  0  0  0  0  0  0  0  0
   49.4676   11.3686   19.8010 H   0  0  0  0  0  0  0  0  0  0  0  0
   51.0636    6.1113   21.0352 H   0  0  0  0  0  0  0  0  0  0  0  0
   52.7638    5.5846   20.8726 H   0  0  0  0  0  0  0  0  0  0  0  0
   51.5169    4.4091   21.2067 H   0  0  0  0  0  0  0  0  0  0  0  0
   49.1437    8.7513   13.5666 H   0  0  0  0  0  0  0  0  0  0  0  0
   46.2564   12.3061   18.3308 H   0  0  0  0  0  0  0  0  0  0  0  0
   47.1579   11.8745   19.7893 H   0  0  0  0  0  0  0  0  0  0  0  0
   48.0023   12.5781   18.3553 H   0  0  0  0  0  0  0  0  0  0  0  0
  2  1  1  0
  3  1  2  0
  4  1  1  0
  5  3  1  0
  6  7  1  0
  7  4  2  0
  8  2  2  0
  9 12  2  0
 10  2  1  0
 11 14  2  0
 12 13  1  0
 13 10  1  0
 14 15  1  0
 15 13  2  0
 16 21  2  0
 17  5  1  0
 18  6  1  0
 19  9  1  0
 20 11  1  0
 21  4  1  0
 22 17  1  0
 23 19  1  0
 24 18  1  0
 25 20  1  0
 16  8  1  0
  6  5  2  0
 11  9  1  0
 27 26  1  0
 28 26  1  0
 29 27  2  0
 30 26  1  0
 30 31  1  0
 32 28  1  0
 33 27  1  0
 28 34  1  0
 32 35  1  0
 36 41  1  0
 26 37  1  1
 38 39  1  0
 39 30  1  0
 40 29  1  0
 41 37  1  0
 42 33  2  0
 43 42  1  0
 44 40  1  0
 39 45  1  0
 46 36  1  0
 29 31  1  0
 32 36  1  0
 38 34  2  0
 35 33  1  0
 43 40  2  0
 48 47  1  0
 49 47  1  0
 50 48  2  0
 51 47  1  0
 52 51  1  0
 53 49  1  0
 54 62  1  0
 55 48  1  0
 49 56  1  0
 53 57  1  0
 47 58  1  1
 59 60  1  0
 60 51  1  0
 61 50  1  0
 62 58  1  0
 63 55  2  0
 64 63  1  0
 65 54  1  0
 60 66  1  0
 67 61  1  0
 68 67  1  0
 52 50  1  0
 53 54  1  0
 59 56  2  0
 57 55  1  0
 64 61  2  0
  3 69  1  0
  7 70  1  0
 10 71  1  0
 10 72  1  0
 12 73  1  0
 14 74  1  0
 15 75  1  0
 16 76  1  0
 21 77  1  0
 22 78  1  0
 22 79  1  0
 22 80  1  0
 23 81  1  0
 23 82  1  0
 23 83  1  0
 24 84  1  0
 24 85  1  0
 24 86  1  0
 25 87  1  0
 25 88  1  0
 25 89  1  0
 28 90  1  1
 30 91  1  1
 32 92  1  6
 34 93  1  0
 35 94  1  0
 35 95  1  0
 37 96  1  0
 37 97  1  0
 38 98  1  0
 39 99  1  1
 41100  1  0
 41101  1  0
 42102  1  0
 43103  1  0
 44104  1  0
 45105  1  0
 46106  1  0
 46107  1  0
 46108  1  0
 49109  1  1
 51110  1  1
 53111  1  6
 56112  1  0
 57113  1  0
 57114  1  0
 58115  1  0
 58116  1  0
 59117  1  0
 60118  1  1
 62119  1  0
 62120  1  0
 63121  1  0
 64122  1  0
 65123  1  0
 65124  1  0
 65125  1  0
 66126  1  0
 68127  1  0
 68128  1  0
 68129  1  0
M  END
> <Uni-Dock RESULT> 
ENERGY=   -5.672  LOWER_BOUND=    2.091  UPPER_BOUND=    6.476
INTER + INTRA:          -5.672
INTER:                  -5.672
INTRA:                   0.000
UNBOUND:                 0.000

$$$$

     RDKit          3D

129139  0  0  0  0  0  0  0  0999 V2000
   48.3504   10.7006   12.3433 C   0  0  0  0  0  0  0  0  0  0  0  0
   49.4498    9.8639   12.6724 C   0  0  0  0  0  0  0  0  0  0  0  0
   48.4049   12.1145   12.2527 C   0  0  0  0  0  0  0  0  0  0  0  0
   47.1125   10.0705   12.0906 C   0  0  0  0  0  0  0  0  0  0  0  0
   47.2781   12.8764   11.9187 C   0  0  0  0  0  0  0  0  0  0  0  0
   46.0554   12.2321   11.6688 C   0  0  0  0  0  0  0  0  0  0  0  0
   45.9834   10.8388   11.7571 C   0  0  0  0  0  0  0  0  0  0  0  0
   49.3412    8.5110   12.7522 N   0  0  0  0  0  0  0  0  0  0  0  0
   53.7387    8.0505   12.4127 C   0  0  0  0  0  0  0  0  0  0  0  0
   50.8181   10.4640   12.9634 C   0  0  0  0  0  0  0  0  0  0  0  0
   54.0315    7.6608   13.7350 C   0  0  0  0  0  0  0  0  0  0  0  0
   52.6988    8.9588   12.1741 C   0  0  0  0  0  0  0  0  0  0  0  0
   51.9442    9.4865   13.2346 C   0  0  0  0  0  0  0  0  0  0  0  0
   53.2736    8.1792   14.7904 C   0  0  0  0  0  0  0  0  0  0  0  0
   52.2354    9.0805   14.5414 C   0  0  0  0  0  0  0  0  0  0  0  0
   48.1441    7.9532   12.5036 C   0  0  0  0  0  0  0  0  0  0  0  0
   47.2692   14.2455   11.8131 O   0  0  0  0  0  0  0  0  0  0  0  0
   44.9981   13.0470   11.3490 O   0  0  0  0  0  0  0  0  0  0  0  0
   54.5254    7.4978   11.4309 O   0  0  0  0  0  0  0  0  0  0  0  0
   55.0699    6.7737   13.8882 O   0  0  0  0  0  0  0  0  0  0  0  0
   47.0178    8.6790   12.1736 C   0  0  0  0  0  0  0  0  0  0  0  0
   48.4889   14.9398   12.0248 C   0  0  0  0  0  0  0  0  0  0  0  0
   54.1554    7.7389   10.0818 C   0  0  0  0  0  0  0  0  0  0  0  0
   43.7452   12.4359   11.0827 C   0  0  0  0  0  0  0  0  0  0  0  0
   55.3365    6.2946   15.1971 C   0  0  0  0  0  0  0  0  0  0  0  0
   49.9329    9.6874   13.4153 C   0  0  2  0  0  0  0  0  0  0  0  0
   49.3536   10.6494   12.4231 C   0  0  0  0  0  0  0  0  0  0  0  0
   50.8316    8.6778   12.6955 C   0  0  2  0  0  0  0  0  0  0  0  0
   48.0855   11.0327   12.8122 C   0  0  0  0  0  0  0  0  0  0  0  0
   48.5820    9.1953   13.9733 C   0  0  1  0  0  0  0  0  0  0  0  0
   47.6488   10.3324   13.9150 O   0  0  0  0  0  0  0  0  0  0  0  0
   51.8783    9.5329   11.8978 C   0  0  1  0  0  0  0  0  0  0  0  0
   49.9264   11.0584   11.2319 C   0  0  0  0  0  0  0  0  0  0  0  0
   50.0685    7.6695   11.8783 C   0  0  0  0  0  0  0  0  0  0  0  0
   51.2026   10.3963   10.7823 C   0  0  0  0  0  0  0  0  0  0  0  0
   52.6341   10.4714   12.7751 N   0  0  0  0  0  0  0  0  0  0  0  0
   50.7668   10.4844   14.4505 C   0  0  0  0  0  0  0  0  0  0  0  0
   48.7909    7.3565   12.1361 C   0  0  0  0  0  0  0  0  0  0  0  0
   47.9642    7.9627   13.2330 C   0  0  2  0  0  0  0  0  0  0  0  0
   47.3711   11.9465   12.0718 C   0  0  0  0  0  0  0  0  0  0  0  0
   52.2821   10.3974   14.1936 C   0  0  0  0  0  0  0  0  0  0  0  0
   49.2092   11.9794   10.4639 C   0  0  0  0  0  0  0  0  0  0  0  0
   47.9450   12.4390   10.8943 C   0  0  0  0  0  0  0  0  0  0  0  0
   46.1231   12.3153   12.4686 O   0  0  0  0  0  0  0  0  0  0  0  0
   46.6857    8.2481   12.6614 O   0  0  0  0  0  0  0  0  0  0  0  0
   54.0774   10.3564   12.5792 C   0  0  0  0  0  0  0  0  0  0  0  0
   50.4178    9.5501   13.6160 C   0  0  2  0  0  0  0  0  0  0  0  0
   49.8732   10.4275   12.5268 C   0  0  0  0  0  0  0  0  0  0  0  0
   50.8644    8.2181   12.9879 C   0  0  2  0  0  0  0  0  0  0  0  0
   48.8003   11.1664   12.9830 C   0  0  0  0  0  0  0  0  0  0  0  0
   49.1498    9.5492   14.5004 C   0  0  1  0  0  0  0  0  0  0  0  0
   48.4433   10.8146   14.2608 O   0  0  0  0  0  0  0  0  0  0  0  0
   51.9386    8.6053   11.9056 C   0  0  2  0  0  0  0  0  0  0  0  0
   53.1324    9.2153   12.5552 N   0  0  0  0  0  0  0  0  0  0  0  0
   50.3031   10.4711   11.2145 C   0  0  0  0  0  0  0  0  0  0  0  0
   49.6948    7.4043   12.4830 C   0  0  0  0  0  0  0  0  0  0  0  0
   51.2816    9.4327   10.7423 C   0  0  0  0  0  0  0  0  0  0  0  0
   51.6116   10.2885   14.2691 C   0  0  0  0  0  0  0  0  0  0  0  0
   48.4914    7.4671   13.0752 C   0  0  0  0  0  0  0  0  0  0  0  0
   48.2299    8.3019   14.3025 C   0  0  2  0  0  0  0  0  0  0  0  0
   48.1762   12.1015   12.1759 C   0  0  0  0  0  0  0  0  0  0  0  0
   52.9564    9.6315   13.9463 C   0  0  0  0  0  0  0  0  0  0  0  0
   49.6840   11.3953   10.3736 C   0  0  0  0  0  0  0  0  0  0  0  0
   48.6462   12.2214   10.8587 C   0  0  0  0  0  0  0  0  0  0  0  0
   53.8769   10.1898   11.7713 C   0  0  0  0  0  0  0  0  0  0  0  0
   46.8491    8.6446   14.3650 O   0  0  0  0  0  0  0  0  0  0  0  0
   47.1540   12.8128   12.7326 O   0  0  0  0  0  0  0  0  0  0  0  0
   46.4609   13.7175   11.8861 C   0  0  0  0  0  0  0  0  0  0  0  0
   49.3473   12.6127   12.4495 H   0  0  0  0  0  0  0  0  0  0  0  0
   45.0473   10.3225   11.5691 H   0  0  0  0  0  0  0  0  0  0  0  0
   51.1170   11.0900   12.1134 H   0  0  0  0  0  0  0  0  0  0  0  0
   50.7267   11.1349   13.8280 H   0  0  0  0  0  0  0  0  0  0  0  0
   52.4488    9.2697   11.1649 H   0  0  0  0  0  0  0  0  0  0  0  0
   53.4606    7.8976   15.8207 H   0  0  0  0  0  0  0  0  0  0  0  0
   51.6488    9.4573   15.3760 H   0  0  0  0  0  0  0  0  0  0  0  0
   48.1128    6.8702   12.5799 H   0  0  0  0  0  0  0  0  0  0  0  0
   46.0839    8.1585   11.9864 H   0  0  0  0  0  0  0  0  0  0  0  0
   48.2950   16.0070   11.8837 H   0  0  0  0  0  0  0  0  0  0  0  0
   48.8496   14.8009   13.0494 H   0  0  0  0  0  0  0  0  0  0  0  0
   49.2469   14.6411   11.2928 H   0  0  0  0  0  0  0  0  0  0  0  0
   53.1353    7.3950    9.8796 H   0  0  0  0  0  0  0  0  0  0  0  0
   54.2766    8.7961    9.8248 H   0  0  0  0  0  0  0  0  0  0  0  0
   54.8312    7.1637    9.4421 H   0  0  0  0  0  0  0  0  0  0  0  0
   43.8050   11.7717   10.2141 H   0  0  0  0  0  0  0  0  0  0  0  0
   43.3685   11.9054   11.9637 H   0  0  0  0  0  0  0  0  0  0  0  0
   43.0302   13.2296   10.8438 H   0  0  0  0  0  0  0  0  0  0  0  0
   55.6578    7.1068   15.8567 H   0  0  0  0  0  0  0  0  0  0  0  0
   54.4720    5.7651   15.6105 H   0  0  0  0  0  0  0  0  0  0  0  0
   56.1615    5.5789   15.1286 H   0  0  0  0  0  0  0  0  0  0  0  0
   51.3735    8.0718   13.4361 H   0  0  0  0  0  0  0  0  0  0  0  0
   48.6867    8.9237   15.0311 H   0  0  0  0  0  0  0  0  0  0  0  0
   52.5750    8.8388   11.4070 H   0  0  0  0  0  0  0  0  0  0  0  0
   50.5934    7.1514   11.0796 H   0  0  0  0  0  0  0  0  0  0  0  0
   50.9597    9.7408    9.9360 H   0  0  0  0  0  0  0  0  0  0  0  0
   51.9026   11.1541   10.4073 H   0  0  0  0  0  0  0  0  0  0  0  0
   50.4689   11.5406   14.4808 H   0  0  0  0  0  0  0  0  0  0  0  0
   50.5905   10.0876   15.4584 H   0  0  0  0  0  0  0  0  0  0  0  0
   48.2956    6.6025   11.5281 H   0  0  0  0  0  0  0  0  0  0  0  0
   47.7909    7.1784   13.9798 H   0  0  0  0  0  0  0  0  0  0  0  0
   52.6686    9.4701   14.6364 H   0  0  0  0  0  0  0  0  0  0  0  0
   52.7652   11.2190   14.7378 H   0  0  0  0  0  0  0  0  0  0  0  0
   49.6113   12.3313    9.5171 H   0  0  0  0  0  0  0  0  0  0  0  0
   47.4107   13.1513   10.2718 H   0  0  0  0  0  0  0  0  0  0  0  0
   45.7669   12.9429   11.8170 H   0  0  0  0  0  0  0  0  0  0  0  0
   46.3762    9.0765   13.0843 H   0  0  0  0  0  0  0  0  0  0  0  0
   54.6060   11.1310   13.1452 H   0  0  0  0  0  0  0  0  0  0  0  0
   54.3375   10.5068   11.5256 H   0  0  0  0  0  0  0  0  0  0  0  0
   54.4562    9.3774   12.8949 H   0  0  0  0  0  0  0  0  0  0  0  0
   51.3421    7.5810   13.7460 H   0  0  0  0  0  0  0  0  0  0  0  0
   49.4226    9.5682   15.5630 H   0  0  0  0  0  0  0  0  0  0  0  0
   52.3072    7.6777   11.4477 H   0  0  0  0  0  0  0  0  0  0  0  0
   49.8503    6.7370   11.6392 H   0  0  0  0  0  0  0  0  0  0  0  0
   52.0266    9.8856   10.0807 H   0  0  0  0  0  0  0  0  0  0  0  0
   50.7213    8.7282   10.1118 H   0  0  0  0  0  0  0  0  0  0  0  0
   51.5073   10.2843   15.3621 H   0  0  0  0  0  0  0  0  0  0  0  0
   51.6509   11.3446   13.9721 H   0  0  0  0  0  0  0  0  0  0  0  0
   47.6861    6.8447   12.6953 H   0  0  0  0  0  0  0  0  0  0  0  0
   48.4107    7.6329   15.1551 H   0  0  0  0  0  0  0  0  0  0  0  0
   53.0656    8.7372   14.5758 H   0  0  0  0  0  0  0  0  0  0  0  0
   53.7705   10.2896   14.2780 H   0  0  0  0  0  0  0  0  0  0  0  0
   49.9786   11.4712    9.3294 H   0  0  0  0  0  0  0  0  0  0  0  0
   48.2015   12.9278   10.1645 H   0  0  0  0  0  0  0  0  0  0  0  0
   53.3283   11.1294   11.6451 H   0  0  0  0  0  0  0  0  0  0  0  0
   54.1353    9.7859   10.7859 H   0  0  0  0  0  0  0  0  0  0  0  0
   54.8329   10.4238   12.2538 H   0  0  0  0  0  0  0  0  0  0  0  0
   46.3285    7.8400   14.2177 H   0  0  0  0  0  0  0  0  0  0  0  0
   45.6588   14.1783   12.4717 H   0  0  0  0  0  0  0  0  0  0  0  0
   47.1221   14.5197   11.5398 H   0  0  0  0  0  0  0  0  0  0  0  0
   45.9975   13.1960   11.0424 H   0  0  0  0  0  0  0  0  0  0  0  0
  2  1  1  0
  3  1  2  0
  4  1  1  0
  5  3  1  0
  6  7  1  0
  7  4  2  0
  8  2  2  0
  9 12  2  0
 10  2  1  0
 11 14  2  0
 12 13  1  0
 13 10  1  0
 14 15  1  0
 15 13  2  0
 16 21  2  0
 17  5  1  0
 18  6  1  0
 19  9  1  0
 20 11  1  0
 21  4  1  0
 22 17  1  0
 23 19  1  0
 24 18  1  0
 25 20  1  0
 16  8  1  0
  6  5  2  0
 11  9  1  0
 27 26  1  0
 28 26  1  0
 29 27  2  0
 30 26  1  0
 30 31  1  0
 32 28  1  0
 33 27  1  0
 28 34  1  0
 32 35  1  0
 36 41  1  0
 26 37  1  1
 38 39  1  0
 39 30  1  0
 40 29  1  0
 41 37  1  0
 42 33  2  0
 43 42  1  0
 44 40  1  0
 39 45  1  0
 46 36  1  0
 29 31  1  0
 32 36  1  0
 38 34  2  0
 35 33  1  0
 43 40  2  0
 48 47  1  0
 49 47  1  0
 50 48  2  0
 51 47  1  0
 52 51  1  0
 53 49  1  0
 54 62  1  0
 55 48  1  0
 49 56  1  0
 53 57  1  0
 47 58  1  1
 59 60  1  0
 60 51  1  0
 61 50  1  0
 62 58  1  0
 63 55  2  0
 64 63  1  0
 65 54  1  0
 60 66  1  0
 67 61  1  0
 68 67  1  0
 52 50  1  0
 53 54  1  0
 59 56  2  0
 57 55  1  0
 64 61  2  0
  3 69  1  0
  7 70  1  0
 10 71  1  0
 10 72  1  0
 12 73  1  0
 14 74  1  0
 15 75  1  0
 16 76  1  0
 21 77  1  0
 22 78  1  0
 22 79  1  0
 22 80  1  0
 23 81  1  0
 23 82  1  0
 23 83  1  0
 24 84  1  0
 24 85  1  0
 24 86  1  0
 25 87  1  0
 25 88  1  0
 25 89  1  0
 28 90  1  1
 30 91  1  1
 32 92  1  6
 34 93  1  0
 35 94  1  0
 35 95  1  0
 37 96  1  0
 37 97  1  0
 38 98  1  0
 39 99  1  1
 41100  1  0
 41101  1  0
 42102  1  0
 43103  1  0
 44104  1  0
 45105  1  0
 46106  1  0
 46107  1  0
 46108  1  0
 49109  1  1
 51110  1  1
 53111  1  6
 56112  1  0
 57113  1  0
 57114  1  0
 58115  1  0
 58116  1  0
 59117  1  0
 60118  1  1
 62119  1  0
 62120  1  0
 63121  1  0
 64122  1  0
 65123  1  0
 65124  1  0
 65125  1  0
 66126  1  0
 68127  1  0
 68128  1  0
 68129  1  0
M  END
> <Uni-Dock RESULT> 
ENERGY=   -5.545  LOWER_BOUND=    6.611  UPPER_BOUND=    9.761
INTER + INTRA:          -5.545
INTER:                  -5.545
INTRA:                   0.000
UNBOUND:                 0.000

$$$$

     RDKit          3D

129139  0  0  0  0  0  0  0  0999 V2000
   48.4082    8.6730   14.1230 C   0  0  0  0  0  0  0  0  0  0  0  0
   49.5047    9.3002   14.7724 C   0  0  0  0  0  0  0  0  0  0  0  0
   47.4285    9.3469   13.3508 C   0  0  0  0  0  0  0  0  0  0  0  0
   48.2899    7.2731   14.2630 C   0  0  0  0  0  0  0  0  0  0  0  0
   46.3742    8.6607   12.7350 C   0  0  0  0  0  0  0  0  0  0  0  0
   46.2736    7.2677   12.8836 C   0  0  0  0  0  0  0  0  0  0  0  0
   47.2293    6.5881   13.6445 C   0  0  0  0  0  0  0  0  0  0  0  0
   50.4137    8.6062   15.5076 N   0  0  0  0  0  0  0  0  0  0  0  0
   53.3083   11.9558   15.2512 C   0  0  0  0  0  0  0  0  0  0  0  0
   49.7022   10.8063   14.6749 C   0  0  0  0  0  0  0  0  0  0  0  0
   53.2449   12.4164   16.5816 C   0  0  0  0  0  0  0  0  0  0  0  0
   52.1567   11.4387   14.6433 C   0  0  0  0  0  0  0  0  0  0  0  0
   50.9398   11.3731   15.3414 C   0  0  0  0  0  0  0  0  0  0  0  0
   52.0351   12.3422   17.2801 C   0  0  0  0  0  0  0  0  0  0  0  0
   50.8936   11.8201   16.6664 C   0  0  0  0  0  0  0  0  0  0  0  0
   50.2627    7.2751   15.6140 C   0  0  0  0  0  0  0  0  0  0  0  0
   45.3984    9.2565   11.9743 O   0  0  0  0  0  0  0  0  0  0  0  0
   45.2129    6.6684   12.2513 O   0  0  0  0  0  0  0  0  0  0  0  0
   54.5309   12.0603   14.6326 O   0  0  0  0  0  0  0  0  0  0  0  0
   54.4132   12.9166   17.1049 O   0  0  0  0  0  0  0  0  0  0  0  0
   49.2338    6.5737   15.0193 C   0  0  0  0  0  0  0  0  0  0  0  0
   45.4752   10.6586   11.7680 C   0  0  0  0  0  0  0  0  0  0  0  0
   54.6720   11.4584   13.3547 C   0  0  0  0  0  0  0  0  0  0  0  0
   45.0774    5.2606   12.3708 C   0  0  0  0  0  0  0  0  0  0  0  0
   54.4066   13.3098   18.4683 C   0  0  0  0  0  0  0  0  0  0  0  0
   49.6132    9.8441   15.4856 C   0  0  2  0  0  0  0  0  0  0  0  0
   48.9678    9.5093   14.1753 C   0  0  0  0  0  0  0  0  0  0  0  0
   51.1335    9.9087   15.3137 C   0  0  2  0  0  0  0  0  0  0  0  0
   47.8350    8.7470   14.3805 C   0  0  0  0  0  0  0  0  0  0  0  0
   49.0162    8.6576   16.2694 C   0  0  1  0  0  0  0  0  0  0  0  0
   47.6843    8.3896   15.7022 O   0  0  0  0  0  0  0  0  0  0  0  0
   51.3875   10.9381   14.1566 C   0  0  1  0  0  0  0  0  0  0  0  0
   49.4430    9.8185   12.9132 C   0  0  0  0  0  0  0  0  0  0  0  0
   51.7751    8.5596   15.1266 C   0  0  0  0  0  0  0  0  0  0  0  0
   50.8097   10.4401   12.7911 C   0  0  0  0  0  0  0  0  0  0  0  0
   50.7702   12.2668   14.4306 N   0  0  0  0  0  0  0  0  0  0  0  0
   49.0822   11.2198   15.9630 C   0  0  0  0  0  0  0  0  0  0  0  0
   51.2026    7.4270   15.5581 C   0  0  0  0  0  0  0  0  0  0  0  0
   49.8738    7.3487   16.2526 C   0  0  2  0  0  0  0  0  0  0  0  0
   47.0532    8.3530   13.3189 C   0  0  0  0  0  0  0  0  0  0  0  0
   50.0810   12.3652   15.7177 C   0  0  0  0  0  0  0  0  0  0  0  0
   48.6651    9.4172   11.8241 C   0  0  0  0  0  0  0  0  0  0  0  0
   47.4620    8.7060   12.0279 C   0  0  0  0  0  0  0  0  0  0  0  0
   45.9392    7.6030   13.5371 O   0  0  0  0  0  0  0  0  0  0  0  0
   49.1802    6.2436   15.6690 O   0  0  0  0  0  0  0  0  0  0  0  0
   51.7262   13.3576   14.2552 C   0  0  0  0  0  0  0  0  0  0  0  0
   49.9039   10.2449   15.7071 C   0  0  2  0  0  0  0  0  0  0  0  0
   49.3778    9.8707   14.3522 C   0  0  0  0  0  0  0  0  0  0  0  0
   51.3778    9.8107   15.7919 C   0  0  2  0  0  0  0  0  0  0  0  0
   48.0638    9.4561   14.4339 C   0  0  0  0  0  0  0  0  0  0  0  0
   48.8631    9.4533   16.5318 C   0  0  1  0  0  0  0  0  0  0  0  0
   47.6317    9.3793   15.7344 O   0  0  0  0  0  0  0  0  0  0  0  0
   52.1032   10.5605   14.6142 C   0  0  2  0  0  0  0  0  0  0  0  0
   52.0583   12.0336   14.8318 N   0  0  0  0  0  0  0  0  0  0  0  0
   50.0913    9.8550   13.1691 C   0  0  0  0  0  0  0  0  0  0  0  0
   51.5307    8.3068   15.7989 C   0  0  0  0  0  0  0  0  0  0  0  0
   51.5808   10.0471   13.2238 C   0  0  0  0  0  0  0  0  0  0  0  0
   49.7628   11.7785   15.8650 C   0  0  0  0  0  0  0  0  0  0  0  0
   50.5917    7.5108   16.3351 C   0  0  0  0  0  0  0  0  0  0  0  0
   49.3548    8.0487   17.0076 C   0  0  2  0  0  0  0  0  0  0  0  0
   47.3419    9.1272   13.2999 C   0  0  0  0  0  0  0  0  0  0  0  0
   51.1143   12.4977   15.8481 C   0  0  0  0  0  0  0  0  0  0  0  0
   49.3933    9.5150   12.0108 C   0  0  0  0  0  0  0  0  0  0  0  0
   48.0230    9.1788   12.0737 C   0  0  0  0  0  0  0  0  0  0  0  0
   52.0522   12.8705   13.6410 C   0  0  0  0  0  0  0  0  0  0  0  0
   48.3166    7.0755   16.9529 O   0  0  0  0  0  0  0  0  0  0  0  0
   46.0372    8.7722   13.4806 O   0  0  0  0  0  0  0  0  0  0  0  0
   45.3150    8.3598   12.3300 C   0  0  0  0  0  0  0  0  0  0  0  0
   47.5033   10.4225   13.2391 H   0  0  0  0  0  0  0  0  0  0  0  0
   47.1680    5.5119   13.7725 H   0  0  0  0  0  0  0  0  0  0  0  0
   49.7337   11.0904   13.6157 H   0  0  0  0  0  0  0  0  0  0  0  0
   48.8207   11.3009   15.1044 H   0  0  0  0  0  0  0  0  0  0  0  0
   52.1806   11.0713   13.6225 H   0  0  0  0  0  0  0  0  0  0  0  0
   51.9466   12.6770   18.3076 H   0  0  0  0  0  0  0  0  0  0  0  0
   49.9683   11.7566   17.2343 H   0  0  0  0  0  0  0  0  0  0  0  0
   51.0163    6.7697   16.2111 H   0  0  0  0  0  0  0  0  0  0  0  0
   49.1766    5.4978   15.1499 H   0  0  0  0  0  0  0  0  0  0  0  0
   44.6345   10.9496   11.1318 H   0  0  0  0  0  0  0  0  0  0  0  0
   45.3793   11.2026   12.7135 H   0  0  0  0  0  0  0  0  0  0  0  0
   46.3974   10.9319   11.2441 H   0  0  0  0  0  0  0  0  0  0  0  0
   54.4425   10.3880   13.3896 H   0  0  0  0  0  0  0  0  0  0  0  0
   54.0571   11.9726   12.6090 H   0  0  0  0  0  0  0  0  0  0  0  0
   55.7174   11.5628   13.0499 H   0  0  0  0  0  0  0  0  0  0  0  0
   45.9380    4.7415   11.9359 H   0  0  0  0  0  0  0  0  0  0  0  0
   44.9204    4.9653   13.4137 H   0  0  0  0  0  0  0  0  0  0  0  0
   44.1896    4.9610   11.8049 H   0  0  0  0  0  0  0  0  0  0  0  0
   53.7276   14.1524   18.6327 H   0  0  0  0  0  0  0  0  0  0  0  0
   54.1614   12.4679   19.1239 H   0  0  0  0  0  0  0  0  0  0  0  0
   55.4166   13.6449   18.7236 H   0  0  0  0  0  0  0  0  0  0  0  0
   51.5927   10.3019   16.2325 H   0  0  0  0  0  0  0  0  0  0  0  0
   48.8645    8.9367   17.3194 H   0  0  0  0  0  0  0  0  0  0  0  0
   52.4746   11.0495   14.0387 H   0  0  0  0  0  0  0  0  0  0  0  0
   52.7568    8.5169   14.6616 H   0  0  0  0  0  0  0  0  0  0  0  0
   51.4885    9.6795   12.3842 H   0  0  0  0  0  0  0  0  0  0  0  0
   50.7808   11.2624   12.0644 H   0  0  0  0  0  0  0  0  0  0  0  0
   48.1258   11.4704   15.4859 H   0  0  0  0  0  0  0  0  0  0  0  0
   48.8875   11.1916   17.0427 H   0  0  0  0  0  0  0  0  0  0  0  0
   51.7226    6.4819   15.4176 H   0  0  0  0  0  0  0  0  0  0  0  0
   50.0684    7.0649   17.2940 H   0  0  0  0  0  0  0  0  0  0  0  0
   50.8075   12.3903   16.5405 H   0  0  0  0  0  0  0  0  0  0  0  0
   49.5289   13.3123   15.7701 H   0  0  0  0  0  0  0  0  0  0  0  0
   48.9936    9.6311   10.8101 H   0  0  0  0  0  0  0  0  0  0  0  0
   46.8827    8.4039   11.1599 H   0  0  0  0  0  0  0  0  0  0  0  0
   45.5319    7.4014   12.6776 H   0  0  0  0  0  0  0  0  0  0  0  0
   48.2335    6.4969   15.6457 H   0  0  0  0  0  0  0  0  0  0  0  0
   51.2257   14.3274   14.3476 H   0  0  0  0  0  0  0  0  0  0  0  0
   52.1670   13.3276   13.2526 H   0  0  0  0  0  0  0  0  0  0  0  0
   52.5361   13.3141   14.9928 H   0  0  0  0  0  0  0  0  0  0  0  0
   51.8180   10.1412   16.7437 H   0  0  0  0  0  0  0  0  0  0  0  0
   48.5873   10.0087   17.4370 H   0  0  0  0  0  0  0  0  0  0  0  0
   53.1694   10.3000   14.6529 H   0  0  0  0  0  0  0  0  0  0  0  0
   52.4367    7.8735   15.3832 H   0  0  0  0  0  0  0  0  0  0  0  0
   51.9132   10.6793   12.3945 H   0  0  0  0  0  0  0  0  0  0  0  0
   52.0373    9.0640   13.0423 H   0  0  0  0  0  0  0  0  0  0  0  0
   49.2846   12.0180   16.8240 H   0  0  0  0  0  0  0  0  0  0  0  0
   49.1191   12.2118   15.0885 H   0  0  0  0  0  0  0  0  0  0  0  0
   50.7552    6.4369   16.3421 H   0  0  0  0  0  0  0  0  0  0  0  0
   49.6183    8.1452   18.0700 H   0  0  0  0  0  0  0  0  0  0  0  0
   51.5913   12.3631   16.8291 H   0  0  0  0  0  0  0  0  0  0  0  0
   50.9479   13.5811   15.7812 H   0  0  0  0  0  0  0  0  0  0  0  0
   49.9044    9.4820   11.0513 H   0  0  0  0  0  0  0  0  0  0  0  0
   47.5251    8.9271   11.1422 H   0  0  0  0  0  0  0  0  0  0  0  0
   51.1045   12.8110   13.0950 H   0  0  0  0  0  0  0  0  0  0  0  0
   52.8751   12.6026   12.9688 H   0  0  0  0  0  0  0  0  0  0  0  0
   52.2189   13.9207   13.9068 H   0  0  0  0  0  0  0  0  0  0  0  0
   48.6815    6.2242   17.2397 H   0  0  0  0  0  0  0  0  0  0  0  0
   44.3056    8.0809   12.6490 H   0  0  0  0  0  0  0  0  0  0  0  0
   45.2208    9.1789   11.6083 H   0  0  0  0  0  0  0  0  0  0  0  0
   45.7723    7.4783   11.8691 H   0  0  0  0  0  0  0  0  0  0  0  0
  2  1  1  0
  3  1  2  0
  4  1  1  0
  5  3  1  0
  6  7  1  0
  7  4  2  0
  8  2  2  0
  9 12  2  0
 10  2  1  0
 11 14  2  0
 12 13  1  0
 13 10  1  0
 14 15  1  0
 15 13  2  0
 16 21  2  0
 17  5  1  0
 18  6  1  0
 19  9  1  0
 20 11  1  0
 21  4  1  0
 22 17  1  0
 23 19  1  0
 24 18  1  0
 25 20  1  0
 16  8  1  0
  6  5  2  0
 11  9  1  0
 27 26  1  0
 28 26  1  0
 29 27  2  0
 30 26  1  0
 30 31  1  0
 32 28  1  0
 33 27  1  0
 28 34  1  0
 32 35  1  0
 36 41  1  0
 26 37  1  1
 38 39  1  0
 39 30  1  0
 40 29  1  0
 41 37  1  0
 42 33  2  0
 43 42  1  0
 44 40  1  0
 39 45  1  0
 46 36  1  0
 29 31  1  0
 32 36  1  0
 38 34  2  0
 35 33  1  0
 43 40  2  0
 48 47  1  0
 49 47  1  0
 50 48  2  0
 51 47  1  0
 52 51  1  0
 53 49  1  0
 54 62  1  0
 55 48  1  0
 49 56  1  0
 53 57  1  0
 47 58  1  1
 59 60  1  0
 60 51  1  0
 61 50  1  0
 62 58  1  0
 63 55  2  0
 64 63  1  0
 65 54  1  0
 60 66  1  0
 67 61  1  0
 68 67  1  0
 52 50  1  0
 53 54  1  0
 59 56  2  0
 57 55  1  0
 64 61  2  0
  3 69  1  0
  7 70  1  0
 10 71  1  0
 10 72  1  0
 12 73  1  0
 14 74  1  0
 15 75  1  0
 16 76  1  0
 21 77  1  0
 22 78  1  0
 22 79  1  0
 22 80  1  0
 23 81  1  0
 23 82  1  0
 23 83  1  0
 24 84  1  0
 24 85  1  0
 24 86  1  0
 25 87  1  0
 25 88  1  0
 25 89  1  0
 28 90  1  1
 30 91  1  1
 32 92  1  6
 34 93  1  0
 35 94  1  0
 35 95  1  0
 37 96  1  0
 37 97  1  0
 38 98  1  0
 39 99  1  1
 41100  1  0
 41101  1  0
 42102  1  0
 43103  1  0
 44104  1  0
 45105  1  0
 46106  1  0
 46107  1  0
 46108  1  0
 49109  1  1
 51110  1  1
 53111  1  6
 56112  1  0
 57113  1  0
 57114  1  0
 58115  1  0
 58116  1  0
 59117  1  0
 60118  1  1
 62119  1  0
 62120  1  0
 63121  1  0
 64122  1  0
 65123  1  0
 65124  1  0
 65125  1  0
 66126  1  0
 68127  1  0
 68128  1  0
 68129  1  0
M  END
> <Uni-Dock RESULT> 
ENERGY=   -5.533  LOWER_BOUND=    4.889  UPPER_BOUND=    7.632
INTER + INTRA:          -5.533
INTER:                  -5.533
INTRA:                   0.000
UNBOUND:                 0.000

$$$$

     RDKit          3D

129139  0  0  0  0  0  0  0  0999 V2000
   46.7983   12.4099   11.8151 C   0  0  0  0  0  0  0  0  0  0  0  0
   48.0167   11.8267   12.2541 C   0  0  0  0  0  0  0  0  0  0  0  0
   46.0455   11.9722   10.6961 C   0  0  0  0  0  0  0  0  0  0  0  0
   46.3066   13.5093   12.5519 C   0  0  0  0  0  0  0  0  0  0  0  0
   44.8479   12.5951   10.3233 C   0  0  0  0  0  0  0  0  0  0  0  0
   44.3730   13.6864   11.0693 C   0  0  0  0  0  0  0  0  0  0  0  0
   45.1047   14.1329   12.1736 C   0  0  0  0  0  0  0  0  0  0  0  0
   48.7031   12.2907   13.3321 N   0  0  0  0  0  0  0  0  0  0  0  0
   50.9664    8.4894   13.6367 C   0  0  0  0  0  0  0  0  0  0  0  0
   48.6171   10.6406   11.5127 C   0  0  0  0  0  0  0  0  0  0  0  0
   52.2283    8.9377   13.1976 C   0  0  0  0  0  0  0  0  0  0  0  0
   49.8049    9.0452   13.0842 C   0  0  0  0  0  0  0  0  0  0  0  0
   49.8807   10.0430   12.0987 C   0  0  0  0  0  0  0  0  0  0  0  0
   52.3037    9.9383   12.2229 C   0  0  0  0  0  0  0  0  0  0  0  0
   51.1394   10.4896   11.6820 C   0  0  0  0  0  0  0  0  0  0  0  0
   48.1984   13.3391   14.0043 C   0  0  0  0  0  0  0  0  0  0  0  0
   44.0748   12.2159    9.2535 O   0  0  0  0  0  0  0  0  0  0  0  0
   43.1939   14.2431   10.6405 O   0  0  0  0  0  0  0  0  0  0  0  0
   50.9742    7.5062   14.5967 O   0  0  0  0  0  0  0  0  0  0  0  0
   53.3193    8.3390   13.7806 O   0  0  0  0  0  0  0  0  0  0  0  0
   47.0220   13.9725   13.6590 C   0  0  0  0  0  0  0  0  0  0  0  0
   44.4963   11.0975    8.4880 C   0  0  0  0  0  0  0  0  0  0  0  0
   49.7295    7.1485   15.1781 C   0  0  0  0  0  0  0  0  0  0  0  0
   42.6754   15.3446   11.3701 C   0  0  0  0  0  0  0  0  0  0  0  0
   54.6038    8.8257   13.4245 C   0  0  0  0  0  0  0  0  0  0  0  0
   48.8680   11.7956   11.9531 C   0  0  2  0  0  0  0  0  0  0  0  0
   47.3959   11.6010   11.7519 C   0  0  0  0  0  0  0  0  0  0  0  0
   49.3464   10.9490   13.1361 C   0  0  2  0  0  0  0  0  0  0  0  0
   46.8170   12.7679   11.2937 C   0  0  0  0  0  0  0  0  0  0  0  0
   48.8079   13.3268   12.1274 C   0  0  1  0  0  0  0  0  0  0  0  0
   47.7096   13.8169   11.2783 O   0  0  0  0  0  0  0  0  0  0  0  0
   48.9000    9.4790   12.8154 C   0  0  1  0  0  0  0  0  0  0  0  0
   46.6604   10.4674   12.0490 C   0  0  0  0  0  0  0  0  0  0  0  0
   48.9014   11.4789   14.4733 C   0  0  0  0  0  0  0  0  0  0  0  0
   47.3432    9.3351   12.7706 C   0  0  0  0  0  0  0  0  0  0  0  0
   49.4183    9.0001   11.5025 N   0  0  0  0  0  0  0  0  0  0  0  0
   49.6073   11.3568   10.6635 C   0  0  0  0  0  0  0  0  0  0  0  0
   48.5807   12.7663   14.6640 C   0  0  0  0  0  0  0  0  0  0  0  0
   48.6047   13.8228   13.5976 C   0  0  2  0  0  0  0  0  0  0  0  0
   45.4737   12.8154   10.9989 C   0  0  0  0  0  0  0  0  0  0  0  0
   50.2542    9.9654   10.7880 C   0  0  0  0  0  0  0  0  0  0  0  0
   45.2929   10.5030   11.7639 C   0  0  0  0  0  0  0  0  0  0  0  0
   44.7059   11.6664   11.2193 C   0  0  0  0  0  0  0  0  0  0  0  0
   44.9179   13.9722   10.5472 O   0  0  0  0  0  0  0  0  0  0  0  0
   47.4068   14.5853   13.7606 O   0  0  0  0  0  0  0  0  0  0  0  0
   50.0844    7.7050   11.6201 C   0  0  0  0  0  0  0  0  0  0  0  0
   49.3260   11.5064   11.9243 C   0  0  2  0  0  0  0  0  0  0  0  0
   47.8478   11.2588   11.8452 C   0  0  0  0  0  0  0  0  0  0  0  0
   49.7988   11.1679   13.3491 C   0  0  2  0  0  0  0  0  0  0  0  0
   47.2351   12.2013   11.0442 C   0  0  0  0  0  0  0  0  0  0  0  0
   49.2844   12.9938   11.5049 C   0  0  1  0  0  0  0  0  0  0  0  0
   48.1125   13.1757   10.6382 O   0  0  0  0  0  0  0  0  0  0  0  0
   49.4077    9.6605   13.5727 C   0  0  2  0  0  0  0  0  0  0  0  0
   50.1610    8.7845   12.6323 N   0  0  0  0  0  0  0  0  0  0  0  0
   47.1406   10.2827   12.5204 C   0  0  0  0  0  0  0  0  0  0  0  0
   49.2613   12.1395   14.3749 C   0  0  0  0  0  0  0  0  0  0  0  0
   47.8457    9.4878   13.5833 C   0  0  0  0  0  0  0  0  0  0  0  0
   50.0165   10.6002   10.8760 C   0  0  0  0  0  0  0  0  0  0  0  0
   49.0189   13.4228   14.0632 C   0  0  0  0  0  0  0  0  0  0  0  0
   49.3077   13.9989   12.7008 C   0  0  2  0  0  0  0  0  0  0  0  0
   45.8815   12.1360   10.7639 C   0  0  0  0  0  0  0  0  0  0  0  0
   50.8197    9.4657   11.5181 C   0  0  0  0  0  0  0  0  0  0  0  0
   45.7717   10.2004   12.2678 C   0  0  0  0  0  0  0  0  0  0  0  0
   45.1529   11.1044   11.3765 C   0  0  0  0  0  0  0  0  0  0  0  0
   49.5079    7.5497   12.2235 C   0  0  0  0  0  0  0  0  0  0  0  0
   48.4660   15.1234   12.4665 O   0  0  0  0  0  0  0  0  0  0  0  0
   45.3783   13.0877    9.9261 O   0  0  0  0  0  0  0  0  0  0  0  0
   43.9773   13.0710    9.6971 C   0  0  0  0  0  0  0  0  0  0  0  0
   46.4136   11.1326   10.1176 H   0  0  0  0  0  0  0  0  0  0  0  0
   44.7552   14.9755   12.7619 H   0  0  0  0  0  0  0  0  0  0  0  0
   47.8660    9.8430   11.4556 H   0  0  0  0  0  0  0  0  0  0  0  0
   48.8263   10.9466   10.4789 H   0  0  0  0  0  0  0  0  0  0  0  0
   48.8213    8.7224   13.4098 H   0  0  0  0  0  0  0  0  0  0  0  0
   53.2544   10.3174   11.8650 H   0  0  0  0  0  0  0  0  0  0  0  0
   51.2224   11.2782   10.9376 H   0  0  0  0  0  0  0  0  0  0  0  0
   48.7852   13.6687   14.8569 H   0  0  0  0  0  0  0  0  0  0  0  0
   46.6763   14.8145   14.2502 H   0  0  0  0  0  0  0  0  0  0  0  0
   43.7570   10.9349    7.6985 H   0  0  0  0  0  0  0  0  0  0  0  0
   45.4601   11.2901    8.0052 H   0  0  0  0  0  0  0  0  0  0  0  0
   44.5327   10.1898    9.0999 H   0  0  0  0  0  0  0  0  0  0  0  0
   49.2394    8.0138   15.6371 H   0  0  0  0  0  0  0  0  0  0  0  0
   49.0774    6.6661   14.4428 H   0  0  0  0  0  0  0  0  0  0  0  0
   49.9279    6.4215   15.9711 H   0  0  0  0  0  0  0  0  0  0  0  0
   42.4437   15.0622   12.4025 H   0  0  0  0  0  0  0  0  0  0  0  0
   43.3594   16.1992   11.3357 H   0  0  0  0  0  0  0  0  0  0  0  0
   41.7391   15.6508   10.8928 H   0  0  0  0  0  0  0  0  0  0  0  0
   54.8122    8.6505   12.3644 H   0  0  0  0  0  0  0  0  0  0  0  0
   54.7133    9.8844   13.6815 H   0  0  0  0  0  0  0  0  0  0  0  0
   55.3448    8.2662   14.0036 H   0  0  0  0  0  0  0  0  0  0  0  0
   50.4447   10.9729   13.1872 H   0  0  0  0  0  0  0  0  0  0  0  0
   49.7303   13.7862   11.7509 H   0  0  0  0  0  0  0  0  0  0  0  0
   49.2723    8.8313   13.6216 H   0  0  0  0  0  0  0  0  0  0  0  0
   48.8832   10.7944   15.3177 H   0  0  0  0  0  0  0  0  0  0  0  0
   46.9667    9.3196   13.8016 H   0  0  0  0  0  0  0  0  0  0  0  0
   47.0597    8.3781   12.3137 H   0  0  0  0  0  0  0  0  0  0  0  0
   48.9384   11.3640    9.7930 H   0  0  0  0  0  0  0  0  0  0  0  0
   50.4142   12.0648   10.4353 H   0  0  0  0  0  0  0  0  0  0  0  0
   48.2888   13.0995   15.6576 H   0  0  0  0  0  0  0  0  0  0  0  0
   49.4296   14.5053   13.8357 H   0  0  0  0  0  0  0  0  0  0  0  0
   51.2301   10.0661   11.2809 H   0  0  0  0  0  0  0  0  0  0  0  0
   50.4614    9.5970    9.7751 H   0  0  0  0  0  0  0  0  0  0  0  0
   44.6673    9.6409   11.9811 H   0  0  0  0  0  0  0  0  0  0  0  0
   43.6391   11.6635   11.0138 H   0  0  0  0  0  0  0  0  0  0  0  0
   43.9658   13.8247   10.4170 H   0  0  0  0  0  0  0  0  0  0  0  0
   47.1187   14.8375   12.8583 H   0  0  0  0  0  0  0  0  0  0  0  0
   50.3540    7.3191   10.6311 H   0  0  0  0  0  0  0  0  0  0  0  0
   49.4143    6.9654   12.0722 H   0  0  0  0  0  0  0  0  0  0  0  0
   50.9948    7.7671   12.2276 H   0  0  0  0  0  0  0  0  0  0  0  0
   50.8919   11.2623   13.4200 H   0  0  0  0  0  0  0  0  0  0  0  0
   50.1491   13.2397   10.8757 H   0  0  0  0  0  0  0  0  0  0  0  0
   49.7524    9.3662   14.5730 H   0  0  0  0  0  0  0  0  0  0  0  0
   49.0977   11.7873   15.3902 H   0  0  0  0  0  0  0  0  0  0  0  0
   47.5424    8.4373   13.5363 H   0  0  0  0  0  0  0  0  0  0  0  0
   47.4798    9.8540   14.5527 H   0  0  0  0  0  0  0  0  0  0  0  0
   50.7198   11.1883   10.2717 H   0  0  0  0  0  0  0  0  0  0  0  0
   49.2952   10.1700   10.1691 H   0  0  0  0  0  0  0  0  0  0  0  0
   48.6581   14.0925   14.8389 H   0  0  0  0  0  0  0  0  0  0  0  0
   50.3295   14.3982   12.7629 H   0  0  0  0  0  0  0  0  0  0  0  0
   51.7649    9.8803   11.8957 H   0  0  0  0  0  0  0  0  0  0  0  0
   51.1335    8.7578   10.7395 H   0  0  0  0  0  0  0  0  0  0  0  0
   45.1637    9.4541   12.7739 H   0  0  0  0  0  0  0  0  0  0  0  0
   44.0856   10.9938   11.2106 H   0  0  0  0  0  0  0  0  0  0  0  0
   48.6610    7.7289   11.5524 H   0  0  0  0  0  0  0  0  0  0  0  0
   49.1656    6.9798   13.0947 H   0  0  0  0  0  0  0  0  0  0  0  0
   50.2144    6.8940   11.7016 H   0  0  0  0  0  0  0  0  0  0  0  0
   48.5050   15.7006   13.2446 H   0  0  0  0  0  0  0  0  0  0  0  0
   43.7348   13.9096    9.0365 H   0  0  0  0  0  0  0  0  0  0  0  0
   43.6711   12.1493    9.1898 H   0  0  0  0  0  0  0  0  0  0  0  0
   43.4210   13.2120   10.6294 H   0  0  0  0  0  0  0  0  0  0  0  0
  2  1  1  0
  3  1  2  0
  4  1  1  0
  5  3  1  0
  6  7  1  0
  7  4  2  0
  8  2  2  0
  9 12  2  0
 10  2  1  0
 11 14  2  0
 12 13  1  0
 13 10  1  0
 14 15  1  0
 15 13  2  0
 16 21  2  0
 17  5  1  0
 18  6  1  0
 19  9  1  0
 20 11  1  0
 21  4  1  0
 22 17  1  0
 23 19  1  0
 24 18  1  0
 25 20  1  0
 16  8  1  0
  6  5  2  0
 11  9  1  0
 27 26  1  0
 28 26  1  0
 29 27  2  0
 30 26  1  0
 30 31  1  0
 32 28  1  0
 33 27  1  0
 28 34  1  0
 32 35  1  0
 36 41  1  0
 26 37  1  1
 38 39  1  0
 39 30  1  0
 40 29  1  0
 41 37  1  0
 42 33  2  0
 43 42  1  0
 44 40  1  0
 39 45  1  0
 46 36  1  0
 29 31  1  0
 32 36  1  0
 38 34  2  0
 35 33  1  0
 43 40  2  0
 48 47  1  0
 49 47  1  0
 50 48  2  0
 51 47  1  0
 52 51  1  0
 53 49  1  0
 54 62  1  0
 55 48  1  0
 49 56  1  0
 53 57  1  0
 47 58  1  1
 59 60  1  0
 60 51  1  0
 61 50  1  0
 62 58  1  0
 63 55  2  0
 64 63  1  0
 65 54  1  0
 60 66  1  0
 67 61  1  0
 68 67  1  0
 52 50  1  0
 53 54  1  0
 59 56  2  0
 57 55  1  0
 64 61  2  0
  3 69  1  0
  7 70  1  0
 10 71  1  0
 10 72  1  0
 12 73  1  0
 14 74  1  0
 15 75  1  0
 16 76  1  0
 21 77  1  0
 22 78  1  0
 22 79  1  0
 22 80  1  0
 23 81  1  0
 23 82  1  0
 23 83  1  0
 24 84  1  0
 24 85  1  0
 24 86  1  0
 25 87  1  0
 25 88  1  0
 25 89  1  0
 28 90  1  1
 30 91  1  1
 32 92  1  6
 34 93  1  0
 35 94  1  0
 35 95  1  0
 37 96  1  0
 37 97  1  0
 38 98  1  0
 39 99  1  1
 41100  1  0
 41101  1  0
 42102  1  0
 43103  1  0
 44104  1  0
 45105  1  0
 46106  1  0
 46107  1  0
 46108  1  0
 49109  1  1
 51110  1  1
 53111  1  6
 56112  1  0
 57113  1  0
 57114  1  0
 58115  1  0
 58116  1  0
 59117  1  0
 60118  1  1
 62119  1  0
 62120  1  0
 63121  1  0
 64122  1  0
 65123  1  0
 65124  1  0
 65125  1  0
 66126  1  0
 68127  1  0
 68128  1  0
 68129  1  0
M  END
> <Uni-Dock RESULT> 
ENERGY=   -5.434  LOWER_BOUND=    7.553  UPPER_BOUND=   10.906
INTER + INTRA:          -5.434
INTER:                  -5.434
INTRA:                   0.000
UNBOUND:                 0.000

$$$$
